MIL.pdb
     RDKit          3D

 25 24  0  0  1  0  0  0  0  0999 V2000
   31.1875  -16.4054  -16.3020 C   0  0  0  0  0  0  0  0  0  0  0  0
   30.8243  -17.0804  -17.9216 S   0  0  0  0  0  0  0  0  0  0  0  0
   29.0843  -17.5605  -18.0892 C   0  0  0  0  0  0  0  0  0  0  0  0
   28.4744  -17.6192  -16.6843 C   0  0  0  0  0  0  0  0  0  0  0  0
   27.2933  -18.5499  -16.6476 C   0  0  2  0  0  0  0  0  0  0  0  0
   26.3779  -18.1978  -17.6849 N   0  0  0  0  0  0  0  0  0  0  0  0
   26.6239  -18.6200  -15.3547 C   0  0  0  0  0  0  0  0  0  0  0  0
   26.4402  -17.5578  -14.7082 O   0  0  0  0  0  0  0  0  0  0  0  0
   21.9653  -20.2014  -15.1288 C   0  0  0  0  0  0  0  0  0  0  0  0
   23.3011  -19.5995  -14.8311 C   0  0  0  0  0  0  0  0  0  0  0  0
   24.0419  -20.4473  -13.8238 C   0  0  2  0  0  0  0  0  0  0  0  0
   23.1969  -20.6532  -12.5870 C   0  0  0  0  0  0  0  0  0  0  0  0
   25.3804  -19.8611  -13.5221 C   0  0  2  0  0  0  0  0  0  0  0  0
   26.1493  -19.8184  -14.7484 N   0  0  0  0  0  0  0  0  0  0  0  0
   26.1003  -20.6055  -12.4482 C   0  0  0  0  0  0  0  0  0  0  0  0
   26.6211  -21.7218  -12.7014 O   0  0  0  0  0  0  0  0  0  0  0  0
   26.4445  -18.6606   -8.1259 C   0  0  0  0  0  0  0  0  0  0  0  0
   27.5244  -19.6775   -8.1039 C   0  0  2  0  0  0  0  0  0  0  0  0
   28.8381  -18.9755   -7.7488 C   0  0  0  0  0  0  0  0  0  0  0  0
   27.7415  -20.5163   -9.3040 C   0  0  0  0  0  0  0  0  0  0  0  0
   26.5990  -21.0668  -10.0568 C   0  0  2  0  0  0  0  0  0  0  0  0
   26.2296  -20.1125  -11.1376 N   0  0  0  0  0  0  0  0  0  0  0  0
   25.3568  -21.3712   -9.3503 C   0  0  0  0  0  0  0  0  0  0  0  0
   24.2653  -20.7541   -9.4801 O   0  0  0  0  0  0  0  0  0  0  0  0
   25.3525  -22.4434   -8.4401 O   0  0  0  0  0  0  0  0  0  0  0  0
  1  2  1  0
  2  3  1  0
  3  4  1  0
  5  4  1  0
  5  6  1  6
  7  5  1  0
  8  7  2  0
 10 11  1  0
 10  9  1  0
 11 13  1  0
 11 12  1  1
 13 14  1  6
 14  7  1  0
 15 22  1  0
 15 13  1  0
 16 15  2  0
 18 19  1  6
 18 17  1  0
 21 20  1  1
 20 18  1  0
 21 22  1  0
 23 21  1  0
 24 23  2  0
 25 23  1  0
M  END
$$$$
