HMA.pdb
     RDKit          3D

 24 24  0  0  1  0  0  0  0  0999 V2000
   10.2011  -13.9803   20.0540 N   0  0  0  0  0  0  0  0  0  0  0  0
    8.8939  -14.1783   20.5793 C   0  0  1  0  0  0  0  0  0  0  0  0
    7.9953  -15.0655   19.7934 C   0  0  0  0  0  0  0  0  0  0  0  0
    7.7964  -14.6956   18.3765 C   0  0  0  0  0  0  0  0  0  0  0  0
    7.7088  -13.4511   17.8073 C   0  0  0  0  0  0  0  0  0  0  0  0
    7.5522  -13.6624   16.4697 N   0  0  0  0  0  0  0  0  0  0  0  0
    7.5429  -14.9749   16.2133 C   0  0  0  0  0  0  0  0  0  0  0  0
    7.6910  -15.6299   17.3644 N   0  0  0  0  0  0  0  0  0  0  0  0
    8.9595  -14.5421   22.0143 C   0  0  0  0  0  0  0  0  0  0  0  0
   10.0039  -15.1225   22.4877 O   0  0  0  0  0  0  0  0  0  0  0  0
    8.0089  -11.4866   28.1439 C   0  0  0  0  0  0  0  0  0  0  0  0
    6.7251  -11.8578   26.9102 S   0  0  0  0  0  0  0  0  0  0  0  0
    6.8685  -13.6288   26.4334 C   0  0  0  0  0  0  0  0  0  0  0  0
    6.9267  -13.6857   24.9537 C   0  0  0  0  0  0  0  0  0  0  0  0
    8.1715  -14.2842   24.3576 C   0  0  2  0  0  0  0  0  0  0  0  0
    7.9066  -14.2755   22.8923 N   0  0  0  0  0  0  0  0  0  0  0  0
    8.4152  -15.6893   24.7691 C   0  0  0  0  0  0  0  0  0  0  0  0
    7.4866  -16.5189   24.5940 O   0  0  0  0  0  0  0  0  0  0  0  0
   11.0886  -18.1120   25.4213 C   0  0  0  0  0  0  0  0  0  0  0  0
    9.7269  -17.5751   25.6990 C   0  0  2  0  0  0  0  0  0  0  0  0
    9.6132  -16.1604   25.3398 N   0  0  0  0  0  0  0  0  0  0  0  0
    9.4608  -17.7616   27.1626 C   0  0  0  0  0  0  0  0  0  0  0  0
    9.1863  -16.7996   27.9141 O   0  0  0  0  0  0  0  0  0  0  0  0
    9.5295  -19.0532   27.6635 O   0  0  0  0  0  0  0  0  0  0  0  0
  2  1  1  6
  2  9  1  0
  3  2  1  0
  4  3  1  0
  5  4  2  0
  6  7  1  0
  6  5  1  0
  7  8  2  0
  8  4  1  0
  9 10  2  0
 11 12  1  0
 13 12  1  0
 13 14  1  0
 15 14  1  1
 15 17  1  0
 16 15  1  0
 16  9  1  0
 17 21  1  0
 17 18  2  0
 20 19  1  1
 20 22  1  0
 21 20  1  0
 22 23  2  0
 22 24  1  0
M  END
$$$$
