HMA.pdb
     RDKit          3D

 24 24  0  0  1  0  0  0  0  0999 V2000
    7.4241  -17.1279   20.7157 N   0  0  0  0  0  0  0  0  0  0  0  0
    8.8046  -16.7852   20.6877 C   0  0  1  0  0  0  0  0  0  0  0  0
    9.2737  -16.0371   19.4909 C   0  0  0  0  0  0  0  0  0  0  0  0
    8.6043  -14.7456   19.2302 C   0  0  0  0  0  0  0  0  0  0  0  0
    7.6112  -14.1225   19.9414 C   0  0  0  0  0  0  0  0  0  0  0  0
    7.3695  -12.9472   19.2942 N   0  0  0  0  0  0  0  0  0  0  0  0
    8.1723  -12.8390   18.2301 C   0  0  0  0  0  0  0  0  0  0  0  0
    8.9388  -13.9275   18.1685 N   0  0  0  0  0  0  0  0  0  0  0  0
    9.2093  -16.1513   21.9645 C   0  0  0  0  0  0  0  0  0  0  0  0
   10.4113  -15.7245   22.1227 O   0  0  0  0  0  0  0  0  0  0  0  0
    6.8071  -11.8406   27.9158 C   0  0  0  0  0  0  0  0  0  0  0  0
    6.6249  -12.6012   26.2737 S   0  0  0  0  0  0  0  0  0  0  0  0
    7.7543  -14.0498   26.1728 C   0  0  0  0  0  0  0  0  0  0  0  0
    7.6275  -14.6161   24.8092 C   0  0  0  0  0  0  0  0  0  0  0  0
    8.8081  -15.3962   24.2984 C   0  0  2  0  0  0  0  0  0  0  0  0
    8.3170  -15.9976   23.0278 N   0  0  0  0  0  0  0  0  0  0  0  0
    9.2266  -16.5023   25.1953 C   0  0  0  0  0  0  0  0  0  0  0  0
    8.3862  -17.4046   25.4417 O   0  0  0  0  0  0  0  0  0  0  0  0
   12.2825  -18.0409   26.6696 C   0  0  0  0  0  0  0  0  0  0  0  0
   10.8145  -17.8015   26.5853 C   0  0  2  0  0  0  0  0  0  0  0  0
   10.4989  -16.6147   25.7883 N   0  0  0  0  0  0  0  0  0  0  0  0
   10.3056  -17.6360   27.9858 C   0  0  0  0  0  0  0  0  0  0  0  0
    9.8065  -16.5610   28.3869 O   0  0  0  0  0  0  0  0  0  0  0  0
   10.4074  -18.7284   28.8344 O   0  0  0  0  0  0  0  0  0  0  0  0
  2  1  1  1
  2  9  1  0
  3  2  1  0
  4  3  1  0
  5  4  2  0
  6  7  1  0
  6  5  1  0
  7  8  2  0
  8  4  1  0
  9 10  2  0
 11 12  1  0
 13 12  1  0
 13 14  1  0
 15 14  1  1
 15 17  1  0
 16 15  1  0
 16  9  1  0
 17 21  1  0
 17 18  2  0
 20 19  1  1
 20 22  1  0
 21 20  1  0
 22 23  2  0
 22 24  1  0
M  END
$$$$
