HMA.pdb
     RDKit          3D

 24 24  0  0  1  0  0  0  0  0999 V2000
    9.5387  -15.8158   19.6584 N   0  0  0  0  0  0  0  0  0  0  0  0
    8.6117  -16.4062   20.5618 C   0  0  1  0  0  0  0  0  0  0  0  0
    8.4186  -17.8760   20.4409 C   0  0  0  0  0  0  0  0  0  0  0  0
    7.9847  -18.3660   19.1159 C   0  0  0  0  0  0  0  0  0  0  0  0
    6.8071  -18.1425   18.4497 C   0  0  0  0  0  0  0  0  0  0  0  0
    6.9216  -18.7965   17.2591 N   0  0  0  0  0  0  0  0  0  0  0  0
    8.1127  -19.3996   17.1828 C   0  0  0  0  0  0  0  0  0  0  0  0
    8.7834  -19.1513   18.3074 N   0  0  0  0  0  0  0  0  0  0  0  0
    8.8881  -15.9690   21.9504 C   0  0  0  0  0  0  0  0  0  0  0  0
   10.0634  -16.1093   22.4512 O   0  0  0  0  0  0  0  0  0  0  0  0
    8.2723  -11.7405   27.5696 C   0  0  0  0  0  0  0  0  0  0  0  0
    7.1274  -12.1304   26.2112 S   0  0  0  0  0  0  0  0  0  0  0  0
    6.9774  -13.9593   26.0810 C   0  0  0  0  0  0  0  0  0  0  0  0
    7.0009  -14.3040   24.6399 C   0  0  0  0  0  0  0  0  0  0  0  0
    8.2594  -14.9507   24.1290 C   0  0  2  0  0  0  0  0  0  0  0  0
    7.8992  -15.3996   22.7557 N   0  0  0  0  0  0  0  0  0  0  0  0
    8.6751  -16.1453   24.9056 C   0  0  0  0  0  0  0  0  0  0  0  0
    7.8461  -17.0835   25.0229 O   0  0  0  0  0  0  0  0  0  0  0  0
   11.7140  -17.9178   25.9834 C   0  0  0  0  0  0  0  0  0  0  0  0
   10.2697  -17.5871   26.1385 C   0  0  2  0  0  0  0  0  0  0  0  0
    9.9328  -16.3043   25.5186 N   0  0  0  0  0  0  0  0  0  0  0  0
    9.9738  -17.5467   27.6077 C   0  0  0  0  0  0  0  0  0  0  0  0
   10.1343  -18.5457   28.3438 O   0  0  0  0  0  0  0  0  0  0  0  0
    9.5098  -16.3493   28.1319 O   0  0  0  0  0  0  0  0  0  0  0  0
  2  1  1  6
  2  9  1  0
  3  2  1  0
  4  3  1  0
  5  4  2  0
  6  7  1  0
  6  5  1  0
  7  8  2  0
  8  4  1  0
  9 10  2  0
 11 12  1  0
 13 12  1  0
 13 14  1  0
 15 14  1  1
 15 17  1  0
 16 15  1  0
 16  9  1  0
 17 21  1  0
 17 18  2  0
 20 19  1  1
 20 22  1  0
 21 20  1  0
 22 23  2  0
 22 24  1  0
M  END
$$$$
