HMA.pdb
     RDKit          3D

 24 24  0  0  1  0  0  0  0  0999 V2000
    9.4659  -15.7585   19.4911 N   0  0  0  0  0  0  0  0  0  0  0  0
    8.4999  -16.2963   20.3864 C   0  0  1  0  0  0  0  0  0  0  0  0
    8.2219  -17.7520   20.2591 C   0  0  0  0  0  0  0  0  0  0  0  0
    7.6453  -18.1917   18.9714 C   0  0  0  0  0  0  0  0  0  0  0  0
    6.3439  -18.4897   18.6586 C   0  0  0  0  0  0  0  0  0  0  0  0
    6.3432  -18.8159   17.3350 N   0  0  0  0  0  0  0  0  0  0  0  0
    7.5833  -18.7259   16.8425 C   0  0  0  0  0  0  0  0  0  0  0  0
    8.3999  -18.3451   17.8245 N   0  0  0  0  0  0  0  0  0  0  0  0
    8.7920  -15.8803   21.7783 C   0  0  0  0  0  0  0  0  0  0  0  0
   10.0061  -15.8273   22.1966 O   0  0  0  0  0  0  0  0  0  0  0  0
    7.8908  -11.7580   27.5441 C   0  0  0  0  0  0  0  0  0  0  0  0
    6.9584  -12.2275   26.0548 S   0  0  0  0  0  0  0  0  0  0  0  0
    6.8569  -14.0630   25.9840 C   0  0  0  0  0  0  0  0  0  0  0  0
    6.8574  -14.4517   24.5540 C   0  0  0  0  0  0  0  0  0  0  0  0
    8.1500  -14.9978   24.0115 C   0  0  2  0  0  0  0  0  0  0  0  0
    7.7774  -15.5379   22.6748 N   0  0  0  0  0  0  0  0  0  0  0  0
    8.7114  -16.1128   24.8143 C   0  0  0  0  0  0  0  0  0  0  0  0
    7.9949  -17.1330   24.9785 O   0  0  0  0  0  0  0  0  0  0  0  0
   11.9312  -17.3295   26.2634 C   0  0  0  0  0  0  0  0  0  0  0  0
   10.4483  -17.3002   26.1236 C   0  0  2  0  0  0  0  0  0  0  0  0
    9.9903  -16.1107   25.4035 N   0  0  0  0  0  0  0  0  0  0  0  0
    9.8667  -17.3260   27.5053 C   0  0  0  0  0  0  0  0  0  0  0  0
    9.1395  -16.4032   27.9355 O   0  0  0  0  0  0  0  0  0  0  0  0
   10.1650  -18.4214   28.3021 O   0  0  0  0  0  0  0  0  0  0  0  0
  2  1  1  6
  2  9  1  0
  3  2  1  0
  4  3  1  0
  5  4  2  0
  6  7  1  0
  6  5  1  0
  7  8  2  0
  8  4  1  0
  9 10  2  0
 11 12  1  0
 13 12  1  0
 13 14  1  0
 15 14  1  1
 15 17  1  0
 16 15  1  0
 16  9  1  0
 17 21  1  0
 17 18  2  0
 20 19  1  1
 20 22  1  0
 21 20  1  0
 22 23  2  0
 22 24  1  0
M  END
$$$$
