HMA.pdb
     RDKit          3D

 24 24  0  0  1  0  0  0  0  0999 V2000
   10.4669  -14.1072   19.8317 N   0  0  0  0  0  0  0  0  0  0  0  0
    9.1426  -14.2028   20.3427 C   0  0  1  0  0  0  0  0  0  0  0  0
    8.1632  -14.9410   19.5012 C   0  0  0  0  0  0  0  0  0  0  0  0
    8.0352  -14.4824   18.1021 C   0  0  0  0  0  0  0  0  0  0  0  0
    7.7660  -13.2271   17.6203 C   0  0  0  0  0  0  0  0  0  0  0  0
    7.7833  -13.3369   16.2616 N   0  0  0  0  0  0  0  0  0  0  0  0
    8.0508  -14.5990   15.9094 C   0  0  0  0  0  0  0  0  0  0  0  0
    8.2097  -15.3210   17.0183 N   0  0  0  0  0  0  0  0  0  0  0  0
    9.1605  -14.6622   21.7515 C   0  0  0  0  0  0  0  0  0  0  0  0
   10.2315  -15.1631   22.2552 O   0  0  0  0  0  0  0  0  0  0  0  0
    7.6087  -12.1823   28.3430 C   0  0  0  0  0  0  0  0  0  0  0  0
    7.9092  -12.4809   26.5742 S   0  0  0  0  0  0  0  0  0  0  0  0
    6.7404  -13.7778   25.9944 C   0  0  0  0  0  0  0  0  0  0  0  0
    6.9027  -13.8958   24.5261 C   0  0  0  0  0  0  0  0  0  0  0  0
    8.2225  -14.4312   24.0417 C   0  0  2  0  0  0  0  0  0  0  0  0
    8.0335  -14.5726   22.5714 N   0  0  0  0  0  0  0  0  0  0  0  0
    8.5620  -15.7684   24.5890 C   0  0  0  0  0  0  0  0  0  0  0  0
    7.7154  -16.6880   24.4521 O   0  0  0  0  0  0  0  0  0  0  0  0
   11.3439  -17.9376   25.4878 C   0  0  0  0  0  0  0  0  0  0  0  0
    9.9681  -17.4371   25.7637 C   0  0  2  0  0  0  0  0  0  0  0  0
    9.7659  -16.0815   25.2490 N   0  0  0  0  0  0  0  0  0  0  0  0
    9.7710  -17.4624   27.2497 C   0  0  0  0  0  0  0  0  0  0  0  0
    9.4650  -16.4351   27.8953 O   0  0  0  0  0  0  0  0  0  0  0  0
    9.9410  -18.6784   27.8948 O   0  0  0  0  0  0  0  0  0  0  0  0
  2  1  1  6
  2  9  1  0
  3  2  1  0
  4  3  1  0
  5  4  2  0
  6  7  1  0
  6  5  1  0
  7  8  2  0
  8  4  1  0
  9 10  2  0
 11 12  1  0
 13 12  1  0
 13 14  1  0
 15 14  1  1
 15 17  1  0
 16 15  1  0
 16  9  1  0
 17 21  1  0
 17 18  2  0
 20 19  1  1
 20 22  1  0
 21 20  1  0
 22 23  2  0
 22 24  1  0
M  END
$$$$
