HMA.pdb
     RDKit          3D

 24 24  0  0  1  0  0  0  0  0999 V2000
   10.6278  -14.2480   20.0778 N   0  0  0  0  0  0  0  0  0  0  0  0
    9.2958  -14.4054   20.5522 C   0  0  1  0  0  0  0  0  0  0  0  0
    8.4466  -15.3826   19.8199 C   0  0  0  0  0  0  0  0  0  0  0  0
    8.0224  -14.9829   18.4619 C   0  0  0  0  0  0  0  0  0  0  0  0
    8.3173  -13.8425   17.7598 C   0  0  0  0  0  0  0  0  0  0  0  0
    7.7023  -13.9788   16.5508 N   0  0  0  0  0  0  0  0  0  0  0  0
    7.0545  -15.1475   16.4977 C   0  0  0  0  0  0  0  0  0  0  0  0
    7.2349  -15.7820   17.6557 N   0  0  0  0  0  0  0  0  0  0  0  0
    9.2873  -14.6134   22.0194 C   0  0  0  0  0  0  0  0  0  0  0  0
   10.3490  -15.0149   22.6222 O   0  0  0  0  0  0  0  0  0  0  0  0
    7.8979  -11.9948   27.9387 C   0  0  0  0  0  0  0  0  0  0  0  0
    6.4830  -12.3624   26.8566 S   0  0  0  0  0  0  0  0  0  0  0  0
    6.6673  -14.0774   26.2171 C   0  0  0  0  0  0  0  0  0  0  0  0
    6.9125  -13.9822   24.7587 C   0  0  0  0  0  0  0  0  0  0  0  0
    8.2484  -14.4751   24.2732 C   0  0  2  0  0  0  0  0  0  0  0  0
    8.1449  -14.3876   22.7903 N   0  0  0  0  0  0  0  0  0  0  0  0
    8.5290  -15.8886   24.6287 C   0  0  0  0  0  0  0  0  0  0  0  0
    7.6853  -16.7558   24.2863 O   0  0  0  0  0  0  0  0  0  0  0  0
   11.2246  -18.2222   25.3536 C   0  0  0  0  0  0  0  0  0  0  0  0
    9.8329  -17.7551   25.6073 C   0  0  2  0  0  0  0  0  0  0  0  0
    9.6741  -16.3283   25.3203 N   0  0  0  0  0  0  0  0  0  0  0  0
    9.5219  -18.0322   27.0475 C   0  0  0  0  0  0  0  0  0  0  0  0
    9.6095  -19.1811   27.5353 O   0  0  0  0  0  0  0  0  0  0  0  0
    9.1285  -16.9587   27.8327 O   0  0  0  0  0  0  0  0  0  0  0  0
  2  1  1  6
  2  9  1  0
  3  2  1  0
  4  3  1  0
  5  4  2  0
  6  7  1  0
  6  5  1  0
  7  8  2  0
  8  4  1  0
  9 10  2  0
 11 12  1  0
 13 12  1  0
 13 14  1  0
 15 14  1  1
 15 17  1  0
 16 15  1  0
 16  9  1  0
 17 21  1  0
 17 18  2  0
 20 19  1  1
 20 22  1  0
 21 20  1  0
 22 23  2  0
 22 24  1  0
M  END
$$$$
