HMA.pdb
     RDKit          3D

 24 24  0  0  1  0  0  0  0  0999 V2000
    7.5952  -16.2466   20.6175 N   0  0  0  0  0  0  0  0  0  0  0  0
    8.7823  -15.4664   20.6943 C   0  0  1  0  0  0  0  0  0  0  0  0
    8.8464  -14.2749   19.8062 C   0  0  0  0  0  0  0  0  0  0  0  0
    8.6241  -14.5264   18.3671 C   0  0  0  0  0  0  0  0  0  0  0  0
    9.2413  -15.4264   17.5367 C   0  0  0  0  0  0  0  0  0  0  0  0
    8.6524  -15.2736   16.3167 N   0  0  0  0  0  0  0  0  0  0  0  0
    7.7120  -14.3250   16.3798 C   0  0  0  0  0  0  0  0  0  0  0  0
    7.6743  -13.8514   17.6249 N   0  0  0  0  0  0  0  0  0  0  0  0
    9.1112  -15.1572   22.1057 C   0  0  0  0  0  0  0  0  0  0  0  0
   10.2106  -14.5590   22.3978 O   0  0  0  0  0  0  0  0  0  0  0  0
    7.3702  -11.7968   27.5157 C   0  0  0  0  0  0  0  0  0  0  0  0
    6.2276  -12.5657   26.3277 S   0  0  0  0  0  0  0  0  0  0  0  0
    7.2094  -13.2368   24.9242 C   0  0  0  0  0  0  0  0  0  0  0  0
    7.4895  -14.6614   25.2209 C   0  0  0  0  0  0  0  0  0  0  0  0
    8.7005  -15.2559   24.5552 C   0  0  2  0  0  0  0  0  0  0  0  0
    8.2558  -15.4998   23.1551 N   0  0  0  0  0  0  0  0  0  0  0  0
    9.1223  -16.5562   25.1333 C   0  0  0  0  0  0  0  0  0  0  0  0
    8.2931  -17.5013   25.1129 O   0  0  0  0  0  0  0  0  0  0  0  0
   12.1668  -18.4610   25.9989 C   0  0  0  0  0  0  0  0  0  0  0  0
   10.7142  -18.1642   26.1442 C   0  0  2  0  0  0  0  0  0  0  0  0
   10.3861  -16.8080   25.7011 N   0  0  0  0  0  0  0  0  0  0  0  0
   10.3636  -18.3359   27.5918 C   0  0  0  0  0  0  0  0  0  0  0  0
    9.8990  -17.3977   28.2770 O   0  0  0  0  0  0  0  0  0  0  0  0
   10.5739  -19.5860   28.1547 O   0  0  0  0  0  0  0  0  0  0  0  0
  2  1  1  1
  2  9  1  0
  3  2  1  0
  4  3  1  0
  5  4  2  0
  6  7  1  0
  6  5  1  0
  7  8  2  0
  8  4  1  0
  9 10  2  0
 11 12  1  0
 13 12  1  0
 13 14  1  0
 15 14  1  1
 15 17  1  0
 16 15  1  0
 16  9  1  0
 17 21  1  0
 17 18  2  0
 20 19  1  1
 20 22  1  0
 21 20  1  0
 22 23  2  0
 22 24  1  0
M  END
$$$$
