HMA.pdb
     RDKit          3D

 24 24  0  0  1  0  0  0  0  0999 V2000
   10.4108  -13.9051   20.5808 N   0  0  0  0  0  0  0  0  0  0  0  0
    9.1196  -14.1133   21.1404 C   0  0  1  0  0  0  0  0  0  0  0  0
    8.2010  -14.9929   20.3691 C   0  0  0  0  0  0  0  0  0  0  0  0
    7.9851  -14.6234   18.9547 C   0  0  0  0  0  0  0  0  0  0  0  0
    7.8203  -13.3818   18.3963 C   0  0  0  0  0  0  0  0  0  0  0  0
    7.6837  -13.5902   17.0560 N   0  0  0  0  0  0  0  0  0  0  0  0
    7.7599  -14.8981   16.7877 C   0  0  0  0  0  0  0  0  0  0  0  0
    7.9447  -15.5530   17.9336 N   0  0  0  0  0  0  0  0  0  0  0  0
    9.2267  -14.4950   22.5682 C   0  0  0  0  0  0  0  0  0  0  0  0
   10.3763  -14.7394   23.0882 O   0  0  0  0  0  0  0  0  0  0  0  0
    6.8866  -10.7147   27.1204 C   0  0  0  0  0  0  0  0  0  0  0  0
    7.3983  -12.4532   26.9656 S   0  0  0  0  0  0  0  0  0  0  0  0
    6.5159  -13.1960   25.5325 C   0  0  0  0  0  0  0  0  0  0  0  0
    6.9377  -14.6136   25.4391 C   0  0  0  0  0  0  0  0  0  0  0  0
    8.2951  -14.8677   24.8423 C   0  0  2  0  0  0  0  0  0  0  0  0
    8.1024  -14.6045   23.3894 N   0  0  0  0  0  0  0  0  0  0  0  0
    8.7621  -16.2683   24.9946 C   0  0  0  0  0  0  0  0  0  0  0  0
    8.0196  -17.1829   24.5548 O   0  0  0  0  0  0  0  0  0  0  0  0
   11.6873  -18.3942   25.4628 C   0  0  0  0  0  0  0  0  0  0  0  0
   10.2704  -18.0678   25.7873 C   0  0  2  0  0  0  0  0  0  0  0  0
    9.9788  -16.6462   25.5945 N   0  0  0  0  0  0  0  0  0  0  0  0
   10.0363  -18.4561   27.2164 C   0  0  0  0  0  0  0  0  0  0  0  0
    9.7058  -17.6184   28.0851 O   0  0  0  0  0  0  0  0  0  0  0  0
   10.2002  -19.7926   27.5489 O   0  0  0  0  0  0  0  0  0  0  0  0
  2  1  1  6
  2  9  1  0
  3  2  1  0
  4  3  1  0
  5  4  2  0
  6  7  1  0
  6  5  1  0
  7  8  2  0
  8  4  1  0
  9 10  2  0
 11 12  1  0
 13 12  1  0
 13 14  1  0
 15 14  1  1
 15 17  1  0
 16 15  1  0
 16  9  1  0
 17 21  1  0
 17 18  2  0
 20 19  1  1
 20 22  1  0
 21 20  1  0
 22 23  2  0
 22 24  1  0
M  END
$$$$
