HMA.pdb
     RDKit          3D

 24 24  0  0  1  0  0  0  0  0999 V2000
   10.8934  -14.8401   21.2057 N   0  0  0  0  0  0  0  0  0  0  0  0
    9.5258  -14.5448   21.4630 C   0  0  1  0  0  0  0  0  0  0  0  0
    8.5276  -15.2664   20.6292 C   0  0  0  0  0  0  0  0  0  0  0  0
    8.2936  -14.7170   19.2774 C   0  0  0  0  0  0  0  0  0  0  0  0
    8.9712  -13.7275   18.6123 C   0  0  0  0  0  0  0  0  0  0  0  0
    8.3737  -13.6213   17.3916 N   0  0  0  0  0  0  0  0  0  0  0  0
    7.3715  -14.5016   17.2962 C   0  0  0  0  0  0  0  0  0  0  0  0
    7.3014  -15.1853   18.4380 N   0  0  0  0  0  0  0  0  0  0  0  0
    9.2395  -14.6289   22.9145 C   0  0  0  0  0  0  0  0  0  0  0  0
   10.1371  -15.0598   23.7272 O   0  0  0  0  0  0  0  0  0  0  0  0
    6.6964  -10.3361   26.9625 C   0  0  0  0  0  0  0  0  0  0  0  0
    7.3134  -12.0210   27.2597 S   0  0  0  0  0  0  0  0  0  0  0  0
    6.1269  -13.2162   26.5193 C   0  0  0  0  0  0  0  0  0  0  0  0
    6.5490  -13.4487   25.1180 C   0  0  0  0  0  0  0  0  0  0  0  0
    7.8492  -14.1807   24.9256 C   0  0  2  0  0  0  0  0  0  0  0  0
    8.0044  -14.2521   23.4464 N   0  0  0  0  0  0  0  0  0  0  0  0
    7.8369  -15.5687   25.4510 C   0  0  0  0  0  0  0  0  0  0  0  0
    7.7530  -15.7215   26.6963 O   0  0  0  0  0  0  0  0  0  0  0  0
    7.4712  -19.1081   24.2910 C   0  0  0  0  0  0  0  0  0  0  0  0
    7.7709  -18.0406   25.2861 C   0  0  2  0  0  0  0  0  0  0  0  0
    7.9104  -16.7274   24.6541 N   0  0  0  0  0  0  0  0  0  0  0  0
    9.0442  -18.4195   25.9810 C   0  0  0  0  0  0  0  0  0  0  0  0
    9.1727  -19.5102   26.5806 O   0  0  0  0  0  0  0  0  0  0  0  0
   10.0898  -17.5092   25.9370 O   0  0  0  0  0  0  0  0  0  0  0  0
  2  1  1  1
  2  9  1  0
  3  2  1  0
  4  3  1  0
  5  4  2  0
  6  7  1  0
  6  5  1  0
  7  8  2  0
  8  4  1  0
  9 10  2  0
 11 12  1  0
 13 12  1  0
 13 14  1  0
 15 14  1  6
 15 17  1  0
 16 15  1  0
 16  9  1  0
 17 21  1  0
 17 18  2  0
 20 19  1  6
 20 22  1  0
 21 20  1  0
 22 23  2  0
 22 24  1  0
M  END
$$$$
