HMA.pdb
     RDKit          3D

 24 24  0  0  1  0  0  0  0  0999 V2000
    7.8904  -15.9960   20.7515 N   0  0  0  0  0  0  0  0  0  0  0  0
    9.2331  -15.6480   21.0674 C   0  0  1  0  0  0  0  0  0  0  0  0
    9.8427  -14.5645   20.2509 C   0  0  0  0  0  0  0  0  0  0  0  0
    8.9469  -13.9025   19.2797 C   0  0  0  0  0  0  0  0  0  0  0  0
    8.2543  -12.7250   19.3990 C   0  0  0  0  0  0  0  0  0  0  0  0
    7.6019  -12.5537   18.2143 N   0  0  0  0  0  0  0  0  0  0  0  0
    7.8730  -13.5736   17.3928 C   0  0  0  0  0  0  0  0  0  0  0  0
    8.6949  -14.4136   18.0213 N   0  0  0  0  0  0  0  0  0  0  0  0
    9.3852  -15.4319   22.5256 C   0  0  0  0  0  0  0  0  0  0  0  0
   10.5222  -15.0834   23.0130 O   0  0  0  0  0  0  0  0  0  0  0  0
    6.4728  -12.2035   27.7143 C   0  0  0  0  0  0  0  0  0  0  0  0
    7.6669  -12.3535   26.3506 S   0  0  0  0  0  0  0  0  0  0  0  0
    6.9069  -13.3693   25.0184 C   0  0  0  0  0  0  0  0  0  0  0  0
    7.1999  -14.7897   25.3228 C   0  0  0  0  0  0  0  0  0  0  0  0
    8.5321  -15.3108   24.8570 C   0  0  2  0  0  0  0  0  0  0  0  0
    8.3186  -15.5981   23.4116 N   0  0  0  0  0  0  0  0  0  0  0  0
    8.9436  -16.5745   25.5178 C   0  0  0  0  0  0  0  0  0  0  0  0
    8.0929  -17.4972   25.5954 O   0  0  0  0  0  0  0  0  0  0  0  0
   11.9249  -18.5500   26.3346 C   0  0  0  0  0  0  0  0  0  0  0  0
   10.5230  -18.1342   26.6197 C   0  0  2  0  0  0  0  0  0  0  0  0
   10.2198  -16.8149   26.0622 N   0  0  0  0  0  0  0  0  0  0  0  0
   10.3534  -18.1193   28.1092 C   0  0  0  0  0  0  0  0  0  0  0  0
   10.5198  -19.1455   28.8055 O   0  0  0  0  0  0  0  0  0  0  0  0
   10.0012  -16.9143   28.6987 O   0  0  0  0  0  0  0  0  0  0  0  0
  2  1  1  1
  2  9  1  0
  3  2  1  0
  4  3  1  0
  5  4  2  0
  6  7  1  0
  6  5  1  0
  7  8  2  0
  8  4  1  0
  9 10  2  0
 11 12  1  0
 13 12  1  0
 13 14  1  0
 15 14  1  1
 15 17  1  0
 16 15  1  0
 16  9  1  0
 17 21  1  0
 17 18  2  0
 20 19  1  1
 20 22  1  0
 21 20  1  0
 22 23  2  0
 22 24  1  0
M  END
$$$$
