HMA.pdb
     RDKit          3D

 24 24  0  0  1  0  0  0  0  0999 V2000
    8.2019  -17.2569   20.5013 N   0  0  0  0  0  0  0  0  0  0  0  0
    9.4899  -16.6528   20.4960 C   0  0  1  0  0  0  0  0  0  0  0  0
    9.8351  -15.8474   19.2942 C   0  0  0  0  0  0  0  0  0  0  0  0
    9.5683  -16.4850   17.9880 C   0  0  0  0  0  0  0  0  0  0  0  0
   10.3522  -17.3481   17.2660 C   0  0  0  0  0  0  0  0  0  0  0  0
    9.6344  -17.6594   16.1496 N   0  0  0  0  0  0  0  0  0  0  0  0
    8.4583  -17.0232   16.1714 C   0  0  0  0  0  0  0  0  0  0  0  0
    8.3927  -16.2973   17.2871 N   0  0  0  0  0  0  0  0  0  0  0  0
    9.7314  -15.9314   21.7677 C   0  0  0  0  0  0  0  0  0  0  0  0
   10.8895  -15.4344   22.0198 O   0  0  0  0  0  0  0  0  0  0  0  0
    6.5080  -11.9944   27.6663 C   0  0  0  0  0  0  0  0  0  0  0  0
    6.4539  -12.7855   26.0295 S   0  0  0  0  0  0  0  0  0  0  0  0
    7.9666  -13.8127   25.8273 C   0  0  0  0  0  0  0  0  0  0  0  0
    7.9391  -14.3767   24.4572 C   0  0  0  0  0  0  0  0  0  0  0  0
    9.0979  -15.2564   24.0745 C   0  0  2  0  0  0  0  0  0  0  0  0
    8.7285  -15.7684   22.7259 N   0  0  0  0  0  0  0  0  0  0  0  0
    9.2832  -16.4244   24.9713 C   0  0  0  0  0  0  0  0  0  0  0  0
    8.3493  -17.2638   25.0380 O   0  0  0  0  0  0  0  0  0  0  0  0
   11.7735  -18.6675   26.1574 C   0  0  0  0  0  0  0  0  0  0  0  0
   10.5385  -17.9108   26.5063 C   0  0  2  0  0  0  0  0  0  0  0  0
   10.4314  -16.6610   25.7514 N   0  0  0  0  0  0  0  0  0  0  0  0
   10.5875  -17.6256   27.9774 C   0  0  0  0  0  0  0  0  0  0  0  0
   10.6785  -18.5396   28.8270 O   0  0  0  0  0  0  0  0  0  0  0  0
   10.5280  -16.2971   28.3715 O   0  0  0  0  0  0  0  0  0  0  0  0
  2  1  1  6
  2  9  1  0
  3  2  1  0
  4  3  1  0
  5  4  2  0
  6  7  1  0
  6  5  1  0
  7  8  2  0
  8  4  1  0
  9 10  2  0
 11 12  1  0
 13 12  1  0
 13 14  1  0
 15 14  1  1
 15 17  1  0
 16 15  1  0
 16  9  1  0
 17 21  1  0
 17 18  2  0
 20 19  1  6
 20 22  1  0
 21 20  1  0
 22 23  2  0
 22 24  1  0
M  END
$$$$
