HMA.pdb
     RDKit          3D

 24 24  0  0  1  0  0  0  0  0999 V2000
   10.1655  -15.5106   20.1181 N   0  0  0  0  0  0  0  0  0  0  0  0
    9.3452  -16.2787   20.9905 C   0  0  1  0  0  0  0  0  0  0  0  0
    9.3452  -17.7497   20.7700 C   0  0  0  0  0  0  0  0  0  0  0  0
    8.8596  -18.2075   19.4514 C   0  0  0  0  0  0  0  0  0  0  0  0
    8.1863  -17.5084   18.4827 C   0  0  0  0  0  0  0  0  0  0  0  0
    7.9970  -18.3831   17.4544 N   0  0  0  0  0  0  0  0  0  0  0  0
    8.5264  -19.5717   17.7633 C   0  0  0  0  0  0  0  0  0  0  0  0
    9.0613  -19.4907   18.9813 N   0  0  0  0  0  0  0  0  0  0  0  0
    9.5928  -15.9031   22.4024 C   0  0  0  0  0  0  0  0  0  0  0  0
   10.7775  -15.5914   22.7910 O   0  0  0  0  0  0  0  0  0  0  0  0
    6.6024  -10.9458   26.3323 C   0  0  0  0  0  0  0  0  0  0  0  0
    6.7290  -12.7450   26.5663 S   0  0  0  0  0  0  0  0  0  0  0  0
    7.4660  -13.4804   25.0497 C   0  0  0  0  0  0  0  0  0  0  0  0
    7.6417  -14.9303   25.3010 C   0  0  0  0  0  0  0  0  0  0  0  0
    8.9018  -15.5525   24.7642 C   0  0  2  0  0  0  0  0  0  0  0  0
    8.5670  -15.8760   23.3498 N   0  0  0  0  0  0  0  0  0  0  0  0
    9.2809  -16.8162   25.4442 C   0  0  0  0  0  0  0  0  0  0  0  0
    8.4041  -17.7121   25.5435 O   0  0  0  0  0  0  0  0  0  0  0  0
   12.2591  -18.7746   26.4600 C   0  0  0  0  0  0  0  0  0  0  0  0
   10.8207  -18.4012   26.5658 C   0  0  2  0  0  0  0  0  0  0  0  0
   10.5534  -17.0845   25.9843 N   0  0  0  0  0  0  0  0  0  0  0  0
   10.4612  -18.4080   28.0213 C   0  0  0  0  0  0  0  0  0  0  0  0
   10.5976  -19.4281   28.7329 O   0  0  0  0  0  0  0  0  0  0  0  0
    9.9655  -17.2304   28.5611 O   0  0  0  0  0  0  0  0  0  0  0  0
  2  1  1  6
  2  9  1  0
  3  2  1  0
  4  3  1  0
  5  4  2  0
  6  7  1  0
  6  5  1  0
  7  8  2  0
  8  4  1  0
  9 10  2  0
 11 12  1  0
 13 12  1  0
 13 14  1  0
 15 14  1  1
 15 17  1  0
 16 15  1  0
 16  9  1  0
 17 21  1  0
 17 18  2  0
 20 19  1  1
 20 22  1  0
 21 20  1  0
 22 23  2  0
 22 24  1  0
M  END
$$$$
