HMA.pdb
     RDKit          3D

 24 24  0  0  1  0  0  0  0  0999 V2000
    8.9657  -16.2784   19.0635 N   0  0  0  0  0  0  0  0  0  0  0  0
    8.2347  -16.7215   20.2007 C   0  0  1  0  0  0  0  0  0  0  0  0
    8.0006  -18.1867   20.3037 C   0  0  0  0  0  0  0  0  0  0  0  0
    7.2823  -18.8096   19.1724 C   0  0  0  0  0  0  0  0  0  0  0  0
    7.7499  -19.6748   18.2168 C   0  0  0  0  0  0  0  0  0  0  0  0
    6.6809  -19.9682   17.4234 N   0  0  0  0  0  0  0  0  0  0  0  0
    5.5965  -19.3192   17.8608 C   0  0  0  0  0  0  0  0  0  0  0  0
    5.9379  -18.6026   18.9313 N   0  0  0  0  0  0  0  0  0  0  0  0
    8.7949  -16.1341   21.4405 C   0  0  0  0  0  0  0  0  0  0  0  0
   10.0657  -16.1167   21.6314 O   0  0  0  0  0  0  0  0  0  0  0  0
    6.8850  -11.3010   27.3331 C   0  0  0  0  0  0  0  0  0  0  0  0
    6.4731  -12.2487   25.8364 S   0  0  0  0  0  0  0  0  0  0  0  0
    7.8804  -13.3682   25.4485 C   0  0  0  0  0  0  0  0  0  0  0  0
    7.5642  -14.0511   24.1718 C   0  0  0  0  0  0  0  0  0  0  0  0
    8.6137  -14.9876   23.6385 C   0  0  2  0  0  0  0  0  0  0  0  0
    7.9782  -15.5885   22.4333 N   0  0  0  0  0  0  0  0  0  0  0  0
    8.9598  -16.0901   24.5699 C   0  0  0  0  0  0  0  0  0  0  0  0
    8.0598  -16.9223   24.8504 O   0  0  0  0  0  0  0  0  0  0  0  0
   11.9092  -17.9461   25.7558 C   0  0  0  0  0  0  0  0  0  0  0  0
   10.4955  -17.5015   25.9083 C   0  0  2  0  0  0  0  0  0  0  0  0
   10.2251  -16.2723   25.1604 N   0  0  0  0  0  0  0  0  0  0  0  0
   10.2489  -17.2835   27.3709 C   0  0  0  0  0  0  0  0  0  0  0  0
    9.9142  -16.1677   27.8276 O   0  0  0  0  0  0  0  0  0  0  0  0
   10.4058  -18.3741   28.2134 O   0  0  0  0  0  0  0  0  0  0  0  0
  2  1  1  6
  2  9  1  0
  3  2  1  0
  4  3  1  0
  5  4  2  0
  6  7  1  0
  6  5  1  0
  7  8  2  0
  8  4  1  0
  9 10  2  0
 11 12  1  0
 13 12  1  0
 13 14  1  0
 15 14  1  1
 15 17  1  0
 16 15  1  0
 16  9  1  0
 17 21  1  0
 17 18  2  0
 20 19  1  1
 20 22  1  0
 21 20  1  0
 22 23  2  0
 22 24  1  0
M  END
$$$$
