RMA.pdb
     RDKit          3D

 25 24  0  0  1  0  0  0  0  0999 V2000
   30.8842  -31.7257  -17.2414 N   0  0  0  0  0  0  0  0  0  0  0  0
   29.8140  -31.2923  -16.3913 C   0  0  0  0  0  0  0  0  0  0  0  0
   29.5103  -32.0135  -15.3812 N   0  0  0  0  0  0  0  0  0  0  0  0
   29.1045  -30.0966  -16.6577 N   0  0  0  0  0  0  0  0  0  0  0  0
   29.0864  -29.4436  -17.9239 C   0  0  0  0  0  0  0  0  0  0  0  0
   28.1584  -28.2787  -17.9981 C   0  0  0  0  0  0  0  0  0  0  0  0
   26.7146  -28.5827  -17.7935 C   0  0  0  0  0  0  0  0  0  0  0  0
   25.9856  -29.1232  -18.9768 C   0  0  2  0  0  0  0  0  0  0  0  0
   25.4670  -28.1411  -19.8697 N   0  0  0  0  0  0  0  0  0  0  0  0
   24.9713  -30.1060  -18.5214 C   0  0  0  0  0  0  0  0  0  0  0  0
   23.8004  -29.7347  -18.3122 O   0  0  0  0  0  0  0  0  0  0  0  0
   28.6340  -31.8505  -14.8711 C   0  0  0  0  0  0  0  0  0  0  0  0
   24.4735  -34.8346  -22.0148 S   0  0  0  0  0  0  0  0  0  0  0  0
   22.9291  -34.7754  -21.0324 C   0  0  0  0  0  0  0  0  0  0  0  0
   22.9937  -33.3563  -19.8768 C   0  0  0  0  0  0  0  0  0  0  0  0
   24.1319  -33.4878  -18.9313 C   0  0  2  0  0  0  0  0  0  0  0  0
   24.2299  -32.4010  -17.9098 N   0  0  0  0  0  0  0  0  0  0  0  0
   25.2974  -31.4626  -18.3162 C   0  0  0  0  0  0  0  0  0  0  0  0
   24.6382  -32.9493  -16.5826 O   0  0  0  0  0  0  0  0  0  0  0  0
   25.8704  -33.2625  -16.3870 C   0  0  0  0  0  0  0  0  0  0  0  0
   23.1847  -33.7763  -13.1697 C   0  0  2  0  0  0  0  0  0  0  0  0
   24.2279  -33.7359  -14.2527 N   0  0  0  0  0  0  0  0  0  0  0  0
   23.7573  -33.1536  -15.4938 C   0  0  0  0  0  0  0  0  0  0  0  0
   24.7814  -35.1125  -14.4390 O   0  0  0  0  0  0  0  0  0  0  0  0
   24.3597  -35.9593  -15.2256 O   0  0  0  0  0  0  0  0  0  0  0  0
  2  1  1  0
  2  3  2  0
  4  2  1  0
  5  4  1  0
  6  5  1  0
  7  6  1  0
  7  8  1  0
  8  9  1  1
 10  8  1  0
 10 17  1  0
 11 10  2  0
 13 12  1  0
 14 13  1  0
 16 15  1  6
 15 14  1  0
 16 17  1  0
 18 16  1  0
 19 18  2  0
 21 20  1  1
 21 23  1  0
 21 22  1  0
 22 18  1  0
 23 25  1  0
 24 23  2  0
M  END
$$$$
