RMA.pdb
     RDKit          3D

 25 24  0  0  1  0  0  0  0  0999 V2000
   29.2562  -31.6242  -14.7827 N   0  0  0  0  0  0  0  0  0  0  0  0
   29.3962  -32.4776  -15.9263 C   0  0  0  0  0  0  0  0  0  0  0  0
   29.7201  -33.6991  -15.7369 N   0  0  0  0  0  0  0  0  0  0  0  0
   29.1840  -31.9872  -17.2372 N   0  0  0  0  0  0  0  0  0  0  0  0
   28.9201  -30.6217  -17.5464 C   0  0  0  0  0  0  0  0  0  0  0  0
   29.0408  -29.6968  -16.3829 C   0  0  0  0  0  0  0  0  0  0  0  0
   28.7076  -28.2695  -16.6487 C   0  0  0  0  0  0  0  0  0  0  0  0
   27.3476  -28.0068  -17.2011 C   0  0  2  0  0  0  0  0  0  0  0  0
   27.2943  -27.8075  -18.6111 N   0  0  0  0  0  0  0  0  0  0  0  0
   26.7037  -26.9195  -16.4232 C   0  0  0  0  0  0  0  0  0  0  0  0
   26.7126  -26.9609  -15.1778 O   0  0  0  0  0  0  0  0  0  0  0  0
   29.8052  -34.3432  -16.5322 C   0  0  0  0  0  0  0  0  0  0  0  0
   27.5225  -20.8824  -17.4010 S   0  0  0  0  0  0  0  0  0  0  0  0
   25.7879  -20.7005  -16.8428 C   0  0  0  0  0  0  0  0  0  0  0  0
   25.2130  -22.2771  -16.1099 C   0  0  0  0  0  0  0  0  0  0  0  0
   25.8727  -23.4401  -16.7575 C   0  0  1  0  0  0  0  0  0  0  0  0
   25.4583  -24.7744  -16.2264 N   0  0  0  0  0  0  0  0  0  0  0  0
   26.0751  -25.8289  -17.0590 C   0  0  0  0  0  0  0  0  0  0  0  0
   23.9817  -24.9611  -16.3416 O   0  0  0  0  0  0  0  0  0  0  0  0
   23.4789  -25.2874  -17.4798 C   0  0  0  0  0  0  0  0  0  0  0  0
   20.8531  -25.1618  -14.2294 C   0  0  2  0  0  0  0  0  0  0  0  0
   21.6393  -24.9199  -15.4889 N   0  0  0  0  0  0  0  0  0  0  0  0
   23.0679  -24.8080  -15.2716 C   0  0  0  0  0  0  0  0  0  0  0  0
   21.0708  -23.7272  -16.1893 O   0  0  0  0  0  0  0  0  0  0  0  0
   21.6332  -22.6436  -16.3407 O   0  0  0  0  0  0  0  0  0  0  0  0
  2  1  1  0
  2  3  2  0
  4  2  1  0
  5  4  1  0
  6  5  1  0
  7  6  1  0
  7  8  1  0
  8  9  1  6
 10  8  1  0
 10 17  1  0
 11 10  2  0
 13 12  1  0
 14 13  1  0
 16 15  1  1
 15 14  1  0
 16 17  1  0
 18 16  1  0
 19 18  2  0
 21 20  1  6
 21 23  1  0
 21 22  1  0
 22 18  1  0
 23 25  1  0
 24 23  2  0
M  END
$$$$
