RMA.pdb
     RDKit          3D

 25 24  0  0  1  0  0  0  0  0999 V2000
   17.3690  -23.3262  -11.4229 N   0  0  0  0  0  0  0  0  0  0  0  0
   18.5424  -24.1138  -11.1811 C   0  0  0  0  0  0  0  0  0  0  0  0
   18.5019  -24.9966  -10.2582 N   0  0  0  0  0  0  0  0  0  0  0  0
   19.7219  -23.9241  -11.9405 N   0  0  0  0  0  0  0  0  0  0  0  0
   19.8738  -22.9243  -12.9441 C   0  0  0  0  0  0  0  0  0  0  0  0
   19.9955  -21.5367  -12.4116 C   0  0  0  0  0  0  0  0  0  0  0  0
   21.3837  -21.0229  -12.2450 C   0  0  0  0  0  0  0  0  0  0  0  0
   22.2100  -20.9561  -13.4845 C   0  0  2  0  0  0  0  0  0  0  0  0
   22.4270  -22.2045  -14.1364 N   0  0  0  0  0  0  0  0  0  0  0  0
   23.4606  -20.2092  -13.2009 C   0  0  0  0  0  0  0  0  0  0  0  0
   23.4022  -19.0854  -12.6659 O   0  0  0  0  0  0  0  0  0  0  0  0
   19.3102  -25.6067  -10.0872 C   0  0  0  0  0  0  0  0  0  0  0  0
   29.0469  -21.8085  -10.0431 S   0  0  0  0  0  0  0  0  0  0  0  0
   29.5151  -21.3905  -11.7635 C   0  0  0  0  0  0  0  0  0  0  0  0
   28.3099  -20.1960  -12.4520 C   0  0  0  0  0  0  0  0  0  0  0  0
   27.0180  -20.8595  -12.7646 C   0  0  1  0  0  0  0  0  0  0  0  0
   25.9340  -19.9397  -13.2261 N   0  0  0  0  0  0  0  0  0  0  0  0
   24.7269  -20.7401  -13.5227 C   0  0  0  0  0  0  0  0  0  0  0  0
   26.3123  -19.2651  -14.5029 O   0  0  0  0  0  0  0  0  0  0  0  0
   26.1937  -19.9090  -15.6102 C   0  0  0  0  0  0  0  0  0  0  0  0
   27.4214  -15.8747  -15.8073 C   0  0  2  0  0  0  0  0  0  0  0  0
   27.0903  -17.3402  -15.8832 N   0  0  0  0  0  0  0  0  0  0  0  0
   26.7994  -17.9394  -14.5959 C   0  0  0  0  0  0  0  0  0  0  0  0
   28.1920  -18.0453  -16.6080 O   0  0  0  0  0  0  0  0  0  0  0  0
   28.3675  -18.0493  -17.8257 O   0  0  0  0  0  0  0  0  0  0  0  0
  2  1  1  0
  2  3  2  0
  4  2  1  0
  5  4  1  0
  6  5  1  0
  7  6  1  0
  7  8  1  0
  8  9  1  1
 10  8  1  0
 10 17  1  0
 11 10  2  0
 13 12  1  0
 14 13  1  0
 16 15  1  1
 15 14  1  0
 16 17  1  0
 18 16  1  0
 19 18  2  0
 21 20  1  6
 21 23  1  0
 21 22  1  0
 22 18  1  0
 23 25  1  0
 24 23  2  0
M  END
$$$$
