RMA.pdb
     RDKit          3D

 25 24  0  0  1  0  0  0  0  0999 V2000
   13.8523  -13.6159  -14.1880 N   0  0  0  0  0  0  0  0  0  0  0  0
   14.1541  -14.5503  -15.2328 C   0  0  0  0  0  0  0  0  0  0  0  0
   13.2008  -15.2519  -15.7144 N   0  0  0  0  0  0  0  0  0  0  0  0
   15.4732  -14.6997  -15.7240 N   0  0  0  0  0  0  0  0  0  0  0  0
   16.6026  -14.0027  -15.2056 C   0  0  0  0  0  0  0  0  0  0  0  0
   17.0841  -12.8885  -16.0719 C   0  0  0  0  0  0  0  0  0  0  0  0
   18.3007  -12.1730  -15.5959 C   0  0  0  0  0  0  0  0  0  0  0  0
   18.8340  -11.1148  -16.5013 C   0  0  2  0  0  0  0  0  0  0  0  0
   19.0772  -11.5307  -17.8424 N   0  0  0  0  0  0  0  0  0  0  0  0
   20.0035  -10.4642  -15.8602 C   0  0  0  0  0  0  0  0  0  0  0  0
   19.9170  -10.0540  -14.6867 O   0  0  0  0  0  0  0  0  0  0  0  0
   13.3873  -15.9506  -16.4436 C   0  0  0  0  0  0  0  0  0  0  0  0
   27.8015   -9.9442  -15.2928 S   0  0  0  0  0  0  0  0  0  0  0  0
   26.3352  -10.6620  -16.1224 C   0  0  0  0  0  0  0  0  0  0  0  0
   24.8552   -9.6604  -15.7226 C   0  0  0  0  0  0  0  0  0  0  0  0
   23.6243  -10.2792  -16.2785 C   0  0  1  0  0  0  0  0  0  0  0  0
   22.3470   -9.6280  -15.8561 N   0  0  0  0  0  0  0  0  0  0  0  0
   21.2232  -10.2947  -16.5476 C   0  0  0  0  0  0  0  0  0  0  0  0
   22.3096   -8.1974  -16.2811 O   0  0  0  0  0  0  0  0  0  0  0  0
   22.4651   -7.9097  -17.5252 C   0  0  0  0  0  0  0  0  0  0  0  0
   21.5798   -4.7282  -14.9700 C   0  0  2  0  0  0  0  0  0  0  0  0
   22.2327   -5.7392  -15.8725 N   0  0  0  0  0  0  0  0  0  0  0  0
   22.1079   -7.1051  -15.4039 C   0  0  0  0  0  0  0  0  0  0  0  0
   23.6557   -5.3372  -16.0952 O   0  0  0  0  0  0  0  0  0  0  0  0
   24.6481   -5.9497  -15.7034 O   0  0  0  0  0  0  0  0  0  0  0  0
  2  1  1  0
  2  3  2  0
  4  2  1  0
  5  4  1  0
  6  5  1  0
  7  6  1  0
  7  8  1  0
  8  9  1  6
 10  8  1  0
 10 17  1  0
 11 10  2  0
 13 12  1  0
 14 13  1  0
 16 15  1  1
 15 14  1  0
 16 17  1  0
 18 16  1  0
 19 18  2  0
 21 20  1  6
 21 23  1  0
 21 22  1  0
 22 18  1  0
 23 25  1  0
 24 23  2  0
M  END
$$$$
