RMA.pdb
     RDKit          3D

 25 24  0  0  1  0  0  0  0  0999 V2000
   22.2219  -20.8865  -16.9594 N   0  0  0  0  0  0  0  0  0  0  0  0
   21.3433  -20.0604  -16.1840 C   0  0  0  0  0  0  0  0  0  0  0  0
   20.0877  -20.1283  -16.4112 N   0  0  0  0  0  0  0  0  0  0  0  0
   21.8457  -19.1869  -15.1899 N   0  0  0  0  0  0  0  0  0  0  0  0
   23.2291  -19.0354  -14.8845 C   0  0  0  0  0  0  0  0  0  0  0  0
   23.9412  -20.3187  -14.6202 C   0  0  0  0  0  0  0  0  0  0  0  0
   24.1379  -20.6705  -13.1862 C   0  0  0  0  0  0  0  0  0  0  0  0
   25.5523  -20.7574  -12.7218 C   0  0  2  0  0  0  0  0  0  0  0  0
   26.4043  -21.5718  -13.5226 N   0  0  0  0  0  0  0  0  0  0  0  0
   25.5747  -21.1121  -11.2810 C   0  0  0  0  0  0  0  0  0  0  0  0
   25.6308  -22.3091  -10.9394 O   0  0  0  0  0  0  0  0  0  0  0  0
   19.4290  -19.5649  -15.8605 C   0  0  0  0  0  0  0  0  0  0  0  0
   29.3679  -19.2864   -6.2614 S   0  0  0  0  0  0  0  0  0  0  0  0
   27.6798  -18.7363   -5.8127 C   0  0  0  0  0  0  0  0  0  0  0  0
   26.4475  -19.8218   -6.6230 C   0  0  0  0  0  0  0  0  0  0  0  0
   26.4041  -19.5812   -8.0883 C   0  0  1  0  0  0  0  0  0  0  0  0
   25.5583  -20.5429   -8.8589 N   0  0  0  0  0  0  0  0  0  0  0  0
   25.5340  -20.1233  -10.2762 C   0  0  0  0  0  0  0  0  0  0  0  0
   24.1422  -20.5063   -8.3879 O   0  0  0  0  0  0  0  0  0  0  0  0
   23.2588  -19.9076   -9.1062 C   0  0  0  0  0  0  0  0  0  0  0  0
   21.4566  -20.1059   -7.6212 C   0  0  1  0  0  0  0  0  0  0  0  0
   22.2688  -21.1182   -6.8608 N   0  0  0  0  0  0  0  0  0  0  0  0
   23.6810  -21.0956   -7.1864 C   0  0  0  0  0  0  0  0  0  0  0  0
   21.6574  -22.4691   -7.0545 O   0  0  0  0  0  0  0  0  0  0  0  0
   22.2370  -23.4698   -7.4744 O   0  0  0  0  0  0  0  0  0  0  0  0
  2  1  1  0
  2  3  2  0
  4  2  1  0
  5  4  1  0
  6  5  1  0
  7  6  1  0
  7  8  1  0
  8  9  1  6
 10  8  1  0
 10 17  1  0
 11 10  2  0
 13 12  1  0
 14 13  1  0
 16 15  1  6
 15 14  1  0
 16 17  1  0
 18 16  1  0
 19 18  2  0
 21 20  1  1
 21 23  1  0
 21 22  1  0
 22 18  1  0
 23 25  1  0
 24 23  2  0
M  END
$$$$
