RMA.pdb
     RDKit          3D

 25 24  0  0  1  0  0  0  0  0999 V2000
   25.4877  -17.9276  -14.9772 N   0  0  0  0  0  0  0  0  0  0  0  0
   24.4610  -18.9242  -15.0688 C   0  0  0  0  0  0  0  0  0  0  0  0
   24.0140  -19.2312  -16.2259 N   0  0  0  0  0  0  0  0  0  0  0  0
   23.9479  -19.5567  -13.9110 N   0  0  0  0  0  0  0  0  0  0  0  0
   24.3505  -19.2384  -12.5819 C   0  0  0  0  0  0  0  0  0  0  0  0
   25.7212  -19.7077  -12.2290 C   0  0  0  0  0  0  0  0  0  0  0  0
   25.7921  -20.8831  -11.3168 C   0  0  0  0  0  0  0  0  0  0  0  0
   25.3902  -20.6385   -9.9017 C   0  0  2  0  0  0  0  0  0  0  0  0
   24.6791  -19.4247   -9.6748 N   0  0  0  0  0  0  0  0  0  0  0  0
   26.5716  -20.8083   -9.0199 C   0  0  0  0  0  0  0  0  0  0  0  0
   27.1879  -21.8912   -9.0130 O   0  0  0  0  0  0  0  0  0  0  0  0
   23.2789  -19.9412  -16.3271 C   0  0  0  0  0  0  0  0  0  0  0  0
   31.0415  -16.4905   -7.1420 S   0  0  0  0  0  0  0  0  0  0  0  0
   30.6690  -17.2870   -5.5356 C   0  0  0  0  0  0  0  0  0  0  0  0
   29.8476  -18.8973   -5.8276 C   0  0  0  0  0  0  0  0  0  0  0  0
   28.7782  -18.7745   -6.8515 C   0  0  1  0  0  0  0  0  0  0  0  0
   28.0881  -20.0545   -7.1969 N   0  0  0  0  0  0  0  0  0  0  0  0
   27.0219  -19.7685   -8.1803 C   0  0  0  0  0  0  0  0  0  0  0  0
   27.4089  -20.6358   -6.0013 O   0  0  0  0  0  0  0  0  0  0  0  0
   26.1365  -20.4953   -5.8743 C   0  0  0  0  0  0  0  0  0  0  0  0
   28.1875  -22.5890   -2.8353 C   0  0  2  0  0  0  0  0  0  0  0  0
   27.3636  -21.7452   -3.7691 N   0  0  0  0  0  0  0  0  0  0  0  0
   28.0682  -21.3501   -4.9725 C   0  0  0  0  0  0  0  0  0  0  0  0
   26.8238  -20.5751   -3.0104 O   0  0  0  0  0  0  0  0  0  0  0  0
   27.3494  -19.4660   -2.9253 O   0  0  0  0  0  0  0  0  0  0  0  0
  2  1  1  0
  2  3  2  0
  4  2  1  0
  5  4  1  0
  6  5  1  0
  7  6  1  0
  7  8  1  0
  8  9  1  6
 10  8  1  0
 10 17  1  0
 11 10  2  0
 13 12  1  0
 14 13  1  0
 16 15  1  6
 15 14  1  0
 16 17  1  0
 18 16  1  0
 19 18  2  0
 21 20  1  6
 21 23  1  0
 21 22  1  0
 22 18  1  0
 23 25  1  0
 24 23  2  0
M  END
$$$$
