RMA.pdb
     RDKit          3D

 25 24  0  0  1  0  0  0  0  0999 V2000
   31.3943  -24.4373  -15.8290 N   0  0  0  0  0  0  0  0  0  0  0  0
   30.8680  -24.7686  -17.1209 C   0  0  0  0  0  0  0  0  0  0  0  0
   31.4416  -25.6927  -17.7917 N   0  0  0  0  0  0  0  0  0  0  0  0
   29.7419  -24.0928  -17.6490 N   0  0  0  0  0  0  0  0  0  0  0  0
   29.2992  -22.8124  -17.2080 C   0  0  0  0  0  0  0  0  0  0  0  0
   28.9308  -22.7565  -15.7641 C   0  0  0  0  0  0  0  0  0  0  0  0
   27.4719  -22.7600  -15.4639 C   0  0  0  0  0  0  0  0  0  0  0  0
   26.8645  -21.4340  -15.1530 C   0  0  2  0  0  0  0  0  0  0  0  0
   27.7866  -20.4236  -14.7537 N   0  0  0  0  0  0  0  0  0  0  0  0
   25.7398  -21.6202  -14.2030 C   0  0  0  0  0  0  0  0  0  0  0  0
   24.9039  -22.5223  -14.4030 O   0  0  0  0  0  0  0  0  0  0  0  0
   31.1128  -25.9299  -18.7353 C   0  0  0  0  0  0  0  0  0  0  0  0
   25.3137  -19.5749   -7.7675 S   0  0  0  0  0  0  0  0  0  0  0  0
   26.7362  -20.3679   -8.6050 C   0  0  0  0  0  0  0  0  0  0  0  0
   26.1440  -21.2977  -10.0672 C   0  0  0  0  0  0  0  0  0  0  0  0
   25.0166  -20.5921  -10.7292 C   0  0  2  0  0  0  0  0  0  0  0  0
   24.5940  -21.1729  -12.0400 N   0  0  0  0  0  0  0  0  0  0  0  0
   25.5877  -20.7969  -13.0681 C   0  0  0  0  0  0  0  0  0  0  0  0
   23.2919  -20.5952  -12.4863 O   0  0  0  0  0  0  0  0  0  0  0  0
   23.2210  -19.3371  -12.7449 C   0  0  0  0  0  0  0  0  0  0  0  0
   19.9679  -21.5646  -13.8887 C   0  0  2  0  0  0  0  0  0  0  0  0
   20.8665  -20.6921  -13.0555 N   0  0  0  0  0  0  0  0  0  0  0  0
   22.1001  -21.3397  -12.6558 C   0  0  0  0  0  0  0  0  0  0  0  0
   20.0872  -20.1736  -11.8894 O   0  0  0  0  0  0  0  0  0  0  0  0
   20.2981  -20.4368  -10.7063 O   0  0  0  0  0  0  0  0  0  0  0  0
  2  1  1  0
  2  3  2  0
  4  2  1  0
  5  4  1  0
  6  5  1  0
  7  6  1  0
  7  8  1  0
  8  9  1  1
 10  8  1  0
 10 17  1  0
 11 10  2  0
 13 12  1  0
 14 13  1  0
 16 15  1  1
 15 14  1  0
 16 17  1  0
 18 16  1  0
 19 18  2  0
 21 20  1  6
 21 23  1  0
 21 22  1  0
 22 18  1  0
 23 25  1  0
 24 23  2  0
M  END
$$$$
