RMA.pdb
     RDKit          3D

 25 24  0  0  1  0  0  0  0  0999 V2000
   19.1960  -26.1040  -11.4884 N   0  0  0  0  0  0  0  0  0  0  0  0
   19.2066  -25.9874  -10.0594 C   0  0  0  0  0  0  0  0  0  0  0  0
   19.1825  -27.0582   -9.3624 N   0  0  0  0  0  0  0  0  0  0  0  0
   19.2414  -24.7213   -9.4275 N   0  0  0  0  0  0  0  0  0  0  0  0
   19.1750  -23.4793  -10.1226 C   0  0  0  0  0  0  0  0  0  0  0  0
   20.5016  -22.8442  -10.3681 C   0  0  0  0  0  0  0  0  0  0  0  0
   21.1965  -22.3030   -9.1669 C   0  0  0  0  0  0  0  0  0  0  0  0
   21.3244  -20.8189   -9.0978 C   0  0  2  0  0  0  0  0  0  0  0  0
   20.2445  -20.0900   -9.6751 N   0  0  0  0  0  0  0  0  0  0  0  0
   22.6558  -20.4165   -9.6151 C   0  0  0  0  0  0  0  0  0  0  0  0
   22.7332  -19.6398  -10.5864 O   0  0  0  0  0  0  0  0  0  0  0  0
   19.1536  -27.9763   -9.8216 C   0  0  0  0  0  0  0  0  0  0  0  0
   27.4511  -19.5525   -5.1978 S   0  0  0  0  0  0  0  0  0  0  0  0
   28.2685  -20.0354   -6.7638 C   0  0  0  0  0  0  0  0  0  0  0  0
   27.1927  -19.5905   -8.1774 C   0  0  0  0  0  0  0  0  0  0  0  0
   26.1745  -20.6432   -8.4268 C   0  0  2  0  0  0  0  0  0  0  0  0
   25.1342  -20.2849   -9.4385 N   0  0  0  0  0  0  0  0  0  0  0  0
   23.8489  -20.8925   -9.0331 C   0  0  0  0  0  0  0  0  0  0  0  0
   25.4662  -20.8618  -10.7747 O   0  0  0  0  0  0  0  0  0  0  0  0
   25.3973  -22.1355  -10.9413 C   0  0  0  0  0  0  0  0  0  0  0  0
   26.3172  -19.8098  -14.3149 C   0  0  2  0  0  0  0  0  0  0  0  0
   26.2446  -20.7470  -13.1404 N   0  0  0  0  0  0  0  0  0  0  0  0
   25.8566  -20.1007  -11.9024 C   0  0  0  0  0  0  0  0  0  0  0  0
   27.5459  -21.4743  -13.0242 O   0  0  0  0  0  0  0  0  0  0  0  0
   28.3363  -21.3932  -12.0849 O   0  0  0  0  0  0  0  0  0  0  0  0
  2  1  1  0
  2  3  2  0
  4  2  1  0
  5  4  1  0
  6  5  1  0
  7  6  1  0
  7  8  1  0
  8  9  1  6
 10  8  1  0
 10 17  1  0
 11 10  2  0
 13 12  1  0
 14 13  1  0
 16 15  1  1
 15 14  1  0
 16 17  1  0
 18 16  1  0
 19 18  2  0
 21 20  1  6
 21 23  1  0
 21 22  1  0
 22 18  1  0
 23 25  1  0
 24 23  2  0
M  END
$$$$
