RMA.pdb
     RDKit          3D

 25 24  0  0  1  0  0  0  0  0999 V2000
   29.7835  -26.7005  -16.2808 N   0  0  0  0  0  0  0  0  0  0  0  0
   28.8583  -27.0344  -17.3241 C   0  0  0  0  0  0  0  0  0  0  0  0
   28.5389  -28.2614  -17.4831 N   0  0  0  0  0  0  0  0  0  0  0  0
   28.3082  -26.0359  -18.1632 N   0  0  0  0  0  0  0  0  0  0  0  0
   28.4548  -24.6361  -17.9414 C   0  0  0  0  0  0  0  0  0  0  0  0
   27.9292  -24.1667  -16.6272 C   0  0  0  0  0  0  0  0  0  0  0  0
   26.4614  -23.9211  -16.5634 C   0  0  0  0  0  0  0  0  0  0  0  0
   26.0443  -22.5157  -16.2901 C   0  0  2  0  0  0  0  0  0  0  0  0
   27.0851  -21.5464  -16.3787 N   0  0  0  0  0  0  0  0  0  0  0  0
   25.2945  -22.4665  -15.0105 C   0  0  0  0  0  0  0  0  0  0  0  0
   24.2846  -23.1801  -14.8573 O   0  0  0  0  0  0  0  0  0  0  0  0
   27.9444  -28.5454  -18.2708 C   0  0  0  0  0  0  0  0  0  0  0  0
   25.3666  -20.6031   -7.3283 S   0  0  0  0  0  0  0  0  0  0  0  0
   26.2424  -20.6307   -8.9364 C   0  0  0  0  0  0  0  0  0  0  0  0
   25.0643  -21.0732  -10.2666 C   0  0  0  0  0  0  0  0  0  0  0  0
   25.7469  -21.1436  -11.5842 C   0  0  2  0  0  0  0  0  0  0  0  0
   24.8821  -21.5929  -12.7175 N   0  0  0  0  0  0  0  0  0  0  0  0
   25.6960  -21.6265  -13.9511 C   0  0  0  0  0  0  0  0  0  0  0  0
   23.7809  -20.6170  -12.9697 O   0  0  0  0  0  0  0  0  0  0  0  0
   24.0462  -19.5193  -13.5856 C   0  0  0  0  0  0  0  0  0  0  0  0
   21.0056  -19.9793  -14.4202 C   0  0  2  0  0  0  0  0  0  0  0  0
   21.4022  -19.8702  -12.9732 N   0  0  0  0  0  0  0  0  0  0  0  0
   22.4340  -20.8090  -12.5794 C   0  0  0  0  0  0  0  0  0  0  0  0
   20.1736  -19.9807  -12.1280 O   0  0  0  0  0  0  0  0  0  0  0  0
   19.9521  -20.8515  -11.2875 O   0  0  0  0  0  0  0  0  0  0  0  0
  2  1  1  0
  2  3  2  0
  4  2  1  0
  5  4  1  0
  6  5  1  0
  7  6  1  0
  7  8  1  0
  8  9  1  1
 10  8  1  0
 10 17  1  0
 11 10  2  0
 13 12  1  0
 14 13  1  0
 16 15  1  1
 15 14  1  0
 16 17  1  0
 18 16  1  0
 19 18  2  0
 21 20  1  6
 21 23  1  0
 21 22  1  0
 22 18  1  0
 23 25  1  0
 24 23  2  0
M  END
$$$$
