RMA.pdb
     RDKit          3D

 25 24  0  0  1  0  0  0  0  0999 V2000
   28.3560  -17.5906  -18.9139 N   0  0  0  0  0  0  0  0  0  0  0  0
   29.1404  -17.0632  -17.8358 C   0  0  0  0  0  0  0  0  0  0  0  0
   30.3448  -16.7107  -18.0767 N   0  0  0  0  0  0  0  0  0  0  0  0
   28.6026  -16.9340  -16.5328 N   0  0  0  0  0  0  0  0  0  0  0  0
   27.2753  -17.3088  -16.1755 C   0  0  0  0  0  0  0  0  0  0  0  0
   27.0595  -18.7815  -16.0833 C   0  0  0  0  0  0  0  0  0  0  0  0
   27.6133  -19.4458  -14.8707 C   0  0  0  0  0  0  0  0  0  0  0  0
   27.4472  -20.9262  -14.8020 C   0  0  2  0  0  0  0  0  0  0  0  0
   27.2173  -21.5690  -16.0528 N   0  0  0  0  0  0  0  0  0  0  0  0
   26.4355  -21.2591  -13.7687 C   0  0  0  0  0  0  0  0  0  0  0  0
   25.4736  -21.9959  -14.0594 O   0  0  0  0  0  0  0  0  0  0  0  0
   30.9669  -16.4291  -17.3096 C   0  0  0  0  0  0  0  0  0  0  0  0
   26.2076  -19.1883   -7.0292 S   0  0  0  0  0  0  0  0  0  0  0  0
   25.9427  -20.9705   -7.3566 C   0  0  0  0  0  0  0  0  0  0  0  0
   25.1126  -21.1779   -8.9756 C   0  0  0  0  0  0  0  0  0  0  0  0
   26.0172  -20.8023  -10.0926 C   0  0  2  0  0  0  0  0  0  0  0  0
   25.5286  -21.1832  -11.4529 N   0  0  0  0  0  0  0  0  0  0  0  0
   26.5320  -20.7606  -12.4530 C   0  0  0  0  0  0  0  0  0  0  0  0
   24.2691  -20.4570  -11.7918 O   0  0  0  0  0  0  0  0  0  0  0  0
   24.3326  -19.4031  -12.5266 C   0  0  0  0  0  0  0  0  0  0  0  0
   22.0871  -19.5497  -13.2701 C   0  0  2  0  0  0  0  0  0  0  0  0
   21.7921  -20.4075  -12.0701 N   0  0  0  0  0  0  0  0  0  0  0  0
   22.9781  -20.8468  -11.3621 C   0  0  0  0  0  0  0  0  0  0  0  0
   20.9231  -21.5476  -12.4957 O   0  0  0  0  0  0  0  0  0  0  0  0
   21.1768  -22.7424  -12.3477 O   0  0  0  0  0  0  0  0  0  0  0  0
  2  1  1  0
  2  3  2  0
  4  2  1  0
  5  4  1  0
  6  5  1  0
  7  6  1  0
  7  8  1  0
  8  9  1  6
 10  8  1  0
 10 17  1  0
 11 10  2  0
 13 12  1  0
 14 13  1  0
 16 15  1  1
 15 14  1  0
 16 17  1  0
 18 16  1  0
 19 18  2  0
 21 20  1  1
 21 23  1  0
 21 22  1  0
 22 18  1  0
 23 25  1  0
 24 23  2  0
M  END
$$$$
