RMA.pdb
     RDKit          3D

 25 24  0  0  1  0  0  0  0  0999 V2000
   21.5642  -27.3176  -14.5173 N   0  0  0  0  0  0  0  0  0  0  0  0
   21.1802  -26.4443  -15.5877 C   0  0  0  0  0  0  0  0  0  0  0  0
   19.9992  -26.5500  -16.0639 N   0  0  0  0  0  0  0  0  0  0  0  0
   22.0813  -25.4865  -16.1113 N   0  0  0  0  0  0  0  0  0  0  0  0
   23.2785  -25.0747  -15.4578 C   0  0  0  0  0  0  0  0  0  0  0  0
   23.0603  -24.1568  -14.3030 C   0  0  0  0  0  0  0  0  0  0  0  0
   23.7380  -22.8330  -14.3867 C   0  0  0  0  0  0  0  0  0  0  0  0
   23.5607  -21.9315  -13.2121 C   0  0  2  0  0  0  0  0  0  0  0  0
   22.2382  -21.8768  -12.6843 N   0  0  0  0  0  0  0  0  0  0  0  0
   24.1299  -20.5977  -13.5269 C   0  0  0  0  0  0  0  0  0  0  0  0
   23.6860  -19.5846  -12.9531 O   0  0  0  0  0  0  0  0  0  0  0  0
   19.6913  -25.9388  -16.8296 C   0  0  0  0  0  0  0  0  0  0  0  0
   27.9501  -21.1588   -9.5924 S   0  0  0  0  0  0  0  0  0  0  0  0
   28.9587  -21.3412  -11.1100 C   0  0  0  0  0  0  0  0  0  0  0  0
   28.3267  -20.2098  -12.4037 C   0  0  0  0  0  0  0  0  0  0  0  0
   27.0668  -20.7266  -12.9974 C   0  0  2  0  0  0  0  0  0  0  0  0
   26.4461  -19.8386  -14.0271 N   0  0  0  0  0  0  0  0  0  0  0  0
   25.1699  -20.4416  -14.4666 C   0  0  0  0  0  0  0  0  0  0  0  0
   27.3063  -19.7476  -15.2438 O   0  0  0  0  0  0  0  0  0  0  0  0
   28.5310  -19.3749  -15.1181 C   0  0  0  0  0  0  0  0  0  0  0  0
   25.9288  -17.8706  -17.2480 C   0  0  1  0  0  0  0  0  0  0  0  0
   26.8316  -19.0264  -17.5827 N   0  0  0  0  0  0  0  0  0  0  0  0
   26.8728  -20.0496  -16.5569 C   0  0  0  0  0  0  0  0  0  0  0  0
   28.1887  -18.4954  -17.9178 O   0  0  0  0  0  0  0  0  0  0  0  0
   28.5471  -18.0731  -19.0163 O   0  0  0  0  0  0  0  0  0  0  0  0
  2  1  1  0
  2  3  2  0
  4  2  1  0
  5  4  1  0
  6  5  1  0
  7  6  1  0
  7  8  1  0
  8  9  1  6
 10  8  1  0
 10 17  1  0
 11 10  2  0
 13 12  1  0
 14 13  1  0
 16 15  1  1
 15 14  1  0
 16 17  1  0
 18 16  1  0
 19 18  2  0
 21 20  1  6
 21 23  1  0
 21 22  1  0
 22 18  1  0
 23 25  1  0
 24 23  2  0
M  END
$$$$
