RMA.pdb
     RDKit          3D

 25 24  0  0  1  0  0  0  0  0999 V2000
   26.6546  -21.8611  -11.3873 N   0  0  0  0  0  0  0  0  0  0  0  0
   25.5666  -21.3882  -10.5821 C   0  0  0  0  0  0  0  0  0  0  0  0
   25.7866  -21.1418   -9.3477 N   0  0  0  0  0  0  0  0  0  0  0  0
   24.2764  -21.1974  -11.1324 N   0  0  0  0  0  0  0  0  0  0  0  0
   23.9254  -21.5171  -12.4757 C   0  0  0  0  0  0  0  0  0  0  0  0
   23.4783  -20.3476  -13.2858 C   0  0  0  0  0  0  0  0  0  0  0  0
   22.0452  -20.3469  -13.6921 C   0  0  0  0  0  0  0  0  0  0  0  0
   21.7505  -19.8087  -15.0512 C   0  0  2  0  0  0  0  0  0  0  0  0
   22.3407  -20.5294  -16.1296 N   0  0  0  0  0  0  0  0  0  0  0  0
   22.0448  -18.3545  -15.0776 C   0  0  0  0  0  0  0  0  0  0  0  0
   21.3570  -17.5716  -14.3944 O   0  0  0  0  0  0  0  0  0  0  0  0
   25.0518  -20.7277   -8.7618 C   0  0  0  0  0  0  0  0  0  0  0  0
   27.9473  -15.4806  -16.3824 S   0  0  0  0  0  0  0  0  0  0  0  0
   26.9877  -14.5502  -15.1306 C   0  0  0  0  0  0  0  0  0  0  0  0
   25.1988  -14.7124  -15.4871 C   0  0  0  0  0  0  0  0  0  0  0  0
   24.7957  -16.1403  -15.5622 C   0  0  2  0  0  0  0  0  0  0  0  0
   23.3435  -16.3705  -15.8314 N   0  0  0  0  0  0  0  0  0  0  0  0
   23.0916  -17.8269  -15.8617 C   0  0  0  0  0  0  0  0  0  0  0  0
   22.9601  -15.8519  -17.1777 O   0  0  0  0  0  0  0  0  0  0  0  0
   23.3443  -16.4895  -18.2268 C   0  0  0  0  0  0  0  0  0  0  0  0
   20.3433  -14.1662  -18.9641 C   0  0  2  0  0  0  0  0  0  0  0  0
   21.8269  -14.2737  -18.7400 N   0  0  0  0  0  0  0  0  0  0  0  0
   22.1850  -14.6883  -17.3981 C   0  0  0  0  0  0  0  0  0  0  0  0
   22.4674  -12.9802  -19.1307 O   0  0  0  0  0  0  0  0  0  0  0  0
   23.1324  -12.2531  -18.3940 O   0  0  0  0  0  0  0  0  0  0  0  0
  2  1  1  0
  2  3  2  0
  4  2  1  0
  5  4  1  0
  6  5  1  0
  7  6  1  0
  7  8  1  0
  8  9  1  6
 10  8  1  0
 10 17  1  0
 11 10  2  0
 13 12  1  0
 14 13  1  0
 16 15  1  1
 15 14  1  0
 16 17  1  0
 18 16  1  0
 19 18  2  0
 21 20  1  6
 21 23  1  0
 21 22  1  0
 22 18  1  0
 23 25  1  0
 24 23  2  0
M  END
$$$$
