AES.pdb
     RDKit          3D

 21 20  0  0  1  0  0  0  0  0999 V2000
   15.4629   -6.7248   -7.8227 C   0  0  0  0  0  0  0  0  0  0  0  0
   14.9379   -7.4486   -9.0629 C   0  0  2  0  0  0  0  0  0  0  0  0
   14.2447   -8.6322   -8.5909 N   0  0  0  0  0  0  0  0  0  0  0  0
   16.0779   -7.8312   -9.9087 C   0  0  0  0  0  0  0  0  0  0  0  0
   16.8642   -8.7461   -9.4997 O   0  0  0  0  0  0  0  0  0  0  0  0
   16.3691   -7.2496  -11.1597 N   0  0  0  0  0  0  0  0  0  0  0  0
   17.4829   -7.6529  -12.0244 C   0  0  1  0  0  0  0  0  0  0  0  0
   16.8968   -8.3998  -13.1775 C   0  0  0  0  0  0  0  0  0  0  0  0
   17.8618   -8.8424  -14.2249 C   0  0  0  0  0  0  0  0  0  0  0  0
   17.0789   -9.5437  -15.2780 C   0  0  0  0  0  0  0  0  0  0  0  0
   17.0132   -9.1028  -16.4716 O   0  0  0  0  0  0  0  0  0  0  0  0
   18.3066   -6.4822  -12.3988 C   0  0  0  0  0  0  0  0  0  0  0  0
   17.7707   -5.3842  -12.5686 O   0  0  0  0  0  0  0  0  0  0  0  0
   16.3895  -10.7094  -14.9922 O   0  0  0  0  0  0  0  0  0  0  0  0
   22.1957   -6.1356  -11.3949 O   0  0  0  0  0  0  0  0  0  0  0  0
   22.0392   -5.8222  -12.7424 C   0  0  0  0  0  0  0  0  0  0  0  0
   20.5821   -5.5527  -12.9728 C   0  0  2  0  0  0  0  0  0  0  0  0
   19.7006   -6.5937  -12.5680 N   0  0  0  0  0  0  0  0  0  0  0  0
   20.3440   -5.1641  -14.3674 C   0  0  0  0  0  0  0  0  0  0  0  0
   19.6467   -5.8305  -15.1733 O   0  0  0  0  0  0  0  0  0  0  0  0
   20.9153   -3.9938  -14.8440 O   0  0  0  0  0  0  0  0  0  0  0  0
  2  1  1  1
  3  2  1  0
  4  2  1  0
  5  4  2  0
  6  4  1  0
  7 12  1  0
  7  6  1  0
  7  8  1  6
  9  8  1  0
 10  9  1  0
 10 11  2  0
 12 18  1  0
 13 12  2  0
 14 10  1  0
 16 15  1  0
 17 16  1  6
 18 17  1  0
 19 21  1  0
 19 17  1  0
 20 19  2  0
M  END
$$$$
