AES.pdb
     RDKit          3D

 21 20  0  0  1  0  0  0  0  0999 V2000
   25.9024  -17.4618  -17.4015 C   0  0  0  0  0  0  0  0  0  0  0  0
   25.4256  -18.4036  -16.2955 C   0  0  2  0  0  0  0  0  0  0  0  0
   26.0480  -19.6895  -16.5478 N   0  0  0  0  0  0  0  0  0  0  0  0
   23.9623  -18.5241  -16.3713 C   0  0  0  0  0  0  0  0  0  0  0  0
   23.4382  -18.9545  -17.4495 O   0  0  0  0  0  0  0  0  0  0  0  0
   23.0828  -18.1923  -15.3205 N   0  0  0  0  0  0  0  0  0  0  0  0
   21.6211  -18.1661  -15.4374 C   0  0  1  0  0  0  0  0  0  0  0  0
   21.0728  -18.9260  -14.2742 C   0  0  0  0  0  0  0  0  0  0  0  0
   20.1367  -20.0386  -14.6061 C   0  0  0  0  0  0  0  0  0  0  0  0
   19.7613  -20.6960  -13.3252 C   0  0  0  0  0  0  0  0  0  0  0  0
   20.5256  -21.5406  -12.7545 O   0  0  0  0  0  0  0  0  0  0  0  0
   21.1294  -16.7757  -15.5565 C   0  0  0  0  0  0  0  0  0  0  0  0
   21.5507  -15.9081  -14.7875 O   0  0  0  0  0  0  0  0  0  0  0  0
   18.5572  -20.4085  -12.7059 O   0  0  0  0  0  0  0  0  0  0  0  0
   19.3849  -13.2956  -18.2032 O   0  0  0  0  0  0  0  0  0  0  0  0
   19.7199  -14.6469  -18.1933 C   0  0  0  0  0  0  0  0  0  0  0  0
   19.6701  -15.1099  -16.7678 C   0  0  2  0  0  0  0  0  0  0  0  0
   20.1824  -16.4169  -16.5356 N   0  0  0  0  0  0  0  0  0  0  0  0
   18.3147  -14.9640  -16.2254 C   0  0  0  0  0  0  0  0  0  0  0  0
   17.3668  -15.7484  -16.4823 O   0  0  0  0  0  0  0  0  0  0  0  0
   18.0433  -13.9016  -15.3763 O   0  0  0  0  0  0  0  0  0  0  0  0
  2  1  1  6
  3  2  1  0
  4  2  1  0
  5  4  2  0
  6  4  1  0
  7 12  1  0
  7  6  1  0
  7  8  1  1
  9  8  1  0
 10  9  1  0
 10 11  2  0
 12 18  1  0
 13 12  2  0
 14 10  1  0
 16 15  1  0
 17 16  1  6
 18 17  1  0
 19 21  1  0
 19 17  1  0
 20 19  2  0
M  END
$$$$
