AES.pdb
     RDKit          3D

 21 20  0  0  1  0  0  0  0  0999 V2000
   12.2301  -11.0294  -10.5279 C   0  0  0  0  0  0  0  0  0  0  0  0
   13.2996  -11.4312  -11.5440 C   0  0  2  0  0  0  0  0  0  0  0  0
   13.5783  -12.8370  -11.3199 N   0  0  0  0  0  0  0  0  0  0  0  0
   14.5084  -10.6294  -11.3046 C   0  0  0  0  0  0  0  0  0  0  0  0
   15.1265  -10.7680  -10.1995 O   0  0  0  0  0  0  0  0  0  0  0  0
   15.0418   -9.7029  -12.2240 N   0  0  0  0  0  0  0  0  0  0  0  0
   16.2510   -8.9058  -11.9934 C   0  0  1  0  0  0  0  0  0  0  0  0
   17.0354   -8.9183  -13.2645 C   0  0  0  0  0  0  0  0  0  0  0  0
   17.9046  -10.1106  -13.4816 C   0  0  0  0  0  0  0  0  0  0  0  0
   18.6234   -9.9040  -14.7678 C   0  0  0  0  0  0  0  0  0  0  0  0
   19.8952   -9.9337  -14.8387 O   0  0  0  0  0  0  0  0  0  0  0  0
   15.9029   -7.5575  -11.4933 C   0  0  0  0  0  0  0  0  0  0  0  0
   14.9250   -6.9651  -11.9564 O   0  0  0  0  0  0  0  0  0  0  0  0
   17.9268   -9.6703  -15.9409 O   0  0  0  0  0  0  0  0  0  0  0  0
   16.1537   -6.5086   -7.7489 O   0  0  0  0  0  0  0  0  0  0  0  0
   16.8169   -5.5200   -8.4708 C   0  0  0  0  0  0  0  0  0  0  0  0
   16.4038   -5.6603   -9.9055 C   0  0  2  0  0  0  0  0  0  0  0  0
   16.6695   -6.9289  -10.4926 N   0  0  0  0  0  0  0  0  0  0  0  0
   16.9650   -4.5710  -10.7124 C   0  0  0  0  0  0  0  0  0  0  0  0
   16.7744   -3.3513  -10.4761 O   0  0  0  0  0  0  0  0  0  0  0  0
   17.7559   -4.8864  -11.8070 O   0  0  0  0  0  0  0  0  0  0  0  0
  2  1  1  1
  3  2  1  0
  4  2  1  0
  5  4  2  0
  6  4  1  0
  7 12  1  0
  7  6  1  0
  7  8  1  6
  9  8  1  0
 10  9  1  0
 10 11  2  0
 12 18  1  0
 13 12  2  0
 14 10  1  0
 16 15  1  0
 17 16  1  1
 18 17  1  0
 19 21  1  0
 19 17  1  0
 20 19  2  0
M  END
$$$$
