AES.pdb
     RDKit          3D

 21 20  0  0  1  0  0  0  0  0999 V2000
   20.7220  -11.1949  -15.7781 C   0  0  0  0  0  0  0  0  0  0  0  0
   19.7339  -10.1209  -16.2340 C   0  0  2  0  0  0  0  0  0  0  0  0
   19.8987   -9.9869  -17.6690 N   0  0  0  0  0  0  0  0  0  0  0  0
   20.0652   -8.8547  -15.5644 C   0  0  0  0  0  0  0  0  0  0  0  0
   19.9606   -8.7864  -14.2967 O   0  0  0  0  0  0  0  0  0  0  0  0
   20.4971   -7.6915  -16.2341 N   0  0  0  0  0  0  0  0  0  0  0  0
   20.7693   -6.4080  -15.5787 C   0  0  1  0  0  0  0  0  0  0  0  0
   22.2060   -6.0834  -15.8263 C   0  0  0  0  0  0  0  0  0  0  0  0
   23.1911   -6.7752  -14.9458 C   0  0  0  0  0  0  0  0  0  0  0  0
   24.5478   -6.3400  -15.3745 C   0  0  0  0  0  0  0  0  0  0  0  0
   25.3928   -7.1590  -15.8628 O   0  0  0  0  0  0  0  0  0  0  0  0
   19.8132   -5.3742  -16.0328 C   0  0  0  0  0  0  0  0  0  0  0  0
   19.5933   -5.2290  -17.2379 O   0  0  0  0  0  0  0  0  0  0  0  0
   24.9399   -5.0178  -15.2554 O   0  0  0  0  0  0  0  0  0  0  0  0
   16.1138   -2.5403  -15.1740 O   0  0  0  0  0  0  0  0  0  0  0  0
   16.9251   -3.5541  -14.6715 C   0  0  0  0  0  0  0  0  0  0  0  0
   18.2157   -3.5138  -15.4340 C   0  0  2  0  0  0  0  0  0  0  0  0
   19.1431   -4.5441  -15.1129 N   0  0  0  0  0  0  0  0  0  0  0  0
   18.8346   -2.1876  -15.3301 C   0  0  0  0  0  0  0  0  0  0  0  0
   19.7566   -1.9036  -14.5245 O   0  0  0  0  0  0  0  0  0  0  0  0
   18.3881   -1.1725  -16.1628 O   0  0  0  0  0  0  0  0  0  0  0  0
  2  1  1  1
  3  2  1  0
  4  2  1  0
  5  4  2  0
  6  4  1  0
  7 12  1  0
  7  6  1  0
  7  8  1  6
  9  8  1  0
 10  9  1  0
 10 11  2  0
 12 18  1  0
 13 12  2  0
 14 10  1  0
 16 15  1  0
 17 16  1  1
 18 17  1  0
 19 21  1  0
 19 17  1  0
 20 19  2  0
M  END
$$$$
