AES.pdb
     RDKit          3D

 21 20  0  0  1  0  0  0  0  0999 V2000
   30.5199  -20.1224  -10.6098 C   0  0  0  0  0  0  0  0  0  0  0  0
   29.6456  -21.2524  -10.0656 C   0  0  2  0  0  0  0  0  0  0  0  0
   30.5026  -22.4157   -9.9371 N   0  0  0  0  0  0  0  0  0  0  0  0
   28.5644  -21.5216  -11.0248 C   0  0  0  0  0  0  0  0  0  0  0  0
   28.8053  -22.2739  -12.0240 O   0  0  0  0  0  0  0  0  0  0  0  0
   27.2593  -20.9990  -10.9174 N   0  0  0  0  0  0  0  0  0  0  0  0
   26.2091  -21.1730  -11.9262 C   0  0  1  0  0  0  0  0  0  0  0  0
   24.9246  -20.7313  -11.3050 C   0  0  0  0  0  0  0  0  0  0  0  0
   23.7137  -20.8344  -12.1696 C   0  0  0  0  0  0  0  0  0  0  0  0
   22.5479  -20.4099  -11.3484 C   0  0  0  0  0  0  0  0  0  0  0  0
   22.0229  -21.1794  -10.4792 O   0  0  0  0  0  0  0  0  0  0  0  0
   26.5646  -20.4718  -13.1797 C   0  0  0  0  0  0  0  0  0  0  0  0
   26.9834  -19.3123  -13.1363 O   0  0  0  0  0  0  0  0  0  0  0  0
   21.9901  -19.1526  -11.5039 O   0  0  0  0  0  0  0  0  0  0  0  0
   27.9968  -20.7105  -17.6870 O   0  0  0  0  0  0  0  0  0  0  0  0
   27.6331  -21.4466  -16.5626 C   0  0  0  0  0  0  0  0  0  0  0  0
   26.8028  -20.5520  -15.6913 C   0  0  2  0  0  0  0  0  0  0  0  0
   26.4339  -21.1027  -14.4323 N   0  0  0  0  0  0  0  0  0  0  0  0
   25.6296  -20.0630  -16.4242 C   0  0  0  0  0  0  0  0  0  0  0  0
   24.4699  -20.5269  -16.2839 O   0  0  0  0  0  0  0  0  0  0  0  0
   25.7902  -19.0269  -17.3318 O   0  0  0  0  0  0  0  0  0  0  0  0
  2  1  1  6
  3  2  1  0
  4  2  1  0
  5  4  2  0
  6  4  1  0
  7 12  1  0
  7  6  1  0
  7  8  1  1
  9  8  1  0
 10  9  1  0
 10 11  2  0
 12 18  1  0
 13 12  2  0
 14 10  1  0
 16 15  1  0
 17 16  1  6
 18 17  1  0
 19 21  1  0
 19 17  1  0
 20 19  2  0
M  END
$$$$
