AES.pdb
     RDKit          3D

 21 20  0  0  1  0  0  0  0  0999 V2000
   14.8903   -7.7425  -15.8817 C   0  0  0  0  0  0  0  0  0  0  0  0
   15.9280   -8.6914  -16.4821 C   0  0  2  0  0  0  0  0  0  0  0  0
   15.5444  -10.0325  -16.0835 N   0  0  0  0  0  0  0  0  0  0  0  0
   17.2509   -8.3577  -15.9345 C   0  0  0  0  0  0  0  0  0  0  0  0
   17.3625   -8.1578  -14.6815 O   0  0  0  0  0  0  0  0  0  0  0  0
   18.4240   -8.2408  -16.7079 N   0  0  0  0  0  0  0  0  0  0  0  0
   19.7706   -8.0658  -16.1537 C   0  0  1  0  0  0  0  0  0  0  0  0
   20.6841   -8.9599  -16.9263 C   0  0  0  0  0  0  0  0  0  0  0  0
   20.7641  -10.3728  -16.4556 C   0  0  0  0  0  0  0  0  0  0  0  0
   21.7748  -11.0630  -17.3016 C   0  0  0  0  0  0  0  0  0  0  0  0
   21.4551  -12.0093  -18.0926 O   0  0  0  0  0  0  0  0  0  0  0  0
   20.1559   -6.6373  -16.1533 C   0  0  0  0  0  0  0  0  0  0  0  0
   19.9314   -5.9411  -17.1466 O   0  0  0  0  0  0  0  0  0  0  0  0
   23.1087  -10.6959  -17.2563 O   0  0  0  0  0  0  0  0  0  0  0  0
   19.4995   -4.0893  -13.3746 O   0  0  0  0  0  0  0  0  0  0  0  0
   20.0275   -3.7357  -14.6133 C   0  0  0  0  0  0  0  0  0  0  0  0
   21.1532   -4.6821  -14.9066 C   0  0  2  0  0  0  0  0  0  0  0  0
   20.7794   -6.0489  -15.0355 N   0  0  0  0  0  0  0  0  0  0  0  0
   22.2351   -4.5148  -13.9298 C   0  0  0  0  0  0  0  0  0  0  0  0
   22.6550   -5.4336  -13.1820 O   0  0  0  0  0  0  0  0  0  0  0  0
   22.8434   -3.2744  -13.8093 O   0  0  0  0  0  0  0  0  0  0  0  0
  2  1  1  1
  3  2  1  0
  4  2  1  0
  5  4  2  0
  6  4  1  0
  7 12  1  0
  7  6  1  0
  7  8  1  6
  9  8  1  0
 10  9  1  0
 10 11  2  0
 12 18  1  0
 13 12  2  0
 14 10  1  0
 16 15  1  0
 17 16  1  1
 18 17  1  0
 19 21  1  0
 19 17  1  0
 20 19  2  0
M  END
$$$$
