AES.pdb
     RDKit          3D

 21 20  0  0  1  0  0  0  0  0999 V2000
   19.0263  -12.6211  -15.6855 C   0  0  0  0  0  0  0  0  0  0  0  0
   17.8105  -11.6949  -15.6459 C   0  0  2  0  0  0  0  0  0  0  0  0
   16.9022  -12.1574  -16.6782 N   0  0  0  0  0  0  0  0  0  0  0  0
   18.2491  -10.3215  -15.9335 C   0  0  0  0  0  0  0  0  0  0  0  0
   18.8975  -10.0976  -17.0068 O   0  0  0  0  0  0  0  0  0  0  0  0
   18.0003   -9.2163  -15.0940 N   0  0  0  0  0  0  0  0  0  0  0  0
   18.4332   -7.8439  -15.3771 C   0  0  1  0  0  0  0  0  0  0  0  0
   17.2625   -6.9518  -15.1226 C   0  0  0  0  0  0  0  0  0  0  0  0
   16.1934   -6.9681  -16.1623 C   0  0  0  0  0  0  0  0  0  0  0  0
   15.1067   -6.0673  -15.6916 C   0  0  0  0  0  0  0  0  0  0  0  0
   13.9785   -6.5190  -15.3089 O   0  0  0  0  0  0  0  0  0  0  0  0
   19.6485   -7.5072  -14.6032 C   0  0  0  0  0  0  0  0  0  0  0  0
   19.7396   -7.8535  -13.4227 O   0  0  0  0  0  0  0  0  0  0  0  0
   15.2880   -4.6956  -15.6539 O   0  0  0  0  0  0  0  0  0  0  0  0
   23.2639   -7.5723  -16.0609 O   0  0  0  0  0  0  0  0  0  0  0  0
   23.1259   -6.3354  -15.4368 C   0  0  0  0  0  0  0  0  0  0  0  0
   21.9241   -6.4164  -14.5436 C   0  0  2  0  0  0  0  0  0  0  0  0
   20.7129   -6.7936  -15.1881 N   0  0  0  0  0  0  0  0  0  0  0  0
   21.7598   -5.1707  -13.7861 C   0  0  0  0  0  0  0  0  0  0  0  0
   20.9795   -4.2434  -14.1192 O   0  0  0  0  0  0  0  0  0  0  0  0
   22.5027   -4.9866  -12.6297 O   0  0  0  0  0  0  0  0  0  0  0  0
  2  1  1  6
  3  2  1  0
  4  2  1  0
  5  4  2  0
  6  4  1  0
  7 12  1  0
  7  6  1  0
  7  8  1  1
  9  8  1  0
 10  9  1  0
 10 11  2  0
 12 18  1  0
 13 12  2  0
 14 10  1  0
 16 15  1  0
 17 16  1  6
 18 17  1  0
 19 21  1  0
 19 17  1  0
 20 19  2  0
M  END
$$$$
