AES.pdb
     RDKit          3D

 21 20  0  0  1  0  0  0  0  0999 V2000
   13.2465  -11.0587  -14.4245 C   0  0  0  0  0  0  0  0  0  0  0  0
   14.4352  -11.5877  -15.2274 C   0  0  2  0  0  0  0  0  0  0  0  0
   14.7208  -12.9165  -14.7204 N   0  0  0  0  0  0  0  0  0  0  0  0
   15.5884  -10.7022  -15.0094 C   0  0  0  0  0  0  0  0  0  0  0  0
   15.8056  -10.2571  -13.8359 O   0  0  0  0  0  0  0  0  0  0  0  0
   16.4857  -10.3032  -16.0211 N   0  0  0  0  0  0  0  0  0  0  0  0
   17.6321   -9.4129  -15.8112 C   0  0  1  0  0  0  0  0  0  0  0  0
   18.7659   -9.9580  -16.6164 C   0  0  0  0  0  0  0  0  0  0  0  0
   19.5563  -11.0474  -15.9739 C   0  0  0  0  0  0  0  0  0  0  0  0
   20.6323  -11.4325  -16.9266 C   0  0  0  0  0  0  0  0  0  0  0  0
   21.8250  -11.0020  -16.8024 O   0  0  0  0  0  0  0  0  0  0  0  0
   17.2711   -8.0115  -16.1189 C   0  0  0  0  0  0  0  0  0  0  0  0
   16.3170   -7.7732  -16.8636 O   0  0  0  0  0  0  0  0  0  0  0  0
   20.3697  -12.2792  -17.9897 O   0  0  0  0  0  0  0  0  0  0  0  0
   16.3182   -3.7244  -15.3005 O   0  0  0  0  0  0  0  0  0  0  0  0
   16.4170   -5.0988  -15.1011 C   0  0  0  0  0  0  0  0  0  0  0  0
   17.6963   -5.5526  -15.7384 C   0  0  2  0  0  0  0  0  0  0  0  0
   17.9984   -6.9336  -15.5772 N   0  0  0  0  0  0  0  0  0  0  0  0
   18.8154   -4.7077  -15.3066 C   0  0  0  0  0  0  0  0  0  0  0  0
   19.8512   -5.1461  -14.7455 O   0  0  0  0  0  0  0  0  0  0  0  0
   18.7440   -3.3395  -15.5214 O   0  0  0  0  0  0  0  0  0  0  0  0
  2  1  1  1
  3  2  1  0
  4  2  1  0
  5  4  2  0
  6  4  1  0
  7 12  1  0
  7  6  1  0
  7  8  1  6
  9  8  1  0
 10  9  1  0
 10 11  2  0
 12 18  1  0
 13 12  2  0
 14 10  1  0
 16 15  1  0
 17 16  1  1
 18 17  1  0
 19 21  1  0
 19 17  1  0
 20 19  2  0
M  END
$$$$
