AES.pdb
     RDKit          3D

 21 20  0  0  1  0  0  0  0  0999 V2000
   15.5221   -7.1483   -7.0845 C   0  0  0  0  0  0  0  0  0  0  0  0
   14.5793   -7.1757   -8.2879 C   0  0  2  0  0  0  0  0  0  0  0  0
   13.6626   -8.2791   -8.0724 N   0  0  0  0  0  0  0  0  0  0  0  0
   15.3699   -7.4028   -9.5064 C   0  0  0  0  0  0  0  0  0  0  0  0
   15.6800   -8.5973   -9.8217 O   0  0  0  0  0  0  0  0  0  0  0  0
   15.8171   -6.3779  -10.3653 N   0  0  0  0  0  0  0  0  0  0  0  0
   16.5428   -6.6028  -11.6198 C   0  0  1  0  0  0  0  0  0  0  0  0
   15.7204   -6.0094  -12.7164 C   0  0  0  0  0  0  0  0  0  0  0  0
   16.2502   -6.1905  -14.0987 C   0  0  0  0  0  0  0  0  0  0  0  0
   15.2924   -5.5326  -15.0279 C   0  0  0  0  0  0  0  0  0  0  0  0
   15.4673   -5.5415  -16.2899 O   0  0  0  0  0  0  0  0  0  0  0  0
   17.9236   -6.0793  -11.5280 C   0  0  0  0  0  0  0  0  0  0  0  0
   18.1646   -5.1077  -10.8072 O   0  0  0  0  0  0  0  0  0  0  0  0
   14.1689   -4.8829  -14.5466 O   0  0  0  0  0  0  0  0  0  0  0  0
   22.6065   -6.8262  -12.2834 O   0  0  0  0  0  0  0  0  0  0  0  0
   21.3367   -7.3646  -12.4736 C   0  0  0  0  0  0  0  0  0  0  0  0
   20.3437   -6.2700  -12.2195 C   0  0  2  0  0  0  0  0  0  0  0  0
   18.9784   -6.6692  -12.2517 N   0  0  0  0  0  0  0  0  0  0  0  0
   20.5886   -5.1338  -13.1150 C   0  0  0  0  0  0  0  0  0  0  0  0
   20.0296   -4.9854  -14.2309 O   0  0  0  0  0  0  0  0  0  0  0  0
   21.4889   -4.1542  -12.7240 O   0  0  0  0  0  0  0  0  0  0  0  0
  2  1  1  1
  3  2  1  0
  4  2  1  0
  5  4  2  0
  6  4  1  0
  7 12  1  0
  7  6  1  0
  7  8  1  6
  9  8  1  0
 10  9  1  0
 10 11  2  0
 12 18  1  0
 13 12  2  0
 14 10  1  0
 16 15  1  0
 17 16  1  6
 18 17  1  0
 19 21  1  0
 19 17  1  0
 20 19  2  0
M  END
$$$$
