AES.pdb
     RDKit          3D

 21 20  0  0  1  0  0  0  0  0999 V2000
   18.4036  -12.0508  -17.7270 C   0  0  0  0  0  0  0  0  0  0  0  0
   18.3739  -11.4178  -16.3356 C   0  0  2  0  0  0  0  0  0  0  0  0
   16.9955  -11.4664  -15.8863 N   0  0  0  0  0  0  0  0  0  0  0  0
   18.8257  -10.0225  -16.4380 C   0  0  0  0  0  0  0  0  0  0  0  0
   20.0618   -9.7922  -16.6415 O   0  0  0  0  0  0  0  0  0  0  0  0
   17.9765   -8.9025  -16.3254 N   0  0  0  0  0  0  0  0  0  0  0  0
   18.4212   -7.5088  -16.4289 C   0  0  1  0  0  0  0  0  0  0  0  0
   17.2202   -6.6875  -16.7662 C   0  0  0  0  0  0  0  0  0  0  0  0
   17.2136   -6.0704  -18.1239 C   0  0  0  0  0  0  0  0  0  0  0  0
   17.3571   -4.6008  -17.9413 C   0  0  0  0  0  0  0  0  0  0  0  0
   16.3934   -3.8785  -17.5256 O   0  0  0  0  0  0  0  0  0  0  0  0
   19.1314   -7.0924  -15.1995 C   0  0  0  0  0  0  0  0  0  0  0  0
   19.0780   -7.8001  -14.1906 O   0  0  0  0  0  0  0  0  0  0  0  0
   18.5542   -3.9643  -18.2200 O   0  0  0  0  0  0  0  0  0  0  0  0
   22.7234   -6.0094  -12.9061 O   0  0  0  0  0  0  0  0  0  0  0  0
   21.8309   -6.5751  -13.8127 C   0  0  0  0  0  0  0  0  0  0  0  0
   20.8114   -5.5282  -14.1494 C   0  0  2  0  0  0  0  0  0  0  0  0
   19.8729   -5.8955  -15.1538 N   0  0  0  0  0  0  0  0  0  0  0  0
   21.4664   -4.2554  -14.4712 C   0  0  0  0  0  0  0  0  0  0  0  0
   22.1206   -3.5727  -13.6431 O   0  0  0  0  0  0  0  0  0  0  0  0
   21.3684   -3.7587  -15.7622 O   0  0  0  0  0  0  0  0  0  0  0  0
  2  1  1  6
  3  2  1  0
  4  2  1  0
  5  4  2  0
  6  4  1  0
  7 12  1  0
  7  6  1  0
  7  8  1  1
  9  8  1  0
 10  9  1  0
 10 11  2  0
 12 18  1  0
 13 12  2  0
 14 10  1  0
 16 15  1  0
 17 16  1  6
 18 17  1  0
 19 21  1  0
 19 17  1  0
 20 19  2  0
M  END
$$$$
