AES.pdb
     RDKit          3D

 21 20  0  0  1  0  0  0  0  0999 V2000
   19.0663  -12.5855  -16.5163 C   0  0  0  0  0  0  0  0  0  0  0  0
   17.7060  -12.2559  -15.9009 C   0  0  2  0  0  0  0  0  0  0  0  0
   16.7380  -12.3087  -16.9801 N   0  0  0  0  0  0  0  0  0  0  0  0
   17.7574  -10.9018  -15.3306 C   0  0  0  0  0  0  0  0  0  0  0  0
   17.8528   -9.9075  -16.1210 O   0  0  0  0  0  0  0  0  0  0  0  0
   17.7081  -10.6192  -13.9501 N   0  0  0  0  0  0  0  0  0  0  0  0
   17.6914   -9.2686  -13.3786 C   0  0  1  0  0  0  0  0  0  0  0  0
   17.1232   -9.3804  -12.0018 C   0  0  0  0  0  0  0  0  0  0  0  0
   16.9886   -8.1012  -11.2470 C   0  0  0  0  0  0  0  0  0  0  0  0
   16.2901   -8.4133   -9.9710 C   0  0  0  0  0  0  0  0  0  0  0  0
   15.9840   -9.6071   -9.6475 O   0  0  0  0  0  0  0  0  0  0  0  0
   19.0355   -8.6539  -13.4462 C   0  0  0  0  0  0  0  0  0  0  0  0
   20.0334   -9.3308  -13.1864 O   0  0  0  0  0  0  0  0  0  0  0  0
   15.9464   -7.4068   -9.0851 O   0  0  0  0  0  0  0  0  0  0  0  0
   22.2275   -6.1637  -15.4650 O   0  0  0  0  0  0  0  0  0  0  0  0
   21.0192   -6.8536  -15.4141 C   0  0  0  0  0  0  0  0  0  0  0  0
   20.4426   -6.6458  -14.0455 C   0  0  2  0  0  0  0  0  0  0  0  0
   19.2034   -7.3015  -13.8028 N   0  0  0  0  0  0  0  0  0  0  0  0
   20.3591   -5.2147  -13.7331 C   0  0  0  0  0  0  0  0  0  0  0  0
   21.3435   -4.5111  -13.3931 O   0  0  0  0  0  0  0  0  0  0  0  0
   19.1274   -4.5822  -13.8115 O   0  0  0  0  0  0  0  0  0  0  0  0
  2  1  1  6
  3  2  1  0
  4  2  1  0
  5  4  2  0
  6  4  1  0
  7 12  1  0
  7  6  1  0
  7  8  1  1
  9  8  1  0
 10  9  1  0
 10 11  2  0
 12 18  1  0
 13 12  2  0
 14 10  1  0
 16 15  1  0
 17 16  1  6
 18 17  1  0
 19 21  1  0
 19 17  1  0
 20 19  2  0
M  END
$$$$
