AES.pdb
     RDKit          3D

 21 20  0  0  1  0  0  0  0  0999 V2000
   17.9053  -11.7710  -14.5645 C   0  0  0  0  0  0  0  0  0  0  0  0
   17.3509  -11.1555  -15.8496 C   0  0  2  0  0  0  0  0  0  0  0  0
   17.7912  -12.0044  -16.9404 N   0  0  0  0  0  0  0  0  0  0  0  0
   17.9027   -9.8017  -16.0052 C   0  0  0  0  0  0  0  0  0  0  0  0
   19.1161   -9.6729  -16.3703 O   0  0  0  0  0  0  0  0  0  0  0  0
   17.1745   -8.6162  -15.7757 N   0  0  0  0  0  0  0  0  0  0  0  0
   17.7205   -7.2634  -15.9265 C   0  0  1  0  0  0  0  0  0  0  0  0
   16.5705   -6.3135  -15.8481 C   0  0  0  0  0  0  0  0  0  0  0  0
   16.9006   -4.8733  -16.0510 C   0  0  0  0  0  0  0  0  0  0  0  0
   15.6266   -4.1109  -15.9542 C   0  0  0  0  0  0  0  0  0  0  0  0
   14.5704   -4.4884  -16.5586 O   0  0  0  0  0  0  0  0  0  0  0  0
   18.7950   -7.0185  -14.9394 C   0  0  0  0  0  0  0  0  0  0  0  0
   18.6704   -7.4285  -13.7826 O   0  0  0  0  0  0  0  0  0  0  0  0
   15.5467   -2.9551  -15.1968 O   0  0  0  0  0  0  0  0  0  0  0  0
   23.3174   -6.6414  -13.9251 O   0  0  0  0  0  0  0  0  0  0  0  0
   22.2808   -7.0104  -14.7782 C   0  0  0  0  0  0  0  0  0  0  0  0
   21.1091   -6.1280  -14.4666 C   0  0  2  0  0  0  0  0  0  0  0  0
   19.9669   -6.3211  -15.2927 N   0  0  0  0  0  0  0  0  0  0  0  0
   21.5173   -4.7189  -14.4416 C   0  0  0  0  0  0  0  0  0  0  0  0
   21.5634   -3.9825  -15.4591 O   0  0  0  0  0  0  0  0  0  0  0  0
   21.8783   -4.1471  -13.2309 O   0  0  0  0  0  0  0  0  0  0  0  0
  2  1  1  1
  3  2  1  0
  4  2  1  0
  5  4  2  0
  6  4  1  0
  7 12  1  0
  7  6  1  0
  7  8  1  1
  9  8  1  0
 10  9  1  0
 10 11  2  0
 12 18  1  0
 13 12  2  0
 14 10  1  0
 16 15  1  0
 17 16  1  6
 18 17  1  0
 19 21  1  0
 19 17  1  0
 20 19  2  0
M  END
$$$$
