AES.pdb
     RDKit          3D

 21 20  0  0  1  0  0  0  0  0999 V2000
   18.7503  -12.0574  -15.2603 C   0  0  0  0  0  0  0  0  0  0  0  0
   17.7231  -10.9428  -15.0597 C   0  0  2  0  0  0  0  0  0  0  0  0
   17.7721  -10.1136  -16.2490 N   0  0  0  0  0  0  0  0  0  0  0  0
   18.0999  -10.1561  -13.8762 C   0  0  0  0  0  0  0  0  0  0  0  0
   18.0968  -10.7245  -12.7363 O   0  0  0  0  0  0  0  0  0  0  0  0
   18.4701   -8.7961  -13.9117 N   0  0  0  0  0  0  0  0  0  0  0  0
   18.8302   -8.0019  -12.7325 C   0  0  1  0  0  0  0  0  0  0  0  0
   19.9423   -7.0911  -13.1380 C   0  0  0  0  0  0  0  0  0  0  0  0
   20.4532   -6.1749  -12.0779 C   0  0  0  0  0  0  0  0  0  0  0  0
   21.4466   -5.2707  -12.7176 C   0  0  0  0  0  0  0  0  0  0  0  0
   21.4703   -4.0201  -12.4752 O   0  0  0  0  0  0  0  0  0  0  0  0
   17.6409   -7.3187  -12.1773 C   0  0  0  0  0  0  0  0  0  0  0  0
   16.8921   -6.6857  -12.9257 O   0  0  0  0  0  0  0  0  0  0  0  0
   22.3867   -5.7637  -13.6059 O   0  0  0  0  0  0  0  0  0  0  0  0
   15.4989   -8.7469   -9.1946 O   0  0  0  0  0  0  0  0  0  0  0  0
   15.7781   -7.4168   -8.8923 C   0  0  0  0  0  0  0  0  0  0  0  0
   16.2333   -6.7560  -10.1590 C   0  0  2  0  0  0  0  0  0  0  0  0
   17.3420   -7.3742  -10.8019 N   0  0  0  0  0  0  0  0  0  0  0  0
   16.4751   -5.3261   -9.9364 C   0  0  0  0  0  0  0  0  0  0  0  0
   15.6384   -4.5443   -9.4182 O   0  0  0  0  0  0  0  0  0  0  0  0
   17.6949   -4.7857  -10.3149 O   0  0  0  0  0  0  0  0  0  0  0  0
  2  1  1  6
  3  2  1  0
  4  2  1  0
  5  4  2  0
  6  4  1  0
  7 12  1  0
  7  6  1  0
  7  8  1  6
  9  8  1  0
 10  9  1  0
 10 11  2  0
 12 18  1  0
 13 12  2  0
 14 10  1  0
 16 15  1  0
 17 16  1  1
 18 17  1  0
 19 21  1  0
 19 17  1  0
 20 19  2  0
M  END
$$$$
