TSG.pdb
     RDKit          3D

 18 17  0  0  1  0  0  0  0  0999 V2000
    7.9937  -16.6798   17.7666 C   0  0  0  0  0  0  0  0  0  0  0  0
    8.3709  -15.3658   17.1396 C   0  0  1  0  0  0  0  0  0  0  0  0
    7.7057  -15.3026   15.9033 O   0  0  0  0  0  0  0  0  0  0  0  0
    7.7570  -14.2533   17.9740 C   0  0  2  0  0  0  0  0  0  0  0  0
    7.8993  -12.9798   17.2181 N   0  0  0  0  0  0  0  0  0  0  0  0
    8.4606  -14.0302   19.2539 C   0  0  0  0  0  0  0  0  0  0  0  0
    9.5656  -13.3963   19.2411 O   0  0  0  0  0  0  0  0  0  0  0  0
    6.8220  -15.1173   22.8881 O   0  0  0  0  0  0  0  0  0  0  0  0
    7.8009  -14.1219   22.8670 C   0  0  0  0  0  0  0  0  0  0  0  0
    8.7802  -14.3329   21.7312 C   0  0  2  0  0  0  0  0  0  0  0  0
    8.0078  -14.4622   20.5032 N   0  0  0  0  0  0  0  0  0  0  0  0
    9.5235  -15.5983   22.0177 C   0  0  0  0  0  0  0  0  0  0  0  0
    9.0331  -16.7378   21.7686 O   0  0  0  0  0  0  0  0  0  0  0  0
   10.8288  -15.5816   22.5889 N   0  0  0  0  0  0  0  0  0  0  0  0
   11.5346  -16.8075   22.8868 C   0  0  0  0  0  0  0  0  0  0  0  0
   12.8340  -16.5543   23.5290 C   0  0  0  0  0  0  0  0  0  0  0  0
   13.2194  -15.3677   23.6714 O   0  0  0  0  0  0  0  0  0  0  0  0
   13.6636  -17.5623   23.9895 O   0  0  0  0  0  0  0  0  0  0  0  0
  2  1  1  1
  3  2  1  0
  4  6  1  0
  4  2  1  0
  4  5  1  6
  6  7  2  0
  8  9  1  0
 10  9  1  1
 11 10  1  0
 11  6  1  0
 12 14  1  0
 12 10  1  0
 13 12  2  0
 15 14  1  0
 15 16  1  0
 16 18  1  0
 17 16  2  0
M  END
$$$$
