TSG.pdb
     RDKit          3D

 18 17  0  0  1  0  0  0  0  0999 V2000
   11.2287  -18.3441   17.2731 C   0  0  0  0  0  0  0  0  0  0  0  0
   11.8972  -17.9524   15.9839 C   0  0  1  0  0  0  0  0  0  0  0  0
   11.2851  -18.7047   14.9670 O   0  0  0  0  0  0  0  0  0  0  0  0
   11.5276  -16.5091   15.6823 C   0  0  2  0  0  0  0  0  0  0  0  0
   12.2368  -16.1034   14.4390 N   0  0  0  0  0  0  0  0  0  0  0  0
   11.9844  -15.5625   16.7208 C   0  0  0  0  0  0  0  0  0  0  0  0
   13.2228  -15.2690   16.7776 O   0  0  0  0  0  0  0  0  0  0  0  0
    9.3632  -13.8324   19.4362 O   0  0  0  0  0  0  0  0  0  0  0  0
   10.5532  -13.1623   19.1455 C   0  0  0  0  0  0  0  0  0  0  0  0
   11.6536  -14.1298   18.7625 C   0  0  2  0  0  0  0  0  0  0  0  0
   11.1572  -14.9476   17.6643 N   0  0  0  0  0  0  0  0  0  0  0  0
   11.9336  -14.9781   19.9617 C   0  0  0  0  0  0  0  0  0  0  0  0
   11.0821  -15.7919   20.4237 O   0  0  0  0  0  0  0  0  0  0  0  0
   13.1814  -14.9100   20.6463 N   0  0  0  0  0  0  0  0  0  0  0  0
   13.4354  -15.7052   21.8265 C   0  0  0  0  0  0  0  0  0  0  0  0
   14.8110  -15.5358   22.3208 C   0  0  0  0  0  0  0  0  0  0  0  0
   15.6323  -14.8937   21.6209 O   0  0  0  0  0  0  0  0  0  0  0  0
   15.2540  -16.0504   23.5271 O   0  0  0  0  0  0  0  0  0  0  0  0
  2  1  1  1
  3  2  1  0
  4  6  1  0
  4  2  1  0
  4  5  1  6
  6  7  2  0
  8  9  1  0
 10  9  1  1
 11 10  1  0
 11  6  1  0
 12 14  1  0
 12 10  1  0
 13 12  2  0
 15 14  1  0
 15 16  1  0
 16 18  1  0
 17 16  2  0
M  END
$$$$
