TSG.pdb
     RDKit          3D

 18 17  0  0  1  0  0  0  0  0999 V2000
   -3.1848  -27.5092   31.9790 C   0  0  0  0  0  0  0  0  0  0  0  0
   -1.9211  -26.7953   31.5847 C   0  0  1  0  0  0  0  0  0  0  0  0
   -0.8554  -27.6514   31.9101 O   0  0  0  0  0  0  0  0  0  0  0  0
   -1.8935  -26.6913   30.0684 C   0  0  2  0  0  0  0  0  0  0  0  0
   -0.5976  -26.0764   29.6735 N   0  0  0  0  0  0  0  0  0  0  0  0
   -2.9345  -25.7928   29.5279 C   0  0  0  0  0  0  0  0  0  0  0  0
   -2.7563  -24.5339   29.6077 O   0  0  0  0  0  0  0  0  0  0  0  0
   -6.6604  -27.1507   28.2850 O   0  0  0  0  0  0  0  0  0  0  0  0
   -6.0808  -26.1181   27.5452 C   0  0  0  0  0  0  0  0  0  0  0  0
   -5.1239  -25.3023   28.3892 C   0  0  2  0  0  0  0  0  0  0  0  0
   -4.1214  -26.2142   28.9226 N   0  0  0  0  0  0  0  0  0  0  0  0
   -5.9212  -24.6942   29.4985 C   0  0  0  0  0  0  0  0  0  0  0  0
   -6.2216  -25.3405   30.5439 O   0  0  0  0  0  0  0  0  0  0  0  0
   -6.3841  -23.3482   29.4310 N   0  0  0  0  0  0  0  0  0  0  0  0
   -7.0802  -22.7363   30.5403 C   0  0  0  0  0  0  0  0  0  0  0  0
   -7.3738  -21.3160   30.2921 C   0  0  0  0  0  0  0  0  0  0  0  0
   -6.8730  -20.7603   29.2835 O   0  0  0  0  0  0  0  0  0  0  0  0
   -8.1799  -20.5509   31.1173 O   0  0  0  0  0  0  0  0  0  0  0  0
  2  1  1  6
  3  2  1  0
  4  6  1  0
  4  2  1  0
  4  5  1  1
  6  7  2  0
  8  9  1  0
 10  9  1  6
 11 10  1  0
 11  6  1  0
 12 14  1  0
 12 10  1  0
 13 12  2  0
 15 14  1  0
 15 16  1  0
 16 18  1  0
 17 16  2  0
M  END
$$$$
