TSG.pdb
     RDKit          3D

 18 17  0  0  1  0  0  0  0  0999 V2000
    9.5984  -20.4699   21.9131 C   0  0  0  0  0  0  0  0  0  0  0  0
    9.9744  -20.3452   20.4622 C   0  0  1  0  0  0  0  0  0  0  0  0
    9.1555  -21.2413   19.7544 O   0  0  0  0  0  0  0  0  0  0  0  0
    9.5528  -18.9652   19.9842 C   0  0  2  0  0  0  0  0  0  0  0  0
    9.7931  -18.8935   18.5177 N   0  0  0  0  0  0  0  0  0  0  0  0
   10.3617  -17.8751   20.5678 C   0  0  0  0  0  0  0  0  0  0  0  0
   11.5639  -17.7279   20.1728 O   0  0  0  0  0  0  0  0  0  0  0  0
    9.0260  -15.6583   23.7872 O   0  0  0  0  0  0  0  0  0  0  0  0
    9.8461  -14.9878   22.8776 C   0  0  0  0  0  0  0  0  0  0  0  0
   10.7535  -15.9488   22.1382 C   0  0  2  0  0  0  0  0  0  0  0  0
    9.9113  -16.9722   21.5343 N   0  0  0  0  0  0  0  0  0  0  0  0
   11.6718  -16.5567   23.1497 C   0  0  0  0  0  0  0  0  0  0  0  0
   11.2730  -17.4123   23.9921 O   0  0  0  0  0  0  0  0  0  0  0  0
   13.0496  -16.1989   23.2139 N   0  0  0  0  0  0  0  0  0  0  0  0
   13.9422  -16.8146   24.1699 C   0  0  0  0  0  0  0  0  0  0  0  0
   15.3351  -16.3773   23.9860 C   0  0  0  0  0  0  0  0  0  0  0  0
   15.6115  -15.6225   23.0212 O   0  0  0  0  0  0  0  0  0  0  0  0
   16.3679  -16.7557   24.8263 O   0  0  0  0  0  0  0  0  0  0  0  0
  2  1  1  1
  3  2  1  0
  4  6  1  0
  4  2  1  0
  4  5  1  6
  6  7  2  0
  8  9  1  0
 10  9  1  1
 11 10  1  0
 11  6  1  0
 12 14  1  0
 12 10  1  0
 13 12  2  0
 15 14  1  0
 15 16  1  0
 16 18  1  0
 17 16  2  0
M  END
$$$$
