TSG.pdb
     RDKit          3D

 18 17  0  0  1  0  0  0  0  0999 V2000
   -5.3696  -26.3921   26.9970 C   0  0  0  0  0  0  0  0  0  0  0  0
   -4.0486  -26.3697   27.7159 C   0  0  1  0  0  0  0  0  0  0  0  0
   -3.0642  -26.6764   26.7612 O   0  0  0  0  0  0  0  0  0  0  0  0
   -3.7626  -24.9352   28.1293 C   0  0  2  0  0  0  0  0  0  0  0  0
   -2.4158  -24.8986   28.7603 N   0  0  0  0  0  0  0  0  0  0  0  0
   -4.6926  -24.4305   29.1607 C   0  0  0  0  0  0  0  0  0  0  0  0
   -4.7458  -25.0325   30.2822 O   0  0  0  0  0  0  0  0  0  0  0  0
   -7.5866  -20.9401   30.8501 O   0  0  0  0  0  0  0  0  0  0  0  0
   -6.7030  -21.4243   29.8835 C   0  0  0  0  0  0  0  0  0  0  0  0
   -6.5256  -22.9240   29.9977 C   0  0  2  0  0  0  0  0  0  0  0  0
   -5.5347  -23.3259   29.0089 N   0  0  0  0  0  0  0  0  0  0  0  0
   -7.8497  -23.5500   29.6961 C   0  0  0  0  0  0  0  0  0  0  0  0
   -8.3285  -23.5803   28.5254 O   0  0  0  0  0  0  0  0  0  0  0  0
   -8.6411  -24.1466   30.7199 N   0  0  0  0  0  0  0  0  0  0  0  0
   -9.8692  -24.8435   30.4104 C   0  0  0  0  0  0  0  0  0  0  0  0
  -10.9959  -23.9173   30.2166 C   0  0  0  0  0  0  0  0  0  0  0  0
  -10.7974  -22.6844   30.3491 O   0  0  0  0  0  0  0  0  0  0  0  0
  -12.2756  -24.3341   29.8929 O   0  0  0  0  0  0  0  0  0  0  0  0
  2  1  1  6
  3  2  1  0
  4  6  1  0
  4  2  1  0
  4  5  1  1
  6  7  2  0
  8  9  1  0
 10  9  1  6
 11 10  1  0
 11  6  1  0
 12 14  1  0
 12 10  1  0
 13 12  2  0
 15 14  1  0
 15 16  1  0
 16 18  1  0
 17 16  2  0
M  END
$$$$
