TSG.pdb
     RDKit          3D

 18 17  0  0  1  0  0  0  0  0999 V2000
   -5.9980  -24.4359   24.1940 C   0  0  0  0  0  0  0  0  0  0  0  0
   -4.7619  -25.2862   24.2992 C   0  0  1  0  0  0  0  0  0  0  0  0
   -4.3573  -25.5748   22.9848 O   0  0  0  0  0  0  0  0  0  0  0  0
   -3.6476  -24.4269   24.8742 C   0  0  2  0  0  0  0  0  0  0  0  0
   -2.4130  -25.2547   24.9338 N   0  0  0  0  0  0  0  0  0  0  0  0
   -3.9012  -24.0003   26.2660 C   0  0  0  0  0  0  0  0  0  0  0  0
   -3.6227  -24.8065   27.2122 O   0  0  0  0  0  0  0  0  0  0  0  0
   -4.5657  -20.1443   27.2140 O   0  0  0  0  0  0  0  0  0  0  0  0
   -4.2270  -21.0056   28.2594 C   0  0  0  0  0  0  0  0  0  0  0  0
   -4.7522  -22.4050   28.0156 C   0  0  2  0  0  0  0  0  0  0  0  0
   -4.4294  -22.7623   26.6410 N   0  0  0  0  0  0  0  0  0  0  0  0
   -6.2341  -22.3613   28.2108 C   0  0  0  0  0  0  0  0  0  0  0  0
   -7.0256  -22.0289   27.2813 O   0  0  0  0  0  0  0  0  0  0  0  0
   -6.8301  -22.6940   29.4616 N   0  0  0  0  0  0  0  0  0  0  0  0
   -8.2659  -22.7224   29.6261 C   0  0  0  0  0  0  0  0  0  0  0  0
   -8.6581  -23.1285   30.9849 C   0  0  0  0  0  0  0  0  0  0  0  0
   -7.7837  -23.5989   31.7535 O   0  0  0  0  0  0  0  0  0  0  0  0
   -9.9509  -23.0193   31.4675 O   0  0  0  0  0  0  0  0  0  0  0  0
  2  1  1  6
  3  2  1  0
  4  6  1  0
  4  2  1  0
  4  5  1  1
  6  7  2  0
  8  9  1  0
 10  9  1  6
 11 10  1  0
 11  6  1  0
 12 14  1  0
 12 10  1  0
 13 12  2  0
 15 14  1  0
 15 16  1  0
 16 18  1  0
 17 16  2  0
M  END
$$$$
