TSG.pdb
     RDKit          3D

 18 17  0  0  1  0  0  0  0  0999 V2000
    1.8440  -22.7066   17.4508 C   0  0  0  0  0  0  0  0  0  0  0  0
    0.8301  -21.9012   16.6857 C   0  0  1  0  0  0  0  0  0  0  0  0
    0.1024  -22.8104   15.8992 O   0  0  0  0  0  0  0  0  0  0  0  0
   -0.1772  -21.3469   17.6801 C   0  0  2  0  0  0  0  0  0  0  0  0
   -1.1606  -20.5228   16.9270 N   0  0  0  0  0  0  0  0  0  0  0  0
    0.4261  -20.4304   18.6696 C   0  0  0  0  0  0  0  0  0  0  0  0
    0.6081  -19.2126   18.3428 O   0  0  0  0  0  0  0  0  0  0  0  0
    0.3035  -21.1221   22.6240 O   0  0  0  0  0  0  0  0  0  0  0  0
    0.5532  -19.8357   22.1422 C   0  0  0  0  0  0  0  0  0  0  0  0
    1.4294  -19.8678   20.9073 C   0  0  2  0  0  0  0  0  0  0  0  0
    0.8207  -20.7919   19.9604 N   0  0  0  0  0  0  0  0  0  0  0  0
    2.7743  -20.3644   21.3324 C   0  0  0  0  0  0  0  0  0  0  0  0
    3.1184  -21.5744   21.1967 O   0  0  0  0  0  0  0  0  0  0  0  0
    3.7395  -19.4928   21.9147 N   0  0  0  0  0  0  0  0  0  0  0  0
    5.0536  -19.9671   22.2857 C   0  0  0  0  0  0  0  0  0  0  0  0
    5.0951  -20.4476   23.6758 C   0  0  0  0  0  0  0  0  0  0  0  0
    4.0153  -20.7212   24.2555 O   0  0  0  0  0  0  0  0  0  0  0  0
    6.2706  -20.6164   24.3870 O   0  0  0  0  0  0  0  0  0  0  0  0
  2  1  1  1
  3  2  1  0
  4  6  1  0
  4  2  1  0
  4  5  1  6
  6  7  2  0
  8  9  1  0
 10  9  1  1
 11 10  1  0
 11  6  1  0
 12 14  1  0
 12 10  1  0
 13 12  2  0
 15 14  1  0
 15 16  1  0
 16 18  1  0
 17 16  2  0
M  END
$$$$
