TSG.pdb
     RDKit          3D

 18 17  0  0  1  0  0  0  0  0999 V2000
   11.8300  -19.0360   12.0142 C   0  0  0  0  0  0  0  0  0  0  0  0
   11.8132  -17.5435   11.8286 C   0  0  1  0  0  0  0  0  0  0  0  0
   11.3970  -17.3056   10.5077 O   0  0  0  0  0  0  0  0  0  0  0  0
   10.7047  -16.9740   12.6991 C   0  0  2  0  0  0  0  0  0  0  0  0
   10.4049  -15.5980   12.2194 N   0  0  0  0  0  0  0  0  0  0  0  0
   11.0986  -16.8185   14.1147 C   0  0  0  0  0  0  0  0  0  0  0  0
   12.0261  -15.9945   14.4037 O   0  0  0  0  0  0  0  0  0  0  0  0
   10.2971  -17.7883   18.8146 O   0  0  0  0  0  0  0  0  0  0  0  0
    9.9035  -17.8439   17.4762 C   0  0  0  0  0  0  0  0  0  0  0  0
   11.0343  -17.4477   16.5500 C   0  0  2  0  0  0  0  0  0  0  0  0
   10.5278  -17.5109   15.1859 N   0  0  0  0  0  0  0  0  0  0  0  0
   12.1349  -18.4407   16.7461 C   0  0  0  0  0  0  0  0  0  0  0  0
   12.1845  -19.5268   16.0988 O   0  0  0  0  0  0  0  0  0  0  0  0
   13.1881  -18.2100   17.6778 N   0  0  0  0  0  0  0  0  0  0  0  0
   14.2212  -19.1956   17.9035 C   0  0  0  0  0  0  0  0  0  0  0  0
   15.2779  -18.6933   18.7959 C   0  0  0  0  0  0  0  0  0  0  0  0
   15.2086  -18.9509   20.0230 O   0  0  0  0  0  0  0  0  0  0  0  0
   16.3549  -17.9451   18.3529 O   0  0  0  0  0  0  0  0  0  0  0  0
  2  1  1  6
  3  2  1  0
  4  6  1  0
  4  2  1  0
  4  5  1  6
  6  7  2  0
  8  9  1  0
 10  9  1  1
 11 10  1  0
 11  6  1  0
 12 14  1  0
 12 10  1  0
 13 12  2  0
 15 14  1  0
 15 16  1  0
 16 18  1  0
 17 16  2  0
M  END
$$$$
