TSG.pdb
     RDKit          3D

 18 17  0  0  1  0  0  0  0  0999 V2000
    7.2256  -14.6646   17.3547 C   0  0  0  0  0  0  0  0  0  0  0  0
    7.9020  -14.8824   18.6803 C   0  0  1  0  0  0  0  0  0  0  0  0
    9.2658  -15.0854   18.4092 O   0  0  0  0  0  0  0  0  0  0  0  0
    7.8453  -13.5769   19.4571 C   0  0  2  0  0  0  0  0  0  0  0  0
    8.5569  -12.5388   18.6637 N   0  0  0  0  0  0  0  0  0  0  0  0
    8.5571  -13.6382   20.7504 C   0  0  0  0  0  0  0  0  0  0  0  0
    9.7687  -13.2476   20.7999 O   0  0  0  0  0  0  0  0  0  0  0  0
    6.7787  -15.2117   24.1591 O   0  0  0  0  0  0  0  0  0  0  0  0
    7.8070  -14.2830   24.3307 C   0  0  0  0  0  0  0  0  0  0  0  0
    8.7748  -14.3076   23.1660 C   0  0  2  0  0  0  0  0  0  0  0  0
    8.0033  -14.0956   21.9490 N   0  0  0  0  0  0  0  0  0  0  0  0
    9.4145  -15.6591   23.1513 C   0  0  0  0  0  0  0  0  0  0  0  0
    8.8435  -16.6683   22.6451 O   0  0  0  0  0  0  0  0  0  0  0  0
   10.7070  -15.8766   23.7105 N   0  0  0  0  0  0  0  0  0  0  0  0
   11.3364  -17.1771   23.6648 C   0  0  0  0  0  0  0  0  0  0  0  0
   12.7090  -17.1452   24.1942 C   0  0  0  0  0  0  0  0  0  0  0  0
   13.5340  -16.3421   23.6928 O   0  0  0  0  0  0  0  0  0  0  0  0
   13.1453  -17.9597   25.2249 O   0  0  0  0  0  0  0  0  0  0  0  0
  2  1  1  6
  3  2  1  0
  4  6  1  0
  4  2  1  0
  4  5  1  6
  6  7  2  0
  8  9  1  0
 10  9  1  1
 11 10  1  0
 11  6  1  0
 12 14  1  0
 12 10  1  0
 13 12  2  0
 15 14  1  0
 15 16  1  0
 16 18  1  0
 17 16  2  0
M  END
$$$$
