TSG.pdb
     RDKit          3D

 18 17  0  0  1  0  0  0  0  0999 V2000
    5.8767  -18.1173   20.6718 C   0  0  0  0  0  0  0  0  0  0  0  0
    7.0847  -18.0425   19.7790 C   0  0  1  0  0  0  0  0  0  0  0  0
    6.6456  -18.3468   18.4792 O   0  0  0  0  0  0  0  0  0  0  0  0
    7.5319  -16.5911   19.7136 C   0  0  2  0  0  0  0  0  0  0  0  0
    8.6491  -16.4981   18.7355 N   0  0  0  0  0  0  0  0  0  0  0  0
    8.0863  -16.0952   20.9903 C   0  0  0  0  0  0  0  0  0  0  0  0
    9.1809  -16.5902   21.4141 O   0  0  0  0  0  0  0  0  0  0  0  0
    7.6010  -13.1017   24.8294 O   0  0  0  0  0  0  0  0  0  0  0  0
    7.2409  -13.4903   23.5375 C   0  0  0  0  0  0  0  0  0  0  0  0
    8.0225  -14.7070   23.0877 C   0  0  2  0  0  0  0  0  0  0  0  0
    7.5017  -15.1081   21.7881 N   0  0  0  0  0  0  0  0  0  0  0  0
    7.7879  -15.7822   24.1000 C   0  0  0  0  0  0  0  0  0  0  0  0
    6.6597  -16.3367   24.2435 O   0  0  0  0  0  0  0  0  0  0  0  0
    8.8310  -16.2372   24.9576 N   0  0  0  0  0  0  0  0  0  0  0  0
    8.5843  -17.2281   25.9808 C   0  0  0  0  0  0  0  0  0  0  0  0
    9.7915  -17.5192   26.7701 C   0  0  0  0  0  0  0  0  0  0  0  0
   10.8899  -17.0370   26.3988 O   0  0  0  0  0  0  0  0  0  0  0  0
    9.7831  -18.3031   27.9109 O   0  0  0  0  0  0  0  0  0  0  0  0
  2  1  1  1
  3  2  1  0
  4  6  1  0
  4  2  1  0
  4  5  1  6
  6  7  2  0
  8  9  1  0
 10  9  1  1
 11 10  1  0
 11  6  1  0
 12 14  1  0
 12 10  1  0
 13 12  2  0
 15 14  1  0
 15 16  1  0
 16 18  1  0
 17 16  2  0
M  END
$$$$
