TSG.pdb
     RDKit          3D

 18 17  0  0  1  0  0  0  0  0999 V2000
   11.9885  -19.3349   17.6646 C   0  0  0  0  0  0  0  0  0  0  0  0
   11.0902  -18.2238   17.1947 C   0  0  1  0  0  0  0  0  0  0  0  0
   11.2066  -18.1753   15.7951 O   0  0  0  0  0  0  0  0  0  0  0  0
    9.6517  -18.6400   17.4557 C   0  0  2  0  0  0  0  0  0  0  0  0
    8.7596  -17.6210   16.8400 N   0  0  0  0  0  0  0  0  0  0  0  0
    9.3010  -18.6520   18.8910 C   0  0  0  0  0  0  0  0  0  0  0  0
    9.0740  -17.5421   19.4736 O   0  0  0  0  0  0  0  0  0  0  0  0
    6.7587  -20.5267   21.1864 O   0  0  0  0  0  0  0  0  0  0  0  0
    8.0726  -20.8729   21.5075 C   0  0  0  0  0  0  0  0  0  0  0  0
    9.0429  -19.7736   21.1284 C   0  0  2  0  0  0  0  0  0  0  0  0
    9.1931  -19.8002   19.6800 N   0  0  0  0  0  0  0  0  0  0  0  0
   10.3448  -20.0837   21.7953 C   0  0  0  0  0  0  0  0  0  0  0  0
   11.3261  -20.5704   21.1619 O   0  0  0  0  0  0  0  0  0  0  0  0
   10.5443  -19.8443   23.1858 N   0  0  0  0  0  0  0  0  0  0  0  0
   11.8398  -20.0244   23.8012 C   0  0  0  0  0  0  0  0  0  0  0  0
   11.8657  -19.5321   25.1876 C   0  0  0  0  0  0  0  0  0  0  0  0
   10.8453  -18.9639   25.6487 O   0  0  0  0  0  0  0  0  0  0  0  0
   12.9640  -19.6622   26.0200 O   0  0  0  0  0  0  0  0  0  0  0  0
  2  1  1  6
  3  2  1  0
  4  6  1  0
  4  2  1  0
  4  5  1  6
  6  7  2  0
  8  9  1  0
 10  9  1  6
 11 10  1  0
 11  6  1  0
 12 14  1  0
 12 10  1  0
 13 12  2  0
 15 14  1  0
 15 16  1  0
 16 18  1  0
 17 16  2  0
M  END
$$$$
