TSG.pdb
     RDKit          3D

 18 17  0  0  1  0  0  0  0  0999 V2000
   -4.5178  -25.6360   24.3430 C   0  0  0  0  0  0  0  0  0  0  0  0
   -3.3934  -26.3013   25.0881 C   0  0  1  0  0  0  0  0  0  0  0  0
   -2.4613  -26.7192   24.1232 O   0  0  0  0  0  0  0  0  0  0  0  0
   -2.6712  -25.2366   25.8978 C   0  0  2  0  0  0  0  0  0  0  0  0
   -1.4769  -25.8661   26.5230 N   0  0  0  0  0  0  0  0  0  0  0  0
   -3.4749  -24.7169   27.0234 C   0  0  0  0  0  0  0  0  0  0  0  0
   -3.6351  -25.4531   28.0507 O   0  0  0  0  0  0  0  0  0  0  0  0
   -4.6390  -20.8291   27.1413 O   0  0  0  0  0  0  0  0  0  0  0  0
   -4.5989  -21.5125   28.3582 C   0  0  0  0  0  0  0  0  0  0  0  0
   -4.8931  -22.9867   28.1748 C   0  0  2  0  0  0  0  0  0  0  0  0
   -4.0855  -23.4605   27.0593 N   0  0  0  0  0  0  0  0  0  0  0  0
   -6.3489  -23.1108   27.8568 C   0  0  0  0  0  0  0  0  0  0  0  0
   -6.7883  -23.0298   26.6730 O   0  0  0  0  0  0  0  0  0  0  0  0
   -7.3180  -23.3277   28.8787 N   0  0  0  0  0  0  0  0  0  0  0  0
   -8.7176  -23.5025   28.5624 C   0  0  0  0  0  0  0  0  0  0  0  0
   -9.5225  -23.7911   29.7598 C   0  0  0  0  0  0  0  0  0  0  0  0
   -8.9349  -24.0012   30.8495 O   0  0  0  0  0  0  0  0  0  0  0  0
  -10.9056  -23.8444   29.7513 O   0  0  0  0  0  0  0  0  0  0  0  0
  2  1  1  6
  3  2  1  0
  4  6  1  0
  4  2  1  0
  4  5  1  1
  6  7  2  0
  8  9  1  0
 10  9  1  6
 11 10  1  0
 11  6  1  0
 12 14  1  0
 12 10  1  0
 13 12  2  0
 15 14  1  0
 15 16  1  0
 16 18  1  0
 17 16  2  0
M  END
$$$$
