TSG.pdb
     RDKit          3D

 18 17  0  0  1  0  0  0  0  0999 V2000
    8.3733  -19.5588   16.1036 C   0  0  0  0  0  0  0  0  0  0  0  0
    8.9421  -18.3565   16.8057 C   0  0  1  0  0  0  0  0  0  0  0  0
    8.0617  -17.2898   16.5571 O   0  0  0  0  0  0  0  0  0  0  0  0
    8.8518  -18.6003   18.3034 C   0  0  2  0  0  0  0  0  0  0  0  0
    7.4142  -18.7373   18.6609 N   0  0  0  0  0  0  0  0  0  0  0  0
    9.3496  -17.4657   19.1085 C   0  0  0  0  0  0  0  0  0  0  0  0
   10.5602  -17.0974   18.9619 O   0  0  0  0  0  0  0  0  0  0  0  0
    6.9457  -15.3956   21.8356 O   0  0  0  0  0  0  0  0  0  0  0  0
    7.9773  -14.7276   21.1730 C   0  0  0  0  0  0  0  0  0  0  0  0
    9.1235  -15.6628   20.8488 C   0  0  2  0  0  0  0  0  0  0  0  0
    8.5900  -16.7462   20.0346 N   0  0  0  0  0  0  0  0  0  0  0  0
    9.6437  -16.1913   22.1473 C   0  0  0  0  0  0  0  0  0  0  0  0
    8.9303  -16.8916   22.9228 O   0  0  0  0  0  0  0  0  0  0  0  0
   10.9770  -15.9297   22.5766 N   0  0  0  0  0  0  0  0  0  0  0  0
   11.4741  -16.4362   23.8359 C   0  0  0  0  0  0  0  0  0  0  0  0
   12.8879  -16.0897   24.0509 C   0  0  0  0  0  0  0  0  0  0  0  0
   13.5300  -15.5527   23.1149 O   0  0  0  0  0  0  0  0  0  0  0  0
   13.5560  -16.3254   25.2401 O   0  0  0  0  0  0  0  0  0  0  0  0
  2  1  1  6
  3  2  1  0
  4  6  1  0
  4  2  1  0
  4  5  1  1
  6  7  2  0
  8  9  1  0
 10  9  1  1
 11 10  1  0
 11  6  1  0
 12 14  1  0
 12 10  1  0
 13 12  2  0
 15 14  1  0
 15 16  1  0
 16 18  1  0
 17 16  2  0
M  END
$$$$
