NRQ.pdb
     RDKit          3D

 29 28  0  0  1  0  0  0  0  0999 V2000
   17.7141  -24.1662  -11.3653 N   0  0  0  0  0  0  0  0  0  0  0  0
   17.7632  -22.9088  -10.7037 C   0  0  0  0  0  0  0  0  0  0  0  0
   16.9420  -22.6040   -9.7882 O   0  0  0  0  0  0  0  0  0  0  0  0
   18.7977  -21.9100  -11.0796 C   0  0  0  0  0  0  0  0  0  0  0  0
   19.6845  -22.4469  -12.1875 C   0  0  2  0  0  0  0  0  0  0  0  0
   20.4038  -23.5737  -11.6036 N   0  0  0  0  0  0  0  0  0  0  0  0
   20.6485  -21.4298  -12.6028 C   0  0  0  0  0  0  0  0  0  0  0  0
   20.2356  -20.2788  -12.9152 O   0  0  0  0  0  0  0  0  0  0  0  0
   27.9836  -21.6710  -15.5045 N   0  0  0  0  0  0  0  0  0  0  0  0
   27.8328  -20.3094  -15.8869 C   0  0  0  0  0  0  0  0  0  0  0  0
   28.1634  -19.9618  -17.0798 N   0  0  0  0  0  0  0  0  0  0  0  0
   27.3224  -19.4003  -14.9252 N   0  0  0  0  0  0  0  0  0  0  0  0
   26.6017  -20.0166  -13.7794 C   0  0  0  0  0  0  0  0  0  0  0  0
   25.3587  -20.6528  -14.2930 C   0  0  0  0  0  0  0  0  0  0  0  0
   24.4125  -21.2060  -13.3263 C   0  0  0  0  0  0  0  0  0  0  0  0
   22.9790  -20.8710  -13.3481 C   0  0  2  0  0  0  0  0  0  0  0  0
   22.0667  -21.7136  -12.6637 N   0  0  0  0  0  0  0  0  0  0  0  0
   22.4804  -20.5284  -14.7265 C   0  0  0  0  0  0  0  0  0  0  0  0
   22.3719  -21.4673  -15.5414 O   0  0  0  0  0  0  0  0  0  0  0  0
   28.1055  -18.9706  -17.3884 N   0  0  0  0  0  0  0  0  0  0  0  0
   17.4869  -17.4035  -16.2518 C   0  0  0  0  0  0  0  0  0  0  0  0
   18.1787  -17.4799  -17.4891 O   0  0  0  0  0  0  0  0  0  0  0  0
   17.5412  -17.1439  -18.5201 C   0  0  0  0  0  0  0  0  0  0  0  0
   19.5686  -17.9257  -17.5886 C   0  0  0  0  0  0  0  0  0  0  0  0
   20.1993  -18.3922  -16.3341 C   0  0  1  0  0  0  0  0  0  0  0  0
   21.6035  -18.8952  -16.4342 N   0  0  0  0  0  0  0  0  0  0  0  0
   22.1428  -19.2094  -15.1061 C   0  0  0  0  0  0  0  0  0  0  0  0
   22.4757  -17.8638  -17.0294 O   0  0  0  0  0  0  0  0  0  0  0  0
   23.0832  -17.0643  -16.2881 O   0  0  0  0  0  0  0  0  0  0  0  0
  1  2  1  0
  2  3  2  0
  4  5  1  0
  4  2  1  0
  5  7  1  0
  5  6  1  1
  7  8  2  0
 10 12  1  0
 10  9  1  0
 11 10  2  0
 13 14  1  0
 13 12  1  0
 14 15  1  0
 16 15  1  6
 17 16  1  0
 17  7  1  0
 18 19  2  0
 18 16  1  0
 20 21  1  0
 21 22  2  0
 23 21  1  0
 23 24  1  0
 25 24  1  6
 25 27  1  0
 25 26  1  0
 26 18  1  0
 27 29  1  0
 28 27  2  0
M  END
$$$$
