NRQ.pdb
     RDKit          3D

 29 28  0  0  1  0  0  0  0  0999 V2000
   20.0088  -29.5660   -0.9737 N   0  0  0  0  0  0  0  0  0  0  0  0
   18.9286  -28.8781   -0.3566 C   0  0  0  0  0  0  0  0  0  0  0  0
   17.7651  -29.3769   -0.3001 O   0  0  0  0  0  0  0  0  0  0  0  0
   19.1472  -27.5369    0.2454 C   0  0  0  0  0  0  0  0  0  0  0  0
   18.2134  -26.5128   -0.3721 C   0  0  2  0  0  0  0  0  0  0  0  0
   18.6393  -26.3801   -1.7610 N   0  0  0  0  0  0  0  0  0  0  0  0
   18.3625  -25.2222    0.2976 C   0  0  0  0  0  0  0  0  0  0  0  0
   19.4815  -24.6391    0.2721 O   0  0  0  0  0  0  0  0  0  0  0  0
   14.1673  -22.9473   -2.2979 N   0  0  0  0  0  0  0  0  0  0  0  0
   12.9923  -22.7262   -1.5274 C   0  0  0  0  0  0  0  0  0  0  0  0
   11.9318  -23.3956   -1.8110 N   0  0  0  0  0  0  0  0  0  0  0  0
   13.0529  -21.7721   -0.4797 N   0  0  0  0  0  0  0  0  0  0  0  0
   14.4174  -21.3067   -0.1143 C   0  0  0  0  0  0  0  0  0  0  0  0
   15.1692  -22.4565    0.4569 C   0  0  0  0  0  0  0  0  0  0  0  0
   16.5195  -22.2193    0.9633 C   0  0  0  0  0  0  0  0  0  0  0  0
   17.3437  -23.2944    1.5402 C   0  0  2  0  0  0  0  0  0  0  0  0
   17.2548  -24.5980    0.9895 N   0  0  0  0  0  0  0  0  0  0  0  0
   17.2881  -23.3297    3.0441 C   0  0  0  0  0  0  0  0  0  0  0  0
   16.5113  -24.1559    3.5649 O   0  0  0  0  0  0  0  0  0  0  0  0
   11.0611  -23.2888   -1.2527 N   0  0  0  0  0  0  0  0  0  0  0  0
   21.1367  -19.9105    6.8418 C   0  0  0  0  0  0  0  0  0  0  0  0
   21.3084  -21.3059    6.6457 O   0  0  0  0  0  0  0  0  0  0  0  0
   22.4429  -21.7827    6.9062 C   0  0  0  0  0  0  0  0  0  0  0  0
   20.2324  -22.1721    6.1635 C   0  0  0  0  0  0  0  0  0  0  0  0
   18.9224  -21.5244    5.9327 C   0  0  2  0  0  0  0  0  0  0  0  0
   17.8591  -22.3643    5.3011 N   0  0  0  0  0  0  0  0  0  0  0  0
   18.0712  -22.4755    3.8533 C   0  0  0  0  0  0  0  0  0  0  0  0
   16.5326  -21.7496    5.5046 O   0  0  0  0  0  0  0  0  0  0  0  0
   16.0145  -21.7578    6.6401 O   0  0  0  0  0  0  0  0  0  0  0  0
  1  2  1  0
  2  3  2  0
  4  5  1  0
  4  2  1  0
  5  7  1  0
  5  6  1  6
  7  8  2  0
 10 12  1  0
 10  9  1  0
 11 10  2  0
 13 14  1  0
 13 12  1  0
 14 15  1  0
 16 15  1  6
 17 16  1  0
 17  7  1  0
 18 19  2  0
 18 16  1  0
 20 21  1  0
 21 22  2  0
 23 21  1  0
 23 24  1  0
 25 24  1  1
 25 27  1  0
 25 26  1  0
 26 18  1  0
 27 29  1  0
 28 27  2  0
M  END
$$$$
