NRQ.pdb
     RDKit          3D

 29 28  0  0  1  0  0  0  0  0999 V2000
   19.1700  -23.4263  -10.4995 N   0  0  0  0  0  0  0  0  0  0  0  0
   18.6930  -22.8723  -11.7188 C   0  0  0  0  0  0  0  0  0  0  0  0
   17.6337  -23.2921  -12.2731 O   0  0  0  0  0  0  0  0  0  0  0  0
   19.4409  -21.7702  -12.3783 C   0  0  0  0  0  0  0  0  0  0  0  0
   20.6382  -21.3585  -11.5421 C   0  0  2  0  0  0  0  0  0  0  0  0
   20.1055  -20.5015  -10.4886 N   0  0  0  0  0  0  0  0  0  0  0  0
   21.5810  -20.5889  -12.3514 C   0  0  0  0  0  0  0  0  0  0  0  0
   21.3393  -19.3738  -12.5925 O   0  0  0  0  0  0  0  0  0  0  0  0
   28.0481  -20.8963  -17.1501 N   0  0  0  0  0  0  0  0  0  0  0  0
   27.8225  -22.1125  -16.4479 C   0  0  0  0  0  0  0  0  0  0  0  0
   27.8494  -23.2187  -17.1026 N   0  0  0  0  0  0  0  0  0  0  0  0
   27.5780  -22.0403  -15.0526 N   0  0  0  0  0  0  0  0  0  0  0  0
   27.5155  -20.6678  -14.4828 C   0  0  0  0  0  0  0  0  0  0  0  0
   26.1058  -20.1963  -14.5454 C   0  0  0  0  0  0  0  0  0  0  0  0
   25.1138  -20.8625  -13.7038 C   0  0  0  0  0  0  0  0  0  0  0  0
   23.6949  -20.4698  -13.6991 C   0  0  2  0  0  0  0  0  0  0  0  0
   22.7862  -21.1896  -12.8825 N   0  0  0  0  0  0  0  0  0  0  0  0
   23.1418  -20.2626  -15.0837 C   0  0  0  0  0  0  0  0  0  0  0  0
   22.6115  -21.2473  -15.6372 O   0  0  0  0  0  0  0  0  0  0  0  0
   27.7070  -24.1315  -16.6255 N   0  0  0  0  0  0  0  0  0  0  0  0
   21.3710  -14.5357  -17.4008 C   0  0  0  0  0  0  0  0  0  0  0  0
   21.0079  -15.4795  -18.3971 O   0  0  0  0  0  0  0  0  0  0  0  0
   20.3886  -15.0399  -19.3999 C   0  0  0  0  0  0  0  0  0  0  0  0
   21.3266  -16.9032  -18.2873 C   0  0  0  0  0  0  0  0  0  0  0  0
   22.0420  -17.3227  -17.0621 C   0  0  1  0  0  0  0  0  0  0  0  0
   22.4620  -18.7554  -16.9860 N   0  0  0  0  0  0  0  0  0  0  0  0
   23.2072  -19.0174  -15.7493 C   0  0  0  0  0  0  0  0  0  0  0  0
   23.3533  -19.0884  -18.1145 O   0  0  0  0  0  0  0  0  0  0  0  0
   24.5822  -18.8966  -18.0098 O   0  0  0  0  0  0  0  0  0  0  0  0
  1  2  1  0
  2  3  2  0
  4  5  1  0
  4  2  1  0
  5  7  1  0
  5  6  1  1
  7  8  2  0
 10 12  1  0
 10  9  1  0
 11 10  2  0
 13 14  1  0
 13 12  1  0
 14 15  1  0
 16 15  1  6
 17 16  1  0
 17  7  1  0
 18 19  2  0
 18 16  1  0
 20 21  1  0
 21 22  2  0
 23 21  1  0
 23 24  1  0
 25 24  1  1
 25 27  1  0
 25 26  1  0
 26 18  1  0
 27 29  1  0
 28 27  2  0
M  END
$$$$
