NRQ.pdb
     RDKit          3D

 29 28  0  0  1  0  0  0  0  0999 V2000
   24.2041  -10.3579  -16.9002 N   0  0  0  0  0  0  0  0  0  0  0  0
   24.2154  -10.9795  -15.6217 C   0  0  0  0  0  0  0  0  0  0  0  0
   24.9805  -11.9553  -15.3610 O   0  0  0  0  0  0  0  0  0  0  0  0
   23.3143  -10.4875  -14.5470 C   0  0  0  0  0  0  0  0  0  0  0  0
   22.4978   -9.3039  -15.0313 C   0  0  2  0  0  0  0  0  0  0  0  0
   23.3388   -8.1318  -14.8148 N   0  0  0  0  0  0  0  0  0  0  0  0
   21.2791   -9.1695  -14.2357 C   0  0  0  0  0  0  0  0  0  0  0  0
   20.5421  -10.1789  -14.0600 O   0  0  0  0  0  0  0  0  0  0  0  0
   18.0578   -3.4496   -8.1576 N   0  0  0  0  0  0  0  0  0  0  0  0
   16.8861   -3.9304   -8.8049 C   0  0  0  0  0  0  0  0  0  0  0  0
   15.7572   -3.3804   -8.5288 N   0  0  0  0  0  0  0  0  0  0  0  0
   17.0258   -4.9989   -9.7271 N   0  0  0  0  0  0  0  0  0  0  0  0
   18.4220   -5.3293  -10.1190 C   0  0  0  0  0  0  0  0  0  0  0  0
   18.3779   -6.3501  -11.2004 C   0  0  0  0  0  0  0  0  0  0  0  0
   19.6254   -6.6962  -11.8785 C   0  0  0  0  0  0  0  0  0  0  0  0
   19.6948   -7.7410  -12.9136 C   0  0  2  0  0  0  0  0  0  0  0  0
   20.8988   -7.9041  -13.6446 N   0  0  0  0  0  0  0  0  0  0  0  0
   18.4962   -7.7411  -13.8243 C   0  0  0  0  0  0  0  0  0  0  0  0
   18.4142   -6.8145  -14.6560 O   0  0  0  0  0  0  0  0  0  0  0  0
   14.8819   -3.6765   -9.0057 N   0  0  0  0  0  0  0  0  0  0  0  0
   15.2842  -12.8463  -15.7900 C   0  0  0  0  0  0  0  0  0  0  0  0
   14.2817  -11.9114  -15.4213 O   0  0  0  0  0  0  0  0  0  0  0  0
   13.0933  -12.3238  -15.4126 C   0  0  0  0  0  0  0  0  0  0  0  0
   14.5890  -10.5264  -15.0637 C   0  0  0  0  0  0  0  0  0  0  0  0
   16.0168  -10.1406  -15.1013 C   0  0  1  0  0  0  0  0  0  0  0  0
   16.3477   -8.7458  -14.6768 N   0  0  0  0  0  0  0  0  0  0  0  0
   17.4940   -8.7357  -13.7606 C   0  0  0  0  0  0  0  0  0  0  0  0
   15.2066   -8.1448  -13.9589 O   0  0  0  0  0  0  0  0  0  0  0  0
   15.1004   -8.3005  -12.7251 O   0  0  0  0  0  0  0  0  0  0  0  0
  1  2  1  0
  2  3  2  0
  4  5  1  0
  4  2  1  0
  5  7  1  0
  5  6  1  1
  7  8  2  0
 10 12  1  0
 10  9  1  0
 11 10  2  0
 13 14  1  0
 13 12  1  0
 14 15  1  0
 16 15  1  6
 17 16  1  0
 17  7  1  0
 18 19  2  0
 18 16  1  0
 20 21  1  0
 21 22  2  0
 23 21  1  0
 23 24  1  0
 25 24  1  6
 25 27  1  0
 25 26  1  0
 26 18  1  0
 27 29  1  0
 28 27  2  0
M  END
$$$$
