NRQ.pdb
     RDKit          3D

 29 28  0  0  1  0  0  0  0  0999 V2000
   27.0291  -15.1148  -16.4814 N   0  0  0  0  0  0  0  0  0  0  0  0
   25.9966  -15.6796  -17.2788 C   0  0  0  0  0  0  0  0  0  0  0  0
   25.5637  -15.0994  -18.3188 O   0  0  0  0  0  0  0  0  0  0  0  0
   25.3945  -16.9851  -16.9014 C   0  0  0  0  0  0  0  0  0  0  0  0
   23.9473  -17.0587  -17.3513 C   0  0  2  0  0  0  0  0  0  0  0  0
   23.2795  -15.9303  -16.7121 N   0  0  0  0  0  0  0  0  0  0  0  0
   23.3346  -18.3013  -16.8856 C   0  0  0  0  0  0  0  0  0  0  0  0
   23.7209  -19.4001  -17.3715 O   0  0  0  0  0  0  0  0  0  0  0  0
   25.7005  -21.6229  -11.0086 N   0  0  0  0  0  0  0  0  0  0  0  0
   24.5287  -21.2896  -10.2745 C   0  0  0  0  0  0  0  0  0  0  0  0
   24.6533  -20.8906   -9.0586 N   0  0  0  0  0  0  0  0  0  0  0  0
   23.2758  -21.4160  -10.9271 N   0  0  0  0  0  0  0  0  0  0  0  0
   22.9011  -20.2871  -11.8200 C   0  0  0  0  0  0  0  0  0  0  0  0
   23.8428  -20.2659  -12.9717 C   0  0  0  0  0  0  0  0  0  0  0  0
   23.6359  -19.2668  -14.0182 C   0  0  0  0  0  0  0  0  0  0  0  0
   22.3534  -19.1238  -14.7270 C   0  0  2  0  0  0  0  0  0  0  0  0
   22.2942  -18.2993  -15.8791 N   0  0  0  0  0  0  0  0  0  0  0  0
   21.2003  -18.8517  -13.7984 C   0  0  0  0  0  0  0  0  0  0  0  0
   21.2871  -17.8469  -13.0635 O   0  0  0  0  0  0  0  0  0  0  0  0
   23.8237  -20.6282   -8.4893 N   0  0  0  0  0  0  0  0  0  0  0  0
   19.2659  -18.8949  -18.7522 C   0  0  0  0  0  0  0  0  0  0  0  0
   18.1085  -18.4024  -18.0940 O   0  0  0  0  0  0  0  0  0  0  0  0
   17.2378  -17.8467  -18.8119 C   0  0  0  0  0  0  0  0  0  0  0  0
   17.9127  -18.5223  -16.6491 C   0  0  0  0  0  0  0  0  0  0  0  0
   19.0350  -19.1050  -15.8811 C   0  0  2  0  0  0  0  0  0  0  0  0
   18.8053  -19.3300  -14.4211 N   0  0  0  0  0  0  0  0  0  0  0  0
   20.0579  -19.6821  -13.7425 C   0  0  0  0  0  0  0  0  0  0  0  0
   17.8656  -20.4499  -14.2172 O   0  0  0  0  0  0  0  0  0  0  0  0
   18.2369  -21.6190  -14.4481 O   0  0  0  0  0  0  0  0  0  0  0  0
  1  2  1  0
  2  3  2  0
  4  5  1  0
  4  2  1  0
  5  7  1  0
  5  6  1  1
  7  8  2  0
 10 12  1  0
 10  9  1  0
 11 10  2  0
 13 14  1  0
 13 12  1  0
 14 15  1  0
 16 15  1  1
 17 16  1  0
 17  7  1  0
 18 19  2  0
 18 16  1  0
 20 21  1  0
 21 22  2  0
 23 21  1  0
 23 24  1  0
 25 24  1  1
 25 27  1  0
 25 26  1  0
 26 18  1  0
 27 29  1  0
 28 27  2  0
M  END
$$$$
