NRQ.pdb
     RDKit          3D

 29 28  0  0  1  0  0  0  0  0999 V2000
   27.6908  -21.3880  -15.1229 N   0  0  0  0  0  0  0  0  0  0  0  0
   26.9361  -20.2102  -15.3766 C   0  0  0  0  0  0  0  0  0  0  0  0
   27.4818  -19.1443  -15.7908 O   0  0  0  0  0  0  0  0  0  0  0  0
   25.4661  -20.2067  -15.1571 C   0  0  0  0  0  0  0  0  0  0  0  0
   24.9884  -21.5723  -14.7001 C   0  0  2  0  0  0  0  0  0  0  0  0
   25.1259  -22.4452  -15.8608 N   0  0  0  0  0  0  0  0  0  0  0  0
   23.5804  -21.5131  -14.3124 C   0  0  0  0  0  0  0  0  0  0  0  0
   22.7008  -21.3544  -15.2036 O   0  0  0  0  0  0  0  0  0  0  0  0
   18.6912  -24.2248   -7.3544 N   0  0  0  0  0  0  0  0  0  0  0  0
   17.7310  -23.6800   -8.2512 C   0  0  0  0  0  0  0  0  0  0  0  0
   16.4827  -23.7960   -7.9659 N   0  0  0  0  0  0  0  0  0  0  0  0
   18.2046  -23.0333   -9.4214 N   0  0  0  0  0  0  0  0  0  0  0  0
   19.6745  -23.0969   -9.6388 C   0  0  0  0  0  0  0  0  0  0  0  0
   19.9907  -22.4088  -10.9195 C   0  0  0  0  0  0  0  0  0  0  0  0
   21.3891  -22.3286  -11.3367 C   0  0  0  0  0  0  0  0  0  0  0  0
   21.8116  -21.5820  -12.5333 C   0  0  2  0  0  0  0  0  0  0  0  0
   23.1724  -21.6324  -12.9287 N   0  0  0  0  0  0  0  0  0  0  0  0
   21.2856  -20.1718  -12.5576 C   0  0  0  0  0  0  0  0  0  0  0  0
   21.7840  -19.3651  -11.7463 O   0  0  0  0  0  0  0  0  0  0  0  0
   15.7464  -23.4736   -8.6255 N   0  0  0  0  0  0  0  0  0  0  0  0
   21.2340  -16.2051  -17.0150 C   0  0  0  0  0  0  0  0  0  0  0  0
   20.2788  -15.6197  -16.1430 O   0  0  0  0  0  0  0  0  0  0  0  0
   19.8399  -14.4839  -16.4587 C   0  0  0  0  0  0  0  0  0  0  0  0
   19.8100  -16.2847  -14.9272 C   0  0  0  0  0  0  0  0  0  0  0  0
   20.3201  -17.6530  -14.6896 C   0  0  1  0  0  0  0  0  0  0  0  0
   19.7908  -18.3687  -13.4885 N   0  0  0  0  0  0  0  0  0  0  0  0
   20.2725  -19.7543  -13.4504 C   0  0  0  0  0  0  0  0  0  0  0  0
   18.3161  -18.4176  -13.5301 O   0  0  0  0  0  0  0  0  0  0  0  0
   17.6536  -17.4241  -13.1671 O   0  0  0  0  0  0  0  0  0  0  0  0
  1  2  1  0
  2  3  2  0
  4  5  1  0
  4  2  1  0
  5  7  1  0
  5  6  1  6
  7  8  2  0
 10 12  1  0
 10  9  1  0
 11 10  2  0
 13 14  1  0
 13 12  1  0
 14 15  1  0
 16 15  1  1
 17 16  1  0
 17  7  1  0
 18 19  2  0
 18 16  1  0
 20 21  1  0
 21 22  2  0
 23 21  1  0
 23 24  1  0
 25 24  1  1
 25 27  1  0
 25 26  1  0
 26 18  1  0
 27 29  1  0
 28 27  2  0
M  END
$$$$
