NRQ.pdb
     RDKit          3D

 29 28  0  0  1  0  0  0  0  0999 V2000
   29.1052  -20.9400  -18.3815 N   0  0  0  0  0  0  0  0  0  0  0  0
   27.9906  -20.0698  -18.2354 C   0  0  0  0  0  0  0  0  0  0  0  0
   27.8478  -19.0408  -18.9609 O   0  0  0  0  0  0  0  0  0  0  0  0
   26.9526  -20.3556  -17.2107 C   0  0  0  0  0  0  0  0  0  0  0  0
   27.3606  -21.5351  -16.3480 C   0  0  2  0  0  0  0  0  0  0  0  0
   27.1117  -22.7208  -17.1605 N   0  0  0  0  0  0  0  0  0  0  0  0
   26.5289  -21.5968  -15.1477 C   0  0  0  0  0  0  0  0  0  0  0  0
   25.4477  -22.2471  -15.1785 O   0  0  0  0  0  0  0  0  0  0  0  0
   27.5385  -19.7271   -6.4399 N   0  0  0  0  0  0  0  0  0  0  0  0
   26.2674  -20.3612   -6.5135 C   0  0  0  0  0  0  0  0  0  0  0  0
   25.6315  -20.6002   -5.4219 N   0  0  0  0  0  0  0  0  0  0  0  0
   25.7650  -20.6988   -7.7962 N   0  0  0  0  0  0  0  0  0  0  0  0
   26.6861  -20.4382   -8.9346 C   0  0  0  0  0  0  0  0  0  0  0  0
   25.9882  -20.8025  -10.1970 C   0  0  0  0  0  0  0  0  0  0  0  0
   26.7454  -20.7554  -11.4463 C   0  0  0  0  0  0  0  0  0  0  0  0
   26.1089  -20.9482  -12.7598 C   0  0  2  0  0  0  0  0  0  0  0  0
   26.9180  -20.9282  -13.9241 N   0  0  0  0  0  0  0  0  0  0  0  0
   24.8715  -20.1096  -12.9378 C   0  0  0  0  0  0  0  0  0  0  0  0
   25.0336  -18.8806  -13.0816 O   0  0  0  0  0  0  0  0  0  0  0  0
   24.7204  -21.1012   -5.4271 N   0  0  0  0  0  0  0  0  0  0  0  0
   21.2901  -20.1853  -17.5013 C   0  0  0  0  0  0  0  0  0  0  0  0
   20.4705  -19.4668  -16.5917 O   0  0  0  0  0  0  0  0  0  0  0  0
   19.4242  -18.9459  -17.0567 C   0  0  0  0  0  0  0  0  0  0  0  0
   20.8043  -19.3231  -15.1745 C   0  0  0  0  0  0  0  0  0  0  0  0
   22.0615  -19.9630  -14.7285 C   0  0  1  0  0  0  0  0  0  0  0  0
   22.3853  -19.8662  -13.2723 N   0  0  0  0  0  0  0  0  0  0  0  0
   23.5720  -20.6654  -12.9458 C   0  0  0  0  0  0  0  0  0  0  0  0
   21.2673  -20.3897  -12.4632 O   0  0  0  0  0  0  0  0  0  0  0  0
   21.3279  -21.5468  -11.9993 O   0  0  0  0  0  0  0  0  0  0  0  0
  1  2  1  0
  2  3  2  0
  4  5  1  0
  4  2  1  0
  5  7  1  0
  5  6  1  6
  7  8  2  0
 10 12  1  0
 10  9  1  0
 11 10  2  0
 13 14  1  0
 13 12  1  0
 14 15  1  0
 16 15  1  1
 17 16  1  0
 17  7  1  0
 18 19  2  0
 18 16  1  0
 20 21  1  0
 21 22  2  0
 23 21  1  0
 23 24  1  0
 25 24  1  6
 25 27  1  0
 25 26  1  0
 26 18  1  0
 27 29  1  0
 28 27  2  0
M  END
$$$$
