NRQ.pdb
     RDKit          3D

 29 28  0  0  1  0  0  0  0  0999 V2000
   25.7909  -23.5021  -15.8638 N   0  0  0  0  0  0  0  0  0  0  0  0
   25.0754  -24.3618  -16.7412 C   0  0  0  0  0  0  0  0  0  0  0  0
   25.4326  -24.5340  -17.9447 O   0  0  0  0  0  0  0  0  0  0  0  0
   23.8735  -25.0885  -16.2549 C   0  0  0  0  0  0  0  0  0  0  0  0
   23.6706  -24.8564  -14.7693 C   0  0  2  0  0  0  0  0  0  0  0  0
   24.7298  -25.6089  -14.1060 N   0  0  0  0  0  0  0  0  0  0  0  0
   22.3748  -25.3838  -14.3464 C   0  0  0  0  0  0  0  0  0  0  0  0
   21.3488  -25.1258  -15.0347 O   0  0  0  0  0  0  0  0  0  0  0  0
   22.9565  -32.2570  -11.8714 N   0  0  0  0  0  0  0  0  0  0  0  0
   23.0544  -31.2797  -10.8427 C   0  0  0  0  0  0  0  0  0  0  0  0
   24.1200  -31.2429  -10.1240 N   0  0  0  0  0  0  0  0  0  0  0  0
   21.9637  -30.3911  -10.6624 N   0  0  0  0  0  0  0  0  0  0  0  0
   20.8963  -30.4684  -11.6953 C   0  0  0  0  0  0  0  0  0  0  0  0
   20.9972  -29.2666  -12.5666 C   0  0  0  0  0  0  0  0  0  0  0  0
   20.9606  -27.9484  -11.9366 C   0  0  0  0  0  0  0  0  0  0  0  0
   20.9914  -26.7014  -12.7188 C   0  0  2  0  0  0  0  0  0  0  0  0
   22.2421  -26.1956  -13.1552 N   0  0  0  0  0  0  0  0  0  0  0  0
   20.1398  -25.6147  -12.1189 C   0  0  0  0  0  0  0  0  0  0  0  0
   20.5498  -25.0882  -11.0644 O   0  0  0  0  0  0  0  0  0  0  0  0
   24.2430  -30.5292   -9.3779 N   0  0  0  0  0  0  0  0  0  0  0  0
   15.9259  -22.1841  -15.4209 C   0  0  0  0  0  0  0  0  0  0  0  0
   17.1664  -21.6523  -14.9811 O   0  0  0  0  0  0  0  0  0  0  0  0
   17.6081  -20.6499  -15.5995 C   0  0  0  0  0  0  0  0  0  0  0  0
   17.9172  -22.2245  -13.8633 C   0  0  0  0  0  0  0  0  0  0  0  0
   17.3281  -23.4201  -13.2211 C   0  0  2  0  0  0  0  0  0  0  0  0
   18.1413  -24.0794  -12.1538 N   0  0  0  0  0  0  0  0  0  0  0  0
   18.9254  -25.1908  -12.7047 C   0  0  0  0  0  0  0  0  0  0  0  0
   17.2597  -24.6389  -11.1105 O   0  0  0  0  0  0  0  0  0  0  0  0
   16.9492  -25.8473  -11.1455 O   0  0  0  0  0  0  0  0  0  0  0  0
  1  2  1  0
  2  3  2  0
  4  5  1  0
  4  2  1  0
  5  7  1  0
  5  6  1  1
  7  8  2  0
 10 12  1  0
 10  9  1  0
 11 10  2  0
 13 14  1  0
 13 12  1  0
 14 15  1  0
 16 15  1  1
 17 16  1  0
 17  7  1  0
 18 19  2  0
 18 16  1  0
 20 21  1  0
 21 22  2  0
 23 21  1  0
 23 24  1  0
 25 24  1  6
 25 27  1  0
 25 26  1  0
 26 18  1  0
 27 29  1  0
 28 27  2  0
M  END
$$$$
