NRQ.pdb
     RDKit          3D

 29 28  0  0  1  0  0  0  0  0999 V2000
   27.3632  -15.2570  -16.7542 N   0  0  0  0  0  0  0  0  0  0  0  0
   26.1033  -15.9129  -16.6973 C   0  0  0  0  0  0  0  0  0  0  0  0
   25.0983  -15.4843  -17.3390 O   0  0  0  0  0  0  0  0  0  0  0  0
   25.9379  -17.1362  -15.8694 C   0  0  0  0  0  0  0  0  0  0  0  0
   26.9774  -18.1782  -16.2379 C   0  0  2  0  0  0  0  0  0  0  0  0
   26.5255  -18.7548  -17.4994 N   0  0  0  0  0  0  0  0  0  0  0  0
   27.0236  -19.2289  -15.2230 C   0  0  0  0  0  0  0  0  0  0  0  0
   26.0708  -20.0528  -15.1435 O   0  0  0  0  0  0  0  0  0  0  0  0
   33.3013  -21.7805   -9.8263 N   0  0  0  0  0  0  0  0  0  0  0  0
   32.8676  -22.4940  -10.9778 C   0  0  0  0  0  0  0  0  0  0  0  0
   33.6938  -23.2880  -11.5609 N   0  0  0  0  0  0  0  0  0  0  0  0
   31.5372  -22.2902  -11.4254 N   0  0  0  0  0  0  0  0  0  0  0  0
   30.6799  -21.4648  -10.5333 C   0  0  0  0  0  0  0  0  0  0  0  0
   29.3700  -21.2513  -11.2056 C   0  0  0  0  0  0  0  0  0  0  0  0
   29.3427  -20.4656  -12.4376 C   0  0  0  0  0  0  0  0  0  0  0  0
   28.0926  -20.1793  -13.1608 C   0  0  2  0  0  0  0  0  0  0  0  0
   28.1382  -19.3454  -14.3068 N   0  0  0  0  0  0  0  0  0  0  0  0
   26.9639  -19.7898  -12.2441 C   0  0  0  0  0  0  0  0  0  0  0  0
   26.9042  -18.5941  -11.8921 O   0  0  0  0  0  0  0  0  0  0  0  0
   33.4105  -23.8468  -12.3907 N   0  0  0  0  0  0  0  0  0  0  0  0
   21.0433  -21.7478  -12.5433 C   0  0  0  0  0  0  0  0  0  0  0  0
   21.0794  -20.8743  -11.4248 O   0  0  0  0  0  0  0  0  0  0  0  0
   19.9744  -20.5520  -10.9175 C   0  0  0  0  0  0  0  0  0  0  0  0
   22.3301  -20.3580  -10.8682 C   0  0  0  0  0  0  0  0  0  0  0  0
   23.5689  -20.7206  -11.5913 C   0  0  2  0  0  0  0  0  0  0  0  0
   24.8605  -20.3135  -10.9581 N   0  0  0  0  0  0  0  0  0  0  0  0
   26.0008  -20.7185  -11.7882 C   0  0  0  0  0  0  0  0  0  0  0  0
   25.0172  -20.9711   -9.6459 O   0  0  0  0  0  0  0  0  0  0  0  0
   24.3760  -20.5489   -8.6618 O   0  0  0  0  0  0  0  0  0  0  0  0
  1  2  1  0
  2  3  2  0
  4  5  1  0
  4  2  1  0
  5  7  1  0
  5  6  1  6
  7  8  2  0
 10 12  1  0
 10  9  1  0
 11 10  2  0
 13 14  1  0
 13 12  1  0
 14 15  1  0
 16 15  1  1
 17 16  1  0
 17  7  1  0
 18 19  2  0
 18 16  1  0
 20 21  1  0
 21 22  2  0
 23 21  1  0
 23 24  1  0
 25 24  1  6
 25 27  1  0
 25 26  1  0
 26 18  1  0
 27 29  1  0
 28 27  2  0
M  END
$$$$
