NRQ.pdb
     RDKit          3D

 29 28  0  0  1  0  0  0  0  0999 V2000
   25.6447  -15.7635  -18.5064 N   0  0  0  0  0  0  0  0  0  0  0  0
   24.4850  -16.3471  -17.9271 C   0  0  0  0  0  0  0  0  0  0  0  0
   23.4070  -15.6952  -17.7910 O   0  0  0  0  0  0  0  0  0  0  0  0
   24.5152  -17.7585  -17.4622 C   0  0  0  0  0  0  0  0  0  0  0  0
   25.9186  -18.3265  -17.5620 C   0  0  2  0  0  0  0  0  0  0  0  0
   25.9384  -19.1106  -18.7919 N   0  0  0  0  0  0  0  0  0  0  0  0
   26.1896  -19.2096  -16.4293 C   0  0  0  0  0  0  0  0  0  0  0  0
   25.5822  -20.3129  -16.3475 O   0  0  0  0  0  0  0  0  0  0  0  0
   32.3851  -23.0967  -11.9745 N   0  0  0  0  0  0  0  0  0  0  0  0
   31.8279  -22.3851  -10.8761 C   0  0  0  0  0  0  0  0  0  0  0  0
   32.4322  -22.4265   -9.7420 N   0  0  0  0  0  0  0  0  0  0  0  0
   30.6265  -21.6627  -11.0914 N   0  0  0  0  0  0  0  0  0  0  0  0
   30.4778  -21.0529  -12.4398 C   0  0  0  0  0  0  0  0  0  0  0  0
   29.1455  -20.3949  -12.5141 C   0  0  0  0  0  0  0  0  0  0  0  0
   28.7980  -19.6684  -13.7337 C   0  0  0  0  0  0  0  0  0  0  0  0
   27.4453  -19.7065  -14.3139 C   0  0  2  0  0  0  0  0  0  0  0  0
   27.1395  -18.8466  -15.3991 N   0  0  0  0  0  0  0  0  0  0  0  0
   26.3613  -19.6784  -13.2699 C   0  0  0  0  0  0  0  0  0  0  0  0
   26.1921  -18.6059  -12.6548 O   0  0  0  0  0  0  0  0  0  0  0  0
   32.0724  -21.9016   -8.9196 N   0  0  0  0  0  0  0  0  0  0  0  0
   20.8139  -22.6861  -13.3094 C   0  0  0  0  0  0  0  0  0  0  0  0
   20.8169  -21.8432  -12.1671 O   0  0  0  0  0  0  0  0  0  0  0  0
   19.7185  -21.6805  -11.5760 C   0  0  0  0  0  0  0  0  0  0  0  0
   22.0272  -21.1819  -11.6790 C   0  0  0  0  0  0  0  0  0  0  0  0
   23.2745  -21.4640  -12.4232 C   0  0  2  0  0  0  0  0  0  0  0  0
   24.5109  -20.7689  -11.9510 N   0  0  0  0  0  0  0  0  0  0  0  0
   25.5562  -20.8035  -12.9804 C   0  0  0  0  0  0  0  0  0  0  0  0
   25.0513  -21.4422  -10.7537 O   0  0  0  0  0  0  0  0  0  0  0  0
   25.9075  -22.3412  -10.8829 O   0  0  0  0  0  0  0  0  0  0  0  0
  1  2  1  0
  2  3  2  0
  4  5  1  0
  4  2  1  0
  5  7  1  0
  5  6  1  6
  7  8  2  0
 10 12  1  0
 10  9  1  0
 11 10  2  0
 13 14  1  0
 13 12  1  0
 14 15  1  0
 16 15  1  1
 17 16  1  0
 17  7  1  0
 18 19  2  0
 18 16  1  0
 20 21  1  0
 21 22  2  0
 23 21  1  0
 23 24  1  0
 25 24  1  6
 25 27  1  0
 25 26  1  0
 26 18  1  0
 27 29  1  0
 28 27  2  0
M  END
$$$$
