NRQ.pdb
     RDKit          3D

 29 28  0  0  1  0  0  0  0  0999 V2000
   27.8590  -18.7657  -17.5669 N   0  0  0  0  0  0  0  0  0  0  0  0
   27.1998  -19.5703  -16.5979 C   0  0  0  0  0  0  0  0  0  0  0  0
   27.8447  -20.2647  -15.7568 O   0  0  0  0  0  0  0  0  0  0  0  0
   25.7148  -19.6126  -16.5515 C   0  0  0  0  0  0  0  0  0  0  0  0
   25.2351  -20.8819  -15.8726 C   0  0  2  0  0  0  0  0  0  0  0  0
   25.5221  -21.9616  -16.8106 N   0  0  0  0  0  0  0  0  0  0  0  0
   23.7928  -20.8202  -15.6438 C   0  0  0  0  0  0  0  0  0  0  0  0
   23.0180  -20.6601  -16.6271 O   0  0  0  0  0  0  0  0  0  0  0  0
   18.0304  -24.2055   -9.8677 N   0  0  0  0  0  0  0  0  0  0  0  0
   17.2088  -23.5303  -10.8122 C   0  0  0  0  0  0  0  0  0  0  0  0
   15.9419  -23.7492  -10.7980 N   0  0  0  0  0  0  0  0  0  0  0  0
   17.8349  -22.6451  -11.7267 N   0  0  0  0  0  0  0  0  0  0  0  0
   19.3177  -22.5732  -11.6364 C   0  0  0  0  0  0  0  0  0  0  0  0
   19.8147  -21.7088  -12.7406 C   0  0  0  0  0  0  0  0  0  0  0  0
   21.2557  -21.6447  -12.9761 C   0  0  0  0  0  0  0  0  0  0  0  0
   21.8400  -20.8478  -14.0676 C   0  0  2  0  0  0  0  0  0  0  0  0
   23.2334  -20.9388  -14.3139 N   0  0  0  0  0  0  0  0  0  0  0  0
   21.3775  -19.4153  -14.0568 C   0  0  0  0  0  0  0  0  0  0  0  0
   21.8237  -18.6808  -13.1521 O   0  0  0  0  0  0  0  0  0  0  0  0
   15.3050  -23.2749  -11.4692 N   0  0  0  0  0  0  0  0  0  0  0  0
   21.5129  -15.2872  -18.3565 C   0  0  0  0  0  0  0  0  0  0  0  0
   21.0053  -14.5745  -17.2386 O   0  0  0  0  0  0  0  0  0  0  0  0
   20.8344  -13.3365  -17.3818 C   0  0  0  0  0  0  0  0  0  0  0  0
   20.6879  -15.2251  -15.9672 C   0  0  0  0  0  0  0  0  0  0  0  0
   20.9780  -16.6733  -15.8811 C   0  0  2  0  0  0  0  0  0  0  0  0
   20.0671  -17.4916  -15.0234 N   0  0  0  0  0  0  0  0  0  0  0  0
   20.4785  -18.9002  -15.0181 C   0  0  0  0  0  0  0  0  0  0  0  0
   18.6876  -17.4390  -15.5458 O   0  0  0  0  0  0  0  0  0  0  0  0
   18.3075  -18.2900  -16.3760 O   0  0  0  0  0  0  0  0  0  0  0  0
  1  2  1  0
  2  3  2  0
  4  5  1  0
  4  2  1  0
  5  7  1  0
  5  6  1  6
  7  8  2  0
 10 12  1  0
 10  9  1  0
 11 10  2  0
 13 14  1  0
 13 12  1  0
 14 15  1  0
 16 15  1  1
 17 16  1  0
 17  7  1  0
 18 19  2  0
 18 16  1  0
 20 21  1  0
 21 22  2  0
 23 21  1  0
 23 24  1  0
 25 24  1  1
 25 27  1  0
 25 26  1  0
 26 18  1  0
 27 29  1  0
 28 27  2  0
M  END
$$$$
