NRQ.pdb
     RDKit          3D

 29 28  0  0  1  0  0  0  0  0999 V2000
   20.2086  -21.2754  -11.8418 N   0  0  0  0  0  0  0  0  0  0  0  0
   19.4374  -20.8036  -10.7447 C   0  0  0  0  0  0  0  0  0  0  0  0
   19.4261  -19.5804  -10.4142 O   0  0  0  0  0  0  0  0  0  0  0  0
   18.6147  -21.7529   -9.9504 C   0  0  0  0  0  0  0  0  0  0  0  0
   18.8718  -23.1826  -10.3887 C   0  0  2  0  0  0  0  0  0  0  0  0
   18.2450  -23.3102  -11.6997 N   0  0  0  0  0  0  0  0  0  0  0  0
   18.2360  -24.1184   -9.4633 C   0  0  0  0  0  0  0  0  0  0  0  0
   16.9807  -24.1013   -9.3334 O   0  0  0  0  0  0  0  0  0  0  0  0
   20.9433  -31.9010   -9.6883 N   0  0  0  0  0  0  0  0  0  0  0  0
   20.6686  -31.1322  -10.8530 C   0  0  0  0  0  0  0  0  0  0  0  0
   20.8992  -31.6524  -12.0060 N   0  0  0  0  0  0  0  0  0  0  0  0
   20.1513  -29.8229  -10.6799 N   0  0  0  0  0  0  0  0  0  0  0  0
   19.8656  -29.4269   -9.2750 C   0  0  0  0  0  0  0  0  0  0  0  0
   19.3403  -28.0349   -9.2763 C   0  0  0  0  0  0  0  0  0  0  0  0
   18.9086  -27.4555   -8.0059 C   0  0  0  0  0  0  0  0  0  0  0  0
   18.4113  -26.0738   -7.8999 C   0  0  2  0  0  0  0  0  0  0  0  0
   19.0145  -25.0646   -8.6925 N   0  0  0  0  0  0  0  0  0  0  0  0
   18.2411  -25.6224   -6.4739 C   0  0  0  0  0  0  0  0  0  0  0  0
   19.2558  -25.1917   -5.8891 O   0  0  0  0  0  0  0  0  0  0  0  0
   20.8331  -31.0868  -12.8759 N   0  0  0  0  0  0  0  0  0  0  0  0
   12.8347  -23.4571   -3.8176 C   0  0  0  0  0  0  0  0  0  0  0  0
   13.8075  -23.4212   -2.7843 O   0  0  0  0  0  0  0  0  0  0  0  0
   13.4566  -22.9125   -1.6887 C   0  0  0  0  0  0  0  0  0  0  0  0
   15.1626  -23.9442   -2.9594 C   0  0  0  0  0  0  0  0  0  0  0  0
   15.4841  -24.5001   -4.2923 C   0  0  1  0  0  0  0  0  0  0  0  0
   16.8226  -25.1483   -4.4453 N   0  0  0  0  0  0  0  0  0  0  0  0
   16.9974  -25.6734   -5.8044 C   0  0  0  0  0  0  0  0  0  0  0  0
   16.9493  -26.2872   -3.5149 O   0  0  0  0  0  0  0  0  0  0  0  0
   16.6215  -27.4317   -3.8897 O   0  0  0  0  0  0  0  0  0  0  0  0
  1  2  1  0
  2  3  2  0
  4  5  1  0
  4  2  1  0
  5  7  1  0
  5  6  1  6
  7  8  2  0
 10 12  1  0
 10  9  1  0
 11 10  2  0
 13 14  1  0
 13 12  1  0
 14 15  1  0
 16 15  1  1
 17 16  1  0
 17  7  1  0
 18 19  2  0
 18 16  1  0
 20 21  1  0
 21 22  2  0
 23 21  1  0
 23 24  1  0
 25 24  1  6
 25 27  1  0
 25 26  1  0
 26 18  1  0
 27 29  1  0
 28 27  2  0
M  END
$$$$
