NRQ.pdb
     RDKit          3D

 29 28  0  0  1  0  0  0  0  0999 V2000
   28.3208  -19.8464  -18.2310 N   0  0  0  0  0  0  0  0  0  0  0  0
   27.0114  -20.1187  -18.7130 C   0  0  0  0  0  0  0  0  0  0  0  0
   26.6958  -19.9364  -19.9265 O   0  0  0  0  0  0  0  0  0  0  0  0
   25.9690  -20.6322  -17.7862 C   0  0  0  0  0  0  0  0  0  0  0  0
   26.5155  -20.7487  -16.3755 C   0  0  2  0  0  0  0  0  0  0  0  0
   27.4924  -21.8310  -16.4209 N   0  0  0  0  0  0  0  0  0  0  0  0
   25.4467  -21.1100  -15.4463 C   0  0  0  0  0  0  0  0  0  0  0  0
   24.6219  -22.0077  -15.7729 O   0  0  0  0  0  0  0  0  0  0  0  0
   27.7125  -22.5856  -10.3968 N   0  0  0  0  0  0  0  0  0  0  0  0
   28.4324  -21.4582   -9.9135 C   0  0  0  0  0  0  0  0  0  0  0  0
   29.7151  -21.5233   -9.8525 N   0  0  0  0  0  0  0  0  0  0  0  0
   27.6922  -20.3137   -9.5213 N   0  0  0  0  0  0  0  0  0  0  0  0
   26.2307  -20.3718   -9.7912 C   0  0  0  0  0  0  0  0  0  0  0  0
   26.0306  -20.6765  -11.2336 C   0  0  0  0  0  0  0  0  0  0  0  0
   24.6684  -20.6618  -11.7629 C   0  0  0  0  0  0  0  0  0  0  0  0
   24.3752  -20.8916  -13.1873 C   0  0  2  0  0  0  0  0  0  0  0  0
   25.3133  -20.4608  -14.1594 N   0  0  0  0  0  0  0  0  0  0  0  0
   22.9729  -20.4965  -13.5659 C   0  0  0  0  0  0  0  0  0  0  0  0
   22.7742  -19.2943  -13.8352 O   0  0  0  0  0  0  0  0  0  0  0  0
   30.2817  -20.7124   -9.5321 N   0  0  0  0  0  0  0  0  0  0  0  0
   17.7842  -24.4256  -14.0167 C   0  0  0  0  0  0  0  0  0  0  0  0
   17.3211  -23.1117  -14.2896 O   0  0  0  0  0  0  0  0  0  0  0  0
   16.1055  -22.9864  -14.5877 C   0  0  0  0  0  0  0  0  0  0  0  0
   18.1960  -21.9404  -14.2343 C   0  0  0  0  0  0  0  0  0  0  0  0
   19.6063  -22.1919  -13.8644 C   0  0  2  0  0  0  0  0  0  0  0  0
   20.5269  -21.0143  -13.8846 N   0  0  0  0  0  0  0  0  0  0  0  0
   21.9104  -21.4270  -13.6219 C   0  0  0  0  0  0  0  0  0  0  0  0
   20.1489  -20.0506  -12.8324 O   0  0  0  0  0  0  0  0  0  0  0  0
   20.5832  -20.1998  -11.6718 O   0  0  0  0  0  0  0  0  0  0  0  0
  1  2  1  0
  2  3  2  0
  4  5  1  0
  4  2  1  0
  5  7  1  0
  5  6  1  6
  7  8  2  0
 10 12  1  0
 10  9  1  0
 11 10  2  0
 13 14  1  0
 13 12  1  0
 14 15  1  0
 16 15  1  1
 17 16  1  0
 17  7  1  0
 18 19  2  0
 18 16  1  0
 20 21  1  0
 21 22  2  0
 23 21  1  0
 23 24  1  0
 25 24  1  6
 25 27  1  0
 25 26  1  0
 26 18  1  0
 27 29  1  0
 28 27  2  0
M  END
$$$$
