NRQ.pdb
     RDKit          3D

 29 28  0  0  1  0  0  0  0  0999 V2000
   28.3673  -19.1930  -14.4114 N   0  0  0  0  0  0  0  0  0  0  0  0
   27.2146  -18.7285  -15.1018 C   0  0  0  0  0  0  0  0  0  0  0  0
   27.2910  -17.8521  -16.0137 O   0  0  0  0  0  0  0  0  0  0  0  0
   25.8738  -19.2721  -14.7615 C   0  0  0  0  0  0  0  0  0  0  0  0
   25.9660  -20.2346  -13.5922 C   0  0  2  0  0  0  0  0  0  0  0  0
   26.6979  -21.3926  -14.0936 N   0  0  0  0  0  0  0  0  0  0  0  0
   24.6299  -20.6581  -13.1779 C   0  0  0  0  0  0  0  0  0  0  0  0
   24.0625  -21.6019  -13.7945 O   0  0  0  0  0  0  0  0  0  0  0  0
   19.3647  -22.9420   -8.6962 N   0  0  0  0  0  0  0  0  0  0  0  0
   19.8966  -22.8081   -7.3838 C   0  0  0  0  0  0  0  0  0  0  0  0
   19.2574  -23.3354   -6.4007 N   0  0  0  0  0  0  0  0  0  0  0  0
   21.1125  -22.0946   -7.2278 N   0  0  0  0  0  0  0  0  0  0  0  0
   21.2338  -20.8504   -8.0335 C   0  0  0  0  0  0  0  0  0  0  0  0
   21.6752  -21.2197   -9.4055 C   0  0  0  0  0  0  0  0  0  0  0  0
   22.2571  -20.1787  -10.2503 C   0  0  0  0  0  0  0  0  0  0  0  0
   22.6555  -20.4290  -11.6454 C   0  0  2  0  0  0  0  0  0  0  0  0
   23.9429  -20.0188  -12.0758 N   0  0  0  0  0  0  0  0  0  0  0  0
   21.5940  -20.0318  -12.6361 C   0  0  0  0  0  0  0  0  0  0  0  0
   21.5796  -18.8402  -13.0065 O   0  0  0  0  0  0  0  0  0  0  0  0
   19.5971  -23.2391   -5.4227 N   0  0  0  0  0  0  0  0  0  0  0  0
   18.8818  -23.8770  -16.9487 C   0  0  0  0  0  0  0  0  0  0  0  0
   18.2534  -22.6162  -17.1238 O   0  0  0  0  0  0  0  0  0  0  0  0
   17.4421  -22.5116  -18.0794 C   0  0  0  0  0  0  0  0  0  0  0  0
   18.5194  -21.4748  -16.2481 C   0  0  0  0  0  0  0  0  0  0  0  0
   19.4940  -21.6978  -15.1575 C   0  0  1  0  0  0  0  0  0  0  0  0
   19.6820  -20.5785  -14.1845 N   0  0  0  0  0  0  0  0  0  0  0  0
   20.6441  -20.9489  -13.1401 C   0  0  0  0  0  0  0  0  0  0  0  0
   18.4055  -20.2633  -13.5137 O   0  0  0  0  0  0  0  0  0  0  0  0
   18.1607  -20.7485  -12.3900 O   0  0  0  0  0  0  0  0  0  0  0  0
  1  2  1  0
  2  3  2  0
  4  5  1  0
  4  2  1  0
  5  7  1  0
  5  6  1  6
  7  8  2  0
 10 12  1  0
 10  9  1  0
 11 10  2  0
 13 14  1  0
 13 12  1  0
 14 15  1  0
 16 15  1  1
 17 16  1  0
 17  7  1  0
 18 19  2  0
 18 16  1  0
 20 21  1  0
 21 22  2  0
 23 21  1  0
 23 24  1  0
 25 24  1  6
 25 27  1  0
 25 26  1  0
 26 18  1  0
 27 29  1  0
 28 27  2  0
M  END
$$$$
