NRQ.pdb
     RDKit          3D

 29 28  0  0  1  0  0  0  0  0999 V2000
   32.6417  -21.6477   -9.4120 N   0  0  0  0  0  0  0  0  0  0  0  0
   31.3745  -22.0660   -9.9020 C   0  0  0  0  0  0  0  0  0  0  0  0
   31.1620  -23.2600  -10.2689 O   0  0  0  0  0  0  0  0  0  0  0  0
   30.2544  -21.0933   -9.9947 C   0  0  0  0  0  0  0  0  0  0  0  0
   29.3138  -21.4642  -11.1260 C   0  0  2  0  0  0  0  0  0  0  0  0
   30.1553  -21.5912  -12.3108 N   0  0  0  0  0  0  0  0  0  0  0  0
   28.3396  -20.3970  -11.3455 C   0  0  0  0  0  0  0  0  0  0  0  0
   28.7484  -19.2335  -11.6140 O   0  0  0  0  0  0  0  0  0  0  0  0
   27.5463  -19.1364  -18.1148 N   0  0  0  0  0  0  0  0  0  0  0  0
   26.3210  -19.6329  -17.5902 C   0  0  0  0  0  0  0  0  0  0  0  0
   25.5190  -20.2573  -18.3776 N   0  0  0  0  0  0  0  0  0  0  0  0
   26.0464  -19.4111  -16.2165 N   0  0  0  0  0  0  0  0  0  0  0  0
   27.0031  -18.5203  -15.5070 C   0  0  0  0  0  0  0  0  0  0  0  0
   27.2888  -19.1069  -14.1699 C   0  0  0  0  0  0  0  0  0  0  0  0
   26.3249  -20.0496  -13.6059 C   0  0  0  0  0  0  0  0  0  0  0  0
   25.9923  -20.0714  -12.1718 C   0  0  2  0  0  0  0  0  0  0  0  0
   26.9159  -20.6451  -11.2617 N   0  0  0  0  0  0  0  0  0  0  0  0
   24.5903  -20.5501  -11.9048 C   0  0  0  0  0  0  0  0  0  0  0  0
   24.3901  -21.7807  -11.9576 O   0  0  0  0  0  0  0  0  0  0  0  0
   24.6518  -20.7057  -18.0196 N   0  0  0  0  0  0  0  0  0  0  0  0
   22.5315  -19.2975  -16.6141 C   0  0  0  0  0  0  0  0  0  0  0  0
   21.2713  -19.5023  -15.9933 O   0  0  0  0  0  0  0  0  0  0  0  0
   20.2646  -19.5406  -16.7465 C   0  0  0  0  0  0  0  0  0  0  0  0
   21.1225  -19.6640  -14.5468 C   0  0  0  0  0  0  0  0  0  0  0  0
   22.3621  -19.5681  -13.7450 C   0  0  1  0  0  0  0  0  0  0  0  0
   22.2246  -19.7605  -12.2689 N   0  0  0  0  0  0  0  0  0  0  0  0
   23.5298  -19.6652  -11.6048 C   0  0  0  0  0  0  0  0  0  0  0  0
   21.6797  -21.1007  -11.9758 O   0  0  0  0  0  0  0  0  0  0  0  0
   20.4529  -21.3059  -12.0787 O   0  0  0  0  0  0  0  0  0  0  0  0
  1  2  1  0
  2  3  2  0
  4  5  1  0
  4  2  1  0
  5  7  1  0
  5  6  1  6
  7  8  2  0
 10 12  1  0
 10  9  1  0
 11 10  2  0
 13 14  1  0
 13 12  1  0
 14 15  1  0
 16 15  1  6
 17 16  1  0
 17  7  1  0
 18 19  2  0
 18 16  1  0
 20 21  1  0
 21 22  2  0
 23 21  1  0
 23 24  1  0
 25 24  1  1
 25 27  1  0
 25 26  1  0
 26 18  1  0
 27 29  1  0
 28 27  2  0
M  END
$$$$
