NRQ.pdb
     RDKit          3D

 29 28  0  0  1  0  0  0  0  0999 V2000
   17.0754  -28.4874   -0.4652 N   0  0  0  0  0  0  0  0  0  0  0  0
   16.8811  -27.0801   -0.5161 C   0  0  0  0  0  0  0  0  0  0  0  0
   16.2851  -26.4548    0.4109 O   0  0  0  0  0  0  0  0  0  0  0  0
   17.3826  -26.3011   -1.6784 C   0  0  0  0  0  0  0  0  0  0  0  0
   18.1160  -27.2035   -2.6530 C   0  0  2  0  0  0  0  0  0  0  0  0
   19.4522  -27.3805   -2.0950 N   0  0  0  0  0  0  0  0  0  0  0  0
   18.2267  -26.5557   -3.9585 C   0  0  0  0  0  0  0  0  0  0  0  0
   19.1166  -25.6791   -4.1392 O   0  0  0  0  0  0  0  0  0  0  0  0
   18.2475  -26.8656  -11.9540 N   0  0  0  0  0  0  0  0  0  0  0  0
   19.6358  -26.7362  -11.6731 C   0  0  0  0  0  0  0  0  0  0  0  0
   20.3861  -26.1356  -12.5271 N   0  0  0  0  0  0  0  0  0  0  0  0
   20.1227  -27.2806  -10.4573 N   0  0  0  0  0  0  0  0  0  0  0  0
   19.1133  -27.9799   -9.6181 C   0  0  0  0  0  0  0  0  0  0  0  0
   18.4751  -26.9805   -8.7195 C   0  0  0  0  0  0  0  0  0  0  0  0
   18.2043  -27.3654   -7.3358 C   0  0  0  0  0  0  0  0  0  0  0  0
   17.5619  -26.4519   -6.3763 C   0  0  2  0  0  0  0  0  0  0  0  0
   17.3380  -26.8974   -5.0489 N   0  0  0  0  0  0  0  0  0  0  0  0
   16.3409  -25.7764   -6.9410 C   0  0  0  0  0  0  0  0  0  0  0  0
   15.3307  -26.4865   -7.1217 O   0  0  0  0  0  0  0  0  0  0  0  0
   21.4013  -25.9970  -12.3498 N   0  0  0  0  0  0  0  0  0  0  0  0
   11.8374  -22.7825   -4.2397 C   0  0  0  0  0  0  0  0  0  0  0  0
   13.1785  -22.6190   -4.6753 O   0  0  0  0  0  0  0  0  0  0  0  0
   13.8267  -21.6627   -4.1777 C   0  0  0  0  0  0  0  0  0  0  0  0
   13.8022  -23.5070   -5.6566 C   0  0  0  0  0  0  0  0  0  0  0  0
   14.4871  -22.8516   -6.7925 C   0  0  2  0  0  0  0  0  0  0  0  0
   15.1167  -23.7508   -7.8074 N   0  0  0  0  0  0  0  0  0  0  0  0
   16.3139  -24.3998   -7.2605 C   0  0  0  0  0  0  0  0  0  0  0  0
   15.5398  -22.9730   -8.9884 O   0  0  0  0  0  0  0  0  0  0  0  0
   16.7438  -22.9518   -9.3165 O   0  0  0  0  0  0  0  0  0  0  0  0
  1  2  1  0
  2  3  2  0
  4  5  1  0
  4  2  1  0
  5  7  1  0
  5  6  1  1
  7  8  2  0
 10 12  1  0
 10  9  1  0
 11 10  2  0
 13 14  1  0
 13 12  1  0
 14 15  1  0
 16 15  1  6
 17 16  1  0
 17  7  1  0
 18 19  2  0
 18 16  1  0
 20 21  1  0
 21 22  2  0
 23 21  1  0
 23 24  1  0
 25 24  1  1
 25 27  1  0
 25 26  1  0
 26 18  1  0
 27 29  1  0
 28 27  2  0
M  END
$$$$
