NRQ.pdb
     RDKit          3D

 29 28  0  0  1  0  0  0  0  0999 V2000
   21.8508   -9.6348  -13.2384 N   0  0  0  0  0  0  0  0  0  0  0  0
   21.8677   -8.2252  -13.0549 C   0  0  0  0  0  0  0  0  0  0  0  0
   22.9405   -7.5552  -13.1315 O   0  0  0  0  0  0  0  0  0  0  0  0
   20.6048   -7.4972  -12.7650 C   0  0  0  0  0  0  0  0  0  0  0  0
   19.4479   -8.4677  -12.6166 C   0  0  2  0  0  0  0  0  0  0  0  0
   19.1239   -8.9024  -13.9709 N   0  0  0  0  0  0  0  0  0  0  0  0
   18.2874   -7.7888  -12.0434 C   0  0  0  0  0  0  0  0  0  0  0  0
   17.6058   -7.0125  -12.7685 O   0  0  0  0  0  0  0  0  0  0  0  0
   11.2969  -10.6149   -8.0484 N   0  0  0  0  0  0  0  0  0  0  0  0
   11.1072   -9.2153   -7.8805 C   0  0  0  0  0  0  0  0  0  0  0  0
    9.9748   -8.7930   -7.4416 N   0  0  0  0  0  0  0  0  0  0  0  0
   12.1846   -8.3532   -8.2085 N   0  0  0  0  0  0  0  0  0  0  0  0
   13.4451   -9.0290   -8.6167 C   0  0  0  0  0  0  0  0  0  0  0  0
   14.4285   -7.9873   -9.0185 C   0  0  0  0  0  0  0  0  0  0  0  0
   15.7265   -8.4204   -9.5319 C   0  0  0  0  0  0  0  0  0  0  0  0
   16.6873   -7.4815  -10.1344 C   0  0  2  0  0  0  0  0  0  0  0  0
   17.9024   -7.9873  -10.6622 N   0  0  0  0  0  0  0  0  0  0  0  0
   16.9246   -6.2627   -9.2835 C   0  0  0  0  0  0  0  0  0  0  0  0
   17.5472   -6.4280   -8.2147 O   0  0  0  0  0  0  0  0  0  0  0  0
    9.7855   -7.7769   -7.3274 N   0  0  0  0  0  0  0  0  0  0  0  0
   19.1030   -0.7098  -10.7193 C   0  0  0  0  0  0  0  0  0  0  0  0
   18.4793   -0.4676   -9.4672 O   0  0  0  0  0  0  0  0  0  0  0  0
   18.6768    0.6575   -8.9404 C   0  0  0  0  0  0  0  0  0  0  0  0
   17.6411   -1.4631   -8.7987 C   0  0  0  0  0  0  0  0  0  0  0  0
   17.4422   -2.7416   -9.5162 C   0  0  1  0  0  0  0  0  0  0  0  0
   16.6712   -3.8024   -8.7984 N   0  0  0  0  0  0  0  0  0  0  0  0
   16.4730   -4.9763   -9.6564 C   0  0  0  0  0  0  0  0  0  0  0  0
   15.3342   -3.3002   -8.4257 O   0  0  0  0  0  0  0  0  0  0  0  0
   14.3525   -3.5555   -9.1530 O   0  0  0  0  0  0  0  0  0  0  0  0
  1  2  1  0
  2  3  2  0
  4  5  1  0
  4  2  1  0
  5  7  1  0
  5  6  1  6
  7  8  2  0
 10 12  1  0
 10  9  1  0
 11 10  2  0
 13 14  1  0
 13 12  1  0
 14 15  1  0
 16 15  1  1
 17 16  1  0
 17  7  1  0
 18 19  2  0
 18 16  1  0
 20 21  1  0
 21 22  2  0
 23 21  1  0
 23 24  1  0
 25 24  1  1
 25 27  1  0
 25 26  1  0
 26 18  1  0
 27 29  1  0
 28 27  2  0
M  END
$$$$
