ARF.pdb
     RDKit          3D

 28 28  0  0  1  0  0  0  0  0999 V2000
   27.9445  -19.5221  -14.2243 C   0  0  0  0  0  0  0  0  0  0  0  0
   27.9101  -20.4599  -15.4308 C   0  0  2  0  0  0  0  0  0  0  0  0
   28.3902  -19.7114  -16.5561 N   0  0  0  0  0  0  0  0  0  0  0  0
   26.5085  -20.9477  -15.6588 C   0  0  0  0  0  0  0  0  0  0  0  0
   25.6976  -20.1515  -16.1955 O   0  0  0  0  0  0  0  0  0  0  0  0
   22.2910  -27.4212  -13.8609 N   0  0  0  0  0  0  0  0  0  0  0  0
   21.5585  -27.3584  -15.0913 C   0  0  0  0  0  0  0  0  0  0  0  0
   20.3275  -27.7269  -15.1453 N   0  0  0  0  0  0  0  0  0  0  0  0
   22.2345  -26.8804  -16.2316 N   0  0  0  0  0  0  0  0  0  0  0  0
   23.5613  -26.3416  -16.0916 C   0  0  0  0  0  0  0  0  0  0  0  0
   23.4164  -24.8410  -15.8148 C   0  0  0  0  0  0  0  0  0  0  0  0
   24.7604  -24.1917  -15.7058 C   0  0  0  0  0  0  0  0  0  0  0  0
   24.7278  -22.7138  -15.4220 C   0  0  2  0  0  0  0  0  0  0  0  0
   26.1009  -22.2420  -15.2927 N   0  0  0  0  0  0  0  0  0  0  0  0
   23.9269  -22.3400  -14.2304 C   0  0  0  0  0  0  0  0  0  0  0  0
   24.1444  -22.9705  -13.1694 O   0  0  0  0  0  0  0  0  0  0  0  0
   19.7732  -27.6508  -16.0091 N   0  0  0  0  0  0  0  0  0  0  0  0
   22.9492  -21.3135  -14.2683 C   0  0  1  0  0  0  0  0  0  0  0  0
   22.0792  -21.1279  -13.1168 C   0  0  0  0  0  0  0  0  0  0  0  0
   22.5574  -20.0097  -12.2449 C   0  0  0  0  0  0  0  0  0  0  0  0
   23.6585  -20.4422  -11.3895 C   0  0  0  0  0  0  0  0  0  0  0  0
   24.9806  -20.4778  -11.8075 C   0  0  0  0  0  0  0  0  0  0  0  0
   26.0105  -20.8627  -10.9845 C   0  0  0  0  0  0  0  0  0  0  0  0
   25.7664  -21.2365   -9.6837 C   0  0  0  0  0  0  0  0  0  0  0  0
   24.4657  -21.2129   -9.2351 C   0  0  0  0  0  0  0  0  0  0  0  0
   23.4356  -20.8261  -10.0634 C   0  0  0  0  0  0  0  0  0  0  0  0
   20.7163  -20.8493  -13.6024 O   0  0  0  0  0  0  0  0  0  0  0  0
   19.6535  -20.8075  -12.6817 O   0  0  0  0  0  0  0  0  0  0  0  0
  2  1  1  1
  3  2  1  0
  4  5  2  0
  4  2  1  0
  7  6  1  0
  8  7  2  0
  9  7  1  0
 10  9  1  0
 10 11  1  0
 11 12  1  0
 13 12  1  1
 13 14  1  0
 14  4  1  0
 15 13  1  0
 16 15  2  0
 17 15  1  0
 18 17  1  0
 18 26  1  0
 18 19  1  1
 20 25  2  0
 20 19  1  0
 21 20  1  0
 22 23  1  0
 22 21  2  0
 23 24  2  0
 24 25  1  0
 26 27  1  0
 28 26  2  0
M  END
$$$$
