ARF.pdb
     RDKit          3D

 28 28  0  0  1  0  0  0  0  0999 V2000
   28.7267  -21.8117  -14.9793 C   0  0  0  0  0  0  0  0  0  0  0  0
   27.3734  -21.1327  -15.1883 C   0  0  2  0  0  0  0  0  0  0  0  0
   27.5228  -20.2343  -16.2962 N   0  0  0  0  0  0  0  0  0  0  0  0
   26.9725  -20.3982  -13.9415 C   0  0  0  0  0  0  0  0  0  0  0  0
   27.5282  -19.2939  -13.7151 O   0  0  0  0  0  0  0  0  0  0  0  0
   20.5727  -22.1805  -14.3004 N   0  0  0  0  0  0  0  0  0  0  0  0
   20.4755  -22.0110  -12.8804 C   0  0  0  0  0  0  0  0  0  0  0  0
   19.7509  -22.8012  -12.1702 N   0  0  0  0  0  0  0  0  0  0  0  0
   21.1997  -20.9525  -12.2967 N   0  0  0  0  0  0  0  0  0  0  0  0
   21.9791  -20.0825  -13.1370 C   0  0  0  0  0  0  0  0  0  0  0  0
   23.4335  -20.5609  -13.0629 C   0  0  0  0  0  0  0  0  0  0  0  0
   24.1465  -19.9088  -11.9200 C   0  0  0  0  0  0  0  0  0  0  0  0
   25.6149  -20.2266  -11.8265 C   0  0  2  0  0  0  0  0  0  0  0  0
   26.0142  -20.9106  -13.0502 N   0  0  0  0  0  0  0  0  0  0  0  0
   25.9912  -21.0206  -10.6311 C   0  0  0  0  0  0  0  0  0  0  0  0
   25.9052  -22.2678  -10.7178 O   0  0  0  0  0  0  0  0  0  0  0  0
   19.6408  -22.6746  -11.1548 N   0  0  0  0  0  0  0  0  0  0  0  0
   26.4332  -20.4130   -9.4285 C   0  0  2  0  0  0  0  0  0  0  0  0
   26.6876  -21.2533   -8.2680 C   0  0  0  0  0  0  0  0  0  0  0  0
   28.0933  -21.0986   -7.7786 C   0  0  0  0  0  0  0  0  0  0  0  0
   28.1385  -20.3260   -6.5408 C   0  0  0  0  0  0  0  0  0  0  0  0
   28.4591  -20.8771   -5.3090 C   0  0  0  0  0  0  0  0  0  0  0  0
   28.5230  -20.1338   -4.1559 C   0  0  0  0  0  0  0  0  0  0  0  0
   28.2658  -18.7830   -4.1771 C   0  0  0  0  0  0  0  0  0  0  0  0
   27.9445  -18.2027   -5.3828 C   0  0  0  0  0  0  0  0  0  0  0  0
   27.8817  -18.9513   -6.5371 C   0  0  0  0  0  0  0  0  0  0  0  0
   25.7344  -20.8838   -7.2070 O   0  0  0  0  0  0  0  0  0  0  0  0
   24.8971  -19.7686   -7.3928 O   0  0  0  0  0  0  0  0  0  0  0  0
  2  1  1  1
  3  2  1  0
  4  5  2  0
  4  2  1  0
  7  6  1  0
  8  7  2  0
  9  7  1  0
 10  9  1  0
 10 11  1  0
 11 12  1  0
 13 12  1  6
 13 14  1  0
 14  4  1  0
 15 13  1  0
 16 15  2  0
 17 15  1  0
 18 17  1  0
 18 26  1  0
 18 19  1  6
 20 25  2  0
 20 19  1  0
 21 20  1  0
 22 23  1  0
 22 21  2  0
 23 24  2  0
 24 25  1  0
 26 27  1  0
 28 26  2  0
M  END
$$$$
