ARF.pdb
     RDKit          3D

 28 28  0  0  1  0  0  0  0  0999 V2000
   29.6835  -23.6789  -16.1380 C   0  0  0  0  0  0  0  0  0  0  0  0
   28.6665  -23.0212  -17.0704 C   0  0  2  0  0  0  0  0  0  0  0  0
   29.4041  -22.4618  -18.1659 N   0  0  0  0  0  0  0  0  0  0  0  0
   27.9045  -21.9611  -16.3288 C   0  0  0  0  0  0  0  0  0  0  0  0
   28.4936  -20.8741  -16.1033 O   0  0  0  0  0  0  0  0  0  0  0  0
   19.0490  -21.0080  -16.2541 N   0  0  0  0  0  0  0  0  0  0  0  0
   20.3539  -21.3781  -15.7909 C   0  0  0  0  0  0  0  0  0  0  0  0
   20.7266  -22.6090  -15.7840 N   0  0  0  0  0  0  0  0  0  0  0  0
   21.2070  -20.3483  -15.3466 N   0  0  0  0  0  0  0  0  0  0  0  0
   22.2690  -19.8923  -16.2036 C   0  0  0  0  0  0  0  0  0  0  0  0
   23.5671  -19.9507  -15.3905 C   0  0  0  0  0  0  0  0  0  0  0  0
   24.5404  -20.8996  -16.0165 C   0  0  0  0  0  0  0  0  0  0  0  0
   25.7990  -21.1295  -15.2235 C   0  0  2  0  0  0  0  0  0  0  0  0
   26.5821  -22.1590  -15.8957 N   0  0  0  0  0  0  0  0  0  0  0  0
   25.5668  -21.4867  -13.8025 C   0  0  0  0  0  0  0  0  0  0  0  0
   25.2063  -22.6613  -13.5554 O   0  0  0  0  0  0  0  0  0  0  0  0
   21.6572  -22.8948  -15.4502 N   0  0  0  0  0  0  0  0  0  0  0  0
   25.7398  -20.5521  -12.7501 C   0  0  1  0  0  0  0  0  0  0  0  0
   25.6106  -21.0096  -11.3747 C   0  0  0  0  0  0  0  0  0  0  0  0
   26.5368  -20.2681  -10.4627 C   0  0  0  0  0  0  0  0  0  0  0  0
   27.9291  -20.6189  -10.7265 C   0  0  0  0  0  0  0  0  0  0  0  0
   28.5969  -21.6392  -10.0655 C   0  0  0  0  0  0  0  0  0  0  0  0
   29.8996  -21.9759  -10.3412 C   0  0  0  0  0  0  0  0  0  0  0  0
   30.6097  -21.2995  -11.3053 C   0  0  0  0  0  0  0  0  0  0  0  0
   29.9780  -20.2809  -11.9813 C   0  0  0  0  0  0  0  0  0  0  0  0
   28.6715  -19.9464  -11.7023 C   0  0  0  0  0  0  0  0  0  0  0  0
   24.2132  -20.8177  -10.9489 O   0  0  0  0  0  0  0  0  0  0  0  0
   23.7418  -21.4970   -9.8109 O   0  0  0  0  0  0  0  0  0  0  0  0
  2  1  1  1
  3  2  1  0
  4  5  2  0
  4  2  1  0
  7  6  1  0
  8  7  2  0
  9  7  1  0
 10  9  1  0
 10 11  1  0
 11 12  1  0
 13 12  1  6
 13 14  1  0
 14  4  1  0
 15 13  1  0
 16 15  2  0
 17 15  1  0
 18 17  1  0
 18 26  1  0
 18 19  1  1
 20 25  2  0
 20 19  1  0
 21 20  1  0
 22 23  1  0
 22 21  2  0
 23 24  2  0
 24 25  1  0
 26 27  1  0
 28 26  2  0
M  END
$$$$
