ARF.pdb
     RDKit          3D

 28 28  0  0  1  0  0  0  0  0999 V2000
   29.6809  -19.7837  -13.2151 C   0  0  0  0  0  0  0  0  0  0  0  0
   28.9968  -20.9009  -14.0025 C   0  0  2  0  0  0  0  0  0  0  0  0
   29.5275  -20.8596  -15.3343 N   0  0  0  0  0  0  0  0  0  0  0  0
   27.5102  -20.6900  -14.0017 C   0  0  0  0  0  0  0  0  0  0  0  0
   27.0636  -19.7071  -14.6452 O   0  0  0  0  0  0  0  0  0  0  0  0
   22.7564  -25.3594  -17.5820 N   0  0  0  0  0  0  0  0  0  0  0  0
   23.8707  -25.5185  -16.6946 C   0  0  0  0  0  0  0  0  0  0  0  0
   24.4135  -26.6710  -16.5180 N   0  0  0  0  0  0  0  0  0  0  0  0
   24.3453  -24.3714  -16.0279 N   0  0  0  0  0  0  0  0  0  0  0  0
   23.8980  -23.0718  -16.4536 C   0  0  0  0  0  0  0  0  0  0  0  0
   24.6569  -22.0334  -15.6196 C   0  0  0  0  0  0  0  0  0  0  0  0
   24.5292  -22.3333  -14.1589 C   0  0  0  0  0  0  0  0  0  0  0  0
   25.1952  -21.3370  -13.2480 C   0  0  2  0  0  0  0  0  0  0  0  0
   26.6359  -21.5486  -13.3134 N   0  0  0  0  0  0  0  0  0  0  0  0
   24.7183  -21.3819  -11.8439 C   0  0  0  0  0  0  0  0  0  0  0  0
   25.1122  -22.3351  -11.1320 O   0  0  0  0  0  0  0  0  0  0  0  0
   25.1684  -26.8189  -15.8342 N   0  0  0  0  0  0  0  0  0  0  0  0
   23.8510  -20.3960  -11.3083 C   0  0  1  0  0  0  0  0  0  0  0  0
   23.2949  -20.5959   -9.9785 C   0  0  0  0  0  0  0  0  0  0  0  0
   23.6086  -19.4442   -9.0760 C   0  0  0  0  0  0  0  0  0  0  0  0
   24.9459  -19.5712   -8.5046 C   0  0  0  0  0  0  0  0  0  0  0  0
   25.9821  -18.6932   -8.7859 C   0  0  0  0  0  0  0  0  0  0  0  0
   27.2288  -18.8093   -8.2216 C   0  0  0  0  0  0  0  0  0  0  0  0
   27.5057  -19.8236   -7.3352 C   0  0  0  0  0  0  0  0  0  0  0  0
   26.5004  -20.7134   -7.0330 C   0  0  0  0  0  0  0  0  0  0  0  0
   25.2514  -20.5936   -7.6006 C   0  0  0  0  0  0  0  0  0  0  0  0
   21.8364  -20.7637  -10.1035 O   0  0  0  0  0  0  0  0  0  0  0  0
   21.0932  -21.1758   -8.9825 O   0  0  0  0  0  0  0  0  0  0  0  0
  2  1  1  1
  3  2  1  0
  4  5  2  0
  4  2  1  0
  7  6  1  0
  8  7  2  0
  9  7  1  0
 10  9  1  0
 10 11  1  0
 11 12  1  0
 13 12  1  6
 13 14  1  0
 14  4  1  0
 15 13  1  0
 16 15  2  0
 17 15  1  0
 18 17  1  0
 18 26  1  0
 18 19  1  1
 20 25  2  0
 20 19  1  0
 21 20  1  0
 22 23  1  0
 22 21  2  0
 23 24  2  0
 24 25  1  0
 26 27  1  0
 28 26  2  0
M  END
$$$$
