ARF.pdb
     RDKit          3D

 28 28  0  0  1  0  0  0  0  0999 V2000
   29.0214  -16.7110  -16.8830 C   0  0  0  0  0  0  0  0  0  0  0  0
   29.0034  -17.9526  -15.9918 C   0  0  2  0  0  0  0  0  0  0  0  0
   28.9602  -19.0916  -16.8622 N   0  0  0  0  0  0  0  0  0  0  0  0
   27.8067  -17.9136  -15.0857 C   0  0  0  0  0  0  0  0  0  0  0  0
   26.9199  -17.0580  -15.3329 O   0  0  0  0  0  0  0  0  0  0  0  0
   24.2104  -23.8639  -14.1153 N   0  0  0  0  0  0  0  0  0  0  0  0
   22.9132  -23.4074  -14.5195 C   0  0  0  0  0  0  0  0  0  0  0  0
   21.8485  -24.0039  -14.1138 N   0  0  0  0  0  0  0  0  0  0  0  0
   22.8500  -22.2876  -15.3725 N   0  0  0  0  0  0  0  0  0  0  0  0
   24.0637  -21.6014  -15.7278 C   0  0  0  0  0  0  0  0  0  0  0  0
   24.5542  -20.8658  -14.4756 C   0  0  0  0  0  0  0  0  0  0  0  0
   25.7997  -20.0908  -14.7719 C   0  0  0  0  0  0  0  0  0  0  0  0
   26.3883  -19.3641  -13.5924 C   0  0  2  0  0  0  0  0  0  0  0  0
   27.6664  -18.7926  -13.9980 N   0  0  0  0  0  0  0  0  0  0  0  0
   26.5462  -20.2016  -12.3781 C   0  0  0  0  0  0  0  0  0  0  0  0
   27.3388  -21.1700  -12.4454 O   0  0  0  0  0  0  0  0  0  0  0  0
   20.9082  -23.6839  -14.3834 N   0  0  0  0  0  0  0  0  0  0  0  0
   25.8384  -19.9349  -11.1786 C   0  0  2  0  0  0  0  0  0  0  0  0
   25.9054  -20.9012  -10.0925 C   0  0  0  0  0  0  0  0  0  0  0  0
   25.5851  -20.2666   -8.7757 C   0  0  0  0  0  0  0  0  0  0  0  0
   26.7789  -19.6912   -8.1636 C   0  0  0  0  0  0  0  0  0  0  0  0
   26.9451  -18.3312   -7.9471 C   0  0  0  0  0  0  0  0  0  0  0  0
   28.0627  -17.8051   -7.3468 C   0  0  0  0  0  0  0  0  0  0  0  0
   29.0846  -18.6241   -6.9269 C   0  0  0  0  0  0  0  0  0  0  0  0
   28.9530  -19.9794   -7.1258 C   0  0  0  0  0  0  0  0  0  0  0  0
   27.8307  -20.5033   -7.7279 C   0  0  0  0  0  0  0  0  0  0  0  0
   24.9556  -21.9905  -10.3786 O   0  0  0  0  0  0  0  0  0  0  0  0
   24.9144  -23.1085   -9.5256 O   0  0  0  0  0  0  0  0  0  0  0  0
  2  1  1  6
  3  2  1  0
  4  5  2  0
  4  2  1  0
  7  6  1  0
  8  7  2  0
  9  7  1  0
 10  9  1  0
 10 11  1  0
 11 12  1  0
 13 12  1  6
 13 14  1  0
 14  4  1  0
 15 13  1  0
 16 15  2  0
 17 15  1  0
 18 17  1  0
 18 26  1  0
 18 19  1  1
 20 25  2  0
 20 19  1  0
 21 20  1  0
 22 23  1  0
 22 21  2  0
 23 24  2  0
 24 25  1  0
 26 27  1  0
 28 26  2  0
M  END
$$$$
