ARF.pdb
     RDKit          3D

 28 28  0  0  1  0  0  0  0  0999 V2000
   22.6518  -20.5777   -7.9937 C   0  0  0  0  0  0  0  0  0  0  0  0
   21.8101  -20.8170   -9.2468 C   0  0  2  0  0  0  0  0  0  0  0  0
   21.7410  -22.2365   -9.4395 N   0  0  0  0  0  0  0  0  0  0  0  0
   22.4447  -20.1374  -10.4258 C   0  0  0  0  0  0  0  0  0  0  0  0
   22.5623  -18.8870  -10.3802 O   0  0  0  0  0  0  0  0  0  0  0  0
   28.3551  -19.3432  -14.6978 N   0  0  0  0  0  0  0  0  0  0  0  0
   28.0086  -19.9659  -15.9414 C   0  0  0  0  0  0  0  0  0  0  0  0
   28.4525  -19.5037  -17.0564 N   0  0  0  0  0  0  0  0  0  0  0  0
   27.1687  -21.0964  -15.8955 N   0  0  0  0  0  0  0  0  0  0  0  0
   26.6282  -21.5235  -14.6322 C   0  0  0  0  0  0  0  0  0  0  0  0
   25.4742  -20.5756  -14.2869 C   0  0  0  0  0  0  0  0  0  0  0  0
   24.6914  -21.0981  -13.1233 C   0  0  0  0  0  0  0  0  0  0  0  0
   23.5423  -20.2269  -12.6915 C   0  0  2  0  0  0  0  0  0  0  0  0
   22.8960  -20.8559  -11.5463 N   0  0  0  0  0  0  0  0  0  0  0  0
   22.5569  -19.9431  -13.7635 C   0  0  0  0  0  0  0  0  0  0  0  0
   21.7646  -20.8626  -14.0758 O   0  0  0  0  0  0  0  0  0  0  0  0
   28.2076  -19.9315  -17.9599 N   0  0  0  0  0  0  0  0  0  0  0  0
   22.4964  -18.6885  -14.4219 C   0  0  2  0  0  0  0  0  0  0  0  0
   21.4412  -18.4557  -15.3965 C   0  0  0  0  0  0  0  0  0  0  0  0
   21.1658  -16.9945  -15.5654 C   0  0  0  0  0  0  0  0  0  0  0  0
   20.1545  -16.7640  -16.5927 C   0  0  0  0  0  0  0  0  0  0  0  0
   20.4528  -16.6333  -17.9410 C   0  0  0  0  0  0  0  0  0  0  0  0
   19.4890  -16.4421  -18.9005 C   0  0  0  0  0  0  0  0  0  0  0  0
   18.1598  -16.3709  -18.5550 C   0  0  0  0  0  0  0  0  0  0  0  0
   17.8275  -16.4967  -17.2256 C   0  0  0  0  0  0  0  0  0  0  0  0
   18.7968  -16.6887  -16.2662 C   0  0  0  0  0  0  0  0  0  0  0  0
   21.8534  -19.0491  -16.6806 O   0  0  0  0  0  0  0  0  0  0  0  0
   23.1986  -18.9546  -17.0812 O   0  0  0  0  0  0  0  0  0  0  0  0
  2  1  1  1
  3  2  1  0
  4  5  2  0
  4  2  1  0
  7  6  1  0
  8  7  2  0
  9  7  1  0
 10  9  1  0
 10 11  1  0
 11 12  1  0
 13 12  1  6
 13 14  1  0
 14  4  1  0
 15 13  1  0
 16 15  2  0
 17 15  1  0
 18 17  1  0
 18 26  1  0
 18 19  1  1
 20 25  2  0
 20 19  1  0
 21 20  1  0
 22 23  1  0
 22 21  2  0
 23 24  2  0
 24 25  1  0
 26 27  1  0
 28 26  2  0
M  END
$$$$
