ARF.pdb
     RDKit          3D

 28 28  0  0  1  0  0  0  0  0999 V2000
   26.6208  -12.6515  -15.9427 C   0  0  0  0  0  0  0  0  0  0  0  0
   25.9944  -13.0354  -17.2830 C   0  0  2  0  0  0  0  0  0  0  0  0
   27.0327  -13.6275  -18.0756 N   0  0  0  0  0  0  0  0  0  0  0  0
   25.4281  -11.8154  -17.9503 C   0  0  0  0  0  0  0  0  0  0  0  0
   26.2157  -11.1051  -18.6246 O   0  0  0  0  0  0  0  0  0  0  0  0
   19.2121  -11.8300  -23.0780 N   0  0  0  0  0  0  0  0  0  0  0  0
   20.6295  -12.0211  -22.9827 C   0  0  0  0  0  0  0  0  0  0  0  0
   21.2514  -12.7715  -23.8217 N   0  0  0  0  0  0  0  0  0  0  0  0
   21.3104  -11.3594  -21.9415 N   0  0  0  0  0  0  0  0  0  0  0  0
   20.5962  -10.4246  -21.1131 C   0  0  0  0  0  0  0  0  0  0  0  0
   21.6146   -9.7926  -20.1575 C   0  0  0  0  0  0  0  0  0  0  0  0
   22.4042  -10.8503  -19.4521 C   0  0  0  0  0  0  0  0  0  0  0  0
   23.4779  -10.3313  -18.5336 C   0  0  2  0  0  0  0  0  0  0  0  0
   24.0716  -11.4655  -17.8365 N   0  0  0  0  0  0  0  0  0  0  0  0
   23.0109   -9.3049  -17.5697 C   0  0  0  0  0  0  0  0  0  0  0  0
   22.0248   -9.5945  -16.8526 O   0  0  0  0  0  0  0  0  0  0  0  0
   22.2743  -12.8832  -23.7991 N   0  0  0  0  0  0  0  0  0  0  0  0
   23.6406   -8.0401  -17.4480 C   0  0  1  0  0  0  0  0  0  0  0  0
   23.0651   -7.0514  -16.5487 C   0  0  0  0  0  0  0  0  0  0  0  0
   24.1266   -6.2242  -15.8943 C   0  0  0  0  0  0  0  0  0  0  0  0
   23.5466   -5.0897  -15.1820 C   0  0  0  0  0  0  0  0  0  0  0  0
   23.5780   -3.7895  -15.6642 C   0  0  0  0  0  0  0  0  0  0  0  0
   23.0059   -2.7347  -14.9960 C   0  0  0  0  0  0  0  0  0  0  0  0
   22.3648   -2.9300  -13.7951 C   0  0  0  0  0  0  0  0  0  0  0  0
   22.3145   -4.2078  -13.2869 C   0  0  0  0  0  0  0  0  0  0  0  0
   22.8891   -5.2631  -13.9600 C   0  0  0  0  0  0  0  0  0  0  0  0
   22.1532   -6.1915  -17.3232 O   0  0  0  0  0  0  0  0  0  0  0  0
   22.5520   -5.7336  -18.5922 O   0  0  0  0  0  0  0  0  0  0  0  0
  2  1  1  1
  3  2  1  0
  4  5  2  0
  4  2  1  0
  7  6  1  0
  8  7  2  0
  9  7  1  0
 10  9  1  0
 10 11  1  0
 11 12  1  0
 13 12  1  1
 13 14  1  0
 14  4  1  0
 15 13  1  0
 16 15  2  0
 17 15  1  0
 18 17  1  0
 18 26  1  0
 18 19  1  6
 20 25  2  0
 20 19  1  0
 21 20  1  0
 22 23  1  0
 22 21  2  0
 23 24  2  0
 24 25  1  0
 26 27  1  0
 28 26  2  0
M  END
$$$$
