ARF.pdb
     RDKit          3D

 28 28  0  0  1  0  0  0  0  0999 V2000
   21.0688  -29.9804  -11.1805 C   0  0  0  0  0  0  0  0  0  0  0  0
   20.7841  -31.1679  -12.0997 C   0  0  2  0  0  0  0  0  0  0  0  0
   19.4805  -31.6585  -11.7577 N   0  0  0  0  0  0  0  0  0  0  0  0
   21.8322  -32.2258  -11.9072 C   0  0  0  0  0  0  0  0  0  0  0  0
   21.6308  -33.0855  -11.0129 O   0  0  0  0  0  0  0  0  0  0  0  0
   25.7278  -36.9929  -15.7555 N   0  0  0  0  0  0  0  0  0  0  0  0
   24.9976  -36.5650  -16.9123 C   0  0  0  0  0  0  0  0  0  0  0  0
   24.5503  -37.4196  -17.7629 N   0  0  0  0  0  0  0  0  0  0  0  0
   24.7902  -35.1814  -17.0804 N   0  0  0  0  0  0  0  0  0  0  0  0
   25.3192  -34.2647  -16.1057 C   0  0  0  0  0  0  0  0  0  0  0  0
   24.4562  -34.3924  -14.8453 C   0  0  0  0  0  0  0  0  0  0  0  0
   24.8126  -33.3318  -13.8514 C   0  0  0  0  0  0  0  0  0  0  0  0
   23.9849  -33.3393  -12.5941 C   0  0  2  0  0  0  0  0  0  0  0  0
   23.0001  -32.2687  -12.6879 N   0  0  0  0  0  0  0  0  0  0  0  0
   24.7751  -33.2215  -11.3441 C   0  0  0  0  0  0  0  0  0  0  0  0
   25.3710  -32.1381  -11.1393 O   0  0  0  0  0  0  0  0  0  0  0  0
   24.0846  -37.1294  -18.6336 N   0  0  0  0  0  0  0  0  0  0  0  0
   24.8662  -34.2800  -10.4047 C   0  0  2  0  0  0  0  0  0  0  0  0
   25.5713  -34.0506   -9.1526 C   0  0  0  0  0  0  0  0  0  0  0  0
   24.9662  -32.9181   -8.3840 C   0  0  0  0  0  0  0  0  0  0  0  0
   25.5421  -32.8219   -7.0461 C   0  0  0  0  0  0  0  0  0  0  0  0
   26.8694  -32.4965   -6.8085 C   0  0  0  0  0  0  0  0  0  0  0  0
   27.3925  -32.3844   -5.5436 C   0  0  0  0  0  0  0  0  0  0  0  0
   26.6034  -32.5950   -4.4372 C   0  0  0  0  0  0  0  0  0  0  0  0
   25.2810  -32.9197   -4.6359 C   0  0  0  0  0  0  0  0  0  0  0  0
   24.7599  -33.0309   -5.9058 C   0  0  0  0  0  0  0  0  0  0  0  0
   25.5241  -35.2899   -8.3573 O   0  0  0  0  0  0  0  0  0  0  0  0
   24.2983  -35.9631   -8.2054 O   0  0  0  0  0  0  0  0  0  0  0  0
  2  1  1  1
  3  2  1  0
  4  5  2  0
  4  2  1  0
  7  6  1  0
  8  7  2  0
  9  7  1  0
 10  9  1  0
 10 11  1  0
 11 12  1  0
 13 12  1  6
 13 14  1  0
 14  4  1  0
 15 13  1  0
 16 15  2  0
 17 15  1  0
 18 17  1  0
 18 26  1  0
 18 19  1  6
 20 25  2  0
 20 19  1  0
 21 20  1  0
 22 23  1  0
 22 21  2  0
 23 24  2  0
 24 25  1  0
 26 27  1  0
 28 26  2  0
M  END
$$$$
