ARF.pdb
     RDKit          3D

 28 28  0  0  1  0  0  0  0  0999 V2000
   30.8574  -31.8385  -15.3436 C   0  0  0  0  0  0  0  0  0  0  0  0
   30.7195  -31.3150  -16.7730 C   0  0  2  0  0  0  0  0  0  0  0  0
   29.6205  -32.0161  -17.3710 N   0  0  0  0  0  0  0  0  0  0  0  0
   31.9944  -31.5535  -17.5295 C   0  0  0  0  0  0  0  0  0  0  0  0
   32.0631  -32.5892  -18.2380 O   0  0  0  0  0  0  0  0  0  0  0  0
   37.8817  -25.7361  -20.4377 N   0  0  0  0  0  0  0  0  0  0  0  0
   38.4150  -26.9864  -20.8924 C   0  0  0  0  0  0  0  0  0  0  0  0
   39.4705  -27.0251  -21.6261 N   0  0  0  0  0  0  0  0  0  0  0  0
   37.7428  -28.1634  -20.5071 N   0  0  0  0  0  0  0  0  0  0  0  0
   36.6150  -28.0734  -19.6181 C   0  0  0  0  0  0  0  0  0  0  0  0
   36.1169  -29.5015  -19.3687 C   0  0  0  0  0  0  0  0  0  0  0  0
   34.9143  -29.4935  -18.4779 C   0  0  0  0  0  0  0  0  0  0  0  0
   34.3142  -30.8484  -18.2131 C   0  0  2  0  0  0  0  0  0  0  0  0
   33.0798  -30.6632  -17.4603 N   0  0  0  0  0  0  0  0  0  0  0  0
   35.2223  -31.7907  -17.5143 C   0  0  0  0  0  0  0  0  0  0  0  0
   35.6061  -31.4744  -16.3640 O   0  0  0  0  0  0  0  0  0  0  0  0
   39.8926  -27.9142  -21.9273 N   0  0  0  0  0  0  0  0  0  0  0  0
   35.6513  -33.0061  -18.1057 C   0  0  1  0  0  0  0  0  0  0  0  0
   36.5201  -33.8907  -17.3442 C   0  0  0  0  0  0  0  0  0  0  0  0
   35.8941  -34.2850  -16.0434 C   0  0  0  0  0  0  0  0  0  0  0  0
   36.1235  -33.2705  -15.0191 C   0  0  0  0  0  0  0  0  0  0  0  0
   35.1142  -32.4810  -14.4879 C   0  0  0  0  0  0  0  0  0  0  0  0
   35.3394  -31.5475  -13.5060 C   0  0  0  0  0  0  0  0  0  0  0  0
   36.6030  -31.3539  -12.9990 C   0  0  0  0  0  0  0  0  0  0  0  0
   37.6287  -32.1204  -13.5031 C   0  0  0  0  0  0  0  0  0  0  0  0
   37.3990  -33.0557  -14.4874 C   0  0  0  0  0  0  0  0  0  0  0  0
   36.7985  -35.0860  -18.1595 O   0  0  0  0  0  0  0  0  0  0  0  0
   37.6781  -36.0661  -17.6648 O   0  0  0  0  0  0  0  0  0  0  0  0
  2  1  1  1
  3  2  1  0
  4  5  2  0
  4  2  1  0
  7  6  1  0
  8  7  2  0
  9  7  1  0
 10  9  1  0
 10 11  1  0
 11 12  1  0
 13 12  1  1
 13 14  1  0
 14  4  1  0
 15 13  1  0
 16 15  2  0
 17 15  1  0
 18 17  1  0
 18 26  1  0
 18 19  1  6
 20 25  2  0
 20 19  1  0
 21 20  1  0
 22 23  1  0
 22 21  2  0
 23 24  2  0
 24 25  1  0
 26 27  1  0
 28 26  2  0
M  END
$$$$
