ARF.pdb
     RDKit          3D

 28 28  0  0  1  0  0  0  0  0999 V2000
   33.4644  -24.3875  -21.9822 C   0  0  0  0  0  0  0  0  0  0  0  0
   33.9406  -25.7616  -21.5120 C   0  0  2  0  0  0  0  0  0  0  0  0
   33.5294  -26.7096  -22.5065 N   0  0  0  0  0  0  0  0  0  0  0  0
   33.3390  -26.0803  -20.1737 C   0  0  0  0  0  0  0  0  0  0  0  0
   32.2181  -26.6486  -20.1624 O   0  0  0  0  0  0  0  0  0  0  0  0
   36.4229  -30.2161  -15.7939 N   0  0  0  0  0  0  0  0  0  0  0  0
   36.0621  -29.4016  -14.6709 C   0  0  0  0  0  0  0  0  0  0  0  0
   35.7428  -29.9350  -13.5451 N   0  0  0  0  0  0  0  0  0  0  0  0
   36.0710  -28.0036  -14.8469 N   0  0  0  0  0  0  0  0  0  0  0  0
   36.5925  -27.4489  -16.0678 C   0  0  0  0  0  0  0  0  0  0  0  0
   35.4265  -27.3517  -17.0582 C   0  0  0  0  0  0  0  0  0  0  0  0
   34.4955  -26.2457  -16.6713 C   0  0  0  0  0  0  0  0  0  0  0  0
   33.3909  -25.9746  -17.6573 C   0  0  2  0  0  0  0  0  0  0  0  0
   33.9900  -25.7629  -18.9692 N   0  0  0  0  0  0  0  0  0  0  0  0
   32.5113  -24.8382  -17.2892 C   0  0  0  0  0  0  0  0  0  0  0  0
   33.0660  -23.7708  -16.9378 O   0  0  0  0  0  0  0  0  0  0  0  0
   35.4104  -29.3722  -12.7502 N   0  0  0  0  0  0  0  0  0  0  0  0
   31.0969  -24.9341  -17.3264 C   0  0  2  0  0  0  0  0  0  0  0  0
   30.3041  -23.7381  -17.0842 C   0  0  0  0  0  0  0  0  0  0  0  0
   30.7155  -22.6176  -17.9868 C   0  0  0  0  0  0  0  0  0  0  0  0
   29.8071  -21.4814  -17.8643 C   0  0  0  0  0  0  0  0  0  0  0  0
   30.1529  -20.1864  -18.2209 C   0  0  0  0  0  0  0  0  0  0  0  0
   29.2801  -19.1304  -18.1245 C   0  0  0  0  0  0  0  0  0  0  0  0
   27.9995  -19.3193  -17.6602 C   0  0  0  0  0  0  0  0  0  0  0  0
   27.6221  -20.5919  -17.2974 C   0  0  0  0  0  0  0  0  0  0  0  0
   28.5001  -21.6483  -17.3957 C   0  0  0  0  0  0  0  0  0  0  0  0
   28.8842  -24.0692  -17.2963 O   0  0  0  0  0  0  0  0  0  0  0  0
   27.8949  -23.2779  -16.6846 O   0  0  0  0  0  0  0  0  0  0  0  0
  2  1  1  6
  3  2  1  0
  4  5  2  0
  4  2  1  0
  7  6  1  0
  8  7  2  0
  9  7  1  0
 10  9  1  0
 10 11  1  0
 11 12  1  0
 13 12  1  1
 13 14  1  0
 14  4  1  0
 15 13  1  0
 16 15  2  0
 17 15  1  0
 18 17  1  0
 18 26  1  0
 18 19  1  1
 20 25  2  0
 20 19  1  0
 21 20  1  0
 22 23  1  0
 22 21  2  0
 23 24  2  0
 24 25  1  0
 26 27  1  0
 28 26  2  0
M  END
$$$$
