ARF.pdb
     RDKit          3D

 28 28  0  0  1  0  0  0  0  0999 V2000
   26.2349  -18.0347  -17.6671 C   0  0  0  0  0  0  0  0  0  0  0  0
   26.8971  -18.9917  -16.6763 C   0  0  2  0  0  0  0  0  0  0  0  0
   27.5393  -20.0152  -17.4488 N   0  0  0  0  0  0  0  0  0  0  0  0
   25.8616  -19.5720  -15.7568 C   0  0  0  0  0  0  0  0  0  0  0  0
   25.1954  -18.7706  -15.0544 O   0  0  0  0  0  0  0  0  0  0  0  0
   23.5661  -26.0722  -16.3988 N   0  0  0  0  0  0  0  0  0  0  0  0
   22.4826  -25.6581  -15.5567 C   0  0  0  0  0  0  0  0  0  0  0  0
   22.0787  -26.4021  -14.5885 N   0  0  0  0  0  0  0  0  0  0  0  0
   21.8815  -24.4130  -15.8286 N   0  0  0  0  0  0  0  0  0  0  0  0
   22.3287  -23.6453  -16.9604 C   0  0  0  0  0  0  0  0  0  0  0  0
   23.0024  -22.3809  -16.4153 C   0  0  0  0  0  0  0  0  0  0  0  0
   24.0397  -22.7328  -15.3955 C   0  0  0  0  0  0  0  0  0  0  0  0
   24.6959  -21.5540  -14.7278 C   0  0  2  0  0  0  0  0  0  0  0  0
   25.6320  -20.9560  -15.6716 N   0  0  0  0  0  0  0  0  0  0  0  0
   25.3716  -21.8777  -13.4474 C   0  0  0  0  0  0  0  0  0  0  0  0
   26.4642  -22.4882  -13.5111 O   0  0  0  0  0  0  0  0  0  0  0  0
   22.5400  -27.2922  -14.3560 N   0  0  0  0  0  0  0  0  0  0  0  0
   24.8209  -21.5199  -12.1905 C   0  0  2  0  0  0  0  0  0  0  0  0
   25.5358  -21.8901  -10.9783 C   0  0  0  0  0  0  0  0  0  0  0  0
   26.9047  -21.2865  -10.9451 C   0  0  0  0  0  0  0  0  0  0  0  0
   26.8382  -19.8382  -10.7749 C   0  0  0  0  0  0  0  0  0  0  0  0
   27.0498  -18.9382  -11.8089 C   0  0  0  0  0  0  0  0  0  0  0  0
   26.9592  -17.5781  -11.6410 C   0  0  0  0  0  0  0  0  0  0  0  0
   26.6480  -17.0423  -10.4133 C   0  0  0  0  0  0  0  0  0  0  0  0
   26.4314  -17.9064   -9.3644 C   0  0  0  0  0  0  0  0  0  0  0  0
   26.5229  -19.2697   -9.5368 C   0  0  0  0  0  0  0  0  0  0  0  0
   24.7501  -21.4373   -9.8171 O   0  0  0  0  0  0  0  0  0  0  0  0
   25.1603  -21.8066   -8.5231 O   0  0  0  0  0  0  0  0  0  0  0  0
  2  1  1  6
  3  2  1  0
  4  5  2  0
  4  2  1  0
  7  6  1  0
  8  7  2  0
  9  7  1  0
 10  9  1  0
 10 11  1  0
 11 12  1  0
 13 12  1  6
 13 14  1  0
 14  4  1  0
 15 13  1  0
 16 15  2  0
 17 15  1  0
 18 17  1  0
 18 26  1  0
 18 19  1  1
 20 25  2  0
 20 19  1  0
 21 20  1  0
 22 23  1  0
 22 21  2  0
 23 24  2  0
 24 25  1  0
 26 27  1  0
 28 26  2  0
M  END
$$$$
