ARF.pdb
     RDKit          3D

 28 28  0  0  1  0  0  0  0  0999 V2000
   28.6846  -20.9318  -14.9617 C   0  0  0  0  0  0  0  0  0  0  0  0
   27.5057  -19.9613  -15.0271 C   0  0  2  0  0  0  0  0  0  0  0  0
   27.9825  -18.7659  -15.6599 N   0  0  0  0  0  0  0  0  0  0  0  0
   26.9987  -19.6795  -13.6421 C   0  0  0  0  0  0  0  0  0  0  0  0
   27.6691  -18.8918  -12.9283 O   0  0  0  0  0  0  0  0  0  0  0  0
   19.8959  -19.7368  -12.7079 N   0  0  0  0  0  0  0  0  0  0  0  0
   20.5332  -20.4546  -13.7724 C   0  0  0  0  0  0  0  0  0  0  0  0
   20.2518  -20.1989  -15.0010 N   0  0  0  0  0  0  0  0  0  0  0  0
   21.4736  -21.4442  -13.4232 N   0  0  0  0  0  0  0  0  0  0  0  0
   21.7858  -21.6632  -12.0358 C   0  0  0  0  0  0  0  0  0  0  0  0
   23.3074  -21.5498  -11.8882 C   0  0  0  0  0  0  0  0  0  0  0  0
   23.7396  -20.1187  -11.9566 C   0  0  0  0  0  0  0  0  0  0  0  0
   25.2264  -19.9019  -11.8657 C   0  0  2  0  0  0  0  0  0  0  0  0
   25.8213  -20.2651  -13.1459 N   0  0  0  0  0  0  0  0  0  0  0  0
   25.8815  -20.6326  -10.7531 C   0  0  0  0  0  0  0  0  0  0  0  0
   26.1690  -21.8371  -10.9455 O   0  0  0  0  0  0  0  0  0  0  0  0
   20.6919  -20.7097  -15.7786 N   0  0  0  0  0  0  0  0  0  0  0  0
   26.1794  -20.0123   -9.5131 C   0  0  2  0  0  0  0  0  0  0  0  0
   26.8570  -20.7866   -8.4841 C   0  0  0  0  0  0  0  0  0  0  0  0
   28.1902  -20.1971   -8.1455 C   0  0  0  0  0  0  0  0  0  0  0  0
   28.3223  -19.9838   -6.7074 C   0  0  0  0  0  0  0  0  0  0  0  0
   27.8592  -18.8484   -6.0590 C   0  0  0  0  0  0  0  0  0  0  0  0
   27.9671  -18.6714   -4.7014 C   0  0  0  0  0  0  0  0  0  0  0  0
   28.5517  -19.6346   -3.9129 C   0  0  0  0  0  0  0  0  0  0  0  0
   29.0224  -20.7746   -4.5231 C   0  0  0  0  0  0  0  0  0  0  0  0
   28.9122  -20.9486   -5.8848 C   0  0  0  0  0  0  0  0  0  0  0  0
   25.9975  -20.8252   -7.2880 O   0  0  0  0  0  0  0  0  0  0  0  0
   24.8983  -19.9515   -7.2028 O   0  0  0  0  0  0  0  0  0  0  0  0
  2  1  1  1
  3  2  1  0
  4  5  2  0
  4  2  1  0
  7  6  1  0
  8  7  2  0
  9  7  1  0
 10  9  1  0
 10 11  1  0
 11 12  1  0
 13 12  1  6
 13 14  1  0
 14  4  1  0
 15 13  1  0
 16 15  2  0
 17 15  1  0
 18 17  1  0
 18 26  1  0
 18 19  1  1
 20 25  2  0
 20 19  1  0
 21 20  1  0
 22 23  1  0
 22 21  2  0
 23 24  2  0
 24 25  1  0
 26 27  1  0
 28 26  2  0
M  END
$$$$
