ARF.pdb
     RDKit          3D

 28 28  0  0  1  0  0  0  0  0999 V2000
   24.0267  -17.5298  -19.8413 C   0  0  0  0  0  0  0  0  0  0  0  0
   24.6274  -17.8323  -18.4688 C   0  0  2  0  0  0  0  0  0  0  0  0
   25.9037  -18.4457  -18.6969 N   0  0  0  0  0  0  0  0  0  0  0  0
   23.7141  -18.7441  -17.7012 C   0  0  0  0  0  0  0  0  0  0  0  0
   22.7176  -19.2114  -18.3078 O   0  0  0  0  0  0  0  0  0  0  0  0
   26.2250  -22.8891  -11.8118 N   0  0  0  0  0  0  0  0  0  0  0  0
   26.2545  -21.4582  -11.8912 C   0  0  0  0  0  0  0  0  0  0  0  0
   27.3564  -20.8122  -11.7413 N   0  0  0  0  0  0  0  0  0  0  0  0
   25.0381  -20.7913  -12.1383 N   0  0  0  0  0  0  0  0  0  0  0  0
   23.8104  -21.5416  -12.1454 C   0  0  0  0  0  0  0  0  0  0  0  0
   22.9452  -20.9883  -13.2834 C   0  0  0  0  0  0  0  0  0  0  0  0
   23.8023  -20.4130  -14.3669 C   0  0  0  0  0  0  0  0  0  0  0  0
   23.0490  -19.9074  -15.5681 C   0  0  2  0  0  0  0  0  0  0  0  0
   23.9490  -19.0735  -16.3552 N   0  0  0  0  0  0  0  0  0  0  0  0
   21.8016  -19.1743  -15.2403 C   0  0  0  0  0  0  0  0  0  0  0  0
   21.9186  -18.0652  -14.6688 O   0  0  0  0  0  0  0  0  0  0  0  0
   27.4023  -19.7871  -11.8206 N   0  0  0  0  0  0  0  0  0  0  0  0
   20.5178  -19.6897  -15.5523 C   0  0  1  0  0  0  0  0  0  0  0  0
   19.3441  -18.8841  -15.2505 C   0  0  0  0  0  0  0  0  0  0  0  0
   18.6613  -18.4234  -16.4999 C   0  0  0  0  0  0  0  0  0  0  0  0
   18.2485  -19.5560  -17.3233 C   0  0  0  0  0  0  0  0  0  0  0  0
   17.0197  -20.1859  -17.1931 C   0  0  0  0  0  0  0  0  0  0  0  0
   16.6334  -21.2345  -17.9915 C   0  0  0  0  0  0  0  0  0  0  0  0
   17.4684  -21.7124  -18.9740 C   0  0  0  0  0  0  0  0  0  0  0  0
   18.6959  -21.1107  -19.1314 C   0  0  0  0  0  0  0  0  0  0  0  0
   19.0797  -20.0593  -18.3291 C   0  0  0  0  0  0  0  0  0  0  0  0
   18.4219  -19.6919  -14.4333 O   0  0  0  0  0  0  0  0  0  0  0  0
   17.2545  -19.0961  -13.9221 O   0  0  0  0  0  0  0  0  0  0  0  0
  2  1  1  6
  3  2  1  0
  4  5  2  0
  4  2  1  0
  7  6  1  0
  8  7  2  0
  9  7  1  0
 10  9  1  0
 10 11  1  0
 11 12  1  0
 13 12  1  1
 13 14  1  0
 14  4  1  0
 15 13  1  0
 16 15  2  0
 17 15  1  0
 18 17  1  0
 18 26  1  0
 18 19  1  6
 20 25  2  0
 20 19  1  0
 21 20  1  0
 22 23  1  0
 22 21  2  0
 23 24  2  0
 24 25  1  0
 26 27  1  0
 28 26  2  0
M  END
$$$$
