ARF.pdb
     RDKit          3D

 28 28  0  0  1  0  0  0  0  0999 V2000
   22.2987  -20.6296  -19.3194 C   0  0  0  0  0  0  0  0  0  0  0  0
   23.6875  -20.9579  -18.7720 C   0  0  2  0  0  0  0  0  0  0  0  0
   24.1871  -22.0644  -19.5355 N   0  0  0  0  0  0  0  0  0  0  0  0
   23.5936  -21.3007  -17.3132 C   0  0  0  0  0  0  0  0  0  0  0  0
   22.8353  -22.2487  -16.9880 O   0  0  0  0  0  0  0  0  0  0  0  0
   25.9254  -20.2615   -9.5884 N   0  0  0  0  0  0  0  0  0  0  0  0
   25.0674  -21.1805  -10.2767 C   0  0  0  0  0  0  0  0  0  0  0  0
   23.7883  -21.0837  -10.1843 N   0  0  0  0  0  0  0  0  0  0  0  0
   25.6752  -22.1871  -11.0531 N   0  0  0  0  0  0  0  0  0  0  0  0
   25.8791  -21.9667  -12.4603 C   0  0  0  0  0  0  0  0  0  0  0  0
   25.5010  -20.5103  -12.7526 C   0  0  0  0  0  0  0  0  0  0  0  0
   25.4242  -20.2702  -14.2278 C   0  0  0  0  0  0  0  0  0  0  0  0
   24.2435  -20.9061  -14.9115 C   0  0  2  0  0  0  0  0  0  0  0  0
   24.3187  -20.5994  -16.3346 N   0  0  0  0  0  0  0  0  0  0  0  0
   22.9284  -20.5056  -14.3540 C   0  0  0  0  0  0  0  0  0  0  0  0
   22.6879  -20.8180  -13.1645 O   0  0  0  0  0  0  0  0  0  0  0  0
   23.1571  -21.7740  -10.6134 N   0  0  0  0  0  0  0  0  0  0  0  0
   21.9672  -19.7970  -15.1189 C   0  0  1  0  0  0  0  0  0  0  0  0
   20.7550  -19.3275  -14.4649 C   0  0  0  0  0  0  0  0  0  0  0  0
   20.5192  -17.8737  -14.7295 C   0  0  0  0  0  0  0  0  0  0  0  0
   20.3829  -17.6135  -16.1595 C   0  0  0  0  0  0  0  0  0  0  0  0
   19.1854  -17.7425  -16.8475 C   0  0  0  0  0  0  0  0  0  0  0  0
   19.0652  -17.4700  -18.1882 C   0  0  0  0  0  0  0  0  0  0  0  0
   20.1517  -17.0487  -18.9184 C   0  0  0  0  0  0  0  0  0  0  0  0
   21.3562  -16.9096  -18.2676 C   0  0  0  0  0  0  0  0  0  0  0  0
   21.4728  -17.1836  -16.9230 C   0  0  0  0  0  0  0  0  0  0  0  0
   19.6198  -20.1267  -14.9582 O   0  0  0  0  0  0  0  0  0  0  0  0
   19.8383  -21.0812  -15.9682 O   0  0  0  0  0  0  0  0  0  0  0  0
  2  1  1  6
  3  2  1  0
  4  5  2  0
  4  2  1  0
  7  6  1  0
  8  7  2  0
  9  7  1  0
 10  9  1  0
 10 11  1  0
 11 12  1  0
 13 12  1  1
 13 14  1  0
 14  4  1  0
 15 13  1  0
 16 15  2  0
 17 15  1  0
 18 17  1  0
 18 26  1  0
 18 19  1  1
 20 25  2  0
 20 19  1  0
 21 20  1  0
 22 23  1  0
 22 21  2  0
 23 24  2  0
 24 25  1  0
 26 27  1  0
 28 26  2  0
M  END
$$$$
