FIE.pdb
     RDKit          3D

 29 29  0  0  1  0  0  0  0  0999 V2000
    9.0365  -16.3943   20.4581 N   0  0  0  0  0  0  0  0  0  0  0  0
    8.3927  -16.6635   21.7071 C   0  0  1  0  0  0  0  0  0  0  0  0
    8.4673  -18.1429   22.0199 C   0  0  0  0  0  0  0  0  0  0  0  0
    7.9234  -18.9519   20.9296 C   0  0  0  0  0  0  0  0  0  0  0  0
    8.7194  -19.6350   20.0358 C   0  0  0  0  0  0  0  0  0  0  0  0
    8.2044  -20.3970   19.0049 C   0  0  0  0  0  0  0  0  0  0  0  0
    6.8396  -20.4913   18.8458 C   0  0  0  0  0  0  0  0  0  0  0  0
    6.0309  -19.8227   19.7197 C   0  0  0  0  0  0  0  0  0  0  0  0
    6.5556  -19.0694   20.7395 C   0  0  0  0  0  0  0  0  0  0  0  0
    9.0282  -15.8819   22.8499 C   0  0  0  0  0  0  0  0  0  0  0  0
   10.2720  -15.7882   22.8850 O   0  0  0  0  0  0  0  0  0  0  0  0
    7.0812  -11.5804   26.9643 C   0  0  0  0  0  0  0  0  0  0  0  0
    8.0681  -12.7315   26.6955 C   0  0  0  0  0  0  0  0  0  0  0  0
    7.7381  -13.4334   25.4190 C   0  0  2  0  0  0  0  0  0  0  0  0
    6.3086  -13.3491   24.9894 C   0  0  0  0  0  0  0  0  0  0  0  0
    8.5359  -14.6138   25.0457 C   0  0  2  0  0  0  0  0  0  0  0  0
    8.2130  -15.2980   23.8162 N   0  0  0  0  0  0  0  0  0  0  0  0
    8.8840  -15.5996   26.0508 C   0  0  0  0  0  0  0  0  0  0  0  0
    8.1828  -16.6756   26.1783 O   0  0  0  0  0  0  0  0  0  0  0  0
    9.9658  -15.5302   26.9647 N   0  0  0  0  0  0  0  0  0  0  0  0
   10.4808  -16.7074   27.6740 C   0  0  1  0  0  0  0  0  0  0  0  0
   11.5992  -17.3315   26.9144 C   0  0  0  0  0  0  0  0  0  0  0  0
   12.1705  -18.4943   27.6677 C   0  0  0  0  0  0  0  0  0  0  0  0
   13.2991  -19.1302   26.9096 C   0  0  0  0  0  0  0  0  0  0  0  0
   13.2874  -20.3695   26.7211 O   0  0  0  0  0  0  0  0  0  0  0  0
   10.8873  -16.3799   29.0399 C   0  0  0  0  0  0  0  0  0  0  0  0
   11.2363  -17.1565   29.9360 O   0  0  0  0  0  0  0  0  0  0  0  0
   14.3039  -18.2942   26.4558 O   0  0  0  0  0  0  0  0  0  0  0  0
   10.8865  -15.0133   29.3919 O   0  0  0  0  0  0  0  0  0  0  0  0
  2  1  1  6
  2  3  1  0
  4  3  1  0
  5  4  2  0
  6  7  2  0
  6  5  1  0
  7  8  1  0
  8  9  2  0
  9  4  1  0
 10  2  1  0
 11 10  2  0
 12 13  1  0
 13 14  1  0
 14 15  1  1
 16 14  1  0
 16 17  1  6
 17 10  1  0
 18 16  1  0
 19 18  2  0
 20 18  1  0
 21 22  1  6
 21 20  1  0
 23 22  1  0
 24 25  2  0
 24 23  1  0
 26 21  1  0
 26 29  1  0
 27 26  2  0
 28 24  1  0
M  END
$$$$
