FIE.pdb
     RDKit          3D

 29 29  0  0  1  0  0  0  0  0999 V2000
    6.6040  -17.5656   26.0864 N   0  0  0  0  0  0  0  0  0  0  0  0
    6.9484  -16.3456   25.4231 C   0  0  1  0  0  0  0  0  0  0  0  0
    7.8830  -15.5301   26.2911 C   0  0  0  0  0  0  0  0  0  0  0  0
    7.3282  -14.2096   26.5869 C   0  0  0  0  0  0  0  0  0  0  0  0
    7.7610  -13.4354   27.6417 C   0  0  0  0  0  0  0  0  0  0  0  0
    7.2344  -12.1892   27.9215 C   0  0  0  0  0  0  0  0  0  0  0  0
    6.2332  -11.6800   27.1244 C   0  0  0  0  0  0  0  0  0  0  0  0
    5.7883  -12.4295   26.0733 C   0  0  0  0  0  0  0  0  0  0  0  0
    6.3201  -13.6660   25.8065 C   0  0  0  0  0  0  0  0  0  0  0  0
    7.6176  -16.6033   24.0790 C   0  0  0  0  0  0  0  0  0  0  0  0
    7.9489  -17.7725   23.7957 O   0  0  0  0  0  0  0  0  0  0  0  0
    8.1554  -12.5772   19.3427 C   0  0  0  0  0  0  0  0  0  0  0  0
    8.8647  -13.6465   20.1939 C   0  0  0  0  0  0  0  0  0  0  0  0
    7.8757  -14.4804   20.9404 C   0  0  2  0  0  0  0  0  0  0  0  0
    6.5608  -13.8249   21.2176 C   0  0  0  0  0  0  0  0  0  0  0  0
    8.3857  -15.4991   21.8738 C   0  0  2  0  0  0  0  0  0  0  0  0
    7.8405  -15.5382   23.2099 N   0  0  0  0  0  0  0  0  0  0  0  0
    9.8087  -15.7704   21.9424 C   0  0  0  0  0  0  0  0  0  0  0  0
   10.5708  -15.0628   22.7066 O   0  0  0  0  0  0  0  0  0  0  0  0
   10.5123  -16.7791   21.2369 N   0  0  0  0  0  0  0  0  0  0  0  0
   11.9527  -17.0061   21.4053 C   0  0  1  0  0  0  0  0  0  0  0  0
   12.2754  -18.4540   21.2758 C   0  0  0  0  0  0  0  0  0  0  0  0
   11.5686  -19.2529   22.3286 C   0  0  0  0  0  0  0  0  0  0  0  0
   11.8207  -20.7222   22.1552 C   0  0  0  0  0  0  0  0  0  0  0  0
   11.2894  -21.5319   22.9513 O   0  0  0  0  0  0  0  0  0  0  0  0
   12.7390  -16.2034   20.4697 C   0  0  0  0  0  0  0  0  0  0  0  0
   12.3309  -15.5279   19.5184 O   0  0  0  0  0  0  0  0  0  0  0  0
   12.6401  -21.1021   21.1070 O   0  0  0  0  0  0  0  0  0  0  0  0
   14.1364  -16.1881   20.6653 O   0  0  0  0  0  0  0  0  0  0  0  0
  2  1  1  1
  2  3  1  0
  4  3  1  0
  5  4  2  0
  6  7  2  0
  6  5  1  0
  7  8  1  0
  8  9  2  0
  9  4  1  0
 10  2  1  0
 11 10  2  0
 12 13  1  0
 13 14  1  0
 14 15  1  1
 16 14  1  0
 16 17  1  1
 17 10  1  0
 18 16  1  0
 19 18  2  0
 20 18  1  0
 21 22  1  6
 21 20  1  0
 23 22  1  0
 24 25  2  0
 24 23  1  0
 26 21  1  0
 26 29  1  0
 27 26  2  0
 28 24  1  0
M  END
$$$$
