FIE.pdb
     RDKit          3D

 29 29  0  0  1  0  0  0  0  0999 V2000
   13.2278  -15.5135   42.1148 N   0  0  0  0  0  0  0  0  0  0  0  0
   12.1122  -14.6377   41.9273 C   0  0  1  0  0  0  0  0  0  0  0  0
   10.9909  -15.0181   42.8707 C   0  0  0  0  0  0  0  0  0  0  0  0
    9.7996  -14.1989   42.6491 C   0  0  0  0  0  0  0  0  0  0  0  0
    9.2951  -13.3395   43.6010 C   0  0  0  0  0  0  0  0  0  0  0  0
    8.1683  -12.5680   43.3913 C   0  0  0  0  0  0  0  0  0  0  0  0
    7.5059  -12.6460   42.1863 C   0  0  0  0  0  0  0  0  0  0  0  0
    7.9877  -13.4911   41.2279 C   0  0  0  0  0  0  0  0  0  0  0  0
    9.1080  -14.2519   41.4492 C   0  0  0  0  0  0  0  0  0  0  0  0
   12.4907  -13.1818   42.1678 C   0  0  0  0  0  0  0  0  0  0  0  0
   13.0413  -12.8824   43.2468 O   0  0  0  0  0  0  0  0  0  0  0  0
   14.3191   -8.4849   38.6297 C   0  0  0  0  0  0  0  0  0  0  0  0
   13.4538   -8.8304   39.8558 C   0  0  0  0  0  0  0  0  0  0  0  0
   13.2828  -10.3079   39.9919 C   0  0  2  0  0  0  0  0  0  0  0  0
   13.3042  -11.0787   38.7109 C   0  0  0  0  0  0  0  0  0  0  0  0
   12.4961  -10.8172   41.1281 C   0  0  2  0  0  0  0  0  0  0  0  0
   12.2152  -12.2320   41.1873 N   0  0  0  0  0  0  0  0  0  0  0  0
   11.3269  -10.0898   41.5830 C   0  0  0  0  0  0  0  0  0  0  0  0
   10.1723  -10.3146   41.0519 O   0  0  0  0  0  0  0  0  0  0  0  0
   11.2870   -9.1057   42.6029 N   0  0  0  0  0  0  0  0  0  0  0  0
   10.0482   -8.4260   43.0003 C   0  0  1  0  0  0  0  0  0  0  0  0
    9.0668   -9.4011   43.5510 C   0  0  0  0  0  0  0  0  0  0  0  0
    9.5345   -9.9400   44.8689 C   0  0  0  0  0  0  0  0  0  0  0  0
    8.5277  -10.8855   45.4565 C   0  0  0  0  0  0  0  0  0  0  0  0
    7.4115  -11.0130   44.9004 O   0  0  0  0  0  0  0  0  0  0  0  0
   10.3067   -7.3431   43.9483 C   0  0  0  0  0  0  0  0  0  0  0  0
    9.4875   -6.5802   44.4725 O   0  0  0  0  0  0  0  0  0  0  0  0
    8.8993  -11.5726   46.5984 O   0  0  0  0  0  0  0  0  0  0  0  0
   11.6517   -7.1322   44.3197 O   0  0  0  0  0  0  0  0  0  0  0  0
  2  1  1  1
  2  3  1  0
  4  3  1  0
  5  4  2  0
  6  7  2  0
  6  5  1  0
  7  8  1  0
  8  9  2  0
  9  4  1  0
 10  2  1  0
 11 10  2  0
 12 13  1  0
 13 14  1  0
 14 15  1  6
 16 14  1  0
 16 17  1  6
 17 10  1  0
 18 16  1  0
 19 18  2  0
 20 18  1  0
 21 22  1  1
 21 20  1  0
 23 22  1  0
 24 25  2  0
 24 23  1  0
 26 21  1  0
 26 29  1  0
 27 26  2  0
 28 24  1  0
M  END
$$$$
