FIE.pdb
     RDKit          3D

 29 29  0  0  1  0  0  0  0  0999 V2000
    5.5879  -17.9963   25.2098 N   0  0  0  0  0  0  0  0  0  0  0  0
    6.1218  -16.6700   25.1556 C   0  0  1  0  0  0  0  0  0  0  0  0
    6.4694  -16.1942   26.5501 C   0  0  0  0  0  0  0  0  0  0  0  0
    6.5287  -14.7346   26.6218 C   0  0  0  0  0  0  0  0  0  0  0  0
    5.4104  -13.9349   26.5275 C   0  0  0  0  0  0  0  0  0  0  0  0
    5.4680  -12.5561   26.5930 C   0  0  0  0  0  0  0  0  0  0  0  0
    6.6855  -11.9340   26.7595 C   0  0  0  0  0  0  0  0  0  0  0  0
    7.8075  -12.7063   26.8553 C   0  0  0  0  0  0  0  0  0  0  0  0
    7.7362  -14.0750   26.7887 C   0  0  0  0  0  0  0  0  0  0  0  0
    7.3676  -16.5982   24.2817 C   0  0  0  0  0  0  0  0  0  0  0  0
    8.1295  -17.5861   24.2525 O   0  0  0  0  0  0  0  0  0  0  0  0
    6.9902  -12.2636   20.5669 C   0  0  0  0  0  0  0  0  0  0  0  0
    7.0527  -13.6646   21.2030 C   0  0  0  0  0  0  0  0  0  0  0  0
    8.4314  -13.9719   21.6884 C   0  0  2  0  0  0  0  0  0  0  0  0
    9.5427  -13.5305   20.7909 C   0  0  0  0  0  0  0  0  0  0  0  0
    8.6217  -15.1545   22.5454 C   0  0  2  0  0  0  0  0  0  0  0  0
    7.6217  -15.4437   23.5455 N   0  0  0  0  0  0  0  0  0  0  0  0
    9.9311  -15.4457   23.0968 C   0  0  0  0  0  0  0  0  0  0  0  0
   10.3189  -14.8782   24.1891 O   0  0  0  0  0  0  0  0  0  0  0  0
   10.8973  -16.3326   22.5583 N   0  0  0  0  0  0  0  0  0  0  0  0
   12.1804  -16.6024   23.2182 C   0  0  1  0  0  0  0  0  0  0  0  0
   12.2648  -18.0276   23.6411 C   0  0  0  0  0  0  0  0  0  0  0  0
   13.5268  -18.2810   24.4087 C   0  0  0  0  0  0  0  0  0  0  0  0
   13.6329  -19.7211   24.8181 C   0  0  0  0  0  0  0  0  0  0  0  0
   13.2916  -20.6140   24.0071 O   0  0  0  0  0  0  0  0  0  0  0  0
   13.3123  -16.2349   22.3687 C   0  0  0  0  0  0  0  0  0  0  0  0
   13.4136  -16.3563   21.1429 O   0  0  0  0  0  0  0  0  0  0  0  0
   14.1102  -19.9815   26.0904 O   0  0  0  0  0  0  0  0  0  0  0  0
   14.4333  -15.6705   23.0141 O   0  0  0  0  0  0  0  0  0  0  0  0
  2  1  1  1
  2  3  1  0
  4  3  1  0
  5  4  2  0
  6  7  2  0
  6  5  1  0
  7  8  1  0
  8  9  2  0
  9  4  1  0
 10  2  1  0
 11 10  2  0
 12 13  1  0
 13 14  1  0
 14 15  1  6
 16 14  1  0
 16 17  1  1
 17 10  1  0
 18 16  1  0
 19 18  2  0
 20 18  1  0
 21 22  1  6
 21 20  1  0
 23 22  1  0
 24 25  2  0
 24 23  1  0
 26 21  1  0
 26 29  1  0
 27 26  2  0
 28 24  1  0
M  END
$$$$
