FIE.pdb
     RDKit          3D

 29 29  0  0  1  0  0  0  0  0999 V2000
    5.5399  -17.9601   25.8644 N   0  0  0  0  0  0  0  0  0  0  0  0
    6.2039  -16.7333   25.5464 C   0  0  1  0  0  0  0  0  0  0  0  0
    6.8905  -16.1818   26.7778 C   0  0  0  0  0  0  0  0  0  0  0  0
    7.0236  -14.7266   26.7138 C   0  0  0  0  0  0  0  0  0  0  0  0
    8.2436  -14.0894   26.6444 C   0  0  0  0  0  0  0  0  0  0  0  0
    8.3681  -12.7146   26.5864 C   0  0  0  0  0  0  0  0  0  0  0  0
    7.2370  -11.9289   26.5971 C   0  0  0  0  0  0  0  0  0  0  0  0
    6.0170  -12.5384   26.6654 C   0  0  0  0  0  0  0  0  0  0  0  0
    5.9075  -13.9051   26.7226 C   0  0  0  0  0  0  0  0  0  0  0  0
    7.2379  -16.9205   24.4435 C   0  0  0  0  0  0  0  0  0  0  0  0
    7.6992  -18.0638   24.2506 O   0  0  0  0  0  0  0  0  0  0  0  0
    8.4792  -12.5886   20.2308 C   0  0  0  0  0  0  0  0  0  0  0  0
    9.0305  -13.5720   21.2797 C   0  0  0  0  0  0  0  0  0  0  0  0
    8.0933  -14.7165   21.4864 C   0  0  2  0  0  0  0  0  0  0  0  0
    6.6530  -14.4266   21.2091 C   0  0  0  0  0  0  0  0  0  0  0  0
    8.4446  -15.7327   22.4928 C   0  0  2  0  0  0  0  0  0  0  0  0
    7.6379  -15.8221   23.6867 N   0  0  0  0  0  0  0  0  0  0  0  0
    9.8336  -15.9469   22.8510 C   0  0  0  0  0  0  0  0  0  0  0  0
   10.5360  -14.9820   23.3420 O   0  0  0  0  0  0  0  0  0  0  0  0
   10.5620  -17.1570   22.7272 N   0  0  0  0  0  0  0  0  0  0  0  0
   12.0235  -17.1924   22.5967 C   0  0  1  0  0  0  0  0  0  0  0  0
   12.4224  -17.8754   21.3351 C   0  0  0  0  0  0  0  0  0  0  0  0
   13.9086  -18.0587   21.2762 C   0  0  0  0  0  0  0  0  0  0  0  0
   14.3213  -18.7395   20.0038 C   0  0  0  0  0  0  0  0  0  0  0  0
   13.4426  -19.0601   19.1691 O   0  0  0  0  0  0  0  0  0  0  0  0
   12.6058  -15.8538   22.6803 C   0  0  0  0  0  0  0  0  0  0  0  0
   12.2840  -14.8439   22.0444 O   0  0  0  0  0  0  0  0  0  0  0  0
   15.6726  -18.9768   19.8251 O   0  0  0  0  0  0  0  0  0  0  0  0
   13.6655  -15.6786   23.5956 O   0  0  0  0  0  0  0  0  0  0  0  0
  2  1  1  1
  2  3  1  0
  4  3  1  0
  5  4  2  0
  6  7  2  0
  6  5  1  0
  7  8  1  0
  8  9  2  0
  9  4  1  0
 10  2  1  0
 11 10  2  0
 12 13  1  0
 13 14  1  0
 14 15  1  1
 16 14  1  0
 16 17  1  1
 17 10  1  0
 18 16  1  0
 19 18  2  0
 20 18  1  0
 21 22  1  6
 21 20  1  0
 23 22  1  0
 24 25  2  0
 24 23  1  0
 26 21  1  0
 26 29  1  0
 27 26  2  0
 28 24  1  0
M  END
$$$$
