FIE.pdb
     RDKit          3D

 29 29  0  0  1  0  0  0  0  0999 V2000
    5.6544  -18.0338   25.5543 N   0  0  0  0  0  0  0  0  0  0  0  0
    6.1714  -16.7117   25.3766 C   0  0  1  0  0  0  0  0  0  0  0  0
    6.5130  -16.1041   26.7205 C   0  0  0  0  0  0  0  0  0  0  0  0
    6.5091  -14.6425   26.6673 C   0  0  0  0  0  0  0  0  0  0  0  0
    7.6537  -13.8861   26.7972 C   0  0  0  0  0  0  0  0  0  0  0  0
    7.6483  -12.5054   26.7491 C   0  0  0  0  0  0  0  0  0  0  0  0
    6.4585  -11.8366   26.5642 C   0  0  0  0  0  0  0  0  0  0  0  0
    5.3113  -12.5654   26.4332 C   0  0  0  0  0  0  0  0  0  0  0  0
    5.3308  -13.9366   26.4828 C   0  0  0  0  0  0  0  0  0  0  0  0
    7.4162  -16.7056   24.4983 C   0  0  0  0  0  0  0  0  0  0  0  0
    8.2138  -17.6605   24.5932 O   0  0  0  0  0  0  0  0  0  0  0  0
    6.9708  -12.8685   20.2108 C   0  0  0  0  0  0  0  0  0  0  0  0
    7.0294  -14.1430   21.0730 C   0  0  0  0  0  0  0  0  0  0  0  0
    8.4037  -14.3601   21.6161 C   0  0  2  0  0  0  0  0  0  0  0  0
    9.5240  -13.9599   20.7104 C   0  0  0  0  0  0  0  0  0  0  0  0
    8.6087  -15.4573   22.5769 C   0  0  2  0  0  0  0  0  0  0  0  0
    7.6298  -15.6453   23.6212 N   0  0  0  0  0  0  0  0  0  0  0  0
    9.9288  -15.7023   23.1252 C   0  0  0  0  0  0  0  0  0  0  0  0
   10.4964  -14.8195   23.8762 O   0  0  0  0  0  0  0  0  0  0  0  0
   10.7225  -16.8614   22.9334 N   0  0  0  0  0  0  0  0  0  0  0  0
   12.0878  -16.9828   23.4586 C   0  0  1  0  0  0  0  0  0  0  0  0
   12.4084  -18.4040   23.7661 C   0  0  0  0  0  0  0  0  0  0  0  0
   13.8085  -18.5334   24.2847 C   0  0  0  0  0  0  0  0  0  0  0  0
   14.1458  -19.9648   24.5848 C   0  0  0  0  0  0  0  0  0  0  0  0
   13.4947  -20.8771   24.0232 O   0  0  0  0  0  0  0  0  0  0  0  0
   13.0715  -16.4046   22.5442 C   0  0  0  0  0  0  0  0  0  0  0  0
   12.9996  -16.3051   21.3143 O   0  0  0  0  0  0  0  0  0  0  0  0
   15.1748  -20.1959   25.4804 O   0  0  0  0  0  0  0  0  0  0  0  0
   14.2524  -15.8930   23.1232 O   0  0  0  0  0  0  0  0  0  0  0  0
  2  1  1  1
  2  3  1  0
  4  3  1  0
  5  4  2  0
  6  7  2  0
  6  5  1  0
  7  8  1  0
  8  9  2  0
  9  4  1  0
 10  2  1  0
 11 10  2  0
 12 13  1  0
 13 14  1  0
 14 15  1  6
 16 14  1  0
 16 17  1  1
 17 10  1  0
 18 16  1  0
 19 18  2  0
 20 18  1  0
 21 22  1  6
 21 20  1  0
 23 22  1  0
 24 25  2  0
 24 23  1  0
 26 21  1  0
 26 29  1  0
 27 26  2  0
 28 24  1  0
M  END
$$$$
