FIE.pdb
     RDKit          3D

 29 29  0  0  1  0  0  0  0  0999 V2000
    9.2010  -17.9565   26.7458 N   0  0  0  0  0  0  0  0  0  0  0  0
    7.7863  -17.7434   26.7278 C   0  0  1  0  0  0  0  0  0  0  0  0
    7.3692  -16.9327   27.9364 C   0  0  0  0  0  0  0  0  0  0  0  0
    8.2751  -15.8083   28.1693 C   0  0  0  0  0  0  0  0  0  0  0  0
    8.0257  -14.5370   27.6996 C   0  0  0  0  0  0  0  0  0  0  0  0
    8.8835  -13.4762   27.9182 C   0  0  0  0  0  0  0  0  0  0  0  0
   10.0431  -13.6764   28.6339 C   0  0  0  0  0  0  0  0  0  0  0  0
   10.3113  -14.9282   29.1091 C   0  0  0  0  0  0  0  0  0  0  0  0
    9.4506  -15.9731   28.8848 C   0  0  0  0  0  0  0  0  0  0  0  0
    7.3409  -17.0169   25.4650 C   0  0  0  0  0  0  0  0  0  0  0  0
    6.1323  -16.7332   25.3389 O   0  0  0  0  0  0  0  0  0  0  0  0
    7.4634  -12.3581   24.1929 C   0  0  0  0  0  0  0  0  0  0  0  0
    7.3806  -13.8889   24.3380 C   0  0  0  0  0  0  0  0  0  0  0  0
    8.0342  -14.5730   23.1822 C   0  0  2  0  0  0  0  0  0  0  0  0
    7.9090  -13.8742   21.8664 C   0  0  0  0  0  0  0  0  0  0  0  0
    8.1445  -16.0414   23.2124 C   0  0  2  0  0  0  0  0  0  0  0  0
    8.2843  -16.6916   24.4937 N   0  0  0  0  0  0  0  0  0  0  0  0
    8.9859  -16.7240   22.2484 C   0  0  0  0  0  0  0  0  0  0  0  0
    8.6903  -17.9172   21.8552 O   0  0  0  0  0  0  0  0  0  0  0  0
   10.1619  -16.2148   21.6419 N   0  0  0  0  0  0  0  0  0  0  0  0
   11.4792  -16.8371   21.8208 C   0  0  1  0  0  0  0  0  0  0  0  0
   12.5556  -15.8088   21.7856 C   0  0  0  0  0  0  0  0  0  0  0  0
   13.8943  -16.4309   22.0446 C   0  0  0  0  0  0  0  0  0  0  0  0
   14.9938  -15.4144   21.9422 C   0  0  0  0  0  0  0  0  0  0  0  0
   15.7285  -15.2061   22.9364 O   0  0  0  0  0  0  0  0  0  0  0  0
   11.5413  -17.6259   23.0504 C   0  0  0  0  0  0  0  0  0  0  0  0
   11.1779  -17.2953   24.1847 O   0  0  0  0  0  0  0  0  0  0  0  0
   15.1332  -14.7557   20.7334 O   0  0  0  0  0  0  0  0  0  0  0  0
   12.0791  -18.9262   22.9438 O   0  0  0  0  0  0  0  0  0  0  0  0
  2  1  1  6
  2  3  1  0
  4  3  1  0
  5  4  2  0
  6  7  2  0
  6  5  1  0
  7  8  1  0
  8  9  2  0
  9  4  1  0
 10  2  1  0
 11 10  2  0
 12 13  1  0
 13 14  1  0
 14 15  1  6
 16 14  1  0
 16 17  1  1
 17 10  1  0
 18 16  1  0
 19 18  2  0
 20 18  1  0
 21 22  1  1
 21 20  1  0
 23 22  1  0
 24 25  2  0
 24 23  1  0
 26 21  1  0
 26 29  1  0
 27 26  2  0
 28 24  1  0
M  END
$$$$
