FIE.pdb
     RDKit          3D

 29 29  0  0  1  0  0  0  0  0999 V2000
    7.6801  -16.7171   22.5169 N   0  0  0  0  0  0  0  0  0  0  0  0
    7.8447  -15.4804   23.2172 C   0  0  1  0  0  0  0  0  0  0  0  0
    6.6880  -15.2669   24.1703 C   0  0  0  0  0  0  0  0  0  0  0  0
    6.7138  -13.9273   24.7568 C   0  0  0  0  0  0  0  0  0  0  0  0
    7.3552  -12.8625   24.1619 C   0  0  0  0  0  0  0  0  0  0  0  0
    7.3807  -11.5981   24.7181 C   0  0  0  0  0  0  0  0  0  0  0  0
    6.7442  -11.3706   25.9181 C   0  0  0  0  0  0  0  0  0  0  0  0
    6.1020  -12.4110   26.5261 C   0  0  0  0  0  0  0  0  0  0  0  0
    6.0843  -13.6621   25.9627 C   0  0  0  0  0  0  0  0  0  0  0  0
    9.1489  -15.4463   24.0039 C   0  0  0  0  0  0  0  0  0  0  0  0
   10.2134  -15.2606   23.3799 O   0  0  0  0  0  0  0  0  0  0  0  0
    9.6307  -12.7428   28.7845 C   0  0  0  0  0  0  0  0  0  0  0  0
    9.7758  -13.4279   27.4130 C   0  0  0  0  0  0  0  0  0  0  0  0
   10.0934  -14.8789   27.5694 C   0  0  2  0  0  0  0  0  0  0  0  0
   10.9240  -15.2307   28.7618 C   0  0  0  0  0  0  0  0  0  0  0  0
   10.1853  -15.7076   26.3554 C   0  0  2  0  0  0  0  0  0  0  0  0
    9.1199  -15.6217   25.3851 N   0  0  0  0  0  0  0  0  0  0  0  0
   10.6178  -17.0885   26.4525 C   0  0  0  0  0  0  0  0  0  0  0  0
    9.9458  -17.9334   27.1597 O   0  0  0  0  0  0  0  0  0  0  0  0
   11.7521  -17.6654   25.8275 N   0  0  0  0  0  0  0  0  0  0  0  0
   12.0828  -19.0906   25.9455 C   0  0  1  0  0  0  0  0  0  0  0  0
   12.9638  -19.5205   24.8246 C   0  0  0  0  0  0  0  0  0  0  0  0
   14.2269  -18.7143   24.8013 C   0  0  0  0  0  0  0  0  0  0  0  0
   14.7947  -18.6356   23.4141 C   0  0  0  0  0  0  0  0  0  0  0  0
   14.1671  -19.1629   22.4657 O   0  0  0  0  0  0  0  0  0  0  0  0
   12.6865  -19.3995   27.2409 C   0  0  0  0  0  0  0  0  0  0  0  0
   13.0355  -18.6090   28.1247 O   0  0  0  0  0  0  0  0  0  0  0  0
   15.9999  -17.9731   23.2627 O   0  0  0  0  0  0  0  0  0  0  0  0
   12.9023  -20.7635   27.5315 O   0  0  0  0  0  0  0  0  0  0  0  0
  2  1  1  1
  2  3  1  0
  4  3  1  0
  5  4  2  0
  6  7  2  0
  6  5  1  0
  7  8  1  0
  8  9  2  0
  9  4  1  0
 10  2  1  0
 11 10  2  0
 12 13  1  0
 13 14  1  0
 14 15  1  6
 16 14  1  0
 16 17  1  1
 17 10  1  0
 18 16  1  0
 19 18  2  0
 20 18  1  0
 21 22  1  6
 21 20  1  0
 23 22  1  0
 24 25  2  0
 24 23  1  0
 26 21  1  0
 26 29  1  0
 27 26  2  0
 28 24  1  0
M  END
$$$$
