FIE.pdb
     RDKit          3D

 29 29  0  0  1  0  0  0  0  0999 V2000
    9.7457  -15.8428   20.6997 N   0  0  0  0  0  0  0  0  0  0  0  0
    8.9023  -15.1809   21.6471 C   0  0  1  0  0  0  0  0  0  0  0  0
    7.4525  -15.3150   21.2324 C   0  0  0  0  0  0  0  0  0  0  0  0
    7.1423  -14.4714   20.0786 C   0  0  0  0  0  0  0  0  0  0  0  0
    7.2155  -13.0957   20.1164 C   0  0  0  0  0  0  0  0  0  0  0  0
    6.9199  -12.2999   19.0264 C   0  0  0  0  0  0  0  0  0  0  0  0
    6.5334  -12.8863   17.8417 C   0  0  0  0  0  0  0  0  0  0  0  0
    6.4536  -14.2481   17.7808 C   0  0  0  0  0  0  0  0  0  0  0  0
    6.7501  -15.0270   18.8709 C   0  0  0  0  0  0  0  0  0  0  0  0
    9.0722  -15.7514   23.0494 C   0  0  0  0  0  0  0  0  0  0  0  0
    9.8175  -16.7407   23.2011 O   0  0  0  0  0  0  0  0  0  0  0  0
    7.8042  -12.2957   28.1690 C   0  0  0  0  0  0  0  0  0  0  0  0
    8.4710  -13.5726   27.6249 C   0  0  0  0  0  0  0  0  0  0  0  0
    8.2163  -13.7285   26.1615 C   0  0  2  0  0  0  0  0  0  0  0  0
    6.9166  -13.1749   25.6721 C   0  0  0  0  0  0  0  0  0  0  0  0
    8.8177  -14.8801   25.4677 C   0  0  2  0  0  0  0  0  0  0  0  0
    8.3982  -15.1603   24.1151 N   0  0  0  0  0  0  0  0  0  0  0  0
    8.9964  -16.1361   26.1705 C   0  0  0  0  0  0  0  0  0  0  0  0
    7.9735  -16.8550   26.4902 O   0  0  0  0  0  0  0  0  0  0  0  0
   10.2279  -16.7127   26.5720 N   0  0  0  0  0  0  0  0  0  0  0  0
   10.3111  -18.0132   27.2476 C   0  0  1  0  0  0  0  0  0  0  0  0
   11.5081  -18.7696   26.7867 C   0  0  0  0  0  0  0  0  0  0  0  0
   11.6313  -20.0698   27.5216 C   0  0  0  0  0  0  0  0  0  0  0  0
   12.8336  -20.8413   27.0612 C   0  0  0  0  0  0  0  0  0  0  0  0
   12.6854  -22.0160   26.6493 O   0  0  0  0  0  0  0  0  0  0  0  0
   10.3057  -17.8672   28.7025 C   0  0  0  0  0  0  0  0  0  0  0  0
   10.5742  -16.8597   29.3663 O   0  0  0  0  0  0  0  0  0  0  0  0
   14.0568  -20.1974   27.1204 O   0  0  0  0  0  0  0  0  0  0  0  0
    9.9517  -19.0083   29.4535 O   0  0  0  0  0  0  0  0  0  0  0  0
  2  1  1  6
  2  3  1  0
  4  3  1  0
  5  4  2  0
  6  7  2  0
  6  5  1  0
  7  8  1  0
  8  9  2  0
  9  4  1  0
 10  2  1  0
 11 10  2  0
 12 13  1  0
 13 14  1  0
 14 15  1  1
 16 14  1  0
 16 17  1  6
 17 10  1  0
 18 16  1  0
 19 18  2  0
 20 18  1  0
 21 22  1  6
 21 20  1  0
 23 22  1  0
 24 25  2  0
 24 23  1  0
 26 21  1  0
 26 29  1  0
 27 26  2  0
 28 24  1  0
M  END
$$$$
