FIE.pdb
     RDKit          3D

 29 29  0  0  1  0  0  0  0  0999 V2000
    5.7948  -18.0202   25.7147 N   0  0  0  0  0  0  0  0  0  0  0  0
    6.2666  -16.6943   25.4569 C   0  0  1  0  0  0  0  0  0  0  0  0
    6.8484  -16.0967   26.7204 C   0  0  0  0  0  0  0  0  0  0  0  0
    6.7921  -14.6354   26.7002 C   0  0  0  0  0  0  0  0  0  0  0  0
    7.9174  -13.8424   26.7649 C   0  0  0  0  0  0  0  0  0  0  0  0
    7.8627  -12.4620   26.7481 C   0  0  0  0  0  0  0  0  0  0  0  0
    6.6412  -11.8314   26.6637 C   0  0  0  0  0  0  0  0  0  0  0  0
    5.5123  -12.5968   26.5987 C   0  0  0  0  0  0  0  0  0  0  0  0
    5.5808  -13.9672   26.6162 C   0  0  0  0  0  0  0  0  0  0  0  0
    7.3282  -16.6753   24.3644 C   0  0  0  0  0  0  0  0  0  0  0  0
    8.1166  -17.6395   24.2865 O   0  0  0  0  0  0  0  0  0  0  0  0
    8.1812  -12.8937   19.3564 C   0  0  0  0  0  0  0  0  0  0  0  0
    8.7308  -14.0434   20.2210 C   0  0  0  0  0  0  0  0  0  0  0  0
    7.8956  -14.2413   21.4434 C   0  0  2  0  0  0  0  0  0  0  0  0
    7.2349  -13.0109   21.9773 C   0  0  0  0  0  0  0  0  0  0  0  0
    8.2634  -15.3241   22.3715 C   0  0  2  0  0  0  0  0  0  0  0  0
    7.3912  -15.5934   23.4899 N   0  0  0  0  0  0  0  0  0  0  0  0
    9.6391  -15.4678   22.8074 C   0  0  0  0  0  0  0  0  0  0  0  0
   10.0735  -14.8013   23.8236 O   0  0  0  0  0  0  0  0  0  0  0  0
   10.6275  -16.3021   22.2267 N   0  0  0  0  0  0  0  0  0  0  0  0
   11.9973  -16.3884   22.7471 C   0  0  1  0  0  0  0  0  0  0  0  0
   12.2907  -17.7661   23.2296 C   0  0  0  0  0  0  0  0  0  0  0  0
   13.6615  -17.8387   23.8310 C   0  0  0  0  0  0  0  0  0  0  0  0
   13.9970  -19.2405   24.2492 C   0  0  0  0  0  0  0  0  0  0  0  0
   15.1898  -19.5356   24.4974 O   0  0  0  0  0  0  0  0  0  0  0  0
   12.9801  -15.9550   21.7550 C   0  0  0  0  0  0  0  0  0  0  0  0
   12.8699  -15.9589   20.5239 O   0  0  0  0  0  0  0  0  0  0  0  0
   12.9495  -20.1401   24.3375 O   0  0  0  0  0  0  0  0  0  0  0  0
   14.2096  -15.4698   22.2495 O   0  0  0  0  0  0  0  0  0  0  0  0
  2  1  1  1
  2  3  1  0
  4  3  1  0
  5  4  2  0
  6  7  2  0
  6  5  1  0
  7  8  1  0
  8  9  2  0
  9  4  1  0
 10  2  1  0
 11 10  2  0
 12 13  1  0
 13 14  1  0
 14 15  1  1
 16 14  1  0
 16 17  1  1
 17 10  1  0
 18 16  1  0
 19 18  2  0
 20 18  1  0
 21 22  1  6
 21 20  1  0
 23 22  1  0
 24 25  2  0
 24 23  1  0
 26 21  1  0
 26 29  1  0
 27 26  2  0
 28 24  1  0
M  END
$$$$
