FIE.pdb
     RDKit          3D

 29 29  0  0  1  0  0  0  0  0999 V2000
    6.6415  -18.3490   26.9078 N   0  0  0  0  0  0  0  0  0  0  0  0
    7.4666  -17.2254   26.5857 C   0  0  1  0  0  0  0  0  0  0  0  0
    8.6973  -17.2169   27.4673 C   0  0  0  0  0  0  0  0  0  0  0  0
    9.1036  -15.8547   27.8115 C   0  0  0  0  0  0  0  0  0  0  0  0
    9.0810  -14.8160   26.9061 C   0  0  0  0  0  0  0  0  0  0  0  0
    9.4674  -13.5301   27.2318 C   0  0  0  0  0  0  0  0  0  0  0  0
    9.8968  -13.2531   28.5108 C   0  0  0  0  0  0  0  0  0  0  0  0
    9.9277  -14.2669   29.4250 C   0  0  0  0  0  0  0  0  0  0  0  0
    9.5411  -15.5397   29.0882 C   0  0  0  0  0  0  0  0  0  0  0  0
    7.9020  -17.2448   25.1259 C   0  0  0  0  0  0  0  0  0  0  0  0
    8.1261  -18.3483   24.5883 O   0  0  0  0  0  0  0  0  0  0  0  0
    6.1768  -12.9546   21.8621 C   0  0  0  0  0  0  0  0  0  0  0  0
    6.5607  -14.2250   22.6431 C   0  0  0  0  0  0  0  0  0  0  0  0
    7.9838  -14.6008   22.3893 C   0  0  2  0  0  0  0  0  0  0  0  0
    8.5034  -14.2701   21.0269 C   0  0  0  0  0  0  0  0  0  0  0  0
    8.5397  -15.7568   23.1131 C   0  0  2  0  0  0  0  0  0  0  0  0
    8.0374  -16.0427   24.4360 N   0  0  0  0  0  0  0  0  0  0  0  0
    9.9684  -16.0048   23.0927 C   0  0  0  0  0  0  0  0  0  0  0  0
   10.7680  -15.2654   23.7852 O   0  0  0  0  0  0  0  0  0  0  0  0
   10.6400  -17.0217   22.3680 N   0  0  0  0  0  0  0  0  0  0  0  0
   12.0986  -17.1833   22.3959 C   0  0  1  0  0  0  0  0  0  0  0  0
   12.4793  -18.3866   23.1862 C   0  0  0  0  0  0  0  0  0  0  0  0
   11.7301  -19.5943   22.7106 C   0  0  0  0  0  0  0  0  0  0  0  0
   12.1816  -20.8312   23.4311 C   0  0  0  0  0  0  0  0  0  0  0  0
   13.3869  -20.9435   23.7567 O   0  0  0  0  0  0  0  0  0  0  0  0
   12.6620  -17.2361   21.0477 C   0  0  0  0  0  0  0  0  0  0  0  0
   13.8509  -17.3338   20.7240 O   0  0  0  0  0  0  0  0  0  0  0  0
   11.2218  -21.7915   23.6977 O   0  0  0  0  0  0  0  0  0  0  0  0
   11.7478  -17.1690   19.9747 O   0  0  0  0  0  0  0  0  0  0  0  0
  2  1  1  1
  2  3  1  0
  4  3  1  0
  5  4  2  0
  6  7  2  0
  6  5  1  0
  7  8  1  0
  8  9  2  0
  9  4  1  0
 10  2  1  0
 11 10  2  0
 12 13  1  0
 13 14  1  0
 14 15  1  6
 16 14  1  0
 16 17  1  1
 17 10  1  0
 18 16  1  0
 19 18  2  0
 20 18  1  0
 21 22  1  6
 21 20  1  0
 23 22  1  0
 24 25  2  0
 24 23  1  0
 26 21  1  0
 26 29  1  0
 27 26  2  0
 28 24  1  0
M  END
$$$$
