FIE.pdb
     RDKit          3D

 29 29  0  0  1  0  0  0  0  0999 V2000
    6.9868  -16.7750   26.4113 N   0  0  0  0  0  0  0  0  0  0  0  0
    7.7988  -15.8354   25.7009 C   0  0  1  0  0  0  0  0  0  0  0  0
    9.1929  -15.8057   26.2905 C   0  0  0  0  0  0  0  0  0  0  0  0
    9.2392  -15.0212   27.5240 C   0  0  0  0  0  0  0  0  0  0  0  0
    8.8102  -13.7135   27.5955 C   0  0  0  0  0  0  0  0  0  0  0  0
    8.8567  -12.9727   28.7607 C   0  0  0  0  0  0  0  0  0  0  0  0
    9.3492  -13.5469   29.9117 C   0  0  0  0  0  0  0  0  0  0  0  0
    9.7803  -14.8417   29.8647 C   0  0  0  0  0  0  0  0  0  0  0  0
    9.7285  -15.5663   28.7006 C   0  0  0  0  0  0  0  0  0  0  0  0
    7.8937  -16.1779   24.2195 C   0  0  0  0  0  0  0  0  0  0  0  0
    7.3968  -17.2529   23.8261 O   0  0  0  0  0  0  0  0  0  0  0  0
    7.6674  -11.7295   21.0519 C   0  0  0  0  0  0  0  0  0  0  0  0
    7.5440  -13.0680   21.8034 C   0  0  0  0  0  0  0  0  0  0  0  0
    8.3529  -14.1328   21.1381 C   0  0  2  0  0  0  0  0  0  0  0  0
    8.1687  -14.2511   19.6591 C   0  0  0  0  0  0  0  0  0  0  0  0
    8.7079  -15.3297   21.9196 C   0  0  2  0  0  0  0  0  0  0  0  0
    8.5262  -15.2917   23.3512 N   0  0  0  0  0  0  0  0  0  0  0  0
    9.9305  -16.0513   21.6233 C   0  0  0  0  0  0  0  0  0  0  0  0
   10.8578  -15.4991   20.9156 O   0  0  0  0  0  0  0  0  0  0  0  0
   10.2593  -17.3655   22.0415 N   0  0  0  0  0  0  0  0  0  0  0  0
   11.5666  -17.9780   21.7758 C   0  0  1  0  0  0  0  0  0  0  0  0
   12.6668  -17.1028   22.2666 C   0  0  0  0  0  0  0  0  0  0  0  0
   13.4375  -16.5231   21.1195 C   0  0  0  0  0  0  0  0  0  0  0  0
   14.6445  -15.7722   21.6012 C   0  0  0  0  0  0  0  0  0  0  0  0
   15.3848  -15.2034   20.7645 O   0  0  0  0  0  0  0  0  0  0  0  0
   11.6614  -19.3192   22.3504 C   0  0  0  0  0  0  0  0  0  0  0  0
   12.5187  -20.1818   22.1297 O   0  0  0  0  0  0  0  0  0  0  0  0
   14.8720  -15.7526   22.9658 O   0  0  0  0  0  0  0  0  0  0  0  0
   10.6581  -19.6871   23.2722 O   0  0  0  0  0  0  0  0  0  0  0  0
  2  1  1  1
  2  3  1  0
  4  3  1  0
  5  4  2  0
  6  7  2  0
  6  5  1  0
  7  8  1  0
  8  9  2  0
  9  4  1  0
 10  2  1  0
 11 10  2  0
 12 13  1  0
 13 14  1  0
 14 15  1  6
 16 14  1  0
 16 17  1  1
 17 10  1  0
 18 16  1  0
 19 18  2  0
 20 18  1  0
 21 22  1  1
 21 20  1  0
 23 22  1  0
 24 25  2  0
 24 23  1  0
 26 21  1  0
 26 29  1  0
 27 26  2  0
 28 24  1  0
M  END
$$$$
