FIE.pdb
     RDKit          3D

 29 29  0  0  1  0  0  0  0  0999 V2000
    7.7342  -19.3765   27.2265 N   0  0  0  0  0  0  0  0  0  0  0  0
    8.1045  -18.0045   27.3918 C   0  0  1  0  0  0  0  0  0  0  0  0
    9.4696  -17.9109   28.0396 C   0  0  0  0  0  0  0  0  0  0  0  0
    9.6875  -16.5994   28.6493 C   0  0  0  0  0  0  0  0  0  0  0  0
   10.0890  -15.4963   27.9275 C   0  0  0  0  0  0  0  0  0  0  0  0
   10.2968  -14.2585   28.5050 C   0  0  0  0  0  0  0  0  0  0  0  0
   10.0999  -14.0987   29.8587 C   0  0  0  0  0  0  0  0  0  0  0  0
    9.7020  -15.1781   30.5944 C   0  0  0  0  0  0  0  0  0  0  0  0
    9.4992  -16.4020   30.0081 C   0  0  0  0  0  0  0  0  0  0  0  0
    8.1348  -17.2636   26.0610 C   0  0  0  0  0  0  0  0  0  0  0  0
    8.1601  -17.9343   25.0091 O   0  0  0  0  0  0  0  0  0  0  0  0
    7.5049  -11.1703   25.8579 C   0  0  0  0  0  0  0  0  0  0  0  0
    8.2637  -12.4596   25.4928 C   0  0  0  0  0  0  0  0  0  0  0  0
    7.3237  -13.6105   25.3424 C   0  0  2  0  0  0  0  0  0  0  0  0
    6.0824  -13.5401   26.1728 C   0  0  0  0  0  0  0  0  0  0  0  0
    7.8832  -14.9265   24.9901 C   0  0  2  0  0  0  0  0  0  0  0  0
    8.1338  -15.8710   26.0527 N   0  0  0  0  0  0  0  0  0  0  0  0
    8.9566  -15.0205   24.0194 C   0  0  0  0  0  0  0  0  0  0  0  0
    9.6305  -13.9704   23.6897 O   0  0  0  0  0  0  0  0  0  0  0  0
    9.3900  -16.1919   23.3486 N   0  0  0  0  0  0  0  0  0  0  0  0
   10.5757  -16.2171   22.4837 C   0  0  1  0  0  0  0  0  0  0  0  0
   11.7564  -15.6518   23.1935 C   0  0  0  0  0  0  0  0  0  0  0  0
   12.9821  -15.7319   22.3348 C   0  0  0  0  0  0  0  0  0  0  0  0
   14.1885  -15.2133   23.0615 C   0  0  0  0  0  0  0  0  0  0  0  0
   15.2791  -15.1238   22.4499 O   0  0  0  0  0  0  0  0  0  0  0  0
   10.8527  -17.5639   21.9861 C   0  0  0  0  0  0  0  0  0  0  0  0
   11.5132  -17.8861   20.9923 O   0  0  0  0  0  0  0  0  0  0  0  0
   14.0213  -14.8584   24.3883 O   0  0  0  0  0  0  0  0  0  0  0  0
   10.3057  -18.6371   22.7213 O   0  0  0  0  0  0  0  0  0  0  0  0
  2  1  1  6
  2  3  1  0
  4  3  1  0
  5  4  2  0
  6  7  2  0
  6  5  1  0
  7  8  1  0
  8  9  2  0
  9  4  1  0
 10  2  1  0
 11 10  2  0
 12 13  1  0
 13 14  1  0
 14 15  1  1
 16 14  1  0
 16 17  1  1
 17 10  1  0
 18 16  1  0
 19 18  2  0
 20 18  1  0
 21 22  1  1
 21 20  1  0
 23 22  1  0
 24 25  2  0
 24 23  1  0
 26 21  1  0
 26 29  1  0
 27 26  2  0
 28 24  1  0
M  END
$$$$
