GHG.pdb
     RDKit          3D

 19 19  0  0  1  0  0  0  0  0999 V2000
   10.3555  -18.6272   16.4836 N   0  0  0  0  0  0  0  0  0  0  0  0
    9.4825  -18.4927   17.5809 C   0  0  0  0  0  0  0  0  0  0  0  0
    9.9077  -17.3584   18.4414 C   0  0  0  0  0  0  0  0  0  0  0  0
   11.0225  -16.8158   18.2618 O   0  0  0  0  0  0  0  0  0  0  0  0
    9.0516  -16.8844   19.4717 N   0  0  0  0  0  0  0  0  0  0  0  0
    9.3989  -15.8036   20.3532 C   0  0  1  0  0  0  0  0  0  0  0  0
    8.2573  -14.8346   20.4007 C   0  0  0  0  0  0  0  0  0  0  0  0
    7.9587  -14.2242   19.0875 C   0  0  0  0  0  0  0  0  0  0  0  0
    8.3590  -12.9787   18.6470 C   0  0  0  0  0  0  0  0  0  0  0  0
    7.8808  -12.7878   17.3830 N   0  0  0  0  0  0  0  0  0  0  0  0
    7.1937  -13.8978   17.0427 C   0  0  0  0  0  0  0  0  0  0  0  0
    7.2425  -14.7676   18.0786 N   0  0  0  0  0  0  0  0  0  0  0  0
    9.6179  -16.3221   21.7270 C   0  0  0  0  0  0  0  0  0  0  0  0
    8.6999  -16.8994   22.3389 O   0  0  0  0  0  0  0  0  0  0  0  0
   10.8961  -16.1564   22.3524 N   0  0  0  0  0  0  0  0  0  0  0  0
   11.1264  -16.6190   23.6877 C   0  0  0  0  0  0  0  0  0  0  0  0
   12.4631  -16.1601   24.1440 C   0  0  0  0  0  0  0  0  0  0  0  0
   13.2432  -15.5844   23.3237 O   0  0  0  0  0  0  0  0  0  0  0  0
   12.8795  -16.3453   25.4441 O   0  0  0  0  0  0  0  0  0  0  0  0
  1  2  1  0
  3  4  2  0
  3  2  1  0
  5  3  1  0
  6  5  1  0
  6  7  1  1
  8  7  1  0
  9  8  2  0
 10  9  1  0
 11 10  1  0
 11 12  2  0
 12  8  1  0
 13  6  1  0
 13 15  1  0
 14 13  2  0
 16 15  1  0
 17 16  1  0
 18 17  2  0
 19 17  1  0
M  END
$$$$
