GHG.pdb
     RDKit          3D

 19 19  0  0  1  0  0  0  0  0999 V2000
   10.3698  -18.4105   17.2838 N   0  0  0  0  0  0  0  0  0  0  0  0
    9.6886  -18.3083   18.5125 C   0  0  0  0  0  0  0  0  0  0  0  0
    9.9806  -17.0013   19.1562 C   0  0  0  0  0  0  0  0  0  0  0  0
   10.9819  -16.3361   18.8038 O   0  0  0  0  0  0  0  0  0  0  0  0
    9.1252  -16.5004   20.1744 N   0  0  0  0  0  0  0  0  0  0  0  0
    9.4280  -15.3345   20.9584 C   0  0  1  0  0  0  0  0  0  0  0  0
    8.2724  -14.3846   20.8755 C   0  0  0  0  0  0  0  0  0  0  0  0
    8.0187  -13.8972   19.5029 C   0  0  0  0  0  0  0  0  0  0  0  0
    8.5272  -12.7497   18.9282 C   0  0  0  0  0  0  0  0  0  0  0  0
    8.0567  -12.6555   17.6505 N   0  0  0  0  0  0  0  0  0  0  0  0
    7.2677  -13.7281   17.4340 C   0  0  0  0  0  0  0  0  0  0  0  0
    7.2463  -14.4798   18.5595 N   0  0  0  0  0  0  0  0  0  0  0  0
    9.6076  -15.7154   22.3821 C   0  0  0  0  0  0  0  0  0  0  0  0
    8.6195  -15.9259   23.1100 O   0  0  0  0  0  0  0  0  0  0  0  0
   10.9288  -15.8413   22.9215 N   0  0  0  0  0  0  0  0  0  0  0  0
   11.1331  -16.2616   24.2749 C   0  0  0  0  0  0  0  0  0  0  0  0
   12.5892  -16.2994   24.5642 C   0  0  0  0  0  0  0  0  0  0  0  0
   13.4194  -16.0126   23.6468 O   0  0  0  0  0  0  0  0  0  0  0  0
   13.0638  -16.6403   25.8117 O   0  0  0  0  0  0  0  0  0  0  0  0
  1  2  1  0
  3  4  2  0
  3  2  1  0
  5  3  1  0
  6  5  1  0
  6  7  1  1
  8  7  1  0
  9  8  2  0
 10  9  1  0
 11 10  1  0
 11 12  2  0
 12  8  1  0
 13  6  1  0
 13 15  1  0
 14 13  2  0
 16 15  1  0
 17 16  1  0
 18 17  2  0
 19 17  1  0
M  END
$$$$
