GHG.pdb
     RDKit          3D

 19 19  0  0  1  0  0  0  0  0999 V2000
   12.0164  -17.5937   16.4341 N   0  0  0  0  0  0  0  0  0  0  0  0
   11.2124  -17.6655   17.5885 C   0  0  0  0  0  0  0  0  0  0  0  0
   11.5431  -16.5530   18.5164 C   0  0  0  0  0  0  0  0  0  0  0  0
   12.4928  -15.7783   18.2568 O   0  0  0  0  0  0  0  0  0  0  0  0
   10.7834  -16.3632   19.7022 N   0  0  0  0  0  0  0  0  0  0  0  0
   11.0896  -15.3603   20.6851 C   0  0  1  0  0  0  0  0  0  0  0  0
    9.8096  -14.7407   21.1564 C   0  0  0  0  0  0  0  0  0  0  0  0
    9.0568  -14.0694   20.0753 C   0  0  0  0  0  0  0  0  0  0  0  0
    9.4757  -13.8797   18.7738 C   0  0  0  0  0  0  0  0  0  0  0  0
    8.4951  -13.2201   18.0909 N   0  0  0  0  0  0  0  0  0  0  0  0
    7.4820  -13.0029   18.9548 C   0  0  0  0  0  0  0  0  0  0  0  0
    7.8253  -13.5191   20.1580 N   0  0  0  0  0  0  0  0  0  0  0  0
   11.7547  -15.9862   21.8557 C   0  0  0  0  0  0  0  0  0  0  0  0
   11.1864  -16.8889   22.4979 O   0  0  0  0  0  0  0  0  0  0  0  0
   13.0606  -15.5471   22.2483 N   0  0  0  0  0  0  0  0  0  0  0  0
   13.7745  -16.2105   23.2972 C   0  0  0  0  0  0  0  0  0  0  0  0
   15.1174  -15.5939   23.4452 C   0  0  0  0  0  0  0  0  0  0  0  0
   15.4809  -14.6801   22.6415 O   0  0  0  0  0  0  0  0  0  0  0  0
   15.9836  -15.9920   24.4397 O   0  0  0  0  0  0  0  0  0  0  0  0
  1  2  1  0
  3  4  2  0
  3  2  1  0
  5  3  1  0
  6  5  1  0
  6  7  1  1
  8  7  1  0
  9  8  2  0
 10  9  1  0
 11 10  1  0
 11 12  2  0
 12  8  1  0
 13  6  1  0
 13 15  1  0
 14 13  2  0
 16 15  1  0
 17 16  1  0
 18 17  2  0
 19 17  1  0
M  END
$$$$
