GHG.pdb
     RDKit          3D

 19 19  0  0  1  0  0  0  0  0999 V2000
    9.0875  -19.2249   18.5644 N   0  0  0  0  0  0  0  0  0  0  0  0
    8.6137  -18.7573   19.8058 C   0  0  0  0  0  0  0  0  0  0  0  0
    9.4570  -17.6332   20.2887 C   0  0  0  0  0  0  0  0  0  0  0  0
   10.4629  -17.2746   19.6337 O   0  0  0  0  0  0  0  0  0  0  0  0
    9.1260  -16.9601   21.4956 N   0  0  0  0  0  0  0  0  0  0  0  0
    9.8584  -15.8295   21.9967 C   0  0  1  0  0  0  0  0  0  0  0  0
    8.8870  -14.7483   22.3596 C   0  0  0  0  0  0  0  0  0  0  0  0
    8.2102  -14.1575   21.1852 C   0  0  0  0  0  0  0  0  0  0  0  0
    6.8495  -14.0123   21.0043 C   0  0  0  0  0  0  0  0  0  0  0  0
    6.6302  -13.4235   19.7927 N   0  0  0  0  0  0  0  0  0  0  0  0
    7.8363  -13.2059   19.2288 C   0  0  0  0  0  0  0  0  0  0  0  0
    8.7932  -13.6522   20.0757 N   0  0  0  0  0  0  0  0  0  0  0  0
   10.5998  -16.2115   23.2250 C   0  0  0  0  0  0  0  0  0  0  0  0
    9.9905  -16.6312   24.2265 O   0  0  0  0  0  0  0  0  0  0  0  0
   12.0273  -16.0957   23.2569 N   0  0  0  0  0  0  0  0  0  0  0  0
   12.7639  -16.4122   24.4432 C   0  0  0  0  0  0  0  0  0  0  0  0
   14.1990  -16.0947   24.2310 C   0  0  0  0  0  0  0  0  0  0  0  0
   14.5949  -15.7117   23.0866 O   0  0  0  0  0  0  0  0  0  0  0  0
   15.1168  -16.2064   25.2522 O   0  0  0  0  0  0  0  0  0  0  0  0
  1  2  1  0
  3  4  2  0
  3  2  1  0
  5  3  1  0
  6  5  1  0
  6  7  1  1
  8  7  1  0
  9  8  2  0
 10  9  1  0
 11 10  1  0
 11 12  2  0
 12  8  1  0
 13  6  1  0
 13 15  1  0
 14 13  2  0
 16 15  1  0
 17 16  1  0
 18 17  2  0
 19 17  1  0
M  END
$$$$
