GHG.pdb
     RDKit          3D

 19 19  0  0  1  0  0  0  0  0999 V2000
   10.1148  -19.3342   17.6748 N   0  0  0  0  0  0  0  0  0  0  0  0
    9.5454  -18.9006   18.8881 C   0  0  0  0  0  0  0  0  0  0  0  0
   10.2304  -17.6727   19.3687 C   0  0  0  0  0  0  0  0  0  0  0  0
   11.2118  -17.2127   18.7403 O   0  0  0  0  0  0  0  0  0  0  0  0
    9.7753  -17.0150   20.5432 N   0  0  0  0  0  0  0  0  0  0  0  0
   10.4257  -15.8641   21.1072 C   0  0  1  0  0  0  0  0  0  0  0  0
    9.3806  -14.8701   21.5123 C   0  0  0  0  0  0  0  0  0  0  0  0
    8.6310  -14.3154   20.3649 C   0  0  0  0  0  0  0  0  0  0  0  0
    8.8819  -14.5457   19.0272 C   0  0  0  0  0  0  0  0  0  0  0  0
    7.9688  -13.8531   18.2859 N   0  0  0  0  0  0  0  0  0  0  0  0
    7.1625  -13.2022   19.1495 C   0  0  0  0  0  0  0  0  0  0  0  0
    7.5664  -13.4844   20.4102 N   0  0  0  0  0  0  0  0  0  0  0  0
   11.1819  -16.2562   22.3233 C   0  0  0  0  0  0  0  0  0  0  0  0
   10.6291  -16.9077   23.2290 O   0  0  0  0  0  0  0  0  0  0  0  0
   12.5583  -15.8813   22.4543 N   0  0  0  0  0  0  0  0  0  0  0  0
   13.3410  -16.3345   23.5644 C   0  0  0  0  0  0  0  0  0  0  0  0
   14.7145  -15.7802   23.4572 C   0  0  0  0  0  0  0  0  0  0  0  0
   15.0967  -15.2557   22.3655 O   0  0  0  0  0  0  0  0  0  0  0  0
   15.5895  -15.8217   24.5205 O   0  0  0  0  0  0  0  0  0  0  0  0
  1  2  1  0
  3  4  2  0
  3  2  1  0
  5  3  1  0
  6  5  1  0
  6  7  1  1
  8  7  1  0
  9  8  2  0
 10  9  1  0
 11 10  1  0
 11 12  2  0
 12  8  1  0
 13  6  1  0
 13 15  1  0
 14 13  2  0
 16 15  1  0
 17 16  1  0
 18 17  2  0
 19 17  1  0
M  END
$$$$
