GHG.pdb
     RDKit          3D

 19 19  0  0  1  0  0  0  0  0999 V2000
    5.5581  -18.1931   20.8559 N   0  0  0  0  0  0  0  0  0  0  0  0
    5.7970  -18.2883   22.2408 C   0  0  0  0  0  0  0  0  0  0  0  0
    6.6241  -17.1427   22.7007 C   0  0  0  0  0  0  0  0  0  0  0  0
    7.0587  -16.3082   21.8735 O   0  0  0  0  0  0  0  0  0  0  0  0
    6.9256  -16.9888   24.0808 N   0  0  0  0  0  0  0  0  0  0  0  0
    7.8840  -16.0411   24.5797 C   0  0  1  0  0  0  0  0  0  0  0  0
    7.3803  -15.4830   25.8756 C   0  0  0  0  0  0  0  0  0  0  0  0
    7.0389  -14.0466   25.7955 C   0  0  0  0  0  0  0  0  0  0  0  0
    7.2012  -13.2203   24.7018 C   0  0  0  0  0  0  0  0  0  0  0  0
    6.7671  -11.9689   25.0313 N   0  0  0  0  0  0  0  0  0  0  0  0
    6.3414  -12.0166   26.3105 C   0  0  0  0  0  0  0  0  0  0  0  0
    6.5074  -13.2782   26.7718 N   0  0  0  0  0  0  0  0  0  0  0  0
    9.1768  -16.7215   24.8448 C   0  0  0  0  0  0  0  0  0  0  0  0
    9.2715  -17.5674   25.7535 O   0  0  0  0  0  0  0  0  0  0  0  0
   10.3235  -16.4011   24.0481 N   0  0  0  0  0  0  0  0  0  0  0  0
   11.6261  -16.8702   24.4129 C   0  0  0  0  0  0  0  0  0  0  0  0
   12.6320  -16.3084   23.4758 C   0  0  0  0  0  0  0  0  0  0  0  0
   12.2488  -15.5990   22.4946 O   0  0  0  0  0  0  0  0  0  0  0  0
   13.9792  -16.5400   23.6467 O   0  0  0  0  0  0  0  0  0  0  0  0
  1  2  1  0
  3  4  2  0
  3  2  1  0
  5  3  1  0
  6  5  1  0
  6  7  1  1
  8  7  1  0
  9  8  2  0
 10  9  1  0
 11 10  1  0
 11 12  2  0
 12  8  1  0
 13  6  1  0
 13 15  1  0
 14 13  2  0
 16 15  1  0
 17 16  1  0
 18 17  2  0
 19 17  1  0
M  END
$$$$
