GHG.pdb
     RDKit          3D

 19 19  0  0  1  0  0  0  0  0999 V2000
    9.9664  -18.4738   17.2041 N   0  0  0  0  0  0  0  0  0  0  0  0
    9.4492  -18.0237   18.4346 C   0  0  0  0  0  0  0  0  0  0  0  0
   10.2857  -16.9193   18.9718 C   0  0  0  0  0  0  0  0  0  0  0  0
   11.3528  -16.6015   18.3975 O   0  0  0  0  0  0  0  0  0  0  0  0
    9.8788  -16.2189   20.1392 N   0  0  0  0  0  0  0  0  0  0  0  0
   10.5950  -15.0947   20.6766 C   0  0  1  0  0  0  0  0  0  0  0  0
    9.6097  -14.0313   21.0545 C   0  0  0  0  0  0  0  0  0  0  0  0
    8.7697  -13.5887   19.9210 C   0  0  0  0  0  0  0  0  0  0  0  0
    7.3920  -13.6349   19.8484 C   0  0  0  0  0  0  0  0  0  0  0  0
    7.0012  -13.1348   18.6401 N   0  0  0  0  0  0  0  0  0  0  0  0
    8.1189  -12.7829   17.9717 C   0  0  0  0  0  0  0  0  0  0  0  0
    9.1904  -13.0594   18.7510 N   0  0  0  0  0  0  0  0  0  0  0  0
   11.3254  -15.5004   21.9039 C   0  0  0  0  0  0  0  0  0  0  0  0
   10.7030  -15.8685   22.9176 O   0  0  0  0  0  0  0  0  0  0  0  0
   12.7575  -15.4677   21.9206 N   0  0  0  0  0  0  0  0  0  0  0  0
   13.4898  -15.9284   23.0615 C   0  0  0  0  0  0  0  0  0  0  0  0
   14.9440  -15.7529   22.8167 C   0  0  0  0  0  0  0  0  0  0  0  0
   15.6818  -15.2738   23.7328 O   0  0  0  0  0  0  0  0  0  0  0  0
   15.5154  -16.0996   21.6121 O   0  0  0  0  0  0  0  0  0  0  0  0
  1  2  1  0
  3  4  2  0
  3  2  1  0
  5  3  1  0
  6  5  1  0
  6  7  1  1
  8  7  1  0
  9  8  2  0
 10  9  1  0
 11 10  1  0
 11 12  2  0
 12  8  1  0
 13  6  1  0
 13 15  1  0
 14 13  2  0
 16 15  1  0
 17 16  1  0
 18 17  2  0
 19 17  1  0
M  END
$$$$
