GHG.pdb
     RDKit          3D

 19 19  0  0  1  0  0  0  0  0999 V2000
    9.1595  -18.8102   17.6593 N   0  0  0  0  0  0  0  0  0  0  0  0
    8.8333  -18.3013   18.9316 C   0  0  0  0  0  0  0  0  0  0  0  0
    9.8592  -17.3210   19.3727 C   0  0  0  0  0  0  0  0  0  0  0  0
   10.9387  -17.2148   18.7459 O   0  0  0  0  0  0  0  0  0  0  0  0
    9.6201  -16.4998   20.5075 N   0  0  0  0  0  0  0  0  0  0  0  0
   10.5037  -15.4437   20.9193 C   0  0  1  0  0  0  0  0  0  0  0  0
    9.6891  -14.2222   21.2170 C   0  0  0  0  0  0  0  0  0  0  0  0
    8.9157  -13.7418   20.0519 C   0  0  0  0  0  0  0  0  0  0  0  0
    9.3851  -12.9583   19.0170 C   0  0  0  0  0  0  0  0  0  0  0  0
    8.3630  -12.7332   18.1410 N   0  0  0  0  0  0  0  0  0  0  0  0
    7.2745  -13.3671   18.6240 C   0  0  0  0  0  0  0  0  0  0  0  0
    7.6126  -13.9783   19.7834 N   0  0  0  0  0  0  0  0  0  0  0  0
   11.2145  -15.8354   22.1626 C   0  0  0  0  0  0  0  0  0  0  0  0
   10.5856  -16.3040   23.1297 O   0  0  0  0  0  0  0  0  0  0  0  0
   12.6352  -15.6723   22.2489 N   0  0  0  0  0  0  0  0  0  0  0  0
   13.3544  -16.0976   23.4116 C   0  0  0  0  0  0  0  0  0  0  0  0
   14.7742  -15.6787   23.2928 C   0  0  0  0  0  0  0  0  0  0  0  0
   15.1819  -15.1393   22.2177 O   0  0  0  0  0  0  0  0  0  0  0  0
   15.6650  -15.8625   24.3274 O   0  0  0  0  0  0  0  0  0  0  0  0
  1  2  1  0
  3  4  2  0
  3  2  1  0
  5  3  1  0
  6  5  1  0
  6  7  1  1
  8  7  1  0
  9  8  2  0
 10  9  1  0
 11 10  1  0
 11 12  2  0
 12  8  1  0
 13  6  1  0
 13 15  1  0
 14 13  2  0
 16 15  1  0
 17 16  1  0
 18 17  2  0
 19 17  1  0
M  END
$$$$
