GHG.pdb
     RDKit          3D

 19 19  0  0  1  0  0  0  0  0999 V2000
    7.4816  -19.2900   18.7986 N   0  0  0  0  0  0  0  0  0  0  0  0
    7.2576  -18.5686   19.9876 C   0  0  0  0  0  0  0  0  0  0  0  0
    8.3310  -17.5609   20.1886 C   0  0  0  0  0  0  0  0  0  0  0  0
    9.3828  -17.6181   19.5105 O   0  0  0  0  0  0  0  0  0  0  0  0
    8.1689  -16.5280   21.1508 N   0  0  0  0  0  0  0  0  0  0  0  0
    9.1615  -15.5196   21.4030 C   0  0  1  0  0  0  0  0  0  0  0  0
    8.5097  -14.1726   21.3293 C   0  0  0  0  0  0  0  0  0  0  0  0
    8.0616  -13.8182   19.9655 C   0  0  0  0  0  0  0  0  0  0  0  0
    8.6518  -12.9054   19.1149 C   0  0  0  0  0  0  0  0  0  0  0  0
    7.9382  -12.8668   17.9521 N   0  0  0  0  0  0  0  0  0  0  0  0
    6.9197  -13.7424   18.0779 C   0  0  0  0  0  0  0  0  0  0  0  0
    6.9969  -14.3183   19.3004 N   0  0  0  0  0  0  0  0  0  0  0  0
    9.7160  -15.6868   22.7701 C   0  0  0  0  0  0  0  0  0  0  0  0
    8.9607  -15.8967   23.7375 O   0  0  0  0  0  0  0  0  0  0  0  0
   11.1313  -15.6057   22.9763 N   0  0  0  0  0  0  0  0  0  0  0  0
   11.7061  -15.9033   24.2535 C   0  0  0  0  0  0  0  0  0  0  0  0
   13.0232  -16.5612   24.0593 C   0  0  0  0  0  0  0  0  0  0  0  0
   13.0732  -17.7391   23.5870 O   0  0  0  0  0  0  0  0  0  0  0  0
   14.1994  -15.9203   24.3814 O   0  0  0  0  0  0  0  0  0  0  0  0
  1  2  1  0
  3  4  2  0
  3  2  1  0
  5  3  1  0
  6  5  1  0
  6  7  1  1
  8  7  1  0
  9  8  2  0
 10  9  1  0
 11 10  1  0
 11 12  2  0
 12  8  1  0
 13  6  1  0
 13 15  1  0
 14 13  2  0
 16 15  1  0
 17 16  1  0
 18 17  2  0
 19 17  1  0
M  END
$$$$
