GHG.pdb
     RDKit          3D

 19 19  0  0  1  0  0  0  0  0999 V2000
    7.3447  -19.3596   19.2438 N   0  0  0  0  0  0  0  0  0  0  0  0
    6.9736  -18.5202   20.3124 C   0  0  0  0  0  0  0  0  0  0  0  0
    7.9762  -17.4379   20.4893 C   0  0  0  0  0  0  0  0  0  0  0  0
    8.9956  -17.3993   19.7620 O   0  0  0  0  0  0  0  0  0  0  0  0
    7.7831  -16.4420   21.4843 N   0  0  0  0  0  0  0  0  0  0  0  0
    8.7342  -15.3986   21.7536 C   0  0  1  0  0  0  0  0  0  0  0  0
    8.0729  -14.0735   21.5273 C   0  0  0  0  0  0  0  0  0  0  0  0
    7.8339  -13.7803   20.0979 C   0  0  0  0  0  0  0  0  0  0  0  0
    8.5400  -12.8949   19.3086 C   0  0  0  0  0  0  0  0  0  0  0  0
    8.0103  -12.9126   18.0508 N   0  0  0  0  0  0  0  0  0  0  0  0
    6.9904  -13.7956   18.0581 C   0  0  0  0  0  0  0  0  0  0  0  0
    6.8855  -14.3206   19.3012 N   0  0  0  0  0  0  0  0  0  0  0  0
    9.1640  -15.4604   23.1733 C   0  0  0  0  0  0  0  0  0  0  0  0
    8.3245  -15.5965   24.0828 O   0  0  0  0  0  0  0  0  0  0  0  0
   10.5558  -15.3625   23.4980 N   0  0  0  0  0  0  0  0  0  0  0  0
   10.9994  -15.4257   24.8580 C   0  0  0  0  0  0  0  0  0  0  0  0
   11.5269  -16.7848   25.1410 C   0  0  0  0  0  0  0  0  0  0  0  0
   12.7024  -17.0919   24.7711 O   0  0  0  0  0  0  0  0  0  0  0  0
   10.7667  -17.7263   25.7994 O   0  0  0  0  0  0  0  0  0  0  0  0
  1  2  1  0
  3  4  2  0
  3  2  1  0
  5  3  1  0
  6  5  1  0
  6  7  1  1
  8  7  1  0
  9  8  2  0
 10  9  1  0
 11 10  1  0
 11 12  2  0
 12  8  1  0
 13  6  1  0
 13 15  1  0
 14 13  2  0
 16 15  1  0
 17 16  1  0
 18 17  2  0
 19 17  1  0
M  END
$$$$
