GHG.pdb
     RDKit          3D

 19 19  0  0  1  0  0  0  0  0999 V2000
   12.8685  -15.6612   16.0894 N   0  0  0  0  0  0  0  0  0  0  0  0
   12.2144  -16.2810   17.1721 C   0  0  0  0  0  0  0  0  0  0  0  0
   12.1566  -15.3584   18.3354 C   0  0  0  0  0  0  0  0  0  0  0  0
   12.8492  -14.3146   18.3457 O   0  0  0  0  0  0  0  0  0  0  0  0
   11.3153  -15.6562   19.4412 N   0  0  0  0  0  0  0  0  0  0  0  0
   11.2237  -14.8261   20.6109 C   0  0  1  0  0  0  0  0  0  0  0  0
    9.7774  -14.6005   20.9298 C   0  0  0  0  0  0  0  0  0  0  0  0
    9.0033  -14.0834   19.7811 C   0  0  0  0  0  0  0  0  0  0  0  0
    8.9270  -12.7702   19.3625 C   0  0  0  0  0  0  0  0  0  0  0  0
    8.1120  -12.7068   18.2695 N   0  0  0  0  0  0  0  0  0  0  0  0
    7.6880  -13.9614   18.0126 C   0  0  0  0  0  0  0  0  0  0  0  0
    8.2303  -14.7946   18.9311 N   0  0  0  0  0  0  0  0  0  0  0  0
   11.8470  -15.5145   21.7694 C   0  0  0  0  0  0  0  0  0  0  0  0
   11.4666  -16.6502   22.1096 O   0  0  0  0  0  0  0  0  0  0  0  0
   12.8943  -14.8658   22.5005 N   0  0  0  0  0  0  0  0  0  0  0  0
   13.5474  -15.5257   23.5905 C   0  0  0  0  0  0  0  0  0  0  0  0
   14.9284  -15.8937   23.1870 C   0  0  0  0  0  0  0  0  0  0  0  0
   15.1077  -16.6718   22.1993 O   0  0  0  0  0  0  0  0  0  0  0  0
   16.0264  -15.4083   23.8627 O   0  0  0  0  0  0  0  0  0  0  0  0
  1  2  1  0
  3  4  2  0
  3  2  1  0
  5  3  1  0
  6  5  1  0
  6  7  1  1
  8  7  1  0
  9  8  2  0
 10  9  1  0
 11 10  1  0
 11 12  2  0
 12  8  1  0
 13  6  1  0
 13 15  1  0
 14 13  2  0
 16 15  1  0
 17 16  1  0
 18 17  2  0
 19 17  1  0
M  END
$$$$
