QFM.pdb
     RDKit          3D

 29 29  0  0  1  0  0  0  0  0999 V2000
   13.9228  -18.2036   18.0135 N   0  0  0  0  0  0  0  0  0  0  0  0
   12.7985  -18.6792   17.3008 C   0  0  0  0  0  0  0  0  0  0  0  0
   12.9643  -19.5420   16.4098 O   0  0  0  0  0  0  0  0  0  0  0  0
   11.4291  -18.1920   17.5712 C   0  0  0  0  0  0  0  0  0  0  0  0
   11.4129  -17.1390   18.6588 C   0  0  0  0  0  0  0  0  0  0  0  0
   10.8408  -17.7897   19.8964 C   0  0  2  0  0  0  0  0  0  0  0  0
    9.5469  -18.3336   19.5342 N   0  0  0  0  0  0  0  0  0  0  0  0
   10.6308  -16.8171   20.9954 C   0  0  0  0  0  0  0  0  0  0  0  0
   11.5317  -16.0359   21.3453 O   0  0  0  0  0  0  0  0  0  0  0  0
    9.3824  -16.7500   21.6857 N   0  0  0  0  0  0  0  0  0  0  0  0
    9.1901  -15.8889   22.8468 C   0  0  1  0  0  0  0  0  0  0  0  0
    7.6845  -15.6054   22.8979 C   0  0  0  0  0  0  0  0  0  0  0  0
    7.3471  -14.7234   24.0273 C   0  0  0  0  0  0  0  0  0  0  0  0
    7.7059  -13.3874   24.0330 C   0  0  0  0  0  0  0  0  0  0  0  0
    7.3821  -12.5641   25.1053 C   0  0  0  0  0  0  0  0  0  0  0  0
    6.6977  -13.0642   26.1820 C   0  0  0  0  0  0  0  0  0  0  0  0
    6.3371  -14.3772   26.1921 C   0  0  0  0  0  0  0  0  0  0  0  0
    6.6598  -15.2030   25.1207 C   0  0  0  0  0  0  0  0  0  0  0  0
    9.6536  -16.5295   24.0892 C   0  0  0  0  0  0  0  0  0  0  0  0
    9.4939  -17.7767   24.3196 O   0  0  0  0  0  0  0  0  0  0  0  0
   10.1611  -12.5218   29.3440 C   0  0  0  0  0  0  0  0  0  0  0  0
   10.5090  -14.1373   29.9898 S   0  0  0  0  0  0  0  0  0  0  0  0
   10.6117  -15.4764   28.8248 C   0  0  0  0  0  0  0  0  0  0  0  0
   10.4256  -15.1295   27.3945 C   0  0  0  0  0  0  0  0  0  0  0  0
   10.6459  -16.1983   26.3946 C   0  0  2  0  0  0  0  0  0  0  0  0
   10.3021  -15.7358   25.0690 N   0  0  0  0  0  0  0  0  0  0  0  0
   10.0493  -17.4901   26.7282 C   0  0  0  0  0  0  0  0  0  0  0  0
    8.8251  -17.6786   26.5699 O   0  0  0  0  0  0  0  0  0  0  0  0
   10.8002  -18.5464   27.2264 O   0  0  0  0  0  0  0  0  0  0  0  0
  2  3  2  0
  2  1  1  0
  4  2  1  0
  5  4  1  0
  5  6  1  0
  6  8  1  0
  6  7  1  6
  8  9  2  0
 10 11  1  0
 10  8  1  0
 11 12  1  1
 12 13  1  0
 13 18  2  0
 14 15  2  0
 14 13  1  0
 15 16  1  0
 16 17  2  0
 18 17  1  0
 19 20  2  0
 19 11  1  0
 21 22  1  0
 22 23  1  0
 23 24  1  0
 25 24  1  1
 25 27  1  0
 25 26  1  0
 26 19  1  0
 27 29  1  0
 28 27  2  0
M  END
$$$$
