QFM.pdb
     RDKit          3D

 29 29  0  0  1  0  0  0  0  0999 V2000
   13.5476  -18.6701   17.7435 N   0  0  0  0  0  0  0  0  0  0  0  0
   12.4615  -18.4992   16.8550 C   0  0  0  0  0  0  0  0  0  0  0  0
   12.6539  -18.6377   15.6263 O   0  0  0  0  0  0  0  0  0  0  0  0
   11.1018  -18.1613   17.3271 C   0  0  0  0  0  0  0  0  0  0  0  0
   11.0292  -18.1109   18.8385 C   0  0  0  0  0  0  0  0  0  0  0  0
    9.5900  -17.8316   19.2033 C   0  0  2  0  0  0  0  0  0  0  0  0
    8.9161  -17.4084   17.9917 N   0  0  0  0  0  0  0  0  0  0  0  0
    9.4651  -16.7375   20.1958 C   0  0  0  0  0  0  0  0  0  0  0  0
   10.1362  -15.6965   20.0950 O   0  0  0  0  0  0  0  0  0  0  0  0
    8.5665  -16.8492   21.3002 N   0  0  0  0  0  0  0  0  0  0  0  0
    8.5810  -15.8962   22.4040 C   0  0  1  0  0  0  0  0  0  0  0  0
    7.1332  -15.8297   22.9029 C   0  0  0  0  0  0  0  0  0  0  0  0
    6.9686  -14.7782   23.9200 C   0  0  0  0  0  0  0  0  0  0  0  0
    6.4008  -15.0475   25.1524 C   0  0  0  0  0  0  0  0  0  0  0  0
    6.2503  -14.0464   26.1051 C   0  0  0  0  0  0  0  0  0  0  0  0
    6.6641  -12.7675   25.8388 C   0  0  0  0  0  0  0  0  0  0  0  0
    7.2251  -12.4856   24.6305 C   0  0  0  0  0  0  0  0  0  0  0  0
    7.3768  -13.4853   23.6757 C   0  0  0  0  0  0  0  0  0  0  0  0
    9.4960  -16.3145   23.4794 C   0  0  0  0  0  0  0  0  0  0  0  0
   10.5566  -16.9917   23.2539 O   0  0  0  0  0  0  0  0  0  0  0  0
    9.7212  -12.5294   28.8883 C   0  0  0  0  0  0  0  0  0  0  0  0
   10.7410  -13.9167   29.3165 S   0  0  0  0  0  0  0  0  0  0  0  0
   10.7728  -15.2860   28.1830 C   0  0  0  0  0  0  0  0  0  0  0  0
   10.0249  -15.1158   26.9132 C   0  0  0  0  0  0  0  0  0  0  0  0
   10.0425  -16.2397   25.9502 C   0  0  2  0  0  0  0  0  0  0  0  0
    9.1924  -15.9539   24.8166 N   0  0  0  0  0  0  0  0  0  0  0  0
    9.8030  -17.5581   26.5337 C   0  0  0  0  0  0  0  0  0  0  0  0
    8.6564  -18.0526   26.5242 O   0  0  0  0  0  0  0  0  0  0  0  0
   10.8180  -18.3071   27.1138 O   0  0  0  0  0  0  0  0  0  0  0  0
  2  3  2  0
  2  1  1  0
  4  2  1  0
  5  4  1  0
  5  6  1  0
  6  8  1  0
  6  7  1  6
  8  9  2  0
 10 11  1  0
 10  8  1  0
 11 12  1  1
 12 13  1  0
 13 18  2  0
 14 15  2  0
 14 13  1  0
 15 16  1  0
 16 17  2  0
 18 17  1  0
 19 20  2  0
 19 11  1  0
 21 22  1  0
 22 23  1  0
 23 24  1  0
 25 24  1  1
 25 27  1  0
 25 26  1  0
 26 19  1  0
 27 29  1  0
 28 27  2  0
M  END
$$$$
