QFM.pdb
     RDKit          3D

 29 29  0  0  1  0  0  0  0  0999 V2000
   13.0388  -16.4881   16.3570 N   0  0  0  0  0  0  0  0  0  0  0  0
   12.1209  -17.5605   16.2828 C   0  0  0  0  0  0  0  0  0  0  0  0
   12.2758  -18.4330   15.3993 O   0  0  0  0  0  0  0  0  0  0  0  0
   10.9805  -17.6887   17.2149 C   0  0  0  0  0  0  0  0  0  0  0  0
   11.0246  -16.6370   18.3031 C   0  0  0  0  0  0  0  0  0  0  0  0
   10.7369  -17.3395   19.6094 C   0  0  2  0  0  0  0  0  0  0  0  0
    9.5520  -18.1497   19.4073 N   0  0  0  0  0  0  0  0  0  0  0  0
   10.4505  -16.3859   20.7078 C   0  0  0  0  0  0  0  0  0  0  0  0
   11.2895  -15.5406   21.0623 O   0  0  0  0  0  0  0  0  0  0  0  0
    9.1973  -16.4118   21.3923 N   0  0  0  0  0  0  0  0  0  0  0  0
    8.9630  -15.6275   22.5992 C   0  0  1  0  0  0  0  0  0  0  0  0
    7.4634  -15.3101   22.5931 C   0  0  0  0  0  0  0  0  0  0  0  0
    7.0861  -14.5003   23.7633 C   0  0  0  0  0  0  0  0  0  0  0  0
    7.3847  -13.1515   23.8352 C   0  0  0  0  0  0  0  0  0  0  0  0
    7.0236  -12.3969   24.9454 C   0  0  0  0  0  0  0  0  0  0  0  0
    6.3616  -12.9790   25.9944 C   0  0  0  0  0  0  0  0  0  0  0  0
    6.0601  -14.3058   25.9395 C   0  0  0  0  0  0  0  0  0  0  0  0
    6.4202  -15.0630   24.8300 C   0  0  0  0  0  0  0  0  0  0  0  0
    9.3466  -16.3629   23.8159 C   0  0  0  0  0  0  0  0  0  0  0  0
    9.3217  -17.6393   23.8833 O   0  0  0  0  0  0  0  0  0  0  0  0
   10.7590  -12.8093   29.4420 C   0  0  0  0  0  0  0  0  0  0  0  0
   10.8870  -14.5218   29.8877 S   0  0  0  0  0  0  0  0  0  0  0  0
   10.8821  -15.7110   28.5660 C   0  0  0  0  0  0  0  0  0  0  0  0
   10.3438  -15.2534   27.2616 C   0  0  0  0  0  0  0  0  0  0  0  0
   10.3241  -16.2274   26.1473 C   0  0  2  0  0  0  0  0  0  0  0  0
    9.7599  -15.6309   24.9578 N   0  0  0  0  0  0  0  0  0  0  0  0
    9.7422  -17.5280   26.4727 C   0  0  0  0  0  0  0  0  0  0  0  0
   10.4716  -18.4674   26.8531 O   0  0  0  0  0  0  0  0  0  0  0  0
    8.3793  -17.7749   26.3759 O   0  0  0  0  0  0  0  0  0  0  0  0
  2  3  2  0
  2  1  1  0
  4  2  1  0
  5  4  1  0
  5  6  1  0
  6  8  1  0
  6  7  1  6
  8  9  2  0
 10 11  1  0
 10  8  1  0
 11 12  1  1
 12 13  1  0
 13 18  2  0
 14 15  2  0
 14 13  1  0
 15 16  1  0
 16 17  2  0
 18 17  1  0
 19 20  2  0
 19 11  1  0
 21 22  1  0
 22 23  1  0
 23 24  1  0
 25 24  1  1
 25 27  1  0
 25 26  1  0
 26 19  1  0
 27 29  1  0
 28 27  2  0
M  END
$$$$
