QFM.pdb
     RDKit          3D

 29 29  0  0  1  0  0  0  0  0999 V2000
   11.3035  -15.6246   15.6895 N   0  0  0  0  0  0  0  0  0  0  0  0
   10.7946  -16.9370   15.8201 C   0  0  0  0  0  0  0  0  0  0  0  0
   10.5759  -17.6095   14.7878 O   0  0  0  0  0  0  0  0  0  0  0  0
   10.5105  -17.5454   17.1372 C   0  0  0  0  0  0  0  0  0  0  0  0
   10.9330  -16.6412   18.2757 C   0  0  0  0  0  0  0  0  0  0  0  0
   10.7409  -17.4213   19.5551 C   0  0  2  0  0  0  0  0  0  0  0  0
    9.5474  -18.2271   19.3895 N   0  0  0  0  0  0  0  0  0  0  0  0
   10.5299  -16.5361   20.7254 C   0  0  0  0  0  0  0  0  0  0  0  0
   11.3708  -15.6786   21.0446 O   0  0  0  0  0  0  0  0  0  0  0  0
    9.3497  -16.6441   21.5223 N   0  0  0  0  0  0  0  0  0  0  0  0
    9.1515  -15.8335   22.7183 C   0  0  1  0  0  0  0  0  0  0  0  0
    7.6370  -15.6189   22.8177 C   0  0  0  0  0  0  0  0  0  0  0  0
    7.3050  -14.6517   23.8769 C   0  0  0  0  0  0  0  0  0  0  0  0
    6.7381  -15.0556   25.0723 C   0  0  0  0  0  0  0  0  0  0  0  0
    6.4287  -14.1332   26.0653 C   0  0  0  0  0  0  0  0  0  0  0  0
    6.6811  -12.7997   25.8764 C   0  0  0  0  0  0  0  0  0  0  0  0
    7.2388  -12.3855   24.7052 C   0  0  0  0  0  0  0  0  0  0  0  0
    7.5493  -13.3062   23.7103 C   0  0  0  0  0  0  0  0  0  0  0  0
    9.6756  -16.4960   23.9246 C   0  0  0  0  0  0  0  0  0  0  0  0
    9.8841  -17.7560   23.9801 O   0  0  0  0  0  0  0  0  0  0  0  0
    9.5113  -13.0671   29.7434 C   0  0  0  0  0  0  0  0  0  0  0  0
   10.0633  -14.7044   30.1462 S   0  0  0  0  0  0  0  0  0  0  0  0
   10.5705  -15.7483   28.7993 C   0  0  0  0  0  0  0  0  0  0  0  0
   10.1312  -15.3428   27.4416 C   0  0  0  0  0  0  0  0  0  0  0  0
   10.4726  -16.2382   26.3136 C   0  0  2  0  0  0  0  0  0  0  0  0
    9.9610  -15.7096   25.0694 N   0  0  0  0  0  0  0  0  0  0  0  0
   10.1441  -17.6472   26.5208 C   0  0  0  0  0  0  0  0  0  0  0  0
   11.0527  -18.4915   26.6651 O   0  0  0  0  0  0  0  0  0  0  0  0
    8.8335  -18.1035   26.5660 O   0  0  0  0  0  0  0  0  0  0  0  0
  2  3  2  0
  2  1  1  0
  4  2  1  0
  5  4  1  0
  5  6  1  0
  6  8  1  0
  6  7  1  6
  8  9  2  0
 10 11  1  0
 10  8  1  0
 11 12  1  1
 12 13  1  0
 13 18  2  0
 14 15  2  0
 14 13  1  0
 15 16  1  0
 16 17  2  0
 18 17  1  0
 19 20  2  0
 19 11  1  0
 21 22  1  0
 22 23  1  0
 23 24  1  0
 25 24  1  1
 25 27  1  0
 25 26  1  0
 26 19  1  0
 27 29  1  0
 28 27  2  0
M  END
$$$$
