QFM.pdb
     RDKit          3D

 29 29  0  0  1  0  0  0  0  0999 V2000
    8.3956  -18.5805   16.7628 N   0  0  0  0  0  0  0  0  0  0  0  0
    9.7528  -18.9559   16.8865 C   0  0  0  0  0  0  0  0  0  0  0  0
   10.2560  -19.7094   16.0235 O   0  0  0  0  0  0  0  0  0  0  0  0
   10.6019  -18.4885   18.0029 C   0  0  0  0  0  0  0  0  0  0  0  0
    9.8096  -17.6844   19.0117 C   0  0  0  0  0  0  0  0  0  0  0  0
   10.3738  -18.0063   20.3757 C   0  0  2  0  0  0  0  0  0  0  0  0
    9.5904  -19.1002   20.9152 N   0  0  0  0  0  0  0  0  0  0  0  0
   10.2606  -16.8637   21.3134 C   0  0  0  0  0  0  0  0  0  0  0  0
   11.2029  -16.0708   21.4797 O   0  0  0  0  0  0  0  0  0  0  0  0
    9.0606  -16.6408   22.0552 N   0  0  0  0  0  0  0  0  0  0  0  0
    8.9014  -15.4876   22.9334 C   0  0  1  0  0  0  0  0  0  0  0  0
    7.4360  -15.5174   23.3821 C   0  0  0  0  0  0  0  0  0  0  0  0
    7.1210  -14.3687   24.2474 C   0  0  0  0  0  0  0  0  0  0  0  0
    6.3973  -14.5217   25.4164 C   0  0  0  0  0  0  0  0  0  0  0  0
    6.1056  -13.4295   26.2255 C   0  0  0  0  0  0  0  0  0  0  0  0
    6.5322  -12.1747   25.8774 C   0  0  0  0  0  0  0  0  0  0  0  0
    7.2456  -12.0069   24.7298 C   0  0  0  0  0  0  0  0  0  0  0  0
    7.5388  -13.0977   23.9186 C   0  0  0  0  0  0  0  0  0  0  0  0
    9.8131  -15.5460   24.0883 C   0  0  0  0  0  0  0  0  0  0  0  0
   10.6313  -14.6037   24.3655 O   0  0  0  0  0  0  0  0  0  0  0  0
    9.1127  -13.1723   28.9425 C   0  0  0  0  0  0  0  0  0  0  0  0
   10.4132  -14.2635   29.4581 S   0  0  0  0  0  0  0  0  0  0  0  0
   10.7305  -15.6898   28.4453 C   0  0  0  0  0  0  0  0  0  0  0  0
   10.1690  -15.6689   27.0723 C   0  0  0  0  0  0  0  0  0  0  0  0
   10.5016  -16.7997   26.1773 C   0  0  2  0  0  0  0  0  0  0  0  0
    9.7849  -16.6890   24.9269 N   0  0  0  0  0  0  0  0  0  0  0  0
   10.3966  -18.1235   26.7876 C   0  0  0  0  0  0  0  0  0  0  0  0
   11.0691  -18.4051   27.8014 O   0  0  0  0  0  0  0  0  0  0  0  0
    9.5616  -19.1095   26.2795 O   0  0  0  0  0  0  0  0  0  0  0  0
  2  3  2  0
  2  1  1  0
  4  2  1  0
  5  4  1  0
  5  6  1  0
  6  8  1  0
  6  7  1  1
  8  9  2  0
 10 11  1  0
 10  8  1  0
 11 12  1  1
 12 13  1  0
 13 18  2  0
 14 15  2  0
 14 13  1  0
 15 16  1  0
 16 17  2  0
 18 17  1  0
 19 20  2  0
 19 11  1  0
 21 22  1  0
 22 23  1  0
 23 24  1  0
 25 24  1  1
 25 27  1  0
 25 26  1  0
 26 19  1  0
 27 29  1  0
 28 27  2  0
M  END
$$$$
