QFM.pdb
     RDKit          3D

 29 29  0  0  1  0  0  0  0  0999 V2000
   13.2716  -18.4263   18.1365 N   0  0  0  0  0  0  0  0  0  0  0  0
   12.1988  -18.9988   17.4157 C   0  0  0  0  0  0  0  0  0  0  0  0
   12.4185  -19.9899   16.6841 O   0  0  0  0  0  0  0  0  0  0  0  0
   10.8218  -18.4664   17.4953 C   0  0  0  0  0  0  0  0  0  0  0  0
   10.7300  -17.2875   18.4408 C   0  0  0  0  0  0  0  0  0  0  0  0
   10.2882  -17.8281   19.7806 C   0  0  2  0  0  0  0  0  0  0  0  0
    8.9532  -18.3654   19.6058 N   0  0  0  0  0  0  0  0  0  0  0  0
   10.2175  -16.7700   20.8166 C   0  0  0  0  0  0  0  0  0  0  0  0
   11.1611  -15.9820   20.9982 O   0  0  0  0  0  0  0  0  0  0  0  0
    9.0585  -16.6257   21.6385 N   0  0  0  0  0  0  0  0  0  0  0  0
    9.0077  -15.6670   22.7363 C   0  0  1  0  0  0  0  0  0  0  0  0
    7.5445  -15.2173   22.8160 C   0  0  0  0  0  0  0  0  0  0  0  0
    7.3401  -14.2645   23.9195 C   0  0  0  0  0  0  0  0  0  0  0  0
    7.8094  -12.9651   23.8486 C   0  0  0  0  0  0  0  0  0  0  0  0
    7.6106  -12.0742   24.8970 C   0  0  0  0  0  0  0  0  0  0  0  0
    6.9423  -12.4696   26.0261 C   0  0  0  0  0  0  0  0  0  0  0  0
    6.4739  -13.7453   26.1119 C   0  0  0  0  0  0  0  0  0  0  0  0
    6.6714  -14.6385   25.0645 C   0  0  0  0  0  0  0  0  0  0  0  0
    9.4515  -16.2631   24.0077 C   0  0  0  0  0  0  0  0  0  0  0  0
    8.8207  -17.2195   24.5747 O   0  0  0  0  0  0  0  0  0  0  0  0
    9.7788  -12.5222   28.8069 C   0  0  0  0  0  0  0  0  0  0  0  0
   10.3799  -14.0381   29.5058 S   0  0  0  0  0  0  0  0  0  0  0  0
   10.8356  -15.3327   28.3757 C   0  0  0  0  0  0  0  0  0  0  0  0
   10.6056  -15.0688   26.9341 C   0  0  0  0  0  0  0  0  0  0  0  0
   11.0445  -16.1011   25.9686 C   0  0  2  0  0  0  0  0  0  0  0  0
   10.6223  -15.7597   24.6290 N   0  0  0  0  0  0  0  0  0  0  0  0
   10.7206  -17.4762   26.3431 C   0  0  0  0  0  0  0  0  0  0  0  0
   11.6296  -18.2795   26.6393 O   0  0  0  0  0  0  0  0  0  0  0  0
    9.4140  -17.9441   26.3863 O   0  0  0  0  0  0  0  0  0  0  0  0
  2  3  2  0
  2  1  1  0
  4  2  1  0
  5  4  1  0
  5  6  1  0
  6  8  1  0
  6  7  1  6
  8  9  2  0
 10 11  1  0
 10  8  1  0
 11 12  1  1
 12 13  1  0
 13 18  2  0
 14 15  2  0
 14 13  1  0
 15 16  1  0
 16 17  2  0
 18 17  1  0
 19 20  2  0
 19 11  1  0
 21 22  1  0
 22 23  1  0
 23 24  1  0
 25 24  1  1
 25 27  1  0
 25 26  1  0
 26 19  1  0
 27 29  1  0
 28 27  2  0
M  END
$$$$
