QFM.pdb
     RDKit          3D

 29 29  0  0  1  0  0  0  0  0999 V2000
    9.2799  -12.6886   17.1922 N   0  0  0  0  0  0  0  0  0  0  0  0
    8.7976  -13.9868   16.9090 C   0  0  0  0  0  0  0  0  0  0  0  0
    8.5662  -14.3033   15.7207 O   0  0  0  0  0  0  0  0  0  0  0  0
    8.5559  -14.9874   17.9702 C   0  0  0  0  0  0  0  0  0  0  0  0
    9.7100  -15.9588   18.0986 C   0  0  0  0  0  0  0  0  0  0  0  0
    9.4482  -16.7971   19.3280 C   0  0  2  0  0  0  0  0  0  0  0  0
    8.1080  -17.3348   19.2014 N   0  0  0  0  0  0  0  0  0  0  0  0
    9.4979  -15.9957   20.5742 C   0  0  0  0  0  0  0  0  0  0  0  0
   10.5076  -15.3378   20.8773 O   0  0  0  0  0  0  0  0  0  0  0  0
    8.3825  -15.9569   21.4653 N   0  0  0  0  0  0  0  0  0  0  0  0
    8.3213  -15.0209   22.5818 C   0  0  1  0  0  0  0  0  0  0  0  0
    6.9368  -15.2242   23.2075 C   0  0  0  0  0  0  0  0  0  0  0  0
    6.6401  -14.1742   24.1959 C   0  0  0  0  0  0  0  0  0  0  0  0
    6.8696  -12.8379   23.9214 C   0  0  0  0  0  0  0  0  0  0  0  0
    6.5857  -11.8551   24.8627 C   0  0  0  0  0  0  0  0  0  0  0  0
    6.0706  -12.1944   26.0862 C   0  0  0  0  0  0  0  0  0  0  0  0
    5.8389  -13.5054   26.3724 C   0  0  0  0  0  0  0  0  0  0  0  0
    6.1220  -14.4906   25.4326 C   0  0  0  0  0  0  0  0  0  0  0  0
    9.3906  -15.2661   23.5641 C   0  0  0  0  0  0  0  0  0  0  0  0
   10.3918  -14.4828   23.6992 O   0  0  0  0  0  0  0  0  0  0  0  0
   12.1845  -13.0564   28.8644 C   0  0  0  0  0  0  0  0  0  0  0  0
   10.7998  -14.1642   28.8087 S   0  0  0  0  0  0  0  0  0  0  0  0
   10.9112  -15.5540   27.7055 C   0  0  0  0  0  0  0  0  0  0  0  0
   10.0334  -15.5262   26.5100 C   0  0  0  0  0  0  0  0  0  0  0  0
   10.1485  -16.6448   25.5476 C   0  0  2  0  0  0  0  0  0  0  0  0
    9.3099  -16.4135   24.3933 N   0  0  0  0  0  0  0  0  0  0  0  0
    9.9817  -17.9771   26.1248 C   0  0  0  0  0  0  0  0  0  0  0  0
    8.9325  -18.6238   25.9243 O   0  0  0  0  0  0  0  0  0  0  0  0
   10.9616  -18.5738   26.9068 O   0  0  0  0  0  0  0  0  0  0  0  0
  2  3  2  0
  2  1  1  0
  4  2  1  0
  5  4  1  0
  5  6  1  0
  6  8  1  0
  6  7  1  6
  8  9  2  0
 10 11  1  0
 10  8  1  0
 11 12  1  1
 12 13  1  0
 13 18  2  0
 14 15  2  0
 14 13  1  0
 15 16  1  0
 16 17  2  0
 18 17  1  0
 19 20  2  0
 19 11  1  0
 21 22  1  0
 22 23  1  0
 23 24  1  0
 25 24  1  1
 25 27  1  0
 25 26  1  0
 26 19  1  0
 27 29  1  0
 28 27  2  0
M  END
$$$$
