QFM.pdb
     RDKit          3D

 29 29  0  0  1  0  0  0  0  0999 V2000
   11.4635  -18.5522   15.5642 N   0  0  0  0  0  0  0  0  0  0  0  0
   12.2123  -18.6761   16.7568 C   0  0  0  0  0  0  0  0  0  0  0  0
   13.4362  -18.4162   16.7356 O   0  0  0  0  0  0  0  0  0  0  0  0
   11.5992  -19.1033   18.0324 C   0  0  0  0  0  0  0  0  0  0  0  0
   11.6784  -18.0173   19.0843 C   0  0  0  0  0  0  0  0  0  0  0  0
   10.3812  -18.0547   19.8577 C   0  0  2  0  0  0  0  0  0  0  0  0
    9.3066  -17.8928   18.8984 N   0  0  0  0  0  0  0  0  0  0  0  0
   10.2813  -16.9484   20.8394 C   0  0  0  0  0  0  0  0  0  0  0  0
   11.2031  -16.1269   20.9804 O   0  0  0  0  0  0  0  0  0  0  0  0
    9.1184  -16.7945   21.6540 N   0  0  0  0  0  0  0  0  0  0  0  0
    9.0794  -15.8580   22.7712 C   0  0  1  0  0  0  0  0  0  0  0  0
    7.6268  -15.3743   22.8459 C   0  0  0  0  0  0  0  0  0  0  0  0
    7.4323  -14.4458   23.9717 C   0  0  0  0  0  0  0  0  0  0  0  0
    7.9549  -13.1652   23.9506 C   0  0  0  0  0  0  0  0  0  0  0  0
    7.7650  -12.2971   25.0197 C   0  0  0  0  0  0  0  0  0  0  0  0
    7.0527  -12.6970   26.1199 C   0  0  0  0  0  0  0  0  0  0  0  0
    6.5316  -13.9545   26.1566 C   0  0  0  0  0  0  0  0  0  0  0  0
    6.7201  -14.8248   25.0884 C   0  0  0  0  0  0  0  0  0  0  0  0
    9.4953  -16.4911   24.0340 C   0  0  0  0  0  0  0  0  0  0  0  0
    8.9266  -17.5381   24.4971 O   0  0  0  0  0  0  0  0  0  0  0  0
    9.6332  -12.4263   28.8662 C   0  0  0  0  0  0  0  0  0  0  0  0
    9.6066  -14.0796   29.5095 S   0  0  0  0  0  0  0  0  0  0  0  0
   10.3049  -15.3610   28.4939 C   0  0  0  0  0  0  0  0  0  0  0  0
   10.2068  -15.1737   27.0256 C   0  0  0  0  0  0  0  0  0  0  0  0
   10.8382  -16.1944   26.1596 C   0  0  2  0  0  0  0  0  0  0  0  0
   10.5669  -15.9205   24.7665 N   0  0  0  0  0  0  0  0  0  0  0  0
   10.5685  -17.5799   26.5387 C   0  0  0  0  0  0  0  0  0  0  0  0
   11.4906  -18.3087   26.9604 O   0  0  0  0  0  0  0  0  0  0  0  0
    9.3008  -18.1391   26.4496 O   0  0  0  0  0  0  0  0  0  0  0  0
  2  3  2  0
  2  1  1  0
  4  2  1  0
  5  4  1  0
  5  6  1  0
  6  8  1  0
  6  7  1  6
  8  9  2  0
 10 11  1  0
 10  8  1  0
 11 12  1  1
 12 13  1  0
 13 18  2  0
 14 15  2  0
 14 13  1  0
 15 16  1  0
 16 17  2  0
 18 17  1  0
 19 20  2  0
 19 11  1  0
 21 22  1  0
 22 23  1  0
 23 24  1  0
 25 24  1  1
 25 27  1  0
 25 26  1  0
 26 19  1  0
 27 29  1  0
 28 27  2  0
M  END
$$$$
