QFM.pdb
     RDKit          3D

 29 29  0  0  1  0  0  0  0  0999 V2000
   12.6012  -17.3695   16.3572 N   0  0  0  0  0  0  0  0  0  0  0  0
   11.2505  -17.6358   16.0362 C   0  0  0  0  0  0  0  0  0  0  0  0
   10.8148  -17.2980   14.9129 O   0  0  0  0  0  0  0  0  0  0  0  0
   10.3310  -18.3013   16.9836 C   0  0  0  0  0  0  0  0  0  0  0  0
    9.6202  -17.3017   17.8712 C   0  0  0  0  0  0  0  0  0  0  0  0
    9.6703  -17.8463   19.2795 C   0  0  2  0  0  0  0  0  0  0  0  0
    8.4965  -18.6779   19.4584 N   0  0  0  0  0  0  0  0  0  0  0  0
    9.6220  -16.7709   20.2988 C   0  0  0  0  0  0  0  0  0  0  0  0
   10.4456  -15.8403   20.2930 O   0  0  0  0  0  0  0  0  0  0  0  0
    8.6238  -16.7738   21.3201 N   0  0  0  0  0  0  0  0  0  0  0  0
    8.6159  -15.7847   22.3917 C   0  0  1  0  0  0  0  0  0  0  0  0
    7.1371  -15.4689   22.6426 C   0  0  0  0  0  0  0  0  0  0  0  0
    6.9758  -14.5392   23.7727 C   0  0  0  0  0  0  0  0  0  0  0  0
    7.4097  -13.2278   23.6971 C   0  0  0  0  0  0  0  0  0  0  0  0
    7.2523  -12.3590   24.7708 C   0  0  0  0  0  0  0  0  0  0  0  0
    6.6612  -12.7885   25.9299 C   0  0  0  0  0  0  0  0  0  0  0  0
    6.2285  -14.0765   26.0208 C   0  0  0  0  0  0  0  0  0  0  0  0
    6.3847  -14.9477   24.9481 C   0  0  0  0  0  0  0  0  0  0  0  0
    9.2666  -16.2909   23.6119 C   0  0  0  0  0  0  0  0  0  0  0  0
    8.9853  -17.4307   24.1178 O   0  0  0  0  0  0  0  0  0  0  0  0
   10.4628  -13.0406   30.0978 C   0  0  0  0  0  0  0  0  0  0  0  0
    9.5765  -14.3249   29.2535 S   0  0  0  0  0  0  0  0  0  0  0  0
   10.4600  -15.2490   28.0181 C   0  0  0  0  0  0  0  0  0  0  0  0
   10.0393  -15.0482   26.6098 C   0  0  0  0  0  0  0  0  0  0  0  0
   10.7970  -15.7630   25.5584 C   0  0  2  0  0  0  0  0  0  0  0  0
   10.2429  -15.4863   24.2523 N   0  0  0  0  0  0  0  0  0  0  0  0
   11.0060  -17.1880   25.8068 C   0  0  0  0  0  0  0  0  0  0  0  0
   12.1629  -17.6484   25.8997 O   0  0  0  0  0  0  0  0  0  0  0  0
    9.9497  -18.0781   25.9481 O   0  0  0  0  0  0  0  0  0  0  0  0
  2  3  2  0
  2  1  1  0
  4  2  1  0
  5  4  1  0
  5  6  1  0
  6  8  1  0
  6  7  1  1
  8  9  2  0
 10 11  1  0
 10  8  1  0
 11 12  1  1
 12 13  1  0
 13 18  2  0
 14 15  2  0
 14 13  1  0
 15 16  1  0
 16 17  2  0
 18 17  1  0
 19 20  2  0
 19 11  1  0
 21 22  1  0
 22 23  1  0
 23 24  1  0
 25 24  1  1
 25 27  1  0
 25 26  1  0
 26 19  1  0
 27 29  1  0
 28 27  2  0
M  END
$$$$
