QFM.pdb
     RDKit          3D

 29 29  0  0  1  0  0  0  0  0999 V2000
    9.0622  -16.6538   16.8119 N   0  0  0  0  0  0  0  0  0  0  0  0
    9.9565  -17.7315   16.6190 C   0  0  0  0  0  0  0  0  0  0  0  0
    9.7907  -18.4905   15.6381 O   0  0  0  0  0  0  0  0  0  0  0  0
   11.0844  -17.9947   17.5378 C   0  0  0  0  0  0  0  0  0  0  0  0
   11.1718  -16.9519   18.6319 C   0  0  0  0  0  0  0  0  0  0  0  0
   10.8929  -17.6569   19.9386 C   0  0  2  0  0  0  0  0  0  0  0  0
    9.7277  -18.4944   19.7325 N   0  0  0  0  0  0  0  0  0  0  0  0
   10.5790  -16.7070   21.0326 C   0  0  0  0  0  0  0  0  0  0  0  0
   11.4213  -15.8868   21.4352 O   0  0  0  0  0  0  0  0  0  0  0  0
    9.2947  -16.7074   21.6573 N   0  0  0  0  0  0  0  0  0  0  0  0
    8.9998  -15.8665   22.8116 C   0  0  1  0  0  0  0  0  0  0  0  0
    7.4877  -15.6204   22.7597 C   0  0  0  0  0  0  0  0  0  0  0  0
    7.0572  -14.7228   23.8444 C   0  0  0  0  0  0  0  0  0  0  0  0
    7.3487  -13.3707   23.8220 C   0  0  0  0  0  0  0  0  0  0  0  0
    6.9371  -12.5328   24.8520 C   0  0  0  0  0  0  0  0  0  0  0  0
    6.2312  -13.0341   25.9140 C   0  0  0  0  0  0  0  0  0  0  0  0
    5.9359  -14.3629   25.9514 C   0  0  0  0  0  0  0  0  0  0  0  0
    6.3465  -15.2033   24.9223 C   0  0  0  0  0  0  0  0  0  0  0  0
    9.3911  -16.5117   24.0762 C   0  0  0  0  0  0  0  0  0  0  0  0
    9.2441  -17.7648   24.2819 O   0  0  0  0  0  0  0  0  0  0  0  0
   10.6497  -12.5726   29.4472 C   0  0  0  0  0  0  0  0  0  0  0  0
   11.4240  -14.1272   29.8094 S   0  0  0  0  0  0  0  0  0  0  0  0
   11.0985  -15.4782   28.7004 C   0  0  0  0  0  0  0  0  0  0  0  0
   10.6680  -15.1219   27.3263 C   0  0  0  0  0  0  0  0  0  0  0  0
   10.3929  -16.2296   26.3841 C   0  0  2  0  0  0  0  0  0  0  0  0
    9.9525  -15.7159   25.1068 N   0  0  0  0  0  0  0  0  0  0  0  0
    9.5326  -17.2884   26.9082 C   0  0  0  0  0  0  0  0  0  0  0  0
   10.0293  -18.2668   27.5043 O   0  0  0  0  0  0  0  0  0  0  0  0
    8.1513  -17.2567   26.7708 O   0  0  0  0  0  0  0  0  0  0  0  0
  2  3  2  0
  2  1  1  0
  4  2  1  0
  5  4  1  0
  5  6  1  0
  6  8  1  0
  6  7  1  6
  8  9  2  0
 10 11  1  0
 10  8  1  0
 11 12  1  1
 12 13  1  0
 13 18  2  0
 14 15  2  0
 14 13  1  0
 15 16  1  0
 16 17  2  0
 18 17  1  0
 19 20  2  0
 19 11  1  0
 21 22  1  0
 22 23  1  0
 23 24  1  0
 25 24  1  1
 25 27  1  0
 25 26  1  0
 26 19  1  0
 27 29  1  0
 28 27  2  0
M  END
$$$$
