TIA.pdb
     RDKit          3D

 21 20  0  0  1  0  0  0  0  0999 V2000
   19.3974   -8.3174  -19.3523 C   0  0  0  0  0  0  0  0  0  0  0  0
   18.2557   -9.2877  -19.1742 C   0  0  1  0  0  0  0  0  0  0  0  0
   17.7783   -9.7454  -20.4182 O   0  0  0  0  0  0  0  0  0  0  0  0
   18.7513  -10.4690  -18.3683 C   0  0  2  0  0  0  0  0  0  0  0  0
   17.7248  -11.4777  -18.2148 N   0  0  0  0  0  0  0  0  0  0  0  0
   19.3013  -10.0575  -17.0565 C   0  0  0  0  0  0  0  0  0  0  0  0
   18.5541   -9.8352  -16.0718 O   0  0  0  0  0  0  0  0  0  0  0  0
   23.2848  -12.4582  -14.5054 C   0  0  0  0  0  0  0  0  0  0  0  0
   22.1012  -11.6189  -14.8387 C   0  0  0  0  0  0  0  0  0  0  0  0
   22.3746  -10.1531  -15.0054 C   0  0  2  0  0  0  0  0  0  0  0  0
   22.9295   -9.5837  -13.7230 C   0  0  0  0  0  0  0  0  0  0  0  0
   21.2570   -9.3692  -15.6053 C   0  0  2  0  0  0  0  0  0  0  0  0
   20.7173   -9.8873  -16.8279 N   0  0  0  0  0  0  0  0  0  0  0  0
   21.5639   -7.9156  -15.6914 C   0  0  0  0  0  0  0  0  0  0  0  0
   22.5019   -7.5844  -16.4629 O   0  0  0  0  0  0  0  0  0  0  0  0
   20.0323   -4.6297  -15.1017 C   0  0  0  0  0  0  0  0  0  0  0  0
   21.2399   -5.5345  -15.0856 C   0  0  2  0  0  0  0  0  0  0  0  0
   20.8732   -6.9288  -14.9713 N   0  0  0  0  0  0  0  0  0  0  0  0
   22.1989   -5.1572  -14.0231 C   0  0  0  0  0  0  0  0  0  0  0  0
   23.1758   -4.1854  -14.1922 O   0  0  0  0  0  0  0  0  0  0  0  0
   22.1450   -5.7310  -12.9053 O   0  0  0  0  0  0  0  0  0  0  0  0
  2  1  1  6
  2  3  1  0
  2  4  1  0
  4  5  1  1
  6  4  1  0
  6  7  2  0
  9  8  1  0
 10  9  1  0
 10 11  1  1
 12 10  1  0
 12 13  1  6
 13  6  1  0
 14 12  1  0
 15 14  2  0
 17 16  1  1
 17 18  1  0
 18 14  1  0
 19 17  1  0
 19 20  1  0
 21 19  2  0
M  END
$$$$
