TIA.pdb
     RDKit          3D

 21 20  0  0  1  0  0  0  0  0999 V2000
   18.2912   -8.1955  -19.1017 C   0  0  0  0  0  0  0  0  0  0  0  0
   17.5682   -9.4983  -18.8635 C   0  0  1  0  0  0  0  0  0  0  0  0
   16.9756   -9.9755  -20.0492 O   0  0  0  0  0  0  0  0  0  0  0  0
   18.5689  -10.5180  -18.3642 C   0  0  2  0  0  0  0  0  0  0  0  0
   17.9804  -11.8363  -18.2617 N   0  0  0  0  0  0  0  0  0  0  0  0
   19.1931  -10.1069  -17.0859 C   0  0  0  0  0  0  0  0  0  0  0  0
   18.5390  -10.0820  -16.0139 O   0  0  0  0  0  0  0  0  0  0  0  0
   23.4644  -12.0831  -14.7077 C   0  0  0  0  0  0  0  0  0  0  0  0
   22.2287  -11.3574  -15.1110 C   0  0  0  0  0  0  0  0  0  0  0  0
   22.3807   -9.8765  -15.2977 C   0  0  2  0  0  0  0  0  0  0  0  0
   23.0036   -9.2636  -14.0675 C   0  0  0  0  0  0  0  0  0  0  0  0
   21.1616   -9.1771  -15.7956 C   0  0  2  0  0  0  0  0  0  0  0  0
   20.5793   -9.7126  -16.9908 N   0  0  0  0  0  0  0  0  0  0  0  0
   21.3402   -7.7012  -15.8633 C   0  0  0  0  0  0  0  0  0  0  0  0
   22.1661   -7.2738  -16.7118 O   0  0  0  0  0  0  0  0  0  0  0  0
   19.6179   -4.5700  -14.9919 C   0  0  0  0  0  0  0  0  0  0  0  0
   20.8867   -5.3711  -15.1515 C   0  0  2  0  0  0  0  0  0  0  0  0
   20.6484   -6.7937  -15.0464 N   0  0  0  0  0  0  0  0  0  0  0  0
   21.9335   -4.9442  -14.1960 C   0  0  0  0  0  0  0  0  0  0  0  0
   22.7888   -3.8769  -14.4338 O   0  0  0  0  0  0  0  0  0  0  0  0
   22.0732   -5.5632  -13.1102 O   0  0  0  0  0  0  0  0  0  0  0  0
  2  1  1  6
  2  3  1  0
  2  4  1  0
  4  5  1  1
  6  4  1  0
  6  7  2  0
  9  8  1  0
 10  9  1  0
 10 11  1  1
 12 10  1  0
 12 13  1  6
 13  6  1  0
 14 12  1  0
 15 14  2  0
 17 16  1  1
 17 18  1  0
 18 14  1  0
 19 17  1  0
 19 20  1  0
 21 19  2  0
M  END
$$$$
