TIA.pdb
     RDKit          3D

 21 20  0  0  1  0  0  0  0  0999 V2000
   16.5639   -9.9464  -15.4361 C   0  0  0  0  0  0  0  0  0  0  0  0
   15.7397  -11.1227  -14.9738 C   0  0  1  0  0  0  0  0  0  0  0  0
   16.2523  -12.3334  -15.4799 O   0  0  0  0  0  0  0  0  0  0  0  0
   15.7703  -11.1651  -13.4612 C   0  0  2  0  0  0  0  0  0  0  0  0
   15.1466  -12.3665  -12.9491 N   0  0  0  0  0  0  0  0  0  0  0  0
   15.1754   -9.9510  -12.8573 C   0  0  0  0  0  0  0  0  0  0  0  0
   13.9661   -9.6579  -13.0280 O   0  0  0  0  0  0  0  0  0  0  0  0
   14.9608   -6.2979   -7.9679 C   0  0  0  0  0  0  0  0  0  0  0  0
   14.9074   -6.4299   -9.4498 C   0  0  0  0  0  0  0  0  0  0  0  0
   15.4613   -7.7090  -10.0051 C   0  0  2  0  0  0  0  0  0  0  0  0
   16.8215   -7.9816   -9.4117 C   0  0  0  0  0  0  0  0  0  0  0  0
   15.3905   -7.8328  -11.4894 C   0  0  2  0  0  0  0  0  0  0  0  0
   15.9396   -9.0359  -12.0421 N   0  0  0  0  0  0  0  0  0  0  0  0
   15.8811   -6.6127  -12.1859 C   0  0  0  0  0  0  0  0  0  0  0  0
   17.1299   -6.4773  -12.2689 O   0  0  0  0  0  0  0  0  0  0  0  0
   14.5664   -3.9109  -14.4136 C   0  0  0  0  0  0  0  0  0  0  0  0
   15.5799   -4.5170  -13.4741 C   0  0  2  0  0  0  0  0  0  0  0  0
   15.0367   -5.6367  -12.7372 N   0  0  0  0  0  0  0  0  0  0  0  0
   16.1489   -3.5098  -12.5506 C   0  0  0  0  0  0  0  0  0  0  0  0
   15.8392   -3.4592  -11.1983 O   0  0  0  0  0  0  0  0  0  0  0  0
   16.9534   -2.6488  -12.9897 O   0  0  0  0  0  0  0  0  0  0  0  0
  2  1  1  6
  2  3  1  0
  2  4  1  0
  4  5  1  1
  6  4  1  0
  6  7  2  0
  9  8  1  0
 10  9  1  0
 10 11  1  6
 12 10  1  0
 12 13  1  6
 13  6  1  0
 14 12  1  0
 15 14  2  0
 17 16  1  1
 17 18  1  0
 18 14  1  0
 19 17  1  0
 19 20  1  0
 21 19  2  0
M  END
$$$$
