TIA.pdb
     RDKit          3D

 21 20  0  0  1  0  0  0  0  0999 V2000
   17.1022  -10.3365  -19.8355 C   0  0  0  0  0  0  0  0  0  0  0  0
   17.7613   -9.6203  -18.6825 C   0  0  1  0  0  0  0  0  0  0  0  0
   16.9153   -8.6278  -18.1497 O   0  0  0  0  0  0  0  0  0  0  0  0
   18.0757  -10.6348  -17.6043 C   0  0  2  0  0  0  0  0  0  0  0  0
   16.8802  -11.3032  -17.1366 N   0  0  0  0  0  0  0  0  0  0  0  0
   18.8325  -10.0375  -16.4804 C   0  0  0  0  0  0  0  0  0  0  0  0
   18.2539   -9.6266  -15.4441 O   0  0  0  0  0  0  0  0  0  0  0  0
   23.4521  -12.1049  -14.5369 C   0  0  0  0  0  0  0  0  0  0  0  0
   22.1661  -11.3919  -14.7699 C   0  0  0  0  0  0  0  0  0  0  0  0
   22.2841   -9.9251  -15.0625 C   0  0  2  0  0  0  0  0  0  0  0  0
   23.0449   -9.2387  -13.9549 C   0  0  0  0  0  0  0  0  0  0  0  0
   21.0094   -9.2572  -15.4524 C   0  0  2  0  0  0  0  0  0  0  0  0
   20.2692   -9.8906  -16.5037 N   0  0  0  0  0  0  0  0  0  0  0  0
   21.1787   -7.7960  -15.6783 C   0  0  0  0  0  0  0  0  0  0  0  0
   21.7823   -7.4565  -16.7295 O   0  0  0  0  0  0  0  0  0  0  0  0
   19.7367   -4.5652  -14.9445 C   0  0  0  0  0  0  0  0  0  0  0  0
   20.9832   -5.4110  -15.0338 C   0  0  2  0  0  0  0  0  0  0  0  0
   20.7086   -6.8110  -14.7962 N   0  0  0  0  0  0  0  0  0  0  0  0
   22.0467   -4.9253  -14.1259 C   0  0  0  0  0  0  0  0  0  0  0  0
   22.8497   -3.8304  -14.4147 O   0  0  0  0  0  0  0  0  0  0  0  0
   22.2505   -5.5172  -13.0352 O   0  0  0  0  0  0  0  0  0  0  0  0
  2  1  1  6
  2  3  1  0
  2  4  1  0
  4  5  1  1
  6  4  1  0
  6  7  2  0
  9  8  1  0
 10  9  1  0
 10 11  1  1
 12 10  1  0
 12 13  1  6
 13  6  1  0
 14 12  1  0
 15 14  2  0
 17 16  1  1
 17 18  1  0
 18 14  1  0
 19 17  1  0
 19 20  1  0
 21 19  2  0
M  END
$$$$
