TIA.pdb
     RDKit          3D

 21 20  0  0  1  0  0  0  0  0999 V2000
   21.3483   -9.4049  -20.2040 C   0  0  0  0  0  0  0  0  0  0  0  0
   20.7035  -10.7351  -19.9016 C   0  0  1  0  0  0  0  0  0  0  0  0
   20.2695  -11.3701  -21.0820 O   0  0  0  0  0  0  0  0  0  0  0  0
   21.7221  -11.6159  -19.2106 C   0  0  2  0  0  0  0  0  0  0  0  0
   21.2176  -12.9575  -19.0100 N   0  0  0  0  0  0  0  0  0  0  0  0
   22.1989  -11.0250  -17.9393 C   0  0  0  0  0  0  0  0  0  0  0  0
   21.5219  -11.1030  -16.8843 O   0  0  0  0  0  0  0  0  0  0  0  0
   27.1847  -11.7433  -16.0164 C   0  0  0  0  0  0  0  0  0  0  0  0
   25.7445  -11.4641  -16.2699 C   0  0  0  0  0  0  0  0  0  0  0  0
   25.3577  -10.0144  -16.2711 C   0  0  2  0  0  0  0  0  0  0  0  0
   25.8427   -9.3509  -15.0057 C   0  0  0  0  0  0  0  0  0  0  0  0
   23.9313   -9.7445  -16.6113 C   0  0  2  0  0  0  0  0  0  0  0  0
   23.4597  -10.3285  -17.8323 N   0  0  0  0  0  0  0  0  0  0  0  0
   23.5832   -8.3019  -16.5006 C   0  0  0  0  0  0  0  0  0  0  0  0
   24.1752   -7.5193  -17.2891 O   0  0  0  0  0  0  0  0  0  0  0  0
   21.0663   -5.9735  -16.0150 C   0  0  0  0  0  0  0  0  0  0  0  0
   22.4189   -6.3693  -15.4754 C   0  0  2  0  0  0  0  0  0  0  0  0
   22.6518   -7.7926  -15.5827 N   0  0  0  0  0  0  0  0  0  0  0  0
   22.6132   -5.9112  -14.0813 C   0  0  0  0  0  0  0  0  0  0  0  0
   22.6888   -6.7793  -13.0006 O   0  0  0  0  0  0  0  0  0  0  0  0
   22.7174   -4.6813  -13.8403 O   0  0  0  0  0  0  0  0  0  0  0  0
  2  1  1  6
  2  3  1  0
  2  4  1  0
  4  5  1  1
  6  4  1  0
  6  7  2  0
  9  8  1  0
 10  9  1  0
 10 11  1  1
 12 10  1  0
 12 13  1  6
 13  6  1  0
 14 12  1  0
 15 14  2  0
 17 16  1  1
 17 18  1  0
 18 14  1  0
 19 17  1  0
 19 20  1  0
 21 19  2  0
M  END
$$$$
