TIA.pdb
     RDKit          3D

 21 20  0  0  1  0  0  0  0  0999 V2000
   16.9701  -12.9411  -19.2962 C   0  0  0  0  0  0  0  0  0  0  0  0
   17.4926  -12.1219  -18.1419 C   0  0  1  0  0  0  0  0  0  0  0  0
   16.4399  -11.6646  -17.3248 O   0  0  0  0  0  0  0  0  0  0  0  0
   18.4186  -12.9902  -17.3177 C   0  0  2  0  0  0  0  0  0  0  0  0
   17.7185  -14.1181  -16.7411 N   0  0  0  0  0  0  0  0  0  0  0  0
   19.1340  -12.2136  -16.2796 C   0  0  0  0  0  0  0  0  0  0  0  0
   18.7374  -12.1887  -15.0882 O   0  0  0  0  0  0  0  0  0  0  0  0
   24.1298  -12.8168  -14.9423 C   0  0  0  0  0  0  0  0  0  0  0  0
   22.6959  -12.4454  -15.0917 C   0  0  0  0  0  0  0  0  0  0  0  0
   22.4280  -10.9910  -15.3445 C   0  0  2  0  0  0  0  0  0  0  0  0
   23.1118  -10.1512  -14.2938 C   0  0  0  0  0  0  0  0  0  0  0  0
   20.9970  -10.6478  -15.5852 C   0  0  2  0  0  0  0  0  0  0  0  0
   20.3213  -11.4431  -16.5677 N   0  0  0  0  0  0  0  0  0  0  0  0
   20.7894   -9.1892  -15.7951 C   0  0  0  0  0  0  0  0  0  0  0  0
   21.3053   -8.6918  -16.8300 O   0  0  0  0  0  0  0  0  0  0  0  0
   18.5438   -6.4491  -14.8482 C   0  0  0  0  0  0  0  0  0  0  0  0
   19.9312   -6.9517  -15.1639 C   0  0  2  0  0  0  0  0  0  0  0  0
   20.0653   -8.3701  -14.9153 N   0  0  0  0  0  0  0  0  0  0  0  0
   20.9727   -6.1924  -14.4361 C   0  0  0  0  0  0  0  0  0  0  0  0
   21.4069   -4.9331  -14.8270 O   0  0  0  0  0  0  0  0  0  0  0  0
   21.5040   -6.6923  -13.4116 O   0  0  0  0  0  0  0  0  0  0  0  0
  2  1  1  6
  2  3  1  0
  2  4  1  0
  4  5  1  1
  6  4  1  0
  6  7  2  0
  9  8  1  0
 10  9  1  0
 10 11  1  1
 12 10  1  0
 12 13  1  6
 13  6  1  0
 14 12  1  0
 15 14  2  0
 17 16  1  1
 17 18  1  0
 18 14  1  0
 19 17  1  0
 19 20  1  0
 21 19  2  0
M  END
$$$$
