TIA.pdb
     RDKit          3D

 21 20  0  0  1  0  0  0  0  0999 V2000
   25.1576  -10.5746  -19.1880 C   0  0  0  0  0  0  0  0  0  0  0  0
   24.2660  -11.7902  -19.2521 C   0  0  1  0  0  0  0  0  0  0  0  0
   25.0072  -12.9495  -19.5544 O   0  0  0  0  0  0  0  0  0  0  0  0
   23.5974  -11.9662  -17.9058 C   0  0  2  0  0  0  0  0  0  0  0  0
   22.9618  -13.2615  -17.7918 N   0  0  0  0  0  0  0  0  0  0  0  0
   22.6450  -10.8719  -17.6090 C   0  0  0  0  0  0  0  0  0  0  0  0
   22.1351  -10.1790  -18.5241 O   0  0  0  0  0  0  0  0  0  0  0  0
   18.4903  -11.7836  -15.1643 C   0  0  0  0  0  0  0  0  0  0  0  0
   19.2214  -10.7968  -16.0058 C   0  0  0  0  0  0  0  0  0  0  0  0
   20.0927   -9.8304  -15.2589 C   0  0  2  0  0  0  0  0  0  0  0  0
   19.2682   -8.6649  -14.7704 C   0  0  0  0  0  0  0  0  0  0  0  0
   21.3557   -9.4538  -15.9564 C   0  0  2  0  0  0  0  0  0  0  0  0
   22.2456  -10.5349  -16.2625 N   0  0  0  0  0  0  0  0  0  0  0  0
   22.0514   -8.3151  -15.2978 C   0  0  0  0  0  0  0  0  0  0  0  0
   22.7134   -8.5849  -14.2616 O   0  0  0  0  0  0  0  0  0  0  0  0
   22.9338   -4.7389  -16.0085 C   0  0  0  0  0  0  0  0  0  0  0  0
   22.7633   -5.9478  -15.1215 C   0  0  2  0  0  0  0  0  0  0  0  0
   22.0024   -6.9939  -15.7684 N   0  0  0  0  0  0  0  0  0  0  0  0
   22.1618   -5.5947  -13.8159 C   0  0  0  0  0  0  0  0  0  0  0  0
   22.9080   -5.1596  -12.7291 O   0  0  0  0  0  0  0  0  0  0  0  0
   20.9171   -5.6856  -13.6605 O   0  0  0  0  0  0  0  0  0  0  0  0
  2  1  1  1
  2  3  1  0
  2  4  1  0
  4  5  1  6
  6  4  1  0
  6  7  2  0
  9  8  1  0
 10  9  1  0
 10 11  1  6
 12 10  1  0
 12 13  1  1
 13  6  1  0
 14 12  1  0
 15 14  2  0
 17 16  1  6
 17 18  1  0
 18 14  1  0
 19 17  1  0
 19 20  1  0
 21 19  2  0
M  END
$$$$
