TIA.pdb
     RDKit          3D

 21 20  0  0  1  0  0  0  0  0999 V2000
   15.9251  -10.7446  -17.6479 C   0  0  0  0  0  0  0  0  0  0  0  0
   16.9407   -9.9216  -16.8943 C   0  0  1  0  0  0  0  0  0  0  0  0
   16.3528   -8.7639  -16.3476 O   0  0  0  0  0  0  0  0  0  0  0  0
   17.5066  -10.7667  -15.7735 C   0  0  2  0  0  0  0  0  0  0  0  0
   16.4743  -11.1890  -14.8511 N   0  0  0  0  0  0  0  0  0  0  0  0
   18.6140  -10.0847  -15.0656 C   0  0  0  0  0  0  0  0  0  0  0  0
   18.4808   -9.6628  -13.8901 O   0  0  0  0  0  0  0  0  0  0  0  0
   23.5451  -12.0770  -14.7718 C   0  0  0  0  0  0  0  0  0  0  0  0
   22.2758  -11.3214  -14.5868 C   0  0  0  0  0  0  0  0  0  0  0  0
   22.3009   -9.8932  -15.0461 C   0  0  2  0  0  0  0  0  0  0  0  0
   23.4278   -9.1539  -14.3677 C   0  0  0  0  0  0  0  0  0  0  0  0
   20.9831   -9.1967  -15.0064 C   0  0  2  0  0  0  0  0  0  0  0  0
   19.9046   -9.8632  -15.6751 N   0  0  0  0  0  0  0  0  0  0  0  0
   21.0865   -7.7618  -15.3870 C   0  0  0  0  0  0  0  0  0  0  0  0
   21.4528   -7.5186  -16.5666 O   0  0  0  0  0  0  0  0  0  0  0  0
   19.7745   -4.4791  -14.6492 C   0  0  0  0  0  0  0  0  0  0  0  0
   20.9904   -5.3282  -14.9283 C   0  0  2  0  0  0  0  0  0  0  0  0
   20.8018   -6.7009  -14.5136 N   0  0  0  0  0  0  0  0  0  0  0  0
   22.2130   -4.7605  -14.3168 C   0  0  0  0  0  0  0  0  0  0  0  0
   22.7445   -5.2167  -13.1183 O   0  0  0  0  0  0  0  0  0  0  0  0
   22.8159   -3.8190  -14.8928 O   0  0  0  0  0  0  0  0  0  0  0  0
  2  1  1  1
  2  3  1  0
  2  4  1  0
  4  5  1  1
  6  4  1  0
  6  7  2  0
  9  8  1  0
 10  9  1  0
 10 11  1  1
 12 10  1  0
 12 13  1  6
 13  6  1  0
 14 12  1  0
 15 14  2  0
 17 16  1  1
 17 18  1  0
 18 14  1  0
 19 17  1  0
 19 20  1  0
 21 19  2  0
M  END
$$$$
