TIA.pdb
     RDKit          3D

 21 20  0  0  1  0  0  0  0  0999 V2000
   25.8447  -11.0731  -15.1785 C   0  0  0  0  0  0  0  0  0  0  0  0
   25.7349  -11.9131  -16.4271 C   0  0  1  0  0  0  0  0  0  0  0  0
   26.5039  -13.0885  -16.3187 O   0  0  0  0  0  0  0  0  0  0  0  0
   24.2822  -12.2878  -16.6270 C   0  0  2  0  0  0  0  0  0  0  0  0
   24.1179  -13.2181  -17.7235 N   0  0  0  0  0  0  0  0  0  0  0  0
   23.4179  -11.0976  -16.7976 C   0  0  0  0  0  0  0  0  0  0  0  0
   23.4520  -10.4061  -17.8455 O   0  0  0  0  0  0  0  0  0  0  0  0
   18.9658  -11.9144  -15.9084 C   0  0  0  0  0  0  0  0  0  0  0  0
   19.5216  -10.7009  -16.5679 C   0  0  0  0  0  0  0  0  0  0  0  0
   20.2003   -9.7227  -15.6549 C   0  0  2  0  0  0  0  0  0  0  0  0
   19.3821   -8.4589  -15.5544 C   0  0  0  0  0  0  0  0  0  0  0  0
   21.6502   -9.5085  -15.9289 C   0  0  2  0  0  0  0  0  0  0  0  0
   22.4902  -10.6604  -15.7805 N   0  0  0  0  0  0  0  0  0  0  0  0
   22.1925   -8.3159  -15.2229 C   0  0  0  0  0  0  0  0  0  0  0  0
   22.4321   -8.4514  -13.9945 O   0  0  0  0  0  0  0  0  0  0  0  0
   23.4303   -4.8474  -16.0045 C   0  0  0  0  0  0  0  0  0  0  0  0
   22.9731   -5.9670  -15.1019 C   0  0  2  0  0  0  0  0  0  0  0  0
   22.4403   -7.0847  -15.8491 N   0  0  0  0  0  0  0  0  0  0  0  0
   21.9962   -5.4992  -14.0929 C   0  0  0  0  0  0  0  0  0  0  0  0
   20.6225   -5.6161  -14.2551 O   0  0  0  0  0  0  0  0  0  0  0  0
   22.4074   -4.9673  -13.0301 O   0  0  0  0  0  0  0  0  0  0  0  0
  2  1  1  1
  2  3  1  0
  2  4  1  0
  4  5  1  6
  6  4  1  0
  6  7  2  0
  9  8  1  0
 10  9  1  0
 10 11  1  6
 12 10  1  0
 12 13  1  1
 13  6  1  0
 14 12  1  0
 15 14  2  0
 17 16  1  6
 17 18  1  0
 18 14  1  0
 19 17  1  0
 19 20  1  0
 21 19  2  0
M  END
$$$$
