TIA.pdb
     RDKit          3D

 21 20  0  0  1  0  0  0  0  0999 V2000
   19.6918   -8.6119  -19.0394 C   0  0  0  0  0  0  0  0  0  0  0  0
   18.6759   -9.7238  -18.9477 C   0  0  1  0  0  0  0  0  0  0  0  0
   18.5800  -10.4270  -20.1647 O   0  0  0  0  0  0  0  0  0  0  0  0
   19.1074  -10.6789  -17.8558 C   0  0  2  0  0  0  0  0  0  0  0  0
   18.2135  -11.8129  -17.7560 N   0  0  0  0  0  0  0  0  0  0  0  0
   19.2616   -9.9992  -16.5494 C   0  0  0  0  0  0  0  0  0  0  0  0
   18.2677   -9.7122  -15.8371 O   0  0  0  0  0  0  0  0  0  0  0  0
   22.3586   -9.6479  -11.3486 C   0  0  0  0  0  0  0  0  0  0  0  0
   21.6824   -8.8994  -12.4436 C   0  0  0  0  0  0  0  0  0  0  0  0
   21.4569   -9.6711  -13.7105 C   0  0  2  0  0  0  0  0  0  0  0  0
   22.7492  -10.3035  -14.1652 C   0  0  0  0  0  0  0  0  0  0  0  0
   20.7144   -8.9333  -14.7724 C   0  0  2  0  0  0  0  0  0  0  0  0
   20.5512   -9.6266  -16.0162 N   0  0  0  0  0  0  0  0  0  0  0  0
   21.2172   -7.5450  -14.9581 C   0  0  0  0  0  0  0  0  0  0  0  0
   22.3078   -7.4206  -15.5745 O   0  0  0  0  0  0  0  0  0  0  0  0
   19.9395   -4.0843  -14.9983 C   0  0  0  0  0  0  0  0  0  0  0  0
   21.0523   -5.0790  -14.7758 C   0  0  2  0  0  0  0  0  0  0  0  0
   20.5479   -6.4040  -14.4897 N   0  0  0  0  0  0  0  0  0  0  0  0
   21.9865   -4.6352  -13.7169 C   0  0  0  0  0  0  0  0  0  0  0  0
   23.0299   -3.7490  -13.9477 O   0  0  0  0  0  0  0  0  0  0  0  0
   21.8479   -5.0686  -12.5445 O   0  0  0  0  0  0  0  0  0  0  0  0
  2  1  1  6
  2  3  1  0
  2  4  1  0
  4  5  1  1
  6  4  1  0
  6  7  2  0
  9  8  1  0
 10  9  1  0
 10 11  1  6
 12 10  1  0
 12 13  1  6
 13  6  1  0
 14 12  1  0
 15 14  2  0
 17 16  1  1
 17 18  1  0
 18 14  1  0
 19 17  1  0
 19 20  1  0
 21 19  2  0
M  END
$$$$
