TIA.pdb
     RDKit          3D

 21 20  0  0  1  0  0  0  0  0999 V2000
   17.9434   -7.3608  -18.4787 C   0  0  0  0  0  0  0  0  0  0  0  0
   16.9115   -8.3300  -17.9566 C   0  0  1  0  0  0  0  0  0  0  0  0
   16.0938   -8.8121  -18.9977 O   0  0  0  0  0  0  0  0  0  0  0  0
   17.6306   -9.4948  -17.3111 C   0  0  2  0  0  0  0  0  0  0  0  0
   16.7081  -10.5380  -16.9167 N   0  0  0  0  0  0  0  0  0  0  0  0
   18.4763   -9.0666  -16.1735 C   0  0  0  0  0  0  0  0  0  0  0  0
   17.9728   -8.6888  -15.0867 O   0  0  0  0  0  0  0  0  0  0  0  0
   22.7207  -11.9242  -14.6245 C   0  0  0  0  0  0  0  0  0  0  0  0
   21.5596  -10.9987  -14.7318 C   0  0  0  0  0  0  0  0  0  0  0  0
   21.9020   -9.5416  -14.8365 C   0  0  2  0  0  0  0  0  0  0  0  0
   22.7279   -9.1200  -13.6461 C   0  0  0  0  0  0  0  0  0  0  0  0
   20.7512   -8.6460  -15.1477 C   0  0  2  0  0  0  0  0  0  0  0  0
   19.9191   -9.0561  -16.2403 N   0  0  0  0  0  0  0  0  0  0  0  0
   21.1533   -7.2166  -15.2458 C   0  0  0  0  0  0  0  0  0  0  0  0
   21.9831   -6.9272  -16.1471 O   0  0  0  0  0  0  0  0  0  0  0  0
   19.9258   -3.8755  -14.2438 C   0  0  0  0  0  0  0  0  0  0  0  0
   21.0421   -4.8271  -14.5980 C   0  0  2  0  0  0  0  0  0  0  0  0
   20.6617   -6.2086  -14.4022 N   0  0  0  0  0  0  0  0  0  0  0  0
   22.2870   -4.5177  -13.8594 C   0  0  0  0  0  0  0  0  0  0  0  0
   22.8097   -5.3433  -12.8733 O   0  0  0  0  0  0  0  0  0  0  0  0
   22.9184   -3.4619  -14.1207 O   0  0  0  0  0  0  0  0  0  0  0  0
  2  1  1  6
  2  3  1  0
  2  4  1  0
  4  5  1  1
  6  4  1  0
  6  7  2  0
  9  8  1  0
 10  9  1  0
 10 11  1  1
 12 10  1  0
 12 13  1  6
 13  6  1  0
 14 12  1  0
 15 14  2  0
 17 16  1  1
 17 18  1  0
 18 14  1  0
 19 17  1  0
 19 20  1  0
 21 19  2  0
M  END
$$$$
