TIA.pdb
     RDKit          3D

 21 20  0  0  1  0  0  0  0  0999 V2000
   21.5307   -7.8802  -19.9102 C   0  0  0  0  0  0  0  0  0  0  0  0
   20.6804   -9.0997  -20.1677 C   0  0  1  0  0  0  0  0  0  0  0  0
   20.9773   -9.6717  -21.4204 O   0  0  0  0  0  0  0  0  0  0  0  0
   20.9572  -10.1158  -19.0806 C   0  0  2  0  0  0  0  0  0  0  0  0
   20.2330  -11.3484  -19.3064 N   0  0  0  0  0  0  0  0  0  0  0  0
   20.6879   -9.5736  -17.7292 C   0  0  0  0  0  0  0  0  0  0  0  0
   19.5157   -9.4108  -17.3087 O   0  0  0  0  0  0  0  0  0  0  0  0
   23.0532  -11.5932  -13.7902 C   0  0  0  0  0  0  0  0  0  0  0  0
   21.9180  -10.7956  -14.3302 C   0  0  0  0  0  0  0  0  0  0  0  0
   22.1338   -9.3114  -14.3735 C   0  0  2  0  0  0  0  0  0  0  0  0
   21.8225   -8.7064  -13.0267 C   0  0  0  0  0  0  0  0  0  0  0  0
   21.5012   -8.6175  -15.5317 C   0  0  2  0  0  0  0  0  0  0  0  0
   21.7448   -9.2014  -16.8179 N   0  0  0  0  0  0  0  0  0  0  0  0
   21.7469   -7.1499  -15.5189 C   0  0  0  0  0  0  0  0  0  0  0  0
   22.9188   -6.7744  -15.7843 O   0  0  0  0  0  0  0  0  0  0  0  0
   19.8365   -3.9330  -15.4292 C   0  0  0  0  0  0  0  0  0  0  0  0
   21.0679   -4.7834  -15.2352 C   0  0  2  0  0  0  0  0  0  0  0  0
   20.7581   -6.1961  -15.2324 N   0  0  0  0  0  0  0  0  0  0  0  0
   21.8110   -4.4086  -14.0111 C   0  0  0  0  0  0  0  0  0  0  0  0
   22.7307   -3.3697  -13.9696 O   0  0  0  0  0  0  0  0  0  0  0  0
   21.6160   -5.0480  -12.9458 O   0  0  0  0  0  0  0  0  0  0  0  0
  2  1  1  1
  2  3  1  0
  2  4  1  0
  4  5  1  6
  6  4  1  0
  6  7  2  0
  9  8  1  0
 10  9  1  0
 10 11  1  1
 12 10  1  0
 12 13  1  6
 13  6  1  0
 14 12  1  0
 15 14  2  0
 17 16  1  1
 17 18  1  0
 18 14  1  0
 19 17  1  0
 19 20  1  0
 21 19  2  0
M  END
$$$$
