TIA.pdb
     RDKit          3D

 21 20  0  0  1  0  0  0  0  0999 V2000
   18.9397  -25.3569  -11.6096 C   0  0  0  0  0  0  0  0  0  0  0  0
   18.0777  -25.2271  -10.3780 C   0  0  1  0  0  0  0  0  0  0  0  0
   17.7594  -26.4915   -9.8442 O   0  0  0  0  0  0  0  0  0  0  0  0
   18.8388  -24.4288   -9.3417 C   0  0  2  0  0  0  0  0  0  0  0  0
   18.1049  -24.3337   -8.0978 N   0  0  0  0  0  0  0  0  0  0  0  0
   19.2243  -23.0896   -9.8423 C   0  0  0  0  0  0  0  0  0  0  0  0
   18.4531  -22.1035   -9.7406 O   0  0  0  0  0  0  0  0  0  0  0  0
   23.7715  -20.6528   -8.6139 C   0  0  0  0  0  0  0  0  0  0  0  0
   22.3954  -20.9951   -9.0673 C   0  0  0  0  0  0  0  0  0  0  0  0
   22.1947  -21.0303  -10.5538 C   0  0  2  0  0  0  0  0  0  0  0  0
   22.5853  -19.7038  -11.1577 C   0  0  0  0  0  0  0  0  0  0  0  0
   20.8707  -21.5534  -10.9973 C   0  0  2  0  0  0  0  0  0  0  0  0
   20.4984  -22.8343  -10.4730 N   0  0  0  0  0  0  0  0  0  0  0  0
   20.6911  -21.4698  -12.4722 C   0  0  0  0  0  0  0  0  0  0  0  0
   21.4252  -22.2170  -13.1705 O   0  0  0  0  0  0  0  0  0  0  0  0
   18.4011  -21.1007  -15.0766 C   0  0  0  0  0  0  0  0  0  0  0  0
   19.6941  -20.5371  -14.5404 C   0  0  2  0  0  0  0  0  0  0  0  0
   19.7667  -20.6196  -13.0983 N   0  0  0  0  0  0  0  0  0  0  0  0
   19.9224  -19.1476  -14.9968 C   0  0  0  0  0  0  0  0  0  0  0  0
   20.1426  -18.8115  -16.3256 O   0  0  0  0  0  0  0  0  0  0  0  0
   19.9212  -18.2102  -14.1583 O   0  0  0  0  0  0  0  0  0  0  0  0
  2  1  1  6
  2  3  1  0
  2  4  1  0
  4  5  1  1
  6  4  1  0
  6  7  2  0
  9  8  1  0
 10  9  1  0
 10 11  1  1
 12 10  1  0
 12 13  1  6
 13  6  1  0
 14 12  1  0
 15 14  2  0
 17 16  1  1
 17 18  1  0
 18 14  1  0
 19 17  1  0
 19 20  1  0
 21 19  2  0
M  END
$$$$
