TIA.pdb
     RDKit          3D

 21 20  0  0  1  0  0  0  0  0999 V2000
   27.1934  -11.2661  -15.6407 C   0  0  0  0  0  0  0  0  0  0  0  0
   26.1409  -10.1935  -15.7771 C   0  0  1  0  0  0  0  0  0  0  0  0
   26.4540   -9.3035  -16.8234 O   0  0  0  0  0  0  0  0  0  0  0  0
   24.8138  -10.8585  -16.0724 C   0  0  2  0  0  0  0  0  0  0  0  0
   24.8694  -11.6426  -17.2877 N   0  0  0  0  0  0  0  0  0  0  0  0
   23.6988   -9.8849  -16.1112 C   0  0  0  0  0  0  0  0  0  0  0  0
   23.1614   -9.5447  -17.1942 O   0  0  0  0  0  0  0  0  0  0  0  0
   19.9187   -9.1485  -11.8063 C   0  0  0  0  0  0  0  0  0  0  0  0
   21.1263   -8.9706  -12.6586 C   0  0  0  0  0  0  0  0  0  0  0  0
   20.8627   -8.8045  -14.1263 C   0  0  2  0  0  0  0  0  0  0  0  0
   20.1364  -10.0149  -14.6593 C   0  0  0  0  0  0  0  0  0  0  0  0
   22.0422   -8.3779  -14.9326 C   0  0  2  0  0  0  0  0  0  0  0  0
   23.1635   -9.2705  -14.9186 N   0  0  0  0  0  0  0  0  0  0  0  0
   22.4356   -6.9681  -14.6631 C   0  0  0  0  0  0  0  0  0  0  0  0
   23.6695   -6.7188  -14.6677 O   0  0  0  0  0  0  0  0  0  0  0  0
   23.0307   -4.2354  -15.3206 C   0  0  0  0  0  0  0  0  0  0  0  0
   21.9559   -4.5621  -14.3129 C   0  0  2  0  0  0  0  0  0  0  0  0
   21.5176   -5.9368  -14.4119 N   0  0  0  0  0  0  0  0  0  0  0  0
   20.8044   -3.6375  -14.4140 C   0  0  0  0  0  0  0  0  0  0  0  0
   19.5387   -4.0424  -14.8156 O   0  0  0  0  0  0  0  0  0  0  0  0
   20.9563   -2.4225  -14.1273 O   0  0  0  0  0  0  0  0  0  0  0  0
  2  1  1  6
  2  3  1  0
  2  4  1  0
  4  5  1  6
  6  4  1  0
  6  7  2  0
  9  8  1  0
 10  9  1  0
 10 11  1  6
 12 10  1  0
 12 13  1  1
 13  6  1  0
 14 12  1  0
 15 14  2  0
 17 16  1  6
 17 18  1  0
 18 14  1  0
 19 17  1  0
 19 20  1  0
 21 19  2  0
M  END
$$$$
