SQI.pdb
     RDKit          3D

 24 23  0  0  1  0  0  0  0  0999 V2000
   21.2753  -16.9132  -18.6926 O   0  0  0  0  0  0  0  0  0  0  0  0
   20.8102  -15.6323  -18.9119 C   0  0  0  0  0  0  0  0  0  0  0  0
   19.8161  -15.2627  -17.8251 C   0  0  2  0  0  0  0  0  0  0  0  0
   18.6872  -16.1434  -17.8115 N   0  0  0  0  0  0  0  0  0  0  0  0
   19.3664  -13.8523  -17.9943 C   0  0  0  0  0  0  0  0  0  0  0  0
   18.6328  -13.5106  -18.9538 O   0  0  0  0  0  0  0  0  0  0  0  0
   16.1499  -10.2501  -19.0449 N   0  0  0  0  0  0  0  0  0  0  0  0
   16.6802   -9.3075  -18.1439 C   0  0  0  0  0  0  0  0  0  0  0  0
   16.3331   -8.1089  -18.1793 O   0  0  0  0  0  0  0  0  0  0  0  0
   17.6780   -9.7874  -17.1310 C   0  0  0  0  0  0  0  0  0  0  0  0
   17.9696  -11.2473  -17.2317 C   0  0  0  0  0  0  0  0  0  0  0  0
   19.4327  -11.5158  -16.9998 C   0  0  2  0  0  0  0  0  0  0  0  0
   19.7710  -12.8916  -17.0644 N   0  0  0  0  0  0  0  0  0  0  0  0
   20.0411  -10.7758  -15.8960 C   0  0  0  0  0  0  0  0  0  0  0  0
   19.6828  -11.1081  -14.7162 O   0  0  0  0  0  0  0  0  0  0  0  0
   25.0582  -10.8707  -15.3206 C   0  0  0  0  0  0  0  0  0  0  0  0
   23.6068  -10.6598  -15.2156 C   0  0  0  0  0  0  0  0  0  0  0  0
   23.0690   -9.2935  -15.0531 C   0  0  2  0  0  0  0  0  0  0  0  0
   23.9310   -8.5018  -14.0596 C   0  0  0  0  0  0  0  0  0  0  0  0
   21.6473   -9.0294  -14.9393 C   0  0  2  0  0  0  0  0  0  0  0  0
   20.9771   -9.7418  -16.0352 N   0  0  0  0  0  0  0  0  0  0  0  0
   21.0782   -7.7300  -14.6850 C   0  0  0  0  0  0  0  0  0  0  0  0
   20.7191   -7.0355  -15.7112 O   0  0  0  0  0  0  0  0  0  0  0  0
   20.8387   -7.0796  -13.5068 O   0  0  0  0  0  0  0  0  0  0  0  0
  2  1  1  0
  2  3  1  0
  3  4  1  6
  5  3  1  0
  5  6  2  0
  7  8  1  0
  8  9  2  0
 10 11  1  0
 10  8  1  0
 12 11  1  1
 12 13  1  0
 13  5  1  0
 14 12  1  0
 15 14  2  0
 17 18  1  0
 17 16  1  0
 18 20  1  0
 18 19  1  1
 20 21  1  6
 20 22  1  0
 21 14  1  0
 22 24  1  0
 23 22  2  0
M  END
$$$$
