SQI.pdb
     RDKit          3D

 24 23  0  0  1  0  0  0  0  0999 V2000
   16.3087  -14.7123  -13.6593 O   0  0  0  0  0  0  0  0  0  0  0  0
   17.2231  -13.8410  -14.2160 C   0  0  0  0  0  0  0  0  0  0  0  0
   16.9237  -13.6711  -15.6949 C   0  0  2  0  0  0  0  0  0  0  0  0
   17.0869  -14.8965  -16.4174 N   0  0  0  0  0  0  0  0  0  0  0  0
   17.7913  -12.6099  -16.2791 C   0  0  0  0  0  0  0  0  0  0  0  0
   18.9788  -12.8453  -16.6105 O   0  0  0  0  0  0  0  0  0  0  0  0
   15.5511   -7.1933  -18.8176 N   0  0  0  0  0  0  0  0  0  0  0  0
   16.9360   -6.9534  -18.7409 C   0  0  0  0  0  0  0  0  0  0  0  0
   17.4416   -5.9129  -19.2101 O   0  0  0  0  0  0  0  0  0  0  0  0
   17.7926   -7.9882  -18.0720 C   0  0  0  0  0  0  0  0  0  0  0  0
   17.0218   -9.1662  -17.5776 C   0  0  0  0  0  0  0  0  0  0  0  0
   17.9324  -10.1482  -16.8898 C   0  0  2  0  0  0  0  0  0  0  0  0
   17.2701  -11.3267  -16.4608 N   0  0  0  0  0  0  0  0  0  0  0  0
   18.8655   -9.5714  -15.9241 C   0  0  0  0  0  0  0  0  0  0  0  0
   18.4370   -9.4232  -14.7303 O   0  0  0  0  0  0  0  0  0  0  0  0
   23.6972  -11.5420  -15.2997 C   0  0  0  0  0  0  0  0  0  0  0  0
   22.4444  -10.8070  -15.0711 C   0  0  0  0  0  0  0  0  0  0  0  0
   22.3710   -9.3620  -15.3694 C   0  0  2  0  0  0  0  0  0  0  0  0
   23.5994   -8.6417  -14.7956 C   0  0  0  0  0  0  0  0  0  0  0  0
   21.1376   -8.6082  -15.2494 C   0  0  2  0  0  0  0  0  0  0  0  0
   20.1794   -9.1743  -16.2081 N   0  0  0  0  0  0  0  0  0  0  0  0
   21.0661   -7.1711  -15.1681 C   0  0  0  0  0  0  0  0  0  0  0  0
   21.4286   -6.6274  -14.0558 O   0  0  0  0  0  0  0  0  0  0  0  0
   20.6716   -6.2470  -16.0948 O   0  0  0  0  0  0  0  0  0  0  0  0
  2  1  1  0
  2  3  1  0
  3  4  1  6
  5  3  1  0
  5  6  2  0
  7  8  1  0
  8  9  2  0
 10 11  1  0
 10  8  1  0
 12 11  1  1
 12 13  1  0
 13  5  1  0
 14 12  1  0
 15 14  2  0
 17 18  1  0
 17 16  1  0
 18 20  1  0
 18 19  1  1
 20 21  1  6
 20 22  1  0
 21 14  1  0
 22 24  1  0
 23 22  2  0
M  END
$$$$
