SQI.pdb
     RDKit          3D

 24 23  0  0  1  0  0  0  0  0999 V2000
   20.9156  -13.3854  -18.3350 O   0  0  0  0  0  0  0  0  0  0  0  0
   20.4486  -12.4130  -17.4739 C   0  0  0  0  0  0  0  0  0  0  0  0
   21.6227  -11.7509  -16.7747 C   0  0  2  0  0  0  0  0  0  0  0  0
   22.3918  -12.6905  -16.0158 N   0  0  0  0  0  0  0  0  0  0  0  0
   21.1446  -10.6475  -15.8949 C   0  0  0  0  0  0  0  0  0  0  0  0
   20.5748  -10.8832  -14.8016 O   0  0  0  0  0  0  0  0  0  0  0  0
   23.7770   -5.0869  -15.0674 N   0  0  0  0  0  0  0  0  0  0  0  0
   22.4809   -4.8453  -14.5743 C   0  0  0  0  0  0  0  0  0  0  0  0
   22.2081   -3.7987  -13.9510 O   0  0  0  0  0  0  0  0  0  0  0  0
   21.4288   -5.8859  -14.8234 C   0  0  0  0  0  0  0  0  0  0  0  0
   21.9227   -7.0506  -15.6146 C   0  0  0  0  0  0  0  0  0  0  0  0
   20.8758   -8.1304  -15.6835 C   0  0  2  0  0  0  0  0  0  0  0  0
   21.3356   -9.3235  -16.2972 N   0  0  0  0  0  0  0  0  0  0  0  0
   19.5445   -7.6908  -16.0960 C   0  0  0  0  0  0  0  0  0  0  0  0
   19.3242   -7.6293  -17.3524 O   0  0  0  0  0  0  0  0  0  0  0  0
   14.9659   -9.9706  -16.1165 C   0  0  0  0  0  0  0  0  0  0  0  0
   15.9367   -8.9052  -16.4075 C   0  0  0  0  0  0  0  0  0  0  0  0
   16.2172   -7.8655  -15.3961 C   0  0  2  0  0  0  0  0  0  0  0  0
   14.9065   -7.3795  -14.7615 C   0  0  0  0  0  0  0  0  0  0  0  0
   17.1897   -6.8124  -15.6175 C   0  0  2  0  0  0  0  0  0  0  0  0
   18.5047   -7.3365  -15.2253 N   0  0  0  0  0  0  0  0  0  0  0  0
   16.9995   -5.4352  -15.2376 C   0  0  0  0  0  0  0  0  0  0  0  0
   16.1599   -4.7452  -15.9326 O   0  0  0  0  0  0  0  0  0  0  0  0
   17.5683   -4.7037  -14.2327 O   0  0  0  0  0  0  0  0  0  0  0  0
  2  1  1  0
  2  3  1  0
  3  4  1  1
  5  3  1  0
  5  6  2  0
  7  8  1  0
  8  9  2  0
 10 11  1  0
 10  8  1  0
 12 11  1  6
 12 13  1  0
 13  5  1  0
 14 12  1  0
 15 14  2  0
 17 18  1  0
 17 16  1  0
 18 20  1  0
 18 19  1  6
 20 21  1  1
 20 22  1  0
 21 14  1  0
 22 24  1  0
 23 22  2  0
M  END
$$$$
