SQI.pdb
     RDKit          3D

 24 23  0  0  1  0  0  0  0  0999 V2000
   16.5634  -13.6298  -18.6612 O   0  0  0  0  0  0  0  0  0  0  0  0
   17.2377  -12.8853  -17.7145 C   0  0  0  0  0  0  0  0  0  0  0  0
   18.1488  -13.7960  -16.9106 C   0  0  2  0  0  0  0  0  0  0  0  0
   17.4069  -14.7063  -16.0914 N   0  0  0  0  0  0  0  0  0  0  0  0
   19.0770  -12.9875  -16.0709 C   0  0  0  0  0  0  0  0  0  0  0  0
   19.2678  -13.2589  -14.8604 O   0  0  0  0  0  0  0  0  0  0  0  0
   24.7129  -12.2721  -15.7514 N   0  0  0  0  0  0  0  0  0  0  0  0
   24.4000  -10.9981  -15.2412 C   0  0  0  0  0  0  0  0  0  0  0  0
   25.2719  -10.2790  -14.7109 O   0  0  0  0  0  0  0  0  0  0  0  0
   22.9809  -10.5240  -15.3563 C   0  0  0  0  0  0  0  0  0  0  0  0
   22.0745  -11.5177  -16.0024 C   0  0  0  0  0  0  0  0  0  0  0  0
   20.6608  -11.0017  -16.0435 C   0  0  2  0  0  0  0  0  0  0  0  0
   19.7478  -11.9051  -16.6451 N   0  0  0  0  0  0  0  0  0  0  0  0
   20.5123   -9.6049  -16.4469 C   0  0  0  0  0  0  0  0  0  0  0  0
   20.8330   -9.3177  -17.6492 O   0  0  0  0  0  0  0  0  0  0  0  0
   16.0872   -7.1912  -16.5695 C   0  0  0  0  0  0  0  0  0  0  0  0
   17.5157   -7.4684  -16.7808 C   0  0  0  0  0  0  0  0  0  0  0  0
   18.5298   -6.8006  -15.9393 C   0  0  2  0  0  0  0  0  0  0  0  0
   18.2689   -5.2883  -15.8986 C   0  0  0  0  0  0  0  0  0  0  0  0
   19.9356   -7.1539  -15.9936 C   0  0  2  0  0  0  0  0  0  0  0  0
   20.0492   -8.5705  -15.6221 N   0  0  0  0  0  0  0  0  0  0  0  0
   20.9998   -6.3459  -15.4536 C   0  0  0  0  0  0  0  0  0  0  0  0
   21.4398   -5.3845  -16.1927 O   0  0  0  0  0  0  0  0  0  0  0  0
   21.6475   -6.4168  -14.2520 O   0  0  0  0  0  0  0  0  0  0  0  0
  2  1  1  0
  2  3  1  0
  3  4  1  1
  5  3  1  0
  5  6  2  0
  7  8  1  0
  8  9  2  0
 10 11  1  0
 10  8  1  0
 12 11  1  6
 12 13  1  0
 13  5  1  0
 14 12  1  0
 15 14  2  0
 17 18  1  0
 17 16  1  0
 18 20  1  0
 18 19  1  6
 20 21  1  1
 20 22  1  0
 21 14  1  0
 22 24  1  0
 23 22  2  0
M  END
$$$$
