SQI.pdb
     RDKit          3D

 24 23  0  0  1  0  0  0  0  0999 V2000
   16.8010  -12.3627  -15.5428 O   0  0  0  0  0  0  0  0  0  0  0  0
   16.5290  -11.0202  -15.3726 C   0  0  0  0  0  0  0  0  0  0  0  0
   16.0090  -10.7844  -13.9656 C   0  0  2  0  0  0  0  0  0  0  0  0
   14.6344  -11.1629  -13.8334 N   0  0  0  0  0  0  0  0  0  0  0  0
   16.1886   -9.3561  -13.5812 C   0  0  0  0  0  0  0  0  0  0  0  0
   15.7875   -8.4245  -14.3207 O   0  0  0  0  0  0  0  0  0  0  0  0
   15.2395   -6.7148   -8.1701 N   0  0  0  0  0  0  0  0  0  0  0  0
   16.1645   -5.7985   -8.7051 C   0  0  0  0  0  0  0  0  0  0  0  0
   16.4244   -4.7245   -8.1243 O   0  0  0  0  0  0  0  0  0  0  0  0
   16.8362   -6.1525   -9.9994 C   0  0  0  0  0  0  0  0  0  0  0  0
   16.4437   -7.4933  -10.5236 C   0  0  0  0  0  0  0  0  0  0  0  0
   17.1353   -7.7780  -11.8302 C   0  0  2  0  0  0  0  0  0  0  0  0
   16.8168   -9.0495  -12.3718 N   0  0  0  0  0  0  0  0  0  0  0  0
   18.5496   -7.4136  -11.8861 C   0  0  0  0  0  0  0  0  0  0  0  0
   19.2938   -7.8571  -10.9479 O   0  0  0  0  0  0  0  0  0  0  0  0
   21.7513   -9.2639  -14.9892 C   0  0  0  0  0  0  0  0  0  0  0  0
   21.3359   -8.4695  -13.8237 C   0  0  0  0  0  0  0  0  0  0  0  0
   21.2115   -7.0018  -13.9369 C   0  0  2  0  0  0  0  0  0  0  0  0
   22.5289   -6.3981  -14.4438 C   0  0  0  0  0  0  0  0  0  0  0  0
   20.5477   -6.2007  -12.9262 C   0  0  2  0  0  0  0  0  0  0  0  0
   19.1418   -6.6236  -12.8811 N   0  0  0  0  0  0  0  0  0  0  0  0
   20.7091   -4.7760  -12.7807 C   0  0  0  0  0  0  0  0  0  0  0  0
   21.8750   -4.3503  -12.4289 O   0  0  0  0  0  0  0  0  0  0  0  0
   19.8152   -3.7574  -12.9591 O   0  0  0  0  0  0  0  0  0  0  0  0
  2  1  1  0
  2  3  1  0
  3  4  1  6
  5  3  1  0
  5  6  2  0
  7  8  1  0
  8  9  2  0
 10 11  1  0
 10  8  1  0
 12 11  1  1
 12 13  1  0
 13  5  1  0
 14 12  1  0
 15 14  2  0
 17 18  1  0
 17 16  1  0
 18 20  1  0
 18 19  1  1
 20 21  1  6
 20 22  1  0
 21 14  1  0
 22 24  1  0
 23 22  2  0
M  END
$$$$
