SQI.pdb
     RDKit          3D

 24 23  0  0  1  0  0  0  0  0999 V2000
   17.1346  -13.4129  -11.6819 O   0  0  0  0  0  0  0  0  0  0  0  0
   16.8390  -12.1307  -12.0990 C   0  0  0  0  0  0  0  0  0  0  0  0
   15.6755  -11.5907  -11.2864 C   0  0  2  0  0  0  0  0  0  0  0  0
   14.4897  -12.3730  -11.4655 N   0  0  0  0  0  0  0  0  0  0  0  0
   15.4123  -10.1682  -11.6433 C   0  0  0  0  0  0  0  0  0  0  0  0
   14.8586   -9.8575  -12.7261 O   0  0  0  0  0  0  0  0  0  0  0  0
   15.0921   -5.7373   -7.1803 N   0  0  0  0  0  0  0  0  0  0  0  0
   14.0446   -6.5652   -7.6262 C   0  0  0  0  0  0  0  0  0  0  0  0
   12.9959   -6.6997   -6.9625 O   0  0  0  0  0  0  0  0  0  0  0  0
   14.2234   -7.2833   -8.9317 C   0  0  0  0  0  0  0  0  0  0  0  0
   15.5506   -7.0361   -9.5672 C   0  0  0  0  0  0  0  0  0  0  0  0
   15.6523   -7.7555  -10.8858 C   0  0  2  0  0  0  0  0  0  0  0  0
   15.7905   -9.1607  -10.7527 N   0  0  0  0  0  0  0  0  0  0  0  0
   16.5300   -7.1341  -11.8755 C   0  0  0  0  0  0  0  0  0  0  0  0
   17.7680   -7.4422  -11.8183 O   0  0  0  0  0  0  0  0  0  0  0  0
   16.1588   -7.8070  -16.9129 C   0  0  0  0  0  0  0  0  0  0  0  0
   16.6229   -7.4163  -15.5735 C   0  0  0  0  0  0  0  0  0  0  0  0
   16.5878   -5.9970  -15.1648 C   0  0  2  0  0  0  0  0  0  0  0  0
   17.1155   -5.1079  -16.2997 C   0  0  0  0  0  0  0  0  0  0  0  0
   16.9907   -5.5623  -13.8409 C   0  0  2  0  0  0  0  0  0  0  0  0
   16.1183   -6.2367  -12.8705 N   0  0  0  0  0  0  0  0  0  0  0  0
   17.2743   -4.1951  -13.4839 C   0  0  0  0  0  0  0  0  0  0  0  0
   16.2968   -3.4963  -13.0145 O   0  0  0  0  0  0  0  0  0  0  0  0
   18.4381   -3.4815  -13.5529 O   0  0  0  0  0  0  0  0  0  0  0  0
  2  1  1  0
  2  3  1  0
  3  4  1  6
  5  3  1  0
  5  6  2  0
  7  8  1  0
  8  9  2  0
 10 11  1  0
 10  8  1  0
 12 11  1  1
 12 13  1  0
 13  5  1  0
 14 12  1  0
 15 14  2  0
 17 18  1  0
 17 16  1  0
 18 20  1  0
 18 19  1  6
 20 21  1  1
 20 22  1  0
 21 14  1  0
 22 24  1  0
 23 22  2  0
M  END
$$$$
