SQI.pdb
     RDKit          3D

 24 23  0  0  1  0  0  0  0  0999 V2000
   20.7232  -11.3006    5.1003 O   0  0  0  0  0  0  0  0  0  0  0  0
   20.2411  -12.3607    5.8412 C   0  0  0  0  0  0  0  0  0  0  0  0
   18.8218  -12.6782    5.4046 C   0  0  2  0  0  0  0  0  0  0  0  0
   17.9097  -11.6291    5.7478 N   0  0  0  0  0  0  0  0  0  0  0  0
   18.3731  -13.9666    6.0037 C   0  0  0  0  0  0  0  0  0  0  0  0
   17.8555  -14.0112    7.1463 O   0  0  0  0  0  0  0  0  0  0  0  0
   16.8461  -18.9810    2.6374 N   0  0  0  0  0  0  0  0  0  0  0  0
   15.9789  -18.0181    3.1871 C   0  0  0  0  0  0  0  0  0  0  0  0
   14.7966  -17.9130    2.8003 O   0  0  0  0  0  0  0  0  0  0  0  0
   16.5176  -17.1182    4.2603 C   0  0  0  0  0  0  0  0  0  0  0  0
   17.9249  -17.4308    4.6448 C   0  0  0  0  0  0  0  0  0  0  0  0
   18.4057  -16.4905    5.7179 C   0  0  2  0  0  0  0  0  0  0  0  0
   18.5327  -15.1486    5.2766 N   0  0  0  0  0  0  0  0  0  0  0  0
   19.5100  -16.9837    6.5382 C   0  0  0  0  0  0  0  0  0  0  0  0
   20.6908  -16.7465    6.1135 O   0  0  0  0  0  0  0  0  0  0  0  0
   22.8016  -15.3067    9.4935 C   0  0  0  0  0  0  0  0  0  0  0  0
   22.0806  -16.2807    8.6608 C   0  0  0  0  0  0  0  0  0  0  0  0
   21.0841  -17.1823    9.2744 C   0  0  2  0  0  0  0  0  0  0  0  0
   21.5242  -17.5672   10.6939 C   0  0  0  0  0  0  0  0  0  0  0  0
   20.4624  -18.2657    8.5370 C   0  0  2  0  0  0  0  0  0  0  0  0
   19.3705  -17.6886    7.7418 N   0  0  0  0  0  0  0  0  0  0  0  0
   20.1265  -19.5481    9.1024 C   0  0  0  0  0  0  0  0  0  0  0  0
   21.0321  -20.4657    9.0553 O   0  0  0  0  0  0  0  0  0  0  0  0
   18.9785  -19.9805    9.7053 O   0  0  0  0  0  0  0  0  0  0  0  0
  2  1  1  0
  2  3  1  0
  3  4  1  1
  5  3  1  0
  5  6  2  0
  7  8  1  0
  8  9  2  0
 10 11  1  0
 10  8  1  0
 12 11  1  6
 12 13  1  0
 13  5  1  0
 14 12  1  0
 15 14  2  0
 17 18  1  0
 17 16  1  0
 18 20  1  0
 18 19  1  1
 20 21  1  1
 20 22  1  0
 21 14  1  0
 22 24  1  0
 23 22  2  0
M  END
$$$$
