SQI.pdb
     RDKit          3D

 24 23  0  0  1  0  0  0  0  0999 V2000
   17.0308  -15.8758  -14.3008 O   0  0  0  0  0  0  0  0  0  0  0  0
   17.9352  -14.8814  -14.6145 C   0  0  0  0  0  0  0  0  0  0  0  0
   17.9019  -14.6216  -16.1102 C   0  0  2  0  0  0  0  0  0  0  0  0
   18.5048  -15.6881  -16.8515 N   0  0  0  0  0  0  0  0  0  0  0  0
   18.5759  -13.3307  -16.4255 C   0  0  0  0  0  0  0  0  0  0  0  0
   19.8080  -13.2764  -16.6588 O   0  0  0  0  0  0  0  0  0  0  0  0
   18.1425   -6.2690  -16.7525 N   0  0  0  0  0  0  0  0  0  0  0  0
   17.4810   -7.4944  -16.5462 C   0  0  0  0  0  0  0  0  0  0  0  0
   16.7396   -7.6735  -15.5579 O   0  0  0  0  0  0  0  0  0  0  0  0
   17.6905   -8.5849  -17.5555 C   0  0  0  0  0  0  0  0  0  0  0  0
   17.1417   -9.9040  -17.1253 C   0  0  0  0  0  0  0  0  0  0  0  0
   18.2494  -10.8253  -16.6887 C   0  0  2  0  0  0  0  0  0  0  0  0
   17.8187  -12.1574  -16.4615 N   0  0  0  0  0  0  0  0  0  0  0  0
   19.1576  -10.2836  -15.6799 C   0  0  0  0  0  0  0  0  0  0  0  0
   19.0703  -10.7770  -14.5052 O   0  0  0  0  0  0  0  0  0  0  0  0
   23.4393  -11.9657  -14.7588 C   0  0  0  0  0  0  0  0  0  0  0  0
   22.2304  -11.1333  -14.6702 C   0  0  0  0  0  0  0  0  0  0  0  0
   22.2732   -9.7210  -15.1014 C   0  0  2  0  0  0  0  0  0  0  0  0
   23.6136   -9.0878  -14.7024 C   0  0  0  0  0  0  0  0  0  0  0  0
   21.1362   -8.8322  -14.9558 C   0  0  2  0  0  0  0  0  0  0  0  0
   20.1054   -9.2755  -15.9038 N   0  0  0  0  0  0  0  0  0  0  0  0
   21.2310   -7.3972  -14.8619 C   0  0  0  0  0  0  0  0  0  0  0  0
   21.3276   -6.7417  -15.9688 O   0  0  0  0  0  0  0  0  0  0  0  0
   21.2331   -6.5762  -13.7690 O   0  0  0  0  0  0  0  0  0  0  0  0
  2  1  1  0
  2  3  1  0
  3  4  1  6
  5  3  1  0
  5  6  2  0
  7  8  1  0
  8  9  2  0
 10 11  1  0
 10  8  1  0
 12 11  1  1
 12 13  1  0
 13  5  1  0
 14 12  1  0
 15 14  2  0
 17 18  1  0
 17 16  1  0
 18 20  1  0
 18 19  1  1
 20 21  1  6
 20 22  1  0
 21 14  1  0
 22 24  1  0
 23 22  2  0
M  END
$$$$
