SQI.pdb
     RDKit          3D

 24 23  0  0  1  0  0  0  0  0999 V2000
   28.9651  -21.0355  -15.5434 O   0  0  0  0  0  0  0  0  0  0  0  0
   28.2470  -21.4001  -16.6644 C   0  0  0  0  0  0  0  0  0  0  0  0
   26.9850  -20.5601  -16.7513 C   0  0  2  0  0  0  0  0  0  0  0  0
   27.2592  -19.2285  -17.2005 N   0  0  0  0  0  0  0  0  0  0  0  0
   26.2953  -20.5260  -15.4309 C   0  0  0  0  0  0  0  0  0  0  0  0
   26.2084  -19.4650  -14.7659 O   0  0  0  0  0  0  0  0  0  0  0  0
   23.4724  -25.5922  -14.7879 N   0  0  0  0  0  0  0  0  0  0  0  0
   22.7862  -24.4761  -15.3027 C   0  0  0  0  0  0  0  0  0  0  0  0
   21.9060  -24.6027  -16.1789 O   0  0  0  0  0  0  0  0  0  0  0  0
   23.1420  -23.1219  -14.7631 C   0  0  0  0  0  0  0  0  0  0  0  0
   24.1971  -23.1624  -13.7089 C   0  0  0  0  0  0  0  0  0  0  0  0
   25.0107  -21.8956  -13.7202 C   0  0  2  0  0  0  0  0  0  0  0  0
   25.7344  -21.7007  -14.9243 N   0  0  0  0  0  0  0  0  0  0  0  0
   25.7544  -21.6144  -12.4939 C   0  0  0  0  0  0  0  0  0  0  0  0
   27.0193  -21.7843  -12.5382 O   0  0  0  0  0  0  0  0  0  0  0  0
   29.5482  -20.3728  -11.1783 C   0  0  0  0  0  0  0  0  0  0  0  0
   28.3251  -21.1039  -10.8157 C   0  0  0  0  0  0  0  0  0  0  0  0
   27.1584  -20.3720  -10.2812 C   0  0  2  0  0  0  0  0  0  0  0  0
   27.6053  -19.3965   -9.1831 C   0  0  0  0  0  0  0  0  0  0  0  0
   25.8929  -21.0259  -10.0079 C   0  0  2  0  0  0  0  0  0  0  0  0
   25.1888  -21.1771  -11.2882 N   0  0  0  0  0  0  0  0  0  0  0  0
   25.0124  -20.6746   -8.9224 C   0  0  0  0  0  0  0  0  0  0  0  0
   25.4039  -20.9714   -7.7296 O   0  0  0  0  0  0  0  0  0  0  0  0
   23.7930  -20.0569   -8.9313 O   0  0  0  0  0  0  0  0  0  0  0  0
  2  1  1  0
  2  3  1  0
  3  4  1  1
  5  3  1  0
  5  6  2  0
  7  8  1  0
  8  9  2  0
 10 11  1  0
 10  8  1  0
 12 11  1  1
 12 13  1  0
 13  5  1  0
 14 12  1  0
 15 14  2  0
 17 18  1  0
 17 16  1  0
 18 20  1  0
 18 19  1  1
 20 21  1  6
 20 22  1  0
 21 14  1  0
 22 24  1  0
 23 22  2  0
M  END
$$$$
