SQI.pdb
     RDKit          3D

 24 23  0  0  1  0  0  0  0  0999 V2000
   15.5318  -11.1662  -17.4308 O   0  0  0  0  0  0  0  0  0  0  0  0
   16.2477  -11.9203  -16.5230 C   0  0  0  0  0  0  0  0  0  0  0  0
   16.5381  -11.0841  -15.2892 C   0  0  2  0  0  0  0  0  0  0  0  0
   15.3366  -10.6626  -14.6343 N   0  0  0  0  0  0  0  0  0  0  0  0
   17.3691   -9.9013  -15.6507 C   0  0  0  0  0  0  0  0  0  0  0  0
   18.4806  -10.0322  -16.2190 O   0  0  0  0  0  0  0  0  0  0  0  0
   14.8523   -4.0855  -16.2427 N   0  0  0  0  0  0  0  0  0  0  0  0
   16.2231   -3.8534  -16.4628 C   0  0  0  0  0  0  0  0  0  0  0  0
   16.6469   -2.7239  -16.7840 O   0  0  0  0  0  0  0  0  0  0  0  0
   17.1671   -5.0079  -16.2961 C   0  0  0  0  0  0  0  0  0  0  0  0
   16.4824   -6.2889  -15.9550 C   0  0  0  0  0  0  0  0  0  0  0  0
   17.4887   -7.3639  -15.6411 C   0  0  2  0  0  0  0  0  0  0  0  0
   16.8993   -8.6206  -15.3498 N   0  0  0  0  0  0  0  0  0  0  0  0
   18.5781   -6.9657  -14.7520 C   0  0  0  0  0  0  0  0  0  0  0  0
   18.3058   -6.8962  -13.5062 O   0  0  0  0  0  0  0  0  0  0  0  0
   22.6747   -9.8546  -14.3489 C   0  0  0  0  0  0  0  0  0  0  0  0
   21.6446   -8.8167  -14.1947 C   0  0  0  0  0  0  0  0  0  0  0  0
   21.9893   -7.3964  -14.4107 C   0  0  2  0  0  0  0  0  0  0  0  0
   23.3460   -7.0788  -13.7660 C   0  0  0  0  0  0  0  0  0  0  0  0
   21.0115   -6.3335  -14.2778 C   0  0  2  0  0  0  0  0  0  0  0  0
   19.8834   -6.6588  -15.1606 N   0  0  0  0  0  0  0  0  0  0  0  0
   21.3316   -4.9283  -14.2726 C   0  0  0  0  0  0  0  0  0  0  0  0
   21.0503   -4.2583  -15.3386 O   0  0  0  0  0  0  0  0  0  0  0  0
   21.8977   -4.1492  -13.3026 O   0  0  0  0  0  0  0  0  0  0  0  0
  2  1  1  0
  2  3  1  0
  3  4  1  6
  5  3  1  0
  5  6  2  0
  7  8  1  0
  8  9  2  0
 10 11  1  0
 10  8  1  0
 12 11  1  1
 12 13  1  0
 13  5  1  0
 14 12  1  0
 15 14  2  0
 17 18  1  0
 17 16  1  0
 18 20  1  0
 18 19  1  1
 20 21  1  6
 20 22  1  0
 21 14  1  0
 22 24  1  0
 23 22  2  0
M  END
$$$$
