SQI.pdb
     RDKit          3D

 24 23  0  0  1  0  0  0  0  0999 V2000
   17.9518  -16.2422  -15.6213 O   0  0  0  0  0  0  0  0  0  0  0  0
   18.9632  -15.3117  -15.7492 C   0  0  0  0  0  0  0  0  0  0  0  0
   19.1420  -14.9579  -17.2150 C   0  0  2  0  0  0  0  0  0  0  0  0
   19.8585  -15.9733  -17.9264 N   0  0  0  0  0  0  0  0  0  0  0  0
   19.8381  -13.6473  -17.3490 C   0  0  0  0  0  0  0  0  0  0  0  0
   21.0822  -13.5803  -17.5012 O   0  0  0  0  0  0  0  0  0  0  0  0
   16.1817  -11.6582  -18.2837 N   0  0  0  0  0  0  0  0  0  0  0  0
   16.8394  -11.2021  -19.4416 C   0  0  0  0  0  0  0  0  0  0  0  0
   16.3949  -11.4509  -20.5813 O   0  0  0  0  0  0  0  0  0  0  0  0
   18.0958  -10.4004  -19.2667 C   0  0  0  0  0  0  0  0  0  0  0  0
   18.4570  -10.1688  -17.8376 C   0  0  0  0  0  0  0  0  0  0  0  0
   19.5327  -11.1260  -17.3979 C   0  0  2  0  0  0  0  0  0  0  0  0
   19.0883  -12.4695  -17.3039 N   0  0  0  0  0  0  0  0  0  0  0  0
   20.3688  -10.6674  -16.2904 C   0  0  0  0  0  0  0  0  0  0  0  0
   20.0031  -11.0095  -15.1156 O   0  0  0  0  0  0  0  0  0  0  0  0
   25.9854  -10.6174  -14.5446 C   0  0  0  0  0  0  0  0  0  0  0  0
   24.7308   -9.8585  -14.4348 C   0  0  0  0  0  0  0  0  0  0  0  0
   23.6521  -10.0684  -15.4222 C   0  0  2  0  0  0  0  0  0  0  0  0
   24.2336  -10.0872  -16.8429 C   0  0  0  0  0  0  0  0  0  0  0  0
   22.3687   -9.4004  -15.3205 C   0  0  2  0  0  0  0  0  0  0  0  0
   21.5279   -9.8901  -16.4210 N   0  0  0  0  0  0  0  0  0  0  0  0
   22.2017   -7.9905  -15.0727 C   0  0  0  0  0  0  0  0  0  0  0  0
   22.5416   -7.5552  -13.9068 O   0  0  0  0  0  0  0  0  0  0  0  0
   21.7336   -6.9947  -15.8837 O   0  0  0  0  0  0  0  0  0  0  0  0
  2  1  1  0
  2  3  1  0
  3  4  1  6
  5  3  1  0
  5  6  2  0
  7  8  1  0
  8  9  2  0
 10 11  1  0
 10  8  1  0
 12 11  1  1
 12 13  1  0
 13  5  1  0
 14 12  1  0
 15 14  2  0
 17 18  1  0
 17 16  1  0
 18 20  1  0
 18 19  1  6
 20 21  1  6
 20 22  1  0
 21 14  1  0
 22 24  1  0
 23 22  2  0
M  END
$$$$
