SQI.pdb
     RDKit          3D

 24 23  0  0  1  0  0  0  0  0999 V2000
   20.0293  -26.6784  -17.4975 O   0  0  0  0  0  0  0  0  0  0  0  0
   20.5015  -25.4870  -18.0101 C   0  0  0  0  0  0  0  0  0  0  0  0
   21.6687  -25.0022  -17.1685 C   0  0  2  0  0  0  0  0  0  0  0  0
   22.7481  -25.9431  -17.1591 N   0  0  0  0  0  0  0  0  0  0  0  0
   21.2197  -24.7205  -15.7760 C   0  0  0  0  0  0  0  0  0  0  0  0
   21.9029  -25.0746  -14.7844 O   0  0  0  0  0  0  0  0  0  0  0  0
   17.0163  -20.2372  -14.9744 N   0  0  0  0  0  0  0  0  0  0  0  0
   18.3229  -20.2324  -15.4980 C   0  0  0  0  0  0  0  0  0  0  0  0
   18.7514  -19.2683  -16.1653 O   0  0  0  0  0  0  0  0  0  0  0  0
   19.1931  -21.4245  -15.2269 C   0  0  0  0  0  0  0  0  0  0  0  0
   18.5100  -22.4894  -14.4359 C   0  0  0  0  0  0  0  0  0  0  0  0
   19.3683  -23.7235  -14.3508 C   0  0  2  0  0  0  0  0  0  0  0  0
   20.0125  -24.0479  -15.5720 N   0  0  0  0  0  0  0  0  0  0  0  0
   18.7756  -24.8543  -13.6395 C   0  0  0  0  0  0  0  0  0  0  0  0
   18.0684  -25.6610  -14.3324 O   0  0  0  0  0  0  0  0  0  0  0  0
   21.4119  -28.4201  -11.1666 C   0  0  0  0  0  0  0  0  0  0  0  0
   20.3612  -27.6019  -11.7901 C   0  0  0  0  0  0  0  0  0  0  0  0
   19.2731  -27.0416  -10.9627 C   0  0  2  0  0  0  0  0  0  0  0  0
   18.7353  -28.1124  -10.0028 C   0  0  0  0  0  0  0  0  0  0  0  0
   18.2473  -26.1774  -11.5145 C   0  0  2  0  0  0  0  0  0  0  0  0
   18.9246  -25.1156  -12.2705 N   0  0  0  0  0  0  0  0  0  0  0  0
   17.1032  -25.6995  -10.7797 C   0  0  0  0  0  0  0  0  0  0  0  0
   16.0633  -26.4624  -10.7514 O   0  0  0  0  0  0  0  0  0  0  0  0
   16.9178  -24.5409  -10.0785 O   0  0  0  0  0  0  0  0  0  0  0  0
  2  1  1  0
  2  3  1  0
  3  4  1  1
  5  3  1  0
  5  6  2  0
  7  8  1  0
  8  9  2  0
 10 11  1  0
 10  8  1  0
 12 11  1  6
 12 13  1  0
 13  5  1  0
 14 12  1  0
 15 14  2  0
 17 18  1  0
 17 16  1  0
 18 20  1  0
 18 19  1  6
 20 21  1  1
 20 22  1  0
 21 14  1  0
 22 24  1  0
 23 22  2  0
M  END
$$$$
