SQI.pdb
     RDKit          3D

 24 23  0  0  1  0  0  0  0  0999 V2000
   15.4453  -11.0196  -14.3096 O   0  0  0  0  0  0  0  0  0  0  0  0
   14.6423  -10.3896  -15.2388 C   0  0  0  0  0  0  0  0  0  0  0  0
   15.0705  -10.7988  -16.6370 C   0  0  2  0  0  0  0  0  0  0  0  0
   14.9838  -12.2150  -16.8295 N   0  0  0  0  0  0  0  0  0  0  0  0
   16.4566  -10.3261  -16.9117 C   0  0  0  0  0  0  0  0  0  0  0  0
   17.3860  -11.1332  -17.1574 O   0  0  0  0  0  0  0  0  0  0  0  0
   19.3722   -6.3917  -20.2883 N   0  0  0  0  0  0  0  0  0  0  0  0
   18.2963   -7.2322  -20.6312 C   0  0  0  0  0  0  0  0  0  0  0  0
   18.1044   -7.5924  -21.8110 O   0  0  0  0  0  0  0  0  0  0  0  0
   17.3829   -7.6888  -19.5317 C   0  0  0  0  0  0  0  0  0  0  0  0
   17.7596   -7.1576  -18.1892 C   0  0  0  0  0  0  0  0  0  0  0  0
   17.9344   -8.2804  -17.2016 C   0  0  2  0  0  0  0  0  0  0  0  0
   16.7253   -8.9554  -16.8950 N   0  0  0  0  0  0  0  0  0  0  0  0
   18.7895   -7.9821  -16.0545 C   0  0  0  0  0  0  0  0  0  0  0  0
   18.2045   -7.8083  -14.9327 O   0  0  0  0  0  0  0  0  0  0  0  0
   22.7316  -11.0768  -14.9010 C   0  0  0  0  0  0  0  0  0  0  0  0
   21.6905  -10.0438  -15.0062 C   0  0  0  0  0  0  0  0  0  0  0  0
   22.0477   -8.6178  -14.8595 C   0  0  2  0  0  0  0  0  0  0  0  0
   23.0407   -8.4390  -13.7023 C   0  0  0  0  0  0  0  0  0  0  0  0
   21.0618   -7.5585  -14.9577 C   0  0  2  0  0  0  0  0  0  0  0  0
   20.1865   -7.8745  -16.0943 N   0  0  0  0  0  0  0  0  0  0  0  0
   21.3638   -6.1530  -14.8570 C   0  0  0  0  0  0  0  0  0  0  0  0
   21.4860   -5.4983  -15.9619 O   0  0  0  0  0  0  0  0  0  0  0  0
   21.5470   -5.3596  -13.7591 O   0  0  0  0  0  0  0  0  0  0  0  0
  2  1  1  0
  2  3  1  0
  3  4  1  1
  5  3  1  0
  5  6  2  0
  7  8  1  0
  8  9  2  0
 10 11  1  0
 10  8  1  0
 12 11  1  1
 12 13  1  0
 13  5  1  0
 14 12  1  0
 15 14  2  0
 17 18  1  0
 17 16  1  0
 18 20  1  0
 18 19  1  1
 20 21  1  6
 20 22  1  0
 21 14  1  0
 22 24  1  0
 23 22  2  0
M  END
$$$$
