SQI.pdb
     RDKit          3D

 24 23  0  0  1  0  0  0  0  0999 V2000
   28.4852  -18.5271  -16.9102 O   0  0  0  0  0  0  0  0  0  0  0  0
   27.4445  -19.1924  -16.2941 C   0  0  0  0  0  0  0  0  0  0  0  0
   27.9636  -20.4765  -15.6718 C   0  0  2  0  0  0  0  0  0  0  0  0
   28.3872  -21.4181  -16.6639 N   0  0  0  0  0  0  0  0  0  0  0  0
   26.9219  -21.0845  -14.7970 C   0  0  0  0  0  0  0  0  0  0  0  0
   26.1425  -21.9696  -15.2267 O   0  0  0  0  0  0  0  0  0  0  0  0
   26.6410  -20.1176   -8.4368 N   0  0  0  0  0  0  0  0  0  0  0  0
   25.4421  -20.7970   -8.7241 C   0  0  0  0  0  0  0  0  0  0  0  0
   24.6845  -21.1904   -7.8132 O   0  0  0  0  0  0  0  0  0  0  0  0
   25.0962  -21.0336  -10.1650 C   0  0  0  0  0  0  0  0  0  0  0  0
   26.1883  -20.6516  -11.1072 C   0  0  0  0  0  0  0  0  0  0  0  0
   25.7845  -20.9275  -12.5311 C   0  0  2  0  0  0  0  0  0  0  0  0
   26.8121  -20.6590  -13.4710 N   0  0  0  0  0  0  0  0  0  0  0  0
   24.4543  -20.4557  -12.9106 C   0  0  0  0  0  0  0  0  0  0  0  0
   24.3281  -19.2023  -13.1198 O   0  0  0  0  0  0  0  0  0  0  0  0
   20.4335  -21.3687  -17.0022 C   0  0  0  0  0  0  0  0  0  0  0  0
   20.5885  -20.8863  -15.6219 C   0  0  0  0  0  0  0  0  0  0  0  0
   21.7624  -21.2960  -14.8239 C   0  0  2  0  0  0  0  0  0  0  0  0
   22.0255  -22.7976  -15.0051 C   0  0  0  0  0  0  0  0  0  0  0  0
   21.9848  -20.8185  -13.4725 C   0  0  2  0  0  0  0  0  0  0  0  0
   23.3213  -21.2674  -13.0603 N   0  0  0  0  0  0  0  0  0  0  0  0
   21.0143  -20.8993  -12.4101 C   0  0  0  0  0  0  0  0  0  0  0  0
   21.1911  -21.8184  -11.5224 O   0  0  0  0  0  0  0  0  0  0  0  0
   19.9009  -20.1455  -12.1642 O   0  0  0  0  0  0  0  0  0  0  0  0
  2  1  1  0
  2  3  1  0
  3  4  1  6
  5  3  1  0
  5  6  2  0
  7  8  1  0
  8  9  2  0
 10 11  1  0
 10  8  1  0
 12 11  1  1
 12 13  1  0
 13  5  1  0
 14 12  1  0
 15 14  2  0
 17 18  1  0
 17 16  1  0
 18 20  1  0
 18 19  1  1
 20 21  1  1
 20 22  1  0
 21 14  1  0
 22 24  1  0
 23 22  2  0
M  END
$$$$
