SQI.pdb
     RDKit          3D

 24 23  0  0  1  0  0  0  0  0999 V2000
   21.3156  -16.7712  -16.2292 O   0  0  0  0  0  0  0  0  0  0  0  0
   21.0231  -16.4887  -17.5483 C   0  0  0  0  0  0  0  0  0  0  0  0
   19.6773  -15.7902  -17.6290 C   0  0  2  0  0  0  0  0  0  0  0  0
   18.8161  -16.3995  -18.5972 N   0  0  0  0  0  0  0  0  0  0  0  0
   19.8632  -14.3455  -17.9427 C   0  0  0  0  0  0  0  0  0  0  0  0
   20.2728  -13.9681  -19.0675 O   0  0  0  0  0  0  0  0  0  0  0  0
   16.0881   -9.7976  -17.2630 N   0  0  0  0  0  0  0  0  0  0  0  0
   16.2296  -10.6885  -16.1824 C   0  0  0  0  0  0  0  0  0  0  0  0
   15.3264  -10.8257  -15.3316 O   0  0  0  0  0  0  0  0  0  0  0  0
   17.5029  -11.4763  -16.0830 C   0  0  0  0  0  0  0  0  0  0  0  0
   18.4321  -11.2478  -17.2278 C   0  0  0  0  0  0  0  0  0  0  0  0
   19.7285  -11.9837  -17.0171 C   0  0  2  0  0  0  0  0  0  0  0  0
   19.5749  -13.3926  -16.9627 N   0  0  0  0  0  0  0  0  0  0  0  0
   20.6182  -11.4146  -16.0069 C   0  0  0  0  0  0  0  0  0  0  0  0
   20.5432  -11.9095  -14.8320 O   0  0  0  0  0  0  0  0  0  0  0  0
   26.2478  -10.6705  -14.9845 C   0  0  0  0  0  0  0  0  0  0  0  0
   24.9101  -10.1985  -14.5973 C   0  0  0  0  0  0  0  0  0  0  0  0
   23.7900  -10.2858  -15.5566 C   0  0  2  0  0  0  0  0  0  0  0  0
   24.2680   -9.8966  -16.9627 C   0  0  0  0  0  0  0  0  0  0  0  0
   22.4572   -9.8118  -15.2360 C   0  0  2  0  0  0  0  0  0  0  0  0
   21.5362  -10.3791  -16.2297 N   0  0  0  0  0  0  0  0  0  0  0  0
   22.1386   -8.4494  -14.8904 C   0  0  0  0  0  0  0  0  0  0  0  0
   21.6982   -7.6914  -15.8369 O   0  0  0  0  0  0  0  0  0  0  0  0
   22.2193   -7.7938  -13.6937 O   0  0  0  0  0  0  0  0  0  0  0  0
  2  1  1  0
  2  3  1  0
  3  4  1  6
  5  3  1  0
  5  6  2  0
  7  8  1  0
  8  9  2  0
 10 11  1  0
 10  8  1  0
 12 11  1  1
 12 13  1  0
 13  5  1  0
 14 12  1  0
 15 14  2  0
 17 18  1  0
 17 16  1  0
 18 20  1  0
 18 19  1  6
 20 21  1  6
 20 22  1  0
 21 14  1  0
 22 24  1  0
 23 22  2  0
M  END
$$$$
