MLQ.pdb
     RDKit          3D

 26 25  0  0  1  0  0  0  0  0999 V2000
    7.2880  -11.4154   27.5798 C   0  0  0  0  0  0  0  0  0  0  0  0
    6.1145  -12.0330   26.3644 S   0  0  0  0  0  0  0  0  0  0  0  0
    6.8010  -13.1397   25.1543 C   0  0  0  0  0  0  0  0  0  0  0  0
    6.7841  -14.5735   25.5694 C   0  0  0  0  0  0  0  0  0  0  0  0
    7.9450  -15.3912   25.1427 C   0  0  2  0  0  0  0  0  0  0  0  0
    9.2193  -14.8202   25.4707 N   0  0  0  0  0  0  0  0  0  0  0  0
    7.8701  -15.6083   23.6575 C   0  0  0  0  0  0  0  0  0  0  0  0
    6.9101  -16.3436   23.2615 O   0  0  0  0  0  0  0  0  0  0  0  0
    6.6023  -13.9520   20.5738 C   0  0  0  0  0  0  0  0  0  0  0  0
    7.9007  -13.4257   19.9578 C   0  0  1  0  0  0  0  0  0  0  0  0
    7.9356  -11.9424   20.0114 C   0  0  0  0  0  0  0  0  0  0  0  0
    9.0556  -14.1488   20.5326 C   0  0  0  0  0  0  0  0  0  0  0  0
    8.7691  -15.3536   21.3467 C   0  0  2  0  0  0  0  0  0  0  0  0
    8.7945  -15.0378   22.7474 N   0  0  0  0  0  0  0  0  0  0  0  0
    9.8054  -16.4358   21.1161 C   0  0  0  0  0  0  0  0  0  0  0  0
    9.8000  -17.1716   20.1009 O   0  0  0  0  0  0  0  0  0  0  0  0
   14.9964  -15.9284   18.8043 N   0  0  0  0  0  0  0  0  0  0  0  0
   14.2544  -14.9819   19.5402 C   0  0  0  0  0  0  0  0  0  0  0  0
   14.2940  -13.7571   19.2069 O   0  0  0  0  0  0  0  0  0  0  0  0
   13.4172  -15.3551   20.6905 C   0  0  0  0  0  0  0  0  0  0  0  0
   12.6280  -16.5858   20.4239 C   0  0  0  0  0  0  0  0  0  0  0  0
   12.1303  -17.2572   21.6347 C   0  0  2  0  0  0  0  0  0  0  0  0
   10.8404  -16.6634   22.0552 N   0  0  0  0  0  0  0  0  0  0  0  0
   12.9474  -17.4148   22.8143 C   0  0  0  0  0  0  0  0  0  0  0  0
   12.5198  -16.9475   23.9312 O   0  0  0  0  0  0  0  0  0  0  0  0
   14.1869  -18.0380   22.9225 O   0  0  0  0  0  0  0  0  0  0  0  0
  2  1  1  0
  3  2  1  0
  4  3  1  0
  4  5  1  0
  5  6  1  6
  7  5  1  0
  7  8  2  0
 10 11  1  1
 10  9  1  0
 12 10  1  0
 13 12  1  6
 13 14  1  0
 14  7  1  0
 15 13  1  0
 16 15  2  0
 17 18  1  0
 18 19  2  0
 20 18  1  0
 20 21  1  0
 22 21  1  6
 22 23  1  0
 23 15  1  0
 24 22  1  0
 25 24  2  0
 26 24  1  0
M  END
$$$$
