MLQ.pdb
     RDKit          3D

 26 25  0  0  1  0  0  0  0  0999 V2000
    6.4477  -12.5763   16.8761 C   0  0  0  0  0  0  0  0  0  0  0  0
    7.7073  -12.6466   18.1584 S   0  0  0  0  0  0  0  0  0  0  0  0
    7.6999  -14.1316   19.1359 C   0  0  0  0  0  0  0  0  0  0  0  0
    8.6089  -14.0799   20.3188 C   0  0  0  0  0  0  0  0  0  0  0  0
    8.6352  -15.2895   21.1761 C   0  0  2  0  0  0  0  0  0  0  0  0
    7.4098  -16.0349   21.1800 N   0  0  0  0  0  0  0  0  0  0  0  0
    8.9692  -14.8832   22.5838 C   0  0  0  0  0  0  0  0  0  0  0  0
   10.0794  -14.2784   22.7283 O   0  0  0  0  0  0  0  0  0  0  0  0
    5.5506  -12.3379   26.4112 C   0  0  0  0  0  0  0  0  0  0  0  0
    6.9065  -12.6252   25.7622 C   0  0  1  0  0  0  0  0  0  0  0  0
    7.9897  -11.9169   26.4897 C   0  0  0  0  0  0  0  0  0  0  0  0
    7.0673  -14.0821   25.5647 C   0  0  0  0  0  0  0  0  0  0  0  0
    8.3421  -14.5533   24.9736 C   0  0  2  0  0  0  0  0  0  0  0  0
    8.1161  -15.1450   23.6847 N   0  0  0  0  0  0  0  0  0  0  0  0
    8.9954  -15.6117   25.8402 C   0  0  0  0  0  0  0  0  0  0  0  0
    9.2294  -15.4371   27.0596 O   0  0  0  0  0  0  0  0  0  0  0  0
   14.3023  -16.5412   24.3383 N   0  0  0  0  0  0  0  0  0  0  0  0
   13.3737  -17.1729   23.4859 C   0  0  0  0  0  0  0  0  0  0  0  0
   13.7030  -17.4429   22.2894 O   0  0  0  0  0  0  0  0  0  0  0  0
   12.0215  -17.5462   23.9280 C   0  0  0  0  0  0  0  0  0  0  0  0
   11.7769  -17.1627   25.3428 C   0  0  0  0  0  0  0  0  0  0  0  0
   10.4933  -17.6373   25.8830 C   0  0  2  0  0  0  0  0  0  0  0  0
    9.3746  -16.8634   25.2976 N   0  0  0  0  0  0  0  0  0  0  0  0
   10.2544  -17.7514   27.3021 C   0  0  0  0  0  0  0  0  0  0  0  0
   10.2378  -18.9192   27.8356 O   0  0  0  0  0  0  0  0  0  0  0  0
   10.0382  -16.7288   28.2207 O   0  0  0  0  0  0  0  0  0  0  0  0
  2  1  1  0
  3  2  1  0
  4  3  1  0
  4  5  1  0
  5  6  1  1
  7  5  1  0
  7  8  2  0
 10 11  1  1
 10  9  1  0
 12 10  1  0
 13 12  1  1
 13 14  1  0
 14  7  1  0
 15 13  1  0
 16 15  2  0
 17 18  1  0
 18 19  2  0
 20 18  1  0
 20 21  1  0
 22 21  1  1
 22 23  1  0
 23 15  1  0
 24 22  1  0
 25 24  2  0
 26 24  1  0
M  END
$$$$
