MLQ.pdb
     RDKit          3D

 26 25  0  0  1  0  0  0  0  0999 V2000
    8.1220  -20.0712   28.3173 C   0  0  0  0  0  0  0  0  0  0  0  0
    6.8657  -21.0864   27.5257 S   0  0  0  0  0  0  0  0  0  0  0  0
    6.2630  -20.4597   25.9750 C   0  0  0  0  0  0  0  0  0  0  0  0
    6.9868  -19.2469   25.4919 C   0  0  0  0  0  0  0  0  0  0  0  0
    6.3773  -18.5369   24.3418 C   0  0  2  0  0  0  0  0  0  0  0  0
    6.3106  -19.3144   23.1384 N   0  0  0  0  0  0  0  0  0  0  0  0
    7.1575  -17.2807   24.0741 C   0  0  0  0  0  0  0  0  0  0  0  0
    7.7119  -17.2162   22.9306 O   0  0  0  0  0  0  0  0  0  0  0  0
    5.9470  -12.2742   26.5505 C   0  0  0  0  0  0  0  0  0  0  0  0
    6.2776  -13.1939   25.3727 C   0  0  1  0  0  0  0  0  0  0  0  0
    6.1980  -12.4456   24.0928 C   0  0  0  0  0  0  0  0  0  0  0  0
    7.5317  -13.9277   25.6482 C   0  0  0  0  0  0  0  0  0  0  0  0
    7.9235  -14.9908   24.6927 C   0  0  2  0  0  0  0  0  0  0  0  0
    7.2746  -16.2300   25.0178 N   0  0  0  0  0  0  0  0  0  0  0  0
    9.4171  -15.2472   24.7330 C   0  0  0  0  0  0  0  0  0  0  0  0
   10.2627  -14.3593   24.4709 O   0  0  0  0  0  0  0  0  0  0  0  0
   10.3501  -14.0146   29.0579 N   0  0  0  0  0  0  0  0  0  0  0  0
   10.5616  -15.3006   29.5958 C   0  0  0  0  0  0  0  0  0  0  0  0
   10.9804  -15.4207   30.7887 O   0  0  0  0  0  0  0  0  0  0  0  0
   10.3086  -16.5297   28.8286 C   0  0  0  0  0  0  0  0  0  0  0  0
    9.7730  -16.2355   27.4739 C   0  0  0  0  0  0  0  0  0  0  0  0
   10.6033  -16.7481   26.3728 C   0  0  2  0  0  0  0  0  0  0  0  0
    9.9269  -16.5232   25.0747 N   0  0  0  0  0  0  0  0  0  0  0  0
   11.1258  -18.0938   26.3693 C   0  0  0  0  0  0  0  0  0  0  0  0
   10.5329  -18.9868   25.6624 O   0  0  0  0  0  0  0  0  0  0  0  0
   12.2380  -18.5841   27.0468 O   0  0  0  0  0  0  0  0  0  0  0  0
  2  1  1  0
  3  2  1  0
  4  3  1  0
  4  5  1  0
  5  6  1  6
  7  5  1  0
  7  8  2  0
 10 11  1  6
 10  9  1  0
 12 10  1  0
 13 12  1  1
 13 14  1  0
 14  7  1  0
 15 13  1  0
 16 15  2  0
 17 18  1  0
 18 19  2  0
 20 18  1  0
 20 21  1  0
 22 21  1  1
 22 23  1  0
 23 15  1  0
 24 22  1  0
 25 24  2  0
 26 24  1  0
M  END
$$$$
