MLQ.pdb
     RDKit          3D

 26 25  0  0  1  0  0  0  0  0999 V2000
    4.2518  -20.7417   22.3082 C   0  0  0  0  0  0  0  0  0  0  0  0
    4.2896  -19.4356   21.0720 S   0  0  0  0  0  0  0  0  0  0  0  0
    3.7564  -17.8410   21.6495 C   0  0  0  0  0  0  0  0  0  0  0  0
    4.8776  -16.9048   21.9573 C   0  0  0  0  0  0  0  0  0  0  0  0
    5.8500  -17.3630   22.9786 C   0  0  2  0  0  0  0  0  0  0  0  0
    5.2503  -17.8212   24.1983 N   0  0  0  0  0  0  0  0  0  0  0  0
    6.7991  -16.2396   23.2880 C   0  0  0  0  0  0  0  0  0  0  0  0
    7.5529  -15.8821   22.3271 O   0  0  0  0  0  0  0  0  0  0  0  0
    5.8558  -11.9219   26.7693 C   0  0  0  0  0  0  0  0  0  0  0  0
    6.4116  -12.6099   25.5203 C   0  0  1  0  0  0  0  0  0  0  0  0
    6.9179  -11.6015   24.5553 C   0  0  0  0  0  0  0  0  0  0  0  0
    7.3405  -13.6904   25.9163 C   0  0  0  0  0  0  0  0  0  0  0  0
    7.8318  -14.5927   24.8482 C   0  0  2  0  0  0  0  0  0  0  0  0
    6.8605  -15.6093   24.5557 N   0  0  0  0  0  0  0  0  0  0  0  0
    9.1051  -15.3015   25.2657 C   0  0  0  0  0  0  0  0  0  0  0  0
   10.0994  -14.6908   25.7246 O   0  0  0  0  0  0  0  0  0  0  0  0
   10.4415  -20.9213   27.8310 N   0  0  0  0  0  0  0  0  0  0  0  0
    9.9511  -19.7343   28.4129 C   0  0  0  0  0  0  0  0  0  0  0  0
    9.6459  -19.7193   29.6455 O   0  0  0  0  0  0  0  0  0  0  0  0
    9.7806  -18.4903   27.6469 C   0  0  0  0  0  0  0  0  0  0  0  0
   10.1793  -18.6575   26.2250 C   0  0  0  0  0  0  0  0  0  0  0  0
   10.4808  -17.3958   25.5309 C   0  0  2  0  0  0  0  0  0  0  0  0
    9.2252  -16.7077   25.1521 N   0  0  0  0  0  0  0  0  0  0  0  0
   11.3729  -17.3390   24.3974 C   0  0  0  0  0  0  0  0  0  0  0  0
   10.9006  -16.9953   23.2540 O   0  0  0  0  0  0  0  0  0  0  0  0
   12.7380  -17.6070   24.3657 O   0  0  0  0  0  0  0  0  0  0  0  0
  2  1  1  0
  3  2  1  0
  4  3  1  0
  4  5  1  0
  5  6  1  1
  7  5  1  0
  7  8  2  0
 10 11  1  6
 10  9  1  0
 12 10  1  0
 13 12  1  1
 13 14  1  0
 14  7  1  0
 15 13  1  0
 16 15  2  0
 17 18  1  0
 18 19  2  0
 20 18  1  0
 20 21  1  0
 22 21  1  6
 22 23  1  0
 23 15  1  0
 24 22  1  0
 25 24  2  0
 26 24  1  0
M  END
$$$$
