MLQ.pdb
     RDKit          3D

 26 25  0  0  1  0  0  0  0  0999 V2000
    9.0286  -20.6828   27.4877 C   0  0  0  0  0  0  0  0  0  0  0  0
    7.2631  -21.0272   27.4893 S   0  0  0  0  0  0  0  0  0  0  0  0
    6.3882  -20.4642   26.0477 C   0  0  0  0  0  0  0  0  0  0  0  0
    6.9543  -19.2212   25.4453 C   0  0  0  0  0  0  0  0  0  0  0  0
    6.1836  -18.6276   24.3263 C   0  0  2  0  0  0  0  0  0  0  0  0
    6.2712  -19.3614   23.0970 N   0  0  0  0  0  0  0  0  0  0  0  0
    6.6615  -17.2216   24.0959 C   0  0  0  0  0  0  0  0  0  0  0  0
    7.2736  -17.0266   22.9975 O   0  0  0  0  0  0  0  0  0  0  0  0
    6.7030  -11.9147   24.2431 C   0  0  0  0  0  0  0  0  0  0  0  0
    6.8365  -12.4812   25.6586 C   0  0  1  0  0  0  0  0  0  0  0  0
    6.2751  -11.5313   26.6519 C   0  0  0  0  0  0  0  0  0  0  0  0
    6.3285  -13.8697   25.6911 C   0  0  0  0  0  0  0  0  0  0  0  0
    7.0103  -14.8655   24.8308 C   0  0  2  0  0  0  0  0  0  0  0  0
    6.4500  -16.1733   25.0257 N   0  0  0  0  0  0  0  0  0  0  0  0
    8.4871  -14.9611   25.1597 C   0  0  0  0  0  0  0  0  0  0  0  0
    9.2674  -13.9852   25.0557 O   0  0  0  0  0  0  0  0  0  0  0  0
   10.5923  -18.2430   29.7575 N   0  0  0  0  0  0  0  0  0  0  0  0
   10.8989  -16.8682   29.6956 C   0  0  0  0  0  0  0  0  0  0  0  0
   11.1000  -16.2212   30.7697 O   0  0  0  0  0  0  0  0  0  0  0  0
   11.0052  -16.1385   28.4230 C   0  0  0  0  0  0  0  0  0  0  0  0
   10.6222  -16.9878   27.2650 C   0  0  0  0  0  0  0  0  0  0  0  0
   10.4814  -16.2527   25.9984 C   0  0  2  0  0  0  0  0  0  0  0  0
    9.0553  -16.1789   25.6057 N   0  0  0  0  0  0  0  0  0  0  0  0
   11.2442  -16.5987   24.8227 C   0  0  0  0  0  0  0  0  0  0  0  0
   10.6238  -17.0441   23.7906 O   0  0  0  0  0  0  0  0  0  0  0  0
   12.6198  -16.5060   24.6345 O   0  0  0  0  0  0  0  0  0  0  0  0
  2  1  1  0
  3  2  1  0
  4  3  1  0
  4  5  1  0
  5  6  1  6
  7  5  1  0
  7  8  2  0
 10 11  1  1
 10  9  1  0
 12 10  1  0
 13 12  1  1
 13 14  1  0
 14  7  1  0
 15 13  1  0
 16 15  2  0
 17 18  1  0
 18 19  2  0
 20 18  1  0
 20 21  1  0
 22 21  1  1
 22 23  1  0
 23 15  1  0
 24 22  1  0
 25 24  2  0
 26 24  1  0
M  END
$$$$
