MLQ.pdb
     RDKit          3D

 26 25  0  0  1  0  0  0  0  0999 V2000
    7.6997  -19.8906   29.2132 C   0  0  0  0  0  0  0  0  0  0  0  0
    7.6309  -19.3527   27.4981 S   0  0  0  0  0  0  0  0  0  0  0  0
    7.2249  -20.6281   26.3281 C   0  0  0  0  0  0  0  0  0  0  0  0
    7.1323  -20.1465   24.9182 C   0  0  0  0  0  0  0  0  0  0  0  0
    5.9915  -19.2520   24.6068 C   0  0  2  0  0  0  0  0  0  0  0  0
    5.1827  -19.6909   23.5065 N   0  0  0  0  0  0  0  0  0  0  0  0
    6.5167  -17.8748   24.3135 C   0  0  0  0  0  0  0  0  0  0  0  0
    6.9509  -17.6970   23.1306 O   0  0  0  0  0  0  0  0  0  0  0  0
    6.1462  -12.1376   26.4344 C   0  0  0  0  0  0  0  0  0  0  0  0
    6.9946  -13.1118   25.6138 C   0  0  1  0  0  0  0  0  0  0  0  0
    8.4374  -12.9111   25.9008 C   0  0  0  0  0  0  0  0  0  0  0  0
    6.4623  -14.4838   25.7600 C   0  0  0  0  0  0  0  0  0  0  0  0
    7.1415  -15.5628   25.0043 C   0  0  2  0  0  0  0  0  0  0  0  0
    6.5312  -16.8342   25.2753 N   0  0  0  0  0  0  0  0  0  0  0  0
    8.6013  -15.6778   25.3965 C   0  0  0  0  0  0  0  0  0  0  0  0
    8.9704  -16.1526   26.4966 O   0  0  0  0  0  0  0  0  0  0  0  0
   10.1930  -19.9937   22.6690 N   0  0  0  0  0  0  0  0  0  0  0  0
   10.9465  -19.8474   23.8517 C   0  0  0  0  0  0  0  0  0  0  0  0
   11.5731  -20.8460   24.3239 O   0  0  0  0  0  0  0  0  0  0  0  0
   11.0477  -18.5688   24.5715 C   0  0  0  0  0  0  0  0  0  0  0  0
   10.2825  -17.4904   23.8932 C   0  0  0  0  0  0  0  0  0  0  0  0
   10.7648  -16.1319   24.1874 C   0  0  2  0  0  0  0  0  0  0  0  0
    9.6258  -15.2457   24.5199 N   0  0  0  0  0  0  0  0  0  0  0  0
   11.6317  -15.4140   23.2835 C   0  0  0  0  0  0  0  0  0  0  0  0
   11.1298  -14.4904   22.5463 O   0  0  0  0  0  0  0  0  0  0  0  0
   13.0001  -15.5804   23.0936 O   0  0  0  0  0  0  0  0  0  0  0  0
  2  1  1  0
  3  2  1  0
  4  3  1  0
  4  5  1  0
  5  6  1  6
  7  5  1  0
  7  8  2  0
 10 11  1  1
 10  9  1  0
 12 10  1  0
 13 12  1  1
 13 14  1  0
 14  7  1  0
 15 13  1  0
 16 15  2  0
 17 18  1  0
 18 19  2  0
 20 18  1  0
 20 21  1  0
 22 21  1  6
 22 23  1  0
 23 15  1  0
 24 22  1  0
 25 24  2  0
 26 24  1  0
M  END
$$$$
