MLQ.pdb
     RDKit          3D

 26 25  0  0  1  0  0  0  0  0999 V2000
    8.2780  -11.5159   19.5833 C   0  0  0  0  0  0  0  0  0  0  0  0
    7.5586  -13.0052   18.8760 S   0  0  0  0  0  0  0  0  0  0  0  0
    7.9602  -14.5110   19.7315 C   0  0  0  0  0  0  0  0  0  0  0  0
    8.4716  -14.2995   21.1179 C   0  0  0  0  0  0  0  0  0  0  0  0
    8.7558  -15.5244   21.9035 C   0  0  2  0  0  0  0  0  0  0  0  0
    7.7338  -16.5273   21.8204 N   0  0  0  0  0  0  0  0  0  0  0  0
    8.9578  -15.1451   23.3436 C   0  0  0  0  0  0  0  0  0  0  0  0
    9.9131  -14.3342   23.5653 O   0  0  0  0  0  0  0  0  0  0  0  0
    5.4646  -12.6547   26.4183 C   0  0  0  0  0  0  0  0  0  0  0  0
    6.8441  -13.1042   25.9312 C   0  0  1  0  0  0  0  0  0  0  0  0
    7.8950  -12.1792   26.4255 C   0  0  0  0  0  0  0  0  0  0  0  0
    7.0277  -14.5449   26.2105 C   0  0  0  0  0  0  0  0  0  0  0  0
    8.2853  -15.1750   25.7435 C   0  0  2  0  0  0  0  0  0  0  0  0
    8.1471  -15.6442   24.3933 N   0  0  0  0  0  0  0  0  0  0  0  0
    8.6523  -16.3740   26.5954 C   0  0  0  0  0  0  0  0  0  0  0  0
    8.8623  -16.2883   27.8286 O   0  0  0  0  0  0  0  0  0  0  0  0
   11.0184  -20.0177   22.7079 N   0  0  0  0  0  0  0  0  0  0  0  0
   12.1681  -19.5123   23.3487 C   0  0  0  0  0  0  0  0  0  0  0  0
   13.3184  -19.8778   22.9538 O   0  0  0  0  0  0  0  0  0  0  0  0
   12.0954  -18.5600   24.4673 C   0  0  0  0  0  0  0  0  0  0  0  0
   10.7274  -18.0030   24.6313 C   0  0  0  0  0  0  0  0  0  0  0  0
   10.0952  -18.3260   25.9199 C   0  0  2  0  0  0  0  0  0  0  0  0
    8.7750  -17.6629   26.0224 N   0  0  0  0  0  0  0  0  0  0  0  0
   10.7798  -18.1401   27.1772 C   0  0  0  0  0  0  0  0  0  0  0  0
   11.3556  -17.0161   27.4088 O   0  0  0  0  0  0  0  0  0  0  0  0
   10.9036  -19.0433   28.2285 O   0  0  0  0  0  0  0  0  0  0  0  0
  2  1  1  0
  3  2  1  0
  4  3  1  0
  4  5  1  0
  5  6  1  1
  7  5  1  0
  7  8  2  0
 10 11  1  1
 10  9  1  0
 12 10  1  0
 13 12  1  1
 13 14  1  0
 14  7  1  0
 15 13  1  0
 16 15  2  0
 17 18  1  0
 18 19  2  0
 20 18  1  0
 20 21  1  0
 22 21  1  6
 22 23  1  0
 23 15  1  0
 24 22  1  0
 25 24  2  0
 26 24  1  0
M  END
$$$$
