MLQ.pdb
     RDKit          3D

 26 25  0  0  1  0  0  0  0  0999 V2000
    5.9245  -19.6327   21.3989 C   0  0  0  0  0  0  0  0  0  0  0  0
    6.4286  -19.2976   19.7050 S   0  0  0  0  0  0  0  0  0  0  0  0
    6.9427  -17.6247   19.3928 C   0  0  0  0  0  0  0  0  0  0  0  0
    7.5836  -16.9612   20.5664 C   0  0  0  0  0  0  0  0  0  0  0  0
    7.8832  -15.5168   20.4175 C   0  0  2  0  0  0  0  0  0  0  0  0
    8.8656  -15.2197   19.4155 N   0  0  0  0  0  0  0  0  0  0  0  0
    8.3491  -14.9757   21.7399 C   0  0  0  0  0  0  0  0  0  0  0  0
    9.6112  -14.9207   21.8926 O   0  0  0  0  0  0  0  0  0  0  0  0
    7.4133  -11.2894   26.1121 C   0  0  0  0  0  0  0  0  0  0  0  0
    7.1645  -12.7990   26.0730 C   0  0  1  0  0  0  0  0  0  0  0  0
    6.1634  -13.1858   27.0989 C   0  0  0  0  0  0  0  0  0  0  0  0
    6.9042  -13.2267   24.6814 C   0  0  0  0  0  0  0  0  0  0  0  0
    7.9305  -14.0699   24.0240 C   0  0  2  0  0  0  0  0  0  0  0  0
    7.4576  -14.5489   22.7555 N   0  0  0  0  0  0  0  0  0  0  0  0
    8.2653  -15.2877   24.8624 C   0  0  0  0  0  0  0  0  0  0  0  0
    7.3969  -15.9286   25.5006 O   0  0  0  0  0  0  0  0  0  0  0  0
   11.7145  -19.8039   23.7085 N   0  0  0  0  0  0  0  0  0  0  0  0
   11.7202  -18.5279   23.1087 C   0  0  0  0  0  0  0  0  0  0  0  0
   11.9470  -18.4208   21.8638 O   0  0  0  0  0  0  0  0  0  0  0  0
   11.4641  -17.2957   23.8698 C   0  0  0  0  0  0  0  0  0  0  0  0
   11.1570  -17.5802   25.2957 C   0  0  0  0  0  0  0  0  0  0  0  0
    9.9237  -16.9449   25.7855 C   0  0  2  0  0  0  0  0  0  0  0  0
    9.5967  -15.7593   24.9604 N   0  0  0  0  0  0  0  0  0  0  0  0
    9.7483  -16.5788   27.1708 C   0  0  0  0  0  0  0  0  0  0  0  0
    9.6509  -15.3353   27.4755 O   0  0  0  0  0  0  0  0  0  0  0  0
    9.6558  -17.4200   28.2754 O   0  0  0  0  0  0  0  0  0  0  0  0
  2  1  1  0
  3  2  1  0
  4  3  1  0
  4  5  1  0
  5  6  1  6
  7  5  1  0
  7  8  2  0
 10 11  1  1
 10  9  1  0
 12 10  1  0
 13 12  1  1
 13 14  1  0
 14  7  1  0
 15 13  1  0
 16 15  2  0
 17 18  1  0
 18 19  2  0
 20 18  1  0
 20 21  1  0
 22 21  1  1
 22 23  1  0
 23 15  1  0
 24 22  1  0
 25 24  2  0
 26 24  1  0
M  END
$$$$
