MLQ.pdb
     RDKit          3D

 26 25  0  0  1  0  0  0  0  0999 V2000
    7.5774  -13.2610   16.5100 C   0  0  0  0  0  0  0  0  0  0  0  0
    8.4586  -13.2932   18.0779 S   0  0  0  0  0  0  0  0  0  0  0  0
    7.4366  -13.5651   19.5069 C   0  0  0  0  0  0  0  0  0  0  0  0
    8.1758  -13.4862   20.8014 C   0  0  0  0  0  0  0  0  0  0  0  0
    8.3645  -14.7664   21.5252 C   0  0  2  0  0  0  0  0  0  0  0  0
    7.2042  -15.6095   21.5422 N   0  0  0  0  0  0  0  0  0  0  0  0
    8.7799  -14.4714   22.9390 C   0  0  0  0  0  0  0  0  0  0  0  0
    9.9301  -13.9433   23.0708 O   0  0  0  0  0  0  0  0  0  0  0  0
    5.4825  -12.0892   26.4793 C   0  0  0  0  0  0  0  0  0  0  0  0
    6.8192  -12.4227   25.8129 C   0  0  1  0  0  0  0  0  0  0  0  0
    7.8174  -11.3601   26.0934 C   0  0  0  0  0  0  0  0  0  0  0  0
    7.2056  -13.8133   26.1360 C   0  0  0  0  0  0  0  0  0  0  0  0
    8.3491  -14.3934   25.3929 C   0  0  2  0  0  0  0  0  0  0  0  0
    7.9579  -14.7526   24.0586 N   0  0  0  0  0  0  0  0  0  0  0  0
    8.8600  -15.6545   26.0611 C   0  0  0  0  0  0  0  0  0  0  0  0
    8.7882  -15.8403   27.2991 O   0  0  0  0  0  0  0  0  0  0  0  0
    6.5206  -19.5020   27.6108 N   0  0  0  0  0  0  0  0  0  0  0  0
    7.4656  -20.4752   27.2263 C   0  0  0  0  0  0  0  0  0  0  0  0
    7.4589  -21.6133   27.7897 O   0  0  0  0  0  0  0  0  0  0  0  0
    8.4708  -20.2313   26.1807 C   0  0  0  0  0  0  0  0  0  0  0  0
    8.3955  -18.8435   25.6543 C   0  0  0  0  0  0  0  0  0  0  0  0
    9.6160  -18.0504   25.8683 C   0  0  2  0  0  0  0  0  0  0  0  0
    9.4498  -16.6928   25.3003 N   0  0  0  0  0  0  0  0  0  0  0  0
   10.9207  -18.5323   25.4818 C   0  0  0  0  0  0  0  0  0  0  0  0
   11.3894  -19.5804   26.0568 O   0  0  0  0  0  0  0  0  0  0  0  0
   11.7810  -18.0050   24.5236 O   0  0  0  0  0  0  0  0  0  0  0  0
  2  1  1  0
  3  2  1  0
  4  3  1  0
  4  5  1  0
  5  6  1  1
  7  5  1  0
  7  8  2  0
 10 11  1  1
 10  9  1  0
 12 10  1  0
 13 12  1  1
 13 14  1  0
 14  7  1  0
 15 13  1  0
 16 15  2  0
 17 18  1  0
 18 19  2  0
 20 18  1  0
 20 21  1  0
 22 21  1  6
 22 23  1  0
 23 15  1  0
 24 22  1  0
 25 24  2  0
 26 24  1  0
M  END
$$$$
