MLQ.pdb
     RDKit          3D

 26 25  0  0  1  0  0  0  0  0999 V2000
    5.1201  -20.2198   23.3335 C   0  0  0  0  0  0  0  0  0  0  0  0
    4.7490  -19.8363   21.6157 S   0  0  0  0  0  0  0  0  0  0  0  0
    5.2458  -18.2137   21.0855 C   0  0  0  0  0  0  0  0  0  0  0  0
    6.1840  -17.5325   22.0257 C   0  0  0  0  0  0  0  0  0  0  0  0
    6.4650  -16.1035   21.7475 C   0  0  2  0  0  0  0  0  0  0  0  0
    7.0220  -15.8551   20.4493 N   0  0  0  0  0  0  0  0  0  0  0  0
    7.4047  -15.5775   22.7957 C   0  0  0  0  0  0  0  0  0  0  0  0
    8.6416  -15.6518   22.5061 O   0  0  0  0  0  0  0  0  0  0  0  0
    5.8922  -11.8269   26.7450 C   0  0  0  0  0  0  0  0  0  0  0  0
    6.7657  -12.4480   25.6525 C   0  0  1  0  0  0  0  0  0  0  0  0
    7.8209  -11.4938   25.2278 C   0  0  0  0  0  0  0  0  0  0  0  0
    7.2047  -13.7971   26.0703 C   0  0  0  0  0  0  0  0  0  0  0  0
    7.8810  -14.6388   25.0551 C   0  0  2  0  0  0  0  0  0  0  0  0
    6.9602  -15.0303   24.0250 N   0  0  0  0  0  0  0  0  0  0  0  0
    8.4291  -15.9120   25.6689 C   0  0  0  0  0  0  0  0  0  0  0  0
    7.6911  -16.8537   26.0440 O   0  0  0  0  0  0  0  0  0  0  0  0
   13.5099  -18.6850   23.7069 N   0  0  0  0  0  0  0  0  0  0  0  0
   13.1744  -19.4724   24.8274 C   0  0  0  0  0  0  0  0  0  0  0  0
   13.8241  -20.5379   25.0627 O   0  0  0  0  0  0  0  0  0  0  0  0
   12.0935  -19.1067   25.7554 C   0  0  0  0  0  0  0  0  0  0  0  0
   11.4497  -17.8221   25.3757 C   0  0  0  0  0  0  0  0  0  0  0  0
   10.3696  -17.3984   26.2803 C   0  0  2  0  0  0  0  0  0  0  0  0
    9.8221  -16.0924   25.8465 N   0  0  0  0  0  0  0  0  0  0  0  0
   10.5448  -17.3483   27.7123 C   0  0  0  0  0  0  0  0  0  0  0  0
   10.9008  -18.4158   28.3306 O   0  0  0  0  0  0  0  0  0  0  0  0
   10.3847  -16.2554   28.5586 O   0  0  0  0  0  0  0  0  0  0  0  0
  2  1  1  0
  3  2  1  0
  4  3  1  0
  4  5  1  0
  5  6  1  6
  7  5  1  0
  7  8  2  0
 10 11  1  1
 10  9  1  0
 12 10  1  0
 13 12  1  1
 13 14  1  0
 14  7  1  0
 15 13  1  0
 16 15  2  0
 17 18  1  0
 18 19  2  0
 20 18  1  0
 20 21  1  0
 22 21  1  6
 22 23  1  0
 23 15  1  0
 24 22  1  0
 25 24  2  0
 26 24  1  0
M  END
$$$$
