MCR.pdb
     RDKit          3D

 26 25  0  0  1  0  0  0  0  0999 V2000
   21.4289  -15.1893  -17.4277 C   0  0  0  0  0  0  0  0  0  0  0  0
   21.6003  -14.3780  -19.0444 S   0  0  0  0  0  0  0  0  0  0  0  0
   23.1694  -13.4229  -19.1076 C   0  0  0  0  0  0  0  0  0  0  0  0
   23.0192  -12.1084  -18.4249 C   0  0  0  0  0  0  0  0  0  0  0  0
   24.2598  -11.3002  -18.2613 C   0  0  2  0  0  0  0  0  0  0  0  0
   25.1188  -12.0589  -17.3360 N   0  0  0  0  0  0  0  0  0  0  0  0
   23.9885   -9.9487  -17.6500 C   0  0  0  0  0  0  0  0  0  0  0  0
   23.9087   -9.8168  -16.4036 O   0  0  0  0  0  0  0  0  0  0  0  0
   23.8230   -8.8153  -18.4709 N   0  0  0  0  0  0  0  0  0  0  0  0
   23.6105   -7.5012  -17.9468 C   0  0  1  0  0  0  0  0  0  0  0  0
   24.5395   -6.4707  -18.4829 C   0  0  0  0  0  0  0  0  0  0  0  0
   24.2905   -4.8218  -17.7971 S   0  0  0  0  0  0  0  0  0  0  0  0
   22.1946   -7.0877  -17.8387 C   0  0  0  0  0  0  0  0  0  0  0  0
   21.4028   -7.3327  -18.7614 O   0  0  0  0  0  0  0  0  0  0  0  0
   15.5228  -10.9119  -16.9116 N   0  0  0  0  0  0  0  0  0  0  0  0
   15.1129   -9.6327  -16.4182 C   0  0  0  0  0  0  0  0  0  0  0  0
   13.8830   -9.4601  -16.0654 N   0  0  0  0  0  0  0  0  0  0  0  0
   15.9872   -8.5380  -16.2961 N   0  0  0  0  0  0  0  0  0  0  0  0
   17.4380   -8.6545  -16.5128 C   0  0  0  0  0  0  0  0  0  0  0  0
   18.1071   -7.3441  -16.3899 C   0  0  0  0  0  0  0  0  0  0  0  0
   19.5426   -7.2198  -16.6265 C   0  0  0  0  0  0  0  0  0  0  0  0
   20.3067   -5.9541  -16.5634 C   0  0  2  0  0  0  0  0  0  0  0  0
   21.7488   -6.4189  -16.6923 N   0  0  0  0  0  0  0  0  0  0  0  0
   20.2585   -5.1125  -15.3841 C   0  0  0  0  0  0  0  0  0  0  0  0
   19.2090   -4.3054  -15.0116 O   0  0  0  0  0  0  0  0  0  0  0  0
   21.2658   -5.0627  -14.5699 O   0  0  0  0  0  0  0  0  0  0  0  0
  2  1  1  0
  3  2  1  0
  3  4  1  0
  4  5  1  0
  5  6  1  1
  7  5  1  0
  7  8  2  0
  9  7  1  0
 10  9  1  0
 10 11  1  6
 12 11  1  0
 13 10  1  0
 14 13  2  0
 16 17  2  0
 16 15  1  0
 18 16  1  0
 19 18  1  0
 20 19  1  0
 21 20  1  0
 22 21  1  1
 22 23  1  0
 23 13  1  0
 24 22  1  0
 24 25  1  0
 26 24  2  0
M  END
$$$$
