MCR.pdb
     RDKit          3D

 26 25  0  0  1  0  0  0  0  0999 V2000
   20.4816  -23.6154  -15.8342 C   0  0  0  0  0  0  0  0  0  0  0  0
   21.9821  -24.1878  -14.9843 S   0  0  0  0  0  0  0  0  0  0  0  0
   21.8714  -25.9930  -14.6564 C   0  0  0  0  0  0  0  0  0  0  0  0
   20.8019  -26.2881  -13.6636 C   0  0  0  0  0  0  0  0  0  0  0  0
   20.6948  -27.7009  -13.2040 C   0  0  2  0  0  0  0  0  0  0  0  0
   20.2494  -28.4755  -14.3750 N   0  0  0  0  0  0  0  0  0  0  0  0
   19.6720  -27.8730  -12.1095 C   0  0  0  0  0  0  0  0  0  0  0  0
   18.4562  -28.0170  -12.3896 O   0  0  0  0  0  0  0  0  0  0  0  0
   20.0686  -27.8765  -10.7572 N   0  0  0  0  0  0  0  0  0  0  0  0
   19.1366  -27.9563   -9.6747 C   0  0  1  0  0  0  0  0  0  0  0  0
   18.8236  -29.3430   -9.2373 C   0  0  0  0  0  0  0  0  0  0  0  0
   17.8114  -29.4381   -7.7482 S   0  0  0  0  0  0  0  0  0  0  0  0
   19.3506  -26.9782   -8.5862 C   0  0  0  0  0  0  0  0  0  0  0  0
   20.2900  -27.1285   -7.7904 O   0  0  0  0  0  0  0  0  0  0  0  0
   17.6315  -24.6565  -11.6439 N   0  0  0  0  0  0  0  0  0  0  0  0
   16.7927  -23.5032  -11.5245 C   0  0  0  0  0  0  0  0  0  0  0  0
   16.0056  -23.1951  -12.5004 N   0  0  0  0  0  0  0  0  0  0  0  0
   16.7793  -22.6750  -10.3881 N   0  0  0  0  0  0  0  0  0  0  0  0
   17.5123  -23.0077   -9.1562 C   0  0  0  0  0  0  0  0  0  0  0  0
   16.5972  -23.4706   -8.0941 C   0  0  0  0  0  0  0  0  0  0  0  0
   16.9743  -24.5797   -7.2224 C   0  0  0  0  0  0  0  0  0  0  0  0
   18.3323  -25.1596   -7.1260 C   0  0  2  0  0  0  0  0  0  0  0  0
   18.4907  -25.8810   -8.4554 N   0  0  0  0  0  0  0  0  0  0  0  0
   18.6570  -26.1303   -6.0997 C   0  0  0  0  0  0  0  0  0  0  0  0
   18.3007  -27.4587   -6.1041 O   0  0  0  0  0  0  0  0  0  0  0  0
   19.3342  -25.7783   -5.0520 O   0  0  0  0  0  0  0  0  0  0  0  0
  2  1  1  0
  3  2  1  0
  3  4  1  0
  4  5  1  0
  5  6  1  6
  7  5  1  0
  7  8  2  0
  9  7  1  0
 10  9  1  0
 10 11  1  1
 12 11  1  0
 13 10  1  0
 14 13  2  0
 16 17  2  0
 16 15  1  0
 18 16  1  0
 19 18  1  0
 20 19  1  0
 21 20  1  0
 22 21  1  1
 22 23  1  0
 23 13  1  0
 24 22  1  0
 24 25  1  0
 26 24  2  0
M  END
$$$$
