MCR.pdb
     RDKit          3D

 26 25  0  0  1  0  0  0  0  0999 V2000
   27.1118  -17.5421  -19.2095 C   0  0  0  0  0  0  0  0  0  0  0  0
   28.0709  -16.0176  -18.9705 S   0  0  0  0  0  0  0  0  0  0  0  0
   26.9398  -14.5747  -18.8404 C   0  0  0  0  0  0  0  0  0  0  0  0
   27.7088  -13.3059  -18.7173 C   0  0  0  0  0  0  0  0  0  0  0  0
   28.7009  -13.2364  -17.6083 C   0  0  2  0  0  0  0  0  0  0  0  0
   27.9181  -13.2760  -16.3611 N   0  0  0  0  0  0  0  0  0  0  0  0
   29.4932  -11.9535  -17.6259 C   0  0  0  0  0  0  0  0  0  0  0  0
   29.0382  -10.9154  -17.0849 O   0  0  0  0  0  0  0  0  0  0  0  0
   30.7565  -11.9043  -18.2484 N   0  0  0  0  0  0  0  0  0  0  0  0
   31.5446  -10.7121  -18.3129 C   0  0  1  0  0  0  0  0  0  0  0  0
   33.0120  -10.9434  -18.2373 C   0  0  0  0  0  0  0  0  0  0  0  0
   33.5220  -12.0220  -16.8854 S   0  0  0  0  0  0  0  0  0  0  0  0
   31.1071   -9.7218  -19.3204 C   0  0  0  0  0  0  0  0  0  0  0  0
   31.0763  -10.0284  -20.5218 O   0  0  0  0  0  0  0  0  0  0  0  0
   23.7156   -6.5630  -18.1443 N   0  0  0  0  0  0  0  0  0  0  0  0
   24.9085   -5.8520  -17.7987 C   0  0  0  0  0  0  0  0  0  0  0  0
   24.8928   -5.0548  -16.7834 N   0  0  0  0  0  0  0  0  0  0  0  0
   26.1128   -5.9744  -18.5145 N   0  0  0  0  0  0  0  0  0  0  0  0
   26.2383   -6.8134  -19.7170 C   0  0  0  0  0  0  0  0  0  0  0  0
   27.6189   -6.8004  -20.2402 C   0  0  0  0  0  0  0  0  0  0  0  0
   28.7173   -7.3443  -19.4467 C   0  0  0  0  0  0  0  0  0  0  0  0
   30.1219   -7.4483  -19.9007 C   0  0  2  0  0  0  0  0  0  0  0  0
   30.7269   -8.4364  -18.9158 N   0  0  0  0  0  0  0  0  0  0  0  0
   30.9940   -6.2904  -19.8969 C   0  0  0  0  0  0  0  0  0  0  0  0
   31.1554   -5.3988  -20.9315 O   0  0  0  0  0  0  0  0  0  0  0  0
   31.7219   -6.0186  -18.8594 O   0  0  0  0  0  0  0  0  0  0  0  0
  2  1  1  0
  3  2  1  0
  3  4  1  0
  4  5  1  0
  5  6  1  1
  7  5  1  0
  7  8  2  0
  9  7  1  0
 10  9  1  0
 10 11  1  6
 12 11  1  0
 13 10  1  0
 14 13  2  0
 16 17  2  0
 16 15  1  0
 18 16  1  0
 19 18  1  0
 20 19  1  0
 21 20  1  0
 22 21  1  1
 22 23  1  0
 23 13  1  0
 24 22  1  0
 24 25  1  0
 26 24  2  0
M  END
$$$$
