MCR.pdb
     RDKit          3D

 26 25  0  0  1  0  0  0  0  0999 V2000
   30.4373  -20.1181   -7.5074 C   0  0  0  0  0  0  0  0  0  0  0  0
   31.1749  -21.4184   -8.5400 S   0  0  0  0  0  0  0  0  0  0  0  0
   31.2544  -20.8642  -10.2908 C   0  0  0  0  0  0  0  0  0  0  0  0
   29.8901  -20.7588  -10.8772 C   0  0  0  0  0  0  0  0  0  0  0  0
   29.0624  -21.9972  -10.8585 C   0  0  2  0  0  0  0  0  0  0  0  0
   29.7031  -22.9273  -11.8041 N   0  0  0  0  0  0  0  0  0  0  0  0
   27.6497  -21.7511  -11.3250 C   0  0  0  0  0  0  0  0  0  0  0  0
   27.2918  -22.0883  -12.4806 O   0  0  0  0  0  0  0  0  0  0  0  0
   26.7121  -21.1409  -10.4681 N   0  0  0  0  0  0  0  0  0  0  0  0
   25.3235  -21.0256  -10.7923 C   0  0  1  0  0  0  0  0  0  0  0  0
   24.4685  -20.5621   -9.6670 C   0  0  0  0  0  0  0  0  0  0  0  0
   22.7488  -20.2631  -10.1193 S   0  0  0  0  0  0  0  0  0  0  0  0
   25.0326  -20.4140  -12.1071 C   0  0  0  0  0  0  0  0  0  0  0  0
   25.4259  -19.2651  -12.3595 O   0  0  0  0  0  0  0  0  0  0  0  0
   27.6439  -18.8592  -18.5044 N   0  0  0  0  0  0  0  0  0  0  0  0
   28.0313  -18.4964  -17.1754 C   0  0  0  0  0  0  0  0  0  0  0  0
   28.6897  -17.4015  -16.9897 N   0  0  0  0  0  0  0  0  0  0  0  0
   27.7317  -19.2780  -16.0453 N   0  0  0  0  0  0  0  0  0  0  0  0
   27.0547  -20.5813  -16.1399 C   0  0  0  0  0  0  0  0  0  0  0  0
   25.5941  -20.4196  -16.2824 C   0  0  0  0  0  0  0  0  0  0  0  0
   24.6798  -21.1220  -15.3865 C   0  0  0  0  0  0  0  0  0  0  0  0
   23.8395  -20.4756  -14.3540 C   0  0  2  0  0  0  0  0  0  0  0  0
   24.3121  -21.1344  -13.0675 N   0  0  0  0  0  0  0  0  0  0  0  0
   22.3969  -20.6159  -14.3722 C   0  0  0  0  0  0  0  0  0  0  0  0
   21.6857  -21.6969  -13.9064 O   0  0  0  0  0  0  0  0  0  0  0  0
   21.6510  -19.6782  -14.8668 O   0  0  0  0  0  0  0  0  0  0  0  0
  2  1  1  0
  3  2  1  0
  3  4  1  0
  4  5  1  0
  5  6  1  6
  7  5  1  0
  7  8  2  0
  9  7  1  0
 10  9  1  0
 10 11  1  1
 12 11  1  0
 13 10  1  0
 14 13  2  0
 16 17  2  0
 16 15  1  0
 18 16  1  0
 19 18  1  0
 20 19  1  0
 21 20  1  0
 22 21  1  6
 22 23  1  0
 23 13  1  0
 24 22  1  0
 24 25  1  0
 26 24  2  0
M  END
$$$$
