MCR.pdb
     RDKit          3D

 26 25  0  0  1  0  0  0  0  0999 V2000
   22.8152  -17.8308  -15.3537 C   0  0  0  0  0  0  0  0  0  0  0  0
   23.7038  -19.0998  -16.3031 S   0  0  0  0  0  0  0  0  0  0  0  0
   25.2107  -19.6285  -15.3930 C   0  0  0  0  0  0  0  0  0  0  0  0
   24.8508  -20.3007  -14.1144 C   0  0  0  0  0  0  0  0  0  0  0  0
   25.9813  -20.6665  -13.2160 C   0  0  2  0  0  0  0  0  0  0  0  0
   26.7177  -21.7388  -13.9071 N   0  0  0  0  0  0  0  0  0  0  0  0
   25.5094  -21.2008  -11.8872 C   0  0  0  0  0  0  0  0  0  0  0  0
   25.1088  -22.3865  -11.7824 O   0  0  0  0  0  0  0  0  0  0  0  0
   25.5141  -20.3757  -10.7447 N   0  0  0  0  0  0  0  0  0  0  0  0
   25.0638  -20.8223   -9.4624 C   0  0  1  0  0  0  0  0  0  0  0  0
   26.0776  -20.7003   -8.3808 C   0  0  0  0  0  0  0  0  0  0  0  0
   26.5324  -19.0018   -7.9817 S   0  0  0  0  0  0  0  0  0  0  0  0
   23.6911  -20.4093   -9.0982 C   0  0  0  0  0  0  0  0  0  0  0  0
   23.3388  -19.2284   -9.2387 O   0  0  0  0  0  0  0  0  0  0  0  0
   19.0572  -20.9252  -14.7624 N   0  0  0  0  0  0  0  0  0  0  0  0
   20.1584  -21.4184  -13.9930 C   0  0  0  0  0  0  0  0  0  0  0  0
   21.1162  -22.0409  -14.5945 N   0  0  0  0  0  0  0  0  0  0  0  0
   20.2554  -21.2616  -12.5988 N   0  0  0  0  0  0  0  0  0  0  0  0
   19.2226  -20.5777  -11.8044 C   0  0  0  0  0  0  0  0  0  0  0  0
   19.5381  -20.6187  -10.3626 C   0  0  0  0  0  0  0  0  0  0  0  0
   20.8827  -20.9606   -9.9076 C   0  0  0  0  0  0  0  0  0  0  0  0
   21.3033  -21.0465   -8.4914 C   0  0  2  0  0  0  0  0  0  0  0  0
   22.7890  -21.3541   -8.5944 N   0  0  0  0  0  0  0  0  0  0  0  0
   20.7442  -22.0502   -7.6076 C   0  0  0  0  0  0  0  0  0  0  0  0
   19.5958  -21.9191   -6.8624 O   0  0  0  0  0  0  0  0  0  0  0  0
   21.3355  -23.1933   -7.4530 O   0  0  0  0  0  0  0  0  0  0  0  0
  2  1  1  0
  3  2  1  0
  3  4  1  0
  4  5  1  0
  5  6  1  6
  7  5  1  0
  7  8  2  0
  9  7  1  0
 10  9  1  0
 10 11  1  1
 12 11  1  0
 13 10  1  0
 14 13  2  0
 16 17  2  0
 16 15  1  0
 18 16  1  0
 19 18  1  0
 20 19  1  0
 21 20  1  0
 22 21  1  6
 22 23  1  0
 23 13  1  0
 24 22  1  0
 24 25  1  0
 26 24  2  0
M  END
$$$$
