MCR.pdb
     RDKit          3D

 26 25  0  0  1  0  0  0  0  0999 V2000
   18.0509  -22.9815   -9.3247 C   0  0  0  0  0  0  0  0  0  0  0  0
   18.2453  -24.4485  -10.3789 S   0  0  0  0  0  0  0  0  0  0  0  0
   18.2345  -25.9710   -9.3492 C   0  0  0  0  0  0  0  0  0  0  0  0
   18.4997  -25.6481   -7.9203 C   0  0  0  0  0  0  0  0  0  0  0  0
   18.4698  -26.7908   -6.9652 C   0  0  2  0  0  0  0  0  0  0  0  0
   18.0805  -27.9705   -7.7567 N   0  0  0  0  0  0  0  0  0  0  0  0
   17.4484  -26.5995   -5.8725 C   0  0  0  0  0  0  0  0  0  0  0  0
   16.2210  -26.6072   -6.1383 O   0  0  0  0  0  0  0  0  0  0  0  0
   17.8591  -26.4117   -4.5376 N   0  0  0  0  0  0  0  0  0  0  0  0
   16.9503  -26.0745   -3.4855 C   0  0  1  0  0  0  0  0  0  0  0  0
   17.3867  -26.5172   -2.1342 C   0  0  0  0  0  0  0  0  0  0  0  0
   18.7928  -27.6458   -2.1440 S   0  0  0  0  0  0  0  0  0  0  0  0
   16.3830  -24.7106   -3.5565 C   0  0  0  0  0  0  0  0  0  0  0  0
   16.9186  -23.8504   -4.2718 O   0  0  0  0  0  0  0  0  0  0  0  0
   10.6618  -21.4407   -6.7215 N   0  0  0  0  0  0  0  0  0  0  0  0
   11.6655  -21.0315   -7.6559 C   0  0  0  0  0  0  0  0  0  0  0  0
   11.4174  -20.0470   -8.4533 N   0  0  0  0  0  0  0  0  0  0  0  0
   12.9236  -21.6518   -7.7556 N   0  0  0  0  0  0  0  0  0  0  0  0
   13.2932  -22.8281   -6.9523 C   0  0  0  0  0  0  0  0  0  0  0  0
   13.6080  -22.4512   -5.5600 C   0  0  0  0  0  0  0  0  0  0  0  0
   14.0151  -23.4654   -4.5916 C   0  0  0  0  0  0  0  0  0  0  0  0
   14.3720  -23.1970   -3.1808 C   0  0  2  0  0  0  0  0  0  0  0  0
   15.2392  -24.3913   -2.8147 N   0  0  0  0  0  0  0  0  0  0  0  0
   13.3497  -23.1123   -2.1566 C   0  0  0  0  0  0  0  0  0  0  0  0
   12.7073  -21.9658   -1.7511 O   0  0  0  0  0  0  0  0  0  0  0  0
   12.9666  -24.1745   -1.5202 O   0  0  0  0  0  0  0  0  0  0  0  0
  2  1  1  0
  3  2  1  0
  3  4  1  0
  4  5  1  0
  5  6  1  6
  7  5  1  0
  7  8  2  0
  9  7  1  0
 10  9  1  0
 10 11  1  1
 12 11  1  0
 13 10  1  0
 14 13  2  0
 16 17  2  0
 16 15  1  0
 18 16  1  0
 19 18  1  0
 20 19  1  0
 21 20  1  0
 22 21  1  6
 22 23  1  0
 23 13  1  0
 24 22  1  0
 24 25  1  0
 26 24  2  0
M  END
$$$$
