MCR.pdb
     RDKit          3D

 26 25  0  0  1  0  0  0  0  0999 V2000
   26.2616  -16.8012  -15.7327 C   0  0  0  0  0  0  0  0  0  0  0  0
   27.8051  -17.7069  -16.0466 S   0  0  0  0  0  0  0  0  0  0  0  0
   27.9034  -19.1827  -14.9554 C   0  0  0  0  0  0  0  0  0  0  0  0
   26.5457  -19.6192  -14.5284 C   0  0  0  0  0  0  0  0  0  0  0  0
   26.4876  -20.6854  -13.4897 C   0  0  2  0  0  0  0  0  0  0  0  0
   27.0447  -21.8951  -14.1189 N   0  0  0  0  0  0  0  0  0  0  0  0
   25.0757  -20.9885  -13.0558 C   0  0  0  0  0  0  0  0  0  0  0  0
   24.5350  -22.0801  -13.3614 O   0  0  0  0  0  0  0  0  0  0  0  0
   24.3454  -20.0502  -12.2994 N   0  0  0  0  0  0  0  0  0  0  0  0
   23.0181  -20.2981  -11.8265 C   0  0  1  0  0  0  0  0  0  0  0  0
   22.7229  -19.7079  -10.4935 C   0  0  0  0  0  0  0  0  0  0  0  0
   21.0760  -20.0872   -9.8651 S   0  0  0  0  0  0  0  0  0  0  0  0
   21.9507  -20.1493  -12.8394 C   0  0  0  0  0  0  0  0  0  0  0  0
   21.8499  -19.0962  -13.4869 O   0  0  0  0  0  0  0  0  0  0  0  0
   22.5981  -26.5974  -16.5336 N   0  0  0  0  0  0  0  0  0  0  0  0
   21.3941  -26.2793  -15.8285 C   0  0  0  0  0  0  0  0  0  0  0  0
   20.7917  -27.2074  -15.1635 N   0  0  0  0  0  0  0  0  0  0  0  0
   20.8226  -24.9944  -15.8210 N   0  0  0  0  0  0  0  0  0  0  0  0
   21.4769  -23.8323  -16.4431 C   0  0  0  0  0  0  0  0  0  0  0  0
   21.3990  -22.6417  -15.5734 C   0  0  0  0  0  0  0  0  0  0  0  0
   20.1351  -22.2616  -14.9488 C   0  0  0  0  0  0  0  0  0  0  0  0
   19.9363  -21.0726  -14.0906 C   0  0  2  0  0  0  0  0  0  0  0  0
   21.0535  -21.1998  -13.0668 N   0  0  0  0  0  0  0  0  0  0  0  0
   18.7133  -20.8966  -13.3327 C   0  0  0  0  0  0  0  0  0  0  0  0
   17.5253  -20.4054  -13.8213 O   0  0  0  0  0  0  0  0  0  0  0  0
   18.6700  -21.2017  -12.0737 O   0  0  0  0  0  0  0  0  0  0  0  0
  2  1  1  0
  3  2  1  0
  3  4  1  0
  4  5  1  0
  5  6  1  6
  7  5  1  0
  7  8  2  0
  9  7  1  0
 10  9  1  0
 10 11  1  1
 12 11  1  0
 13 10  1  0
 14 13  2  0
 16 17  2  0
 16 15  1  0
 18 16  1  0
 19 18  1  0
 20 19  1  0
 21 20  1  0
 22 21  1  1
 22 23  1  0
 23 13  1  0
 24 22  1  0
 24 25  1  0
 26 24  2  0
M  END
$$$$
