MCR.pdb
     RDKit          3D

 26 25  0  0  1  0  0  0  0  0999 V2000
   25.9660  -17.1906  -17.0977 C   0  0  0  0  0  0  0  0  0  0  0  0
   27.6150  -16.8599  -16.4100 S   0  0  0  0  0  0  0  0  0  0  0  0
   28.3024  -18.3892  -15.6568 C   0  0  0  0  0  0  0  0  0  0  0  0
   27.2703  -19.0930  -14.8471 C   0  0  0  0  0  0  0  0  0  0  0  0
   27.7087  -20.3313  -14.1447 C   0  0  2  0  0  0  0  0  0  0  0  0
   27.9226  -21.3399  -15.1967 N   0  0  0  0  0  0  0  0  0  0  0  0
   26.6601  -20.8558  -13.1964 C   0  0  0  0  0  0  0  0  0  0  0  0
   25.6770  -21.5064  -13.6292 O   0  0  0  0  0  0  0  0  0  0  0  0
   26.7719  -20.6238  -11.8110 N   0  0  0  0  0  0  0  0  0  0  0  0
   25.7051  -20.8784  -10.8923 C   0  0  1  0  0  0  0  0  0  0  0  0
   26.0906  -20.7662   -9.4601 C   0  0  0  0  0  0  0  0  0  0  0  0
   24.7068  -20.8848   -8.3103 S   0  0  0  0  0  0  0  0  0  0  0  0
   24.4059  -20.2699  -11.2517 C   0  0  0  0  0  0  0  0  0  0  0  0
   24.3714  -19.2334  -11.9321 O   0  0  0  0  0  0  0  0  0  0  0  0
   20.8963  -20.7545  -18.1304 N   0  0  0  0  0  0  0  0  0  0  0  0
   19.7876  -20.3343  -17.3291 C   0  0  0  0  0  0  0  0  0  0  0  0
   18.6933  -19.9728  -17.9109 N   0  0  0  0  0  0  0  0  0  0  0  0
   19.8253  -20.2913  -15.9240 N   0  0  0  0  0  0  0  0  0  0  0  0
   21.0259  -20.6495  -15.1520 C   0  0  0  0  0  0  0  0  0  0  0  0
   20.8125  -20.4542  -13.7042 C   0  0  0  0  0  0  0  0  0  0  0  0
   21.8814  -20.7421  -12.7520 C   0  0  0  0  0  0  0  0  0  0  0  0
   21.8641  -20.3722  -11.3193 C   0  0  2  0  0  0  0  0  0  0  0  0
   23.2140  -20.8661  -10.8227 N   0  0  0  0  0  0  0  0  0  0  0  0
   20.8749  -20.9289  -10.4178 C   0  0  0  0  0  0  0  0  0  0  0  0
   19.6765  -20.3468  -10.0765 O   0  0  0  0  0  0  0  0  0  0  0  0
   21.0800  -22.0710   -9.8402 O   0  0  0  0  0  0  0  0  0  0  0  0
  2  1  1  0
  3  2  1  0
  3  4  1  0
  4  5  1  0
  5  6  1  6
  7  5  1  0
  7  8  2  0
  9  7  1  0
 10  9  1  0
 10 11  1  1
 12 11  1  0
 13 10  1  0
 14 13  2  0
 16 17  2  0
 16 15  1  0
 18 16  1  0
 19 18  1  0
 20 19  1  0
 21 20  1  0
 22 21  1  6
 22 23  1  0
 23 13  1  0
 24 22  1  0
 24 25  1  0
 26 24  2  0
M  END
$$$$
