MCR.pdb
     RDKit          3D

 26 25  0  0  1  0  0  0  0  0999 V2000
   26.5170  -19.7494  -21.0601 C   0  0  0  0  0  0  0  0  0  0  0  0
   27.6423  -21.1284  -21.4256 S   0  0  0  0  0  0  0  0  0  0  0  0
   28.3626  -21.7846  -19.8671 C   0  0  0  0  0  0  0  0  0  0  0  0
   27.4539  -21.5339  -18.7148 C   0  0  0  0  0  0  0  0  0  0  0  0
   27.9822  -21.8797  -17.3657 C   0  0  2  0  0  0  0  0  0  0  0  0
   28.2272  -23.3320  -17.3862 N   0  0  0  0  0  0  0  0  0  0  0  0
   26.9913  -21.5852  -16.2679 C   0  0  0  0  0  0  0  0  0  0  0  0
   26.3057  -22.5085  -15.7631 O   0  0  0  0  0  0  0  0  0  0  0  0
   26.8240  -20.2691  -15.7927 N   0  0  0  0  0  0  0  0  0  0  0  0
   25.9052  -19.9310  -14.7496 C   0  0  1  0  0  0  0  0  0  0  0  0
   26.3214  -18.7687  -13.9201 C   0  0  0  0  0  0  0  0  0  0  0  0
   28.0750  -18.7494  -13.5010 S   0  0  0  0  0  0  0  0  0  0  0  0
   24.4774  -19.9602  -15.1341 C   0  0  0  0  0  0  0  0  0  0  0  0
   24.1255  -19.5528  -16.2515 O   0  0  0  0  0  0  0  0  0  0  0  0
   19.9388  -25.8636  -13.4435 N   0  0  0  0  0  0  0  0  0  0  0  0
   18.7018  -25.1469  -13.3807 C   0  0  0  0  0  0  0  0  0  0  0  0
   17.6088  -25.7504  -13.7090 N   0  0  0  0  0  0  0  0  0  0  0  0
   18.6100  -23.8030  -12.9770 N   0  0  0  0  0  0  0  0  0  0  0  0
   19.7864  -23.0117  -12.5825 C   0  0  0  0  0  0  0  0  0  0  0  0
   20.3381  -22.2607  -13.7276 C   0  0  0  0  0  0  0  0  0  0  0  0
   21.4694  -21.3558  -13.5446 C   0  0  0  0  0  0  0  0  0  0  0  0
   22.0473  -20.4952  -14.6006 C   0  0  2  0  0  0  0  0  0  0  0  0
   23.5225  -20.4491  -14.2343 N   0  0  0  0  0  0  0  0  0  0  0  0
   21.6263  -19.1164  -14.7517 C   0  0  0  0  0  0  0  0  0  0  0  0
   21.9964  -18.0670  -13.9434 O   0  0  0  0  0  0  0  0  0  0  0  0
   20.8215  -18.7754  -15.7088 O   0  0  0  0  0  0  0  0  0  0  0  0
  2  1  1  0
  3  2  1  0
  3  4  1  0
  4  5  1  0
  5  6  1  6
  7  5  1  0
  7  8  2  0
  9  7  1  0
 10  9  1  0
 10 11  1  6
 12 11  1  0
 13 10  1  0
 14 13  2  0
 16 17  2  0
 16 15  1  0
 18 16  1  0
 19 18  1  0
 20 19  1  0
 21 20  1  0
 22 21  1  1
 22 23  1  0
 23 13  1  0
 24 22  1  0
 24 25  1  0
 26 24  2  0
M  END
$$$$
