MCR.pdb
     RDKit          3D

 26 25  0  0  1  0  0  0  0  0999 V2000
   24.4385  -16.5553  -17.1572 C   0  0  0  0  0  0  0  0  0  0  0  0
   25.8068  -17.5151  -17.8701 S   0  0  0  0  0  0  0  0  0  0  0  0
   26.0807  -19.0461  -16.8905 C   0  0  0  0  0  0  0  0  0  0  0  0
   25.2081  -19.0685  -15.6845 C   0  0  0  0  0  0  0  0  0  0  0  0
   24.1672  -20.1330  -15.6384 C   0  0  2  0  0  0  0  0  0  0  0  0
   23.1902  -19.7903  -16.6861 N   0  0  0  0  0  0  0  0  0  0  0  0
   23.4441  -20.1725  -14.3157 C   0  0  0  0  0  0  0  0  0  0  0  0
   24.0615  -20.4564  -13.2595 O   0  0  0  0  0  0  0  0  0  0  0  0
   22.0654  -19.8889  -14.2482 N   0  0  0  0  0  0  0  0  0  0  0  0
   21.3033  -20.0213  -13.0447 C   0  0  1  0  0  0  0  0  0  0  0  0
   20.9214  -18.7283  -12.4165 C   0  0  0  0  0  0  0  0  0  0  0  0
   20.1325  -18.8942  -10.8037 S   0  0  0  0  0  0  0  0  0  0  0  0
   20.2408  -21.0495  -13.0822 C   0  0  0  0  0  0  0  0  0  0  0  0
   19.4610  -21.1035  -14.0452 O   0  0  0  0  0  0  0  0  0  0  0  0
   16.7425  -27.0862  -11.6170 N   0  0  0  0  0  0  0  0  0  0  0  0
   16.6382  -27.2676  -10.2014 C   0  0  0  0  0  0  0  0  0  0  0  0
   15.6213  -27.9029   -9.7227 N   0  0  0  0  0  0  0  0  0  0  0  0
   17.5943  -26.7844   -9.2904 N   0  0  0  0  0  0  0  0  0  0  0  0
   18.8114  -26.0771   -9.7195 C   0  0  0  0  0  0  0  0  0  0  0  0
   18.5223  -24.6717  -10.0675 C   0  0  0  0  0  0  0  0  0  0  0  0
   19.4166  -23.9276  -10.9499 C   0  0  0  0  0  0  0  0  0  0  0  0
   18.9793  -22.9717  -11.9915 C   0  0  2  0  0  0  0  0  0  0  0  0
   20.1165  -21.9628  -12.0283 N   0  0  0  0  0  0  0  0  0  0  0  0
   17.7620  -22.2011  -11.8320 C   0  0  0  0  0  0  0  0  0  0  0  0
   16.5201  -22.5467  -12.3113 O   0  0  0  0  0  0  0  0  0  0  0  0
   17.7775  -21.0703  -11.1987 O   0  0  0  0  0  0  0  0  0  0  0  0
  2  1  1  0
  3  2  1  0
  3  4  1  0
  4  5  1  0
  5  6  1  6
  7  5  1  0
  7  8  2  0
  9  7  1  0
 10  9  1  0
 10 11  1  6
 12 11  1  0
 13 10  1  0
 14 13  2  0
 16 17  2  0
 16 15  1  0
 18 16  1  0
 19 18  1  0
 20 19  1  0
 21 20  1  0
 22 21  1  1
 22 23  1  0
 23 13  1  0
 24 22  1  0
 24 25  1  0
 26 24  2  0
M  END
$$$$
