MCR.pdb
     RDKit          3D

 26 25  0  0  1  0  0  0  0  0999 V2000
   23.0708  -18.2633  -16.2616 C   0  0  0  0  0  0  0  0  0  0  0  0
   24.6228  -18.4349  -17.1907 S   0  0  0  0  0  0  0  0  0  0  0  0
   24.9367  -16.9178  -18.1798 C   0  0  0  0  0  0  0  0  0  0  0  0
   24.2398  -15.7434  -17.5871 C   0  0  0  0  0  0  0  0  0  0  0  0
   24.4619  -14.4320  -18.2578 C   0  0  2  0  0  0  0  0  0  0  0  0
   25.8263  -14.4854  -18.8105 N   0  0  0  0  0  0  0  0  0  0  0  0
   24.3897  -13.2744  -17.2943 C   0  0  0  0  0  0  0  0  0  0  0  0
   23.3778  -13.1108  -16.5685 O   0  0  0  0  0  0  0  0  0  0  0  0
   25.4590  -12.3620  -17.1946 N   0  0  0  0  0  0  0  0  0  0  0  0
   25.4024  -11.1847  -16.3838 C   0  0  1  0  0  0  0  0  0  0  0  0
   26.7320  -10.6110  -16.0438 C   0  0  0  0  0  0  0  0  0  0  0  0
   27.9337  -11.8230  -15.4625 S   0  0  0  0  0  0  0  0  0  0  0  0
   24.3653  -10.2035  -16.7699 C   0  0  0  0  0  0  0  0  0  0  0  0
   24.0538  -10.0642  -17.9623 O   0  0  0  0  0  0  0  0  0  0  0  0
   16.9587  -11.9559  -18.3007 N   0  0  0  0  0  0  0  0  0  0  0  0
   16.8084  -10.5681  -17.9854 C   0  0  0  0  0  0  0  0  0  0  0  0
   15.6488  -10.0161  -18.1167 N   0  0  0  0  0  0  0  0  0  0  0  0
   17.8688   -9.7613  -17.5357 N   0  0  0  0  0  0  0  0  0  0  0  0
   19.2325  -10.2796  -17.3425 C   0  0  0  0  0  0  0  0  0  0  0  0
   20.1348   -9.2365  -16.8158 C   0  0  0  0  0  0  0  0  0  0  0  0
   21.5666   -9.4918  -16.6857 C   0  0  0  0  0  0  0  0  0  0  0  0
   22.5510   -8.5393  -16.1257 C   0  0  2  0  0  0  0  0  0  0  0  0
   23.7348   -9.4317  -15.7865 N   0  0  0  0  0  0  0  0  0  0  0  0
   22.2574   -7.7850  -14.9233 C   0  0  0  0  0  0  0  0  0  0  0  0
   21.6564   -6.5490  -14.8732 O   0  0  0  0  0  0  0  0  0  0  0  0
   22.5720   -8.2566  -13.7577 O   0  0  0  0  0  0  0  0  0  0  0  0
  2  1  1  0
  3  2  1  0
  3  4  1  0
  4  5  1  0
  5  6  1  1
  7  5  1  0
  7  8  2  0
  9  7  1  0
 10  9  1  0
 10 11  1  6
 12 11  1  0
 13 10  1  0
 14 13  2  0
 16 17  2  0
 16 15  1  0
 18 16  1  0
 19 18  1  0
 20 19  1  0
 21 20  1  0
 22 21  1  1
 22 23  1  0
 23 13  1  0
 24 22  1  0
 24 25  1  0
 26 24  2  0
M  END
$$$$
