MCR.pdb
     RDKit          3D

 26 25  0  0  1  0  0  0  0  0999 V2000
   26.0665  -17.7633  -18.3661 C   0  0  0  0  0  0  0  0  0  0  0  0
   27.8312  -17.3488  -18.4899 S   0  0  0  0  0  0  0  0  0  0  0  0
   28.7885  -18.2831  -17.2293 C   0  0  0  0  0  0  0  0  0  0  0  0
   27.9609  -19.3645  -16.6275 C   0  0  0  0  0  0  0  0  0  0  0  0
   27.1516  -18.9939  -15.4331 C   0  0  2  0  0  0  0  0  0  0  0  0
   28.1202  -18.6807  -14.3684 N   0  0  0  0  0  0  0  0  0  0  0  0
   26.2787  -20.1273  -14.9564 C   0  0  0  0  0  0  0  0  0  0  0  0
   25.9277  -21.0379  -15.7469 O   0  0  0  0  0  0  0  0  0  0  0  0
   25.8473  -20.1798  -13.6159 N   0  0  0  0  0  0  0  0  0  0  0  0
   25.0139  -21.2260  -13.1086 C   0  0  1  0  0  0  0  0  0  0  0  0
   25.5659  -21.9254  -11.9175 C   0  0  0  0  0  0  0  0  0  0  0  0
   25.8212  -20.8590  -10.4862 S   0  0  0  0  0  0  0  0  0  0  0  0
   23.5707  -20.9083  -13.0485 C   0  0  0  0  0  0  0  0  0  0  0  0
   23.1963  -19.7805  -12.6931 O   0  0  0  0  0  0  0  0  0  0  0  0
   16.1594  -23.5160  -11.1993 N   0  0  0  0  0  0  0  0  0  0  0  0
   17.3013  -24.2724  -11.6138 C   0  0  0  0  0  0  0  0  0  0  0  0
   17.1279  -25.4542  -12.1035 N   0  0  0  0  0  0  0  0  0  0  0  0
   18.6198  -23.7934  -11.5144 N   0  0  0  0  0  0  0  0  0  0  0  0
   18.9538  -22.5233  -10.8506 C   0  0  0  0  0  0  0  0  0  0  0  0
   20.3953  -22.2227  -10.9584 C   0  0  0  0  0  0  0  0  0  0  0  0
   20.8809  -21.2671  -11.9498 C   0  0  0  0  0  0  0  0  0  0  0  0
   21.1372  -21.5779  -13.3738 C   0  0  2  0  0  0  0  0  0  0  0  0
   22.6269  -21.8830  -13.3940 N   0  0  0  0  0  0  0  0  0  0  0  0
   20.9155  -20.5837  -14.4051 C   0  0  0  0  0  0  0  0  0  0  0  0
   19.7740  -20.4449  -15.1595 O   0  0  0  0  0  0  0  0  0  0  0  0
   21.8395  -19.7235  -14.6990 O   0  0  0  0  0  0  0  0  0  0  0  0
  2  1  1  0
  3  2  1  0
  3  4  1  0
  4  5  1  0
  5  6  1  1
  7  5  1  0
  7  8  2  0
  9  7  1  0
 10  9  1  0
 10 11  1  1
 12 11  1  0
 13 10  1  0
 14 13  2  0
 16 17  2  0
 16 15  1  0
 18 16  1  0
 19 18  1  0
 20 19  1  0
 21 20  1  0
 22 21  1  1
 22 23  1  0
 23 13  1  0
 24 22  1  0
 24 25  1  0
 26 24  2  0
M  END
$$$$
