MCR.pdb
     RDKit          3D

 26 25  0  0  1  0  0  0  0  0999 V2000
   21.2942  -23.6149  -13.8446 C   0  0  0  0  0  0  0  0  0  0  0  0
   22.4840  -24.5489  -12.8380 S   0  0  0  0  0  0  0  0  0  0  0  0
   24.0513  -24.7829  -13.7692 C   0  0  0  0  0  0  0  0  0  0  0  0
   24.4046  -23.5543  -14.5322 C   0  0  0  0  0  0  0  0  0  0  0  0
   25.4943  -22.7117  -13.9653 C   0  0  2  0  0  0  0  0  0  0  0  0
   25.0155  -22.2630  -12.6465 N   0  0  0  0  0  0  0  0  0  0  0  0
   25.7723  -21.4906  -14.8052 C   0  0  0  0  0  0  0  0  0  0  0  0
   25.0995  -20.4418  -14.6481 O   0  0  0  0  0  0  0  0  0  0  0  0
   26.7931  -21.5106  -15.7765 N   0  0  0  0  0  0  0  0  0  0  0  0
   27.0465  -20.4140  -16.6597 C   0  0  1  0  0  0  0  0  0  0  0  0
   28.4691  -19.9824  -16.7073 C   0  0  0  0  0  0  0  0  0  0  0  0
   29.1415  -19.4740  -15.1135 S   0  0  0  0  0  0  0  0  0  0  0  0
   26.3588  -20.4865  -17.9670 C   0  0  0  0  0  0  0  0  0  0  0  0
   25.7415  -21.5130  -18.2892 O   0  0  0  0  0  0  0  0  0  0  0  0
   20.5065  -16.7681  -20.1861 N   0  0  0  0  0  0  0  0  0  0  0  0
   19.9416  -17.9658  -20.7286 C   0  0  0  0  0  0  0  0  0  0  0  0
   18.8741  -17.8860  -21.4503 N   0  0  0  0  0  0  0  0  0  0  0  0
   20.4915  -19.2423  -20.5147 N   0  0  0  0  0  0  0  0  0  0  0  0
   21.6037  -19.4798  -19.5807 C   0  0  0  0  0  0  0  0  0  0  0  0
   22.9085  -19.2216  -20.2214 C   0  0  0  0  0  0  0  0  0  0  0  0
   24.1518  -19.4687  -19.4966 C   0  0  0  0  0  0  0  0  0  0  0  0
   25.5096  -19.3294  -20.0684 C   0  0  2  0  0  0  0  0  0  0  0  0
   26.4053  -19.3938  -18.8412 N   0  0  0  0  0  0  0  0  0  0  0  0
   25.8962  -18.1314  -20.7870 C   0  0  0  0  0  0  0  0  0  0  0  0
   25.8677  -17.9650  -22.1520 O   0  0  0  0  0  0  0  0  0  0  0  0
   26.3255  -17.0896  -20.1462 O   0  0  0  0  0  0  0  0  0  0  0  0
  2  1  1  0
  3  2  1  0
  3  4  1  0
  4  5  1  0
  5  6  1  1
  7  5  1  0
  7  8  2  0
  9  7  1  0
 10  9  1  0
 10 11  1  6
 12 11  1  0
 13 10  1  0
 14 13  2  0
 16 17  2  0
 16 15  1  0
 18 16  1  0
 19 18  1  0
 20 19  1  0
 21 20  1  0
 22 21  1  1
 22 23  1  0
 23 13  1  0
 24 22  1  0
 24 25  1  0
 26 24  2  0
M  END
$$$$
