KTV.pdb
     RDKit          3D

 24 23  0  0  1  0  0  0  0  0999 V2000
    9.1932  -16.9819   15.8754 N   0  0  0  0  0  0  0  0  0  0  0  0
    8.2747  -17.1397   17.0136 C   0  0  1  0  0  0  0  0  0  0  0  0
    8.2251  -18.5870   17.3194 C   0  0  0  0  0  0  0  0  0  0  0  0
    7.3732  -19.3899   16.4300 C   0  0  0  0  0  0  0  0  0  0  0  0
    7.2122  -20.8380   16.5808 C   0  0  0  0  0  0  0  0  0  0  0  0
    6.4160  -21.6345   15.6302 C   0  0  0  0  0  0  0  0  0  0  0  0
    6.4406  -23.0519   16.1279 N   0  0  0  0  0  0  0  0  0  0  0  0
    8.9343  -16.3870   18.1587 C   0  0  0  0  0  0  0  0  0  0  0  0
   10.1505  -16.0624   18.1007 O   0  0  0  0  0  0  0  0  0  0  0  0
    7.4837  -13.2272   19.6157 C   0  0  0  0  0  0  0  0  0  0  0  0
    7.7265  -14.1942   20.7489 C   0  0  1  0  0  0  0  0  0  0  0  0
    6.5218  -14.8695   21.0582 O   0  0  0  0  0  0  0  0  0  0  0  0
    8.7477  -15.2370   20.4029 C   0  0  2  0  0  0  0  0  0  0  0  0
    8.1914  -16.0539   19.2786 N   0  0  0  0  0  0  0  0  0  0  0  0
    9.1463  -16.1377   21.4824 C   0  0  0  0  0  0  0  0  0  0  0  0
    8.6357  -17.3248   21.5405 O   0  0  0  0  0  0  0  0  0  0  0  0
   12.1793  -18.0090   24.7383 C   0  0  0  0  0  0  0  0  0  0  0  0
   11.9088  -17.1054   23.5520 C   0  0  2  0  0  0  0  0  0  0  0  0
   12.7563  -15.8716   23.7349 C   0  0  0  0  0  0  0  0  0  0  0  0
   10.4410  -16.8306   23.5197 C   0  0  2  0  0  0  0  0  0  0  0  0
   10.0515  -15.8762   22.5066 N   0  0  0  0  0  0  0  0  0  0  0  0
    9.9491  -16.3432   24.8212 C   0  0  0  0  0  0  0  0  0  0  0  0
    9.9509  -17.1190   25.9619 O   0  0  0  0  0  0  0  0  0  0  0  0
    9.5071  -15.1748   24.9082 O   0  0  0  0  0  0  0  0  0  0  0  0
  2  1  1  6
  3  2  1  0
  4  3  1  0
  5  6  1  0
  5  4  1  0
  6  7  1  0
  8  2  1  0
  8  9  2  0
 11 10  1  6
 11 13  1  0
 12 11  1  0
 13 14  1  6
 14  8  1  0
 15 13  1  0
 16 15  2  0
 18 17  1  1
 19 18  1  0
 20 21  1  6
 20 18  1  0
 21 15  1  0
 22 20  1  0
 23 22  1  0
 24 22  2  0
M  END
$$$$
