KTV.pdb
     RDKit          3D

 24 23  0  0  1  0  0  0  0  0999 V2000
    7.5141  -16.7340   18.8621 N   0  0  0  0  0  0  0  0  0  0  0  0
    8.0280  -15.6602   19.7263 C   0  0  1  0  0  0  0  0  0  0  0  0
    7.3326  -14.4192   19.3176 C   0  0  0  0  0  0  0  0  0  0  0  0
    7.4928  -14.0433   17.9054 C   0  0  0  0  0  0  0  0  0  0  0  0
    8.7305  -13.4687   17.3732 C   0  0  0  0  0  0  0  0  0  0  0  0
    8.8113  -12.9302   16.0037 C   0  0  0  0  0  0  0  0  0  0  0  0
    8.2510  -13.9844   15.0915 N   0  0  0  0  0  0  0  0  0  0  0  0
    7.6086  -16.0536   21.1342 C   0  0  0  0  0  0  0  0  0  0  0  0
    6.4384  -16.4581   21.3688 O   0  0  0  0  0  0  0  0  0  0  0  0
    8.4974  -18.7034   23.1228 C   0  0  0  0  0  0  0  0  0  0  0  0
    8.8846  -17.5244   23.9820 C   0  0  1  0  0  0  0  0  0  0  0  0
   10.2702  -17.2736   23.8409 O   0  0  0  0  0  0  0  0  0  0  0  0
    8.1608  -16.2697   23.5922 C   0  0  2  0  0  0  0  0  0  0  0  0
    8.5217  -15.9668   22.1714 N   0  0  0  0  0  0  0  0  0  0  0  0
    8.4308  -15.0861   24.4056 C   0  0  0  0  0  0  0  0  0  0  0  0
    9.4947  -14.3868   24.1763 O   0  0  0  0  0  0  0  0  0  0  0  0
    7.3851  -11.3392   27.3082 C   0  0  0  0  0  0  0  0  0  0  0  0
    6.9027  -12.4339   26.3779 C   0  0  2  0  0  0  0  0  0  0  0  0
    5.6371  -12.9950   26.9757 C   0  0  0  0  0  0  0  0  0  0  0  0
    8.0045  -13.4339   26.2483 C   0  0  2  0  0  0  0  0  0  0  0  0
    7.6538  -14.5829   25.4448 N   0  0  0  0  0  0  0  0  0  0  0  0
    8.4592  -13.9174   27.5647 C   0  0  0  0  0  0  0  0  0  0  0  0
    8.4120  -15.2461   27.9330 O   0  0  0  0  0  0  0  0  0  0  0  0
    8.9104  -13.0953   28.3946 O   0  0  0  0  0  0  0  0  0  0  0  0
  2  1  1  6
  3  2  1  0
  4  3  1  0
  5  6  1  0
  5  4  1  0
  6  7  1  0
  8  2  1  0
  8  9  2  0
 11 10  1  6
 11 13  1  0
 12 11  1  0
 13 14  1  6
 14  8  1  0
 15 13  1  0
 16 15  2  0
 18 17  1  1
 19 18  1  0
 20 21  1  6
 20 18  1  0
 21 15  1  0
 22 20  1  0
 23 22  1  0
 24 22  2  0
M  END
$$$$
