KTV.pdb
     RDKit          3D

 24 23  0  0  1  0  0  0  0  0999 V2000
   10.4719  -17.6710   19.2981 N   0  0  0  0  0  0  0  0  0  0  0  0
   10.8618  -17.2952   20.6659 C   0  0  1  0  0  0  0  0  0  0  0  0
   12.0396  -16.4076   20.5410 C   0  0  0  0  0  0  0  0  0  0  0  0
   13.3265  -17.0124   20.9143 C   0  0  0  0  0  0  0  0  0  0  0  0
   14.0371  -17.9600   20.0525 C   0  0  0  0  0  0  0  0  0  0  0  0
   15.3494  -18.5170   20.4262 C   0  0  0  0  0  0  0  0  0  0  0  0
   15.6673  -19.5859   19.4192 N   0  0  0  0  0  0  0  0  0  0  0  0
    9.6763  -16.5150   21.2126 C   0  0  0  0  0  0  0  0  0  0  0  0
    8.9638  -15.8077   20.4511 O   0  0  0  0  0  0  0  0  0  0  0  0
    6.7298  -17.6509   22.0137 C   0  0  0  0  0  0  0  0  0  0  0  0
    7.1235  -17.0132   23.3238 C   0  0  1  0  0  0  0  0  0  0  0  0
    7.6752  -17.9963   24.1792 O   0  0  0  0  0  0  0  0  0  0  0  0
    8.1572  -15.9400   23.1504 C   0  0  2  0  0  0  0  0  0  0  0  0
    9.3752  -16.5814   22.5624 N   0  0  0  0  0  0  0  0  0  0  0  0
    8.5474  -15.2145   24.3573 C   0  0  0  0  0  0  0  0  0  0  0  0
    9.7228  -15.4069   24.8622 O   0  0  0  0  0  0  0  0  0  0  0  0
    5.9636  -12.7880   26.7422 C   0  0  0  0  0  0  0  0  0  0  0  0
    7.4414  -12.4592   26.6732 C   0  0  2  0  0  0  0  0  0  0  0  0
    7.6036  -11.3711   25.6418 C   0  0  0  0  0  0  0  0  0  0  0  0
    8.1690  -13.7204   26.3402 C   0  0  2  0  0  0  0  0  0  0  0  0
    7.7852  -14.2939   25.0703 N   0  0  0  0  0  0  0  0  0  0  0  0
    7.9837  -14.7476   27.3812 C   0  0  0  0  0  0  0  0  0  0  0  0
    8.5659  -14.6644   28.6291 O   0  0  0  0  0  0  0  0  0  0  0  0
    7.2682  -15.7452   27.1341 O   0  0  0  0  0  0  0  0  0  0  0  0
  2  1  1  6
  3  2  1  0
  4  3  1  0
  5  6  1  0
  5  4  1  0
  6  7  1  0
  8  2  1  0
  8  9  2  0
 11 10  1  6
 11 13  1  0
 12 11  1  0
 13 14  1  1
 14  8  1  0
 15 13  1  0
 16 15  2  0
 18 17  1  6
 19 18  1  0
 20 21  1  6
 20 18  1  0
 21 15  1  0
 22 20  1  0
 23 22  1  0
 24 22  2  0
M  END
$$$$
