KTV.pdb
     RDKit          3D

 24 23  0  0  1  0  0  0  0  0999 V2000
    7.2254  -17.6789   19.8433 N   0  0  0  0  0  0  0  0  0  0  0  0
    7.8675  -16.5619   20.5532 C   0  0  1  0  0  0  0  0  0  0  0  0
    7.4468  -15.3232   19.8610 C   0  0  0  0  0  0  0  0  0  0  0  0
    8.1595  -15.0278   18.6096 C   0  0  0  0  0  0  0  0  0  0  0  0
    7.8146  -13.8936   17.7493 C   0  0  0  0  0  0  0  0  0  0  0  0
    8.4692  -13.6790   16.4465 C   0  0  0  0  0  0  0  0  0  0  0  0
    7.8451  -12.4509   15.8468 N   0  0  0  0  0  0  0  0  0  0  0  0
    7.2826  -16.5996   21.9566 C   0  0  0  0  0  0  0  0  0  0  0  0
    6.1091  -17.0136   22.1548 O   0  0  0  0  0  0  0  0  0  0  0  0
    6.2177  -18.2441   23.7076 C   0  0  0  0  0  0  0  0  0  0  0  0
    7.2259  -17.7158   24.6988 C   0  0  1  0  0  0  0  0  0  0  0  0
    8.4214  -18.4666   24.6004 O   0  0  0  0  0  0  0  0  0  0  0  0
    7.5776  -16.2794   24.4474 C   0  0  2  0  0  0  0  0  0  0  0  0
    8.0470  -16.1742   23.0298 N   0  0  0  0  0  0  0  0  0  0  0  0
    8.5948  -15.6984   25.3209 C   0  0  0  0  0  0  0  0  0  0  0  0
    9.8437  -15.8059   25.0011 O   0  0  0  0  0  0  0  0  0  0  0  0
    7.8848  -12.8750   28.4404 C   0  0  0  0  0  0  0  0  0  0  0  0
    9.1155  -12.9011   27.5564 C   0  0  2  0  0  0  0  0  0  0  0  0
    8.7984  -12.0769   26.3341 C   0  0  0  0  0  0  0  0  0  0  0  0
    9.4255  -14.3311   27.2568 C   0  0  2  0  0  0  0  0  0  0  0  0
    8.3881  -15.0057   26.5102 N   0  0  0  0  0  0  0  0  0  0  0  0
    9.6799  -15.1029   28.4869 C   0  0  0  0  0  0  0  0  0  0  0  0
   10.7528  -14.8567   29.3184 O   0  0  0  0  0  0  0  0  0  0  0  0
    8.8944  -16.0259   28.8021 O   0  0  0  0  0  0  0  0  0  0  0  0
  2  1  1  6
  3  2  1  0
  4  3  1  0
  5  6  1  0
  5  4  1  0
  6  7  1  0
  8  2  1  0
  8  9  2  0
 11 10  1  6
 11 13  1  0
 12 11  1  0
 13 14  1  6
 14  8  1  0
 15 13  1  0
 16 15  2  0
 18 17  1  1
 19 18  1  0
 20 21  1  1
 20 18  1  0
 21 15  1  0
 22 20  1  0
 23 22  1  0
 24 22  2  0
M  END
$$$$
