KTV.pdb
     RDKit          3D

 24 23  0  0  1  0  0  0  0  0999 V2000
   11.3239  -17.0310   19.3222 N   0  0  0  0  0  0  0  0  0  0  0  0
   10.7234  -17.4208   20.6073 C   0  0  1  0  0  0  0  0  0  0  0  0
   11.8454  -17.6774   21.5378 C   0  0  0  0  0  0  0  0  0  0  0  0
   12.7879  -18.7236   21.1149 C   0  0  0  0  0  0  0  0  0  0  0  0
   13.8592  -19.2225   21.9802 C   0  0  0  0  0  0  0  0  0  0  0  0
   14.7832  -20.2830   21.5401 C   0  0  0  0  0  0  0  0  0  0  0  0
   15.7879  -20.4650   22.6423 N   0  0  0  0  0  0  0  0  0  0  0  0
    9.9382  -16.2000   21.0611 C   0  0  0  0  0  0  0  0  0  0  0  0
   10.1622  -15.0663   20.5587 O   0  0  0  0  0  0  0  0  0  0  0  0
    6.6264  -15.2808   20.5171 C   0  0  0  0  0  0  0  0  0  0  0  0
    6.7348  -15.4076   22.0172 C   0  0  1  0  0  0  0  0  0  0  0  0
    6.3529  -16.7129   22.4085 O   0  0  0  0  0  0  0  0  0  0  0  0
    8.1333  -15.1836   22.5112 C   0  0  2  0  0  0  0  0  0  0  0  0
    8.9658  -16.3340   22.0376 N   0  0  0  0  0  0  0  0  0  0  0  0
    8.2969  -15.0522   23.9573 C   0  0  0  0  0  0  0  0  0  0  0  0
    9.0280  -15.9085   24.5944 O   0  0  0  0  0  0  0  0  0  0  0  0
    5.9155  -12.7515   26.6340 C   0  0  0  0  0  0  0  0  0  0  0  0
    7.4189  -12.7445   26.8251 C   0  0  2  0  0  0  0  0  0  0  0  0
    7.9385  -11.4792   26.1904 C   0  0  0  0  0  0  0  0  0  0  0  0
    7.9576  -13.9942   26.2096 C   0  0  2  0  0  0  0  0  0  0  0  0
    7.7460  -14.0761   24.7822 N   0  0  0  0  0  0  0  0  0  0  0  0
    7.3779  -15.2002   26.8283 C   0  0  0  0  0  0  0  0  0  0  0  0
    7.8014  -15.6972   28.0435 O   0  0  0  0  0  0  0  0  0  0  0  0
    6.4594  -15.8099   26.2343 O   0  0  0  0  0  0  0  0  0  0  0  0
  2  1  1  6
  3  2  1  0
  4  3  1  0
  5  6  1  0
  5  4  1  0
  6  7  1  0
  8  2  1  0
  8  9  2  0
 11 10  1  6
 11 13  1  0
 12 11  1  0
 13 14  1  1
 14  8  1  0
 15 13  1  0
 16 15  2  0
 18 17  1  6
 19 18  1  0
 20 21  1  6
 20 18  1  0
 21 15  1  0
 22 20  1  0
 23 22  1  0
 24 22  2  0
M  END
$$$$
