KTV.pdb
     RDKit          3D

 24 23  0  0  1  0  0  0  0  0999 V2000
    9.8629  -18.0597   19.9108 N   0  0  0  0  0  0  0  0  0  0  0  0
   10.8864  -17.5869   20.8557 C   0  0  1  0  0  0  0  0  0  0  0  0
   11.7365  -16.6289   20.1139 C   0  0  0  0  0  0  0  0  0  0  0  0
   12.6802  -17.2311   19.1610 C   0  0  0  0  0  0  0  0  0  0  0  0
   12.9382  -16.6644   17.8352 C   0  0  0  0  0  0  0  0  0  0  0  0
   13.8092  -17.3405   16.8572 C   0  0  0  0  0  0  0  0  0  0  0  0
   15.2073  -17.2698   17.4029 N   0  0  0  0  0  0  0  0  0  0  0  0
   10.1113  -16.8616   21.9449 C   0  0  0  0  0  0  0  0  0  0  0  0
    9.4091  -15.8515   21.6723 O   0  0  0  0  0  0  0  0  0  0  0  0
    7.3565  -18.0627   23.3267 C   0  0  0  0  0  0  0  0  0  0  0  0
    8.2101  -17.8409   24.5516 C   0  0  1  0  0  0  0  0  0  0  0  0
    8.8632  -19.0484   24.8956 O   0  0  0  0  0  0  0  0  0  0  0  0
    9.2722  -16.8053   24.3294 C   0  0  2  0  0  0  0  0  0  0  0  0
   10.1771  -17.3151   23.2514 N   0  0  0  0  0  0  0  0  0  0  0  0
   10.0838  -16.4493   25.4913 C   0  0  0  0  0  0  0  0  0  0  0  0
   11.2971  -16.8897   25.5779 O   0  0  0  0  0  0  0  0  0  0  0  0
    8.8804  -13.9983   28.8219 C   0  0  0  0  0  0  0  0  0  0  0  0
   10.3204  -14.0779   28.3564 C   0  0  2  0  0  0  0  0  0  0  0  0
   10.5391  -12.9323   27.4005 C   0  0  0  0  0  0  0  0  0  0  0  0
   10.5220  -15.4242   27.7417 C   0  0  2  0  0  0  0  0  0  0  0  0
    9.7073  -15.6553   26.5705 N   0  0  0  0  0  0  0  0  0  0  0  0
   10.2570  -16.5083   28.7050 C   0  0  0  0  0  0  0  0  0  0  0  0
   11.0590  -16.7504   29.8010 O   0  0  0  0  0  0  0  0  0  0  0  0
    9.2627  -17.2495   28.5318 O   0  0  0  0  0  0  0  0  0  0  0  0
  2  1  1  6
  3  2  1  0
  4  3  1  0
  5  6  1  0
  5  4  1  0
  6  7  1  0
  8  2  1  0
  8  9  2  0
 11 10  1  6
 11 13  1  0
 12 11  1  0
 13 14  1  6
 14  8  1  0
 15 13  1  0
 16 15  2  0
 18 17  1  6
 19 18  1  0
 20 21  1  6
 20 18  1  0
 21 15  1  0
 22 20  1  0
 23 22  1  0
 24 22  2  0
M  END
$$$$
