KTV.pdb
     RDKit          3D

 24 23  0  0  1  0  0  0  0  0999 V2000
   11.9862  -17.2003   19.9659 N   0  0  0  0  0  0  0  0  0  0  0  0
   10.7839  -17.5558   20.7355 C   0  0  1  0  0  0  0  0  0  0  0  0
   11.2368  -18.4087   21.8571 C   0  0  0  0  0  0  0  0  0  0  0  0
   12.6940  -18.5457   21.9959 C   0  0  0  0  0  0  0  0  0  0  0  0
   13.3182  -19.3444   23.0532 C   0  0  0  0  0  0  0  0  0  0  0  0
   14.7808  -19.3978   23.2259 C   0  0  0  0  0  0  0  0  0  0  0  0
   15.0433  -20.2771   24.4156 N   0  0  0  0  0  0  0  0  0  0  0  0
   10.2519  -16.2339   21.2671 C   0  0  0  0  0  0  0  0  0  0  0  0
   10.9161  -15.1715   21.1336 O   0  0  0  0  0  0  0  0  0  0  0  0
    7.3409  -14.3399   20.2490 C   0  0  0  0  0  0  0  0  0  0  0  0
    7.1308  -14.7096   21.6972 C   0  0  1  0  0  0  0  0  0  0  0  0
    6.3951  -15.9161   21.7734 O   0  0  0  0  0  0  0  0  0  0  0  0
    8.4237  -14.9272   22.4260 C   0  0  2  0  0  0  0  0  0  0  0  0
    9.0239  -16.1958   21.9054 N   0  0  0  0  0  0  0  0  0  0  0  0
    8.3406  -15.0126   23.8824 C   0  0  0  0  0  0  0  0  0  0  0  0
    8.7719  -16.0744   24.4823 O   0  0  0  0  0  0  0  0  0  0  0  0
    6.0143  -12.5070   26.3702 C   0  0  0  0  0  0  0  0  0  0  0  0
    7.3495  -12.9755   26.9129 C   0  0  2  0  0  0  0  0  0  0  0  0
    8.3272  -11.8444   26.7157 C   0  0  0  0  0  0  0  0  0  0  0  0
    7.7184  -14.2265   26.1851 C   0  0  2  0  0  0  0  0  0  0  0  0
    7.8369  -14.0526   24.7552 N   0  0  0  0  0  0  0  0  0  0  0  0
    6.7494  -15.3088   26.4360 C   0  0  0  0  0  0  0  0  0  0  0  0
    6.6676  -15.9783   27.6395 O   0  0  0  0  0  0  0  0  0  0  0  0
    5.9598  -15.6450   25.5240 O   0  0  0  0  0  0  0  0  0  0  0  0
  2  1  1  6
  3  2  1  0
  4  3  1  0
  5  6  1  0
  5  4  1  0
  6  7  1  0
  8  2  1  0
  8  9  2  0
 11 10  1  6
 11 13  1  0
 12 11  1  0
 13 14  1  6
 14  8  1  0
 15 13  1  0
 16 15  2  0
 18 17  1  6
 19 18  1  0
 20 21  1  6
 20 18  1  0
 21 15  1  0
 22 20  1  0
 23 22  1  0
 24 22  2  0
M  END
$$$$
