KTV.pdb
     RDKit          3D

 24 23  0  0  1  0  0  0  0  0999 V2000
    4.0243  -18.4075   18.7077 N   0  0  0  0  0  0  0  0  0  0  0  0
    4.3217  -17.5357   19.8546 C   0  0  1  0  0  0  0  0  0  0  0  0
    3.9842  -18.3078   21.0714 C   0  0  0  0  0  0  0  0  0  0  0  0
    3.1626  -19.5065   20.8490 C   0  0  0  0  0  0  0  0  0  0  0  0
    2.6467  -20.3289   21.9459 C   0  0  0  0  0  0  0  0  0  0  0  0
    1.3000  -20.1199   22.5069 C   0  0  0  0  0  0  0  0  0  0  0  0
    1.1677  -21.0584   23.6728 N   0  0  0  0  0  0  0  0  0  0  0  0
    5.8221  -17.2964   19.7882 C   0  0  0  0  0  0  0  0  0  0  0  0
    6.4012  -17.1389   18.6802 O   0  0  0  0  0  0  0  0  0  0  0  0
    7.1977  -15.2534   19.1265 C   0  0  0  0  0  0  0  0  0  0  0  0
    7.9259  -15.3236   20.4467 C   0  0  1  0  0  0  0  0  0  0  0  0
    7.2683  -14.5006   21.3917 O   0  0  0  0  0  0  0  0  0  0  0  0
    7.9581  -16.7136   21.0096 C   0  0  2  0  0  0  0  0  0  0  0  0
    6.5618  -17.2509   20.9578 N   0  0  0  0  0  0  0  0  0  0  0  0
    8.4605  -16.8487   22.3751 C   0  0  0  0  0  0  0  0  0  0  0  0
    7.6330  -16.7754   23.3668 O   0  0  0  0  0  0  0  0  0  0  0  0
   11.5238  -19.6112   24.8945 C   0  0  0  0  0  0  0  0  0  0  0  0
   11.1246  -18.9493   23.5910 C   0  0  2  0  0  0  0  0  0  0  0  0
   12.3949  -18.4817   22.9264 C   0  0  0  0  0  0  0  0  0  0  0  0
   10.1727  -17.8458   23.9183 C   0  0  2  0  0  0  0  0  0  0  0  0
    9.7778  -17.0606   22.7709 N   0  0  0  0  0  0  0  0  0  0  0  0
   10.7279  -16.9295   24.9310 C   0  0  0  0  0  0  0  0  0  0  0  0
   10.8812  -17.2805   26.2563 O   0  0  0  0  0  0  0  0  0  0  0  0
   11.0798  -15.7785   24.5855 O   0  0  0  0  0  0  0  0  0  0  0  0
  2  1  1  6
  3  2  1  0
  4  3  1  0
  5  6  1  0
  5  4  1  0
  6  7  1  0
  8  2  1  0
  8  9  2  0
 11 10  1  6
 11 13  1  0
 12 11  1  0
 13 14  1  1
 14  8  1  0
 15 13  1  0
 16 15  2  0
 18 17  1  1
 19 18  1  0
 20 21  1  6
 20 18  1  0
 21 15  1  0
 22 20  1  0
 23 22  1  0
 24 22  2  0
M  END
$$$$
