KTV.pdb
     RDKit          3D

 24 23  0  0  1  0  0  0  0  0999 V2000
   11.7721  -17.1497   19.9145 N   0  0  0  0  0  0  0  0  0  0  0  0
   10.8252  -17.4918   20.9871 C   0  0  1  0  0  0  0  0  0  0  0  0
   11.6341  -17.9888   22.1226 C   0  0  0  0  0  0  0  0  0  0  0  0
   12.2450  -19.3120   21.9293 C   0  0  0  0  0  0  0  0  0  0  0  0
   13.0353  -19.9796   22.9662 C   0  0  0  0  0  0  0  0  0  0  0  0
   13.5893  -21.3314   22.7714 C   0  0  0  0  0  0  0  0  0  0  0  0
   14.3422  -21.6742   24.0256 N   0  0  0  0  0  0  0  0  0  0  0  0
   10.1587  -16.1760   21.3579 C   0  0  0  0  0  0  0  0  0  0  0  0
   10.6312  -15.0788   20.9571 O   0  0  0  0  0  0  0  0  0  0  0  0
    7.0042  -14.7723   20.4890 C   0  0  0  0  0  0  0  0  0  0  0  0
    6.9706  -14.9119   21.9915 C   0  0  1  0  0  0  0  0  0  0  0  0
    6.3452  -16.1333   22.3373 O   0  0  0  0  0  0  0  0  0  0  0  0
    8.3433  -14.9251   22.5961 C   0  0  2  0  0  0  0  0  0  0  0  0
    9.0198  -16.1821   22.1451 N   0  0  0  0  0  0  0  0  0  0  0  0
    8.4104  -14.8555   24.0541 C   0  0  0  0  0  0  0  0  0  0  0  0
    9.0093  -15.7971   24.7084 O   0  0  0  0  0  0  0  0  0  0  0  0
    6.0096  -12.4423   26.6450 C   0  0  0  0  0  0  0  0  0  0  0  0
    7.4852  -12.6026   26.9511 C   0  0  2  0  0  0  0  0  0  0  0  0
    8.1818  -11.3749   26.4204 C   0  0  0  0  0  0  0  0  0  0  0  0
    7.9413  -13.8766   26.3189 C   0  0  2  0  0  0  0  0  0  0  0  0
    7.8925  -13.8576   24.8745 N   0  0  0  0  0  0  0  0  0  0  0  0
    7.1534  -15.0307   26.7885 C   0  0  0  0  0  0  0  0  0  0  0  0
    6.2262  -15.6774   25.9978 O   0  0  0  0  0  0  0  0  0  0  0  0
    7.3239  -15.4523   27.9553 O   0  0  0  0  0  0  0  0  0  0  0  0
  2  1  1  6
  3  2  1  0
  4  3  1  0
  5  6  1  0
  5  4  1  0
  6  7  1  0
  8  2  1  0
  8  9  2  0
 11 10  1  6
 11 13  1  0
 12 11  1  0
 13 14  1  1
 14  8  1  0
 15 13  1  0
 16 15  2  0
 18 17  1  6
 19 18  1  0
 20 21  1  6
 20 18  1  0
 21 15  1  0
 22 20  1  0
 23 22  1  0
 24 22  2  0
M  END
$$$$
