HAC.pdb
     RDKit          3D

 22 22  0  0  1  0  0  0  0  0999 V2000
   16.4956  -10.7486  -16.8678 N   0  0  0  0  0  0  0  0  0  0  0  0
   16.3486   -9.4518  -16.2566 C   0  0  1  0  0  0  0  0  0  0  0  0
   16.0290   -9.5928  -14.7819 C   0  0  0  0  0  0  0  0  0  0  0  0
   14.6821  -10.1972  -14.5928 C   0  0  0  0  0  0  0  0  0  0  0  0
   13.4924   -9.5424  -14.7114 C   0  0  0  0  0  0  0  0  0  0  0  0
   12.5324  -10.4568  -14.4603 N   0  0  0  0  0  0  0  0  0  0  0  0
   13.1076  -11.6217  -14.1991 C   0  0  0  0  0  0  0  0  0  0  0  0
   14.4301  -11.4803  -14.2762 N   0  0  0  0  0  0  0  0  0  0  0  0
   17.5943   -8.6527  -16.3553 C   0  0  0  0  0  0  0  0  0  0  0  0
   18.6678   -9.2060  -16.0275 O   0  0  0  0  0  0  0  0  0  0  0  0
   18.7402   -5.3646  -17.8163 C   0  0  0  0  0  0  0  0  0  0  0  0
   18.8743   -6.6285  -16.9915 C   0  0  2  0  0  0  0  0  0  0  0  0
   17.6463   -7.3135  -16.7936 N   0  0  0  0  0  0  0  0  0  0  0  0
   19.4310   -6.2079  -15.6816 C   0  0  0  0  0  0  0  0  0  0  0  0
   18.6371   -5.8608  -14.7741 O   0  0  0  0  0  0  0  0  0  0  0  0
   20.8106   -6.1774  -15.4016 N   0  0  0  0  0  0  0  0  0  0  0  0
   21.3784   -5.7745  -14.1305 C   0  0  1  0  0  0  0  0  0  0  0  0
   22.4820   -6.7761  -13.8134 C   0  0  0  0  0  0  0  0  0  0  0  0
   21.8185   -8.3666  -13.3035 S   0  0  0  0  0  0  0  0  0  0  0  0
   21.9420   -4.4109  -14.3122 C   0  0  0  0  0  0  0  0  0  0  0  0
   22.2031   -3.9313  -15.4468 O   0  0  0  0  0  0  0  0  0  0  0  0
   22.2058   -3.6015  -13.2140 O   0  0  0  0  0  0  0  0  0  0  0  0
  2  1  1  1
  2  3  1  0
  3  4  1  0
  4  5  2  0
  5  6  1  0
  7  6  1  0
  8  4  1  0
  8  7  2  0
  9 13  1  0
  9  2  1  0
 10  9  2  0
 12 11  1  6
 12 13  1  0
 12 14  1  0
 14 16  1  0
 15 14  2  0
 16 17  1  0
 17 20  1  0
 17 18  1  6
 18 19  1  0
 20 22  1  0
 21 20  2  0
M  END
$$$$
