HAC.pdb
     RDKit          3D

 22 22  0  0  1  0  0  0  0  0999 V2000
   22.5519  -19.3287  -17.3017 N   0  0  0  0  0  0  0  0  0  0  0  0
   22.9030  -18.8952  -15.9729 C   0  0  1  0  0  0  0  0  0  0  0  0
   22.3992  -19.8842  -14.9410 C   0  0  0  0  0  0  0  0  0  0  0  0
   20.9113  -19.9006  -14.9132 C   0  0  0  0  0  0  0  0  0  0  0  0
   20.1398  -20.4715  -13.9450 C   0  0  0  0  0  0  0  0  0  0  0  0
   18.8583  -20.2569  -14.3093 N   0  0  0  0  0  0  0  0  0  0  0  0
   18.8439  -19.5841  -15.4508 C   0  0  0  0  0  0  0  0  0  0  0  0
   20.0985  -19.3563  -15.8369 N   0  0  0  0  0  0  0  0  0  0  0  0
   24.3725  -18.7963  -15.7968 C   0  0  0  0  0  0  0  0  0  0  0  0
   25.0801  -19.7003  -16.2947 O   0  0  0  0  0  0  0  0  0  0  0  0
   26.9564  -16.3571  -14.5145 C   0  0  0  0  0  0  0  0  0  0  0  0
   26.4316  -17.7113  -14.9465 C   0  0  2  0  0  0  0  0  0  0  0  0
   25.0213  -17.7520  -15.1063 N   0  0  0  0  0  0  0  0  0  0  0  0
   26.8448  -18.6686  -13.8904 C   0  0  0  0  0  0  0  0  0  0  0  0
   28.0686  -18.8913  -13.7257 O   0  0  0  0  0  0  0  0  0  0  0  0
   25.9313  -19.3441  -13.0586 N   0  0  0  0  0  0  0  0  0  0  0  0
   26.3112  -20.2280  -11.9747 C   0  0  1  0  0  0  0  0  0  0  0  0
   25.5691  -19.7379  -10.7374 C   0  0  0  0  0  0  0  0  0  0  0  0
   25.7040  -20.8972   -9.3707 S   0  0  0  0  0  0  0  0  0  0  0  0
   25.8672  -21.5972  -12.3464 C   0  0  0  0  0  0  0  0  0  0  0  0
   24.8551  -21.8096  -13.0648 O   0  0  0  0  0  0  0  0  0  0  0  0
   26.5678  -22.7131  -11.9053 O   0  0  0  0  0  0  0  0  0  0  0  0
  2  1  1  6
  2  3  1  0
  3  4  1  0
  4  5  2  0
  5  6  1  0
  7  6  1  0
  8  4  1  0
  8  7  2  0
  9 13  1  0
  9  2  1  0
 10  9  2  0
 12 11  1  1
 12 13  1  0
 12 14  1  0
 14 16  1  0
 15 14  2  0
 16 17  1  0
 17 20  1  0
 17 18  1  1
 18 19  1  0
 20 22  1  0
 21 20  2  0
M  END
$$$$
