HAC.pdb
     RDKit          3D

 22 22  0  0  1  0  0  0  0  0999 V2000
   19.1888  -12.8797  -16.6684 N   0  0  0  0  0  0  0  0  0  0  0  0
   18.6939  -11.5425  -16.8774 C   0  0  1  0  0  0  0  0  0  0  0  0
   17.6077  -11.2148  -15.8726 C   0  0  0  0  0  0  0  0  0  0  0  0
   16.3736  -11.9948  -16.1616 C   0  0  0  0  0  0  0  0  0  0  0  0
   15.8256  -12.1890  -17.3946 C   0  0  0  0  0  0  0  0  0  0  0  0
   14.7253  -12.9462  -17.2028 N   0  0  0  0  0  0  0  0  0  0  0  0
   14.6033  -13.2053  -15.9090 C   0  0  0  0  0  0  0  0  0  0  0  0
   15.6090  -12.6277  -15.2533 N   0  0  0  0  0  0  0  0  0  0  0  0
   19.7621  -10.5276  -16.7069 C   0  0  0  0  0  0  0  0  0  0  0  0
   20.5510  -10.6694  -15.7460 O   0  0  0  0  0  0  0  0  0  0  0  0
   21.4601   -7.9192  -18.7819 C   0  0  0  0  0  0  0  0  0  0  0  0
   21.0872   -8.5773  -17.4690 C   0  0  2  0  0  0  0  0  0  0  0  0
   19.9452   -9.4166  -17.5557 N   0  0  0  0  0  0  0  0  0  0  0  0
   20.8259   -7.4715  -16.5142 C   0  0  0  0  0  0  0  0  0  0  0  0
   19.6583   -7.0219  -16.4194 O   0  0  0  0  0  0  0  0  0  0  0  0
   21.8243   -6.8968  -15.7045 N   0  0  0  0  0  0  0  0  0  0  0  0
   21.5953   -5.8148  -14.7679 C   0  0  1  0  0  0  0  0  0  0  0  0
   22.5173   -6.0680  -13.5815 C   0  0  0  0  0  0  0  0  0  0  0  0
   21.9312   -7.4200  -12.5526 S   0  0  0  0  0  0  0  0  0  0  0  0
   21.9613   -4.5499  -15.4579 C   0  0  0  0  0  0  0  0  0  0  0  0
   22.6037   -4.5302  -16.5408 O   0  0  0  0  0  0  0  0  0  0  0  0
   21.6001   -3.3202  -14.9212 O   0  0  0  0  0  0  0  0  0  0  0  0
  2  1  1  1
  2  3  1  0
  3  4  1  0
  4  5  2  0
  5  6  1  0
  7  6  1  0
  8  4  1  0
  8  7  2  0
  9 13  1  0
  9  2  1  0
 10  9  2  0
 12 11  1  6
 12 13  1  0
 12 14  1  0
 14 16  1  0
 15 14  2  0
 16 17  1  0
 17 20  1  0
 17 18  1  1
 18 19  1  0
 20 22  1  0
 21 20  2  0
M  END
$$$$
