HAC.pdb
     RDKit          3D

 22 22  0  0  1  0  0  0  0  0999 V2000
   22.3259  -14.1165  -17.8149 N   0  0  0  0  0  0  0  0  0  0  0  0
   21.3977  -13.0604  -18.1311 C   0  0  1  0  0  0  0  0  0  0  0  0
   20.0567  -13.3169  -17.4730 C   0  0  0  0  0  0  0  0  0  0  0  0
   19.4201  -14.5375  -18.0387 C   0  0  0  0  0  0  0  0  0  0  0  0
   18.7564  -14.6106  -19.2272 C   0  0  0  0  0  0  0  0  0  0  0  0
   18.3438  -15.8895  -19.3501 N   0  0  0  0  0  0  0  0  0  0  0  0
   18.7368  -16.5712  -18.2840 C   0  0  0  0  0  0  0  0  0  0  0  0
   19.4005  -15.7550  -17.4665 N   0  0  0  0  0  0  0  0  0  0  0  0
   21.8751  -11.7438  -17.6426 C   0  0  0  0  0  0  0  0  0  0  0  0
   22.1433  -11.6376  -16.4249 O   0  0  0  0  0  0  0  0  0  0  0  0
   23.1097   -8.4818  -19.0844 C   0  0  0  0  0  0  0  0  0  0  0  0
   22.6509   -9.4151  -17.9824 C   0  0  2  0  0  0  0  0  0  0  0  0
   22.0455  -10.6075  -18.4599 N   0  0  0  0  0  0  0  0  0  0  0  0
   21.6739   -8.6459  -17.1722 C   0  0  0  0  0  0  0  0  0  0  0  0
   20.4645   -8.6708  -17.5051 O   0  0  0  0  0  0  0  0  0  0  0  0
   22.0342   -7.8854  -16.0433 N   0  0  0  0  0  0  0  0  0  0  0  0
   21.0895   -7.2044  -15.1805 C   0  0  1  0  0  0  0  0  0  0  0  0
   21.5266   -7.4920  -13.7493 C   0  0  0  0  0  0  0  0  0  0  0  0
   21.1306   -9.1729  -13.2516 S   0  0  0  0  0  0  0  0  0  0  0  0
   21.1886   -5.7514  -15.4787 C   0  0  0  0  0  0  0  0  0  0  0  0
   22.0856   -5.2717  -16.2210 O   0  0  0  0  0  0  0  0  0  0  0  0
   20.2763   -4.8536  -14.9379 O   0  0  0  0  0  0  0  0  0  0  0  0
  2  1  1  1
  2  3  1  0
  3  4  1  0
  4  5  2  0
  5  6  1  0
  7  6  1  0
  8  4  1  0
  8  7  2  0
  9 13  1  0
  9  2  1  0
 10  9  2  0
 12 11  1  6
 12 13  1  0
 12 14  1  0
 14 16  1  0
 15 14  2  0
 16 17  1  0
 17 20  1  0
 17 18  1  1
 18 19  1  0
 20 22  1  0
 21 20  2  0
M  END
$$$$
