HAC.pdb
     RDKit          3D

 22 22  0  0  1  0  0  0  0  0999 V2000
   17.7698  -11.2177  -17.5929 N   0  0  0  0  0  0  0  0  0  0  0  0
   17.6060  -10.8002  -16.2234 C   0  0  1  0  0  0  0  0  0  0  0  0
   18.3823  -11.7112  -15.2937 C   0  0  0  0  0  0  0  0  0  0  0  0
   17.7997  -13.0808  -15.2947 C   0  0  0  0  0  0  0  0  0  0  0  0
   18.3094  -14.1618  -15.9505 C   0  0  0  0  0  0  0  0  0  0  0  0
   17.4774  -15.1903  -15.6848 N   0  0  0  0  0  0  0  0  0  0  0  0
   16.5001  -14.7596  -14.9004 C   0  0  0  0  0  0  0  0  0  0  0  0
   16.6825  -13.4638  -14.6503 N   0  0  0  0  0  0  0  0  0  0  0  0
   18.1127   -9.4236  -16.0035 C   0  0  0  0  0  0  0  0  0  0  0  0
   19.2382   -9.1368  -16.4693 O   0  0  0  0  0  0  0  0  0  0  0  0
   16.7622   -6.0895  -14.8708 C   0  0  0  0  0  0  0  0  0  0  0  0
   17.8433   -7.0684  -15.2816 C   0  0  2  0  0  0  0  0  0  0  0  0
   17.4096   -8.4203  -15.3053 N   0  0  0  0  0  0  0  0  0  0  0  0
   18.9389   -6.9101  -14.2931 C   0  0  0  0  0  0  0  0  0  0  0  0
   18.8539   -7.5177  -13.1985 O   0  0  0  0  0  0  0  0  0  0  0  0
   20.0750   -6.1099  -14.5195 N   0  0  0  0  0  0  0  0  0  0  0  0
   21.1874   -5.9896  -13.5982 C   0  0  1  0  0  0  0  0  0  0  0  0
   22.2136   -7.0335  -14.0215 C   0  0  0  0  0  0  0  0  0  0  0  0
   22.7688   -6.7819  -15.7122 S   0  0  0  0  0  0  0  0  0  0  0  0
   21.7393   -4.6176  -13.7505 C   0  0  0  0  0  0  0  0  0  0  0  0
   21.3247   -3.8140  -14.6269 O   0  0  0  0  0  0  0  0  0  0  0  0
   22.7524   -4.1648  -12.9142 O   0  0  0  0  0  0  0  0  0  0  0  0
  2  1  1  6
  2  3  1  0
  3  4  1  0
  4  5  2  0
  5  6  1  0
  7  6  1  0
  8  4  1  0
  8  7  2  0
  9 13  1  0
  9  2  1  0
 10  9  2  0
 12 11  1  1
 12 13  1  0
 12 14  1  0
 14 16  1  0
 15 14  2  0
 16 17  1  0
 17 20  1  0
 17 18  1  6
 18 19  1  0
 20 22  1  0
 21 20  2  0
M  END
$$$$
