HAC.pdb
     RDKit          3D

 22 22  0  0  1  0  0  0  0  0999 V2000
   23.1425  -21.3857  -15.9171 N   0  0  0  0  0  0  0  0  0  0  0  0
   23.7877  -20.3376  -15.1673 C   0  0  1  0  0  0  0  0  0  0  0  0
   22.7618  -19.3606  -14.6290 C   0  0  0  0  0  0  0  0  0  0  0  0
   22.1623  -18.5668  -15.7360 C   0  0  0  0  0  0  0  0  0  0  0  0
   22.6282  -17.3735  -16.2022 C   0  0  0  0  0  0  0  0  0  0  0  0
   21.7960  -17.0078  -17.1994 N   0  0  0  0  0  0  0  0  0  0  0  0
   20.8605  -17.9358  -17.3392 C   0  0  0  0  0  0  0  0  0  0  0  0
   21.0705  -18.9025  -16.4468 N   0  0  0  0  0  0  0  0  0  0  0  0
   24.5300  -20.8731  -14.0002 C   0  0  0  0  0  0  0  0  0  0  0  0
   23.8964  -21.5734  -13.1793 O   0  0  0  0  0  0  0  0  0  0  0  0
   28.0858  -21.0844  -12.7228 C   0  0  0  0  0  0  0  0  0  0  0  0
   26.5781  -21.2155  -12.6479 C   0  0  2  0  0  0  0  0  0  0  0  0
   25.9000  -20.6442  -13.7570 N   0  0  0  0  0  0  0  0  0  0  0  0
   26.1668  -20.5269  -11.3992 C   0  0  0  0  0  0  0  0  0  0  0  0
   25.9654  -19.2889  -11.4333 O   0  0  0  0  0  0  0  0  0  0  0  0
   25.9895  -21.1928  -10.1713 N   0  0  0  0  0  0  0  0  0  0  0  0
   25.6282  -20.5373   -8.9302 C   0  0  1  0  0  0  0  0  0  0  0  0
   24.7457  -21.5163   -8.1656 C   0  0  0  0  0  0  0  0  0  0  0  0
   23.0172  -21.3696   -8.6353 S   0  0  0  0  0  0  0  0  0  0  0  0
   26.8888  -20.2749   -8.1873 C   0  0  0  0  0  0  0  0  0  0  0  0
   27.9641  -20.8782   -8.4430 O   0  0  0  0  0  0  0  0  0  0  0  0
   26.9254  -19.3356   -7.1639 O   0  0  0  0  0  0  0  0  0  0  0  0
  2  1  1  1
  2  3  1  0
  3  4  1  0
  4  5  2  0
  5  6  1  0
  7  6  1  0
  8  4  1  0
  8  7  2  0
  9 13  1  0
  9  2  1  0
 10  9  2  0
 12 11  1  6
 12 13  1  0
 12 14  1  0
 14 16  1  0
 15 14  2  0
 16 17  1  0
 17 20  1  0
 17 18  1  1
 18 19  1  0
 20 22  1  0
 21 20  2  0
M  END
$$$$
