HAC.pdb
     RDKit          3D

 22 22  0  0  1  0  0  0  0  0999 V2000
   20.1849  -17.5081  -16.4388 N   0  0  0  0  0  0  0  0  0  0  0  0
   19.5290  -16.5773  -17.3221 C   0  0  1  0  0  0  0  0  0  0  0  0
   18.0266  -16.6308  -17.1296 C   0  0  0  0  0  0  0  0  0  0  0  0
   17.4907  -17.9533  -17.5526 C   0  0  0  0  0  0  0  0  0  0  0  0
   16.8571  -18.2151  -18.7309 C   0  0  0  0  0  0  0  0  0  0  0  0
   16.5402  -19.5265  -18.7049 N   0  0  0  0  0  0  0  0  0  0  0  0
   16.9608  -20.0467  -17.5610 C   0  0  0  0  0  0  0  0  0  0  0  0
   17.5479  -19.0928  -16.8396 N   0  0  0  0  0  0  0  0  0  0  0  0
   19.9497  -15.1795  -17.0592 C   0  0  0  0  0  0  0  0  0  0  0  0
   20.0150  -14.8062  -15.8666 O   0  0  0  0  0  0  0  0  0  0  0  0
   21.2775  -12.1783  -18.9394 C   0  0  0  0  0  0  0  0  0  0  0  0
   20.6712  -12.9156  -17.7628 C   0  0  2  0  0  0  0  0  0  0  0  0
   20.2800  -14.2470  -18.0641 N   0  0  0  0  0  0  0  0  0  0  0  0
   19.4849  -12.1255  -17.3492 C   0  0  0  0  0  0  0  0  0  0  0  0
   18.3493  -12.5035  -17.7257 O   0  0  0  0  0  0  0  0  0  0  0  0
   19.5666  -10.9676  -16.5523 N   0  0  0  0  0  0  0  0  0  0  0  0
   18.4298  -10.1494  -16.1795 C   0  0  1  0  0  0  0  0  0  0  0  0
   18.3445  -10.1958  -14.6588 C   0  0  0  0  0  0  0  0  0  0  0  0
   17.1612   -9.0053  -14.0164 S   0  0  0  0  0  0  0  0  0  0  0  0
   18.7093   -8.7668  -16.6487 C   0  0  0  0  0  0  0  0  0  0  0  0
   19.8752   -8.2954  -16.7120 O   0  0  0  0  0  0  0  0  0  0  0  0
   17.6726   -7.9292  -17.0418 O   0  0  0  0  0  0  0  0  0  0  0  0
  2  1  1  1
  2  3  1  0
  3  4  1  0
  4  5  2  0
  5  6  1  0
  7  6  1  0
  8  4  1  0
  8  7  2  0
  9 13  1  0
  9  2  1  0
 10  9  2  0
 12 11  1  6
 12 13  1  0
 12 14  1  0
 14 16  1  0
 15 14  2  0
 16 17  1  0
 17 20  1  0
 17 18  1  1
 18 19  1  0
 20 22  1  0
 21 20  2  0
M  END
$$$$
