HAC.pdb
     RDKit          3D

 22 22  0  0  1  0  0  0  0  0999 V2000
   28.7405  -23.0407  -18.3031 N   0  0  0  0  0  0  0  0  0  0  0  0
   28.9239  -23.9879  -17.2325 C   0  0  1  0  0  0  0  0  0  0  0  0
   27.8894  -25.0922  -17.3171 C   0  0  0  0  0  0  0  0  0  0  0  0
   26.5250  -24.5526  -17.0674 C   0  0  0  0  0  0  0  0  0  0  0  0
   25.8884  -24.5254  -15.8622 C   0  0  0  0  0  0  0  0  0  0  0  0
   24.6845  -23.9580  -16.0848 N   0  0  0  0  0  0  0  0  0  0  0  0
   24.5865  -23.6505  -17.3700 C   0  0  0  0  0  0  0  0  0  0  0  0
   25.7099  -24.0093  -17.9897 N   0  0  0  0  0  0  0  0  0  0  0  0
   30.2562  -24.6369  -17.2943 C   0  0  0  0  0  0  0  0  0  0  0  0
   30.6996  -24.9486  -18.4222 O   0  0  0  0  0  0  0  0  0  0  0  0
   33.1384  -25.4765  -14.9895 C   0  0  0  0  0  0  0  0  0  0  0  0
   32.3448  -25.5025  -16.2800 C   0  0  2  0  0  0  0  0  0  0  0  0
   31.0529  -24.9243  -16.1669 N   0  0  0  0  0  0  0  0  0  0  0  0
   32.2234  -26.9321  -16.6596 C   0  0  0  0  0  0  0  0  0  0  0  0
   31.3030  -27.6142  -16.1478 O   0  0  0  0  0  0  0  0  0  0  0  0
   33.0911  -27.5672  -17.5686 N   0  0  0  0  0  0  0  0  0  0  0  0
   32.9716  -28.9510  -17.9826 C   0  0  1  0  0  0  0  0  0  0  0  0
   33.3883  -29.0011  -19.4474 C   0  0  0  0  0  0  0  0  0  0  0  0
   32.2050  -28.1652  -20.5108 S   0  0  0  0  0  0  0  0  0  0  0  0
   33.9064  -29.7447  -17.1423 C   0  0  0  0  0  0  0  0  0  0  0  0
   33.8665  -31.0020  -17.0868 O   0  0  0  0  0  0  0  0  0  0  0  0
   34.8767  -29.1140  -16.3731 O   0  0  0  0  0  0  0  0  0  0  0  0
  2  1  1  6
  2  3  1  0
  3  4  1  0
  4  5  2  0
  5  6  1  0
  7  6  1  0
  8  4  1  0
  8  7  2  0
  9 13  1  0
  9  2  1  0
 10  9  2  0
 12 11  1  1
 12 13  1  0
 12 14  1  0
 14 16  1  0
 15 14  2  0
 16 17  1  0
 17 20  1  0
 17 18  1  6
 18 19  1  0
 20 22  1  0
 21 20  2  0
M  END
$$$$
