HAC.pdb
     RDKit          3D

 22 22  0  0  1  0  0  0  0  0999 V2000
   25.1746   -6.4961  -18.9856 N   0  0  0  0  0  0  0  0  0  0  0  0
   24.1830   -7.4683  -19.3709 C   0  0  1  0  0  0  0  0  0  0  0  0
   24.6389   -8.2353  -20.5959 C   0  0  0  0  0  0  0  0  0  0  0  0
   24.7458   -7.3294  -21.7720 C   0  0  0  0  0  0  0  0  0  0  0  0
   25.9039   -6.8283  -22.2877 C   0  0  0  0  0  0  0  0  0  0  0  0
   25.5473   -6.0609  -23.3387 N   0  0  0  0  0  0  0  0  0  0  0  0
   24.2283   -6.0898  -23.4627 C   0  0  0  0  0  0  0  0  0  0  0  0
   23.7188   -6.8656  -22.5070 N   0  0  0  0  0  0  0  0  0  0  0  0
   23.9448   -8.4657  -18.2993 C   0  0  0  0  0  0  0  0  0  0  0  0
   23.0532   -9.3226  -18.4900 O   0  0  0  0  0  0  0  0  0  0  0  0
   25.6282   -9.8454  -15.2625 C   0  0  0  0  0  0  0  0  0  0  0  0
   24.4111   -9.5025  -16.0974 C   0  0  2  0  0  0  0  0  0  0  0  0
   24.6566   -8.5100  -17.0828 N   0  0  0  0  0  0  0  0  0  0  0  0
   23.3812   -9.0194  -15.1443 C   0  0  0  0  0  0  0  0  0  0  0  0
   22.9053   -9.8286  -14.3118 O   0  0  0  0  0  0  0  0  0  0  0  0
   22.9071   -7.6938  -15.1245 N   0  0  0  0  0  0  0  0  0  0  0  0
   21.9096   -7.1957  -14.1984 C   0  0  1  0  0  0  0  0  0  0  0  0
   22.5970   -6.1277  -13.3565 C   0  0  0  0  0  0  0  0  0  0  0  0
   23.2567   -4.7971  -14.3685 S   0  0  0  0  0  0  0  0  0  0  0  0
   20.8136   -6.6021  -15.0085 C   0  0  0  0  0  0  0  0  0  0  0  0
   20.8509   -6.5529  -16.2662 O   0  0  0  0  0  0  0  0  0  0  0  0
   19.6867   -6.0702  -14.3938 O   0  0  0  0  0  0  0  0  0  0  0  0
  2  1  1  1
  2  3  1  0
  3  4  1  0
  4  5  2  0
  5  6  1  0
  7  6  1  0
  8  4  1  0
  8  7  2  0
  9 13  1  0
  9  2  1  0
 10  9  2  0
 12 11  1  1
 12 13  1  0
 12 14  1  0
 14 16  1  0
 15 14  2  0
 16 17  1  0
 17 20  1  0
 17 18  1  1
 18 19  1  0
 20 22  1  0
 21 20  2  0
M  END
$$$$
