HAC.pdb
     RDKit          3D

 22 22  0  0  1  0  0  0  0  0999 V2000
   18.1114  -11.2027  -14.9509 N   0  0  0  0  0  0  0  0  0  0  0  0
   17.0406  -10.2384  -14.9410 C   0  0  1  0  0  0  0  0  0  0  0  0
   15.7878  -10.8418  -14.3382 C   0  0  0  0  0  0  0  0  0  0  0  0
   15.2255  -11.8876  -15.2355 C   0  0  0  0  0  0  0  0  0  0  0  0
   14.4317  -11.6621  -16.3206 C   0  0  0  0  0  0  0  0  0  0  0  0
   14.1517  -12.8752  -16.8411 N   0  0  0  0  0  0  0  0  0  0  0  0
   14.7475  -13.8043  -16.1078 C   0  0  0  0  0  0  0  0  0  0  0  0
   15.4127  -13.2145  -15.1155 N   0  0  0  0  0  0  0  0  0  0  0  0
   17.3816   -9.0459  -14.1276 C   0  0  0  0  0  0  0  0  0  0  0  0
   17.8436   -9.2370  -12.9805 O   0  0  0  0  0  0  0  0  0  0  0  0
   17.6623   -5.2978  -14.5020 C   0  0  0  0  0  0  0  0  0  0  0  0
   17.5496   -6.6038  -13.7421 C   0  0  2  0  0  0  0  0  0  0  0  0
   17.2190   -7.7145  -14.5627 N   0  0  0  0  0  0  0  0  0  0  0  0
   16.4885   -6.3978  -12.7252 C   0  0  0  0  0  0  0  0  0  0  0  0
   15.3003   -6.6563  -13.0347 O   0  0  0  0  0  0  0  0  0  0  0  0
   16.7457   -5.9251  -11.4240 N   0  0  0  0  0  0  0  0  0  0  0  0
   15.7276   -5.7149  -10.4141 C   0  0  1  0  0  0  0  0  0  0  0  0
   16.3932   -5.9772   -9.0687 C   0  0  0  0  0  0  0  0  0  0  0  0
   16.5461   -7.7350   -8.7270 S   0  0  0  0  0  0  0  0  0  0  0  0
   15.2907   -4.2977  -10.5173 C   0  0  0  0  0  0  0  0  0  0  0  0
   15.9446   -3.4319  -11.1564 O   0  0  0  0  0  0  0  0  0  0  0  0
   14.1217   -3.8702   -9.8997 O   0  0  0  0  0  0  0  0  0  0  0  0
  2  1  1  1
  2  3  1  0
  3  4  1  0
  4  5  2  0
  5  6  1  0
  7  6  1  0
  8  4  1  0
  8  7  2  0
  9 13  1  0
  9  2  1  0
 10  9  2  0
 12 11  1  6
 12 13  1  0
 12 14  1  0
 14 16  1  0
 15 14  2  0
 16 17  1  0
 17 20  1  0
 17 18  1  1
 18 19  1  0
 20 22  1  0
 21 20  2  0
M  END
$$$$
