LHD.pdb
     RDKit          3D

 27 27  0  0  1  0  0  0  0  0999 V2000
    5.2749  -12.6311   27.2335 C   0  0  0  0  0  0  0  0  0  0  0  0
    6.1383  -12.6018   25.9937 C   0  0  1  0  0  0  0  0  0  0  0  0
    6.9420  -11.3193   26.0081 C   0  0  0  0  0  0  0  0  0  0  0  0
    7.1198  -13.7539   25.9652 C   0  0  0  0  0  0  0  0  0  0  0  0
    8.1622  -13.5955   24.9069 C   0  0  2  0  0  0  0  0  0  0  0  0
    7.7530  -12.7613   23.8027 N   0  0  0  0  0  0  0  0  0  0  0  0
    8.5792  -14.9502   24.4618 C   0  0  0  0  0  0  0  0  0  0  0  0
    8.5270  -15.8703   25.3174 O   0  0  0  0  0  0  0  0  0  0  0  0
    9.0192  -15.2581   23.1690 N   0  0  0  0  0  0  0  0  0  0  0  0
    9.6139  -16.5226   22.7898 C   0  0  1  0  0  0  0  0  0  0  0  0
    9.8590  -16.6157   21.3165 C   0  0  0  0  0  0  0  0  0  0  0  0
   10.3176  -17.9866   20.9707 C   0  0  0  0  0  0  0  0  0  0  0  0
   10.4068  -19.0343   21.8849 C   0  0  0  0  0  0  0  0  0  0  0  0
   10.8545  -20.1439   21.2645 N   0  0  0  0  0  0  0  0  0  0  0  0
   11.0403  -19.7921   19.9873 C   0  0  0  0  0  0  0  0  0  0  0  0
   10.7172  -18.4858   19.8002 N   0  0  0  0  0  0  0  0  0  0  0  0
   10.7749  -16.7766   23.6285 C   0  0  0  0  0  0  0  0  0  0  0  0
   11.2893  -15.8335   24.2756 O   0  0  0  0  0  0  0  0  0  0  0  0
   11.3835  -18.0773   23.7632 N   0  0  0  0  0  0  0  0  0  0  0  0
   12.5058  -18.3015   24.6350 C   0  0  1  0  0  0  0  0  0  0  0  0
   12.2294  -17.9106   26.0425 C   0  0  0  0  0  0  0  0  0  0  0  0
   11.3170  -18.8622   26.6788 C   0  0  0  0  0  0  0  0  0  0  0  0
   11.7623  -19.9111   27.1881 O   0  0  0  0  0  0  0  0  0  0  0  0
   12.9623  -19.7251   24.5341 C   0  0  0  0  0  0  0  0  0  0  0  0
   12.2133  -20.6165   24.0644 O   0  0  0  0  0  0  0  0  0  0  0  0
    9.9444  -18.6131   26.7256 O   0  0  0  0  0  0  0  0  0  0  0  0
   14.2270  -20.1189   24.9534 O   0  0  0  0  0  0  0  0  0  0  0  0
  2  4  1  0
  2  1  1  1
  3  2  1  0
  5  4  1  0
  5  6  1  6
  7  8  2  0
  7  5  1  0
  9  7  1  0
 10  9  1  0
 10 11  1  6
 12 11  1  0
 13 12  2  0
 14 13  1  0
 14 15  1  0
 15 16  2  0
 16 12  1  0
 17 18  2  0
 17 10  1  0
 19 17  1  0
 20 21  1  1
 20 19  1  0
 21 22  1  0
 22 26  1  0
 22 23  2  0
 24 20  1  0
 25 24  2  0
 27 24  1  0
M  END
$$$$
