LHD.pdb
     RDKit          3D

 27 27  0  0  1  0  0  0  0  0999 V2000
    6.0023  -11.5975   25.4072 C   0  0  0  0  0  0  0  0  0  0  0  0
    6.8365  -12.7276   25.9645 C   0  0  1  0  0  0  0  0  0  0  0  0
    7.3873  -12.2912   27.3051 C   0  0  0  0  0  0  0  0  0  0  0  0
    6.0103  -13.9747   26.1957 C   0  0  0  0  0  0  0  0  0  0  0  0
    6.8507  -15.1981   26.3661 C   0  0  2  0  0  0  0  0  0  0  0  0
    8.0093  -15.0001   27.2035 N   0  0  0  0  0  0  0  0  0  0  0  0
    7.2136  -15.7016   25.0163 C   0  0  0  0  0  0  0  0  0  0  0  0
    6.2656  -16.0366   24.2611 O   0  0  0  0  0  0  0  0  0  0  0  0
    8.5256  -15.8231   24.5432 N   0  0  0  0  0  0  0  0  0  0  0  0
    8.8805  -16.3983   23.2628 C   0  0  1  0  0  0  0  0  0  0  0  0
    9.5486  -15.4084   22.3612 C   0  0  0  0  0  0  0  0  0  0  0  0
    9.8496  -16.0461   21.0528 C   0  0  0  0  0  0  0  0  0  0  0  0
   11.1374  -16.2968   20.5838 C   0  0  0  0  0  0  0  0  0  0  0  0
   11.0753  -16.8806   19.3706 N   0  0  0  0  0  0  0  0  0  0  0  0
    9.7719  -16.9908   19.0904 C   0  0  0  0  0  0  0  0  0  0  0  0
    9.0214  -16.4873   20.1049 N   0  0  0  0  0  0  0  0  0  0  0  0
    9.6165  -17.6340   23.4801 C   0  0  0  0  0  0  0  0  0  0  0  0
   10.3106  -18.1125   22.5517 O   0  0  0  0  0  0  0  0  0  0  0  0
    9.5952  -18.3579   24.7274 N   0  0  0  0  0  0  0  0  0  0  0  0
   10.8073  -18.7540   25.3938 C   0  0  1  0  0  0  0  0  0  0  0  0
   11.9658  -17.8903   25.0443 C   0  0  0  0  0  0  0  0  0  0  0  0
   13.1199  -18.6999   24.6498 C   0  0  0  0  0  0  0  0  0  0  0  0
   13.0333  -19.9448   24.6294 O   0  0  0  0  0  0  0  0  0  0  0  0
   10.5870  -18.8140   26.8747 C   0  0  0  0  0  0  0  0  0  0  0  0
   10.2268  -17.7993   27.5203 O   0  0  0  0  0  0  0  0  0  0  0  0
   14.3268  -18.0963   24.2928 O   0  0  0  0  0  0  0  0  0  0  0  0
   10.7705  -19.9883   27.5943 O   0  0  0  0  0  0  0  0  0  0  0  0
  2  4  1  0
  2  1  1  1
  3  2  1  0
  5  4  1  0
  5  6  1  1
  7  8  2  0
  7  5  1  0
  9  7  1  0
 10  9  1  0
 10 11  1  1
 12 11  1  0
 13 12  2  0
 14 13  1  0
 14 15  1  0
 15 16  2  0
 16 12  1  0
 17 18  2  0
 17 10  1  0
 19 17  1  0
 20 21  1  1
 20 19  1  0
 21 22  1  0
 22 26  1  0
 22 23  2  0
 24 20  1  0
 25 24  2  0
 27 24  1  0
M  END
$$$$
