LHD.pdb
     RDKit          3D

 27 27  0  0  1  0  0  0  0  0999 V2000
    7.4129  -12.1809   27.9209 C   0  0  0  0  0  0  0  0  0  0  0  0
    6.5789  -12.8872   26.8774 C   0  0  1  0  0  0  0  0  0  0  0  0
    5.8782  -11.8368   26.0426 C   0  0  0  0  0  0  0  0  0  0  0  0
    7.4329  -13.7167   25.9425 C   0  0  0  0  0  0  0  0  0  0  0  0
    6.6238  -14.4534   24.9255 C   0  0  2  0  0  0  0  0  0  0  0  0
    5.5726  -15.2650   25.4904 N   0  0  0  0  0  0  0  0  0  0  0  0
    7.5535  -15.2476   24.0817 C   0  0  0  0  0  0  0  0  0  0  0  0
    7.4447  -16.4990   24.1396 O   0  0  0  0  0  0  0  0  0  0  0  0
    8.5267  -14.6952   23.2405 N   0  0  0  0  0  0  0  0  0  0  0  0
    9.4296  -15.4727   22.4179 C   0  0  1  0  0  0  0  0  0  0  0  0
    9.7854  -14.7705   21.1453 C   0  0  0  0  0  0  0  0  0  0  0  0
    8.5660  -14.5898   20.3150 C   0  0  0  0  0  0  0  0  0  0  0  0
    8.0958  -13.3538   19.8762 C   0  0  0  0  0  0  0  0  0  0  0  0
    6.9746  -13.5248   19.1482 N   0  0  0  0  0  0  0  0  0  0  0  0
    6.7518  -14.8438   19.1345 C   0  0  0  0  0  0  0  0  0  0  0  0
    7.7119  -15.4973   19.8395 N   0  0  0  0  0  0  0  0  0  0  0  0
   10.5604  -15.9047   23.2244 C   0  0  0  0  0  0  0  0  0  0  0  0
   11.3820  -15.0552   23.6440 O   0  0  0  0  0  0  0  0  0  0  0  0
   10.7985  -17.2825   23.5782 N   0  0  0  0  0  0  0  0  0  0  0  0
   11.9591  -17.6819   24.3289 C   0  0  1  0  0  0  0  0  0  0  0  0
   11.9550  -19.1289   24.6700 C   0  0  0  0  0  0  0  0  0  0  0  0
   12.0156  -19.3234   26.1197 C   0  0  0  0  0  0  0  0  0  0  0  0
   11.2453  -18.6886   26.8689 O   0  0  0  0  0  0  0  0  0  0  0  0
   13.2072  -17.2874   23.5997 C   0  0  0  0  0  0  0  0  0  0  0  0
   13.3050  -17.4260   22.3557 O   0  0  0  0  0  0  0  0  0  0  0  0
   12.9296  -20.2157   26.6826 O   0  0  0  0  0  0  0  0  0  0  0  0
   14.3048  -16.7542   24.2641 O   0  0  0  0  0  0  0  0  0  0  0  0
  2  4  1  0
  2  1  1  1
  3  2  1  0
  5  4  1  0
  5  6  1  1
  7  8  2  0
  7  5  1  0
  9  7  1  0
 10  9  1  0
 10 11  1  6
 12 11  1  0
 13 12  2  0
 14 13  1  0
 14 15  1  0
 15 16  2  0
 16 12  1  0
 17 18  2  0
 17 10  1  0
 19 17  1  0
 20 21  1  6
 20 19  1  0
 21 22  1  0
 22 26  1  0
 22 23  2  0
 24 20  1  0
 25 24  2  0
 27 24  1  0
M  END
$$$$
