LHD.pdb
     RDKit          3D

 27 27  0  0  1  0  0  0  0  0999 V2000
    7.2840  -12.0930   27.7805 C   0  0  0  0  0  0  0  0  0  0  0  0
    6.4975  -12.8900   26.7658 C   0  0  1  0  0  0  0  0  0  0  0  0
    5.5876  -11.9378   26.0199 C   0  0  0  0  0  0  0  0  0  0  0  0
    7.4014  -13.5491   25.7460 C   0  0  0  0  0  0  0  0  0  0  0  0
    6.6764  -14.5298   24.8833 C   0  0  2  0  0  0  0  0  0  0  0  0
    5.7410  -15.3615   25.6017 N   0  0  0  0  0  0  0  0  0  0  0  0
    7.6861  -15.3306   24.1441 C   0  0  0  0  0  0  0  0  0  0  0  0
    7.6845  -16.5719   24.3452 O   0  0  0  0  0  0  0  0  0  0  0  0
    8.6230  -14.7947   23.2526 N   0  0  0  0  0  0  0  0  0  0  0  0
    9.5496  -15.5862   22.4707 C   0  0  1  0  0  0  0  0  0  0  0  0
    9.8389  -14.9699   21.1381 C   0  0  0  0  0  0  0  0  0  0  0  0
    8.5632  -14.6803   20.4325 C   0  0  0  0  0  0  0  0  0  0  0  0
    8.1073  -13.3970   20.1381 C   0  0  0  0  0  0  0  0  0  0  0  0
    6.9240  -13.4695   19.4969 N   0  0  0  0  0  0  0  0  0  0  0  0
    6.6493  -14.7748   19.3946 C   0  0  0  0  0  0  0  0  0  0  0  0
    7.6379  -15.5163   19.9592 N   0  0  0  0  0  0  0  0  0  0  0  0
   10.7196  -15.8917   23.2793 C   0  0  0  0  0  0  0  0  0  0  0  0
   11.1994  -15.0104   24.0315 O   0  0  0  0  0  0  0  0  0  0  0  0
   11.3753  -17.1762   23.2672 N   0  0  0  0  0  0  0  0  0  0  0  0
   11.9088  -17.7653   24.4666 C   0  0  1  0  0  0  0  0  0  0  0  0
   10.8993  -17.8768   25.5522 C   0  0  0  0  0  0  0  0  0  0  0  0
   11.4693  -18.5346   26.7293 C   0  0  0  0  0  0  0  0  0  0  0  0
   12.6546  -18.9254   26.7150 O   0  0  0  0  0  0  0  0  0  0  0  0
   12.5385  -19.0891   24.1564 C   0  0  0  0  0  0  0  0  0  0  0  0
   13.7360  -19.3245   24.4507 O   0  0  0  0  0  0  0  0  0  0  0  0
   10.7015  -18.7335   27.8778 O   0  0  0  0  0  0  0  0  0  0  0  0
   11.8290  -20.1081   23.5331 O   0  0  0  0  0  0  0  0  0  0  0  0
  2  4  1  0
  2  1  1  1
  3  2  1  0
  5  4  1  0
  5  6  1  1
  7  8  2  0
  7  5  1  0
  9  7  1  0
 10  9  1  0
 10 11  1  6
 12 11  1  0
 13 12  2  0
 14 13  1  0
 14 15  1  0
 15 16  2  0
 16 12  1  0
 17 18  2  0
 17 10  1  0
 19 17  1  0
 20 21  1  1
 20 19  1  0
 21 22  1  0
 22 26  1  0
 22 23  2  0
 24 20  1  0
 25 24  2  0
 27 24  1  0
M  END
$$$$
