LHD.pdb
     RDKit          3D

 27 27  0  0  1  0  0  0  0  0999 V2000
    7.4617  -11.4859   25.7005 C   0  0  0  0  0  0  0  0  0  0  0  0
    6.8879  -12.3658   26.7867 C   0  0  1  0  0  0  0  0  0  0  0  0
    5.7996  -11.5901   27.4973 C   0  0  0  0  0  0  0  0  0  0  0  0
    6.2574  -13.6197   26.2197 C   0  0  0  0  0  0  0  0  0  0  0  0
    7.2670  -14.6635   25.8692 C   0  0  2  0  0  0  0  0  0  0  0  0
    8.6335  -14.2494   26.0787 N   0  0  0  0  0  0  0  0  0  0  0  0
    7.0199  -15.0944   24.4691 C   0  0  0  0  0  0  0  0  0  0  0  0
    5.9223  -15.6615   24.2346 O   0  0  0  0  0  0  0  0  0  0  0  0
    7.9206  -14.9097   23.4134 N   0  0  0  0  0  0  0  0  0  0  0  0
    7.8038  -15.5508   22.1205 C   0  0  1  0  0  0  0  0  0  0  0  0
    7.1795  -14.6554   21.0969 C   0  0  0  0  0  0  0  0  0  0  0  0
    8.2421  -13.9819   20.3056 C   0  0  0  0  0  0  0  0  0  0  0  0
    8.4359  -12.6025   20.2727 C   0  0  0  0  0  0  0  0  0  0  0  0
    9.4744  -12.3071   19.4660 N   0  0  0  0  0  0  0  0  0  0  0  0
    9.9184  -13.4821   19.0057 C   0  0  0  0  0  0  0  0  0  0  0  0
    9.1770  -14.5030   19.5097 N   0  0  0  0  0  0  0  0  0  0  0  0
    9.0915  -16.1151   21.7474 C   0  0  0  0  0  0  0  0  0  0  0  0
    9.2487  -16.5923   20.5984 O   0  0  0  0  0  0  0  0  0  0  0  0
   10.2236  -16.1595   22.6399 N   0  0  0  0  0  0  0  0  0  0  0  0
   11.4932  -16.6956   22.2266 C   0  0  1  0  0  0  0  0  0  0  0  0
   12.2136  -15.8053   21.2787 C   0  0  0  0  0  0  0  0  0  0  0  0
   13.5070  -16.3795   20.9039 C   0  0  0  0  0  0  0  0  0  0  0  0
   13.6014  -17.5987   20.6540 O   0  0  0  0  0  0  0  0  0  0  0  0
   12.3306  -17.0237   23.4250 C   0  0  0  0  0  0  0  0  0  0  0  0
   11.9035  -16.8300   24.5896 O   0  0  0  0  0  0  0  0  0  0  0  0
   14.6467  -15.5781   20.8208 O   0  0  0  0  0  0  0  0  0  0  0  0
   13.6090  -17.5534   23.3009 O   0  0  0  0  0  0  0  0  0  0  0  0
  2  4  1  0
  2  1  1  6
  3  2  1  0
  5  4  1  0
  5  6  1  6
  7  8  2  0
  7  5  1  0
  9  7  1  0
 10  9  1  0
 10 11  1  6
 12 11  1  0
 13 12  2  0
 14 13  1  0
 14 15  1  0
 15 16  2  0
 16 12  1  0
 17 18  2  0
 17 10  1  0
 19 17  1  0
 20 21  1  6
 20 19  1  0
 21 22  1  0
 22 26  1  0
 22 23  2  0
 24 20  1  0
 25 24  2  0
 27 24  1  0
M  END
$$$$
