LHD.pdb
     RDKit          3D

 27 27  0  0  1  0  0  0  0  0999 V2000
    7.0293  -11.2950   26.3390 C   0  0  0  0  0  0  0  0  0  0  0  0
    7.4637  -12.7353   26.4808 C   0  0  1  0  0  0  0  0  0  0  0  0
    8.1753  -12.8855   27.8082 C   0  0  0  0  0  0  0  0  0  0  0  0
    6.2815  -13.6807   26.4883 C   0  0  0  0  0  0  0  0  0  0  0  0
    6.6336  -15.0461   25.9950 C   0  0  2  0  0  0  0  0  0  0  0  0
    7.7432  -15.6517   26.6912 N   0  0  0  0  0  0  0  0  0  0  0  0
    6.8687  -14.9625   24.5305 C   0  0  0  0  0  0  0  0  0  0  0  0
    5.9645  -14.4274   23.8396 O   0  0  0  0  0  0  0  0  0  0  0  0
    8.0172  -15.4358   23.8849 N   0  0  0  0  0  0  0  0  0  0  0  0
    8.2533  -15.3309   22.4603 C   0  0  1  0  0  0  0  0  0  0  0  0
    8.0195  -13.9450   21.9464 C   0  0  0  0  0  0  0  0  0  0  0  0
    8.0854  -13.9435   20.4616 C   0  0  0  0  0  0  0  0  0  0  0  0
    8.5250  -12.8625   19.7003 C   0  0  0  0  0  0  0  0  0  0  0  0
    8.4651  -13.1731   18.3902 N   0  0  0  0  0  0  0  0  0  0  0  0
    7.9965  -14.4251   18.3380 C   0  0  0  0  0  0  0  0  0  0  0  0
    7.7636  -14.9000   19.5894 N   0  0  0  0  0  0  0  0  0  0  0  0
    9.5568  -15.8960   22.1477 C   0  0  0  0  0  0  0  0  0  0  0  0
   10.1628  -15.5207   21.1160 O   0  0  0  0  0  0  0  0  0  0  0  0
   10.2082  -16.8840   22.9720 N   0  0  0  0  0  0  0  0  0  0  0  0
   11.6305  -17.0952   22.9198 C   0  0  1  0  0  0  0  0  0  0  0  0
   12.4047  -15.8294   23.0127 C   0  0  0  0  0  0  0  0  0  0  0  0
   13.4076  -15.7519   21.9490 C   0  0  0  0  0  0  0  0  0  0  0  0
   14.3931  -14.9960   22.0722 O   0  0  0  0  0  0  0  0  0  0  0  0
   12.0461  -18.0781   23.9716 C   0  0  0  0  0  0  0  0  0  0  0  0
   11.2391  -18.4716   24.8491 O   0  0  0  0  0  0  0  0  0  0  0  0
   13.2782  -16.5169   20.7887 O   0  0  0  0  0  0  0  0  0  0  0  0
   13.3351  -18.5941   24.0217 O   0  0  0  0  0  0  0  0  0  0  0  0
  2  4  1  0
  2  1  1  1
  3  2  1  0
  5  4  1  0
  5  6  1  1
  7  8  2  0
  7  5  1  0
  9  7  1  0
 10  9  1  0
 10 11  1  1
 12 11  1  0
 13 12  2  0
 14 13  1  0
 14 15  1  0
 15 16  2  0
 16 12  1  0
 17 18  2  0
 17 10  1  0
 19 17  1  0
 20 21  1  1
 20 19  1  0
 21 22  1  0
 22 26  1  0
 22 23  2  0
 24 20  1  0
 25 24  2  0
 27 24  1  0
M  END
$$$$
