LHD.pdb
     RDKit          3D

 27 27  0  0  1  0  0  0  0  0999 V2000
    7.7287  -11.8094   20.8718 C   0  0  0  0  0  0  0  0  0  0  0  0
    7.6779  -13.0938   20.0774 C   0  0  1  0  0  0  0  0  0  0  0  0
    8.0673  -12.7809   18.6485 C   0  0  0  0  0  0  0  0  0  0  0  0
    8.6599  -14.1188   20.6029 C   0  0  0  0  0  0  0  0  0  0  0  0
    8.6366  -15.3916   19.8211 C   0  0  2  0  0  0  0  0  0  0  0  0
    7.3188  -15.7862   19.3847 N   0  0  0  0  0  0  0  0  0  0  0  0
    9.2974  -16.4456   20.6332 C   0  0  0  0  0  0  0  0  0  0  0  0
    9.2382  -16.3203   21.8830 O   0  0  0  0  0  0  0  0  0  0  0  0
    9.9706  -17.5508   20.0991 N   0  0  0  0  0  0  0  0  0  0  0  0
   10.5636  -18.6060   20.8935 C   0  0  1  0  0  0  0  0  0  0  0  0
   10.4787  -19.9397   20.2203 C   0  0  0  0  0  0  0  0  0  0  0  0
   11.0854  -20.9801   21.0914 C   0  0  0  0  0  0  0  0  0  0  0  0
   12.3636  -21.5037   20.9087 C   0  0  0  0  0  0  0  0  0  0  0  0
   12.6189  -22.4251   21.8586 N   0  0  0  0  0  0  0  0  0  0  0  0
   11.5189  -22.4733   22.6184 C   0  0  0  0  0  0  0  0  0  0  0  0
   10.5839  -21.6004   22.1605 N   0  0  0  0  0  0  0  0  0  0  0  0
   11.8996  -18.2032   21.3044 C   0  0  0  0  0  0  0  0  0  0  0  0
   12.5801  -17.4617   20.5563 O   0  0  0  0  0  0  0  0  0  0  0  0
   12.5018  -18.6149   22.5487 N   0  0  0  0  0  0  0  0  0  0  0  0
   13.7981  -18.1416   22.9556 C   0  0  1  0  0  0  0  0  0  0  0  0
   13.9137  -16.6604   22.9021 C   0  0  0  0  0  0  0  0  0  0  0  0
   15.3176  -16.2478   22.8571 C   0  0  0  0  0  0  0  0  0  0  0  0
   16.1782  -17.0095   22.3701 O   0  0  0  0  0  0  0  0  0  0  0  0
   14.1409  -18.6762   24.3128 C   0  0  0  0  0  0  0  0  0  0  0  0
   13.2444  -18.9784   25.1381 O   0  0  0  0  0  0  0  0  0  0  0  0
   15.7128  -15.0050   23.3545 O   0  0  0  0  0  0  0  0  0  0  0  0
   15.4580  -18.8597   24.7151 O   0  0  0  0  0  0  0  0  0  0  0  0
  2  4  1  0
  2  1  1  1
  3  2  1  0
  5  4  1  0
  5  6  1  1
  7  8  2  0
  7  5  1  0
  9  7  1  0
 10  9  1  0
 10 11  1  6
 12 11  1  0
 13 12  2  0
 14 13  1  0
 14 15  1  0
 15 16  2  0
 16 12  1  0
 17 18  2  0
 17 10  1  0
 19 17  1  0
 20 21  1  1
 20 19  1  0
 21 22  1  0
 22 26  1  0
 22 23  2  0
 24 20  1  0
 25 24  2  0
 27 24  1  0
M  END
$$$$
