LHD.pdb
     RDKit          3D

 27 27  0  0  1  0  0  0  0  0999 V2000
    5.1723  -11.2283   26.3856 C   0  0  0  0  0  0  0  0  0  0  0  0
    6.4447  -12.0404   26.3154 C   0  0  1  0  0  0  0  0  0  0  0  0
    7.2262  -11.8049   27.5900 C   0  0  0  0  0  0  0  0  0  0  0  0
    6.1600  -13.5243   26.2233 C   0  0  0  0  0  0  0  0  0  0  0  0
    7.4033  -14.3414   26.0879 C   0  0  2  0  0  0  0  0  0  0  0  0
    8.6200  -13.5946   26.2992 N   0  0  0  0  0  0  0  0  0  0  0  0
    7.3771  -15.0069   24.7600 C   0  0  0  0  0  0  0  0  0  0  0  0
    6.4622  -15.8470   24.5636 O   0  0  0  0  0  0  0  0  0  0  0  0
    8.2945  -14.7588   23.7320 N   0  0  0  0  0  0  0  0  0  0  0  0
    8.4469  -15.5910   22.5571 C   0  0  1  0  0  0  0  0  0  0  0  0
    8.1634  -14.8444   21.2916 C   0  0  0  0  0  0  0  0  0  0  0  0
    8.1072  -15.7953   20.1508 C   0  0  0  0  0  0  0  0  0  0  0  0
    6.9534  -16.4647   19.7479 C   0  0  0  0  0  0  0  0  0  0  0  0
    7.2292  -17.2519   18.6892 N   0  0  0  0  0  0  0  0  0  0  0  0
    8.5313  -17.0749   18.4384 C   0  0  0  0  0  0  0  0  0  0  0  0
    9.0716  -16.1933   19.3197 N   0  0  0  0  0  0  0  0  0  0  0  0
    9.7385  -16.2582   22.6068 C   0  0  0  0  0  0  0  0  0  0  0  0
   10.7813  -15.5778   22.7561 O   0  0  0  0  0  0  0  0  0  0  0  0
    9.8950  -17.6874   22.4922 N   0  0  0  0  0  0  0  0  0  0  0  0
   11.1861  -18.3169   22.5749 C   0  0  1  0  0  0  0  0  0  0  0  0
   11.9381  -17.9309   23.7979 C   0  0  0  0  0  0  0  0  0  0  0  0
   13.3785  -17.9034   23.5378 C   0  0  0  0  0  0  0  0  0  0  0  0
   13.8051  -17.5655   22.4146 O   0  0  0  0  0  0  0  0  0  0  0  0
   11.0447  -19.8039   22.4568 C   0  0  0  0  0  0  0  0  0  0  0  0
   12.0523  -20.5513   22.4103 O   0  0  0  0  0  0  0  0  0  0  0  0
   14.2907  -18.2521   24.5351 O   0  0  0  0  0  0  0  0  0  0  0  0
    9.7996  -20.4173   22.3938 O   0  0  0  0  0  0  0  0  0  0  0  0
  2  4  1  0
  2  1  1  1
  3  2  1  0
  5  4  1  0
  5  6  1  6
  7  8  2  0
  7  5  1  0
  9  7  1  0
 10  9  1  0
 10 11  1  6
 12 11  1  0
 13 12  2  0
 14 13  1  0
 14 15  1  0
 15 16  2  0
 16 12  1  0
 17 18  2  0
 17 10  1  0
 19 17  1  0
 20 21  1  1
 20 19  1  0
 21 22  1  0
 22 26  1  0
 22 23  2  0
 24 20  1  0
 25 24  2  0
 27 24  1  0
M  END
$$$$
