LHD.pdb
     RDKit          3D

 27 27  0  0  1  0  0  0  0  0999 V2000
    7.5344  -12.4222   21.4448 C   0  0  0  0  0  0  0  0  0  0  0  0
    7.4538  -13.6342   20.5458 C   0  0  1  0  0  0  0  0  0  0  0  0
    7.5712  -13.1665   19.1110 C   0  0  0  0  0  0  0  0  0  0  0  0
    8.5890  -14.6017   20.8037 C   0  0  0  0  0  0  0  0  0  0  0  0
    8.5258  -15.8097   19.9270 C   0  0  2  0  0  0  0  0  0  0  0  0
    7.2488  -16.4818   19.9482 N   0  0  0  0  0  0  0  0  0  0  0  0
    9.6420  -16.7143   20.3048 C   0  0  0  0  0  0  0  0  0  0  0  0
    9.3545  -17.6972   21.0345 O   0  0  0  0  0  0  0  0  0  0  0  0
   10.9720  -16.5407   19.9036 N   0  0  0  0  0  0  0  0  0  0  0  0
   12.0285  -17.5004   20.1463 C   0  0  1  0  0  0  0  0  0  0  0  0
   12.7701  -17.8568   18.8964 C   0  0  0  0  0  0  0  0  0  0  0  0
   11.8467  -18.5172   17.9371 C   0  0  0  0  0  0  0  0  0  0  0  0
   11.6778  -18.1162   16.6134 C   0  0  0  0  0  0  0  0  0  0  0  0
   10.7744  -18.9120   16.0076 N   0  0  0  0  0  0  0  0  0  0  0  0
   10.3885  -19.7921   16.9383 C   0  0  0  0  0  0  0  0  0  0  0  0
   11.0337  -19.5601   18.1113 N   0  0  0  0  0  0  0  0  0  0  0  0
   12.8572  -17.0326   21.2465 C   0  0  0  0  0  0  0  0  0  0  0  0
   14.0238  -17.4748   21.3742 O   0  0  0  0  0  0  0  0  0  0  0  0
   12.4073  -16.0691   22.2209 N   0  0  0  0  0  0  0  0  0  0  0  0
   12.7245  -16.2005   23.6181 C   0  0  1  0  0  0  0  0  0  0  0  0
   11.8317  -17.1568   24.3242 C   0  0  0  0  0  0  0  0  0  0  0  0
   12.2398  -17.3176   25.7209 C   0  0  0  0  0  0  0  0  0  0  0  0
   13.2150  -16.6780   26.1654 O   0  0  0  0  0  0  0  0  0  0  0  0
   14.1689  -16.5607   23.7885 C   0  0  0  0  0  0  0  0  0  0  0  0
   14.6149  -17.6653   23.3919 O   0  0  0  0  0  0  0  0  0  0  0  0
   11.5494  -18.1828   26.5713 O   0  0  0  0  0  0  0  0  0  0  0  0
   15.0729  -15.6934   24.3894 O   0  0  0  0  0  0  0  0  0  0  0  0
  2  4  1  0
  2  1  1  1
  3  2  1  0
  5  4  1  0
  5  6  1  1
  7  8  2  0
  7  5  1  0
  9  7  1  0
 10  9  1  0
 10 11  1  6
 12 11  1  0
 13 12  2  0
 14 13  1  0
 14 15  1  0
 15 16  2  0
 16 12  1  0
 17 18  2  0
 17 10  1  0
 19 17  1  0
 20 21  1  6
 20 19  1  0
 21 22  1  0
 22 26  1  0
 22 23  2  0
 24 20  1  0
 25 24  2  0
 27 24  1  0
M  END
$$$$
