LHD.pdb
     RDKit          3D

 27 27  0  0  1  0  0  0  0  0999 V2000
    5.2616  -11.3267   25.7458 C   0  0  0  0  0  0  0  0  0  0  0  0
    6.6066  -12.0129   25.8062 C   0  0  1  0  0  0  0  0  0  0  0  0
    7.0995  -11.9607   27.2363 C   0  0  0  0  0  0  0  0  0  0  0  0
    6.5120  -13.4708   25.4100 C   0  0  0  0  0  0  0  0  0  0  0  0
    7.8215  -14.1819   25.5159 C   0  0  2  0  0  0  0  0  0  0  0  0
    8.9686  -13.3090   25.4457 N   0  0  0  0  0  0  0  0  0  0  0  0
    7.8582  -15.2411   24.4748 C   0  0  0  0  0  0  0  0  0  0  0  0
    6.8576  -15.9990   24.4001 O   0  0  0  0  0  0  0  0  0  0  0  0
    8.9220  -15.4421   23.5873 N   0  0  0  0  0  0  0  0  0  0  0  0
    8.9988  -16.5353   22.6411 C   0  0  1  0  0  0  0  0  0  0  0  0
    9.4097  -16.0778   21.2769 C   0  0  0  0  0  0  0  0  0  0  0  0
    8.4973  -14.9996   20.8142 C   0  0  0  0  0  0  0  0  0  0  0  0
    7.1072  -15.0720   20.8773 C   0  0  0  0  0  0  0  0  0  0  0  0
    6.5687  -13.9404   20.3814 N   0  0  0  0  0  0  0  0  0  0  0  0
    7.6057  -13.1780   20.0165 C   0  0  0  0  0  0  0  0  0  0  0  0
    8.7789  -13.8124   20.2753 N   0  0  0  0  0  0  0  0  0  0  0  0
    9.8091  -17.6027   23.2069 C   0  0  0  0  0  0  0  0  0  0  0  0
    9.9495  -18.6756   22.5731 O   0  0  0  0  0  0  0  0  0  0  0  0
   10.4756  -17.4983   24.4817 N   0  0  0  0  0  0  0  0  0  0  0  0
   11.3293  -18.5447   24.9778 C   0  0  1  0  0  0  0  0  0  0  0  0
   12.7737  -18.2097   24.8700 C   0  0  0  0  0  0  0  0  0  0  0  0
   13.3297  -18.6976   23.6066 C   0  0  0  0  0  0  0  0  0  0  0  0
   12.5874  -19.2476   22.7674 O   0  0  0  0  0  0  0  0  0  0  0  0
   10.9461  -18.9026   26.3814 C   0  0  0  0  0  0  0  0  0  0  0  0
   11.3880  -19.9410   26.9315 O   0  0  0  0  0  0  0  0  0  0  0  0
   14.6890  -18.5563   23.3230 O   0  0  0  0  0  0  0  0  0  0  0  0
   10.0900  -18.1058   27.1315 O   0  0  0  0  0  0  0  0  0  0  0  0
  2  4  1  0
  2  1  1  1
  3  2  1  0
  5  4  1  0
  5  6  1  6
  7  8  2  0
  7  5  1  0
  9  7  1  0
 10  9  1  0
 10 11  1  6
 12 11  1  0
 13 12  2  0
 14 13  1  0
 14 15  1  0
 15 16  2  0
 16 12  1  0
 17 18  2  0
 17 10  1  0
 19 17  1  0
 20 21  1  1
 20 19  1  0
 21 22  1  0
 22 26  1  0
 22 23  2  0
 24 20  1  0
 25 24  2  0
 27 24  1  0
M  END
$$$$
