TCF.pdb
     RDKit          3D

 25 25  0  0  1  0  0  0  0  0999 V2000
   16.1754  -13.1848    5.3848 C   0  0  0  0  0  0  0  0  0  0  0  0
   14.7343  -13.6503    5.3119 C   0  0  1  0  0  0  0  0  0  0  0  0
   14.0744  -12.8001    4.4260 O   0  0  0  0  0  0  0  0  0  0  0  0
   14.7496  -15.0600    4.7776 C   0  0  2  0  0  0  0  0  0  0  0  0
   13.3855  -15.5055    4.6322 N   0  0  0  0  0  0  0  0  0  0  0  0
   15.4517  -16.0053    5.6866 C   0  0  0  0  0  0  0  0  0  0  0  0
   14.8381  -16.9401    6.2758 O   0  0  0  0  0  0  0  0  0  0  0  0
   16.8482  -15.9106    5.9430 N   0  0  0  0  0  0  0  0  0  0  0  0
   17.5978  -16.8305    6.7362 C   0  0  1  0  0  0  0  0  0  0  0  0
   17.3567  -18.2797    6.3557 C   0  0  0  0  0  0  0  0  0  0  0  0
   18.6935  -19.3597    6.8621 S   0  0  0  0  0  0  0  0  0  0  0  0
   19.0402  -16.5060    6.8092 C   0  0  0  0  0  0  0  0  0  0  0  0
   19.6919  -16.4704    5.7347 O   0  0  0  0  0  0  0  0  0  0  0  0
   19.7266  -16.2352    8.0054 N   0  0  0  0  0  0  0  0  0  0  0  0
   21.1370  -15.9004    8.0899 C   0  0  1  0  0  0  0  0  0  0  0  0
   21.3720  -14.5508    8.6676 C   0  0  0  0  0  0  0  0  0  0  0  0
   20.8980  -13.5005    7.7439 C   0  0  0  0  0  0  0  0  0  0  0  0
   21.7505  -12.9057    6.8027 C   0  0  0  0  0  0  0  0  0  0  0  0
   21.2897  -11.9393    5.9405 C   0  0  0  0  0  0  0  0  0  0  0  0
   19.9841  -11.5329    5.9795 C   0  0  0  0  0  0  0  0  0  0  0  0
   19.1295  -12.0907    6.8819 C   0  0  0  0  0  0  0  0  0  0  0  0
   19.5927  -13.0549    7.7409 C   0  0  0  0  0  0  0  0  0  0  0  0
   21.8237  -17.0070    8.7857 C   0  0  0  0  0  0  0  0  0  0  0  0
   21.1640  -17.7646    9.5777 O   0  0  0  0  0  0  0  0  0  0  0  0
   23.1599  -17.3285    8.6682 O   0  0  0  0  0  0  0  0  0  0  0  0
  2  1  1  6
  2  3  1  0
  4  2  1  0
  4  5  1  1
  6  4  1  0
  6  7  2  0
  8  6  1  0
  9  8  1  0
  9 12  1  0
  9 10  1  6
 11 10  1  0
 12 13  2  0
 12 14  1  0
 14 15  1  0
 15 16  1  1
 16 17  1  0
 17 22  2  0
 18 17  1  0
 18 19  2  0
 19 20  1  0
 20 21  2  0
 22 21  1  0
 23 25  1  0
 23 15  1  0
 24 23  2  0
M  END
$$$$
