TCF.pdb
     RDKit          3D

 25 25  0  0  1  0  0  0  0  0999 V2000
   24.5612  -14.1039  -16.8028 C   0  0  0  0  0  0  0  0  0  0  0  0
   25.6491  -14.4977  -17.7827 C   0  0  1  0  0  0  0  0  0  0  0  0
   25.9040  -15.8541  -17.5871 O   0  0  0  0  0  0  0  0  0  0  0  0
   25.1066  -14.2574  -19.1686 C   0  0  2  0  0  0  0  0  0  0  0  0
   26.0913  -14.7000  -20.1250 N   0  0  0  0  0  0  0  0  0  0  0  0
   24.8222  -12.8203  -19.4270 C   0  0  0  0  0  0  0  0  0  0  0  0
   25.7506  -11.9786  -19.5923 O   0  0  0  0  0  0  0  0  0  0  0  0
   23.4945  -12.3142  -19.5022 N   0  0  0  0  0  0  0  0  0  0  0  0
   23.1520  -10.9519  -19.7550 C   0  0  1  0  0  0  0  0  0  0  0  0
   22.2092  -10.7829  -20.9320 C   0  0  0  0  0  0  0  0  0  0  0  0
   22.8084  -11.5827  -22.4190 S   0  0  0  0  0  0  0  0  0  0  0  0
   22.6772  -10.2310  -18.5524 C   0  0  0  0  0  0  0  0  0  0  0  0
   21.8611  -10.8175  -17.7971 O   0  0  0  0  0  0  0  0  0  0  0  0
   23.0820   -8.9314  -18.2026 N   0  0  0  0  0  0  0  0  0  0  0  0
   22.5732   -8.1868  -17.0645 C   0  0  1  0  0  0  0  0  0  0  0  0
   23.5986   -7.9845  -16.0072 C   0  0  0  0  0  0  0  0  0  0  0  0
   23.0774   -7.1083  -14.9388 C   0  0  0  0  0  0  0  0  0  0  0  0
   22.4306   -7.6277  -13.8081 C   0  0  0  0  0  0  0  0  0  0  0  0
   21.9639   -6.7988  -12.8157 C   0  0  0  0  0  0  0  0  0  0  0  0
   22.1194   -5.4428  -12.9070 C   0  0  0  0  0  0  0  0  0  0  0  0
   22.7435   -4.9058  -13.9923 C   0  0  0  0  0  0  0  0  0  0  0  0
   23.2081   -5.7359  -14.9808 C   0  0  0  0  0  0  0  0  0  0  0  0
   21.9490   -6.9500  -17.5755 C   0  0  0  0  0  0  0  0  0  0  0  0
   22.4515   -6.3599  -18.5933 O   0  0  0  0  0  0  0  0  0  0  0  0
   20.8313   -6.3343  -17.0520 O   0  0  0  0  0  0  0  0  0  0  0  0
  2  1  1  1
  2  3  1  0
  4  2  1  0
  4  5  1  6
  6  4  1  0
  6  7  2  0
  8  6  1  0
  9  8  1  0
  9 12  1  0
  9 10  1  6
 11 10  1  0
 12 13  2  0
 12 14  1  0
 14 15  1  0
 15 16  1  1
 16 17  1  0
 17 22  2  0
 18 17  1  0
 18 19  2  0
 19 20  1  0
 20 21  2  0
 22 21  1  0
 23 25  1  0
 23 15  1  0
 24 23  2  0
M  END
$$$$
