TCF.pdb
     RDKit          3D

 25 25  0  0  1  0  0  0  0  0999 V2000
   23.4992  -11.8926  -17.2342 C   0  0  0  0  0  0  0  0  0  0  0  0
   22.5448  -12.7325  -18.0604 C   0  0  1  0  0  0  0  0  0  0  0  0
   22.8815  -14.0675  -17.8422 O   0  0  0  0  0  0  0  0  0  0  0  0
   21.1530  -12.4500  -17.5545 C   0  0  2  0  0  0  0  0  0  0  0  0
   20.2387  -13.3500  -18.2135 N   0  0  0  0  0  0  0  0  0  0  0  0
   20.7168  -11.0563  -17.8377 C   0  0  0  0  0  0  0  0  0  0  0  0
   20.6483  -10.6084  -19.0177 O   0  0  0  0  0  0  0  0  0  0  0  0
   20.3535  -10.1526  -16.8004 N   0  0  0  0  0  0  0  0  0  0  0  0
   19.9649   -8.7936  -16.9992 C   0  0  1  0  0  0  0  0  0  0  0  0
   18.5165   -8.6444  -17.4265 C   0  0  0  0  0  0  0  0  0  0  0  0
   17.9889   -6.9337  -17.4983 S   0  0  0  0  0  0  0  0  0  0  0  0
   20.3035   -7.9115  -15.8596 C   0  0  0  0  0  0  0  0  0  0  0  0
   19.8831   -8.2334  -14.7194 O   0  0  0  0  0  0  0  0  0  0  0  0
   21.0660   -6.7363  -15.9733 N   0  0  0  0  0  0  0  0  0  0  0  0
   21.4583   -5.8958  -14.8561 C   0  0  1  0  0  0  0  0  0  0  0  0
   22.9296   -5.8748  -14.6436 C   0  0  0  0  0  0  0  0  0  0  0  0
   23.4684   -7.2492  -14.6038 C   0  0  0  0  0  0  0  0  0  0  0  0
   23.0550   -8.1763  -13.6363 C   0  0  0  0  0  0  0  0  0  0  0  0
   23.5561   -9.4563  -13.6219 C   0  0  0  0  0  0  0  0  0  0  0  0
   24.4731   -9.8585  -14.5539 C   0  0  0  0  0  0  0  0  0  0  0  0
   24.8958   -8.9824  -15.5077 C   0  0  0  0  0  0  0  0  0  0  0  0
   24.3936   -7.7058  -15.5192 C   0  0  0  0  0  0  0  0  0  0  0  0
   20.8345   -4.5710  -15.0458 C   0  0  0  0  0  0  0  0  0  0  0  0
   20.9260   -3.6891  -14.1237 O   0  0  0  0  0  0  0  0  0  0  0  0
   20.1330   -4.1615  -16.1606 O   0  0  0  0  0  0  0  0  0  0  0  0
  2  1  1  1
  2  3  1  0
  4  2  1  0
  4  5  1  6
  6  4  1  0
  6  7  2  0
  8  6  1  0
  9  8  1  0
  9 12  1  0
  9 10  1  1
 11 10  1  0
 12 13  2  0
 12 14  1  0
 14 15  1  0
 15 16  1  6
 16 17  1  0
 17 22  2  0
 18 17  1  0
 18 19  2  0
 19 20  1  0
 20 21  2  0
 22 21  1  0
 23 25  1  0
 23 15  1  0
 24 23  2  0
M  END
$$$$
