TCF.pdb
     RDKit          3D

 25 25  0  0  1  0  0  0  0  0999 V2000
   16.0024  -10.0188  -15.6810 C   0  0  0  0  0  0  0  0  0  0  0  0
   17.0576  -11.0369  -16.0666 C   0  0  1  0  0  0  0  0  0  0  0  0
   16.7738  -11.4467  -17.3684 O   0  0  0  0  0  0  0  0  0  0  0  0
   18.3913  -10.3361  -16.0131 C   0  0  2  0  0  0  0  0  0  0  0  0
   19.4097  -11.2644  -16.4389 N   0  0  0  0  0  0  0  0  0  0  0  0
   18.7336   -9.8685  -14.6430 C   0  0  0  0  0  0  0  0  0  0  0  0
   18.9169  -10.6792  -13.6907 O   0  0  0  0  0  0  0  0  0  0  0  0
   18.8734   -8.4878  -14.3286 N   0  0  0  0  0  0  0  0  0  0  0  0
   19.0753   -7.9647  -13.0161 C   0  0  1  0  0  0  0  0  0  0  0  0
   20.1364   -6.8812  -12.9631 C   0  0  0  0  0  0  0  0  0  0  0  0
   21.7500   -7.4673  -13.4756 S   0  0  0  0  0  0  0  0  0  0  0  0
   17.8211   -7.5497  -12.3481 C   0  0  0  0  0  0  0  0  0  0  0  0
   17.0290   -6.8116  -12.9869 O   0  0  0  0  0  0  0  0  0  0  0  0
   17.4609   -7.9298  -11.0438 N   0  0  0  0  0  0  0  0  0  0  0  0
   16.2764   -7.4630  -10.3456 C   0  0  1  0  0  0  0  0  0  0  0  0
   15.7685   -8.4493   -9.3559 C   0  0  0  0  0  0  0  0  0  0  0  0
   14.5425   -7.9468   -8.7038 C   0  0  0  0  0  0  0  0  0  0  0  0
   13.2741   -8.1364   -9.2709 C   0  0  0  0  0  0  0  0  0  0  0  0
   12.1414   -7.6747   -8.6436 C   0  0  0  0  0  0  0  0  0  0  0  0
   12.2239   -7.0168   -7.4471 C   0  0  0  0  0  0  0  0  0  0  0  0
   13.4410   -6.8161   -6.8690 C   0  0  0  0  0  0  0  0  0  0  0  0
   14.5693   -7.2783   -7.4976 C   0  0  0  0  0  0  0  0  0  0  0  0
   16.5719   -6.1235   -9.7990 C   0  0  0  0  0  0  0  0  0  0  0  0
   17.7098   -5.8951   -9.2609 O   0  0  0  0  0  0  0  0  0  0  0  0
   15.7160   -5.0419   -9.8069 O   0  0  0  0  0  0  0  0  0  0  0  0
  2  1  1  6
  2  3  1  0
  4  2  1  0
  4  5  1  1
  6  4  1  0
  6  7  2  0
  8  6  1  0
  9  8  1  0
  9 12  1  0
  9 10  1  6
 11 10  1  0
 12 13  2  0
 12 14  1  0
 14 15  1  0
 15 16  1  1
 16 17  1  0
 17 22  2  0
 18 17  1  0
 18 19  2  0
 19 20  1  0
 20 21  2  0
 22 21  1  0
 23 25  1  0
 23 15  1  0
 24 23  2  0
M  END
$$$$
