TCF.pdb
     RDKit          3D

 25 25  0  0  1  0  0  0  0  0999 V2000
   18.6878  -13.1634  -15.7291 C   0  0  0  0  0  0  0  0  0  0  0  0
   18.8847  -14.1205  -16.8884 C   0  0  1  0  0  0  0  0  0  0  0  0
   17.9935  -15.1762  -16.7026 O   0  0  0  0  0  0  0  0  0  0  0  0
   18.5516  -13.3648  -18.1496 C   0  0  2  0  0  0  0  0  0  0  0  0
   18.6353  -14.2786  -19.2623 N   0  0  0  0  0  0  0  0  0  0  0  0
   19.4901  -12.2387  -18.4027 C   0  0  0  0  0  0  0  0  0  0  0  0
   20.6043  -12.4176  -18.9721 O   0  0  0  0  0  0  0  0  0  0  0  0
   19.1876  -10.9021  -18.0194 N   0  0  0  0  0  0  0  0  0  0  0  0
   20.0390   -9.7772  -18.2359 C   0  0  1  0  0  0  0  0  0  0  0  0
   19.5881   -8.9021  -19.3907 C   0  0  0  0  0  0  0  0  0  0  0  0
   20.4117   -7.3112  -19.4161 S   0  0  0  0  0  0  0  0  0  0  0  0
   20.2992   -8.9907  -17.0091 C   0  0  0  0  0  0  0  0  0  0  0  0
   19.3102   -8.5536  -16.3679 O   0  0  0  0  0  0  0  0  0  0  0  0
   21.5836   -8.7023  -16.5165 N   0  0  0  0  0  0  0  0  0  0  0  0
   21.8526   -7.9568  -15.2998 C   0  0  1  0  0  0  0  0  0  0  0  0
   22.5263   -8.7794  -14.2608 C   0  0  0  0  0  0  0  0  0  0  0  0
   23.6840   -9.4947  -14.8343 C   0  0  0  0  0  0  0  0  0  0  0  0
   23.6305  -10.8631  -15.1363 C   0  0  0  0  0  0  0  0  0  0  0  0
   24.7127  -11.5107  -15.6831 C   0  0  0  0  0  0  0  0  0  0  0  0
   25.8720  -10.8343  -15.9470 C   0  0  0  0  0  0  0  0  0  0  0  0
   25.9571   -9.5041  -15.6657 C   0  0  0  0  0  0  0  0  0  0  0  0
   24.8752   -8.8608  -15.1201 C   0  0  0  0  0  0  0  0  0  0  0  0
   22.5637   -6.7186  -15.6759 C   0  0  0  0  0  0  0  0  0  0  0  0
   22.8185   -5.8378  -14.7838 O   0  0  0  0  0  0  0  0  0  0  0  0
   23.0046   -6.3940  -16.9419 O   0  0  0  0  0  0  0  0  0  0  0  0
  2  1  1  1
  2  3  1  0
  4  2  1  0
  4  5  1  6
  6  4  1  0
  6  7  2  0
  8  6  1  0
  9  8  1  0
  9 12  1  0
  9 10  1  6
 11 10  1  0
 12 13  2  0
 12 14  1  0
 14 15  1  0
 15 16  1  1
 16 17  1  0
 17 22  2  0
 18 17  1  0
 18 19  2  0
 19 20  1  0
 20 21  2  0
 22 21  1  0
 23 25  1  0
 23 15  1  0
 24 23  2  0
M  END
$$$$
