TCF.pdb
     RDKit          3D

 25 25  0  0  1  0  0  0  0  0999 V2000
   28.3948  -20.1533  -16.8258 C   0  0  0  0  0  0  0  0  0  0  0  0
   27.6792  -19.3569  -17.8994 C   0  0  1  0  0  0  0  0  0  0  0  0
   28.5477  -19.2628  -18.9857 O   0  0  0  0  0  0  0  0  0  0  0  0
   26.4431  -20.1325  -18.2779 C   0  0  2  0  0  0  0  0  0  0  0  0
   25.7686  -19.4235  -19.3373 N   0  0  0  0  0  0  0  0  0  0  0  0
   25.4944  -20.2807  -17.1417 C   0  0  0  0  0  0  0  0  0  0  0  0
   24.7444  -19.3319  -16.7743 O   0  0  0  0  0  0  0  0  0  0  0  0
   25.3783  -21.4940  -16.4074 N   0  0  0  0  0  0  0  0  0  0  0  0
   24.5541  -21.6773  -15.2567 C   0  0  1  0  0  0  0  0  0  0  0  0
   23.4314  -22.6735  -15.4804 C   0  0  0  0  0  0  0  0  0  0  0  0
   24.0268  -24.3487  -15.7024 S   0  0  0  0  0  0  0  0  0  0  0  0
   25.3201  -21.9683  -14.0239 C   0  0  0  0  0  0  0  0  0  0  0  0
   26.0610  -22.9839  -14.0158 O   0  0  0  0  0  0  0  0  0  0  0  0
   25.2704  -21.1796  -12.8616 N   0  0  0  0  0  0  0  0  0  0  0  0
   25.9146  -21.5195  -11.6054 C   0  0  1  0  0  0  0  0  0  0  0  0
   27.2157  -20.8239  -11.4220 C   0  0  0  0  0  0  0  0  0  0  0  0
   27.1239  -19.4218  -11.8764 C   0  0  0  0  0  0  0  0  0  0  0  0
   27.5083  -19.0382  -13.1693 C   0  0  0  0  0  0  0  0  0  0  0  0
   27.4031  -17.7310  -13.5811 C   0  0  0  0  0  0  0  0  0  0  0  0
   26.9193  -16.7691  -12.7373 C   0  0  0  0  0  0  0  0  0  0  0  0
   26.5369  -17.1083  -11.4746 C   0  0  0  0  0  0  0  0  0  0  0  0
   26.6432  -18.4138  -11.0668 C   0  0  0  0  0  0  0  0  0  0  0  0
   24.9338  -21.3078  -10.5222 C   0  0  0  0  0  0  0  0  0  0  0  0
   23.7761  -20.8383  -10.7979 O   0  0  0  0  0  0  0  0  0  0  0  0
   25.1386  -21.5745   -9.1845 O   0  0  0  0  0  0  0  0  0  0  0  0
  2  1  1  1
  2  3  1  0
  4  2  1  0
  4  5  1  6
  6  4  1  0
  6  7  2  0
  8  6  1  0
  9  8  1  0
  9 12  1  0
  9 10  1  6
 11 10  1  0
 12 13  2  0
 12 14  1  0
 14 15  1  0
 15 16  1  1
 16 17  1  0
 17 22  2  0
 18 17  1  0
 18 19  2  0
 19 20  1  0
 20 21  2  0
 22 21  1  0
 23 25  1  0
 23 15  1  0
 24 23  2  0
M  END
$$$$
