TCF.pdb
     RDKit          3D

 25 25  0  0  1  0  0  0  0  0999 V2000
   33.6132   -8.6758  -19.9412 C   0  0  0  0  0  0  0  0  0  0  0  0
   34.7832   -8.9574  -20.8634 C   0  0  1  0  0  0  0  0  0  0  0  0
   34.5430  -10.1928  -21.4629 O   0  0  0  0  0  0  0  0  0  0  0  0
   34.8047   -7.8633  -21.9003 C   0  0  2  0  0  0  0  0  0  0  0  0
   35.9091   -8.1072  -22.7953 N   0  0  0  0  0  0  0  0  0  0  0  0
   34.9837   -6.5141  -21.2998 C   0  0  0  0  0  0  0  0  0  0  0  0
   36.0141   -5.8176  -21.5256 O   0  0  0  0  0  0  0  0  0  0  0  0
   34.0089   -5.9338  -20.4409 N   0  0  0  0  0  0  0  0  0  0  0  0
   34.0320   -4.5863  -19.9708 C   0  0  1  0  0  0  0  0  0  0  0  0
   34.1846   -3.5686  -21.0861 C   0  0  0  0  0  0  0  0  0  0  0  0
   34.2321   -1.8824  -20.4824 S   0  0  0  0  0  0  0  0  0  0  0  0
   32.9062   -4.2584  -19.0672 C   0  0  0  0  0  0  0  0  0  0  0  0
   31.7370   -4.3900  -19.5099 O   0  0  0  0  0  0  0  0  0  0  0  0
   33.0634   -3.8090  -17.7448 N   0  0  0  0  0  0  0  0  0  0  0  0
   31.9825   -3.6754  -16.7846 C   0  0  1  0  0  0  0  0  0  0  0  0
   32.2342   -4.4314  -15.5294 C   0  0  0  0  0  0  0  0  0  0  0  0
   32.6847   -5.8049  -15.8316 C   0  0  0  0  0  0  0  0  0  0  0  0
   33.9271   -6.2871  -15.3951 C   0  0  0  0  0  0  0  0  0  0  0  0
   34.3252   -7.5731  -15.6729 C   0  0  0  0  0  0  0  0  0  0  0  0
   33.5168   -8.4169  -16.3842 C   0  0  0  0  0  0  0  0  0  0  0  0
   32.3034   -7.9799  -16.8229 C   0  0  0  0  0  0  0  0  0  0  0  0
   31.9091   -6.6958  -16.5438 C   0  0  0  0  0  0  0  0  0  0  0  0
   31.7131   -2.2349  -16.6041 C   0  0  0  0  0  0  0  0  0  0  0  0
   30.6981   -1.8602  -15.9216 O   0  0  0  0  0  0  0  0  0  0  0  0
   32.4723   -1.2020  -17.1133 O   0  0  0  0  0  0  0  0  0  0  0  0
  2  1  1  1
  2  3  1  0
  4  2  1  0
  4  5  1  6
  6  4  1  0
  6  7  2  0
  8  6  1  0
  9  8  1  0
  9 12  1  0
  9 10  1  6
 11 10  1  0
 12 13  2  0
 12 14  1  0
 14 15  1  0
 15 16  1  1
 16 17  1  0
 17 22  2  0
 18 17  1  0
 18 19  2  0
 19 20  1  0
 20 21  2  0
 22 21  1  0
 23 25  1  0
 23 15  1  0
 24 23  2  0
M  END
$$$$
