TCF.pdb
     RDKit          3D

 25 25  0  0  1  0  0  0  0  0999 V2000
   22.6666  -10.4597  -18.2259 C   0  0  0  0  0  0  0  0  0  0  0  0
   21.4533  -10.6631  -19.1120 C   0  0  1  0  0  0  0  0  0  0  0  0
   21.7383  -11.7359  -19.9553 O   0  0  0  0  0  0  0  0  0  0  0  0
   20.2940  -10.9966  -18.2077 C   0  0  2  0  0  0  0  0  0  0  0  0
   19.1546  -11.3204  -19.0306 N   0  0  0  0  0  0  0  0  0  0  0  0
   19.9188   -9.8619  -17.3219 C   0  0  0  0  0  0  0  0  0  0  0  0
   19.2759   -8.8641  -17.7565 O   0  0  0  0  0  0  0  0  0  0  0  0
   20.2611   -9.8360  -15.9410 N   0  0  0  0  0  0  0  0  0  0  0  0
   19.9825   -8.7564  -15.0500 C   0  0  1  0  0  0  0  0  0  0  0  0
   19.3775   -9.2105  -13.7345 C   0  0  0  0  0  0  0  0  0  0  0  0
   19.3159   -7.9015  -12.5127 S   0  0  0  0  0  0  0  0  0  0  0  0
   21.1326   -7.8461  -14.8498 C   0  0  0  0  0  0  0  0  0  0  0  0
   22.2267   -8.3489  -14.4886 O   0  0  0  0  0  0  0  0  0  0  0  0
   21.0773   -6.4545  -15.0385 N   0  0  0  0  0  0  0  0  0  0  0  0
   22.2386   -5.5914  -15.1606 C   0  0  1  0  0  0  0  0  0  0  0  0
   23.1027   -5.9533  -16.3150 C   0  0  0  0  0  0  0  0  0  0  0  0
   24.1662   -4.9461  -16.5038 C   0  0  0  0  0  0  0  0  0  0  0  0
   25.1428   -4.7116  -15.5253 C   0  0  0  0  0  0  0  0  0  0  0  0
   26.1344   -3.7803  -15.7229 C   0  0  0  0  0  0  0  0  0  0  0  0
   26.1930   -3.0571  -16.8826 C   0  0  0  0  0  0  0  0  0  0  0  0
   25.2595   -3.2606  -17.8537 C   0  0  0  0  0  0  0  0  0  0  0  0
   24.2714   -4.1909  -17.6532 C   0  0  0  0  0  0  0  0  0  0  0  0
   21.7661   -4.1926  -15.1470 C   0  0  0  0  0  0  0  0  0  0  0  0
   20.6786   -3.8848  -15.7463 O   0  0  0  0  0  0  0  0  0  0  0  0
   22.3976   -3.1333  -14.5291 O   0  0  0  0  0  0  0  0  0  0  0  0
  2  1  1  1
  2  3  1  0
  4  2  1  0
  4  5  1  6
  6  4  1  0
  6  7  2  0
  8  6  1  0
  9  8  1  0
  9 12  1  0
  9 10  1  1
 11 10  1  0
 12 13  2  0
 12 14  1  0
 14 15  1  0
 15 16  1  6
 16 17  1  0
 17 22  2  0
 18 17  1  0
 18 19  2  0
 19 20  1  0
 20 21  2  0
 22 21  1  0
 23 25  1  0
 23 15  1  0
 24 23  2  0
M  END
$$$$
