TCF.pdb
     RDKit          3D

 25 25  0  0  1  0  0  0  0  0999 V2000
   18.6840   -9.9839  -17.2791 C   0  0  0  0  0  0  0  0  0  0  0  0
   18.1427  -11.1347  -16.4538 C   0  0  1  0  0  0  0  0  0  0  0  0
   18.6958  -12.3048  -16.9717 O   0  0  0  0  0  0  0  0  0  0  0  0
   18.6017  -10.9176  -15.0343 C   0  0  2  0  0  0  0  0  0  0  0  0
   18.4273  -12.1507  -14.3068 N   0  0  0  0  0  0  0  0  0  0  0  0
   17.8237   -9.8561  -14.3409 C   0  0  0  0  0  0  0  0  0  0  0  0
   17.7585   -8.6775  -14.7929 O   0  0  0  0  0  0  0  0  0  0  0  0
   17.1118  -10.1067  -13.1346 N   0  0  0  0  0  0  0  0  0  0  0  0
   16.3661   -9.1307  -12.4076 C   0  0  1  0  0  0  0  0  0  0  0  0
   15.0178   -9.6416  -11.9346 C   0  0  0  0  0  0  0  0  0  0  0  0
   15.1495  -11.1319  -10.9490 S   0  0  0  0  0  0  0  0  0  0  0  0
   17.1362   -8.4953  -11.3146 C   0  0  0  0  0  0  0  0  0  0  0  0
   17.6145   -9.2386  -10.4208 O   0  0  0  0  0  0  0  0  0  0  0  0
   17.3657   -7.1123  -11.2141 N   0  0  0  0  0  0  0  0  0  0  0  0
   18.1117   -6.4752  -10.1435 C   0  0  1  0  0  0  0  0  0  0  0  0
   19.5188   -6.9488  -10.0649 C   0  0  0  0  0  0  0  0  0  0  0  0
   20.2609   -6.5777  -11.2865 C   0  0  0  0  0  0  0  0  0  0  0  0
   20.5895   -5.2452  -11.5744 C   0  0  0  0  0  0  0  0  0  0  0  0
   21.2933   -4.9183  -12.7090 C   0  0  0  0  0  0  0  0  0  0  0  0
   21.6917   -5.8878  -13.5880 C   0  0  0  0  0  0  0  0  0  0  0  0
   21.3889   -7.1923  -13.3380 C   0  0  0  0  0  0  0  0  0  0  0  0
   20.6864   -7.5150  -12.2046 C   0  0  0  0  0  0  0  0  0  0  0  0
   17.9502   -5.0145  -10.2867 C   0  0  0  0  0  0  0  0  0  0  0  0
   17.4176   -4.5363  -11.3470 O   0  0  0  0  0  0  0  0  0  0  0  0
   18.3271   -4.0661   -9.3588 O   0  0  0  0  0  0  0  0  0  0  0  0
  2  1  1  6
  2  3  1  0
  4  2  1  0
  4  5  1  1
  6  4  1  0
  6  7  2  0
  8  6  1  0
  9  8  1  0
  9 12  1  0
  9 10  1  1
 11 10  1  0
 12 13  2  0
 12 14  1  0
 14 15  1  0
 15 16  1  6
 16 17  1  0
 17 22  2  0
 18 17  1  0
 18 19  2  0
 19 20  1  0
 20 21  2  0
 22 21  1  0
 23 25  1  0
 23 15  1  0
 24 23  2  0
M  END
$$$$
