TCF.pdb
     RDKit          3D

 25 25  0  0  1  0  0  0  0  0999 V2000
   26.2681  -23.5076  -16.2544 C   0  0  0  0  0  0  0  0  0  0  0  0
   27.7191  -23.7371  -16.6296 C   0  0  1  0  0  0  0  0  0  0  0  0
   27.7239  -24.5125  -17.7880 O   0  0  0  0  0  0  0  0  0  0  0  0
   28.3277  -22.3842  -16.8980 C   0  0  2  0  0  0  0  0  0  0  0  0
   29.6728  -22.5788  -17.3806 N   0  0  0  0  0  0  0  0  0  0  0  0
   28.3910  -21.5366  -15.6771 C   0  0  0  0  0  0  0  0  0  0  0  0
   29.3524  -20.7429  -15.4684 O   0  0  0  0  0  0  0  0  0  0  0  0
   27.3770  -21.5715  -14.6794 N   0  0  0  0  0  0  0  0  0  0  0  0
   26.9614  -20.4526  -13.8969 C   0  0  1  0  0  0  0  0  0  0  0  0
   26.6938  -19.2110  -14.7274 C   0  0  0  0  0  0  0  0  0  0  0  0
   28.0898  -18.0885  -14.7634 S   0  0  0  0  0  0  0  0  0  0  0  0
   25.8427  -20.7599  -12.9774 C   0  0  0  0  0  0  0  0  0  0  0  0
   24.9102  -21.4862  -13.4053 O   0  0  0  0  0  0  0  0  0  0  0  0
   25.7584  -20.2899  -11.6555 N   0  0  0  0  0  0  0  0  0  0  0  0
   24.7856  -20.7450  -10.6783 C   0  0  1  0  0  0  0  0  0  0  0  0
   25.0175  -20.1688   -9.3275 C   0  0  0  0  0  0  0  0  0  0  0  0
   26.4367  -20.3032   -8.9420 C   0  0  0  0  0  0  0  0  0  0  0  0
   26.9774  -19.5961   -7.8585 C   0  0  0  0  0  0  0  0  0  0  0  0
   28.2974  -19.7435   -7.5041 C   0  0  0  0  0  0  0  0  0  0  0  0
   29.1185  -20.5862   -8.2019 C   0  0  0  0  0  0  0  0  0  0  0  0
   28.6248  -21.2880   -9.2599 C   0  0  0  0  0  0  0  0  0  0  0  0
   27.3070  -21.1387   -9.6108 C   0  0  0  0  0  0  0  0  0  0  0  0
   23.4391  -20.5088  -11.2366 C   0  0  0  0  0  0  0  0  0  0  0  0
   23.2853  -19.6650  -12.1857 O   0  0  0  0  0  0  0  0  0  0  0  0
   22.2762  -21.1282  -10.8284 O   0  0  0  0  0  0  0  0  0  0  0  0
  2  1  1  6
  2  3  1  0
  4  2  1  0
  4  5  1  1
  6  4  1  0
  6  7  2  0
  8  6  1  0
  9  8  1  0
  9 12  1  0
  9 10  1  6
 11 10  1  0
 12 13  2  0
 12 14  1  0
 14 15  1  0
 15 16  1  1
 16 17  1  0
 17 22  2  0
 18 17  1  0
 18 19  2  0
 19 20  1  0
 20 21  2  0
 22 21  1  0
 23 25  1  0
 23 15  1  0
 24 23  2  0
M  END
$$$$
