PLG.pdb
     RDKit          3D

 20 20  0  0  1  0  0  0  0  0999 V2000
    7.4230  -15.9235   21.7189 N   0  0  0  0  0  0  0  0  0  0  0  0
    6.4336  -15.2009   20.9797 C   0  0  0  0  0  0  0  0  0  0  0  0
    7.2671  -14.4055   19.9727 C   0  0  0  0  0  0  0  0  0  0  0  0
    8.4116  -13.9443   20.8553 C   0  0  0  0  0  0  0  0  0  0  0  0
    8.6432  -15.1840   21.7061 C   0  0  1  0  0  0  0  0  0  0  0  0
    9.0735  -14.7217   23.0478 C   0  0  0  0  0  0  0  0  0  0  0  0
   10.1417  -14.0807   23.2311 O   0  0  0  0  0  0  0  0  0  0  0  0
    7.7616  -11.7163   26.2315 C   0  0  0  0  0  0  0  0  0  0  0  0
    6.7310  -12.7830   25.8119 C   0  0  2  0  0  0  0  0  0  0  0  0
    5.4413  -12.4525   26.5323 C   0  0  0  0  0  0  0  0  0  0  0  0
    7.2315  -14.1468   26.1514 C   0  0  0  0  0  0  0  0  0  0  0  0
    8.5342  -14.5353   25.5057 C   0  0  2  0  0  0  0  0  0  0  0  0
    8.2265  -15.0293   24.1484 N   0  0  0  0  0  0  0  0  0  0  0  0
    9.1445  -15.6603   26.2474 C   0  0  0  0  0  0  0  0  0  0  0  0
    9.2333  -15.5771   27.5055 O   0  0  0  0  0  0  0  0  0  0  0  0
    9.6159  -16.8021   25.5444 N   0  0  0  0  0  0  0  0  0  0  0  0
   10.1487  -17.9148   26.2828 C   0  0  0  0  0  0  0  0  0  0  0  0
   10.9004  -18.8538   25.3770 C   0  0  0  0  0  0  0  0  0  0  0  0
   11.3667  -18.4904   24.2692 O   0  0  0  0  0  0  0  0  0  0  0  0
   11.0932  -20.1699   25.7654 O   0  0  0  0  0  0  0  0  0  0  0  0
  1  2  1  0
  3  2  1  0
  4  5  1  0
  4  3  1  0
  5  1  1  0
  5  6  1  1
  7  6  2  0
  9  8  1  1
  9 11  1  0
 10  9  1  0
 12 11  1  1
 12 13  1  0
 13  6  1  0
 14 15  2  0
 14 12  1  0
 16 14  1  0
 17 16  1  0
 17 18  1  0
 18 20  1  0
 19 18  2  0
M  END
$$$$
