PLG.pdb
     RDKit          3D

 20 20  0  0  1  0  0  0  0  0999 V2000
    7.3615  -15.7591   21.6179 N   0  0  0  0  0  0  0  0  0  0  0  0
    6.4420  -14.9127   20.9210 C   0  0  0  0  0  0  0  0  0  0  0  0
    7.3497  -14.1161   19.9813 C   0  0  0  0  0  0  0  0  0  0  0  0
    8.5117  -13.8070   20.9063 C   0  0  0  0  0  0  0  0  0  0  0  0
    8.6345  -15.1169   21.6701 C   0  0  1  0  0  0  0  0  0  0  0  0
    9.0773  -14.7834   23.0456 C   0  0  0  0  0  0  0  0  0  0  0  0
   10.1987  -14.2641   23.2871 O   0  0  0  0  0  0  0  0  0  0  0  0
    7.9745  -11.8115   26.2864 C   0  0  0  0  0  0  0  0  0  0  0  0
    6.8782  -12.7784   25.7969 C   0  0  2  0  0  0  0  0  0  0  0  0
    5.5865  -12.3454   26.4570 C   0  0  0  0  0  0  0  0  0  0  0  0
    7.2401  -14.1850   26.1375 C   0  0  0  0  0  0  0  0  0  0  0  0
    8.5037  -14.6982   25.5012 C   0  0  2  0  0  0  0  0  0  0  0  0
    8.1793  -15.0728   24.1101 N   0  0  0  0  0  0  0  0  0  0  0  0
    8.9456  -15.9310   26.1893 C   0  0  0  0  0  0  0  0  0  0  0  0
    9.1821  -15.8789   27.4298 O   0  0  0  0  0  0  0  0  0  0  0  0
    9.0959  -17.1389   25.4556 N   0  0  0  0  0  0  0  0  0  0  0  0
    9.3948  -18.3578   26.1572 C   0  0  0  0  0  0  0  0  0  0  0  0
   10.8797  -18.6027   26.2060 C   0  0  0  0  0  0  0  0  0  0  0  0
   11.7089  -17.8122   25.6921 O   0  0  0  0  0  0  0  0  0  0  0  0
   11.3649  -19.7369   26.8372 O   0  0  0  0  0  0  0  0  0  0  0  0
  1  2  1  0
  3  2  1  0
  4  5  1  0
  4  3  1  0
  5  1  1  0
  5  6  1  1
  7  6  2  0
  9  8  1  1
  9 11  1  0
 10  9  1  0
 12 11  1  1
 12 13  1  0
 13  6  1  0
 14 15  2  0
 14 12  1  0
 16 14  1  0
 17 16  1  0
 17 18  1  0
 18 20  1  0
 19 18  2  0
M  END
$$$$
