PLG.pdb
     RDKit          3D

 20 20  0  0  1  0  0  0  0  0999 V2000
    8.4049  -15.6235   20.9041 N   0  0  0  0  0  0  0  0  0  0  0  0
    8.4123  -16.9136   20.2852 C   0  0  0  0  0  0  0  0  0  0  0  0
    6.9980  -17.4331   20.5521 C   0  0  0  0  0  0  0  0  0  0  0  0
    6.8058  -17.0006   21.9935 C   0  0  0  0  0  0  0  0  0  0  0  0
    7.4660  -15.6301   21.9785 C   0  0  1  0  0  0  0  0  0  0  0  0
    8.0842  -15.4259   23.3108 C   0  0  0  0  0  0  0  0  0  0  0  0
    9.3246  -15.5257   23.5026 O   0  0  0  0  0  0  0  0  0  0  0  0
    8.0682  -11.6842   26.1736 C   0  0  0  0  0  0  0  0  0  0  0  0
    6.7387  -12.3868   25.8342 C   0  0  2  0  0  0  0  0  0  0  0  0
    5.6350  -11.5587   26.4569 C   0  0  0  0  0  0  0  0  0  0  0  0
    6.7489  -13.7876   26.3473 C   0  0  0  0  0  0  0  0  0  0  0  0
    7.7573  -14.7023   25.7059 C   0  0  2  0  0  0  0  0  0  0  0  0
    7.2170  -15.1064   24.3923 N   0  0  0  0  0  0  0  0  0  0  0  0
    7.8999  -15.9342   26.5125 C   0  0  0  0  0  0  0  0  0  0  0  0
    8.4429  -15.8515   27.6508 O   0  0  0  0  0  0  0  0  0  0  0  0
    7.4311  -17.1752   26.0025 N   0  0  0  0  0  0  0  0  0  0  0  0
    7.5200  -18.3533   26.8220 C   0  0  0  0  0  0  0  0  0  0  0  0
    8.8723  -19.0022   26.6902 C   0  0  0  0  0  0  0  0  0  0  0  0
    9.8245  -18.4546   26.0819 O   0  0  0  0  0  0  0  0  0  0  0  0
    9.0901  -20.2487   27.2549 O   0  0  0  0  0  0  0  0  0  0  0  0
  1  2  1  0
  3  2  1  0
  4  5  1  0
  4  3  1  0
  5  1  1  0
  5  6  1  1
  7  6  2  0
  9  8  1  1
  9 11  1  0
 10  9  1  0
 12 11  1  1
 12 13  1  0
 13  6  1  0
 14 15  2  0
 14 12  1  0
 16 14  1  0
 17 16  1  0
 17 18  1  0
 18 20  1  0
 19 18  2  0
M  END
$$$$
