PLG.pdb
     RDKit          3D

 20 20  0  0  1  0  0  0  0  0999 V2000
    7.4392  -15.0744   21.1897 N   0  0  0  0  0  0  0  0  0  0  0  0
    6.6324  -14.1357   20.4717 C   0  0  0  0  0  0  0  0  0  0  0  0
    7.6674  -13.2823   19.7356 C   0  0  0  0  0  0  0  0  0  0  0  0
    8.7091  -13.1012   20.8235 C   0  0  0  0  0  0  0  0  0  0  0  0
    8.7080  -14.4817   21.4627 C   0  0  1  0  0  0  0  0  0  0  0  0
    8.9799  -14.2963   22.9087 C   0  0  0  0  0  0  0  0  0  0  0  0
   10.0575  -13.8046   23.3359 O   0  0  0  0  0  0  0  0  0  0  0  0
    7.9593  -11.6799   26.3240 C   0  0  0  0  0  0  0  0  0  0  0  0
    6.8440  -12.4407   25.5802 C   0  0  2  0  0  0  0  0  0  0  0  0
    5.5280  -11.8644   26.0576 C   0  0  0  0  0  0  0  0  0  0  0  0
    6.9482  -13.9042   25.8499 C   0  0  0  0  0  0  0  0  0  0  0  0
    8.1660  -14.5802   25.2801 C   0  0  2  0  0  0  0  0  0  0  0  0
    7.9660  -14.6985   23.8218 N   0  0  0  0  0  0  0  0  0  0  0  0
    8.2716  -15.9553   25.8152 C   0  0  0  0  0  0  0  0  0  0  0  0
    8.3077  -16.1148   27.0685 O   0  0  0  0  0  0  0  0  0  0  0  0
    8.3304  -17.0614   24.9247 N   0  0  0  0  0  0  0  0  0  0  0  0
    8.3386  -18.3966   25.4579 C   0  0  0  0  0  0  0  0  0  0  0  0
    9.7471  -18.8874   25.6638 C   0  0  0  0  0  0  0  0  0  0  0  0
   10.7489  -18.1535   25.4783 O   0  0  0  0  0  0  0  0  0  0  0  0
    9.9627  -20.1937   26.0729 O   0  0  0  0  0  0  0  0  0  0  0  0
  1  2  1  0
  3  2  1  0
  4  5  1  0
  4  3  1  0
  5  1  1  0
  5  6  1  1
  7  6  2  0
  9  8  1  1
  9 11  1  0
 10  9  1  0
 12 11  1  1
 12 13  1  0
 13  6  1  0
 14 15  2  0
 14 12  1  0
 16 14  1  0
 17 16  1  0
 17 18  1  0
 18 20  1  0
 19 18  2  0
M  END
$$$$
