PLG.pdb
     RDKit          3D

 20 20  0  0  1  0  0  0  0  0999 V2000
    7.3457  -15.0505   21.1228 N   0  0  0  0  0  0  0  0  0  0  0  0
    6.4353  -14.1189   20.5306 C   0  0  0  0  0  0  0  0  0  0  0  0
    7.3512  -13.2284   19.6882 C   0  0  0  0  0  0  0  0  0  0  0  0
    8.5171  -13.0416   20.6407 C   0  0  0  0  0  0  0  0  0  0  0  0
    8.6258  -14.4327   21.2470 C   0  0  1  0  0  0  0  0  0  0  0  0
    9.0730  -14.2661   22.6510 C   0  0  0  0  0  0  0  0  0  0  0  0
   10.1843  -13.7553   22.9500 O   0  0  0  0  0  0  0  0  0  0  0  0
    7.8546  -11.7014   26.1655 C   0  0  0  0  0  0  0  0  0  0  0  0
    6.8170  -12.6726   25.5685 C   0  0  2  0  0  0  0  0  0  0  0  0
    5.4932  -12.3613   26.2336 C   0  0  0  0  0  0  0  0  0  0  0  0
    7.2415  -14.0849   25.7939 C   0  0  0  0  0  0  0  0  0  0  0  0
    8.5128  -14.4950   25.1006 C   0  0  2  0  0  0  0  0  0  0  0  0
    8.1912  -14.7097   23.6754 N   0  0  0  0  0  0  0  0  0  0  0  0
    8.9805  -15.7912   25.6385 C   0  0  0  0  0  0  0  0  0  0  0  0
    9.1983  -15.8871   26.8798 O   0  0  0  0  0  0  0  0  0  0  0  0
    9.1758  -16.8943   24.7638 N   0  0  0  0  0  0  0  0  0  0  0  0
    9.4737  -18.1881   25.3157 C   0  0  0  0  0  0  0  0  0  0  0  0
   10.9603  -18.4190   25.3790 C   0  0  0  0  0  0  0  0  0  0  0  0
   11.7925  -17.5335   25.0628 O   0  0  0  0  0  0  0  0  0  0  0  0
   11.4437  -19.6477   25.7993 O   0  0  0  0  0  0  0  0  0  0  0  0
  1  2  1  0
  3  2  1  0
  4  5  1  0
  4  3  1  0
  5  1  1  0
  5  6  1  1
  7  6  2  0
  9  8  1  1
  9 11  1  0
 10  9  1  0
 12 11  1  1
 12 13  1  0
 13  6  1  0
 14 15  2  0
 14 12  1  0
 16 14  1  0
 17 16  1  0
 17 18  1  0
 18 20  1  0
 19 18  2  0
M  END
$$$$
