PLG.pdb
     RDKit          3D

 20 20  0  0  1  0  0  0  0  0999 V2000
    7.4500  -15.0976   21.2345 N   0  0  0  0  0  0  0  0  0  0  0  0
    6.6199  -14.1664   20.5335 C   0  0  0  0  0  0  0  0  0  0  0  0
    7.6224  -13.3784   19.6876 C   0  0  0  0  0  0  0  0  0  0  0  0
    8.7446  -13.1826   20.6895 C   0  0  0  0  0  0  0  0  0  0  0  0
    8.7512  -14.5333   21.3895 C   0  0  1  0  0  0  0  0  0  0  0  0
    9.1320  -14.2937   22.8026 C   0  0  0  0  0  0  0  0  0  0  0  0
   10.2411  -13.7942   23.1281 O   0  0  0  0  0  0  0  0  0  0  0  0
    8.1154  -11.5927   26.2248 C   0  0  0  0  0  0  0  0  0  0  0  0
    6.9876  -12.4580   25.6287 C   0  0  2  0  0  0  0  0  0  0  0  0
    5.6955  -11.9911   26.2643 C   0  0  0  0  0  0  0  0  0  0  0  0
    7.2525  -13.9029   25.8887 C   0  0  0  0  0  0  0  0  0  0  0  0
    8.4895  -14.4596   25.2370 C   0  0  2  0  0  0  0  0  0  0  0  0
    8.1876  -14.6519   23.8042 N   0  0  0  0  0  0  0  0  0  0  0  0
    8.7933  -15.7943   25.7979 C   0  0  0  0  0  0  0  0  0  0  0  0
    8.9415  -15.9048   27.0482 O   0  0  0  0  0  0  0  0  0  0  0  0
    8.9129  -16.9171   24.9347 N   0  0  0  0  0  0  0  0  0  0  0  0
    9.2493  -18.2004   25.4891 C   0  0  0  0  0  0  0  0  0  0  0  0
   10.7400  -18.4124   25.4945 C   0  0  0  0  0  0  0  0  0  0  0  0
   11.5515  -17.4896   25.2367 O   0  0  0  0  0  0  0  0  0  0  0  0
   11.2509  -19.6655   25.7928 O   0  0  0  0  0  0  0  0  0  0  0  0
  1  2  1  0
  3  2  1  0
  4  5  1  0
  4  3  1  0
  5  1  1  0
  5  6  1  1
  7  6  2  0
  9  8  1  1
  9 11  1  0
 10  9  1  0
 12 11  1  1
 12 13  1  0
 13  6  1  0
 14 15  2  0
 14 12  1  0
 16 14  1  0
 17 16  1  0
 17 18  1  0
 18 20  1  0
 19 18  2  0
M  END
$$$$
