PLG.pdb
     RDKit          3D

 20 20  0  0  1  0  0  0  0  0999 V2000
    7.2654  -14.9694   21.0852 N   0  0  0  0  0  0  0  0  0  0  0  0
    6.4843  -13.9453   20.4619 C   0  0  0  0  0  0  0  0  0  0  0  0
    7.5208  -13.1672   19.6484 C   0  0  0  0  0  0  0  0  0  0  0  0
    8.6688  -13.1065   20.6382 C   0  0  0  0  0  0  0  0  0  0  0  0
    8.6018  -14.4977   21.2501 C   0  0  1  0  0  0  0  0  0  0  0  0
    9.0192  -14.3745   22.6677 C   0  0  0  0  0  0  0  0  0  0  0  0
   10.1607  -13.9616   23.0025 O   0  0  0  0  0  0  0  0  0  0  0  0
    7.7732  -11.6871   26.1477 C   0  0  0  0  0  0  0  0  0  0  0  0
    6.7194  -12.5991   25.4890 C   0  0  2  0  0  0  0  0  0  0  0  0
    5.3805  -12.2235   26.0873 C   0  0  0  0  0  0  0  0  0  0  0  0
    7.0580  -14.0330   25.7234 C   0  0  0  0  0  0  0  0  0  0  0  0
    8.3418  -14.5039   25.0949 C   0  0  2  0  0  0  0  0  0  0  0  0
    8.0724  -14.7441   23.6629 N   0  0  0  0  0  0  0  0  0  0  0  0
    8.7410  -15.8010   25.6835 C   0  0  0  0  0  0  0  0  0  0  0  0
    8.8486  -15.8868   26.9399 O   0  0  0  0  0  0  0  0  0  0  0  0
    8.9944  -16.9161   24.8394 N   0  0  0  0  0  0  0  0  0  0  0  0
    9.4409  -18.1533   25.4201 C   0  0  0  0  0  0  0  0  0  0  0  0
   10.9446  -18.2145   25.4707 C   0  0  0  0  0  0  0  0  0  0  0  0
   11.6688  -17.2441   25.1383 O   0  0  0  0  0  0  0  0  0  0  0  0
   11.5672  -19.3766   25.8973 O   0  0  0  0  0  0  0  0  0  0  0  0
  1  2  1  0
  3  2  1  0
  4  5  1  0
  4  3  1  0
  5  1  1  0
  5  6  1  1
  7  6  2  0
  9  8  1  1
  9 11  1  0
 10  9  1  0
 12 11  1  1
 12 13  1  0
 13  6  1  0
 14 15  2  0
 14 12  1  0
 16 14  1  0
 17 16  1  0
 17 18  1  0
 18 20  1  0
 19 18  2  0
M  END
$$$$
