PLG.pdb
     RDKit          3D

 20 20  0  0  1  0  0  0  0  0999 V2000
    8.6424  -15.0375   20.7068 N   0  0  0  0  0  0  0  0  0  0  0  0
    8.4406  -16.2786   20.0238 C   0  0  0  0  0  0  0  0  0  0  0  0
    6.9296  -16.4928   20.1353 C   0  0  0  0  0  0  0  0  0  0  0  0
    6.6910  -16.0766   21.5745 C   0  0  0  0  0  0  0  0  0  0  0  0
    7.6217  -14.8787   21.6911 C   0  0  1  0  0  0  0  0  0  0  0  0
    8.1345  -14.8548   23.0823 C   0  0  0  0  0  0  0  0  0  0  0  0
    9.3428  -15.0740   23.3609 O   0  0  0  0  0  0  0  0  0  0  0  0
    8.0218  -11.4163   26.0753 C   0  0  0  0  0  0  0  0  0  0  0  0
    6.6684  -12.0743   25.7411 C   0  0  2  0  0  0  0  0  0  0  0  0
    5.5997  -11.2468   26.4228 C   0  0  0  0  0  0  0  0  0  0  0  0
    6.6574  -13.4943   26.1981 C   0  0  0  0  0  0  0  0  0  0  0  0
    7.6476  -14.3994   25.5159 C   0  0  2  0  0  0  0  0  0  0  0  0
    7.2021  -14.5707   24.1184 N   0  0  0  0  0  0  0  0  0  0  0  0
    7.6194  -15.7375   26.1460 C   0  0  0  0  0  0  0  0  0  0  0  0
    8.0406  -15.8559   27.3317 O   0  0  0  0  0  0  0  0  0  0  0  0
    7.1263  -16.8547   25.4189 N   0  0  0  0  0  0  0  0  0  0  0  0
    7.2182  -18.1683   25.9962 C   0  0  0  0  0  0  0  0  0  0  0  0
    8.6255  -18.6973   25.9138 C   0  0  0  0  0  0  0  0  0  0  0  0
    9.5629  -18.0379   25.4009 O   0  0  0  0  0  0  0  0  0  0  0  0
    8.9131  -19.9556   26.4179 O   0  0  0  0  0  0  0  0  0  0  0  0
  1  2  1  0
  3  2  1  0
  4  5  1  0
  4  3  1  0
  5  1  1  0
  5  6  1  1
  7  6  2  0
  9  8  1  1
  9 11  1  0
 10  9  1  0
 12 11  1  1
 12 13  1  0
 13  6  1  0
 14 15  2  0
 14 12  1  0
 16 14  1  0
 17 16  1  0
 17 18  1  0
 18 20  1  0
 19 18  2  0
M  END
$$$$
