PLG.pdb
     RDKit          3D

 20 20  0  0  1  0  0  0  0  0999 V2000
    8.7766  -15.9364   20.0091 N   0  0  0  0  0  0  0  0  0  0  0  0
    9.2222  -17.2578   19.6885 C   0  0  0  0  0  0  0  0  0  0  0  0
    8.1127  -18.1444   20.2582 C   0  0  0  0  0  0  0  0  0  0  0  0
    7.8536  -17.4551   21.5845 C   0  0  0  0  0  0  0  0  0  0  0  0
    7.9647  -15.9924   21.1810 C   0  0  1  0  0  0  0  0  0  0  0  0
    8.5362  -15.2602   22.3370 C   0  0  0  0  0  0  0  0  0  0  0  0
    9.7423  -14.9009   22.3799 O   0  0  0  0  0  0  0  0  0  0  0  0
    5.7835  -12.3178   27.0498 C   0  0  0  0  0  0  0  0  0  0  0  0
    7.1278  -12.7492   26.4311 C   0  0  2  0  0  0  0  0  0  0  0  0
    7.9350  -11.4869   26.2150 C   0  0  0  0  0  0  0  0  0  0  0  0
    6.8961  -13.4936   25.1592 C   0  0  0  0  0  0  0  0  0  0  0  0
    8.1155  -14.1389   24.5579 C   0  0  2  0  0  0  0  0  0  0  0  0
    7.6641  -14.9677   23.4221 N   0  0  0  0  0  0  0  0  0  0  0  0
    8.7343  -15.0537   25.5420 C   0  0  0  0  0  0  0  0  0  0  0  0
    9.2313  -14.5620   26.5948 O   0  0  0  0  0  0  0  0  0  0  0  0
    8.7609  -16.4527   25.2924 N   0  0  0  0  0  0  0  0  0  0  0  0
    9.3660  -17.3300   26.2574 C   0  0  0  0  0  0  0  0  0  0  0  0
   10.8477  -17.4545   26.0198 C   0  0  0  0  0  0  0  0  0  0  0  0
   11.3236  -18.1531   25.0914 O   0  0  0  0  0  0  0  0  0  0  0  0
   11.7314  -16.7799   26.8469 O   0  0  0  0  0  0  0  0  0  0  0  0
  1  2  1  0
  3  2  1  0
  4  5  1  0
  4  3  1  0
  5  1  1  0
  5  6  1  1
  7  6  2  0
  9  8  1  6
  9 11  1  0
 10  9  1  0
 12 11  1  1
 12 13  1  0
 13  6  1  0
 14 15  2  0
 14 12  1  0
 16 14  1  0
 17 16  1  0
 17 18  1  0
 18 20  1  0
 19 18  2  0
M  END
$$$$
