PLG.pdb
     RDKit          3D

 20 20  0  0  1  0  0  0  0  0999 V2000
    7.4346  -15.0611   21.0136 N   0  0  0  0  0  0  0  0  0  0  0  0
    6.4797  -14.1937   20.3945 C   0  0  0  0  0  0  0  0  0  0  0  0
    7.3544  -13.2585   19.5568 C   0  0  0  0  0  0  0  0  0  0  0  0
    8.4896  -12.9899   20.5266 C   0  0  0  0  0  0  0  0  0  0  0  0
    8.6722  -14.3648   21.1518 C   0  0  1  0  0  0  0  0  0  0  0  0
    9.0835  -14.1552   22.5611 C   0  0  0  0  0  0  0  0  0  0  0  0
   10.1803  -13.6209   22.8725 O   0  0  0  0  0  0  0  0  0  0  0  0
    7.8182  -11.6461   26.2742 C   0  0  0  0  0  0  0  0  0  0  0  0
    6.7765  -12.5357   25.5674 C   0  0  2  0  0  0  0  0  0  0  0  0
    5.4441  -12.2609   26.2314 C   0  0  0  0  0  0  0  0  0  0  0  0
    7.1697  -13.9712   25.6677 C   0  0  0  0  0  0  0  0  0  0  0  0
    8.4704  -14.3320   25.0023 C   0  0  2  0  0  0  0  0  0  0  0  0
    8.1837  -14.5844   23.5758 N   0  0  0  0  0  0  0  0  0  0  0  0
    8.9891  -15.5959   25.5695 C   0  0  0  0  0  0  0  0  0  0  0  0
    9.1994  -15.6582   26.8142 O   0  0  0  0  0  0  0  0  0  0  0  0
    9.2402  -16.7062   24.7183 N   0  0  0  0  0  0  0  0  0  0  0  0
    9.6165  -17.9675   25.2967 C   0  0  0  0  0  0  0  0  0  0  0  0
   11.0920  -18.2185   25.1321 C   0  0  0  0  0  0  0  0  0  0  0  0
   11.8658  -17.3705   24.6234 O   0  0  0  0  0  0  0  0  0  0  0  0
   11.6312  -19.4239   25.5521 O   0  0  0  0  0  0  0  0  0  0  0  0
  1  2  1  0
  3  2  1  0
  4  5  1  0
  4  3  1  0
  5  1  1  0
  5  6  1  1
  7  6  2  0
  9  8  1  1
  9 11  1  0
 10  9  1  0
 12 11  1  1
 12 13  1  0
 13  6  1  0
 14 15  2  0
 14 12  1  0
 16 14  1  0
 17 16  1  0
 17 18  1  0
 18 20  1  0
 19 18  2  0
M  END
$$$$
