TEG.pdb
     RDKit          3D

 21 20  0  0  1  0  0  0  0  0999 V2000
   22.9642  -17.2912  -15.9148 C   0  0  0  0  0  0  0  0  0  0  0  0
   22.2426  -18.2813  -16.8008 C   0  0  1  0  0  0  0  0  0  0  0  0
   22.8988  -19.4833  -16.7171 O   0  0  0  0  0  0  0  0  0  0  0  0
   20.7735  -18.3573  -16.5028 C   0  0  2  0  0  0  0  0  0  0  0  0
   20.1945  -19.3639  -17.3875 N   0  0  0  0  0  0  0  0  0  0  0  0
   20.0643  -17.0762  -16.6873 C   0  0  0  0  0  0  0  0  0  0  0  0
   20.1171  -16.4174  -17.7795 O   0  0  0  0  0  0  0  0  0  0  0  0
   19.2779  -16.4956  -15.6599 N   0  0  0  0  0  0  0  0  0  0  0  0
   18.6010  -15.2270  -15.8051 C   0  0  1  0  0  0  0  0  0  0  0  0
   17.1978  -15.3367  -15.2468 C   0  0  0  0  0  0  0  0  0  0  0  0
   16.4620  -16.5208  -15.8098 C   0  0  0  0  0  0  0  0  0  0  0  0
   16.0100  -17.3732  -14.6798 C   0  0  0  0  0  0  0  0  0  0  0  0
   16.5871  -18.4606  -14.4072 O   0  0  0  0  0  0  0  0  0  0  0  0
   19.3084  -14.1315  -15.0975 C   0  0  0  0  0  0  0  0  0  0  0  0
   19.8348  -14.3324  -13.9727 O   0  0  0  0  0  0  0  0  0  0  0  0
   14.9189  -16.9851  -13.8800 O   0  0  0  0  0  0  0  0  0  0  0  0
   19.4379  -12.8139  -15.6257 N   0  0  0  0  0  0  0  0  0  0  0  0
   20.2095  -11.8030  -14.9566 C   0  0  0  0  0  0  0  0  0  0  0  0
   20.2146  -10.5158  -15.6926 C   0  0  0  0  0  0  0  0  0  0  0  0
   19.6955  -10.5022  -16.8386 O   0  0  0  0  0  0  0  0  0  0  0  0
   20.7481   -9.3438  -15.2034 O   0  0  0  0  0  0  0  0  0  0  0  0
  2  1  1  1
  3  2  1  0
  4  5  1  6
  4  2  1  0
  6  4  1  0
  6  7  2  0
  8  6  1  0
  9  8  1  0
  9 14  1  0
  9 10  1  1
 11 10  1  0
 12 11  1  0
 13 12  2  0
 14 17  1  0
 15 14  2  0
 16 12  1  0
 17 18  1  0
 19 21  1  0
 19 18  1  0
 20 19  2  0
M  END
$$$$
