TEG.pdb
     RDKit          3D

 21 20  0  0  1  0  0  0  0  0999 V2000
   26.3083  -32.9968  -10.2833 C   0  0  0  0  0  0  0  0  0  0  0  0
   25.8368  -33.1019   -8.8506 C   0  0  1  0  0  0  0  0  0  0  0  0
   24.8290  -32.1891   -8.6669 O   0  0  0  0  0  0  0  0  0  0  0  0
   25.4761  -34.5067   -8.4642 C   0  0  2  0  0  0  0  0  0  0  0  0
   24.2882  -34.8830   -9.2245 N   0  0  0  0  0  0  0  0  0  0  0  0
   25.2091  -34.6748   -7.0224 C   0  0  0  0  0  0  0  0  0  0  0  0
   24.0385  -34.5589   -6.5266 O   0  0  0  0  0  0  0  0  0  0  0  0
   26.2392  -34.9763   -6.0956 N   0  0  0  0  0  0  0  0  0  0  0  0
   26.0062  -35.1253   -4.6771 C   0  0  1  0  0  0  0  0  0  0  0  0
   27.2041  -35.7940   -4.0363 C   0  0  0  0  0  0  0  0  0  0  0  0
   26.9080  -36.2491   -2.6343 C   0  0  0  0  0  0  0  0  0  0  0  0
   28.1123  -36.9359   -2.0997 C   0  0  0  0  0  0  0  0  0  0  0  0
   28.0518  -37.6557   -1.0662 O   0  0  0  0  0  0  0  0  0  0  0  0
   25.7772  -33.8210   -4.0080 C   0  0  0  0  0  0  0  0  0  0  0  0
   26.6311  -32.9009   -4.0920 O   0  0  0  0  0  0  0  0  0  0  0  0
   29.3591  -36.7991   -2.7381 O   0  0  0  0  0  0  0  0  0  0  0  0
   24.6092  -33.5266   -3.2458 N   0  0  0  0  0  0  0  0  0  0  0  0
   24.4114  -32.2438   -2.6293 C   0  0  0  0  0  0  0  0  0  0  0  0
   23.0855  -32.1290   -1.9754 C   0  0  0  0  0  0  0  0  0  0  0  0
   22.2775  -33.0801   -2.1344 O   0  0  0  0  0  0  0  0  0  0  0  0
   22.6873  -31.0544   -1.2111 O   0  0  0  0  0  0  0  0  0  0  0  0
  2  1  1  6
  3  2  1  0
  4  5  1  6
  4  2  1  0
  6  4  1  0
  6  7  2  0
  8  6  1  0
  9  8  1  0
  9 14  1  0
  9 10  1  1
 11 10  1  0
 12 11  1  0
 13 12  2  0
 14 17  1  0
 15 14  2  0
 16 12  1  0
 17 18  1  0
 19 21  1  0
 19 18  1  0
 20 19  2  0
M  END
$$$$
