TEG.pdb
     RDKit          3D

 21 20  0  0  1  0  0  0  0  0999 V2000
   24.4377  -24.9803  -14.0326 C   0  0  0  0  0  0  0  0  0  0  0  0
   24.2734  -23.5456  -14.4806 C   0  0  1  0  0  0  0  0  0  0  0  0
   25.4708  -22.9023  -14.2936 O   0  0  0  0  0  0  0  0  0  0  0  0
   23.7240  -23.4360  -15.8730 C   0  0  2  0  0  0  0  0  0  0  0  0
   24.6273  -24.1596  -16.7628 N   0  0  0  0  0  0  0  0  0  0  0  0
   23.5801  -22.0453  -16.3456 C   0  0  0  0  0  0  0  0  0  0  0  0
   23.9009  -21.6894  -17.5288 O   0  0  0  0  0  0  0  0  0  0  0  0
   23.0748  -21.0149  -15.5125 N   0  0  0  0  0  0  0  0  0  0  0  0
   22.8941  -19.6533  -15.9620 C   0  0  1  0  0  0  0  0  0  0  0  0
   21.8760  -18.9616  -15.0803 C   0  0  0  0  0  0  0  0  0  0  0  0
   21.2138  -19.9207  -14.1307 C   0  0  0  0  0  0  0  0  0  0  0  0
   20.1402  -19.1951  -13.4035 C   0  0  0  0  0  0  0  0  0  0  0  0
   20.0189  -17.9432  -13.4920 O   0  0  0  0  0  0  0  0  0  0  0  0
   24.1591  -18.8789  -15.9230 C   0  0  0  0  0  0  0  0  0  0  0  0
   24.1977  -17.6961  -16.3497 O   0  0  0  0  0  0  0  0  0  0  0  0
   19.2255  -19.8923  -12.5921 O   0  0  0  0  0  0  0  0  0  0  0  0
   25.3830  -19.4040  -15.4150 N   0  0  0  0  0  0  0  0  0  0  0  0
   26.5880  -18.6218  -15.3868 C   0  0  0  0  0  0  0  0  0  0  0  0
   27.3405  -18.6963  -16.6623 C   0  0  0  0  0  0  0  0  0  0  0  0
   26.8169  -19.3423  -17.6064 O   0  0  0  0  0  0  0  0  0  0  0  0
   28.5671  -18.1068  -16.8757 O   0  0  0  0  0  0  0  0  0  0  0  0
  2  1  1  6
  3  2  1  0
  4  5  1  6
  4  2  1  0
  6  4  1  0
  6  7  2  0
  8  6  1  0
  9  8  1  0
  9 14  1  0
  9 10  1  1
 11 10  1  0
 12 11  1  0
 13 12  2  0
 14 17  1  0
 15 14  2  0
 16 12  1  0
 17 18  1  0
 19 21  1  0
 19 18  1  0
 20 19  2  0
M  END
$$$$
