TEG.pdb
     RDKit          3D

 21 20  0  0  1  0  0  0  0  0999 V2000
   14.4489   -4.7952   -9.5065 C   0  0  0  0  0  0  0  0  0  0  0  0
   15.7010   -5.4822  -10.0028 C   0  0  1  0  0  0  0  0  0  0  0  0
   16.7788   -4.8984   -9.3863 O   0  0  0  0  0  0  0  0  0  0  0  0
   15.6373   -6.9744   -9.8536 C   0  0  2  0  0  0  0  0  0  0  0  0
   15.5426   -7.2723   -8.4277 N   0  0  0  0  0  0  0  0  0  0  0  0
   16.8023   -7.6774  -10.4252 C   0  0  0  0  0  0  0  0  0  0  0  0
   17.7902   -8.0552   -9.7103 O   0  0  0  0  0  0  0  0  0  0  0  0
   16.8972   -7.9779  -11.8078 N   0  0  0  0  0  0  0  0  0  0  0  0
   18.0788   -8.5495  -12.4124 C   0  0  1  0  0  0  0  0  0  0  0  0
   17.6698   -9.5352  -13.4865 C   0  0  0  0  0  0  0  0  0  0  0  0
   17.0908  -10.7931  -12.9013 C   0  0  0  0  0  0  0  0  0  0  0  0
   16.5591  -11.6257  -14.0112 C   0  0  0  0  0  0  0  0  0  0  0  0
   17.2376  -11.8417  -15.0519 O   0  0  0  0  0  0  0  0  0  0  0  0
   18.9498   -7.5159  -13.0242 C   0  0  0  0  0  0  0  0  0  0  0  0
   18.4482   -6.5056  -13.5813 O   0  0  0  0  0  0  0  0  0  0  0  0
   15.2760  -12.1979  -13.9279 O   0  0  0  0  0  0  0  0  0  0  0  0
   20.3732   -7.5918  -13.0241 N   0  0  0  0  0  0  0  0  0  0  0  0
   21.1838   -6.5996  -13.6749 C   0  0  0  0  0  0  0  0  0  0  0  0
   21.5200   -5.4673  -12.7785 C   0  0  0  0  0  0  0  0  0  0  0  0
   20.9050   -5.3936  -11.6835 O   0  0  0  0  0  0  0  0  0  0  0  0
   22.4562   -4.4992  -13.0683 O   0  0  0  0  0  0  0  0  0  0  0  0
  2  1  1  1
  3  2  1  0
  4  5  1  1
  4  2  1  0
  6  4  1  0
  6  7  2  0
  8  6  1  0
  9  8  1  0
  9 14  1  0
  9 10  1  6
 11 10  1  0
 12 11  1  0
 13 12  2  0
 14 17  1  0
 15 14  2  0
 16 12  1  0
 17 18  1  0
 19 21  1  0
 19 18  1  0
 20 19  2  0
M  END
$$$$
