TEG.pdb
     RDKit          3D

 21 20  0  0  1  0  0  0  0  0999 V2000
   28.7575  -19.5647  -17.7297 C   0  0  0  0  0  0  0  0  0  0  0  0
   27.5758  -20.0940  -16.9489 C   0  0  1  0  0  0  0  0  0  0  0  0
   26.5753  -20.3887  -17.8403 O   0  0  0  0  0  0  0  0  0  0  0  0
   27.9475  -21.2289  -16.0397 C   0  0  2  0  0  0  0  0  0  0  0  0
   28.3517  -22.3531  -16.8787 N   0  0  0  0  0  0  0  0  0  0  0  0
   26.8538  -21.6536  -15.1443 C   0  0  0  0  0  0  0  0  0  0  0  0
   26.0976  -22.6463  -15.4131 O   0  0  0  0  0  0  0  0  0  0  0  0
   26.5742  -20.9835  -13.9262 N   0  0  0  0  0  0  0  0  0  0  0  0
   25.4992  -21.3702  -13.0411 C   0  0  1  0  0  0  0  0  0  0  0  0
   25.8361  -20.9524  -11.6253 C   0  0  0  0  0  0  0  0  0  0  0  0
   24.7659  -21.3602  -10.6513 C   0  0  0  0  0  0  0  0  0  0  0  0
   25.1785  -20.9258   -9.2915 C   0  0  0  0  0  0  0  0  0  0  0  0
   24.4913  -21.2142   -8.2744 O   0  0  0  0  0  0  0  0  0  0  0  0
   24.2079  -20.7482  -13.4244 C   0  0  0  0  0  0  0  0  0  0  0  0
   24.1364  -19.5131  -13.6528 O   0  0  0  0  0  0  0  0  0  0  0  0
   26.3549  -20.1764   -9.1038 O   0  0  0  0  0  0  0  0  0  0  0  0
   22.9939  -21.4832  -13.5571 N   0  0  0  0  0  0  0  0  0  0  0  0
   21.7828  -20.8659  -14.0231 C   0  0  0  0  0  0  0  0  0  0  0  0
   20.7860  -20.6874  -12.9400 C   0  0  0  0  0  0  0  0  0  0  0  0
   21.1074  -21.0767  -11.7876 O   0  0  0  0  0  0  0  0  0  0  0  0
   19.5403  -20.1263  -13.1160 O   0  0  0  0  0  0  0  0  0  0  0  0
  2  1  1  6
  3  2  1  0
  4  5  1  6
  4  2  1  0
  6  4  1  0
  6  7  2  0
  8  6  1  0
  9  8  1  0
  9 14  1  0
  9 10  1  1
 11 10  1  0
 12 11  1  0
 13 12  2  0
 14 17  1  0
 15 14  2  0
 16 12  1  0
 17 18  1  0
 19 21  1  0
 19 18  1  0
 20 19  2  0
M  END
$$$$
