TEG.pdb
     RDKit          3D

 21 20  0  0  1  0  0  0  0  0999 V2000
   17.3496  -10.6459  -12.5343 C   0  0  0  0  0  0  0  0  0  0  0  0
   15.8855  -10.9089  -12.2633 C   0  0  1  0  0  0  0  0  0  0  0  0
   15.6328  -12.2290  -12.5391 O   0  0  0  0  0  0  0  0  0  0  0  0
   15.4665  -10.4735  -10.8894 C   0  0  2  0  0  0  0  0  0  0  0  0
   14.0948  -10.9276  -10.6810 N   0  0  0  0  0  0  0  0  0  0  0  0
   15.5365   -9.0138  -10.6832 C   0  0  0  0  0  0  0  0  0  0  0  0
   14.7850   -8.1980  -11.3151 O   0  0  0  0  0  0  0  0  0  0  0  0
   16.4454   -8.4249   -9.7677 N   0  0  0  0  0  0  0  0  0  0  0  0
   16.6484   -6.9978   -9.6642 C   0  0  1  0  0  0  0  0  0  0  0  0
   16.1209   -6.5082   -8.3320 C   0  0  0  0  0  0  0  0  0  0  0  0
   14.6364   -6.7110   -8.2086 C   0  0  0  0  0  0  0  0  0  0  0  0
   13.9504   -5.5684   -8.8657 C   0  0  0  0  0  0  0  0  0  0  0  0
   14.4696   -4.4196   -8.8927 O   0  0  0  0  0  0  0  0  0  0  0  0
   18.0811   -6.6274   -9.7719 C   0  0  0  0  0  0  0  0  0  0  0  0
   18.7711   -6.4356   -8.7376 O   0  0  0  0  0  0  0  0  0  0  0  0
   12.6953   -5.7412   -9.4786 O   0  0  0  0  0  0  0  0  0  0  0  0
   18.7568   -6.4674  -11.0167 N   0  0  0  0  0  0  0  0  0  0  0  0
   20.1144   -6.0017  -11.0863 C   0  0  0  0  0  0  0  0  0  0  0  0
   20.5995   -5.8795  -12.4822 C   0  0  0  0  0  0  0  0  0  0  0  0
   19.8777   -6.3662  -13.3905 O   0  0  0  0  0  0  0  0  0  0  0  0
   21.7815   -5.2710  -12.8428 O   0  0  0  0  0  0  0  0  0  0  0  0
  2  1  1  1
  3  2  1  0
  4  5  1  6
  4  2  1  0
  6  4  1  0
  6  7  2  0
  8  6  1  0
  9  8  1  0
  9 14  1  0
  9 10  1  1
 11 10  1  0
 12 11  1  0
 13 12  2  0
 14 17  1  0
 15 14  2  0
 16 12  1  0
 17 18  1  0
 19 21  1  0
 19 18  1  0
 20 19  2  0
M  END
$$$$
