TEG.pdb
     RDKit          3D

 21 20  0  0  1  0  0  0  0  0999 V2000
   13.2083  -10.6702  -10.5483 C   0  0  0  0  0  0  0  0  0  0  0  0
   13.9164  -11.8283  -11.2143 C   0  0  1  0  0  0  0  0  0  0  0  0
   12.9643  -12.7180  -11.6439 O   0  0  0  0  0  0  0  0  0  0  0  0
   14.8719  -11.3821  -12.2824 C   0  0  2  0  0  0  0  0  0  0  0  0
   15.4110  -12.5790  -12.9211 N   0  0  0  0  0  0  0  0  0  0  0  0
   15.9833  -10.5542  -11.7751 C   0  0  0  0  0  0  0  0  0  0  0  0
   17.0271  -11.0629  -11.2447 O   0  0  0  0  0  0  0  0  0  0  0  0
   15.9610   -9.1380  -11.8455 N   0  0  0  0  0  0  0  0  0  0  0  0
   16.9748   -8.3014  -11.2446 C   0  0  1  0  0  0  0  0  0  0  0  0
   17.9000   -7.7768  -12.3222 C   0  0  0  0  0  0  0  0  0  0  0  0
   19.3021   -8.2937  -12.1570 C   0  0  0  0  0  0  0  0  0  0  0  0
   20.1281   -7.7770  -13.2789 C   0  0  0  0  0  0  0  0  0  0  0  0
   19.7000   -6.8720  -14.0455 O   0  0  0  0  0  0  0  0  0  0  0  0
   16.3895   -7.1472  -10.5190 C   0  0  0  0  0  0  0  0  0  0  0  0
   15.5436   -6.4028  -11.0785 O   0  0  0  0  0  0  0  0  0  0  0  0
   21.4178   -8.2884  -13.5152 O   0  0  0  0  0  0  0  0  0  0  0  0
   16.7335   -6.8100   -9.1774 N   0  0  0  0  0  0  0  0  0  0  0  0
   16.1752   -5.6612   -8.5192 C   0  0  0  0  0  0  0  0  0  0  0  0
   14.8279   -5.9288   -7.9605 C   0  0  0  0  0  0  0  0  0  0  0  0
   14.3568   -7.0852   -8.1141 O   0  0  0  0  0  0  0  0  0  0  0  0
   14.0666   -4.9972   -7.2895 O   0  0  0  0  0  0  0  0  0  0  0  0
  2  1  1  6
  3  2  1  0
  4  5  1  1
  4  2  1  0
  6  4  1  0
  6  7  2  0
  8  6  1  0
  9  8  1  0
  9 14  1  0
  9 10  1  6
 11 10  1  0
 12 11  1  0
 13 12  2  0
 14 17  1  0
 15 14  2  0
 16 12  1  0
 17 18  1  0
 19 21  1  0
 19 18  1  0
 20 19  2  0
M  END
$$$$
