TEG.pdb
     RDKit          3D

 21 20  0  0  1  0  0  0  0  0999 V2000
   22.5542  -11.5207  -15.4984 C   0  0  0  0  0  0  0  0  0  0  0  0
   21.8574  -11.9787  -16.7598 C   0  0  1  0  0  0  0  0  0  0  0  0
   22.2030  -13.2874  -16.9847 O   0  0  0  0  0  0  0  0  0  0  0  0
   20.3781  -11.7275  -16.7246 C   0  0  2  0  0  0  0  0  0  0  0  0
   19.8088  -12.2671  -17.9558 N   0  0  0  0  0  0  0  0  0  0  0  0
   20.0220  -10.3003  -16.6040 C   0  0  0  0  0  0  0  0  0  0  0  0
   20.1776   -9.4741  -17.5646 O   0  0  0  0  0  0  0  0  0  0  0  0
   19.4833   -9.7564  -15.4103 N   0  0  0  0  0  0  0  0  0  0  0  0
   19.2338   -8.3446  -15.2281 C   0  0  1  0  0  0  0  0  0  0  0  0
   17.8141   -8.1415  -14.7426 C   0  0  0  0  0  0  0  0  0  0  0  0
   16.8070   -8.4247  -15.8222 C   0  0  0  0  0  0  0  0  0  0  0  0
   15.4497   -8.1580  -15.2796 C   0  0  0  0  0  0  0  0  0  0  0  0
   14.8435   -9.0139  -14.5798 O   0  0  0  0  0  0  0  0  0  0  0  0
   20.1629   -7.7348  -14.2452 C   0  0  0  0  0  0  0  0  0  0  0  0
   20.5576   -8.3905  -13.2467 O   0  0  0  0  0  0  0  0  0  0  0  0
   14.8024   -6.9346  -15.5352 O   0  0  0  0  0  0  0  0  0  0  0  0
   20.6591   -6.4034  -14.3587 N   0  0  0  0  0  0  0  0  0  0  0  0
   21.5833   -5.8564  -13.4040 C   0  0  0  0  0  0  0  0  0  0  0  0
   22.1070   -4.5324  -13.8183 C   0  0  0  0  0  0  0  0  0  0  0  0
   22.8634   -3.9312  -13.0126 O   0  0  0  0  0  0  0  0  0  0  0  0
   21.8191   -3.9253  -15.0209 O   0  0  0  0  0  0  0  0  0  0  0  0
  2  1  1  1
  3  2  1  0
  4  5  1  6
  4  2  1  0
  6  4  1  0
  6  7  2  0
  8  6  1  0
  9  8  1  0
  9 14  1  0
  9 10  1  1
 11 10  1  0
 12 11  1  0
 13 12  2  0
 14 17  1  0
 15 14  2  0
 16 12  1  0
 17 18  1  0
 19 21  1  0
 19 18  1  0
 20 19  2  0
M  END
$$$$
