TEG.pdb
     RDKit          3D

 21 20  0  0  1  0  0  0  0  0999 V2000
   14.7507   -9.5999  -12.1502 C   0  0  0  0  0  0  0  0  0  0  0  0
   15.8422   -8.5824  -12.3944 C   0  0  1  0  0  0  0  0  0  0  0  0
   15.3507   -7.3446  -12.0645 O   0  0  0  0  0  0  0  0  0  0  0  0
   17.1276   -8.9401  -11.7069 C   0  0  2  0  0  0  0  0  0  0  0  0
   16.8742   -8.9424  -10.2693 N   0  0  0  0  0  0  0  0  0  0  0  0
   18.2378   -8.0153  -12.0077 C   0  0  0  0  0  0  0  0  0  0  0  0
   18.6591   -7.1563  -11.1625 O   0  0  0  0  0  0  0  0  0  0  0  0
   18.9075   -8.0232  -13.2577 N   0  0  0  0  0  0  0  0  0  0  0  0
   20.0046   -7.1363  -13.5713 C   0  0  1  0  0  0  0  0  0  0  0  0
   20.9050   -7.7906  -14.5978 C   0  0  0  0  0  0  0  0  0  0  0  0
   21.7850   -8.8424  -13.9817 C   0  0  0  0  0  0  0  0  0  0  0  0
   22.6136   -9.4490  -15.0556 C   0  0  0  0  0  0  0  0  0  0  0  0
   22.5133  -10.6711  -15.3498 O   0  0  0  0  0  0  0  0  0  0  0  0
   19.5360   -5.8364  -14.1115 C   0  0  0  0  0  0  0  0  0  0  0  0
   18.5084   -5.7780  -14.8349 O   0  0  0  0  0  0  0  0  0  0  0  0
   23.5375   -8.6692  -15.7761 O   0  0  0  0  0  0  0  0  0  0  0  0
   20.1966   -4.5992  -13.8572 N   0  0  0  0  0  0  0  0  0  0  0  0
   19.7055   -3.3566  -14.3859 C   0  0  0  0  0  0  0  0  0  0  0  0
   20.4743   -2.1887  -13.8923 C   0  0  0  0  0  0  0  0  0  0  0  0
   20.1594   -1.0565  -14.3417 O   0  0  0  0  0  0  0  0  0  0  0  0
   21.5034   -2.2660  -12.9799 O   0  0  0  0  0  0  0  0  0  0  0  0
  2  1  1  1
  3  2  1  0
  4  5  1  1
  4  2  1  0
  6  4  1  0
  6  7  2  0
  8  6  1  0
  9  8  1  0
  9 14  1  0
  9 10  1  6
 11 10  1  0
 12 11  1  0
 13 12  2  0
 14 17  1  0
 15 14  2  0
 16 12  1  0
 17 18  1  0
 19 21  1  0
 19 18  1  0
 20 19  2  0
M  END
$$$$
