TEG.pdb
     RDKit          3D

 21 20  0  0  1  0  0  0  0  0999 V2000
   26.5478  -10.4107  -15.2312 C   0  0  0  0  0  0  0  0  0  0  0  0
   26.4253  -11.3388  -16.4185 C   0  0  1  0  0  0  0  0  0  0  0  0
   27.3284  -12.3588  -16.2553 O   0  0  0  0  0  0  0  0  0  0  0  0
   25.0141  -11.7943  -16.6507 C   0  0  2  0  0  0  0  0  0  0  0  0
   25.0229  -12.6902  -17.8032 N   0  0  0  0  0  0  0  0  0  0  0  0
   24.0674  -10.6890  -16.8961 C   0  0  0  0  0  0  0  0  0  0  0  0
   23.9179  -10.1609  -18.0487 O   0  0  0  0  0  0  0  0  0  0  0  0
   23.2625  -10.1432  -15.8639 N   0  0  0  0  0  0  0  0  0  0  0  0
   22.3356   -9.0551  -16.0773 C   0  0  1  0  0  0  0  0  0  0  0  0
   20.9197   -9.5504  -15.8707 C   0  0  0  0  0  0  0  0  0  0  0  0
   20.4921  -10.4945  -16.9598 C   0  0  0  0  0  0  0  0  0  0  0  0
   19.0833  -10.8941  -16.7081 C   0  0  0  0  0  0  0  0  0  0  0  0
   18.2418  -10.9555  -17.6452 O   0  0  0  0  0  0  0  0  0  0  0  0
   22.5811   -7.9217  -15.1519 C   0  0  0  0  0  0  0  0  0  0  0  0
   22.6765   -8.1174  -13.9128 O   0  0  0  0  0  0  0  0  0  0  0  0
   18.6501  -11.2163  -15.4083 O   0  0  0  0  0  0  0  0  0  0  0  0
   22.7221   -6.5718  -15.5876 N   0  0  0  0  0  0  0  0  0  0  0  0
   22.9894   -5.5031  -14.6651 C   0  0  0  0  0  0  0  0  0  0  0  0
   21.7524   -4.9635  -14.0508 C   0  0  0  0  0  0  0  0  0  0  0  0
   20.6584   -5.4679  -14.4136 O   0  0  0  0  0  0  0  0  0  0  0  0
   21.7272   -3.9527  -13.1153 O   0  0  0  0  0  0  0  0  0  0  0  0
  2  1  1  1
  3  2  1  0
  4  5  1  6
  4  2  1  0
  6  4  1  0
  6  7  2  0
  8  6  1  0
  9  8  1  0
  9 14  1  0
  9 10  1  1
 11 10  1  0
 12 11  1  0
 13 12  2  0
 14 17  1  0
 15 14  2  0
 16 12  1  0
 17 18  1  0
 19 21  1  0
 19 18  1  0
 20 19  2  0
M  END
$$$$
