TEG.pdb
     RDKit          3D

 21 20  0  0  1  0  0  0  0  0999 V2000
   25.7712  -13.6295  -17.3474 C   0  0  0  0  0  0  0  0  0  0  0  0
   24.8869  -12.4173  -17.5337 C   0  0  1  0  0  0  0  0  0  0  0  0
   23.6612  -12.8491  -17.9740 O   0  0  0  0  0  0  0  0  0  0  0  0
   24.8333  -11.5495  -16.3101 C   0  0  2  0  0  0  0  0  0  0  0  0
   24.2503  -12.3419  -15.2316 N   0  0  0  0  0  0  0  0  0  0  0  0
   24.0452  -10.3152  -16.4930 C   0  0  0  0  0  0  0  0  0  0  0  0
   24.3719   -9.4151  -17.3373 O   0  0  0  0  0  0  0  0  0  0  0  0
   22.8727  -10.0514  -15.7403 N   0  0  0  0  0  0  0  0  0  0  0  0
   22.0420   -8.8883  -15.9543 C   0  0  1  0  0  0  0  0  0  0  0  0
   20.5911   -9.2551  -15.7247 C   0  0  0  0  0  0  0  0  0  0  0  0
   20.1163  -10.2981  -16.6979 C   0  0  0  0  0  0  0  0  0  0  0  0
   18.6870  -10.5887  -16.4143 C   0  0  0  0  0  0  0  0  0  0  0  0
   17.7621   -9.9701  -17.0074 O   0  0  0  0  0  0  0  0  0  0  0  0
   22.3983   -7.7716  -15.0447 C   0  0  0  0  0  0  0  0  0  0  0  0
   22.5982   -7.9832  -13.8208 O   0  0  0  0  0  0  0  0  0  0  0  0
   18.3276  -11.5684  -15.4700 O   0  0  0  0  0  0  0  0  0  0  0  0
   22.5352   -6.4210  -15.4795 N   0  0  0  0  0  0  0  0  0  0  0  0
   22.9602   -5.3782  -14.5870 C   0  0  0  0  0  0  0  0  0  0  0  0
   21.8337   -4.8008  -13.8147 C   0  0  0  0  0  0  0  0  0  0  0  0
   22.0914   -3.8377  -13.0473 O   0  0  0  0  0  0  0  0  0  0  0  0
   20.5334   -5.2500  -13.8849 O   0  0  0  0  0  0  0  0  0  0  0  0
  2  1  1  1
  3  2  1  0
  4  5  1  1
  4  2  1  0
  6  4  1  0
  6  7  2  0
  8  6  1  0
  9  8  1  0
  9 14  1  0
  9 10  1  1
 11 10  1  0
 12 11  1  0
 13 12  2  0
 14 17  1  0
 15 14  2  0
 16 12  1  0
 17 18  1  0
 19 21  1  0
 19 18  1  0
 20 19  2  0
M  END
$$$$
