TEG.pdb
     RDKit          3D

 21 20  0  0  1  0  0  0  0  0999 V2000
   19.5937  -12.0584  -16.6214 C   0  0  0  0  0  0  0  0  0  0  0  0
   19.9765  -10.8389  -15.8136 C   0  0  1  0  0  0  0  0  0  0  0  0
   21.3139  -10.6026  -16.0090 O   0  0  0  0  0  0  0  0  0  0  0  0
   19.0928   -9.6593  -16.0970 C   0  0  2  0  0  0  0  0  0  0  0  0
   19.1728   -9.3806  -17.5277 N   0  0  0  0  0  0  0  0  0  0  0  0
   19.4614   -8.4472  -15.3399 C   0  0  0  0  0  0  0  0  0  0  0  0
   19.4238   -8.4006  -14.0647 O   0  0  0  0  0  0  0  0  0  0  0  0
   19.8816   -7.2555  -15.9836 N   0  0  0  0  0  0  0  0  0  0  0  0
   20.0115   -5.9906  -15.2967 C   0  0  1  0  0  0  0  0  0  0  0  0
   21.3800   -5.4044  -15.5729 C   0  0  0  0  0  0  0  0  0  0  0  0
   22.4392   -6.0199  -14.7015 C   0  0  0  0  0  0  0  0  0  0  0  0
   22.2889   -5.4778  -13.3262 C   0  0  0  0  0  0  0  0  0  0  0  0
   22.1284   -6.2404  -12.3349 O   0  0  0  0  0  0  0  0  0  0  0  0
   18.9815   -5.0128  -15.7259 C   0  0  0  0  0  0  0  0  0  0  0  0
   19.0290   -3.8195  -15.3305 O   0  0  0  0  0  0  0  0  0  0  0  0
   22.3223   -4.0901  -13.0943 O   0  0  0  0  0  0  0  0  0  0  0  0
   17.8980   -5.3458  -16.5901 N   0  0  0  0  0  0  0  0  0  0  0  0
   16.9124   -4.3742  -16.9768 C   0  0  0  0  0  0  0  0  0  0  0  0
   15.8561   -4.2010  -15.9507 C   0  0  0  0  0  0  0  0  0  0  0  0
   15.9919   -4.8282  -14.8686 O   0  0  0  0  0  0  0  0  0  0  0  0
   14.7446   -3.4026  -16.1077 O   0  0  0  0  0  0  0  0  0  0  0  0
  2  1  1  6
  3  2  1  0
  4  5  1  6
  4  2  1  0
  6  4  1  0
  6  7  2  0
  8  6  1  0
  9  8  1  0
  9 14  1  0
  9 10  1  6
 11 10  1  0
 12 11  1  0
 13 12  2  0
 14 17  1  0
 15 14  2  0
 16 12  1  0
 17 18  1  0
 19 21  1  0
 19 18  1  0
 20 19  2  0
M  END
$$$$
