FVH.pdb
     RDKit          3D

 29 30  0  0  1  0  0  0  0  0999 V2000
   16.0986  -19.0082    2.8694 N   0  0  0  0  0  0  0  0  0  0  0  0
   16.9348  -17.9562    3.3603 C   0  0  1  0  0  0  0  0  0  0  0  0
   16.4412  -16.5881    2.9376 C   0  0  0  0  0  0  0  0  0  0  0  0
   17.5849  -15.6594    2.9273 C   0  0  0  0  0  0  0  0  0  0  0  0
   18.6780  -15.8877    2.1274 C   0  0  0  0  0  0  0  0  0  0  0  0
   19.7655  -15.0183    2.1152 C   0  0  0  0  0  0  0  0  0  0  0  0
   19.7479  -13.9053    2.9209 C   0  0  0  0  0  0  0  0  0  0  0  0
   18.6558  -13.6537    3.7370 C   0  0  0  0  0  0  0  0  0  0  0  0
   17.5784  -14.5460    3.7270 C   0  0  0  0  0  0  0  0  0  0  0  0
   17.1351  -17.9843    4.8125 C   0  0  0  0  0  0  0  0  0  0  0  0
   16.1645  -18.1065    5.6217 O   0  0  0  0  0  0  0  0  0  0  0  0
   20.3601  -19.7596    6.4335 C   0  0  0  0  0  0  0  0  0  0  0  0
   19.1253  -19.3230    7.1885 C   0  0  2  0  0  0  0  0  0  0  0  0
   18.0289  -20.3037    6.8759 C   0  0  0  0  0  0  0  0  0  0  0  0
   18.7733  -17.9234    6.7312 C   0  0  2  0  0  0  0  0  0  0  0  0
   18.4622  -17.8708    5.3294 N   0  0  0  0  0  0  0  0  0  0  0  0
   19.9075  -17.0047    6.9861 C   0  0  0  0  0  0  0  0  0  0  0  0
   20.7972  -16.8742    6.1120 O   0  0  0  0  0  0  0  0  0  0  0  0
   20.0165  -16.2678    8.1911 N   0  0  0  0  0  0  0  0  0  0  0  0
   21.1528  -15.4053    8.4530 C   0  0  1  0  0  0  0  0  0  0  0  0
   20.6750  -14.2503    9.2816 C   0  0  0  0  0  0  0  0  0  0  0  0
   20.2086  -13.1094    8.4643 C   0  0  0  0  0  0  0  0  0  0  0  0
   20.1678  -13.0091    7.0837 C   0  0  0  0  0  0  0  0  0  0  0  0
   19.6727  -11.7981    6.7779 N   0  0  0  0  0  0  0  0  0  0  0  0
   19.4011  -11.1340    7.9025 C   0  0  0  0  0  0  0  0  0  0  0  0
   19.7277  -11.9333    8.9088 N   0  0  0  0  0  0  0  0  0  0  0  0
   22.1834  -16.2172    9.1713 C   0  0  0  0  0  0  0  0  0  0  0  0
   21.9082  -17.3371    9.6747 O   0  0  0  0  0  0  0  0  0  0  0  0
   23.4918  -15.7736    9.3163 O   0  0  0  0  0  0  0  0  0  0  0  0
  2  1  1  1
  2  3  1  0
  2 10  1  0
  4  3  1  0
  4  9  1  0
  5  4  2  0
  6  5  1  0
  6  7  2  0
  7  8  1  0
  8  9  2  0
 10 11  2  0
 13 12  1  6
 13 14  1  0
 13 15  1  0
 15 16  1  6
 16 10  1  0
 17 15  1  0
 17 18  2  0
 19 17  1  0
 20 19  1  0
 20 27  1  0
 20 21  1  1
 22 21  1  0
 22 23  2  0
 24 23  1  0
 25 26  2  0
 25 24  1  0
 26 22  1  0
 27 28  2  0
 27 29  1  0
M  END
$$$$
