FVH.pdb
     RDKit          3D

 29 30  0  0  1  0  0  0  0  0999 V2000
   24.9509  -20.4200  -21.0666 N   0  0  0  0  0  0  0  0  0  0  0  0
   23.6792  -21.0719  -21.1356 C   0  0  1  0  0  0  0  0  0  0  0  0
   23.7961  -22.5058  -21.6090 C   0  0  0  0  0  0  0  0  0  0  0  0
   24.1610  -22.5001  -23.0364 C   0  0  0  0  0  0  0  0  0  0  0  0
   25.4674  -22.6427  -23.4362 C   0  0  0  0  0  0  0  0  0  0  0  0
   25.8219  -22.6332  -24.7827 C   0  0  0  0  0  0  0  0  0  0  0  0
   24.8445  -22.4778  -25.7361 C   0  0  0  0  0  0  0  0  0  0  0  0
   23.5190  -22.3319  -25.3570 C   0  0  0  0  0  0  0  0  0  0  0  0
   23.1944  -22.3456  -23.9963 C   0  0  0  0  0  0  0  0  0  0  0  0
   22.9173  -21.0233  -19.8839 C   0  0  0  0  0  0  0  0  0  0  0  0
   23.4102  -20.5445  -18.8163 O   0  0  0  0  0  0  0  0  0  0  0  0
   19.0256  -20.0032  -17.7636 C   0  0  0  0  0  0  0  0  0  0  0  0
   20.4494  -20.0584  -18.2688 C   0  0  2  0  0  0  0  0  0  0  0  0
   20.5669  -19.0851  -19.4092 C   0  0  0  0  0  0  0  0  0  0  0  0
   20.7289  -21.4786  -18.7124 C   0  0  2  0  0  0  0  0  0  0  0  0
   21.5816  -21.5302  -19.8678 N   0  0  0  0  0  0  0  0  0  0  0  0
   19.4597  -22.1665  -19.0457 C   0  0  0  0  0  0  0  0  0  0  0  0
   18.7686  -21.7448  -20.0033 O   0  0  0  0  0  0  0  0  0  0  0  0
   19.0029  -23.2894  -18.3125 N   0  0  0  0  0  0  0  0  0  0  0  0
   17.8253  -24.0326  -18.7179 C   0  0  1  0  0  0  0  0  0  0  0  0
   16.8025  -23.0492  -19.2031 C   0  0  0  0  0  0  0  0  0  0  0  0
   16.0526  -22.4076  -18.1018 C   0  0  0  0  0  0  0  0  0  0  0  0
   16.2588  -22.5399  -16.7387 C   0  0  0  0  0  0  0  0  0  0  0  0
   15.3460  -21.7780  -16.1130 N   0  0  0  0  0  0  0  0  0  0  0  0
   14.5768  -21.1739  -17.0202 C   0  0  0  0  0  0  0  0  0  0  0  0
   15.0120  -21.5607  -18.2114 N   0  0  0  0  0  0  0  0  0  0  0  0
   18.2375  -24.9847  -19.7954 C   0  0  0  0  0  0  0  0  0  0  0  0
   19.3473  -24.8804  -20.3790 O   0  0  0  0  0  0  0  0  0  0  0  0
   17.4153  -26.0279  -20.2020 O   0  0  0  0  0  0  0  0  0  0  0  0
  2  1  1  1
  2  3  1  0
  2 10  1  0
  4  3  1  0
  4  9  1  0
  5  4  2  0
  6  5  1  0
  6  7  2  0
  7  8  1  0
  8  9  2  0
 10 11  2  0
 13 12  1  6
 13 14  1  0
 13 15  1  0
 15 16  1  6
 16 10  1  0
 17 15  1  0
 17 18  2  0
 19 17  1  0
 20 19  1  0
 20 27  1  0
 20 21  1  6
 22 21  1  0
 22 23  2  0
 24 23  1  0
 25 26  2  0
 25 24  1  0
 26 22  1  0
 27 28  2  0
 27 29  1  0
M  END
$$$$
