FVH.pdb
     RDKit          3D

 29 30  0  0  1  0  0  0  0  0999 V2000
   28.5104  -25.1141  -16.7688 N   0  0  0  0  0  0  0  0  0  0  0  0
   27.6173  -24.1366  -17.3109 C   0  0  1  0  0  0  0  0  0  0  0  0
   26.4676  -24.7690  -18.0675 C   0  0  0  0  0  0  0  0  0  0  0  0
   26.9550  -25.1946  -19.3911 C   0  0  0  0  0  0  0  0  0  0  0  0
   27.2378  -24.2764  -20.3728 C   0  0  0  0  0  0  0  0  0  0  0  0
   27.6938  -24.6699  -21.6282 C   0  0  0  0  0  0  0  0  0  0  0  0
   27.8658  -26.0070  -21.8943 C   0  0  0  0  0  0  0  0  0  0  0  0
   27.5869  -26.9525  -20.9195 C   0  0  0  0  0  0  0  0  0  0  0  0
   27.1302  -26.5258  -19.6679 C   0  0  0  0  0  0  0  0  0  0  0  0
   27.0974  -23.1908  -16.3185 C   0  0  0  0  0  0  0  0  0  0  0  0
   26.9802  -23.5007  -15.0930 O   0  0  0  0  0  0  0  0  0  0  0  0
   27.2003  -19.1101  -17.2132 C   0  0  0  0  0  0  0  0  0  0  0  0
   27.0780  -19.6495  -15.8062 C   0  0  2  0  0  0  0  0  0  0  0  0
   28.4634  -19.9764  -15.3209 C   0  0  0  0  0  0  0  0  0  0  0  0
   26.1964  -20.8792  -15.8563 C   0  0  2  0  0  0  0  0  0  0  0  0
   26.7123  -21.8829  -16.7458 N   0  0  0  0  0  0  0  0  0  0  0  0
   24.8366  -20.5117  -16.3158 C   0  0  0  0  0  0  0  0  0  0  0  0
   24.4695  -20.8443  -17.4679 O   0  0  0  0  0  0  0  0  0  0  0  0
   23.9369  -19.7940  -15.4898 N   0  0  0  0  0  0  0  0  0  0  0  0
   22.5041  -19.8382  -15.7105 C   0  0  1  0  0  0  0  0  0  0  0  0
   22.0495  -21.2535  -15.5125 C   0  0  0  0  0  0  0  0  0  0  0  0
   20.6065  -21.4374  -15.7789 C   0  0  0  0  0  0  0  0  0  0  0  0
   19.6805  -20.4807  -16.1598 C   0  0  0  0  0  0  0  0  0  0  0  0
   18.4918  -21.0934  -16.2891 N   0  0  0  0  0  0  0  0  0  0  0  0
   18.6290  -22.3900  -16.0069 C   0  0  0  0  0  0  0  0  0  0  0  0
   19.9047  -22.5836  -15.7018 N   0  0  0  0  0  0  0  0  0  0  0  0
   21.8645  -18.9058  -14.7312 C   0  0  0  0  0  0  0  0  0  0  0  0
   20.6166  -18.7522  -14.6844 O   0  0  0  0  0  0  0  0  0  0  0  0
   22.6176  -18.1661  -13.8282 O   0  0  0  0  0  0  0  0  0  0  0  0
  2  1  1  1
  2  3  1  0
  2 10  1  0
  4  3  1  0
  4  9  1  0
  5  4  2  0
  6  5  1  0
  6  7  2  0
  7  8  1  0
  8  9  2  0
 10 11  2  0
 13 12  1  6
 13 14  1  0
 13 15  1  0
 15 16  1  6
 16 10  1  0
 17 15  1  0
 17 18  2  0
 19 17  1  0
 20 19  1  0
 20 27  1  0
 20 21  1  1
 22 21  1  0
 22 23  2  0
 24 23  1  0
 25 26  2  0
 25 24  1  0
 26 22  1  0
 27 28  2  0
 27 29  1  0
M  END
$$$$
