FVH.pdb
     RDKit          3D

 29 30  0  0  1  0  0  0  0  0999 V2000
   28.2924  -20.8297   -8.9445 N   0  0  0  0  0  0  0  0  0  0  0  0
   26.9339  -20.4251   -9.1390 C   0  0  1  0  0  0  0  0  0  0  0  0
   26.4972  -19.3828   -8.1308 C   0  0  0  0  0  0  0  0  0  0  0  0
   27.1275  -19.6906   -6.8351 C   0  0  0  0  0  0  0  0  0  0  0  0
   28.2551  -19.0263   -6.4182 C   0  0  0  0  0  0  0  0  0  0  0  0
   28.8605  -19.3143   -5.1978 C   0  0  0  0  0  0  0  0  0  0  0  0
   28.3196  -20.2852   -4.3895 C   0  0  0  0  0  0  0  0  0  0  0  0
   27.1819  -20.9693   -4.7888 C   0  0  0  0  0  0  0  0  0  0  0  0
   26.5967  -20.6572   -6.0207 C   0  0  0  0  0  0  0  0  0  0  0  0
   26.6421  -19.9549  -10.4968 C   0  0  0  0  0  0  0  0  0  0  0  0
   27.0914  -18.8517  -10.9361 O   0  0  0  0  0  0  0  0  0  0  0  0
   26.4188  -19.9834  -14.9627 C   0  0  0  0  0  0  0  0  0  0  0  0
   26.8185  -20.3426  -13.5497 C   0  0  2  0  0  0  0  0  0  0  0  0
   27.5540  -21.6532  -13.6029 C   0  0  0  0  0  0  0  0  0  0  0  0
   25.5550  -20.4416  -12.7216 C   0  0  2  0  0  0  0  0  0  0  0  0
   25.8281  -20.7635  -11.3481 N   0  0  0  0  0  0  0  0  0  0  0  0
   24.6667  -21.4916  -13.2728 C   0  0  0  0  0  0  0  0  0  0  0  0
   24.9159  -22.6954  -13.0256 O   0  0  0  0  0  0  0  0  0  0  0  0
   23.5413  -21.1745  -14.0729 N   0  0  0  0  0  0  0  0  0  0  0  0
   22.1925  -21.4943  -13.6463 C   0  0  1  0  0  0  0  0  0  0  0  0
   21.9574  -20.8317  -12.3217 C   0  0  0  0  0  0  0  0  0  0  0  0
   20.5613  -20.9628  -11.8520 C   0  0  0  0  0  0  0  0  0  0  0  0
   19.8226  -22.1222  -11.6850 C   0  0  0  0  0  0  0  0  0  0  0  0
   18.6049  -21.7687  -11.2405 N   0  0  0  0  0  0  0  0  0  0  0  0
   18.5455  -20.4414  -11.1208 C   0  0  0  0  0  0  0  0  0  0  0  0
   19.7277  -19.9691  -11.4914 N   0  0  0  0  0  0  0  0  0  0  0  0
   21.2527  -20.9908  -14.6954 C   0  0  0  0  0  0  0  0  0  0  0  0
   21.4466  -19.8960  -15.2845 O   0  0  0  0  0  0  0  0  0  0  0  0
   20.1228  -21.7075  -15.0684 O   0  0  0  0  0  0  0  0  0  0  0  0
  2  1  1  6
  2  3  1  0
  2 10  1  0
  4  3  1  0
  4  9  1  0
  5  4  2  0
  6  5  1  0
  6  7  2  0
  7  8  1  0
  8  9  2  0
 10 11  2  0
 13 12  1  6
 13 14  1  0
 13 15  1  0
 15 16  1  1
 16 10  1  0
 17 15  1  0
 17 18  2  0
 19 17  1  0
 20 19  1  0
 20 27  1  0
 20 21  1  1
 22 21  1  0
 22 23  2  0
 24 23  1  0
 25 26  2  0
 25 24  1  0
 26 22  1  0
 27 28  2  0
 27 29  1  0
M  END
$$$$
