FVH.pdb
     RDKit          3D

 29 30  0  0  1  0  0  0  0  0999 V2000
   27.8585  -19.6985  -16.4191 N   0  0  0  0  0  0  0  0  0  0  0  0
   27.0285  -19.1254  -15.4043 C   0  0  1  0  0  0  0  0  0  0  0  0
   26.1707  -17.9963  -15.9366 C   0  0  0  0  0  0  0  0  0  0  0  0
   27.0427  -16.8484  -16.2411 C   0  0  0  0  0  0  0  0  0  0  0  0
   27.2990  -15.8817  -15.2994 C   0  0  0  0  0  0  0  0  0  0  0  0
   28.1174  -14.7908  -15.5800 C   0  0  0  0  0  0  0  0  0  0  0  0
   28.6834  -14.6757  -16.8270 C   0  0  0  0  0  0  0  0  0  0  0  0
   28.4394  -15.6387  -17.7939 C   0  0  0  0  0  0  0  0  0  0  0  0
   27.6125  -16.7232  -17.4816 C   0  0  0  0  0  0  0  0  0  0  0  0
   26.1865  -20.1003  -14.7040 C   0  0  0  0  0  0  0  0  0  0  0  0
   25.6429  -21.0750  -15.3093 O   0  0  0  0  0  0  0  0  0  0  0  0
   25.5114  -19.6658  -10.4038 C   0  0  0  0  0  0  0  0  0  0  0  0
   25.5204  -20.9917  -11.1300 C   0  0  2  0  0  0  0  0  0  0  0  0
   26.9277  -21.5209  -11.0958 C   0  0  0  0  0  0  0  0  0  0  0  0
   25.0473  -20.7471  -12.5471 C   0  0  2  0  0  0  0  0  0  0  0  0
   25.9733  -19.9466  -13.2997 N   0  0  0  0  0  0  0  0  0  0  0  0
   23.7404  -20.0492  -12.5336 C   0  0  0  0  0  0  0  0  0  0  0  0
   23.7107  -18.8035  -12.6749 O   0  0  0  0  0  0  0  0  0  0  0  0
   22.5205  -20.7496  -12.3652 N   0  0  0  0  0  0  0  0  0  0  0  0
   21.2386  -20.0865  -12.5090 C   0  0  1  0  0  0  0  0  0  0  0  0
   21.1661  -19.5161  -13.8940 C   0  0  0  0  0  0  0  0  0  0  0  0
   19.8574  -18.8960  -14.1936 C   0  0  0  0  0  0  0  0  0  0  0  0
   18.7877  -18.7040  -13.3352 C   0  0  0  0  0  0  0  0  0  0  0  0
   17.8082  -18.1049  -14.0329 N   0  0  0  0  0  0  0  0  0  0  0  0
   18.2136  -17.9122  -15.2891 C   0  0  0  0  0  0  0  0  0  0  0  0
   19.4468  -18.3921  -15.3725 N   0  0  0  0  0  0  0  0  0  0  0  0
   20.1704  -21.1059  -12.2699 C   0  0  0  0  0  0  0  0  0  0  0  0
   20.3388  -22.3186  -12.5599 O   0  0  0  0  0  0  0  0  0  0  0  0
   18.9433  -20.7620  -11.7170 O   0  0  0  0  0  0  0  0  0  0  0  0
  2  1  1  6
  2  3  1  0
  2 10  1  0
  4  3  1  0
  4  9  1  0
  5  4  2  0
  6  5  1  0
  6  7  2  0
  7  8  1  0
  8  9  2  0
 10 11  2  0
 13 12  1  1
 13 14  1  0
 13 15  1  0
 15 16  1  6
 16 10  1  0
 17 15  1  0
 17 18  2  0
 19 17  1  0
 20 19  1  0
 20 27  1  0
 20 21  1  6
 22 21  1  0
 22 23  2  0
 24 23  1  0
 25 26  2  0
 25 24  1  0
 26 22  1  0
 27 28  2  0
 27 29  1  0
M  END
$$$$
