FVH.pdb
     RDKit          3D

 29 30  0  0  1  0  0  0  0  0999 V2000
   28.7317  -20.5484  -16.6842 N   0  0  0  0  0  0  0  0  0  0  0  0
   27.6857  -19.8595  -15.9926 C   0  0  1  0  0  0  0  0  0  0  0  0
   26.8736  -18.9762  -16.9167 C   0  0  0  0  0  0  0  0  0  0  0  0
   27.6636  -17.7724  -17.2288 C   0  0  0  0  0  0  0  0  0  0  0  0
   27.6666  -16.6868  -16.3872 C   0  0  0  0  0  0  0  0  0  0  0  0
   28.4060  -15.5431  -16.6768 C   0  0  0  0  0  0  0  0  0  0  0  0
   29.1510  -15.4962  -17.8306 C   0  0  0  0  0  0  0  0  0  0  0  0
   29.1637  -16.5794  -18.6957 C   0  0  0  0  0  0  0  0  0  0  0  0
   28.4103  -17.7143  -18.3771 C   0  0  0  0  0  0  0  0  0  0  0  0
   26.7912  -20.7417  -15.2366 C   0  0  0  0  0  0  0  0  0  0  0  0
   26.5279  -21.9218  -15.6236 O   0  0  0  0  0  0  0  0  0  0  0  0
   24.8566  -21.8379  -10.9191 C   0  0  0  0  0  0  0  0  0  0  0  0
   25.9048  -21.1585  -11.7706 C   0  0  2  0  0  0  0  0  0  0  0  0
   26.1666  -19.8022  -11.1761 C   0  0  0  0  0  0  0  0  0  0  0  0
   25.3625  -21.0578  -13.1805 C   0  0  2  0  0  0  0  0  0  0  0  0
   26.1999  -20.2565  -14.0299 N   0  0  0  0  0  0  0  0  0  0  0  0
   24.0103  -20.4522  -13.1633 C   0  0  0  0  0  0  0  0  0  0  0  0
   23.8948  -19.2192  -12.9664 O   0  0  0  0  0  0  0  0  0  0  0  0
   22.8415  -21.2273  -13.3632 N   0  0  0  0  0  0  0  0  0  0  0  0
   21.5249  -20.6199  -13.3981 C   0  0  1  0  0  0  0  0  0  0  0  0
   20.8491  -21.0540  -14.6645 C   0  0  0  0  0  0  0  0  0  0  0  0
   21.4403  -20.4391  -15.8726 C   0  0  0  0  0  0  0  0  0  0  0  0
   21.6076  -19.0926  -16.1498 C   0  0  0  0  0  0  0  0  0  0  0  0
   22.1857  -18.9946  -17.3588 N   0  0  0  0  0  0  0  0  0  0  0  0
   22.3887  -20.2170  -17.8528 C   0  0  0  0  0  0  0  0  0  0  0  0
   21.9364  -21.0761  -16.9498 N   0  0  0  0  0  0  0  0  0  0  0  0
   20.7806  -21.0784  -12.1844 C   0  0  0  0  0  0  0  0  0  0  0  0
   21.0555  -22.1653  -11.6132 O   0  0  0  0  0  0  0  0  0  0  0  0
   19.7518  -20.3266  -11.6312 O   0  0  0  0  0  0  0  0  0  0  0  0
  2  1  1  6
  2  3  1  0
  2 10  1  0
  4  3  1  0
  4  9  1  0
  5  4  2  0
  6  5  1  0
  6  7  2  0
  7  8  1  0
  8  9  2  0
 10 11  2  0
 13 12  1  1
 13 14  1  0
 13 15  1  0
 15 16  1  6
 16 10  1  0
 17 15  1  0
 17 18  2  0
 19 17  1  0
 20 19  1  0
 20 27  1  0
 20 21  1  6
 22 21  1  0
 22 23  2  0
 24 23  1  0
 25 26  2  0
 25 24  1  0
 26 22  1  0
 27 28  2  0
 27 29  1  0
M  END
$$$$
