FVH.pdb
     RDKit          3D

 29 30  0  0  1  0  0  0  0  0999 V2000
   22.2654  -11.2028  -21.0134 N   0  0  0  0  0  0  0  0  0  0  0  0
   22.7925  -10.0347  -20.3771 C   0  0  1  0  0  0  0  0  0  0  0  0
   22.7376   -8.8183  -21.2779 C   0  0  0  0  0  0  0  0  0  0  0  0
   23.5839   -9.0697  -22.4574 C   0  0  0  0  0  0  0  0  0  0  0  0
   24.9417   -8.8667  -22.4136 C   0  0  0  0  0  0  0  0  0  0  0  0
   25.7485   -9.0966  -23.5249 C   0  0  0  0  0  0  0  0  0  0  0  0
   25.1760   -9.5367  -24.6941 C   0  0  0  0  0  0  0  0  0  0  0  0
   23.8077   -9.7487  -24.7626 C   0  0  0  0  0  0  0  0  0  0  0  0
   23.0237   -9.5087  -23.6291 C   0  0  0  0  0  0  0  0  0  0  0  0
   22.1662   -9.7260  -19.0879 C   0  0  0  0  0  0  0  0  0  0  0  0
   20.9099   -9.7956  -18.9182 O   0  0  0  0  0  0  0  0  0  0  0  0
   22.8942   -9.2236  -14.2536 C   0  0  0  0  0  0  0  0  0  0  0  0
   23.4332   -9.6462  -15.6013 C   0  0  2  0  0  0  0  0  0  0  0  0
   24.8183   -9.0767  -15.7376 C   0  0  0  0  0  0  0  0  0  0  0  0
   22.4984   -9.1082  -16.6637 C   0  0  2  0  0  0  0  0  0  0  0  0
   22.9961   -9.3356  -17.9924 N   0  0  0  0  0  0  0  0  0  0  0  0
   22.3117   -7.6492  -16.4853 C   0  0  0  0  0  0  0  0  0  0  0  0
   23.1949   -6.8638  -16.9044 O   0  0  0  0  0  0  0  0  0  0  0  0
   21.1620   -7.1144  -15.8536 N   0  0  0  0  0  0  0  0  0  0  0  0
   20.8760   -5.6926  -15.8759 C   0  0  1  0  0  0  0  0  0  0  0  0
   20.7616   -5.2667  -17.3092 C   0  0  0  0  0  0  0  0  0  0  0  0
   20.4031   -3.8399  -17.4590 C   0  0  0  0  0  0  0  0  0  0  0  0
   21.2544   -2.7561  -17.5964 C   0  0  0  0  0  0  0  0  0  0  0  0
   20.4951   -1.6527  -17.7021 N   0  0  0  0  0  0  0  0  0  0  0  0
   19.2070   -1.9939  -17.6374 C   0  0  0  0  0  0  0  0  0  0  0  0
   19.1655   -3.3111  -17.4913 N   0  0  0  0  0  0  0  0  0  0  0  0
   19.6001   -5.4740  -15.1264 C   0  0  0  0  0  0  0  0  0  0  0  0
   18.7429   -6.3866  -15.0025 O   0  0  0  0  0  0  0  0  0  0  0  0
   19.3019   -4.2542  -14.5325 O   0  0  0  0  0  0  0  0  0  0  0  0
  2  1  1  6
  2  3  1  0
  2 10  1  0
  4  3  1  0
  4  9  1  0
  5  4  2  0
  6  5  1  0
  6  7  2  0
  7  8  1  0
  8  9  2  0
 10 11  2  0
 13 12  1  1
 13 14  1  0
 13 15  1  0
 15 16  1  6
 16 10  1  0
 17 15  1  0
 17 18  2  0
 19 17  1  0
 20 19  1  0
 20 27  1  0
 20 21  1  6
 22 21  1  0
 22 23  2  0
 24 23  1  0
 25 26  2  0
 25 24  1  0
 26 22  1  0
 27 28  2  0
 27 29  1  0
M  END
$$$$
