FVH.pdb
     RDKit          3D

 29 30  0  0  1  0  0  0  0  0999 V2000
   23.2947  -19.2954  -18.8249 N   0  0  0  0  0  0  0  0  0  0  0  0
   23.4754  -18.7472  -17.5158 C   0  0  1  0  0  0  0  0  0  0  0  0
   22.1573  -18.4188  -16.8459 C   0  0  0  0  0  0  0  0  0  0  0  0
   21.5844  -17.2276  -17.4968 C   0  0  0  0  0  0  0  0  0  0  0  0
   20.7400  -17.3438  -18.5739 C   0  0  0  0  0  0  0  0  0  0  0  0
   20.1983  -16.2234  -19.1985 C   0  0  0  0  0  0  0  0  0  0  0  0
   20.5138  -14.9711  -18.7287 C   0  0  0  0  0  0  0  0  0  0  0  0
   21.3640  -14.8286  -17.6430 C   0  0  0  0  0  0  0  0  0  0  0  0
   21.8923  -15.9734  -17.0368 C   0  0  0  0  0  0  0  0  0  0  0  0
   24.2883  -19.5840  -16.6277 C   0  0  0  0  0  0  0  0  0  0  0  0
   24.1208  -20.8400  -16.5497 O   0  0  0  0  0  0  0  0  0  0  0  0
   28.3284  -19.8509  -13.8196 C   0  0  0  0  0  0  0  0  0  0  0  0
   27.5541  -19.1054  -14.8827 C   0  0  2  0  0  0  0  0  0  0  0  0
   27.5309  -17.6524  -14.4956 C   0  0  0  0  0  0  0  0  0  0  0  0
   26.1602  -19.6934  -14.9387 C   0  0  2  0  0  0  0  0  0  0  0  0
   25.2976  -18.9653  -15.8278 N   0  0  0  0  0  0  0  0  0  0  0  0
   25.5480  -19.6800  -13.5895 C   0  0  0  0  0  0  0  0  0  0  0  0
   24.9495  -18.6493  -13.1996 O   0  0  0  0  0  0  0  0  0  0  0  0
   25.6191  -20.8001  -12.7251 N   0  0  0  0  0  0  0  0  0  0  0  0
   25.0107  -20.7826  -11.4086 C   0  0  1  0  0  0  0  0  0  0  0  0
   24.0407  -21.9237  -11.3325 C   0  0  0  0  0  0  0  0  0  0  0  0
   22.6964  -21.5714  -11.8382 C   0  0  0  0  0  0  0  0  0  0  0  0
   22.2438  -20.3354  -12.2689 C   0  0  0  0  0  0  0  0  0  0  0  0
   20.9603  -20.4785  -12.6398 N   0  0  0  0  0  0  0  0  0  0  0  0
   20.5868  -21.7467  -12.4617 C   0  0  0  0  0  0  0  0  0  0  0  0
   21.6394  -22.3929  -11.9795 N   0  0  0  0  0  0  0  0  0  0  0  0
   26.1069  -20.9154  -10.3996 C   0  0  0  0  0  0  0  0  0  0  0  0
   27.1716  -21.5336  -10.6595 O   0  0  0  0  0  0  0  0  0  0  0  0
   26.0013  -20.3631   -9.1294 O   0  0  0  0  0  0  0  0  0  0  0  0
  2  1  1  6
  2  3  1  0
  2 10  1  0
  4  3  1  0
  4  9  1  0
  5  4  2  0
  6  5  1  0
  6  7  2  0
  7  8  1  0
  8  9  2  0
 10 11  2  0
 13 12  1  1
 13 14  1  0
 13 15  1  0
 15 16  1  6
 16 10  1  0
 17 15  1  0
 17 18  2  0
 19 17  1  0
 20 19  1  0
 20 27  1  0
 20 21  1  6
 22 21  1  0
 22 23  2  0
 24 23  1  0
 25 26  2  0
 25 24  1  0
 26 22  1  0
 27 28  2  0
 27 29  1  0
M  END
$$$$
