FVH.pdb
     RDKit          3D

 29 30  0  0  1  0  0  0  0  0999 V2000
   28.0344  -21.6544   -9.1744 N   0  0  0  0  0  0  0  0  0  0  0  0
   26.9374  -20.7388   -9.2472 C   0  0  1  0  0  0  0  0  0  0  0  0
   27.2181  -19.4491   -8.5044 C   0  0  0  0  0  0  0  0  0  0  0  0
   27.6337  -19.7803   -7.1303 C   0  0  0  0  0  0  0  0  0  0  0  0
   28.7728  -19.2417   -6.5834 C   0  0  0  0  0  0  0  0  0  0  0  0
   29.1760  -19.5532   -5.2876 C   0  0  0  0  0  0  0  0  0  0  0  0
   28.4189  -20.4193   -4.5359 C   0  0  0  0  0  0  0  0  0  0  0  0
   27.2652  -20.9757   -5.0661 C   0  0  0  0  0  0  0  0  0  0  0  0
   26.8863  -20.6433   -6.3712 C   0  0  0  0  0  0  0  0  0  0  0  0
   26.5029  -20.4389  -10.6151 C   0  0  0  0  0  0  0  0  0  0  0  0
   27.2862  -19.9220  -11.4700 O   0  0  0  0  0  0  0  0  0  0  0  0
   23.4703  -22.6902  -12.1194 C   0  0  0  0  0  0  0  0  0  0  0  0
   24.3775  -21.8799  -13.0171 C   0  0  2  0  0  0  0  0  0  0  0  0
   25.6378  -22.6729  -13.2274 C   0  0  0  0  0  0  0  0  0  0  0  0
   24.6533  -20.5606  -12.3278 C   0  0  2  0  0  0  0  0  0  0  0  0
   25.1583  -20.7382  -10.9942 N   0  0  0  0  0  0  0  0  0  0  0  0
   23.4096  -19.7595  -12.2463 C   0  0  0  0  0  0  0  0  0  0  0  0
   22.7602  -19.7455  -11.1736 O   0  0  0  0  0  0  0  0  0  0  0  0
   22.9313  -19.0074  -13.3475 N   0  0  0  0  0  0  0  0  0  0  0  0
   21.6930  -18.2559  -13.2727 C   0  0  1  0  0  0  0  0  0  0  0  0
   21.6618  -17.3004  -14.4281 C   0  0  0  0  0  0  0  0  0  0  0  0
   20.4030  -16.5279  -14.5025 C   0  0  0  0  0  0  0  0  0  0  0  0
   19.3334  -16.5526  -13.6231 C   0  0  0  0  0  0  0  0  0  0  0  0
   18.4087  -15.6928  -14.0823 N   0  0  0  0  0  0  0  0  0  0  0  0
   18.8485  -15.1299  -15.2089 C   0  0  0  0  0  0  0  0  0  0  0  0
   20.0482  -15.6403  -15.4504 N   0  0  0  0  0  0  0  0  0  0  0  0
   20.5634  -19.2348  -13.3288 C   0  0  0  0  0  0  0  0  0  0  0  0
   19.5258  -19.0856  -12.6329 O   0  0  0  0  0  0  0  0  0  0  0  0
   20.6067  -20.3535  -14.1511 O   0  0  0  0  0  0  0  0  0  0  0  0
  2  1  1  6
  2  3  1  0
  2 10  1  0
  4  3  1  0
  4  9  1  0
  5  4  2  0
  6  5  1  0
  6  7  2  0
  7  8  1  0
  8  9  2  0
 10 11  2  0
 13 12  1  1
 13 14  1  0
 13 15  1  0
 15 16  1  1
 16 10  1  0
 17 15  1  0
 17 18  2  0
 19 17  1  0
 20 19  1  0
 20 27  1  0
 20 21  1  6
 22 21  1  0
 22 23  2  0
 24 23  1  0
 25 26  2  0
 25 24  1  0
 26 22  1  0
 27 28  2  0
 27 29  1  0
M  END
$$$$
