FVH.pdb
     RDKit          3D

 29 30  0  0  1  0  0  0  0  0999 V2000
   27.8339  -21.6240   -9.3713 N   0  0  0  0  0  0  0  0  0  0  0  0
   26.8127  -20.6252   -9.2891 C   0  0  1  0  0  0  0  0  0  0  0  0
   27.2730  -19.3972   -8.5315 C   0  0  0  0  0  0  0  0  0  0  0  0
   27.6829  -19.8079   -7.1772 C   0  0  0  0  0  0  0  0  0  0  0  0
   28.9753  -19.6378   -6.7441 C   0  0  0  0  0  0  0  0  0  0  0  0
   29.3728  -20.0279   -5.4680 C   0  0  0  0  0  0  0  0  0  0  0  0
   28.4531  -20.5964   -4.6197 C   0  0  0  0  0  0  0  0  0  0  0  0
   27.1428  -20.7784   -5.0344 C   0  0  0  0  0  0  0  0  0  0  0  0
   26.7741  -20.3763   -6.3226 C   0  0  0  0  0  0  0  0  0  0  0  0
   26.2625  -20.2289  -10.5891 C   0  0  0  0  0  0  0  0  0  0  0  0
   26.6851  -19.2074  -11.2134 O   0  0  0  0  0  0  0  0  0  0  0  0
   24.1446  -23.1603  -12.6005 C   0  0  0  0  0  0  0  0  0  0  0  0
   24.7562  -22.0058  -13.3611 C   0  0  2  0  0  0  0  0  0  0  0  0
   26.1778  -22.3747  -13.6844 C   0  0  0  0  0  0  0  0  0  0  0  0
   24.6821  -20.7781  -12.4783 C   0  0  2  0  0  0  0  0  0  0  0  0
   25.2206  -21.0168  -11.1677 N   0  0  0  0  0  0  0  0  0  0  0  0
   23.2732  -20.3458  -12.3257 C   0  0  0  0  0  0  0  0  0  0  0  0
   22.6110  -20.7548  -11.3424 O   0  0  0  0  0  0  0  0  0  0  0  0
   22.6508  -19.4819  -13.2602 N   0  0  0  0  0  0  0  0  0  0  0  0
   21.3077  -18.9767  -13.0491 C   0  0  1  0  0  0  0  0  0  0  0  0
   21.2431  -17.5875  -13.6102 C   0  0  0  0  0  0  0  0  0  0  0  0
   19.8714  -17.0351  -13.6234 C   0  0  0  0  0  0  0  0  0  0  0  0
   18.8736  -17.2061  -12.6783 C   0  0  0  0  0  0  0  0  0  0  0  0
   17.7939  -16.5256  -13.0984 N   0  0  0  0  0  0  0  0  0  0  0  0
   18.0681  -15.9356  -14.2630 C   0  0  0  0  0  0  0  0  0  0  0  0
   19.3198  -16.2497  -14.5674 N   0  0  0  0  0  0  0  0  0  0  0  0
   20.3598  -19.9024  -13.7433 C   0  0  0  0  0  0  0  0  0  0  0  0
   20.6805  -20.5042  -14.8007 O   0  0  0  0  0  0  0  0  0  0  0  0
   19.0819  -20.1410  -13.2537 O   0  0  0  0  0  0  0  0  0  0  0  0
  2  1  1  6
  2  3  1  0
  2 10  1  0
  4  3  1  0
  4  9  1  0
  5  4  2  0
  6  5  1  0
  6  7  2  0
  7  8  1  0
  8  9  2  0
 10 11  2  0
 13 12  1  1
 13 14  1  0
 13 15  1  0
 15 16  1  1
 16 10  1  0
 17 15  1  0
 17 18  2  0
 19 17  1  0
 20 19  1  0
 20 27  1  0
 20 21  1  6
 22 21  1  0
 22 23  2  0
 24 23  1  0
 25 26  2  0
 25 24  1  0
 26 22  1  0
 27 28  2  0
 27 29  1  0
M  END
$$$$
