FVH.pdb
     RDKit          3D

 29 30  0  0  1  0  0  0  0  0999 V2000
   24.1233  -14.5608    9.2308 N   0  0  0  0  0  0  0  0  0  0  0  0
   24.7698  -15.3158   10.2599 C   0  0  1  0  0  0  0  0  0  0  0  0
   23.8304  -15.6511   11.3996 C   0  0  0  0  0  0  0  0  0  0  0  0
   23.3493  -14.3928   11.9964 C   0  0  0  0  0  0  0  0  0  0  0  0
   22.0421  -13.9946   11.8565 C   0  0  0  0  0  0  0  0  0  0  0  0
   21.5801  -12.8046   12.4125 C   0  0  0  0  0  0  0  0  0  0  0  0
   22.4495  -12.0079   13.1180 C   0  0  0  0  0  0  0  0  0  0  0  0
   23.7735  -12.3887   13.2726 C   0  0  0  0  0  0  0  0  0  0  0  0
   24.2077  -13.5900   12.7021 C   0  0  0  0  0  0  0  0  0  0  0  0
   25.4232  -16.5375    9.7799 C   0  0  0  0  0  0  0  0  0  0  0  0
   24.9376  -17.2310    8.8339 O   0  0  0  0  0  0  0  0  0  0  0  0
   29.3251  -16.7173    9.2323 C   0  0  0  0  0  0  0  0  0  0  0  0
   28.2961  -17.7173    8.7564 C   0  0  2  0  0  0  0  0  0  0  0  0
   27.5080  -17.0701    7.6512 C   0  0  0  0  0  0  0  0  0  0  0  0
   27.4178  -18.0756    9.9362 C   0  0  2  0  0  0  0  0  0  0  0  0
   26.6417  -16.9574   10.3965 N   0  0  0  0  0  0  0  0  0  0  0  0
   28.2513  -18.5532   11.0643 C   0  0  0  0  0  0  0  0  0  0  0  0
   28.4879  -17.7780   12.0211 O   0  0  0  0  0  0  0  0  0  0  0  0
   28.7900  -19.8632   11.0936 N   0  0  0  0  0  0  0  0  0  0  0  0
   29.3410  -20.4301   12.3095 C   0  0  1  0  0  0  0  0  0  0  0  0
   28.2689  -20.4059   13.3578 C   0  0  0  0  0  0  0  0  0  0  0  0
   28.7239  -20.9410   14.6592 C   0  0  0  0  0  0  0  0  0  0  0  0
   29.9613  -21.4762   14.9761 C   0  0  0  0  0  0  0  0  0  0  0  0
   29.9304  -21.8347   16.2706 N   0  0  0  0  0  0  0  0  0  0  0  0
   28.7312  -21.5493   16.7805 C   0  0  0  0  0  0  0  0  0  0  0  0
   28.0156  -21.0127   15.8018 N   0  0  0  0  0  0  0  0  0  0  0  0
   29.7858  -21.8243   11.9999 C   0  0  0  0  0  0  0  0  0  0  0  0
   30.9101  -22.2548   12.3656 O   0  0  0  0  0  0  0  0  0  0  0  0
   28.9793  -22.7085   11.2947 O   0  0  0  0  0  0  0  0  0  0  0  0
  2  1  1  6
  2  3  1  0
  2 10  1  0
  4  3  1  0
  4  9  1  0
  5  4  2  0
  6  5  1  0
  6  7  2  0
  7  8  1  0
  8  9  2  0
 10 11  2  0
 13 12  1  1
 13 14  1  0
 13 15  1  0
 15 16  1  1
 16 10  1  0
 17 15  1  0
 17 18  2  0
 19 17  1  0
 20 19  1  0
 20 27  1  0
 20 21  1  1
 22 21  1  0
 22 23  2  0
 24 23  1  0
 25 26  2  0
 25 24  1  0
 26 22  1  0
 27 28  2  0
 27 29  1  0
M  END
$$$$
