FVH.pdb
     RDKit          3D

 29 30  0  0  1  0  0  0  0  0999 V2000
   17.7555  -12.1197  -15.0034 N   0  0  0  0  0  0  0  0  0  0  0  0
   18.0602  -10.8326  -15.5490 C   0  0  1  0  0  0  0  0  0  0  0  0
   16.8120  -10.0354  -15.8661 C   0  0  0  0  0  0  0  0  0  0  0  0
   16.0540  -10.7466  -16.9103 C   0  0  0  0  0  0  0  0  0  0  0  0
   16.5182  -10.8175  -18.2011 C   0  0  0  0  0  0  0  0  0  0  0  0
   15.8060  -11.4828  -19.1954 C   0  0  0  0  0  0  0  0  0  0  0  0
   14.6106  -12.0835  -18.8813 C   0  0  0  0  0  0  0  0  0  0  0  0
   14.1216  -12.0254  -17.5854 C   0  0  0  0  0  0  0  0  0  0  0  0
   14.8603  -11.3493  -16.6084 C   0  0  0  0  0  0  0  0  0  0  0  0
   18.9619  -10.0317  -14.7152 C   0  0  0  0  0  0  0  0  0  0  0  0
   18.8143   -9.9465  -13.4572 O   0  0  0  0  0  0  0  0  0  0  0  0
   22.7577   -9.1199  -16.2202 C   0  0  0  0  0  0  0  0  0  0  0  0
   22.4058   -9.1116  -14.7499 C   0  0  2  0  0  0  0  0  0  0  0  0
   22.4935  -10.5279  -14.2519 C   0  0  0  0  0  0  0  0  0  0  0  0
   21.0051   -8.5541  -14.6118 C   0  0  2  0  0  0  0  0  0  0  0  0
   20.0371   -9.3276  -15.3394 N   0  0  0  0  0  0  0  0  0  0  0  0
   20.9590   -7.1631  -15.1199 C   0  0  0  0  0  0  0  0  0  0  0  0
   20.3479   -6.9220  -16.1881 O   0  0  0  0  0  0  0  0  0  0  0  0
   21.5866   -6.0949  -14.4327 N   0  0  0  0  0  0  0  0  0  0  0  0
   21.5083   -4.7303  -14.9178 C   0  0  1  0  0  0  0  0  0  0  0  0
   20.0617   -4.3983  -15.1322 C   0  0  0  0  0  0  0  0  0  0  0  0
   19.8508   -3.0041  -15.5777 C   0  0  0  0  0  0  0  0  0  0  0  0
   20.1923   -2.4360  -16.7936 C   0  0  0  0  0  0  0  0  0  0  0  0
   19.8139   -1.1471  -16.7615 N   0  0  0  0  0  0  0  0  0  0  0  0
   19.2510   -0.8804  -15.5819 C   0  0  0  0  0  0  0  0  0  0  0  0
   19.2793   -2.0048  -14.8798 N   0  0  0  0  0  0  0  0  0  0  0  0
   22.1361   -3.8454  -13.8881 C   0  0  0  0  0  0  0  0  0  0  0  0
   22.5529   -4.3011  -12.7919 O   0  0  0  0  0  0  0  0  0  0  0  0
   22.2884   -2.4800  -14.0935 O   0  0  0  0  0  0  0  0  0  0  0  0
  2  1  1  1
  2  3  1  0
  2 10  1  0
  4  3  1  0
  4  9  1  0
  5  4  2  0
  6  5  1  0
  6  7  2  0
  7  8  1  0
  8  9  2  0
 10 11  2  0
 13 12  1  6
 13 14  1  0
 13 15  1  0
 15 16  1  6
 16 10  1  0
 17 15  1  0
 17 18  2  0
 19 17  1  0
 20 19  1  0
 20 27  1  0
 20 21  1  1
 22 21  1  0
 22 23  2  0
 24 23  1  0
 25 26  2  0
 25 24  1  0
 26 22  1  0
 27 28  2  0
 27 29  1  0
M  END
$$$$
