FVH.pdb
     RDKit          3D

 29 30  0  0  1  0  0  0  0  0999 V2000
   29.1107   -9.9507  -18.6073 N   0  0  0  0  0  0  0  0  0  0  0  0
   27.9163  -10.0782  -17.8300 C   0  0  1  0  0  0  0  0  0  0  0  0
   28.1977  -10.5681  -16.4247 C   0  0  0  0  0  0  0  0  0  0  0  0
   28.6257  -11.9761  -16.4958 C   0  0  0  0  0  0  0  0  0  0  0  0
   29.9570  -12.3144  -16.5003 C   0  0  0  0  0  0  0  0  0  0  0  0
   30.3706  -13.6419  -16.5727 C   0  0  0  0  0  0  0  0  0  0  0  0
   29.4275  -14.6391  -16.6412 C   0  0  0  0  0  0  0  0  0  0  0  0
   28.0778  -14.3224  -16.6382 C   0  0  0  0  0  0  0  0  0  0  0  0
   27.6937  -12.9791  -16.5647 C   0  0  0  0  0  0  0  0  0  0  0  0
   27.1081   -8.8560  -17.7768 C   0  0  0  0  0  0  0  0  0  0  0  0
   27.6213   -7.7225  -17.5244 O   0  0  0  0  0  0  0  0  0  0  0  0
   23.9048   -8.4370  -20.1885 C   0  0  0  0  0  0  0  0  0  0  0  0
   24.5320   -7.3040  -19.4085 C   0  0  2  0  0  0  0  0  0  0  0  0
   25.7883   -6.8960  -20.1273 C   0  0  0  0  0  0  0  0  0  0  0  0
   24.8239   -7.8091  -18.0115 C   0  0  2  0  0  0  0  0  0  0  0  0
   25.7025   -8.9461  -18.0162 N   0  0  0  0  0  0  0  0  0  0  0  0
   23.5637   -8.2037  -17.3397 C   0  0  0  0  0  0  0  0  0  0  0  0
   23.0790   -9.3379  -17.5660 O   0  0  0  0  0  0  0  0  0  0  0  0
   22.8886   -7.3351  -16.4470 N   0  0  0  0  0  0  0  0  0  0  0  0
   21.6073   -7.6894  -15.8669 C   0  0  1  0  0  0  0  0  0  0  0  0
   21.8188   -7.9537  -14.4060 C   0  0  0  0  0  0  0  0  0  0  0  0
   22.3003   -9.3250  -14.1327 C   0  0  0  0  0  0  0  0  0  0  0  0
   22.6080  -10.3191  -15.0464 C   0  0  0  0  0  0  0  0  0  0  0  0
   23.0051  -11.3999  -14.3539 N   0  0  0  0  0  0  0  0  0  0  0  0
   22.9607  -11.1299  -13.0483 C   0  0  0  0  0  0  0  0  0  0  0  0
   22.5355   -9.8797  -12.9289 N   0  0  0  0  0  0  0  0  0  0  0  0
   20.6726   -6.5443  -16.0960 C   0  0  0  0  0  0  0  0  0  0  0  0
   21.0859   -5.4247  -16.4947 O   0  0  0  0  0  0  0  0  0  0  0  0
   19.3056   -6.6629  -15.8798 O   0  0  0  0  0  0  0  0  0  0  0  0
  2  1  1  1
  2  3  1  0
  2 10  1  0
  4  3  1  0
  4  9  1  0
  5  4  2  0
  6  5  1  0
  6  7  2  0
  7  8  1  0
  8  9  2  0
 10 11  2  0
 13 12  1  6
 13 14  1  0
 13 15  1  0
 15 16  1  6
 16 10  1  0
 17 15  1  0
 17 18  2  0
 19 17  1  0
 20 19  1  0
 20 27  1  0
 20 21  1  1
 22 21  1  0
 22 23  2  0
 24 23  1  0
 25 26  2  0
 25 24  1  0
 26 22  1  0
 27 28  2  0
 27 29  1  0
M  END
$$$$
