FVH.pdb
     RDKit          3D

 29 30  0  0  1  0  0  0  0  0999 V2000
   24.9645  -14.9126  -18.6451 N   0  0  0  0  0  0  0  0  0  0  0  0
   24.7194  -15.8719  -17.6123 C   0  0  1  0  0  0  0  0  0  0  0  0
   25.6708  -15.7117  -16.4448 C   0  0  0  0  0  0  0  0  0  0  0  0
   27.0392  -15.9923  -16.9132 C   0  0  0  0  0  0  0  0  0  0  0  0
   27.8394  -14.9920  -17.4090 C   0  0  0  0  0  0  0  0  0  0  0  0
   29.1318  -15.2490  -17.8587 C   0  0  0  0  0  0  0  0  0  0  0  0
   29.6211  -16.5320  -17.8066 C   0  0  0  0  0  0  0  0  0  0  0  0
   28.8323  -17.5584  -17.3104 C   0  0  0  0  0  0  0  0  0  0  0  0
   27.5378  -17.2685  -16.8661 C   0  0  0  0  0  0  0  0  0  0  0  0
   23.3359  -15.8826  -17.1268 C   0  0  0  0  0  0  0  0  0  0  0  0
   22.5909  -14.8573  -17.2003 O   0  0  0  0  0  0  0  0  0  0  0  0
   19.1294  -17.5667  -16.9842 C   0  0  0  0  0  0  0  0  0  0  0  0
   20.5250  -17.1876  -17.4247 C   0  0  2  0  0  0  0  0  0  0  0  0
   20.9458  -18.1589  -18.4928 C   0  0  0  0  0  0  0  0  0  0  0  0
   21.4293  -17.2602  -16.2126 C   0  0  2  0  0  0  0  0  0  0  0  0
   22.8135  -17.0831  -16.5549 N   0  0  0  0  0  0  0  0  0  0  0  0
   21.2839  -18.5763  -15.5478 C   0  0  0  0  0  0  0  0  0  0  0  0
   21.7296  -19.6013  -16.1163 O   0  0  0  0  0  0  0  0  0  0  0  0
   20.6548  -18.7108  -14.2856 N   0  0  0  0  0  0  0  0  0  0  0  0
   20.7252  -19.9471  -13.5304 C   0  0  1  0  0  0  0  0  0  0  0  0
   21.4344  -19.6610  -12.2405 C   0  0  0  0  0  0  0  0  0  0  0  0
   22.7995  -20.2279  -12.1959 C   0  0  0  0  0  0  0  0  0  0  0  0
   23.4615  -20.9373  -13.1840 C   0  0  0  0  0  0  0  0  0  0  0  0
   24.6780  -21.2561  -12.7108 N   0  0  0  0  0  0  0  0  0  0  0  0
   24.8098  -20.7796  -11.4718 C   0  0  0  0  0  0  0  0  0  0  0  0
   23.6739  -20.1638  -11.1743 N   0  0  0  0  0  0  0  0  0  0  0  0
   19.3249  -20.4209  -13.3029 C   0  0  0  0  0  0  0  0  0  0  0  0
   19.0831  -21.5127  -12.7260 O   0  0  0  0  0  0  0  0  0  0  0  0
   18.2263  -19.6786  -13.7173 O   0  0  0  0  0  0  0  0  0  0  0  0
  2  1  1  6
  2  3  1  0
  2 10  1  0
  4  3  1  0
  4  9  1  0
  5  4  2  0
  6  5  1  0
  6  7  2  0
  7  8  1  0
  8  9  2  0
 10 11  2  0
 13 12  1  1
 13 14  1  0
 13 15  1  0
 15 16  1  6
 16 10  1  0
 17 15  1  0
 17 18  2  0
 19 17  1  0
 20 19  1  0
 20 27  1  0
 20 21  1  1
 22 21  1  0
 22 23  2  0
 24 23  1  0
 25 26  2  0
 25 24  1  0
 26 22  1  0
 27 28  2  0
 27 29  1  0
M  END
$$$$
