FVH.pdb
     RDKit          3D

 29 30  0  0  1  0  0  0  0  0999 V2000
   29.3101  -23.3966  -17.1557 N   0  0  0  0  0  0  0  0  0  0  0  0
   28.5067  -22.2290  -16.9597 C   0  0  1  0  0  0  0  0  0  0  0  0
   27.6276  -21.9317  -18.1567 C   0  0  0  0  0  0  0  0  0  0  0  0
   28.4747  -21.4066  -19.2418 C   0  0  0  0  0  0  0  0  0  0  0  0
   28.7509  -20.0648  -19.3411 C   0  0  0  0  0  0  0  0  0  0  0  0
   29.5460  -19.5591  -20.3662 C   0  0  0  0  0  0  0  0  0  0  0  0
   30.0679  -20.4199  -21.3018 C   0  0  0  0  0  0  0  0  0  0  0  0
   29.8029  -21.7783  -21.2224 C   0  0  0  0  0  0  0  0  0  0  0  0
   29.0005  -22.2560  -20.1807 C   0  0  0  0  0  0  0  0  0  0  0  0
   27.6909  -22.2660  -15.7420 C   0  0  0  0  0  0  0  0  0  0  0  0
   27.1732  -23.3430  -15.3135 O   0  0  0  0  0  0  0  0  0  0  0  0
   28.1577  -19.1011  -12.9303 C   0  0  0  0  0  0  0  0  0  0  0  0
   27.7941  -20.5403  -12.6439 C   0  0  2  0  0  0  0  0  0  0  0  0
   29.0674  -21.3404  -12.6401 C   0  0  0  0  0  0  0  0  0  0  0  0
   26.8441  -21.0029  -13.7280 C   0  0  2  0  0  0  0  0  0  0  0  0
   27.4739  -21.0532  -15.0186 N   0  0  0  0  0  0  0  0  0  0  0  0
   25.6862  -20.0826  -13.8163 C   0  0  0  0  0  0  0  0  0  0  0  0
   25.7475  -19.0944  -14.5859 O   0  0  0  0  0  0  0  0  0  0  0  0
   24.5092  -20.2869  -13.0549 N   0  0  0  0  0  0  0  0  0  0  0  0
   23.1912  -20.0919  -13.6280 C   0  0  1  0  0  0  0  0  0  0  0  0
   23.0586  -21.0111  -14.8054 C   0  0  0  0  0  0  0  0  0  0  0  0
   21.7571  -20.8794  -15.4951 C   0  0  0  0  0  0  0  0  0  0  0  0
   20.9545  -19.7552  -15.5953 C   0  0  0  0  0  0  0  0  0  0  0  0
   19.8683  -20.0929  -16.3104 N   0  0  0  0  0  0  0  0  0  0  0  0
   19.9521  -21.3766  -16.6633 C   0  0  0  0  0  0  0  0  0  0  0  0
   21.0919  -21.8376  -16.1671 N   0  0  0  0  0  0  0  0  0  0  0  0
   22.1838  -20.3987  -12.5657 C   0  0  0  0  0  0  0  0  0  0  0  0
   20.9815  -20.0441  -12.6742 O   0  0  0  0  0  0  0  0  0  0  0  0
   22.5280  -21.0890  -11.4104 O   0  0  0  0  0  0  0  0  0  0  0  0
  2  1  1  6
  2  3  1  0
  2 10  1  0
  4  3  1  0
  4  9  1  0
  5  4  2  0
  6  5  1  0
  6  7  2  0
  7  8  1  0
  8  9  2  0
 10 11  2  0
 13 12  1  6
 13 14  1  0
 13 15  1  0
 15 16  1  6
 16 10  1  0
 17 15  1  0
 17 18  2  0
 19 17  1  0
 20 19  1  0
 20 27  1  0
 20 21  1  6
 22 21  1  0
 22 23  2  0
 24 23  1  0
 25 26  2  0
 25 24  1  0
 26 22  1  0
 27 28  2  0
 27 29  1  0
M  END
$$$$
