FVH.pdb
     RDKit          3D

 29 30  0  0  1  0  0  0  0  0999 V2000
   24.8198   -7.5846  -20.4997 N   0  0  0  0  0  0  0  0  0  0  0  0
   24.5303   -7.1385  -19.1715 C   0  0  1  0  0  0  0  0  0  0  0  0
   24.0127   -5.7154  -19.1459 C   0  0  0  0  0  0  0  0  0  0  0  0
   25.0261   -4.8367  -19.7554 C   0  0  0  0  0  0  0  0  0  0  0  0
   26.0185   -4.2645  -18.9974 C   0  0  0  0  0  0  0  0  0  0  0  0
   26.9772   -3.4287  -19.5641 C   0  0  0  0  0  0  0  0  0  0  0  0
   26.9322   -3.1683  -20.9126 C   0  0  0  0  0  0  0  0  0  0  0  0
   25.9400   -3.7343  -21.6983 C   0  0  0  0  0  0  0  0  0  0  0  0
   24.9910   -4.5698  -21.0996 C   0  0  0  0  0  0  0  0  0  0  0  0
   23.6114   -8.0139  -18.4372 C   0  0  0  0  0  0  0  0  0  0  0  0
   22.6220   -8.5736  -19.0024 O   0  0  0  0  0  0  0  0  0  0  0  0
   22.8133  -10.7589  -14.4725 C   0  0  0  0  0  0  0  0  0  0  0  0
   23.7837  -10.0417  -15.3832 C   0  0  2  0  0  0  0  0  0  0  0  0
   24.7880   -9.3359  -14.5144 C   0  0  0  0  0  0  0  0  0  0  0  0
   22.9916   -9.0681  -16.2296 C   0  0  2  0  0  0  0  0  0  0  0  0
   23.8384   -8.2418  -17.0451 N   0  0  0  0  0  0  0  0  0  0  0  0
   22.1813   -8.1819  -15.3617 C   0  0  0  0  0  0  0  0  0  0  0  0
   22.5836   -7.0166  -15.1318 O   0  0  0  0  0  0  0  0  0  0  0  0
   20.9626   -8.6135  -14.7825 N   0  0  0  0  0  0  0  0  0  0  0  0
   19.9462   -7.6687  -14.3608 C   0  0  1  0  0  0  0  0  0  0  0  0
   19.5680   -6.8357  -15.5491 C   0  0  0  0  0  0  0  0  0  0  0  0
   18.5699   -5.7932  -15.2273 C   0  0  0  0  0  0  0  0  0  0  0  0
   18.0467   -5.4665  -13.9873 C   0  0  0  0  0  0  0  0  0  0  0  0
   17.1739   -4.4607  -14.1657 N   0  0  0  0  0  0  0  0  0  0  0  0
   17.1253   -4.1412  -15.4600 C   0  0  0  0  0  0  0  0  0  0  0  0
   17.9689   -4.9494  -16.0870 N   0  0  0  0  0  0  0  0  0  0  0  0
   18.7849   -8.4536  -13.8387 C   0  0  0  0  0  0  0  0  0  0  0  0
   18.4041   -9.5168  -14.3934 O   0  0  0  0  0  0  0  0  0  0  0  0
   18.0728   -8.0460  -12.7178 O   0  0  0  0  0  0  0  0  0  0  0  0
  2  1  1  6
  2  3  1  0
  2 10  1  0
  4  3  1  0
  4  9  1  0
  5  4  2  0
  6  5  1  0
  6  7  2  0
  7  8  1  0
  8  9  2  0
 10 11  2  0
 13 12  1  1
 13 14  1  0
 13 15  1  0
 15 16  1  1
 16 10  1  0
 17 15  1  0
 17 18  2  0
 19 17  1  0
 20 19  1  0
 20 27  1  0
 20 21  1  6
 22 21  1  0
 22 23  2  0
 24 23  1  0
 25 26  2  0
 25 24  1  0
 26 22  1  0
 27 28  2  0
 27 29  1  0
M  END
$$$$
