RMY.pdb
     RDKit          3D

 32 32  0  0  1  0  0  0  0  0999 V2000
   27.2003  -16.9092  -18.0614 N   0  0  0  0  0  0  0  0  0  0  0  0
   28.5227  -17.3513  -18.3053 C   0  0  0  0  0  0  0  0  0  0  0  0
   29.0976  -17.1340  -19.4554 N   0  0  0  0  0  0  0  0  0  0  0  0
   29.2090  -18.0362  -17.2732 N   0  0  0  0  0  0  0  0  0  0  0  0
   28.5156  -18.4695  -16.0866 C   0  0  0  0  0  0  0  0  0  0  0  0
   27.2321  -19.1325  -16.4847 C   0  0  0  0  0  0  0  0  0  0  0  0
   26.4775  -19.7905  -15.3883 C   0  0  0  0  0  0  0  0  0  0  0  0
   27.1154  -20.9953  -14.7786 C   0  0  2  0  0  0  0  0  0  0  0  0
   27.3262  -22.0863  -15.6989 N   0  0  0  0  0  0  0  0  0  0  0  0
   26.2340  -21.4163  -13.6345 C   0  0  0  0  0  0  0  0  0  0  0  0
   25.1727  -22.0160  -13.9373 O   0  0  0  0  0  0  0  0  0  0  0  0
   30.0693  -17.4539  -19.6079 C   0  0  0  0  0  0  0  0  0  0  0  0
   27.7613  -19.9699   -7.6339 S   0  0  0  0  0  0  0  0  0  0  0  0
   25.9894  -20.2032   -7.3263 C   0  0  0  0  0  0  0  0  0  0  0  0
   25.2025  -20.6782   -8.8946 C   0  0  0  0  0  0  0  0  0  0  0  0
   26.2468  -20.7024   -9.9612 C   0  0  2  0  0  0  0  0  0  0  0  0
   25.5896  -21.1130  -11.2851 N   0  0  0  0  0  0  0  0  0  0  0  0
   26.5996  -21.1414  -12.2868 C   0  0  0  0  0  0  0  0  0  0  0  0
   24.4809  -20.1710  -11.6181 O   0  0  0  0  0  0  0  0  0  0  0  0
   24.6676  -19.0879  -12.2205 O   0  0  0  0  0  0  0  0  0  0  0  0
   20.6660  -17.1242  -17.5913 C   0  0  0  0  0  0  0  0  0  0  0  0
   21.0557  -17.9859  -16.5715 C   0  0  0  0  0  0  0  0  0  0  0  0
   21.7766  -17.5806  -15.4724 C   0  0  0  0  0  0  0  0  0  0  0  0
   22.1370  -18.4769  -14.4902 C   0  0  0  0  0  0  0  0  0  0  0  0
   21.7954  -19.8276  -14.5547 C   0  0  0  0  0  0  0  0  0  0  0  0
   22.2090  -20.7876  -13.5084 C   0  0  2  0  0  0  0  0  0  0  0  0
   22.0029  -20.2264  -12.1600 N   0  0  0  0  0  0  0  0  0  0  0  0
   23.1368  -20.4479  -11.2696 C   0  0  0  0  0  0  0  0  0  0  0  0
   20.8340  -20.8513  -11.5069 O   0  0  0  0  0  0  0  0  0  0  0  0
   20.8641  -21.9099  -10.8266 C   0  0  0  0  0  0  0  0  0  0  0  0
   21.0703  -20.1740  -15.6851 C   0  0  0  0  0  0  0  0  0  0  0  0
   20.7031  -19.3041  -16.6686 O   0  0  0  0  0  0  0  0  0  0  0  0
  2  1  1  0
  3  2  2  0
  4  2  1  0
  5  4  1  0
  6  5  1  0
  7  6  1  0
  8  7  1  0
  8  9  1  6
 10  8  1  0
 10 11  2  0
 12 13  1  0
 13 14  1  0
 14 15  1  0
 16 15  1  1
 16 18  1  0
 16 17  1  0
 17 10  1  0
 18 27  1  0
 19 18  2  0
 21 20  1  0
 21 31  2  0
 22 21  1  0
 23 22  2  0
 23 24  1  0
 24 30  2  0
 25 24  1  0
 26 25  1  6
 26 28  1  0
 27 26  1  0
 28 29  2  0
 28 32  1  0
 30 31  1  0
M  END
$$$$
