RMY.pdb
     RDKit          3D

 32 32  0  0  1  0  0  0  0  0999 V2000
   31.4233  -25.1016  -15.0422 N   0  0  0  0  0  0  0  0  0  0  0  0
   31.0217  -25.1350  -16.3991 C   0  0  0  0  0  0  0  0  0  0  0  0
   31.0312  -26.2528  -17.0706 N   0  0  0  0  0  0  0  0  0  0  0  0
   30.6097  -23.9275  -17.0133 N   0  0  0  0  0  0  0  0  0  0  0  0
   30.1633  -22.8103  -16.2198 C   0  0  0  0  0  0  0  0  0  0  0  0
   28.9009  -22.2626  -16.8130 C   0  0  0  0  0  0  0  0  0  0  0  0
   27.6764  -22.4249  -15.9891 C   0  0  0  0  0  0  0  0  0  0  0  0
   27.2157  -21.2143  -15.2460 C   0  0  2  0  0  0  0  0  0  0  0  0
   28.2250  -20.1960  -15.0845 N   0  0  0  0  0  0  0  0  0  0  0  0
   26.7137  -21.6938  -13.9113 C   0  0  0  0  0  0  0  0  0  0  0  0
   25.7691  -22.5214  -13.9335 O   0  0  0  0  0  0  0  0  0  0  0  0
   30.8979  -26.2323  -18.0961 C   0  0  0  0  0  0  0  0  0  0  0  0
   26.6592  -20.2517   -6.2069 S   0  0  0  0  0  0  0  0  0  0  0  0
   27.6435  -20.2038   -7.7293 C   0  0  0  0  0  0  0  0  0  0  0  0
   26.5666  -20.6844   -9.1125 C   0  0  0  0  0  0  0  0  0  0  0  0
   27.3873  -20.7312  -10.3587 C   0  0  2  0  0  0  0  0  0  0  0  0
   26.4906  -21.1709  -11.5231 N   0  0  0  0  0  0  0  0  0  0  0  0
   27.2909  -21.2238  -12.6983 C   0  0  0  0  0  0  0  0  0  0  0  0
   25.3360  -20.2351  -11.6596 O   0  0  0  0  0  0  0  0  0  0  0  0
   25.4424  -19.0947  -12.1687 O   0  0  0  0  0  0  0  0  0  0  0  0
   17.8621  -19.7006  -15.9542 C   0  0  0  0  0  0  0  0  0  0  0  0
   19.0716  -19.9401  -15.3106 C   0  0  0  0  0  0  0  0  0  0  0  0
   20.1017  -19.0292  -15.2721 C   0  0  0  0  0  0  0  0  0  0  0  0
   21.2802  -19.3180  -14.6197 C   0  0  0  0  0  0  0  0  0  0  0  0
   21.4917  -20.5341  -13.9703 C   0  0  0  0  0  0  0  0  0  0  0  0
   22.7700  -20.8454  -13.2947 C   0  0  1  0  0  0  0  0  0  0  0  0
   22.8148  -20.2560  -11.9433 N   0  0  0  0  0  0  0  0  0  0  0  0
   24.0369  -20.5837  -11.2174 C   0  0  0  0  0  0  0  0  0  0  0  0
   21.6955  -20.7553  -11.1180 O   0  0  0  0  0  0  0  0  0  0  0  0
   21.6977  -21.8347  -10.4706 C   0  0  0  0  0  0  0  0  0  0  0  0
   20.4183  -21.4091  -14.0449 C   0  0  0  0  0  0  0  0  0  0  0  0
   19.2438  -21.1441  -14.6845 O   0  0  0  0  0  0  0  0  0  0  0  0
  2  1  1  0
  3  2  2  0
  4  2  1  0
  5  4  1  0
  6  5  1  0
  7  6  1  0
  8  7  1  0
  8  9  1  1
 10  8  1  0
 10 11  2  0
 12 13  1  0
 13 14  1  0
 14 15  1  0
 16 15  1  1
 16 18  1  0
 16 17  1  0
 17 10  1  0
 18 27  1  0
 19 18  2  0
 21 20  1  0
 21 31  2  0
 22 21  1  0
 23 22  2  0
 23 24  1  0
 24 30  2  0
 25 24  1  0
 26 25  1  6
 26 28  1  0
 27 26  1  0
 28 29  2  0
 28 32  1  0
 30 31  1  0
M  END
$$$$
