RMY.pdb
     RDKit          3D

 32 32  0  0  1  0  0  0  0  0999 V2000
   25.9710  -16.7201  -19.1205 N   0  0  0  0  0  0  0  0  0  0  0  0
   25.1966  -17.9013  -19.2131 C   0  0  0  0  0  0  0  0  0  0  0  0
   23.9681  -17.8615  -19.6483 N   0  0  0  0  0  0  0  0  0  0  0  0
   25.7844  -19.1288  -18.8220 N   0  0  0  0  0  0  0  0  0  0  0  0
   27.2114  -19.2450  -18.6577 C   0  0  0  0  0  0  0  0  0  0  0  0
   27.5983  -18.6759  -17.3267 C   0  0  0  0  0  0  0  0  0  0  0  0
   27.3082  -19.5321  -16.1489 C   0  0  0  0  0  0  0  0  0  0  0  0
   28.3853  -20.4835  -15.7431 C   0  0  2  0  0  0  0  0  0  0  0  0
   28.6451  -21.5310  -16.7007 N   0  0  0  0  0  0  0  0  0  0  0  0
   27.9753  -21.0563  -14.4139 C   0  0  0  0  0  0  0  0  0  0  0  0
   27.0863  -21.9434  -14.4374 O   0  0  0  0  0  0  0  0  0  0  0  0
   23.4172  -18.7353  -19.7003 C   0  0  0  0  0  0  0  0  0  0  0  0
   28.7318  -20.7717   -6.6144 S   0  0  0  0  0  0  0  0  0  0  0  0
   29.4230  -20.2523   -8.2086 C   0  0  0  0  0  0  0  0  0  0  0  0
   28.3478  -20.8950   -9.5257 C   0  0  0  0  0  0  0  0  0  0  0  0
   28.9700  -20.5752  -10.8445 C   0  0  1  0  0  0  0  0  0  0  0  0
   28.0031  -20.9927  -11.9599 N   0  0  0  0  0  0  0  0  0  0  0  0
   28.5738  -20.6050  -13.2042 C   0  0  0  0  0  0  0  0  0  0  0  0
   26.6627  -20.3781  -11.7297 O   0  0  0  0  0  0  0  0  0  0  0  0
   26.4491  -19.1490  -11.8510 O   0  0  0  0  0  0  0  0  0  0  0  0
   21.1044  -17.8781  -16.0502 C   0  0  0  0  0  0  0  0  0  0  0  0
   21.6487  -18.7056  -15.0739 C   0  0  0  0  0  0  0  0  0  0  0  0
   22.9487  -19.1545  -15.1013 C   0  0  0  0  0  0  0  0  0  0  0  0
   23.4375  -19.9735  -14.1072 C   0  0  0  0  0  0  0  0  0  0  0  0
   22.6519  -20.3876  -13.0318 C   0  0  0  0  0  0  0  0  0  0  0  0
   23.1777  -21.2880  -11.9829 C   0  0  2  0  0  0  0  0  0  0  0  0
   24.2004  -20.6106  -11.1638 N   0  0  0  0  0  0  0  0  0  0  0  0
   25.5397  -21.1554  -11.3567 C   0  0  0  0  0  0  0  0  0  0  0  0
   23.8970  -20.7547   -9.7249 O   0  0  0  0  0  0  0  0  0  0  0  0
   24.6289  -21.3408   -8.8851 C   0  0  0  0  0  0  0  0  0  0  0  0
   21.3528  -19.9029  -13.0609 C   0  0  0  0  0  0  0  0  0  0  0  0
   20.8486  -19.0918  -14.0338 O   0  0  0  0  0  0  0  0  0  0  0  0
  2  1  1  0
  3  2  2  0
  4  2  1  0
  5  4  1  0
  6  5  1  0
  7  6  1  0
  8  7  1  0
  8  9  1  6
 10  8  1  0
 10 11  2  0
 12 13  1  0
 13 14  1  0
 14 15  1  0
 16 15  1  6
 16 18  1  0
 16 17  1  0
 17 10  1  0
 18 27  1  0
 19 18  2  0
 21 20  1  0
 21 31  2  0
 22 21  1  0
 23 22  2  0
 23 24  1  0
 24 30  2  0
 25 24  1  0
 26 25  1  6
 26 28  1  0
 27 26  1  0
 28 29  2  0
 28 32  1  0
 30 31  1  0
M  END
$$$$
