RMY.pdb
     RDKit          3D

 32 32  0  0  1  0  0  0  0  0999 V2000
   27.8990  -24.3101  -20.7775 N   0  0  0  0  0  0  0  0  0  0  0  0
   27.0052  -25.0586  -19.9747 C   0  0  0  0  0  0  0  0  0  0  0  0
   26.9349  -26.3559  -20.0858 N   0  0  0  0  0  0  0  0  0  0  0  0
   26.1872  -24.3681  -19.0477 N   0  0  0  0  0  0  0  0  0  0  0  0
   26.1729  -22.9277  -19.0052 C   0  0  0  0  0  0  0  0  0  0  0  0
   25.6336  -22.4829  -17.6799 C   0  0  0  0  0  0  0  0  0  0  0  0
   26.6453  -22.2266  -16.6237 C   0  0  0  0  0  0  0  0  0  0  0  0
   26.7187  -23.2322  -15.5221 C   0  0  2  0  0  0  0  0  0  0  0  0
   26.3787  -24.5766  -15.9208 N   0  0  0  0  0  0  0  0  0  0  0  0
   25.8036  -22.7442  -14.4323 C   0  0  0  0  0  0  0  0  0  0  0  0
   24.5931  -23.0638  -14.5335 O   0  0  0  0  0  0  0  0  0  0  0  0
   26.2423  -26.8788  -19.5230 C   0  0  0  0  0  0  0  0  0  0  0  0
   25.1646  -19.7119   -7.2633 S   0  0  0  0  0  0  0  0  0  0  0  0
   26.3002  -20.1093   -8.6202 C   0  0  0  0  0  0  0  0  0  0  0  0
   25.3072  -20.6031  -10.0604 C   0  0  0  0  0  0  0  0  0  0  0  0
   26.2334  -21.0041  -11.1604 C   0  0  2  0  0  0  0  0  0  0  0  0
   25.4019  -21.5261  -12.3391 N   0  0  0  0  0  0  0  0  0  0  0  0
   26.3009  -21.9630  -13.3517 C   0  0  0  0  0  0  0  0  0  0  0  0
   24.4736  -20.4610  -12.8199 O   0  0  0  0  0  0  0  0  0  0  0  0
   24.8147  -19.5868  -13.6507 O   0  0  0  0  0  0  0  0  0  0  0  0
   17.9339  -17.5991  -17.4731 C   0  0  0  0  0  0  0  0  0  0  0  0
   18.9698  -18.2190  -16.7824 C   0  0  0  0  0  0  0  0  0  0  0  0
   19.0031  -19.5689  -16.5202 C   0  0  0  0  0  0  0  0  0  0  0  0
   20.0547  -20.1321  -15.8310 C   0  0  0  0  0  0  0  0  0  0  0  0
   21.1300  -19.3748  -15.3669 C   0  0  0  0  0  0  0  0  0  0  0  0
   22.2419  -19.9839  -14.6052 C   0  0  2  0  0  0  0  0  0  0  0  0
   22.0387  -19.8299  -13.1524 N   0  0  0  0  0  0  0  0  0  0  0  0
   23.1369  -20.3737  -12.3612 C   0  0  0  0  0  0  0  0  0  0  0  0
   20.8203  -20.5431  -12.7166 O   0  0  0  0  0  0  0  0  0  0  0  0
   20.7689  -21.7582  -12.3921 C   0  0  0  0  0  0  0  0  0  0  0  0
   21.0383  -18.0226  -15.6617 C   0  0  0  0  0  0  0  0  0  0  0  0
   20.0079  -17.4446  -16.3420 O   0  0  0  0  0  0  0  0  0  0  0  0
  2  1  1  0
  3  2  2  0
  4  2  1  0
  5  4  1  0
  6  5  1  0
  7  6  1  0
  8  7  1  0
  8  9  1  6
 10  8  1  0
 10 11  2  0
 12 13  1  0
 13 14  1  0
 14 15  1  0
 16 15  1  1
 16 18  1  0
 16 17  1  0
 17 10  1  0
 18 27  1  0
 19 18  2  0
 21 20  1  0
 21 31  2  0
 22 21  1  0
 23 22  2  0
 23 24  1  0
 24 30  2  0
 25 24  1  0
 26 25  1  6
 26 28  1  0
 27 26  1  0
 28 29  2  0
 28 32  1  0
 30 31  1  0
M  END
$$$$
