RMY.pdb
     RDKit          3D

 32 32  0  0  1  0  0  0  0  0999 V2000
   29.2705  -18.8798  -18.0547 N   0  0  0  0  0  0  0  0  0  0  0  0
   28.2399  -17.9176  -17.9299 C   0  0  0  0  0  0  0  0  0  0  0  0
   28.4524  -16.6683  -18.2374 N   0  0  0  0  0  0  0  0  0  0  0  0
   26.9717  -18.3403  -17.4627 N   0  0  0  0  0  0  0  0  0  0  0  0
   26.8156  -19.6080  -16.7954 C   0  0  0  0  0  0  0  0  0  0  0  0
   26.3917  -19.3660  -15.3787 C   0  0  0  0  0  0  0  0  0  0  0  0
   27.4151  -19.6485  -14.3408 C   0  0  0  0  0  0  0  0  0  0  0  0
   27.5132  -21.0653  -13.8791 C   0  0  2  0  0  0  0  0  0  0  0  0
   27.2495  -22.0446  -14.9053 N   0  0  0  0  0  0  0  0  0  0  0  0
   26.5506  -21.2119  -12.7324 C   0  0  0  0  0  0  0  0  0  0  0  0
   25.4904  -21.8424  -12.9692 O   0  0  0  0  0  0  0  0  0  0  0  0
   27.6830  -15.9831  -18.1465 C   0  0  0  0  0  0  0  0  0  0  0  0
   27.8606  -18.6065   -6.6700 S   0  0  0  0  0  0  0  0  0  0  0  0
   27.5966  -20.3914   -6.8523 C   0  0  0  0  0  0  0  0  0  0  0  0
   27.4820  -20.7661   -8.6273 C   0  0  0  0  0  0  0  0  0  0  0  0
   26.3916  -19.9350   -9.2182 C   0  0  2  0  0  0  0  0  0  0  0  0
   25.8336  -20.6582  -10.4506 N   0  0  0  0  0  0  0  0  0  0  0  0
   26.8425  -20.6590  -11.4539 C   0  0  0  0  0  0  0  0  0  0  0  0
   24.5761  -19.9954  -10.9053 O   0  0  0  0  0  0  0  0  0  0  0  0
   24.5693  -18.9197  -11.5485 O   0  0  0  0  0  0  0  0  0  0  0  0
   21.1214  -18.1404  -17.4123 C   0  0  0  0  0  0  0  0  0  0  0  0
   21.4940  -18.8832  -16.2970 C   0  0  0  0  0  0  0  0  0  0  0  0
   22.7946  -18.9982  -15.8643 C   0  0  0  0  0  0  0  0  0  0  0  0
   23.1087  -19.7476  -14.7519 C   0  0  0  0  0  0  0  0  0  0  0  0
   22.1380  -20.4228  -14.0121 C   0  0  0  0  0  0  0  0  0  0  0  0
   22.4877  -21.2462  -12.8344 C   0  0  2  0  0  0  0  0  0  0  0  0
   22.1895  -20.5324  -11.5785 N   0  0  0  0  0  0  0  0  0  0  0  0
   23.3012  -20.5486  -10.6343 C   0  0  0  0  0  0  0  0  0  0  0  0
   21.0447  -21.1554  -10.8824 O   0  0  0  0  0  0  0  0  0  0  0  0
   19.8391  -21.0426  -11.2260 C   0  0  0  0  0  0  0  0  0  0  0  0
   20.8482  -20.2687  -14.4979 C   0  0  0  0  0  0  0  0  0  0  0  0
   20.5150  -19.5322  -15.5958 O   0  0  0  0  0  0  0  0  0  0  0  0
  2  1  1  0
  3  2  2  0
  4  2  1  0
  5  4  1  0
  6  5  1  0
  7  6  1  0
  8  7  1  0
  8  9  1  6
 10  8  1  0
 10 11  2  0
 12 13  1  0
 13 14  1  0
 14 15  1  0
 16 15  1  1
 16 18  1  0
 16 17  1  0
 17 10  1  0
 18 27  1  0
 19 18  2  0
 21 20  1  0
 21 31  2  0
 22 21  1  0
 23 22  2  0
 23 24  1  0
 24 30  2  0
 25 24  1  0
 26 25  1  6
 26 28  1  0
 27 26  1  0
 28 29  2  0
 28 32  1  0
 30 31  1  0
M  END
$$$$
