RMY.pdb
     RDKit          3D

 32 32  0  0  1  0  0  0  0  0999 V2000
   28.5325  -27.8612  -16.3782 N   0  0  0  0  0  0  0  0  0  0  0  0
   27.3758  -28.0475  -17.1725 C   0  0  0  0  0  0  0  0  0  0  0  0
   26.9569  -29.2458  -17.4709 N   0  0  0  0  0  0  0  0  0  0  0  0
   26.6824  -26.9038  -17.6377 N   0  0  0  0  0  0  0  0  0  0  0  0
   27.2758  -25.5936  -17.5490 C   0  0  0  0  0  0  0  0  0  0  0  0
   27.1924  -25.1140  -16.1319 C   0  0  0  0  0  0  0  0  0  0  0  0
   26.3911  -23.8834  -15.9123 C   0  0  0  0  0  0  0  0  0  0  0  0
   27.0295  -22.5978  -16.3246 C   0  0  2  0  0  0  0  0  0  0  0  0
   28.3657  -22.4072  -15.8145 N   0  0  0  0  0  0  0  0  0  0  0  0
   26.1138  -21.4961  -15.8655 C   0  0  0  0  0  0  0  0  0  0  0  0
   26.1414  -21.2198  -14.6405 O   0  0  0  0  0  0  0  0  0  0  0  0
   26.1258  -29.3592  -18.0760 C   0  0  0  0  0  0  0  0  0  0  0  0
   21.9191  -15.2305  -17.8400 S   0  0  0  0  0  0  0  0  0  0  0  0
   22.8574  -16.6575  -18.4498 C   0  0  0  0  0  0  0  0  0  0  0  0
   23.3088  -17.6875  -17.0217 C   0  0  0  0  0  0  0  0  0  0  0  0
   24.1165  -18.8451  -17.5080 C   0  0  2  0  0  0  0  0  0  0  0  0
   24.4456  -19.7521  -16.3154 N   0  0  0  0  0  0  0  0  0  0  0  0
   25.2682  -20.8139  -16.7847 C   0  0  0  0  0  0  0  0  0  0  0  0
   23.1852  -20.2419  -15.6838 O   0  0  0  0  0  0  0  0  0  0  0  0
   22.4995  -21.1723  -16.1686 O   0  0  0  0  0  0  0  0  0  0  0  0
   16.6172  -21.4852   -9.8716 C   0  0  0  0  0  0  0  0  0  0  0  0
   17.7963  -21.0782  -10.4869 C   0  0  0  0  0  0  0  0  0  0  0  0
   18.9406  -21.8412  -10.5094 C   0  0  0  0  0  0  0  0  0  0  0  0
   20.0824  -21.3895  -11.1339 C   0  0  0  0  0  0  0  0  0  0  0  0
   20.1411  -20.1495  -11.7697 C   0  0  0  0  0  0  0  0  0  0  0  0
   21.3792  -19.6617  -12.4150 C   0  0  1  0  0  0  0  0  0  0  0  0
   21.4869  -20.1553  -13.8009 N   0  0  0  0  0  0  0  0  0  0  0  0
   22.6835  -19.6787  -14.4856 C   0  0  0  0  0  0  0  0  0  0  0  0
   20.3369  -19.6993  -14.6089 O   0  0  0  0  0  0  0  0  0  0  0  0
   19.3194  -20.3904  -14.8757 C   0  0  0  0  0  0  0  0  0  0  0  0
   18.9579  -19.4282  -11.7123 C   0  0  0  0  0  0  0  0  0  0  0  0
   17.8170  -19.8557  -11.1005 O   0  0  0  0  0  0  0  0  0  0  0  0
  2  1  1  0
  3  2  2  0
  4  2  1  0
  5  4  1  0
  6  5  1  0
  7  6  1  0
  8  7  1  0
  8  9  1  1
 10  8  1  0
 10 11  2  0
 12 13  1  0
 13 14  1  0
 14 15  1  0
 16 15  1  1
 16 18  1  0
 16 17  1  0
 17 10  1  0
 18 27  1  0
 19 18  2  0
 21 20  1  0
 21 31  2  0
 22 21  1  0
 23 22  2  0
 23 24  1  0
 24 30  2  0
 25 24  1  0
 26 25  1  1
 26 28  1  0
 27 26  1  0
 28 29  2  0
 28 32  1  0
 30 31  1  0
M  END
$$$$
