RMY.pdb
     RDKit          3D

 32 32  0  0  1  0  0  0  0  0999 V2000
   30.2587  -23.2374  -17.7692 N   0  0  0  0  0  0  0  0  0  0  0  0
   29.3117  -24.1957  -17.3352 C   0  0  0  0  0  0  0  0  0  0  0  0
   29.6977  -25.3218  -16.8028 N   0  0  0  0  0  0  0  0  0  0  0  0
   27.9345  -23.9061  -17.4922 N   0  0  0  0  0  0  0  0  0  0  0  0
   27.5036  -22.7391  -18.2195 C   0  0  0  0  0  0  0  0  0  0  0  0
   27.2428  -21.6270  -17.2497 C   0  0  0  0  0  0  0  0  0  0  0  0
   25.8430  -21.1353  -17.1916 C   0  0  0  0  0  0  0  0  0  0  0  0
   25.4286  -20.1942  -18.2745 C   0  0  2  0  0  0  0  0  0  0  0  0
   26.2111  -18.9838  -18.3419 N   0  0  0  0  0  0  0  0  0  0  0  0
   23.9746  -19.8852  -18.0430 C   0  0  0  0  0  0  0  0  0  0  0  0
   23.7164  -19.0592  -17.1326 O   0  0  0  0  0  0  0  0  0  0  0  0
   28.9905  -26.0262  -16.5318 C   0  0  0  0  0  0  0  0  0  0  0  0
   16.5858  -20.7562  -20.4825 S   0  0  0  0  0  0  0  0  0  0  0  0
   18.3009  -21.3034  -20.7006 C   0  0  0  0  0  0  0  0  0  0  0  0
   19.3045  -20.5511  -19.3850 C   0  0  0  0  0  0  0  0  0  0  0  0
   20.7416  -20.8554  -19.6516 C   0  0  1  0  0  0  0  0  0  0  0  0
   21.5951  -20.2010  -18.5578 N   0  0  0  0  0  0  0  0  0  0  0  0
   22.9592  -20.5054  -18.8239 C   0  0  0  0  0  0  0  0  0  0  0  0
   21.1549  -20.6774  -17.2137 O   0  0  0  0  0  0  0  0  0  0  0  0
   21.7389  -21.5972  -16.5942 O   0  0  0  0  0  0  0  0  0  0  0  0
   20.3712  -18.6485   -8.8629 C   0  0  0  0  0  0  0  0  0  0  0  0
   20.5282  -18.7961  -10.2369 C   0  0  0  0  0  0  0  0  0  0  0  0
   21.2462  -19.8195  -10.8109 C   0  0  0  0  0  0  0  0  0  0  0  0
   21.3701  -19.9187  -12.1793 C   0  0  0  0  0  0  0  0  0  0  0  0
   20.7822  -18.9991  -13.0477 C   0  0  0  0  0  0  0  0  0  0  0  0
   20.9424  -19.0988  -14.5145 C   0  0  1  0  0  0  0  0  0  0  0  0
   19.9274  -19.9942  -15.1010 N   0  0  0  0  0  0  0  0  0  0  0  0
   20.0389  -20.1123  -16.5505 C   0  0  0  0  0  0  0  0  0  0  0  0
   18.5656  -19.4893  -14.8292 O   0  0  0  0  0  0  0  0  0  0  0  0
   17.9496  -18.6496  -15.5361 C   0  0  0  0  0  0  0  0  0  0  0  0
   20.0733  -17.9922  -12.4095 C   0  0  0  0  0  0  0  0  0  0  0  0
   19.9376  -17.8751  -11.0580 O   0  0  0  0  0  0  0  0  0  0  0  0
  2  1  1  0
  3  2  2  0
  4  2  1  0
  5  4  1  0
  6  5  1  0
  7  6  1  0
  8  7  1  0
  8  9  1  1
 10  8  1  0
 10 11  2  0
 12 13  1  0
 13 14  1  0
 14 15  1  0
 16 15  1  6
 16 18  1  0
 16 17  1  0
 17 10  1  0
 18 27  1  0
 19 18  2  0
 21 20  1  0
 21 31  2  0
 22 21  1  0
 23 22  2  0
 23 24  1  0
 24 30  2  0
 25 24  1  0
 26 25  1  1
 26 28  1  0
 27 26  1  0
 28 29  2  0
 28 32  1  0
 30 31  1  0
M  END
$$$$
