RMY.pdb
     RDKit          3D

 32 32  0  0  1  0  0  0  0  0999 V2000
   24.6012  -16.7801  -16.2058 N   0  0  0  0  0  0  0  0  0  0  0  0
   23.8268  -17.7920  -16.8223 C   0  0  0  0  0  0  0  0  0  0  0  0
   22.5469  -17.8866  -16.5918 N   0  0  0  0  0  0  0  0  0  0  0  0
   24.4721  -18.7013  -17.6953 N   0  0  0  0  0  0  0  0  0  0  0  0
   25.6221  -19.4529  -17.2602 C   0  0  0  0  0  0  0  0  0  0  0  0
   26.8537  -18.6241  -17.4641 C   0  0  0  0  0  0  0  0  0  0  0  0
   27.9021  -18.7573  -16.4211 C   0  0  0  0  0  0  0  0  0  0  0  0
   28.6334  -20.0587  -16.3828 C   0  0  2  0  0  0  0  0  0  0  0  0
   28.3449  -20.9357  -17.4917 N   0  0  0  0  0  0  0  0  0  0  0  0
   28.2830  -20.7108  -15.0731 C   0  0  0  0  0  0  0  0  0  0  0  0
   27.4030  -21.6062  -15.1119 O   0  0  0  0  0  0  0  0  0  0  0  0
   21.9948  -18.6164  -17.0737 C   0  0  0  0  0  0  0  0  0  0  0  0
   30.3972  -22.2405   -7.7287 S   0  0  0  0  0  0  0  0  0  0  0  0
   30.8698  -21.5232   -9.3259 C   0  0  0  0  0  0  0  0  0  0  0  0
   29.4005  -21.5117  -10.3959 C   0  0  0  0  0  0  0  0  0  0  0  0
   29.7531  -20.8344  -11.6788 C   0  0  1  0  0  0  0  0  0  0  0  0
   28.5733  -20.9727  -12.6495 N   0  0  0  0  0  0  0  0  0  0  0  0
   28.9252  -20.3210  -13.8644 C   0  0  0  0  0  0  0  0  0  0  0  0
   27.3372  -20.4061  -12.0343 O   0  0  0  0  0  0  0  0  0  0  0  0
   27.1240  -19.1739  -11.9496 O   0  0  0  0  0  0  0  0  0  0  0  0
   19.2349  -18.9018   -9.2636 C   0  0  0  0  0  0  0  0  0  0  0  0
   20.3780  -19.5763   -9.6793 C   0  0  0  0  0  0  0  0  0  0  0  0
   21.0198  -20.5214   -8.9130 C   0  0  0  0  0  0  0  0  0  0  0  0
   22.1500  -21.1602   -9.3738 C   0  0  0  0  0  0  0  0  0  0  0  0
   22.6993  -20.8879  -10.6266 C   0  0  0  0  0  0  0  0  0  0  0  0
   23.9279  -21.5599  -11.1023 C   0  0  2  0  0  0  0  0  0  0  0  0
   25.1213  -20.7327  -10.8427 N   0  0  0  0  0  0  0  0  0  0  0  0
   26.3200  -21.2360  -11.5040 C   0  0  0  0  0  0  0  0  0  0  0  0
   25.4282  -20.6972   -9.3977 O   0  0  0  0  0  0  0  0  0  0  0  0
   26.0436  -21.5949   -8.7654 C   0  0  0  0  0  0  0  0  0  0  0  0
   22.0084  -19.9274  -11.3502 C   0  0  0  0  0  0  0  0  0  0  0  0
   20.8887  -19.2833  -10.9140 O   0  0  0  0  0  0  0  0  0  0  0  0
  2  1  1  0
  3  2  2  0
  4  2  1  0
  5  4  1  0
  6  5  1  0
  7  6  1  0
  8  7  1  0
  8  9  1  6
 10  8  1  0
 10 11  2  0
 12 13  1  0
 13 14  1  0
 14 15  1  0
 16 15  1  6
 16 18  1  0
 16 17  1  0
 17 10  1  0
 18 27  1  0
 19 18  2  0
 21 20  1  0
 21 31  2  0
 22 21  1  0
 23 22  2  0
 23 24  1  0
 24 30  2  0
 25 24  1  0
 26 25  1  6
 26 28  1  0
 27 26  1  0
 28 29  2  0
 28 32  1  0
 30 31  1  0
M  END
$$$$
