RMY.pdb
     RDKit          3D

 32 32  0  0  1  0  0  0  0  0999 V2000
   26.4969  -33.1043   -9.1917 N   0  0  0  0  0  0  0  0  0  0  0  0
   27.3858  -33.4206  -10.2469 C   0  0  0  0  0  0  0  0  0  0  0  0
   27.8327  -32.4908  -11.0444 N   0  0  0  0  0  0  0  0  0  0  0  0
   27.7794  -34.7699  -10.4192 N   0  0  0  0  0  0  0  0  0  0  0  0
   27.3525  -35.7877   -9.4926 C   0  0  0  0  0  0  0  0  0  0  0  0
   25.9605  -36.2164   -9.8442 C   0  0  0  0  0  0  0  0  0  0  0  0
   25.4051  -37.3328   -9.0382 C   0  0  0  0  0  0  0  0  0  0  0  0
   26.3603  -38.4201   -8.6701 C   0  0  2  0  0  0  0  0  0  0  0  0
   26.0858  -39.6901   -9.2974 N   0  0  0  0  0  0  0  0  0  0  0  0
   26.3208  -38.5384   -7.1709 C   0  0  0  0  0  0  0  0  0  0  0  0
   25.3368  -39.1485   -6.6838 O   0  0  0  0  0  0  0  0  0  0  0  0
   28.5284  -32.7333  -11.7704 C   0  0  0  0  0  0  0  0  0  0  0  0
   30.2209  -38.4971   -0.4672 S   0  0  0  0  0  0  0  0  0  0  0  0
   30.2929  -38.1394   -2.2436 C   0  0  0  0  0  0  0  0  0  0  0  0
   28.5995  -38.2055   -2.9013 C   0  0  0  0  0  0  0  0  0  0  0  0
   28.6390  -37.8487   -4.3504 C   0  0  2  0  0  0  0  0  0  0  0  0
   27.2409  -38.0546   -4.9469 N   0  0  0  0  0  0  0  0  0  0  0  0
   27.3525  -37.9825   -6.3635 C   0  0  0  0  0  0  0  0  0  0  0  0
   26.2963  -37.0390   -4.3957 O   0  0  0  0  0  0  0  0  0  0  0  0
   26.1196  -35.9172   -4.9260 O   0  0  0  0  0  0  0  0  0  0  0  0
   19.0345  -33.1679   -1.7817 C   0  0  0  0  0  0  0  0  0  0  0  0
   20.1214  -33.8740   -2.2863 C   0  0  0  0  0  0  0  0  0  0  0  0
   21.1113  -33.2970   -3.0473 C   0  0  0  0  0  0  0  0  0  0  0  0
   22.1672  -34.0435   -3.5224 C   0  0  0  0  0  0  0  0  0  0  0  0
   22.2895  -35.4082   -3.2616 C   0  0  0  0  0  0  0  0  0  0  0  0
   23.4128  -36.2070   -3.7977 C   0  0  1  0  0  0  0  0  0  0  0  0
   24.4472  -36.4276   -2.7695 N   0  0  0  0  0  0  0  0  0  0  0  0
   25.5346  -37.2851   -3.2278 C   0  0  0  0  0  0  0  0  0  0  0  0
   23.8699  -37.0888   -1.5809 O   0  0  0  0  0  0  0  0  0  0  0  0
   23.7205  -38.3310   -1.4437 C   0  0  0  0  0  0  0  0  0  0  0  0
   21.2618  -35.9309   -2.4909 C   0  0  0  0  0  0  0  0  0  0  0  0
   20.2084  -35.2110   -2.0104 O   0  0  0  0  0  0  0  0  0  0  0  0
  2  1  1  0
  3  2  2  0
  4  2  1  0
  5  4  1  0
  6  5  1  0
  7  6  1  0
  8  7  1  0
  8  9  1  6
 10  8  1  0
 10 11  2  0
 12 13  1  0
 13 14  1  0
 14 15  1  0
 16 15  1  6
 16 18  1  0
 16 17  1  0
 17 10  1  0
 18 27  1  0
 19 18  2  0
 21 20  1  0
 21 31  2  0
 22 21  1  0
 23 22  2  0
 23 24  1  0
 24 30  2  0
 25 24  1  0
 26 25  1  6
 26 28  1  0
 27 26  1  0
 28 29  2  0
 28 32  1  0
 30 31  1  0
M  END
$$$$
