RMY.pdb
     RDKit          3D

 32 32  0  0  1  0  0  0  0  0999 V2000
   24.9584  -27.2561  -16.2514 N   0  0  0  0  0  0  0  0  0  0  0  0
   24.1241  -26.1807  -16.6402 C   0  0  0  0  0  0  0  0  0  0  0  0
   22.9895  -25.9638  -16.0354 N   0  0  0  0  0  0  0  0  0  0  0  0
   24.5476  -25.3447  -17.7019 N   0  0  0  0  0  0  0  0  0  0  0  0
   25.8270  -25.5447  -18.3340 C   0  0  0  0  0  0  0  0  0  0  0  0
   26.8874  -24.8740  -17.5149 C   0  0  0  0  0  0  0  0  0  0  0  0
   26.9381  -23.3933  -17.6109 C   0  0  0  0  0  0  0  0  0  0  0  0
   28.0456  -22.7212  -16.8682 C   0  0  2  0  0  0  0  0  0  0  0  0
   28.9319  -23.6254  -16.1763 N   0  0  0  0  0  0  0  0  0  0  0  0
   27.3990  -21.7592  -15.9092 C   0  0  0  0  0  0  0  0  0  0  0  0
   27.1176  -22.2088  -14.7706 O   0  0  0  0  0  0  0  0  0  0  0  0
   22.3751  -25.1991  -16.3635 C   0  0  0  0  0  0  0  0  0  0  0  0
   26.0694  -15.4073  -17.2204 S   0  0  0  0  0  0  0  0  0  0  0  0
   26.4163  -15.4516  -15.4410 C   0  0  0  0  0  0  0  0  0  0  0  0
   26.1451  -17.1510  -14.8557 C   0  0  0  0  0  0  0  0  0  0  0  0
   26.7587  -18.0943  -15.8366 C   0  0  1  0  0  0  0  0  0  0  0  0
   26.5411  -19.5300  -15.3422 N   0  0  0  0  0  0  0  0  0  0  0  0
   27.1283  -20.4147  -16.2892 C   0  0  0  0  0  0  0  0  0  0  0  0
   25.0840  -19.7872  -15.1470 O   0  0  0  0  0  0  0  0  0  0  0  0
   24.3267  -20.1461  -16.0790 O   0  0  0  0  0  0  0  0  0  0  0  0
   17.0749  -20.6396  -11.5764 C   0  0  0  0  0  0  0  0  0  0  0  0
   18.4361  -20.3946  -11.7223 C   0  0  0  0  0  0  0  0  0  0  0  0
   18.9903  -19.1374  -11.6548 C   0  0  0  0  0  0  0  0  0  0  0  0
   20.3468  -18.9508  -11.8064 C   0  0  0  0  0  0  0  0  0  0  0  0
   21.2224  -20.0124  -12.0338 C   0  0  0  0  0  0  0  0  0  0  0  0
   22.6739  -19.7997  -12.2212 C   0  0  2  0  0  0  0  0  0  0  0  0
   23.0349  -19.8243  -13.6512 N   0  0  0  0  0  0  0  0  0  0  0  0
   24.4631  -19.6395  -13.8831 C   0  0  0  0  0  0  0  0  0  0  0  0
   22.3517  -18.7365  -14.3814 O   0  0  0  0  0  0  0  0  0  0  0  0
   22.7727  -17.5544  -14.4806 C   0  0  0  0  0  0  0  0  0  0  0  0
   20.6043  -21.2526  -12.0916 C   0  0  0  0  0  0  0  0  0  0  0  0
   19.2649  -21.4601  -11.9443 O   0  0  0  0  0  0  0  0  0  0  0  0
  2  1  1  0
  3  2  2  0
  4  2  1  0
  5  4  1  0
  6  5  1  0
  7  6  1  0
  8  7  1  0
  8  9  1  1
 10  8  1  0
 10 11  2  0
 12 13  1  0
 13 14  1  0
 14 15  1  0
 16 15  1  1
 16 18  1  0
 16 17  1  0
 17 10  1  0
 18 27  1  0
 19 18  2  0
 21 20  1  0
 21 31  2  0
 22 21  1  0
 23 22  2  0
 23 24  1  0
 24 30  2  0
 25 24  1  0
 26 25  1  1
 26 28  1  0
 27 26  1  0
 28 29  2  0
 28 32  1  0
 30 31  1  0
M  END
$$$$
