RMY.pdb
     RDKit          3D

 32 32  0  0  1  0  0  0  0  0999 V2000
   31.2589  -23.7921  -17.7304 N   0  0  0  0  0  0  0  0  0  0  0  0
   30.3324  -24.1080  -18.7527 C   0  0  0  0  0  0  0  0  0  0  0  0
   30.5929  -25.0423  -19.6242 N   0  0  0  0  0  0  0  0  0  0  0  0
   29.1151  -23.3866  -18.8101 N   0  0  0  0  0  0  0  0  0  0  0  0
   28.7352  -22.4935  -17.7448 C   0  0  0  0  0  0  0  0  0  0  0  0
   28.2108  -23.2987  -16.5951 C   0  0  0  0  0  0  0  0  0  0  0  0
   26.7783  -23.0936  -16.2627 C   0  0  0  0  0  0  0  0  0  0  0  0
   26.3857  -21.7104  -15.8596 C   0  0  2  0  0  0  0  0  0  0  0  0
   27.4869  -20.8792  -15.4372 N   0  0  0  0  0  0  0  0  0  0  0  0
   25.3662  -21.8547  -14.7629 C   0  0  0  0  0  0  0  0  0  0  0  0
   24.3702  -22.5768  -15.0166 O   0  0  0  0  0  0  0  0  0  0  0  0
   29.9110  -25.2430  -20.3755 C   0  0  0  0  0  0  0  0  0  0  0  0
   26.2602  -19.4306   -8.9143 S   0  0  0  0  0  0  0  0  0  0  0  0
   24.8636  -20.5170   -8.5171 C   0  0  0  0  0  0  0  0  0  0  0  0
   24.1648  -21.1310  -10.0788 C   0  0  0  0  0  0  0  0  0  0  0  0
   25.1537  -20.8859  -11.1699 C   0  0  2  0  0  0  0  0  0  0  0  0
   24.5565  -21.3754  -12.4954 N   0  0  0  0  0  0  0  0  0  0  0  0
   25.5379  -21.2006  -13.5107 C   0  0  0  0  0  0  0  0  0  0  0  0
   23.2929  -20.6375  -12.7891 O   0  0  0  0  0  0  0  0  0  0  0  0
   23.2166  -19.3866  -12.7706 O   0  0  0  0  0  0  0  0  0  0  0  0
   15.0800  -18.5712  -15.1661 C   0  0  0  0  0  0  0  0  0  0  0  0
   16.2345  -19.2986  -14.8967 C   0  0  0  0  0  0  0  0  0  0  0  0
   16.3356  -20.2030  -13.8652 C   0  0  0  0  0  0  0  0  0  0  0  0
   17.5043  -20.8976  -13.6426 C   0  0  0  0  0  0  0  0  0  0  0  0
   18.6353  -20.7247  -14.4403 C   0  0  0  0  0  0  0  0  0  0  0  0
   19.8939  -21.4556  -14.1778 C   0  0  2  0  0  0  0  0  0  0  0  0
   20.8235  -20.6420  -13.3718 N   0  0  0  0  0  0  0  0  0  0  0  0
   22.0912  -21.3142  -13.1098 C   0  0  0  0  0  0  0  0  0  0  0  0
   20.2371  -20.3327  -12.0513 O   0  0  0  0  0  0  0  0  0  0  0  0
   20.2376  -21.1069  -11.0589 C   0  0  0  0  0  0  0  0  0  0  0  0
   18.4710  -19.8008  -15.4615 C   0  0  0  0  0  0  0  0  0  0  0  0
   17.3244  -19.1029  -15.6999 O   0  0  0  0  0  0  0  0  0  0  0  0
  2  1  1  0
  3  2  2  0
  4  2  1  0
  5  4  1  0
  6  5  1  0
  7  6  1  0
  8  7  1  0
  8  9  1  1
 10  8  1  0
 10 11  2  0
 12 13  1  0
 13 14  1  0
 14 15  1  0
 16 15  1  1
 16 18  1  0
 16 17  1  0
 17 10  1  0
 18 27  1  0
 19 18  2  0
 21 20  1  0
 21 31  2  0
 22 21  1  0
 23 22  2  0
 23 24  1  0
 24 30  2  0
 25 24  1  0
 26 25  1  6
 26 28  1  0
 27 26  1  0
 28 29  2  0
 28 32  1  0
 30 31  1  0
M  END
$$$$
