RMY.pdb
     RDKit          3D

 32 32  0  0  1  0  0  0  0  0999 V2000
    8.6020  -20.9320    5.4399 N   0  0  0  0  0  0  0  0  0  0  0  0
    8.6287  -20.2796    4.1840 C   0  0  0  0  0  0  0  0  0  0  0  0
    7.6828  -19.4495    3.8429 N   0  0  0  0  0  0  0  0  0  0  0  0
    9.7053  -20.5482    3.3042 N   0  0  0  0  0  0  0  0  0  0  0  0
   10.8104  -21.3743    3.7202 C   0  0  0  0  0  0  0  0  0  0  0  0
   11.8551  -21.3708    2.6460 C   0  0  0  0  0  0  0  0  0  0  0  0
   13.0332  -22.2415    2.8876 C   0  0  0  0  0  0  0  0  0  0  0  0
   14.1210  -22.1786    1.8664 C   0  0  2  0  0  0  0  0  0  0  0  0
   13.6920  -22.4779    0.5217 N   0  0  0  0  0  0  0  0  0  0  0  0
   15.1908  -23.1352    2.3176 C   0  0  0  0  0  0  0  0  0  0  0  0
   14.9461  -24.3583    2.1693 O   0  0  0  0  0  0  0  0  0  0  0  0
    7.7331  -18.9670    2.9294 C   0  0  0  0  0  0  0  0  0  0  0  0
   22.3649  -25.3078    1.8673 S   0  0  0  0  0  0  0  0  0  0  0  0
   21.0518  -24.1373    1.4263 C   0  0  0  0  0  0  0  0  0  0  0  0
   19.6678  -24.3818    2.5791 C   0  0  0  0  0  0  0  0  0  0  0  0
   18.6150  -23.3670    2.2784 C   0  0  2  0  0  0  0  0  0  0  0  0
   17.4265  -23.5958    3.2210 N   0  0  0  0  0  0  0  0  0  0  0  0
   16.4091  -22.6614    2.8802 C   0  0  0  0  0  0  0  0  0  0  0  0
   17.8688  -23.4665    4.6406 O   0  0  0  0  0  0  0  0  0  0  0  0
   18.3065  -22.3948    5.1208 O   0  0  0  0  0  0  0  0  0  0  0  0
   12.8336  -21.5379    8.4409 C   0  0  0  0  0  0  0  0  0  0  0  0
   13.9059  -22.4080    8.2756 C   0  0  0  0  0  0  0  0  0  0  0  0
   13.8550  -23.5292    7.4802 C   0  0  0  0  0  0  0  0  0  0  0  0
   14.9478  -24.3581    7.3516 C   0  0  0  0  0  0  0  0  0  0  0  0
   16.1510  -24.1100    8.0121 C   0  0  0  0  0  0  0  0  0  0  0  0
   17.3105  -25.0197    7.8886 C   0  0  2  0  0  0  0  0  0  0  0  0
   18.2928  -24.5008    6.9182 N   0  0  0  0  0  0  0  0  0  0  0  0
   17.8197  -24.5592    5.5397 C   0  0  0  0  0  0  0  0  0  0  0  0
   19.5397  -25.2923    6.9629 O   0  0  0  0  0  0  0  0  0  0  0  0
   20.0542  -25.8900    5.9819 C   0  0  0  0  0  0  0  0  0  0  0  0
   16.1394  -22.9670    8.7976 C   0  0  0  0  0  0  0  0  0  0  0  0
   15.0702  -22.1330    8.9390 O   0  0  0  0  0  0  0  0  0  0  0  0
  2  1  1  0
  3  2  2  0
  4  2  1  0
  5  4  1  0
  6  5  1  0
  7  6  1  0
  8  7  1  0
  8  9  1  6
 10  8  1  0
 10 11  2  0
 12 13  1  0
 13 14  1  0
 14 15  1  0
 16 15  1  6
 16 18  1  0
 16 17  1  0
 17 10  1  0
 18 27  1  0
 19 18  2  0
 21 20  1  0
 21 31  2  0
 22 21  1  0
 23 22  2  0
 23 24  1  0
 24 30  2  0
 25 24  1  0
 26 25  1  1
 26 28  1  0
 27 26  1  0
 28 29  2  0
 28 32  1  0
 30 31  1  0
M  END
$$$$
