RMY.pdb
     RDKit          3D

 32 32  0  0  1  0  0  0  0  0999 V2000
   28.4299  -17.0342  -17.9222 N   0  0  0  0  0  0  0  0  0  0  0  0
   27.6846  -16.1192  -17.1405 C   0  0  0  0  0  0  0  0  0  0  0  0
   27.2324  -15.0117  -17.6594 N   0  0  0  0  0  0  0  0  0  0  0  0
   27.4406  -16.4318  -15.7811 N   0  0  0  0  0  0  0  0  0  0  0  0
   27.9899  -17.6246  -15.1876 C   0  0  0  0  0  0  0  0  0  0  0  0
   27.1121  -18.7899  -15.5296 C   0  0  0  0  0  0  0  0  0  0  0  0
   26.6396  -19.6022  -14.3801 C   0  0  0  0  0  0  0  0  0  0  0  0
   27.5602  -20.6804  -13.9111 C   0  0  2  0  0  0  0  0  0  0  0  0
   27.7493  -21.7536  -14.8569 N   0  0  0  0  0  0  0  0  0  0  0  0
   26.9951  -21.1955  -12.6156 C   0  0  0  0  0  0  0  0  0  0  0  0
   26.1428  -22.1140  -12.7030 O   0  0  0  0  0  0  0  0  0  0  0  0
   26.6679  -14.3695  -17.0774 C   0  0  0  0  0  0  0  0  0  0  0  0
   26.5635  -20.3787   -4.8364 S   0  0  0  0  0  0  0  0  0  0  0  0
   27.4527  -19.8912   -6.3398 C   0  0  0  0  0  0  0  0  0  0  0  0
   26.5690  -20.5863   -7.7681 C   0  0  0  0  0  0  0  0  0  0  0  0
   27.3685  -20.3140   -8.9991 C   0  0  2  0  0  0  0  0  0  0  0  0
   26.6176  -20.8820  -10.2101 N   0  0  0  0  0  0  0  0  0  0  0  0
   27.4159  -20.6587  -11.3665 C   0  0  0  0  0  0  0  0  0  0  0  0
   25.2691  -20.2514  -10.3161 O   0  0  0  0  0  0  0  0  0  0  0  0
   25.1030  -19.0114  -10.3903 O   0  0  0  0  0  0  0  0  0  0  0  0
   17.3749  -19.5900  -14.1171 C   0  0  0  0  0  0  0  0  0  0  0  0
   18.6308  -19.9641  -13.6510 C   0  0  0  0  0  0  0  0  0  0  0  0
   19.7852  -19.2806  -13.9549 C   0  0  0  0  0  0  0  0  0  0  0  0
   21.0046  -19.6948  -13.4658 C   0  0  0  0  0  0  0  0  0  0  0  0
   21.1350  -20.8157  -12.6461 C   0  0  0  0  0  0  0  0  0  0  0  0
   22.4516  -21.2682  -12.1471 C   0  0  1  0  0  0  0  0  0  0  0  0
   22.8210  -20.5628  -10.9054 N   0  0  0  0  0  0  0  0  0  0  0  0
   24.0835  -21.0251  -10.3397 C   0  0  0  0  0  0  0  0  0  0  0  0
   21.7969  -20.7722   -9.8610 O   0  0  0  0  0  0  0  0  0  0  0  0
   21.7942  -21.7153   -9.0275 C   0  0  0  0  0  0  0  0  0  0  0  0
   19.9375  -21.4614  -12.3767 C   0  0  0  0  0  0  0  0  0  0  0  0
   18.7204  -21.0690  -12.8495 O   0  0  0  0  0  0  0  0  0  0  0  0
  2  1  1  0
  3  2  2  0
  4  2  1  0
  5  4  1  0
  6  5  1  0
  7  6  1  0
  8  7  1  0
  8  9  1  6
 10  8  1  0
 10 11  2  0
 12 13  1  0
 13 14  1  0
 14 15  1  0
 16 15  1  1
 16 18  1  0
 16 17  1  0
 17 10  1  0
 18 27  1  0
 19 18  2  0
 21 20  1  0
 21 31  2  0
 22 21  1  0
 23 22  2  0
 23 24  1  0
 24 30  2  0
 25 24  1  0
 26 25  1  6
 26 28  1  0
 27 26  1  0
 28 29  2  0
 28 32  1  0
 30 31  1  0
M  END
$$$$
