GWC.pdb
     RDKit          3D

 25 26  0  0  1  0  0  0  0  0999 V2000
    7.4736  -16.7537   19.7728 N   0  0  0  0  0  0  0  0  0  0  0  0
    7.3980  -17.1720   21.1457 C   0  0  0  0  0  0  0  0  0  0  0  0
    8.4193  -16.4304   21.9474 C   0  0  0  0  0  0  0  0  0  0  0  0
    9.1410  -15.5929   21.3712 O   0  0  0  0  0  0  0  0  0  0  0  0
    8.5500  -16.6900   23.3389 N   0  0  0  0  0  0  0  0  0  0  0  0
    9.5447  -15.9980   24.1021 C   0  0  1  0  0  0  0  0  0  0  0  0
    9.1678  -15.8252   25.5638 C   0  0  0  0  0  0  0  0  0  0  0  0
    7.8670  -15.1921   25.7457 C   0  0  0  0  0  0  0  0  0  0  0  0
    6.6351  -15.7979   25.7758 C   0  0  0  0  0  0  0  0  0  0  0  0
    5.6856  -14.8397   25.9669 N   0  0  0  0  0  0  0  0  0  0  0  0
    6.2963  -13.6569   26.0558 C   0  0  0  0  0  0  0  0  0  0  0  0
    5.8443  -12.3687   26.2448 C   0  0  0  0  0  0  0  0  0  0  0  0
    6.7091  -11.2881   26.3013 C   0  0  0  0  0  0  0  0  0  0  0  0
    8.0686  -11.4868   26.1660 C   0  0  0  0  0  0  0  0  0  0  0  0
    8.5102  -12.7620   25.9790 C   0  0  0  0  0  0  0  0  0  0  0  0
    7.6544  -13.8438   25.9220 C   0  0  0  0  0  0  0  0  0  0  0  0
   10.8566  -16.6901   24.0983 C   0  0  0  0  0  0  0  0  0  0  0  0
   10.8685  -17.9111   24.3092 O   0  0  0  0  0  0  0  0  0  0  0  0
   12.0354  -15.9812   23.8645 N   0  0  0  0  0  0  0  0  0  0  0  0
   13.3522  -16.5116   23.7635 C   0  0  1  0  0  0  0  0  0  0  0  0
   14.2117  -15.7228   22.8112 C   0  0  0  0  0  0  0  0  0  0  0  0
   13.3016  -15.6339   21.2309 S   0  0  0  0  0  0  0  0  0  0  0  0
   14.0666  -16.7204   25.0541 C   0  0  0  0  0  0  0  0  0  0  0  0
   13.3492  -16.2978   26.1846 O   0  0  0  0  0  0  0  0  0  0  0  0
   15.1878  -17.2129   25.2034 O   0  0  0  0  0  0  0  0  0  0  0  0
  1  2  1  0
  2  3  1  0
  3  4  2  0
  5  3  1  0
  6  5  1  0
  6  7  1  1
  8  7  1  0
  8 16  1  0
  9 10  1  0
  9  8  2  0
 10 11  1  0
 11 16  2  0
 11 12  1  0
 12 13  2  0
 13 14  1  0
 15 14  2  0
 16 15  1  0
 17  6  1  0
 18 17  2  0
 19 17  1  0
 20 19  1  0
 20 23  1  0
 20 21  1  6
 22 21  1  0
 23 25  2  0
 23 24  1  0
M  END
$$$$
