GWC.pdb
     RDKit          3D

 25 26  0  0  1  0  0  0  0  0999 V2000
    4.6481  -20.0027   23.7895 N   0  0  0  0  0  0  0  0  0  0  0  0
    5.8716  -19.8214   23.0576 C   0  0  0  0  0  0  0  0  0  0  0  0
    6.1404  -18.3596   22.8946 C   0  0  0  0  0  0  0  0  0  0  0  0
    5.3032  -17.6598   22.2916 O   0  0  0  0  0  0  0  0  0  0  0  0
    7.3342  -17.7974   23.4232 N   0  0  0  0  0  0  0  0  0  0  0  0
    7.7026  -16.4567   23.0806 C   0  0  1  0  0  0  0  0  0  0  0  0
    8.4349  -15.7309   24.1965 C   0  0  0  0  0  0  0  0  0  0  0  0
    7.5453  -15.2680   25.2549 C   0  0  0  0  0  0  0  0  0  0  0  0
    6.7365  -16.0272   26.0640 C   0  0  0  0  0  0  0  0  0  0  0  0
    6.0732  -15.1963   26.9160 N   0  0  0  0  0  0  0  0  0  0  0  0
    6.4493  -13.9430   26.6560 C   0  0  0  0  0  0  0  0  0  0  0  0
    6.1102  -12.7206   27.1948 C   0  0  0  0  0  0  0  0  0  0  0  0
    6.6600  -11.5364   26.7320 C   0  0  0  0  0  0  0  0  0  0  0  0
    7.5770  -11.5603   25.7002 C   0  0  0  0  0  0  0  0  0  0  0  0
    7.9085  -12.7711   25.1710 C   0  0  0  0  0  0  0  0  0  0  0  0
    7.3650  -13.9553   25.6271 C   0  0  0  0  0  0  0  0  0  0  0  0
    8.5942  -16.3902   21.8970 C   0  0  0  0  0  0  0  0  0  0  0  0
    9.2640  -17.3949   21.6187 O   0  0  0  0  0  0  0  0  0  0  0  0
    8.6710  -15.2291   21.1271 N   0  0  0  0  0  0  0  0  0  0  0  0
    9.4281  -15.0343   19.9380 C   0  0  1  0  0  0  0  0  0  0  0  0
    9.0445  -13.7671   19.2205 C   0  0  0  0  0  0  0  0  0  0  0  0
    7.2212  -13.7457   19.1281 S   0  0  0  0  0  0  0  0  0  0  0  0
   10.9077  -15.1143   20.0923 C   0  0  0  0  0  0  0  0  0  0  0  0
   11.3414  -15.2608   21.4196 O   0  0  0  0  0  0  0  0  0  0  0  0
   11.7458  -15.0647   19.1883 O   0  0  0  0  0  0  0  0  0  0  0  0
  1  2  1  0
  2  3  1  0
  3  4  2  0
  5  3  1  0
  6  5  1  0
  6  7  1  1
  8  7  1  0
  8 16  1  0
  9 10  1  0
  9  8  2  0
 10 11  1  0
 11 16  2  0
 11 12  1  0
 12 13  2  0
 13 14  1  0
 15 14  2  0
 16 15  1  0
 17  6  1  0
 18 17  2  0
 19 17  1  0
 20 19  1  0
 20 23  1  0
 20 21  1  1
 22 21  1  0
 23 25  2  0
 23 24  1  0
M  END
$$$$
