GWC.pdb
     RDKit          3D

 25 26  0  0  1  0  0  0  0  0999 V2000
    5.8730  -18.1781   20.7690 N   0  0  0  0  0  0  0  0  0  0  0  0
    6.4125  -18.4816   22.0661 C   0  0  0  0  0  0  0  0  0  0  0  0
    7.4565  -17.4708   22.4183 C   0  0  0  0  0  0  0  0  0  0  0  0
    7.9656  -16.7918   21.5050 O   0  0  0  0  0  0  0  0  0  0  0  0
    7.8484  -17.3028   23.7744 N   0  0  0  0  0  0  0  0  0  0  0  0
    8.9162  -16.4064   24.1012 C   0  0  1  0  0  0  0  0  0  0  0  0
    8.8534  -15.8928   25.5298 C   0  0  0  0  0  0  0  0  0  0  0  0
    7.6298  -15.1534   25.8161 C   0  0  0  0  0  0  0  0  0  0  0  0
    6.3706  -15.6608   26.0218 C   0  0  0  0  0  0  0  0  0  0  0  0
    5.5188  -14.6239   26.2576 N   0  0  0  0  0  0  0  0  0  0  0  0
    6.2166  -13.4882   26.2031 C   0  0  0  0  0  0  0  0  0  0  0  0
    5.8804  -12.1608   26.3602 C   0  0  0  0  0  0  0  0  0  0  0  0
    6.8190  -11.1480   26.2517 C   0  0  0  0  0  0  0  0  0  0  0  0
    8.1365  -11.4570   25.9778 C   0  0  0  0  0  0  0  0  0  0  0  0
    8.4634  -12.7704   25.8230 C   0  0  0  0  0  0  0  0  0  0  0  0
    7.5336  -13.7852   25.9301 C   0  0  0  0  0  0  0  0  0  0  0  0
   10.2547  -17.0273   23.9496 C   0  0  0  0  0  0  0  0  0  0  0  0
   10.4078  -18.1840   24.3670 O   0  0  0  0  0  0  0  0  0  0  0  0
   11.3031  -16.3242   23.3552 N   0  0  0  0  0  0  0  0  0  0  0  0
   12.6441  -16.7664   23.1788 C   0  0  1  0  0  0  0  0  0  0  0  0
   13.3295  -16.0633   22.0370 C   0  0  0  0  0  0  0  0  0  0  0  0
   12.3593  -16.4298   20.5344 S   0  0  0  0  0  0  0  0  0  0  0  0
   13.5019  -16.7341   24.3965 C   0  0  0  0  0  0  0  0  0  0  0  0
   12.8498  -16.2652   25.5481 O   0  0  0  0  0  0  0  0  0  0  0  0
   14.6863  -17.0712   24.4718 O   0  0  0  0  0  0  0  0  0  0  0  0
  1  2  1  0
  2  3  1  0
  3  4  2  0
  5  3  1  0
  6  5  1  0
  6  7  1  1
  8  7  1  0
  8 16  1  0
  9 10  1  0
  9  8  2  0
 10 11  1  0
 11 16  2  0
 11 12  1  0
 12 13  2  0
 13 14  1  0
 15 14  2  0
 16 15  1  0
 17  6  1  0
 18 17  2  0
 19 17  1  0
 20 19  1  0
 20 23  1  0
 20 21  1  6
 22 21  1  0
 23 25  2  0
 23 24  1  0
M  END
$$$$
