GWC.pdb
     RDKit          3D

 25 26  0  0  1  0  0  0  0  0999 V2000
    5.1047  -20.7799   24.1639 N   0  0  0  0  0  0  0  0  0  0  0  0
    6.2579  -20.1678   24.7649 C   0  0  0  0  0  0  0  0  0  0  0  0
    6.4855  -18.8251   24.1477 C   0  0  0  0  0  0  0  0  0  0  0  0
    5.7118  -18.4395   23.2493 O   0  0  0  0  0  0  0  0  0  0  0  0
    7.5694  -18.0187   24.5897 N   0  0  0  0  0  0  0  0  0  0  0  0
    7.7915  -16.7355   23.9943 C   0  0  1  0  0  0  0  0  0  0  0  0
    8.4116  -15.7293   24.9491 C   0  0  0  0  0  0  0  0  0  0  0  0
    7.4188  -14.9603   25.6899 C   0  0  0  0  0  0  0  0  0  0  0  0
    6.2274  -15.4050   26.2077 C   0  0  0  0  0  0  0  0  0  0  0  0
    5.6060  -14.3608   26.8240 N   0  0  0  0  0  0  0  0  0  0  0  0
    6.3804  -13.2814   26.7016 C   0  0  0  0  0  0  0  0  0  0  0  0
    6.2580  -11.9745   27.1217 C   0  0  0  0  0  0  0  0  0  0  0  0
    7.2311  -11.0245   26.8584 C   0  0  0  0  0  0  0  0  0  0  0  0
    8.3653  -11.3778   26.1549 C   0  0  0  0  0  0  0  0  0  0  0  0
    8.4813  -12.6707   25.7417 C   0  0  0  0  0  0  0  0  0  0  0  0
    7.5158  -13.6230   26.0006 C   0  0  0  0  0  0  0  0  0  0  0  0
    8.6967  -16.7953   22.8207 C   0  0  0  0  0  0  0  0  0  0  0  0
    9.5813  -17.6630   22.8146 O   0  0  0  0  0  0  0  0  0  0  0  0
    8.5504  -15.8988   21.7616 N   0  0  0  0  0  0  0  0  0  0  0  0
    9.3907  -15.7716   20.6202 C   0  0  1  0  0  0  0  0  0  0  0  0
    8.8755  -14.7455   19.6459 C   0  0  0  0  0  0  0  0  0  0  0  0
    7.0741  -15.0088   19.5075 S   0  0  0  0  0  0  0  0  0  0  0  0
   10.8349  -15.5383   20.9025 C   0  0  0  0  0  0  0  0  0  0  0  0
   11.6425  -15.4715   19.7559 O   0  0  0  0  0  0  0  0  0  0  0  0
   11.3556  -15.4046   22.0129 O   0  0  0  0  0  0  0  0  0  0  0  0
  1  2  1  0
  2  3  1  0
  3  4  2  0
  5  3  1  0
  6  5  1  0
  6  7  1  1
  8  7  1  0
  8 16  1  0
  9 10  1  0
  9  8  2  0
 10 11  1  0
 11 16  2  0
 11 12  1  0
 12 13  2  0
 13 14  1  0
 15 14  2  0
 16 15  1  0
 17  6  1  0
 18 17  2  0
 19 17  1  0
 20 19  1  0
 20 23  1  0
 20 21  1  6
 22 21  1  0
 23 25  2  0
 23 24  1  0
M  END
$$$$
