GWC.pdb
     RDKit          3D

 25 26  0  0  1  0  0  0  0  0999 V2000
    5.6333  -17.7295   20.3225 N   0  0  0  0  0  0  0  0  0  0  0  0
    6.0508  -18.0519   21.6594 C   0  0  0  0  0  0  0  0  0  0  0  0
    7.1574  -17.1335   22.0688 C   0  0  0  0  0  0  0  0  0  0  0  0
    7.5734  -16.2928   21.2476 O   0  0  0  0  0  0  0  0  0  0  0  0
    7.7122  -17.2333   23.3738 N   0  0  0  0  0  0  0  0  0  0  0  0
    8.7947  -16.3768   23.7548 C   0  0  1  0  0  0  0  0  0  0  0  0
    8.7649  -15.9879   25.2233 C   0  0  0  0  0  0  0  0  0  0  0  0
    7.5927  -15.1975   25.5796 C   0  0  0  0  0  0  0  0  0  0  0  0
    6.3128  -15.6445   25.7972 C   0  0  0  0  0  0  0  0  0  0  0  0
    5.5270  -14.5754   26.1064 N   0  0  0  0  0  0  0  0  0  0  0  0
    6.2858  -13.4782   26.0859 C   0  0  0  0  0  0  0  0  0  0  0  0
    6.0290  -12.1437   26.3156 C   0  0  0  0  0  0  0  0  0  0  0  0
    7.0198  -11.1798   26.2282 C   0  0  0  0  0  0  0  0  0  0  0  0
    8.3102  -11.5468   25.9021 C   0  0  0  0  0  0  0  0  0  0  0  0
    8.5587  -12.8670   25.6757 C   0  0  0  0  0  0  0  0  0  0  0  0
    7.5764  -13.8333   25.7612 C   0  0  0  0  0  0  0  0  0  0  0  0
   10.1240  -16.9929   23.5231 C   0  0  0  0  0  0  0  0  0  0  0  0
   10.2780  -18.1787   23.8482 O   0  0  0  0  0  0  0  0  0  0  0  0
   11.1630  -16.2534   22.9570 N   0  0  0  0  0  0  0  0  0  0  0  0
   12.4857  -16.7003   22.6814 C   0  0  1  0  0  0  0  0  0  0  0  0
   13.1540  -15.8752   21.6135 C   0  0  0  0  0  0  0  0  0  0  0  0
   12.1239  -16.0218   20.1131 S   0  0  0  0  0  0  0  0  0  0  0  0
   13.3813  -16.8403   23.8637 C   0  0  0  0  0  0  0  0  0  0  0  0
   14.6534  -17.3540   23.5652 O   0  0  0  0  0  0  0  0  0  0  0  0
   13.1079  -16.5540   25.0322 O   0  0  0  0  0  0  0  0  0  0  0  0
  1  2  1  0
  2  3  1  0
  3  4  2  0
  5  3  1  0
  6  5  1  0
  6  7  1  1
  8  7  1  0
  8 16  1  0
  9 10  1  0
  9  8  2  0
 10 11  1  0
 11 16  2  0
 11 12  1  0
 12 13  2  0
 13 14  1  0
 15 14  2  0
 16 15  1  0
 17  6  1  0
 18 17  2  0
 19 17  1  0
 20 19  1  0
 20 23  1  0
 20 21  1  6
 22 21  1  0
 23 25  2  0
 23 24  1  0
M  END
$$$$
