GWC.pdb
     RDKit          3D

 25 26  0  0  1  0  0  0  0  0999 V2000
    6.6940  -15.9124   19.7699 N   0  0  0  0  0  0  0  0  0  0  0  0
    6.7174  -16.5437   21.0608 C   0  0  0  0  0  0  0  0  0  0  0  0
    7.8315  -15.9678   21.8749 C   0  0  0  0  0  0  0  0  0  0  0  0
    8.5704  -15.1079   21.3562 O   0  0  0  0  0  0  0  0  0  0  0  0
    8.0289  -16.4060   23.2127 N   0  0  0  0  0  0  0  0  0  0  0  0
    9.1423  -15.9134   23.9665 C   0  0  1  0  0  0  0  0  0  0  0  0
    8.8766  -15.8537   25.4612 C   0  0  0  0  0  0  0  0  0  0  0  0
    7.6746  -15.0996   25.7965 C   0  0  0  0  0  0  0  0  0  0  0  0
    6.3949  -15.5776   25.9356 C   0  0  0  0  0  0  0  0  0  0  0  0
    5.5756  -14.5365   26.2536 N   0  0  0  0  0  0  0  0  0  0  0  0
    6.3135  -13.4267   26.3150 C   0  0  0  0  0  0  0  0  0  0  0  0
    6.0212  -12.1081   26.5895 C   0  0  0  0  0  0  0  0  0  0  0  0
    6.9963  -11.1245   26.5892 C   0  0  0  0  0  0  0  0  0  0  0  0
    8.3070  -11.4547   26.3076 C   0  0  0  0  0  0  0  0  0  0  0  0
    8.5906  -12.7594   26.0367 C   0  0  0  0  0  0  0  0  0  0  0  0
    7.6241  -13.7452   26.0354 C   0  0  0  0  0  0  0  0  0  0  0  0
   10.3605  -16.7436   23.8017 C   0  0  0  0  0  0  0  0  0  0  0  0
   10.2246  -17.9751   23.7838 O   0  0  0  0  0  0  0  0  0  0  0  0
   11.6159  -16.1487   23.6721 N   0  0  0  0  0  0  0  0  0  0  0  0
   12.8768  -16.8058   23.6121 C   0  0  1  0  0  0  0  0  0  0  0  0
   13.9212  -15.9706   22.9198 C   0  0  0  0  0  0  0  0  0  0  0  0
   13.2740  -15.5919   21.2551 S   0  0  0  0  0  0  0  0  0  0  0  0
   13.4009  -17.3202   24.9084 C   0  0  0  0  0  0  0  0  0  0  0  0
   14.5843  -18.0672   24.7955 O   0  0  0  0  0  0  0  0  0  0  0  0
   12.9016  -17.1504   26.0237 O   0  0  0  0  0  0  0  0  0  0  0  0
  1  2  1  0
  2  3  1  0
  3  4  2  0
  5  3  1  0
  6  5  1  0
  6  7  1  1
  8  7  1  0
  8 16  1  0
  9 10  1  0
  9  8  2  0
 10 11  1  0
 11 16  2  0
 11 12  1  0
 12 13  2  0
 13 14  1  0
 15 14  2  0
 16 15  1  0
 17  6  1  0
 18 17  2  0
 19 17  1  0
 20 19  1  0
 20 23  1  0
 20 21  1  1
 22 21  1  0
 23 25  2  0
 23 24  1  0
M  END
$$$$
