GWC.pdb
     RDKit          3D

 25 26  0  0  1  0  0  0  0  0999 V2000
    4.7820  -19.3650   23.3202 N   0  0  0  0  0  0  0  0  0  0  0  0
    6.1921  -19.6429   23.3340 C   0  0  0  0  0  0  0  0  0  0  0  0
    6.9513  -18.3653   23.1689 C   0  0  0  0  0  0  0  0  0  0  0  0
    6.8936  -17.7709   22.0746 O   0  0  0  0  0  0  0  0  0  0  0  0
    7.7193  -17.8549   24.2508 N   0  0  0  0  0  0  0  0  0  0  0  0
    8.5711  -16.7219   24.0473 C   0  0  1  0  0  0  0  0  0  0  0  0
    8.8202  -15.9222   25.3150 C   0  0  0  0  0  0  0  0  0  0  0  0
    7.6261  -15.2438   25.8045 C   0  0  0  0  0  0  0  0  0  0  0  0
    6.4655  -15.8145   26.2654 C   0  0  0  0  0  0  0  0  0  0  0  0
    5.6060  -14.8200   26.6238 N   0  0  0  0  0  0  0  0  0  0  0  0
    6.2032  -13.6487   26.3969 C   0  0  0  0  0  0  0  0  0  0  0  0
    5.8146  -12.3376   26.5692 C   0  0  0  0  0  0  0  0  0  0  0  0
    6.6457  -11.2773   26.2474 C   0  0  0  0  0  0  0  0  0  0  0  0
    7.9053  -11.5204   25.7370 C   0  0  0  0  0  0  0  0  0  0  0  0
    8.2843  -12.8180   25.5683 C   0  0  0  0  0  0  0  0  0  0  0  0
    7.4617  -13.8799   25.8870 C   0  0  0  0  0  0  0  0  0  0  0  0
    9.9105  -17.0951   23.5307 C   0  0  0  0  0  0  0  0  0  0  0  0
   10.4019  -18.1661   23.9142 O   0  0  0  0  0  0  0  0  0  0  0  0
   10.5892  -16.2607   22.6418 N   0  0  0  0  0  0  0  0  0  0  0  0
   11.8639  -16.4883   22.0516 C   0  0  1  0  0  0  0  0  0  0  0  0
   12.1146  -15.5851   20.8730 C   0  0  0  0  0  0  0  0  0  0  0  0
   10.7956  -15.9270   19.6577 S   0  0  0  0  0  0  0  0  0  0  0  0
   13.0246  -16.4556   22.9851 C   0  0  0  0  0  0  0  0  0  0  0  0
   14.2594  -16.7365   22.3789 O   0  0  0  0  0  0  0  0  0  0  0  0
   12.9902  -16.2123   24.1941 O   0  0  0  0  0  0  0  0  0  0  0  0
  1  2  1  0
  2  3  1  0
  3  4  2  0
  5  3  1  0
  6  5  1  0
  6  7  1  1
  8  7  1  0
  8 16  1  0
  9 10  1  0
  9  8  2  0
 10 11  1  0
 11 16  2  0
 11 12  1  0
 12 13  2  0
 13 14  1  0
 15 14  2  0
 16 15  1  0
 17  6  1  0
 18 17  2  0
 19 17  1  0
 20 19  1  0
 20 23  1  0
 20 21  1  6
 22 21  1  0
 23 25  2  0
 23 24  1  0
M  END
$$$$
