GWC.pdb
     RDKit          3D

 25 26  0  0  1  0  0  0  0  0999 V2000
    6.3876  -14.9966   20.1287 N   0  0  0  0  0  0  0  0  0  0  0  0
    6.8989  -16.1272   20.8538 C   0  0  0  0  0  0  0  0  0  0  0  0
    7.9420  -15.6662   21.8208 C   0  0  0  0  0  0  0  0  0  0  0  0
    8.7369  -14.7741   21.4649 O   0  0  0  0  0  0  0  0  0  0  0  0
    8.0104  -16.2470   23.1165 N   0  0  0  0  0  0  0  0  0  0  0  0
    9.0912  -15.9081   23.9926 C   0  0  1  0  0  0  0  0  0  0  0  0
    8.7137  -15.9675   25.4632 C   0  0  0  0  0  0  0  0  0  0  0  0
    7.5605  -15.1372   25.7893 C   0  0  0  0  0  0  0  0  0  0  0  0
    6.2546  -15.5346   25.9378 C   0  0  0  0  0  0  0  0  0  0  0  0
    5.5007  -14.4413   26.2417 N   0  0  0  0  0  0  0  0  0  0  0  0
    6.3046  -13.3774   26.2852 C   0  0  0  0  0  0  0  0  0  0  0  0
    6.0933  -12.0396   26.5405 C   0  0  0  0  0  0  0  0  0  0  0  0
    7.1262  -11.1169   26.5238 C   0  0  0  0  0  0  0  0  0  0  0  0
    8.4137  -11.5301   26.2447 C   0  0  0  0  0  0  0  0  0  0  0  0
    8.6171  -12.8534   25.9928 C   0  0  0  0  0  0  0  0  0  0  0  0
    7.5927  -13.7788   26.0080 C   0  0  0  0  0  0  0  0  0  0  0  0
   10.2617  -16.8056   23.8355 C   0  0  0  0  0  0  0  0  0  0  0  0
   10.0463  -18.0091   23.6336 O   0  0  0  0  0  0  0  0  0  0  0  0
   11.5608  -16.3028   23.9144 N   0  0  0  0  0  0  0  0  0  0  0  0
   12.7751  -17.0369   23.8067 C   0  0  1  0  0  0  0  0  0  0  0  0
   13.8193  -16.2962   23.0137 C   0  0  0  0  0  0  0  0  0  0  0  0
   13.0980  -15.9703   21.3684 S   0  0  0  0  0  0  0  0  0  0  0  0
   13.3510  -17.5273   25.0903 C   0  0  0  0  0  0  0  0  0  0  0  0
   14.4850  -18.3412   24.9391 O   0  0  0  0  0  0  0  0  0  0  0  0
   12.9309  -17.2868   26.2250 O   0  0  0  0  0  0  0  0  0  0  0  0
  1  2  1  0
  2  3  1  0
  3  4  2  0
  5  3  1  0
  6  5  1  0
  6  7  1  1
  8  7  1  0
  8 16  1  0
  9 10  1  0
  9  8  2  0
 10 11  1  0
 11 16  2  0
 11 12  1  0
 12 13  2  0
 13 14  1  0
 15 14  2  0
 16 15  1  0
 17  6  1  0
 18 17  2  0
 19 17  1  0
 20 19  1  0
 20 23  1  0
 20 21  1  1
 22 21  1  0
 23 25  2  0
 23 24  1  0
M  END
$$$$
