GWC.pdb
     RDKit          3D

 25 26  0  0  1  0  0  0  0  0999 V2000
    6.9449  -16.0366   19.8652 N   0  0  0  0  0  0  0  0  0  0  0  0
    7.1207  -16.7645   21.0919 C   0  0  0  0  0  0  0  0  0  0  0  0
    8.1876  -16.1093   21.9093 C   0  0  0  0  0  0  0  0  0  0  0  0
    8.9092  -15.2462   21.3720 O   0  0  0  0  0  0  0  0  0  0  0  0
    8.3608  -16.4778   23.2712 N   0  0  0  0  0  0  0  0  0  0  0  0
    9.5010  -16.0053   23.9973 C   0  0  1  0  0  0  0  0  0  0  0  0
    9.2359  -15.8275   25.4828 C   0  0  0  0  0  0  0  0  0  0  0  0
    7.9449  -15.2097   25.7611 C   0  0  0  0  0  0  0  0  0  0  0  0
    6.7165  -15.8205   25.8185 C   0  0  0  0  0  0  0  0  0  0  0  0
    5.7765  -14.8773   26.1063 N   0  0  0  0  0  0  0  0  0  0  0  0
    6.3897  -13.6987   26.2284 C   0  0  0  0  0  0  0  0  0  0  0  0
    5.9462  -12.4240   26.5075 C   0  0  0  0  0  0  0  0  0  0  0  0
    6.8116  -11.3449   26.5796 C   0  0  0  0  0  0  0  0  0  0  0  0
    8.1632  -11.5313   26.3681 C   0  0  0  0  0  0  0  0  0  0  0  0
    8.5963  -12.7931   26.0922 C   0  0  0  0  0  0  0  0  0  0  0  0
    7.7398  -13.8734   26.0191 C   0  0  0  0  0  0  0  0  0  0  0  0
   10.6652  -16.9192   23.8975 C   0  0  0  0  0  0  0  0  0  0  0  0
   10.4661  -18.1313   24.0600 O   0  0  0  0  0  0  0  0  0  0  0  0
   11.9407  -16.4214   23.6292 N   0  0  0  0  0  0  0  0  0  0  0  0
   13.1361  -17.1719   23.4476 C   0  0  1  0  0  0  0  0  0  0  0  0
   14.0755  -16.5176   22.4693 C   0  0  0  0  0  0  0  0  0  0  0  0
   14.4733  -14.8683   23.1439 S   0  0  0  0  0  0  0  0  0  0  0  0
   13.8628  -17.5435   24.6940 C   0  0  0  0  0  0  0  0  0  0  0  0
   14.9053  -18.4637   24.5004 O   0  0  0  0  0  0  0  0  0  0  0  0
   13.6330  -17.1264   25.8321 O   0  0  0  0  0  0  0  0  0  0  0  0
  1  2  1  0
  2  3  1  0
  3  4  2  0
  5  3  1  0
  6  5  1  0
  6  7  1  1
  8  7  1  0
  8 16  1  0
  9 10  1  0
  9  8  2  0
 10 11  1  0
 11 16  2  0
 11 12  1  0
 12 13  2  0
 13 14  1  0
 15 14  2  0
 16 15  1  0
 17  6  1  0
 18 17  2  0
 19 17  1  0
 20 19  1  0
 20 23  1  0
 20 21  1  6
 22 21  1  0
 23 25  2  0
 23 24  1  0
M  END
$$$$
