WAT.pdb
     RDKit          3D

 27 28  0  0  1  0  0  0  0  0999 V2000
   25.3877  -22.3122  -11.6414 N   0  0  0  0  0  0  0  0  0  0  0  0
   25.5717  -20.9234  -11.9097 C   0  0  1  0  0  0  0  0  0  0  0  0
   27.0344  -20.6339  -12.1387 C   0  0  0  0  0  0  0  0  0  0  0  0
   27.8909  -20.8080  -10.9568 C   0  0  0  0  0  0  0  0  0  0  0  0
   29.2306  -21.2249  -10.9438 C   0  0  0  0  0  0  0  0  0  0  0  0
   29.6375  -21.2856   -9.6707 N   0  0  0  0  0  0  0  0  0  0  0  0
   28.6250  -20.9274   -8.8654 C   0  0  0  0  0  0  0  0  0  0  0  0
   28.5780  -20.8303   -7.4801 C   0  0  0  0  0  0  0  0  0  0  0  0
   27.3924  -20.4195   -6.9093 C   0  0  0  0  0  0  0  0  0  0  0  0
   26.2827  -20.1110   -7.6647 C   0  0  0  0  0  0  0  0  0  0  0  0
   26.3324  -20.2088   -9.0436 C   0  0  0  0  0  0  0  0  0  0  0  0
   27.5053  -20.6181   -9.6379 C   0  0  0  0  0  0  0  0  0  0  0  0
   24.7663  -20.5163  -13.1017 C   0  0  0  0  0  0  0  0  0  0  0  0
   24.2410  -21.4055  -13.8562 O   0  0  0  0  0  0  0  0  0  0  0  0
   23.4768  -17.3274  -14.7137 C   0  0  0  0  0  0  0  0  0  0  0  0
   23.6734  -18.8060  -14.6014 C   0  0  2  0  0  0  0  0  0  0  0  0
   24.5249  -19.1753  -13.4857 N   0  0  0  0  0  0  0  0  0  0  0  0
   24.1301  -19.3483  -15.8738 C   0  0  0  0  0  0  0  0  0  0  0  0
   25.3263  -19.2714  -16.2209 O   0  0  0  0  0  0  0  0  0  0  0  0
   23.3536  -23.0227  -17.3611 C   0  0  0  0  0  0  0  0  0  0  0  0
   22.9217  -21.9046  -18.2686 C   0  0  1  0  0  0  0  0  0  0  0  0
   21.5463  -21.7008  -18.0147 O   0  0  0  0  0  0  0  0  0  0  0  0
   23.5978  -20.6007  -17.9919 C   0  0  2  0  0  0  0  0  0  0  0  0
   23.2282  -19.9808  -16.7565 N   0  0  0  0  0  0  0  0  0  0  0  0
   23.3109  -19.6710  -19.1018 C   0  0  0  0  0  0  0  0  0  0  0  0
   22.6242  -18.6326  -18.9371 O   0  0  0  0  0  0  0  0  0  0  0  0
   23.7963  -19.9206  -20.3699 O   0  0  0  0  0  0  0  0  0  0  0  0
  2  3  1  0
  2  1  1  6
  4  5  2  0
  4  3  1  0
  6  5  1  0
  7 12  2  0
  7  6  1  0
  8  7  1  0
  9 10  1  0
  9  8  2  0
 10 11  2  0
 11 12  1  0
 12  4  1  0
 13  2  1  0
 14 13  2  0
 16 15  1  6
 16 18  1  0
 16 17  1  0
 17 13  1  0
 18 19  2  0
 21 20  1  1
 22 21  1  0
 23 21  1  0
 23 25  1  0
 23 24  1  1
 24 18  1  0
 25 26  2  0
 25 27  1  0
M  END
$$$$
