WAT.pdb
     RDKit          3D

 27 28  0  0  1  0  0  0  0  0999 V2000
   23.3894  -20.5966  -12.0508 N   0  0  0  0  0  0  0  0  0  0  0  0
   24.5062  -19.7126  -11.9748 C   0  0  1  0  0  0  0  0  0  0  0  0
   25.6879  -20.4287  -11.3693 C   0  0  0  0  0  0  0  0  0  0  0  0
   25.5558  -20.7377   -9.9382 C   0  0  0  0  0  0  0  0  0  0  0  0
   24.6871  -21.6739   -9.3573 C   0  0  0  0  0  0  0  0  0  0  0  0
   24.8513  -21.6296   -8.0302 N   0  0  0  0  0  0  0  0  0  0  0  0
   25.7834  -20.7114   -7.7304 C   0  0  0  0  0  0  0  0  0  0  0  0
   26.2904  -20.3245   -6.4958 C   0  0  0  0  0  0  0  0  0  0  0  0
   27.2658  -19.3506   -6.4837 C   0  0  0  0  0  0  0  0  0  0  0  0
   27.7358  -18.7687   -7.6403 C   0  0  0  0  0  0  0  0  0  0  0  0
   27.2291  -19.1557   -8.8678 C   0  0  0  0  0  0  0  0  0  0  0  0
   26.2530  -20.1264   -8.9065 C   0  0  0  0  0  0  0  0  0  0  0  0
   24.8500  -19.1964  -13.3352 C   0  0  0  0  0  0  0  0  0  0  0  0
   24.6389  -19.9194  -14.3689 O   0  0  0  0  0  0  0  0  0  0  0  0
   26.1404  -16.0121  -14.9470 C   0  0  0  0  0  0  0  0  0  0  0  0
   25.7751  -17.4623  -14.9182 C   0  0  2  0  0  0  0  0  0  0  0  0
   25.4141  -17.9233  -13.5902 N   0  0  0  0  0  0  0  0  0  0  0  0
   26.8302  -18.2565  -15.5325 C   0  0  0  0  0  0  0  0  0  0  0  0
   27.3383  -17.9287  -16.6242 O   0  0  0  0  0  0  0  0  0  0  0  0
   29.4295  -20.4263  -13.0797 C   0  0  0  0  0  0  0  0  0  0  0  0
   29.0243  -21.1133  -14.3542 C   0  0  1  0  0  0  0  0  0  0  0  0
   28.0130  -22.0349  -13.9999 O   0  0  0  0  0  0  0  0  0  0  0  0
   28.4225  -20.2001  -15.3727 C   0  0  2  0  0  0  0  0  0  0  0  0
   27.3123  -19.4269  -14.9075 N   0  0  0  0  0  0  0  0  0  0  0  0
   27.9971  -21.0009  -16.5374 C   0  0  0  0  0  0  0  0  0  0  0  0
   26.7909  -21.0929  -16.8747 O   0  0  0  0  0  0  0  0  0  0  0  0
   28.9263  -21.6808  -17.2991 O   0  0  0  0  0  0  0  0  0  0  0  0
  2  3  1  0
  2  1  1  6
  4  5  2  0
  4  3  1  0
  6  5  1  0
  7 12  2  0
  7  6  1  0
  8  7  1  0
  9 10  1  0
  9  8  2  0
 10 11  2  0
 11 12  1  0
 12  4  1  0
 13  2  1  0
 14 13  2  0
 16 15  1  1
 16 18  1  0
 16 17  1  0
 17 13  1  0
 18 19  2  0
 21 20  1  1
 22 21  1  0
 23 21  1  0
 23 25  1  0
 23 24  1  1
 24 18  1  0
 25 26  2  0
 25 27  1  0
M  END
$$$$
