WAT.pdb
     RDKit          3D

 27 28  0  0  1  0  0  0  0  0999 V2000
   27.0112  -20.2782  -12.2414 N   0  0  0  0  0  0  0  0  0  0  0  0
   26.2877  -21.4697  -11.9388 C   0  0  1  0  0  0  0  0  0  0  0  0
   25.5598  -21.3095  -10.6272 C   0  0  0  0  0  0  0  0  0  0  0  0
   26.4181  -20.9763   -9.4812 C   0  0  0  0  0  0  0  0  0  0  0  0
   26.0205  -20.3625   -8.2838 C   0  0  0  0  0  0  0  0  0  0  0  0
   27.1036  -20.2067   -7.5139 N   0  0  0  0  0  0  0  0  0  0  0  0
   28.1772  -20.6911   -8.1578 C   0  0  0  0  0  0  0  0  0  0  0  0
   29.5054  -20.7564   -7.7547 C   0  0  0  0  0  0  0  0  0  0  0  0
   30.4093  -21.3252   -8.6262 C   0  0  0  0  0  0  0  0  0  0  0  0
   30.0322  -21.8175   -9.8562 C   0  0  0  0  0  0  0  0  0  0  0  0
   28.7094  -21.7509  -10.2549 C   0  0  0  0  0  0  0  0  0  0  0  0
   27.7870  -21.1862   -9.4023 C   0  0  0  0  0  0  0  0  0  0  0  0
   25.3219  -21.7807  -13.0369 C   0  0  0  0  0  0  0  0  0  0  0  0
   24.8342  -20.8374  -13.7498 O   0  0  0  0  0  0  0  0  0  0  0  0
   23.8698  -24.8296  -14.7674 C   0  0  0  0  0  0  0  0  0  0  0  0
   24.0007  -23.3656  -14.4899 C   0  0  2  0  0  0  0  0  0  0  0  0
   24.8801  -23.0836  -13.3703 N   0  0  0  0  0  0  0  0  0  0  0  0
   22.6822  -22.7632  -14.3479 C   0  0  0  0  0  0  0  0  0  0  0  0
   22.1359  -22.6514  -13.2314 O   0  0  0  0  0  0  0  0  0  0  0  0
   20.1271  -21.4715  -17.8615 C   0  0  0  0  0  0  0  0  0  0  0  0
   20.4350  -20.7224  -16.5948 C   0  0  1  0  0  0  0  0  0  0  0  0
   19.2645  -19.9995  -16.2708 O   0  0  0  0  0  0  0  0  0  0  0  0
   20.7231  -21.6029  -15.4221 C   0  0  2  0  0  0  0  0  0  0  0  0
   21.9797  -22.2849  -15.4750 N   0  0  0  0  0  0  0  0  0  0  0  0
   19.6402  -22.5980  -15.2969 C   0  0  0  0  0  0  0  0  0  0  0  0
   19.8241  -23.8144  -15.5494 O   0  0  0  0  0  0  0  0  0  0  0  0
   18.3770  -22.2140  -14.8932 O   0  0  0  0  0  0  0  0  0  0  0  0
  2  3  1  0
  2  1  1  6
  4  5  2  0
  4  3  1  0
  6  5  1  0
  7 12  2  0
  7  6  1  0
  8  7  1  0
  9 10  1  0
  9  8  2  0
 10 11  2  0
 11 12  1  0
 12  4  1  0
 13  2  1  0
 14 13  2  0
 16 15  1  1
 16 18  1  0
 16 17  1  0
 17 13  1  0
 18 19  2  0
 21 20  1  6
 22 21  1  0
 23 21  1  0
 23 25  1  0
 23 24  1  6
 24 18  1  0
 25 26  2  0
 25 27  1  0
M  END
$$$$
