WAT.pdb
     RDKit          3D

 27 28  0  0  1  0  0  0  0  0999 V2000
   16.7910  -15.1992    5.7795 N   0  0  0  0  0  0  0  0  0  0  0  0
   17.3136  -16.4477    6.2299 C   0  0  1  0  0  0  0  0  0  0  0  0
   18.1293  -17.0883    5.1343 C   0  0  0  0  0  0  0  0  0  0  0  0
   17.3434  -17.7887    4.1083 C   0  0  0  0  0  0  0  0  0  0  0  0
   16.4876  -17.2056    3.1616 C   0  0  0  0  0  0  0  0  0  0  0  0
   15.9393  -18.1854    2.4339 N   0  0  0  0  0  0  0  0  0  0  0  0
   16.4017  -19.3691    2.8663 C   0  0  0  0  0  0  0  0  0  0  0  0
   16.1261  -20.6538    2.4143 C   0  0  0  0  0  0  0  0  0  0  0  0
   16.7617  -21.7019    3.0451 C   0  0  0  0  0  0  0  0  0  0  0  0
   17.6414  -21.5063    4.0867 C   0  0  0  0  0  0  0  0  0  0  0  0
   17.9136  -20.2263    4.5347 C   0  0  0  0  0  0  0  0  0  0  0  0
   17.2904  -19.1622    3.9215 C   0  0  0  0  0  0  0  0  0  0  0  0
   18.1494  -16.2469    7.4532 C   0  0  0  0  0  0  0  0  0  0  0  0
   18.9195  -15.2299    7.5452 O   0  0  0  0  0  0  0  0  0  0  0  0
   18.4427  -17.5749   10.9613 C   0  0  0  0  0  0  0  0  0  0  0  0
   18.9884  -16.9043    9.7407 C   0  0  2  0  0  0  0  0  0  0  0  0
   18.1646  -17.1220    8.5658 N   0  0  0  0  0  0  0  0  0  0  0  0
   20.3806  -17.2830    9.5415 C   0  0  0  0  0  0  0  0  0  0  0  0
   20.6980  -18.2049    8.7626 O   0  0  0  0  0  0  0  0  0  0  0  0
   23.6768  -14.7249    9.3966 C   0  0  0  0  0  0  0  0  0  0  0  0
   23.7504  -15.8350   10.4078 C   0  0  1  0  0  0  0  0  0  0  0  0
   23.3612  -15.2685   11.6429 O   0  0  0  0  0  0  0  0  0  0  0  0
   22.8035  -16.9610   10.1451 C   0  0  2  0  0  0  0  0  0  0  0  0
   21.4178  -16.6145   10.2271 N   0  0  0  0  0  0  0  0  0  0  0  0
   23.0844  -18.0514   11.0994 C   0  0  0  0  0  0  0  0  0  0  0  0
   22.2395  -18.4216   11.9516 O   0  0  0  0  0  0  0  0  0  0  0  0
   24.3010  -18.7037   11.0818 O   0  0  0  0  0  0  0  0  0  0  0  0
  2  3  1  0
  2  1  1  6
  4  5  2  0
  4  3  1  0
  6  5  1  0
  7 12  2  0
  7  6  1  0
  8  7  1  0
  9 10  1  0
  9  8  2  0
 10 11  2  0
 11 12  1  0
 12  4  1  0
 13  2  1  0
 14 13  2  0
 16 15  1  1
 16 18  1  0
 16 17  1  0
 17 13  1  0
 18 19  2  0
 21 20  1  6
 22 21  1  0
 23 21  1  0
 23 25  1  0
 23 24  1  1
 24 18  1  0
 25 26  2  0
 25 27  1  0
M  END
$$$$
