WAT.pdb
     RDKit          3D

 27 28  0  0  1  0  0  0  0  0999 V2000
   26.2264  -19.3447  -12.0820 N   0  0  0  0  0  0  0  0  0  0  0  0
   26.1300  -20.7656  -12.0028 C   0  0  1  0  0  0  0  0  0  0  0  0
   25.6560  -21.1725  -10.6296 C   0  0  0  0  0  0  0  0  0  0  0  0
   26.4829  -20.6784   -9.5192 C   0  0  0  0  0  0  0  0  0  0  0  0
   26.0580  -19.8837   -8.4437 C   0  0  0  0  0  0  0  0  0  0  0  0
   27.1185  -19.6252   -7.6701 N   0  0  0  0  0  0  0  0  0  0  0  0
   28.2035  -20.2154   -8.1956 C   0  0  0  0  0  0  0  0  0  0  0  0
   29.5169  -20.2344   -7.7421 C   0  0  0  0  0  0  0  0  0  0  0  0
   30.4382  -20.9408   -8.4853 C   0  0  0  0  0  0  0  0  0  0  0  0
   30.0921  -21.6109   -9.6379 C   0  0  0  0  0  0  0  0  0  0  0  0
   28.7840  -21.5901  -10.0871 C   0  0  0  0  0  0  0  0  0  0  0  0
   27.8448  -20.8903   -9.3626 C   0  0  0  0  0  0  0  0  0  0  0  0
   25.1955  -21.2794  -13.0507 C   0  0  0  0  0  0  0  0  0  0  0  0
   24.2183  -20.5571  -13.4500 O   0  0  0  0  0  0  0  0  0  0  0  0
   24.9254  -24.2349  -15.4093 C   0  0  0  0  0  0  0  0  0  0  0  0
   24.4323  -22.9909  -14.7410 C   0  0  2  0  0  0  0  0  0  0  0  0
   25.3013  -22.5502  -13.6653 N   0  0  0  0  0  0  0  0  0  0  0  0
   23.0473  -23.1622  -14.3239 C   0  0  0  0  0  0  0  0  0  0  0  0
   22.7588  -23.6819  -13.2266 O   0  0  0  0  0  0  0  0  0  0  0  0
   20.0349  -20.5115  -14.1622 C   0  0  0  0  0  0  0  0  0  0  0  0
   19.7714  -21.6560  -15.1009 C   0  0  1  0  0  0  0  0  0  0  0  0
   20.1448  -21.2040  -16.3870 O   0  0  0  0  0  0  0  0  0  0  0  0
   20.5976  -22.8707  -14.8262 C   0  0  2  0  0  0  0  0  0  0  0  0
   21.9846  -22.7425  -15.1528 N   0  0  0  0  0  0  0  0  0  0  0  0
   20.0306  -24.0106  -15.5729 C   0  0  0  0  0  0  0  0  0  0  0  0
   20.6487  -24.5573  -16.5196 O   0  0  0  0  0  0  0  0  0  0  0  0
   18.7873  -24.5148  -15.2470 O   0  0  0  0  0  0  0  0  0  0  0  0
  2  3  1  0
  2  1  1  1
  4  5  2  0
  4  3  1  0
  6  5  1  0
  7 12  2  0
  7  6  1  0
  8  7  1  0
  9 10  1  0
  9  8  2  0
 10 11  2  0
 11 12  1  0
 12  4  1  0
 13  2  1  0
 14 13  2  0
 16 15  1  1
 16 18  1  0
 16 17  1  0
 17 13  1  0
 18 19  2  0
 21 20  1  1
 22 21  1  0
 23 21  1  0
 23 25  1  0
 23 24  1  6
 24 18  1  0
 25 26  2  0
 25 27  1  0
M  END
$$$$
