WAT.pdb
     RDKit          3D

 27 28  0  0  1  0  0  0  0  0999 V2000
   16.4231  -16.8339    5.7947 N   0  0  0  0  0  0  0  0  0  0  0  0
   17.3095  -17.8641    5.3617 C   0  0  1  0  0  0  0  0  0  0  0  0
   18.6934  -17.2990    5.1582 C   0  0  0  0  0  0  0  0  0  0  0  0
   18.7990  -16.2928    4.0917 C   0  0  0  0  0  0  0  0  0  0  0  0
   17.9532  -15.1919    3.8882 C   0  0  0  0  0  0  0  0  0  0  0  0
   18.3690  -14.5415    2.7954 N   0  0  0  0  0  0  0  0  0  0  0  0
   19.4407  -15.1702    2.2876 C   0  0  0  0  0  0  0  0  0  0  0  0
   20.2128  -14.8603    1.1746 C   0  0  0  0  0  0  0  0  0  0  0  0
   21.2789  -15.6859    0.8880 C   0  0  0  0  0  0  0  0  0  0  0  0
   21.5862  -16.7827    1.6625 C   0  0  0  0  0  0  0  0  0  0  0  0
   20.8157  -17.0889    2.7697 C   0  0  0  0  0  0  0  0  0  0  0  0
   19.7442  -16.2799    3.0766 C   0  0  0  0  0  0  0  0  0  0  0  0
   17.3411  -18.9734    6.3635 C   0  0  0  0  0  0  0  0  0  0  0  0
   17.5166  -18.7142    7.6037 O   0  0  0  0  0  0  0  0  0  0  0  0
   16.4248  -22.5859    6.6896 C   0  0  0  0  0  0  0  0  0  0  0  0
   17.2787  -21.4063    7.0313 C   0  0  2  0  0  0  0  0  0  0  0  0
   17.1883  -20.3444    6.0461 N   0  0  0  0  0  0  0  0  0  0  0  0
   18.6470  -21.8359    7.2857 C   0  0  0  0  0  0  0  0  0  0  0  0
   19.5114  -21.8185    6.3856 O   0  0  0  0  0  0  0  0  0  0  0  0
   20.8933  -20.8857   10.6309 C   0  0  0  0  0  0  0  0  0  0  0  0
   20.7510  -22.3535   10.3380 C   0  0  1  0  0  0  0  0  0  0  0  0
   19.6842  -22.8136   11.1430 O   0  0  0  0  0  0  0  0  0  0  0  0
   20.3724  -22.6579    8.9246 C   0  0  2  0  0  0  0  0  0  0  0  0
   19.0383  -22.2865    8.5649 N   0  0  0  0  0  0  0  0  0  0  0  0
   20.5508  -24.1033    8.6850 C   0  0  0  0  0  0  0  0  0  0  0  0
   19.5786  -24.8615    8.4463 O   0  0  0  0  0  0  0  0  0  0  0  0
   21.8093  -24.6701    8.7171 O   0  0  0  0  0  0  0  0  0  0  0  0
  2  3  1  0
  2  1  1  1
  4  5  2  0
  4  3  1  0
  6  5  1  0
  7 12  2  0
  7  6  1  0
  8  7  1  0
  9 10  1  0
  9  8  2  0
 10 11  2  0
 11 12  1  0
 12  4  1  0
 13  2  1  0
 14 13  2  0
 16 15  1  6
 16 18  1  0
 16 17  1  0
 17 13  1  0
 18 19  2  0
 21 20  1  6
 22 21  1  0
 23 21  1  0
 23 25  1  0
 23 24  1  1
 24 18  1  0
 25 26  2  0
 25 27  1  0
M  END
$$$$
