WAT.pdb
     RDKit          3D

 27 28  0  0  1  0  0  0  0  0999 V2000
   18.3696  -11.4493  -16.8239 N   0  0  0  0  0  0  0  0  0  0  0  0
   19.5500  -10.7308  -17.1774 C   0  0  1  0  0  0  0  0  0  0  0  0
   19.2873   -9.8778  -18.3936 C   0  0  0  0  0  0  0  0  0  0  0  0
   19.0299  -10.6288  -19.6308 C   0  0  0  0  0  0  0  0  0  0  0  0
   17.7974  -11.1437  -20.0604 C   0  0  0  0  0  0  0  0  0  0  0  0
   17.9930  -11.7866  -21.2173 N   0  0  0  0  0  0  0  0  0  0  0  0
   19.2906  -11.7093  -21.5522 C   0  0  0  0  0  0  0  0  0  0  0  0
   19.9574  -12.2132  -22.6623 C   0  0  0  0  0  0  0  0  0  0  0  0
   21.3109  -11.9703  -22.7580 C   0  0  0  0  0  0  0  0  0  0  0  0
   21.9976  -11.2567  -21.8007 C   0  0  0  0  0  0  0  0  0  0  0  0
   21.3313  -10.7565  -20.6965 C   0  0  0  0  0  0  0  0  0  0  0  0
   19.9787  -10.9866  -20.5773 C   0  0  0  0  0  0  0  0  0  0  0  0
   20.0006   -9.8819  -16.0322 C   0  0  0  0  0  0  0  0  0  0  0  0
   19.1466   -9.2175  -15.3500 O   0  0  0  0  0  0  0  0  0  0  0  0
   23.0141   -9.4815  -13.8377 C   0  0  0  0  0  0  0  0  0  0  0  0
   21.7496   -8.9746  -14.4552 C   0  0  2  0  0  0  0  0  0  0  0  0
   21.3475   -9.7419  -15.6197 N   0  0  0  0  0  0  0  0  0  0  0  0
   21.8595   -7.5468  -14.7208 C   0  0  0  0  0  0  0  0  0  0  0  0
   22.4534   -7.1177  -15.7310 O   0  0  0  0  0  0  0  0  0  0  0  0
   19.0263   -4.8779  -15.0560 C   0  0  0  0  0  0  0  0  0  0  0  0
   19.9730   -4.5209  -13.9440 C   0  0  1  0  0  0  0  0  0  0  0  0
   19.3801   -4.9996  -12.7536 O   0  0  0  0  0  0  0  0  0  0  0  0
   21.3081   -5.1851  -14.0449 C   0  0  2  0  0  0  0  0  0  0  0  0
   21.2938   -6.6008  -13.8388 N   0  0  0  0  0  0  0  0  0  0  0  0
   22.2230   -4.5654  -13.0664 C   0  0  0  0  0  0  0  0  0  0  0  0
   22.6535   -5.1953  -12.0689 O   0  0  0  0  0  0  0  0  0  0  0  0
   22.6367   -3.2575  -13.2225 O   0  0  0  0  0  0  0  0  0  0  0  0
  2  3  1  0
  2  1  1  1
  4  5  2  0
  4  3  1  0
  6  5  1  0
  7 12  2  0
  7  6  1  0
  8  7  1  0
  9 10  1  0
  9  8  2  0
 10 11  2  0
 11 12  1  0
 12  4  1  0
 13  2  1  0
 14 13  2  0
 16 15  1  6
 16 18  1  0
 16 17  1  0
 17 13  1  0
 18 19  2  0
 21 20  1  6
 22 21  1  0
 23 21  1  0
 23 25  1  0
 23 24  1  1
 24 18  1  0
 25 26  2  0
 25 27  1  0
M  END
$$$$
