WAT.pdb
     RDKit          3D

 27 28  0  0  1  0  0  0  0  0999 V2000
   23.6527  -20.7524  -15.5783 N   0  0  0  0  0  0  0  0  0  0  0  0
   22.5695  -19.8770  -15.2701 C   0  0  1  0  0  0  0  0  0  0  0  0
   21.7380  -19.6341  -16.5052 C   0  0  0  0  0  0  0  0  0  0  0  0
   22.1147  -18.4422  -17.2787 C   0  0  0  0  0  0  0  0  0  0  0  0
   23.2943  -18.2564  -18.0152 C   0  0  0  0  0  0  0  0  0  0  0  0
   23.2678  -17.0279  -18.5446 N   0  0  0  0  0  0  0  0  0  0  0  0
   22.1286  -16.4159  -18.1849 C   0  0  0  0  0  0  0  0  0  0  0  0
   21.6598  -15.1462  -18.4995 C   0  0  0  0  0  0  0  0  0  0  0  0
   20.4312  -14.7768  -17.9954 C   0  0  0  0  0  0  0  0  0  0  0  0
   19.6785  -15.6190  -17.2070 C   0  0  0  0  0  0  0  0  0  0  0  0
   20.1478  -16.8823  -16.8953 C   0  0  0  0  0  0  0  0  0  0  0  0
   21.3733  -17.2747  -17.3861 C   0  0  0  0  0  0  0  0  0  0  0  0
   21.7277  -20.4602  -14.1808 C   0  0  0  0  0  0  0  0  0  0  0  0
   21.3939  -21.6944  -14.2178 O   0  0  0  0  0  0  0  0  0  0  0  0
   20.2330  -19.4258  -10.8513 C   0  0  0  0  0  0  0  0  0  0  0  0
   20.3951  -20.3157  -12.0425 C   0  0  2  0  0  0  0  0  0  0  0  0
   21.2460  -19.7347  -13.0648 N   0  0  0  0  0  0  0  0  0  0  0  0
   19.0898  -20.7201  -12.5465 C   0  0  0  0  0  0  0  0  0  0  0  0
   18.5202  -20.0857  -13.4579 O   0  0  0  0  0  0  0  0  0  0  0  0
   18.2148  -24.4029  -13.6857 C   0  0  0  0  0  0  0  0  0  0  0  0
   17.2145  -23.8876  -12.6887 C   0  0  1  0  0  0  0  0  0  0  0  0
   17.6021  -24.4130  -11.4350 O   0  0  0  0  0  0  0  0  0  0  0  0
   17.2151  -22.4005  -12.5393 C   0  0  2  0  0  0  0  0  0  0  0  0
   18.4269  -21.8480  -12.0165 N   0  0  0  0  0  0  0  0  0  0  0  0
   16.0916  -22.0097  -11.6656 C   0  0  0  0  0  0  0  0  0  0  0  0
   16.2774  -21.5314  -10.5193 O   0  0  0  0  0  0  0  0  0  0  0  0
   14.7866  -22.1613  -12.0898 O   0  0  0  0  0  0  0  0  0  0  0  0
  2  3  1  0
  2  1  1  6
  4  5  2  0
  4  3  1  0
  6  5  1  0
  7 12  2  0
  7  6  1  0
  8  7  1  0
  9 10  1  0
  9  8  2  0
 10 11  2  0
 11 12  1  0
 12  4  1  0
 13  2  1  0
 14 13  2  0
 16 15  1  1
 16 18  1  0
 16 17  1  0
 17 13  1  0
 18 19  2  0
 21 20  1  6
 22 21  1  0
 23 21  1  0
 23 25  1  0
 23 24  1  1
 24 18  1  0
 25 26  2  0
 25 27  1  0
M  END
$$$$
