WAT.pdb
     RDKit          3D

 27 28  0  0  1  0  0  0  0  0999 V2000
   24.0288  -19.7959  -17.1001 N   0  0  0  0  0  0  0  0  0  0  0  0
   24.3093  -19.3505  -15.7744 C   0  0  1  0  0  0  0  0  0  0  0  0
   23.9215  -17.9001  -15.6270 C   0  0  0  0  0  0  0  0  0  0  0  0
   24.6670  -16.9709  -16.4884 C   0  0  0  0  0  0  0  0  0  0  0  0
   24.1333  -15.9244  -17.2556 C   0  0  0  0  0  0  0  0  0  0  0  0
   25.1365  -15.3386  -17.9193 N   0  0  0  0  0  0  0  0  0  0  0  0
   26.2884  -15.9571  -17.6153 C   0  0  0  0  0  0  0  0  0  0  0  0
   27.5826  -15.6971  -18.0496 C   0  0  0  0  0  0  0  0  0  0  0  0
   28.5928  -16.4958  -17.5580 C   0  0  0  0  0  0  0  0  0  0  0  0
   28.3517  -17.5192  -16.6682 C   0  0  0  0  0  0  0  0  0  0  0  0
   27.0624  -17.7758  -16.2378 C   0  0  0  0  0  0  0  0  0  0  0  0
   26.0353  -16.9924  -16.7153 C   0  0  0  0  0  0  0  0  0  0  0  0
   23.5735  -20.1908  -14.7805 C   0  0  0  0  0  0  0  0  0  0  0  0
   22.4470  -20.7122  -15.0889 O   0  0  0  0  0  0  0  0  0  0  0  0
   24.0143  -21.4569  -11.2245 C   0  0  0  0  0  0  0  0  0  0  0  0
   23.2806  -21.2587  -12.5128 C   0  0  2  0  0  0  0  0  0  0  0  0
   24.0336  -20.4710  -13.4715 N   0  0  0  0  0  0  0  0  0  0  0  0
   21.9499  -20.7261  -12.2542 C   0  0  0  0  0  0  0  0  0  0  0  0
   21.7761  -19.5252  -11.9626 O   0  0  0  0  0  0  0  0  0  0  0  0
   19.3013  -19.4979  -14.0218 C   0  0  0  0  0  0  0  0  0  0  0  0
   18.7283  -20.7083  -13.3385 C   0  0  1  0  0  0  0  0  0  0  0  0
   18.8608  -21.7767  -14.2544 O   0  0  0  0  0  0  0  0  0  0  0  0
   19.4673  -21.1178  -12.1057 C   0  0  2  0  0  0  0  0  0  0  0  0
   20.8110  -21.5570  -12.3266 N   0  0  0  0  0  0  0  0  0  0  0  0
   18.7132  -22.1945  -11.4345 C   0  0  0  0  0  0  0  0  0  0  0  0
   19.1628  -23.3638  -11.3455 O   0  0  0  0  0  0  0  0  0  0  0  0
   17.4750  -21.9429  -10.8782 O   0  0  0  0  0  0  0  0  0  0  0  0
  2  3  1  0
  2  1  1  6
  4  5  2  0
  4  3  1  0
  6  5  1  0
  7 12  2  0
  7  6  1  0
  8  7  1  0
  9 10  1  0
  9  8  2  0
 10 11  2  0
 11 12  1  0
 12  4  1  0
 13  2  1  0
 14 13  2  0
 16 15  1  1
 16 18  1  0
 16 17  1  0
 17 13  1  0
 18 19  2  0
 21 20  1  6
 22 21  1  0
 23 21  1  0
 23 25  1  0
 23 24  1  6
 24 18  1  0
 25 26  2  0
 25 27  1  0
M  END
$$$$
