WAT.pdb
     RDKit          3D

 27 28  0  0  1  0  0  0  0  0999 V2000
   19.8367  -11.0043  -18.8040 N   0  0  0  0  0  0  0  0  0  0  0  0
   21.1781  -10.5844  -18.5616 C   0  0  1  0  0  0  0  0  0  0  0  0
   21.6212   -9.6305  -19.6432 C   0  0  0  0  0  0  0  0  0  0  0  0
   21.6850  -10.2124  -20.9916 C   0  0  0  0  0  0  0  0  0  0  0  0
   20.7536  -10.0392  -22.0266 C   0  0  0  0  0  0  0  0  0  0  0  0
   21.1593  -10.7587  -23.0791 N   0  0  0  0  0  0  0  0  0  0  0  0
   22.3060  -11.3848  -22.7711 C   0  0  0  0  0  0  0  0  0  0  0  0
   23.0980  -12.2269  -23.5422 C   0  0  0  0  0  0  0  0  0  0  0  0
   24.2466  -12.7264  -22.9664 C   0  0  0  0  0  0  0  0  0  0  0  0
   24.6154  -12.4155  -21.6762 C   0  0  0  0  0  0  0  0  0  0  0  0
   23.8249  -11.5773  -20.9109 C   0  0  0  0  0  0  0  0  0  0  0  0
   22.6715  -11.0659  -21.4631 C   0  0  0  0  0  0  0  0  0  0  0  0
   21.2816   -9.9350  -17.2189 C   0  0  0  0  0  0  0  0  0  0  0  0
   20.3440   -9.1724  -16.8001 O   0  0  0  0  0  0  0  0  0  0  0  0
   23.5194  -10.0487  -14.1634 C   0  0  0  0  0  0  0  0  0  0  0  0
   22.4345   -9.4785  -15.0208 C   0  0  2  0  0  0  0  0  0  0  0  0
   22.3737  -10.0963  -16.3328 N   0  0  0  0  0  0  0  0  0  0  0  0
   22.5508   -8.0277  -15.0764 C   0  0  0  0  0  0  0  0  0  0  0  0
   23.3392   -7.4689  -15.8660 O   0  0  0  0  0  0  0  0  0  0  0  0
   19.6313   -5.6205  -15.7389 C   0  0  0  0  0  0  0  0  0  0  0  0
   20.3240   -5.2224  -14.4654 C   0  0  1  0  0  0  0  0  0  0  0  0
   19.5609   -5.7767  -13.4126 O   0  0  0  0  0  0  0  0  0  0  0  0
   21.7033   -5.7799  -14.3232 C   0  0  2  0  0  0  0  0  0  0  0  0
   21.7705   -7.2062  -14.2344 N   0  0  0  0  0  0  0  0  0  0  0  0
   22.3325   -5.1928  -13.1240 C   0  0  0  0  0  0  0  0  0  0  0  0
   22.6675   -3.9834  -13.0750 O   0  0  0  0  0  0  0  0  0  0  0  0
   22.5739   -5.9676  -12.0072 O   0  0  0  0  0  0  0  0  0  0  0  0
  2  3  1  0
  2  1  1  6
  4  5  2  0
  4  3  1  0
  6  5  1  0
  7 12  2  0
  7  6  1  0
  8  7  1  0
  9 10  1  0
  9  8  2  0
 10 11  2  0
 11 12  1  0
 12  4  1  0
 13  2  1  0
 14 13  2  0
 16 15  1  6
 16 18  1  0
 16 17  1  0
 17 13  1  0
 18 19  2  0
 21 20  1  6
 22 21  1  0
 23 21  1  0
 23 25  1  0
 23 24  1  1
 24 18  1  0
 25 26  2  0
 25 27  1  0
M  END
$$$$
