WAT.pdb
     RDKit          3D

 27 28  0  0  1  0  0  0  0  0999 V2000
   26.8119  -18.5557   -8.6559 N   0  0  0  0  0  0  0  0  0  0  0  0
   26.6695  -19.9328   -8.9993 C   0  0  1  0  0  0  0  0  0  0  0  0
   25.9830  -20.6733   -7.8785 C   0  0  0  0  0  0  0  0  0  0  0  0
   26.5047  -20.3825   -6.5353 C   0  0  0  0  0  0  0  0  0  0  0  0
   25.7588  -20.0140   -5.4055 C   0  0  0  0  0  0  0  0  0  0  0  0
   26.6081  -19.8087   -4.3923 N   0  0  0  0  0  0  0  0  0  0  0  0
   27.8628  -20.0279   -4.8158 C   0  0  0  0  0  0  0  0  0  0  0  0
   29.0650  -19.9492   -4.1233 C   0  0  0  0  0  0  0  0  0  0  0  0
   30.2202  -20.2440   -4.8153 C   0  0  0  0  0  0  0  0  0  0  0  0
   30.2070  -20.6058   -6.1443 C   0  0  0  0  0  0  0  0  0  0  0  0
   29.0089  -20.6832   -6.8311 C   0  0  0  0  0  0  0  0  0  0  0  0
   27.8407  -20.3924   -6.1622 C   0  0  0  0  0  0  0  0  0  0  0  0
   25.8923  -20.0711  -10.2690 C   0  0  0  0  0  0  0  0  0  0  0  0
   24.9641  -19.2365  -10.5480 O   0  0  0  0  0  0  0  0  0  0  0  0
   26.2643  -21.9825  -13.5096 C   0  0  0  0  0  0  0  0  0  0  0  0
   25.5798  -21.0286  -12.5829 C   0  0  2  0  0  0  0  0  0  0  0  0
   26.1020  -21.0890  -11.2300 N   0  0  0  0  0  0  0  0  0  0  0  0
   24.1369  -21.2157  -12.6482 C   0  0  0  0  0  0  0  0  0  0  0  0
   23.6000  -22.2708  -12.2531 O   0  0  0  0  0  0  0  0  0  0  0  0
   22.1427  -19.9931  -16.0298 C   0  0  0  0  0  0  0  0  0  0  0  0
   21.5005  -19.5848  -14.7332 C   0  0  1  0  0  0  0  0  0  0  0  0
   20.1157  -19.8217  -14.8884 O   0  0  0  0  0  0  0  0  0  0  0  0
   21.9363  -20.3963  -13.5564 C   0  0  2  0  0  0  0  0  0  0  0  0
   23.2982  -20.2034  -13.1626 N   0  0  0  0  0  0  0  0  0  0  0  0
   21.7200  -21.8250  -13.8573 C   0  0  0  0  0  0  0  0  0  0  0  0
   22.4733  -22.4609  -14.6354 O   0  0  0  0  0  0  0  0  0  0  0  0
   20.6686  -22.5119  -13.2839 O   0  0  0  0  0  0  0  0  0  0  0  0
  2  3  1  0
  2  1  1  1
  4  5  2  0
  4  3  1  0
  6  5  1  0
  7 12  2  0
  7  6  1  0
  8  7  1  0
  9 10  1  0
  9  8  2  0
 10 11  2  0
 11 12  1  0
 12  4  1  0
 13  2  1  0
 14 13  2  0
 16 15  1  6
 16 18  1  0
 16 17  1  0
 17 13  1  0
 18 19  2  0
 21 20  1  6
 22 21  1  0
 23 21  1  0
 23 25  1  0
 23 24  1  6
 24 18  1  0
 25 26  2  0
 25 27  1  0
M  END
$$$$
