WAT.pdb
     RDKit          3D

 27 28  0  0  1  0  0  0  0  0999 V2000
   26.5079  -21.7581  -15.2275 N   0  0  0  0  0  0  0  0  0  0  0  0
   25.6891  -21.4745  -14.0946 C   0  0  1  0  0  0  0  0  0  0  0  0
   26.0723  -20.1397  -13.5052 C   0  0  0  0  0  0  0  0  0  0  0  0
   27.4204  -20.0864  -12.9216 C   0  0  0  0  0  0  0  0  0  0  0  0
   28.5955  -19.6591  -13.5581 C   0  0  0  0  0  0  0  0  0  0  0  0
   29.6104  -19.7937  -12.6968 N   0  0  0  0  0  0  0  0  0  0  0  0
   29.1447  -20.2858  -11.5381 C   0  0  0  0  0  0  0  0  0  0  0  0
   29.8181  -20.5813  -10.3591 C   0  0  0  0  0  0  0  0  0  0  0  0
   29.0757  -21.0716   -9.3061 C   0  0  0  0  0  0  0  0  0  0  0  0
   27.7155  -21.2689   -9.3968 C   0  0  0  0  0  0  0  0  0  0  0  0
   27.0479  -20.9741  -10.5717 C   0  0  0  0  0  0  0  0  0  0  0  0
   27.7675  -20.4839  -11.6387 C   0  0  0  0  0  0  0  0  0  0  0  0
   24.2462  -21.4770  -14.4862 C   0  0  0  0  0  0  0  0  0  0  0  0
   23.8396  -20.7347  -15.4451 O   0  0  0  0  0  0  0  0  0  0  0  0
   21.1497  -23.5338  -13.9071 C   0  0  0  0  0  0  0  0  0  0  0  0
   21.8598  -22.2729  -14.2857 C   0  0  2  0  0  0  0  0  0  0  0  0
   23.2476  -22.2619  -13.8612 N   0  0  0  0  0  0  0  0  0  0  0  0
   21.1091  -21.1158  -13.8177 C   0  0  0  0  0  0  0  0  0  0  0  0
   21.3450  -20.5933  -12.7091 O   0  0  0  0  0  0  0  0  0  0  0  0
   20.7254  -17.5796  -15.1186 C   0  0  0  0  0  0  0  0  0  0  0  0
   19.3759  -18.2424  -15.1195 C   0  0  1  0  0  0  0  0  0  0  0  0
   19.1742  -18.7222  -16.4337 O   0  0  0  0  0  0  0  0  0  0  0  0
   19.2815  -19.4314  -14.2191 C   0  0  2  0  0  0  0  0  0  0  0  0
   20.0872  -20.5477  -14.6086 N   0  0  0  0  0  0  0  0  0  0  0  0
   17.8710  -19.8593  -14.1424 C   0  0  0  0  0  0  0  0  0  0  0  0
   17.4765  -20.9390  -14.6483 O   0  0  0  0  0  0  0  0  0  0  0  0
   16.9327  -19.0736  -13.5035 O   0  0  0  0  0  0  0  0  0  0  0  0
  2  3  1  0
  2  1  1  6
  4  5  2  0
  4  3  1  0
  6  5  1  0
  7 12  2  0
  7  6  1  0
  8  7  1  0
  9 10  1  0
  9  8  2  0
 10 11  2  0
 11 12  1  0
 12  4  1  0
 13  2  1  0
 14 13  2  0
 16 15  1  1
 16 18  1  0
 16 17  1  0
 17 13  1  0
 18 19  2  0
 21 20  1  6
 22 21  1  0
 23 21  1  0
 23 25  1  0
 23 24  1  6
 24 18  1  0
 25 26  2  0
 25 27  1  0
M  END
$$$$
