AWH.pdb
     RDKit          3D

 30 32  0  0  1  0  0  0  0  0999 V2000
   28.5023  -18.3604  -18.8359 C   0  0  0  0  0  0  0  0  0  0  0  0
   27.5922  -17.6799  -17.8365 C   0  0  2  0  0  0  0  0  0  0  0  0
   28.3493  -16.6912  -17.1274 N   0  0  0  0  0  0  0  0  0  0  0  0
   26.9986  -18.6864  -16.8899 C   0  0  0  0  0  0  0  0  0  0  0  0
   26.2924  -19.6491  -17.2968 O   0  0  0  0  0  0  0  0  0  0  0  0
   27.2074  -18.5982  -15.4901 N   0  0  0  0  0  0  0  0  0  0  0  0
   26.5460  -19.4653  -14.5241 C   0  0  1  0  0  0  0  0  0  0  0  0
   27.3438  -19.5819  -13.2641 C   0  0  0  0  0  0  0  0  0  0  0  0
   26.7443  -20.4127  -12.2039 C   0  0  0  0  0  0  0  0  0  0  0  0
   26.4223  -21.7742  -12.3955 C   0  0  0  0  0  0  0  0  0  0  0  0
   25.9160  -22.2795  -11.2613 N   0  0  0  0  0  0  0  0  0  0  0  0
   25.8836  -21.3190  -10.3186 C   0  0  0  0  0  0  0  0  0  0  0  0
   25.4619  -21.3078   -9.0129 C   0  0  0  0  0  0  0  0  0  0  0  0
   25.5521  -20.1382   -8.2891 C   0  0  0  0  0  0  0  0  0  0  0  0
   26.0498  -18.9850   -8.8328 C   0  0  0  0  0  0  0  0  0  0  0  0
   26.4731  -19.0181  -10.1619 C   0  0  0  0  0  0  0  0  0  0  0  0
   26.3959  -20.1671  -10.9050 C   0  0  0  0  0  0  0  0  0  0  0  0
   25.1424  -19.0990  -14.3733 C   0  0  0  0  0  0  0  0  0  0  0  0
   24.7330  -17.9487  -14.0437 O   0  0  0  0  0  0  0  0  0  0  0  0
   24.1601  -20.1260  -14.6269 N   0  0  0  0  0  0  0  0  0  0  0  0
   22.7688  -19.8220  -14.4306 C   0  0  1  0  0  0  0  0  0  0  0  0
   21.9648  -20.4136  -15.5904 C   0  0  0  0  0  0  0  0  0  0  0  0
   20.5306  -20.0657  -15.4858 C   0  0  0  0  0  0  0  0  0  0  0  0
   19.6327  -20.6159  -14.6091 C   0  0  0  0  0  0  0  0  0  0  0  0
   18.4469  -20.0146  -14.8542 N   0  0  0  0  0  0  0  0  0  0  0  0
   18.5802  -19.1184  -15.8449 C   0  0  0  0  0  0  0  0  0  0  0  0
   19.8746  -19.1671  -16.2193 N   0  0  0  0  0  0  0  0  0  0  0  0
   22.2041  -20.4400  -13.2078 C   0  0  0  0  0  0  0  0  0  0  0  0
   21.4546  -19.6848  -12.3229 O   0  0  0  0  0  0  0  0  0  0  0  0
   22.4356  -21.6625  -13.0160 O   0  0  0  0  0  0  0  0  0  0  0  0
  2  1  1  6
  2  4  1  0
  2  3  1  0
  4  5  2  0
  6  7  1  0
  6  4  1  0
  7  8  1  1
  9  8  1  0
  9 10  2  0
 11 10  1  0
 12 11  1  0
 13 12  2  0
 14 13  1  0
 15 14  2  0
 15 16  1  0
 16 17  2  0
 17 12  1  0
 17  9  1  0
 18 20  1  0
 18  7  1  0
 19 18  2  0
 21 28  1  0
 21 20  1  0
 21 22  1  6
 22 23  1  0
 23 27  1  0
 23 24  2  0
 24 25  1  0
 26 25  1  0
 27 26  2  0
 28 29  1  0
 30 28  2  0
M  END
$$$$
