AWH.pdb
     RDKit          3D

 30 32  0  0  1  0  0  0  0  0999 V2000
   15.4836  -11.2490  -19.7643 C   0  0  0  0  0  0  0  0  0  0  0  0
   16.5130  -11.7992  -18.8011 C   0  0  2  0  0  0  0  0  0  0  0  0
   16.1014  -13.1090  -18.3904 N   0  0  0  0  0  0  0  0  0  0  0  0
   16.6705  -10.8867  -17.6162 C   0  0  0  0  0  0  0  0  0  0  0  0
   15.6942  -10.5725  -16.8821 O   0  0  0  0  0  0  0  0  0  0  0  0
   17.9303  -10.3361  -17.2689 N   0  0  0  0  0  0  0  0  0  0  0  0
   18.1263   -9.4247  -16.1494 C   0  0  1  0  0  0  0  0  0  0  0  0
   19.4164   -9.7007  -15.4445 C   0  0  0  0  0  0  0  0  0  0  0  0
   19.7491   -8.7827  -14.3398 C   0  0  0  0  0  0  0  0  0  0  0  0
   19.1835   -8.9063  -13.0518 C   0  0  0  0  0  0  0  0  0  0  0  0
   19.6831   -7.9555  -12.2491 N   0  0  0  0  0  0  0  0  0  0  0  0
   20.5573   -7.2001  -12.9401 C   0  0  0  0  0  0  0  0  0  0  0  0
   21.3262   -6.1160  -12.5990 C   0  0  0  0  0  0  0  0  0  0  0  0
   22.1370   -5.5417  -13.5544 C   0  0  0  0  0  0  0  0  0  0  0  0
   22.1995   -6.0196  -14.8354 C   0  0  0  0  0  0  0  0  0  0  0  0
   21.4098   -7.1227  -15.1612 C   0  0  0  0  0  0  0  0  0  0  0  0
   20.5949   -7.7142  -14.2314 C   0  0  0  0  0  0  0  0  0  0  0  0
   17.8902   -8.0441  -16.5561 C   0  0  0  0  0  0  0  0  0  0  0  0
   18.2520   -7.5510  -17.6631 O   0  0  0  0  0  0  0  0  0  0  0  0
   17.1877   -7.1919  -15.6266 N   0  0  0  0  0  0  0  0  0  0  0  0
   16.9701   -5.8139  -15.9736 C   0  0  1  0  0  0  0  0  0  0  0  0
   15.4893   -5.4821  -15.7767 C   0  0  0  0  0  0  0  0  0  0  0  0
   14.6649   -6.0147  -16.8839 C   0  0  0  0  0  0  0  0  0  0  0  0
   14.8303   -5.7345  -18.2150 C   0  0  0  0  0  0  0  0  0  0  0  0
   13.8702   -6.4253  -18.8696 N   0  0  0  0  0  0  0  0  0  0  0  0
   13.1227   -7.1176  -17.9954 C   0  0  0  0  0  0  0  0  0  0  0  0
   13.6315   -6.8489  -16.7759 N   0  0  0  0  0  0  0  0  0  0  0  0
   17.7025   -4.8695  -15.0974 C   0  0  0  0  0  0  0  0  0  0  0  0
   17.9906   -3.5882  -15.5339 O   0  0  0  0  0  0  0  0  0  0  0  0
   18.0443   -5.2818  -13.9581 O   0  0  0  0  0  0  0  0  0  0  0  0
  2  1  1  6
  2  4  1  0
  2  3  1  0
  4  5  2  0
  6  7  1  0
  6  4  1  0
  7  8  1  6
  9  8  1  0
  9 10  2  0
 11 10  1  0
 12 11  1  0
 13 12  2  0
 14 13  1  0
 15 14  2  0
 15 16  1  0
 16 17  2  0
 17 12  1  0
 17  9  1  0
 18 20  1  0
 18  7  1  0
 19 18  2  0
 21 28  1  0
 21 20  1  0
 21 22  1  1
 22 23  1  0
 23 27  1  0
 23 24  2  0
 24 25  1  0
 26 25  1  0
 27 26  2  0
 28 29  1  0
 30 28  2  0
M  END
$$$$
