AWH.pdb
     RDKit          3D

 30 32  0  0  1  0  0  0  0  0999 V2000
   27.1594  -19.6745  -15.0830 C   0  0  0  0  0  0  0  0  0  0  0  0
   27.6516  -20.9701  -14.4753 C   0  0  2  0  0  0  0  0  0  0  0  0
   27.3804  -22.0377  -15.3922 N   0  0  0  0  0  0  0  0  0  0  0  0
   26.9895  -21.2176  -13.1479 C   0  0  0  0  0  0  0  0  0  0  0  0
   25.8662  -21.7840  -13.0582 O   0  0  0  0  0  0  0  0  0  0  0  0
   27.6019  -20.8234  -11.9311 N   0  0  0  0  0  0  0  0  0  0  0  0
   26.9470  -20.9252  -10.6337 C   0  0  1  0  0  0  0  0  0  0  0  0
   27.9219  -20.7268   -9.5167 C   0  0  0  0  0  0  0  0  0  0  0  0
   27.3333  -20.6006   -8.1708 C   0  0  0  0  0  0  0  0  0  0  0  0
   26.0588  -21.1151   -7.8471 C   0  0  0  0  0  0  0  0  0  0  0  0
   25.7937  -20.8766   -6.5544 N   0  0  0  0  0  0  0  0  0  0  0  0
   26.8319  -20.2256   -5.9972 C   0  0  0  0  0  0  0  0  0  0  0  0
   27.0641  -19.7519   -4.7305 C   0  0  0  0  0  0  0  0  0  0  0  0
   28.2516  -19.1047   -4.4639 C   0  0  0  0  0  0  0  0  0  0  0  0
   29.2085  -18.9192   -5.4247 C   0  0  0  0  0  0  0  0  0  0  0  0
   28.9524  -19.4087   -6.7059 C   0  0  0  0  0  0  0  0  0  0  0  0
   27.7808  -20.0566   -6.9993 C   0  0  0  0  0  0  0  0  0  0  0  0
   25.7397  -20.1077  -10.5958 C   0  0  0  0  0  0  0  0  0  0  0  0
   25.7234  -18.8478  -10.7041 O   0  0  0  0  0  0  0  0  0  0  0  0
   24.4810  -20.7946  -10.4301 N   0  0  0  0  0  0  0  0  0  0  0  0
   23.2849  -20.1912  -10.9514 C   0  0  1  0  0  0  0  0  0  0  0  0
   23.3621  -20.1798  -12.4796 C   0  0  0  0  0  0  0  0  0  0  0  0
   22.2344  -19.4270  -13.0715 C   0  0  0  0  0  0  0  0  0  0  0  0
   21.2360  -18.7972  -12.3756 C   0  0  0  0  0  0  0  0  0  0  0  0
   20.4230  -18.2397  -13.3008 N   0  0  0  0  0  0  0  0  0  0  0  0
   20.8812  -18.5013  -14.5352 C   0  0  0  0  0  0  0  0  0  0  0  0
   22.0000  -19.2354  -14.3692 N   0  0  0  0  0  0  0  0  0  0  0  0
   22.0575  -20.9557  -10.6274 C   0  0  0  0  0  0  0  0  0  0  0  0
   21.9394  -22.2830  -11.0011 O   0  0  0  0  0  0  0  0  0  0  0  0
   21.1438  -20.3503  -10.0079 O   0  0  0  0  0  0  0  0  0  0  0  0
  2  1  1  6
  2  4  1  0
  2  3  1  0
  4  5  2  0
  6  7  1  0
  6  4  1  0
  7  8  1  1
  9  8  1  0
  9 10  2  0
 11 10  1  0
 12 11  1  0
 13 12  2  0
 14 13  1  0
 15 14  2  0
 15 16  1  0
 16 17  2  0
 17 12  1  0
 17  9  1  0
 18 20  1  0
 18  7  1  0
 19 18  2  0
 21 28  1  0
 21 20  1  0
 21 22  1  6
 22 23  1  0
 23 27  1  0
 23 24  2  0
 24 25  1  0
 26 25  1  0
 27 26  2  0
 28 29  1  0
 30 28  2  0
M  END
$$$$
