AWH.pdb
     RDKit          3D

 30 32  0  0  1  0  0  0  0  0999 V2000
   28.0360  -18.8948  -13.7770 C   0  0  0  0  0  0  0  0  0  0  0  0
   28.5606  -19.9255  -12.8010 C   0  0  2  0  0  0  0  0  0  0  0  0
   29.2977  -20.9138  -13.5314 N   0  0  0  0  0  0  0  0  0  0  0  0
   27.4291  -20.5532  -12.0347 C   0  0  0  0  0  0  0  0  0  0  0  0
   26.7485  -21.5032  -12.5091 O   0  0  0  0  0  0  0  0  0  0  0  0
   27.0750  -20.1031  -10.7373 N   0  0  0  0  0  0  0  0  0  0  0  0
   25.9332  -20.6183   -9.9935 C   0  0  1  0  0  0  0  0  0  0  0  0
   26.0701  -20.3423   -8.5296 C   0  0  0  0  0  0  0  0  0  0  0  0
   27.3774  -20.6781   -7.9364 C   0  0  0  0  0  0  0  0  0  0  0  0
   28.3404  -21.4598   -8.6114 C   0  0  0  0  0  0  0  0  0  0  0  0
   29.4345  -21.5834   -7.8461 N   0  0  0  0  0  0  0  0  0  0  0  0
   29.2487  -20.9208   -6.6891 C   0  0  0  0  0  0  0  0  0  0  0  0
   30.0380  -20.7392   -5.5814 C   0  0  0  0  0  0  0  0  0  0  0  0
   29.5524  -19.9964   -4.5266 C   0  0  0  0  0  0  0  0  0  0  0  0
   28.3052  -19.4333   -4.5490 C   0  0  0  0  0  0  0  0  0  0  0  0
   27.5191  -19.6300   -5.6848 C   0  0  0  0  0  0  0  0  0  0  0  0
   27.9764  -20.3632   -6.7487 C   0  0  0  0  0  0  0  0  0  0  0  0
   24.6798  -20.2102  -10.6176 C   0  0  0  0  0  0  0  0  0  0  0  0
   24.2684  -19.0163  -10.6858 O   0  0  0  0  0  0  0  0  0  0  0  0
   23.8632  -21.2477  -11.2011 N   0  0  0  0  0  0  0  0  0  0  0  0
   22.6801  -20.8759  -11.9281 C   0  0  1  0  0  0  0  0  0  0  0  0
   22.7045  -21.5607  -13.2963 C   0  0  0  0  0  0  0  0  0  0  0  0
   22.0900  -20.7082  -14.3377 C   0  0  0  0  0  0  0  0  0  0  0  0
   21.5446  -19.4667  -14.1405 C   0  0  0  0  0  0  0  0  0  0  0  0
   21.1020  -19.0512  -15.3484 N   0  0  0  0  0  0  0  0  0  0  0  0
   21.3533  -19.9862  -16.2785 C   0  0  0  0  0  0  0  0  0  0  0  0
   21.9635  -20.9999  -15.6318 N   0  0  0  0  0  0  0  0  0  0  0  0
   21.4294  -21.3381  -11.2816 C   0  0  0  0  0  0  0  0  0  0  0  0
   20.3304  -20.5007  -11.2024 O   0  0  0  0  0  0  0  0  0  0  0  0
   21.4154  -22.5076  -10.8156 O   0  0  0  0  0  0  0  0  0  0  0  0
  2  1  1  6
  2  4  1  0
  2  3  1  0
  4  5  2  0
  6  7  1  0
  6  4  1  0
  7  8  1  1
  9  8  1  0
  9 10  2  0
 11 10  1  0
 12 11  1  0
 13 12  2  0
 14 13  1  0
 15 14  2  0
 15 16  1  0
 16 17  2  0
 17 12  1  0
 17  9  1  0
 18 20  1  0
 18  7  1  0
 19 18  2  0
 21 28  1  0
 21 20  1  0
 21 22  1  6
 22 23  1  0
 23 27  1  0
 23 24  2  0
 24 25  1  0
 26 25  1  0
 27 26  2  0
 28 29  1  0
 30 28  2  0
M  END
$$$$
