AWH.pdb
     RDKit          3D

 30 32  0  0  1  0  0  0  0  0999 V2000
   27.7859  -19.6506  -16.1337 C   0  0  0  0  0  0  0  0  0  0  0  0
   28.4132  -20.7731  -15.3358 C   0  0  2  0  0  0  0  0  0  0  0  0
   28.5428  -21.9207  -16.1843 N   0  0  0  0  0  0  0  0  0  0  0  0
   27.5820  -21.0896  -14.1232 C   0  0  0  0  0  0  0  0  0  0  0  0
   26.4324  -21.5999  -14.2173 O   0  0  0  0  0  0  0  0  0  0  0  0
   28.0560  -20.8276  -12.8126 N   0  0  0  0  0  0  0  0  0  0  0  0
   27.2450  -21.0062  -11.6157 C   0  0  1  0  0  0  0  0  0  0  0  0
   28.0771  -20.9061  -10.3766 C   0  0  0  0  0  0  0  0  0  0  0  0
   27.3297  -20.7195   -9.1194 C   0  0  0  0  0  0  0  0  0  0  0  0
   25.9972  -21.1568   -8.9549 C   0  0  0  0  0  0  0  0  0  0  0  0
   25.5834  -20.8767   -7.7105 N   0  0  0  0  0  0  0  0  0  0  0  0
   26.5773  -20.2714   -7.0338 C   0  0  0  0  0  0  0  0  0  0  0  0
   26.6726  -19.7842   -5.7546 C   0  0  0  0  0  0  0  0  0  0  0  0
   27.8512  -19.1972   -5.3467 C   0  0  0  0  0  0  0  0  0  0  0  0
   28.9317  -19.0845   -6.1791 C   0  0  0  0  0  0  0  0  0  0  0  0
   28.8138  -19.5865   -7.4756 C   0  0  0  0  0  0  0  0  0  0  0  0
   27.6544  -20.1758   -7.9079 C   0  0  0  0  0  0  0  0  0  0  0  0
   26.0520  -20.1688  -11.6670 C   0  0  0  0  0  0  0  0  0  0  0  0
   26.0535  -18.9351  -11.9452 O   0  0  0  0  0  0  0  0  0  0  0  0
   24.7862  -20.8033  -11.3862 N   0  0  0  0  0  0  0  0  0  0  0  0
   23.5805  -20.2046  -11.8905 C   0  0  1  0  0  0  0  0  0  0  0  0
   23.5609  -20.3402  -13.4146 C   0  0  0  0  0  0  0  0  0  0  0  0
   22.3958  -19.6439  -14.0035 C   0  0  0  0  0  0  0  0  0  0  0  0
   21.4143  -18.9898  -13.3060 C   0  0  0  0  0  0  0  0  0  0  0  0
   20.5540  -18.5035  -14.2285 N   0  0  0  0  0  0  0  0  0  0  0  0
   20.9669  -18.8323  -15.4629 C   0  0  0  0  0  0  0  0  0  0  0  0
   22.1055  -19.5359  -15.2995 N   0  0  0  0  0  0  0  0  0  0  0  0
   22.3510  -20.8859  -11.4213 C   0  0  0  0  0  0  0  0  0  0  0  0
   21.2731  -20.1491  -10.9626 O   0  0  0  0  0  0  0  0  0  0  0  0
   22.3351  -22.1442  -11.4587 O   0  0  0  0  0  0  0  0  0  0  0  0
  2  1  1  6
  2  4  1  0
  2  3  1  0
  4  5  2  0
  6  7  1  0
  6  4  1  0
  7  8  1  1
  9  8  1  0
  9 10  2  0
 11 10  1  0
 12 11  1  0
 13 12  2  0
 14 13  1  0
 15 14  2  0
 15 16  1  0
 16 17  2  0
 17 12  1  0
 17  9  1  0
 18 20  1  0
 18  7  1  0
 19 18  2  0
 21 28  1  0
 21 20  1  0
 21 22  1  6
 22 23  1  0
 23 27  1  0
 23 24  2  0
 24 25  1  0
 26 25  1  0
 27 26  2  0
 28 29  1  0
 30 28  2  0
M  END
$$$$
