AWH.pdb
     RDKit          3D

 30 32  0  0  1  0  0  0  0  0999 V2000
   29.4362  -19.3459  -13.3716 C   0  0  0  0  0  0  0  0  0  0  0  0
   29.5401  -20.6982  -12.7002 C   0  0  2  0  0  0  0  0  0  0  0  0
   30.1033  -21.6297  -13.6323 N   0  0  0  0  0  0  0  0  0  0  0  0
   28.1896  -21.1591  -12.2258 C   0  0  0  0  0  0  0  0  0  0  0  0
   27.3303  -21.6328  -13.0183 O   0  0  0  0  0  0  0  0  0  0  0  0
   27.8197  -21.0818  -10.8590 N   0  0  0  0  0  0  0  0  0  0  0  0
   26.5199  -21.5042  -10.3546 C   0  0  1  0  0  0  0  0  0  0  0  0
   26.5674  -21.7632   -8.8821 C   0  0  0  0  0  0  0  0  0  0  0  0
   26.9121  -20.6025   -8.0407 C   0  0  0  0  0  0  0  0  0  0  0  0
   26.4557  -19.2964   -8.3230 C   0  0  0  0  0  0  0  0  0  0  0  0
   26.9030  -18.4517   -7.3827 N   0  0  0  0  0  0  0  0  0  0  0  0
   27.6387  -19.1317   -6.4834 C   0  0  0  0  0  0  0  0  0  0  0  0
   28.3147  -18.7501   -5.3519 C   0  0  0  0  0  0  0  0  0  0  0  0
   28.9989  -19.7018   -4.6266 C   0  0  0  0  0  0  0  0  0  0  0  0
   29.0256  -21.0182   -5.0001 C   0  0  0  0  0  0  0  0  0  0  0  0
   28.3316  -21.3850   -6.1536 C   0  0  0  0  0  0  0  0  0  0  0  0
   27.6422  -20.4601   -6.8938 C   0  0  0  0  0  0  0  0  0  0  0  0
   25.4658  -20.6122  -10.8241 C   0  0  0  0  0  0  0  0  0  0  0  0
   25.5422  -19.3499  -10.8245 O   0  0  0  0  0  0  0  0  0  0  0  0
   24.2587  -21.2228  -11.3280 N   0  0  0  0  0  0  0  0  0  0  0  0
   23.2425  -20.3845  -11.9034 C   0  0  1  0  0  0  0  0  0  0  0  0
   23.1243  -20.7034  -13.3953 C   0  0  0  0  0  0  0  0  0  0  0  0
   22.0609  -19.8992  -14.0366 C   0  0  0  0  0  0  0  0  0  0  0  0
   21.6840  -18.6322  -13.6755 C   0  0  0  0  0  0  0  0  0  0  0  0
   20.6867  -18.2794  -14.5172 N   0  0  0  0  0  0  0  0  0  0  0  0
   20.4360  -19.2773  -15.3796 C   0  0  0  0  0  0  0  0  0  0  0  0
   21.2961  -20.2666  -15.0641 N   0  0  0  0  0  0  0  0  0  0  0  0
   21.8941  -20.6343  -11.3419 C   0  0  0  0  0  0  0  0  0  0  0  0
   20.9563  -19.6177  -11.2920 O   0  0  0  0  0  0  0  0  0  0  0  0
   21.6476  -21.7944  -10.9195 O   0  0  0  0  0  0  0  0  0  0  0  0
  2  1  1  6
  2  4  1  0
  2  3  1  0
  4  5  2  0
  6  7  1  0
  6  4  1  0
  7  8  1  1
  9  8  1  0
  9 10  2  0
 11 10  1  0
 12 11  1  0
 13 12  2  0
 14 13  1  0
 15 14  2  0
 15 16  1  0
 16 17  2  0
 17 12  1  0
 17  9  1  0
 18 20  1  0
 18  7  1  0
 19 18  2  0
 21 28  1  0
 21 20  1  0
 21 22  1  6
 22 23  1  0
 23 27  1  0
 23 24  2  0
 24 25  1  0
 26 25  1  0
 27 26  2  0
 28 29  1  0
 30 28  2  0
M  END
$$$$
