AWH.pdb
     RDKit          3D

 30 32  0  0  1  0  0  0  0  0999 V2000
   27.4733  -20.0534  -15.2927 C   0  0  0  0  0  0  0  0  0  0  0  0
   27.9034  -21.2590  -14.4854 C   0  0  2  0  0  0  0  0  0  0  0  0
   27.7228  -22.4338  -15.2859 N   0  0  0  0  0  0  0  0  0  0  0  0
   27.1147  -21.3498  -13.2082 C   0  0  0  0  0  0  0  0  0  0  0  0
   25.9079  -21.7160  -13.1942 O   0  0  0  0  0  0  0  0  0  0  0  0
   27.6956  -21.0264  -11.9556 N   0  0  0  0  0  0  0  0  0  0  0  0
   26.9644  -21.0726  -10.6964 C   0  0  1  0  0  0  0  0  0  0  0  0
   27.8888  -20.9461   -9.5272 C   0  0  0  0  0  0  0  0  0  0  0  0
   27.2384  -20.7802   -8.2145 C   0  0  0  0  0  0  0  0  0  0  0  0
   25.9147  -21.2028   -7.9630 C   0  0  0  0  0  0  0  0  0  0  0  0
   25.5974  -20.9479   -6.6853 N   0  0  0  0  0  0  0  0  0  0  0  0
   26.6475  -20.3736   -6.0692 C   0  0  0  0  0  0  0  0  0  0  0  0
   26.8436  -19.9197   -4.7893 C   0  0  0  0  0  0  0  0  0  0  0  0
   28.0581  -19.3595   -4.4552 C   0  0  0  0  0  0  0  0  0  0  0  0
   29.0765  -19.2413   -5.3618 C   0  0  0  0  0  0  0  0  0  0  0  0
   28.8563  -19.7093   -6.6576 C   0  0  0  0  0  0  0  0  0  0  0  0
   27.6592  -20.2714   -7.0175 C   0  0  0  0  0  0  0  0  0  0  0  0
   25.8238  -20.1641  -10.7247 C   0  0  0  0  0  0  0  0  0  0  0  0
   25.9044  -18.9183  -10.9272 O   0  0  0  0  0  0  0  0  0  0  0  0
   24.5162  -20.7377  -10.5128 N   0  0  0  0  0  0  0  0  0  0  0  0
   23.3663  -20.0692  -11.0582 C   0  0  1  0  0  0  0  0  0  0  0  0
   23.4289  -20.1437  -12.5854 C   0  0  0  0  0  0  0  0  0  0  0  0
   22.3018  -19.4150  -13.2079 C   0  0  0  0  0  0  0  0  0  0  0  0
   21.8575  -18.1683  -12.8528 C   0  0  0  0  0  0  0  0  0  0  0  0
   20.8188  -17.8889  -13.6717 N   0  0  0  0  0  0  0  0  0  0  0  0
   20.6074  -18.9124  -14.5144 C   0  0  0  0  0  0  0  0  0  0  0  0
   21.5345  -19.8429  -14.2098 N   0  0  0  0  0  0  0  0  0  0  0  0
   22.0857  -20.7161  -10.6872 C   0  0  0  0  0  0  0  0  0  0  0  0
   20.8816  -20.0808  -10.9363 O   0  0  0  0  0  0  0  0  0  0  0  0
   22.1449  -21.8502  -10.1438 O   0  0  0  0  0  0  0  0  0  0  0  0
  2  1  1  6
  2  4  1  0
  2  3  1  0
  4  5  2  0
  6  7  1  0
  6  4  1  0
  7  8  1  1
  9  8  1  0
  9 10  2  0
 11 10  1  0
 12 11  1  0
 13 12  2  0
 14 13  1  0
 15 14  2  0
 15 16  1  0
 16 17  2  0
 17 12  1  0
 17  9  1  0
 18 20  1  0
 18  7  1  0
 19 18  2  0
 21 28  1  0
 21 20  1  0
 21 22  1  6
 22 23  1  0
 23 27  1  0
 23 24  2  0
 24 25  1  0
 26 25  1  0
 27 26  2  0
 28 29  1  0
 30 28  2  0
M  END
$$$$
