AWH.pdb
     RDKit          3D

 30 32  0  0  1  0  0  0  0  0999 V2000
   27.2948  -19.9499  -15.3805 C   0  0  0  0  0  0  0  0  0  0  0  0
   28.0879  -20.9371  -14.5519 C   0  0  2  0  0  0  0  0  0  0  0  0
   28.2654  -22.1368  -15.3154 N   0  0  0  0  0  0  0  0  0  0  0  0
   27.3857  -21.2229  -13.2532 C   0  0  0  0  0  0  0  0  0  0  0  0
   26.3736  -21.9732  -13.1933 O   0  0  0  0  0  0  0  0  0  0  0  0
   27.8325  -20.6592  -12.0311 N   0  0  0  0  0  0  0  0  0  0  0  0
   27.1316  -20.8297  -10.7654 C   0  0  1  0  0  0  0  0  0  0  0  0
   27.9867  -20.4124   -9.6111 C   0  0  0  0  0  0  0  0  0  0  0  0
   27.3428  -20.4707   -8.2860 C   0  0  0  0  0  0  0  0  0  0  0  0
   26.0554  -21.0165   -8.0896 C   0  0  0  0  0  0  0  0  0  0  0  0
   25.7371  -20.9583   -6.7883 N   0  0  0  0  0  0  0  0  0  0  0  0
   26.7519  -20.3982   -6.1038 C   0  0  0  0  0  0  0  0  0  0  0  0
   26.9318  -20.1070   -4.7750 C   0  0  0  0  0  0  0  0  0  0  0  0
   28.1080  -19.5114   -4.3723 C   0  0  0  0  0  0  0  0  0  0  0  0
   29.1041  -19.2005   -5.2579 C   0  0  0  0  0  0  0  0  0  0  0  0
   28.9010  -19.5053   -6.6042 C   0  0  0  0  0  0  0  0  0  0  0  0
   27.7419  -20.0981   -7.0328 C   0  0  0  0  0  0  0  0  0  0  0  0
   25.7959  -20.2474  -10.8288 C   0  0  0  0  0  0  0  0  0  0  0  0
   25.5575  -19.0091  -10.9240 O   0  0  0  0  0  0  0  0  0  0  0  0
   24.6755  -21.1567  -10.7866 N   0  0  0  0  0  0  0  0  0  0  0  0
   23.4130  -20.7310  -11.3263 C   0  0  1  0  0  0  0  0  0  0  0  0
   22.8609  -21.8388  -12.2261 C   0  0  0  0  0  0  0  0  0  0  0  0
   21.5777  -21.4414  -12.8460 C   0  0  0  0  0  0  0  0  0  0  0  0
   21.1355  -20.1566  -13.0237 C   0  0  0  0  0  0  0  0  0  0  0  0
   19.9269  -20.2514  -13.6220 N   0  0  0  0  0  0  0  0  0  0  0  0
   19.6093  -21.5408  -13.8186 C   0  0  0  0  0  0  0  0  0  0  0  0
   20.6428  -22.2571  -13.3319 N   0  0  0  0  0  0  0  0  0  0  0  0
   22.3774  -20.5178  -10.2881 C   0  0  0  0  0  0  0  0  0  0  0  0
   21.2425  -19.7783  -10.5716 O   0  0  0  0  0  0  0  0  0  0  0  0
   22.5766  -21.0318   -9.1562 O   0  0  0  0  0  0  0  0  0  0  0  0
  2  1  1  6
  2  4  1  0
  2  3  1  0
  4  5  2  0
  6  7  1  0
  6  4  1  0
  7  8  1  1
  9  8  1  0
  9 10  2  0
 11 10  1  0
 12 11  1  0
 13 12  2  0
 14 13  1  0
 15 14  2  0
 15 16  1  0
 16 17  2  0
 17 12  1  0
 17  9  1  0
 18 20  1  0
 18  7  1  0
 19 18  2  0
 21 28  1  0
 21 20  1  0
 21 22  1  6
 22 23  1  0
 23 27  1  0
 23 24  2  0
 24 25  1  0
 26 25  1  0
 27 26  2  0
 28 29  1  0
 30 28  2  0
M  END
$$$$
