AWH.pdb
     RDKit          3D

 30 32  0  0  1  0  0  0  0  0999 V2000
   27.4155  -21.7170  -17.1634 C   0  0  0  0  0  0  0  0  0  0  0  0
   28.1227  -21.6120  -15.8296 C   0  0  2  0  0  0  0  0  0  0  0  0
   29.1185  -22.6401  -15.7575 N   0  0  0  0  0  0  0  0  0  0  0  0
   27.1396  -21.7327  -14.6980 C   0  0  0  0  0  0  0  0  0  0  0  0
   26.5811  -22.8272  -14.4137 O   0  0  0  0  0  0  0  0  0  0  0  0
   26.7949  -20.6155  -13.8954 N   0  0  0  0  0  0  0  0  0  0  0  0
   25.8697  -20.6895  -12.7725 C   0  0  1  0  0  0  0  0  0  0  0  0
   26.2839  -19.7712  -11.6667 C   0  0  0  0  0  0  0  0  0  0  0  0
   27.3757  -20.2612  -10.8055 C   0  0  0  0  0  0  0  0  0  0  0  0
   28.6016  -20.7312  -11.3254 C   0  0  0  0  0  0  0  0  0  0  0  0
   29.4094  -21.0883  -10.3165 N   0  0  0  0  0  0  0  0  0  0  0  0
   28.7810  -20.8796   -9.1444 C   0  0  0  0  0  0  0  0  0  0  0  0
   29.1525  -21.0792   -7.8387 C   0  0  0  0  0  0  0  0  0  0  0  0
   28.2627  -20.7671   -6.8332 C   0  0  0  0  0  0  0  0  0  0  0  0
   27.0177  -20.2635   -7.0966 C   0  0  0  0  0  0  0  0  0  0  0  0
   26.6600  -20.0681   -8.4309 C   0  0  0  0  0  0  0  0  0  0  0  0
   27.5247  -20.3689   -9.4510 C   0  0  0  0  0  0  0  0  0  0  0  0
   24.4891  -20.5762  -13.2289 C   0  0  0  0  0  0  0  0  0  0  0  0
   24.0368  -19.6133  -13.9127 O   0  0  0  0  0  0  0  0  0  0  0  0
   23.5863  -21.6461  -12.8765 N   0  0  0  0  0  0  0  0  0  0  0  0
   22.2077  -21.5525  -13.2729 C   0  0  1  0  0  0  0  0  0  0  0  0
   21.4801  -22.8261  -12.8372 C   0  0  0  0  0  0  0  0  0  0  0  0
   20.1227  -22.8989  -13.4212 C   0  0  0  0  0  0  0  0  0  0  0  0
   19.6579  -22.1480  -14.4691 C   0  0  0  0  0  0  0  0  0  0  0  0
   18.3782  -22.5335  -14.6729 N   0  0  0  0  0  0  0  0  0  0  0  0
   18.0387  -23.4894  -13.7936 C   0  0  0  0  0  0  0  0  0  0  0  0
   19.1309  -23.6988  -13.0311 N   0  0  0  0  0  0  0  0  0  0  0  0
   21.4845  -20.4423  -12.6093 C   0  0  0  0  0  0  0  0  0  0  0  0
   20.4672  -19.7751  -13.2689 O   0  0  0  0  0  0  0  0  0  0  0  0
   21.8345  -20.1404  -11.4382 O   0  0  0  0  0  0  0  0  0  0  0  0
  2  1  1  6
  2  4  1  0
  2  3  1  0
  4  5  2  0
  6  7  1  0
  6  4  1  0
  7  8  1  1
  9  8  1  0
  9 10  2  0
 11 10  1  0
 12 11  1  0
 13 12  2  0
 14 13  1  0
 15 14  2  0
 15 16  1  0
 16 17  2  0
 17 12  1  0
 17  9  1  0
 18 20  1  0
 18  7  1  0
 19 18  2  0
 21 28  1  0
 21 20  1  0
 21 22  1  1
 22 23  1  0
 23 27  1  0
 23 24  2  0
 24 25  1  0
 26 25  1  0
 27 26  2  0
 28 29  1  0
 30 28  2  0
M  END
$$$$
