AWH.pdb
     RDKit          3D

 30 32  0  0  1  0  0  0  0  0999 V2000
   28.0640  -19.3043  -14.8968 C   0  0  0  0  0  0  0  0  0  0  0  0
   28.5807  -20.6018  -14.3140 C   0  0  2  0  0  0  0  0  0  0  0  0
   28.5064  -21.6177  -15.3220 N   0  0  0  0  0  0  0  0  0  0  0  0
   27.7861  -20.9895  -13.0975 C   0  0  0  0  0  0  0  0  0  0  0  0
   26.6233  -21.4700  -13.1857 O   0  0  0  0  0  0  0  0  0  0  0  0
   28.3114  -20.8317  -11.7898 N   0  0  0  0  0  0  0  0  0  0  0  0
   27.5114  -20.9774  -10.5810 C   0  0  1  0  0  0  0  0  0  0  0  0
   28.3428  -20.7804   -9.3531 C   0  0  0  0  0  0  0  0  0  0  0  0
   27.5978  -20.7091   -8.0828 C   0  0  0  0  0  0  0  0  0  0  0  0
   26.2589  -21.1409   -7.9613 C   0  0  0  0  0  0  0  0  0  0  0  0
   25.8488  -20.9803   -6.6947 N   0  0  0  0  0  0  0  0  0  0  0  0
   26.8513  -20.4603   -5.9621 C   0  0  0  0  0  0  0  0  0  0  0  0
   26.9533  -20.1046   -4.6408 C   0  0  0  0  0  0  0  0  0  0  0  0
   28.1403  -19.5786   -4.1776 C   0  0  0  0  0  0  0  0  0  0  0  0
   29.2227  -19.3994   -4.9959 C   0  0  0  0  0  0  0  0  0  0  0  0
   29.0979  -19.7677   -6.3358 C   0  0  0  0  0  0  0  0  0  0  0  0
   27.9300  -20.2938   -6.8235 C   0  0  0  0  0  0  0  0  0  0  0  0
   26.2872  -20.1899  -10.6705 C   0  0  0  0  0  0  0  0  0  0  0  0
   26.2442  -18.9639  -10.9780 O   0  0  0  0  0  0  0  0  0  0  0  0
   25.0431  -20.8679  -10.3940 N   0  0  0  0  0  0  0  0  0  0  0  0
   23.8372  -20.3895  -11.0132 C   0  0  1  0  0  0  0  0  0  0  0  0
   23.6075  -21.1640  -12.3128 C   0  0  0  0  0  0  0  0  0  0  0  0
   22.4203  -20.6610  -13.0383 C   0  0  0  0  0  0  0  0  0  0  0  0
   21.5900  -19.6545  -12.6195 C   0  0  0  0  0  0  0  0  0  0  0  0
   20.6439  -19.5214  -13.5760 N   0  0  0  0  0  0  0  0  0  0  0  0
   20.8592  -20.4045  -14.5640 C   0  0  0  0  0  0  0  0  0  0  0  0
   21.9608  -21.0971  -14.2106 N   0  0  0  0  0  0  0  0  0  0  0  0
   22.6260  -20.6314  -10.1943 C   0  0  0  0  0  0  0  0  0  0  0  0
   21.4703  -19.9044  -10.4205 O   0  0  0  0  0  0  0  0  0  0  0  0
   22.6981  -21.5135   -9.2990 O   0  0  0  0  0  0  0  0  0  0  0  0
  2  1  1  6
  2  4  1  0
  2  3  1  0
  4  5  2  0
  6  7  1  0
  6  4  1  0
  7  8  1  1
  9  8  1  0
  9 10  2  0
 11 10  1  0
 12 11  1  0
 13 12  2  0
 14 13  1  0
 15 14  2  0
 15 16  1  0
 16 17  2  0
 17 12  1  0
 17  9  1  0
 18 20  1  0
 18  7  1  0
 19 18  2  0
 21 28  1  0
 21 20  1  0
 21 22  1  6
 22 23  1  0
 23 27  1  0
 23 24  2  0
 24 25  1  0
 26 25  1  0
 27 26  2  0
 28 29  1  0
 30 28  2  0
M  END
$$$$
