AWH.pdb
     RDKit          3D

 30 32  0  0  1  0  0  0  0  0999 V2000
   13.9784  -20.8507    4.2428 C   0  0  0  0  0  0  0  0  0  0  0  0
   14.5972  -19.7335    3.4311 C   0  0  2  0  0  0  0  0  0  0  0  0
   15.2108  -20.2997    2.2663 N   0  0  0  0  0  0  0  0  0  0  0  0
   15.6006  -18.9739    4.2543 C   0  0  0  0  0  0  0  0  0  0  0  0
   16.7867  -19.3774    4.3993 O   0  0  0  0  0  0  0  0  0  0  0  0
   15.2565  -17.7632    4.9077 N   0  0  0  0  0  0  0  0  0  0  0  0
   16.1821  -17.0132    5.7463 C   0  0  1  0  0  0  0  0  0  0  0  0
   16.0022  -15.5388    5.5688 C   0  0  0  0  0  0  0  0  0  0  0  0
   16.8945  -14.9011    4.5834 C   0  0  0  0  0  0  0  0  0  0  0  0
   16.9043  -15.2652    3.2191 C   0  0  0  0  0  0  0  0  0  0  0  0
   17.7927  -14.5081    2.5591 N   0  0  0  0  0  0  0  0  0  0  0  0
   18.3789  -13.6538    3.4185 C   0  0  0  0  0  0  0  0  0  0  0  0
   19.3412  -12.6881    3.2628 C   0  0  0  0  0  0  0  0  0  0  0  0
   19.7495  -11.9647    4.3629 C   0  0  0  0  0  0  0  0  0  0  0  0
   19.2244  -12.1798    5.6083 C   0  0  0  0  0  0  0  0  0  0  0  0
   18.2470  -13.1661    5.7447 C   0  0  0  0  0  0  0  0  0  0  0  0
   17.8214  -13.9001    4.6682 C   0  0  0  0  0  0  0  0  0  0  0  0
   16.1603  -17.5104    7.1172 C   0  0  0  0  0  0  0  0  0  0  0  0
   15.1310  -17.9548    7.7024 O   0  0  0  0  0  0  0  0  0  0  0  0
   17.4066  -17.4966    7.8455 N   0  0  0  0  0  0  0  0  0  0  0  0
   17.4214  -17.9532    9.2085 C   0  0  1  0  0  0  0  0  0  0  0  0
   18.1587  -19.2925    9.2735 C   0  0  0  0  0  0  0  0  0  0  0  0
   17.3070  -20.4016    8.7903 C   0  0  0  0  0  0  0  0  0  0  0  0
   16.1443  -20.8338    9.3726 C   0  0  0  0  0  0  0  0  0  0  0  0
   15.6975  -21.8580    8.6117 N   0  0  0  0  0  0  0  0  0  0  0  0
   16.5378  -22.0720    7.5867 C   0  0  0  0  0  0  0  0  0  0  0  0
   17.5237  -21.1615    7.7173 N   0  0  0  0  0  0  0  0  0  0  0  0
   18.1675  -17.0514   10.1173 C   0  0  0  0  0  0  0  0  0  0  0  0
   18.2044  -17.3014   11.4779 O   0  0  0  0  0  0  0  0  0  0  0  0
   18.7547  -16.0645    9.6013 O   0  0  0  0  0  0  0  0  0  0  0  0
  2  1  1  1
  2  4  1  0
  2  3  1  0
  4  5  2  0
  6  7  1  0
  6  4  1  0
  7  8  1  1
  9  8  1  0
  9 10  2  0
 11 10  1  0
 12 11  1  0
 13 12  2  0
 14 13  1  0
 15 14  2  0
 15 16  1  0
 16 17  2  0
 17 12  1  0
 17  9  1  0
 18 20  1  0
 18  7  1  0
 19 18  2  0
 21 28  1  0
 21 20  1  0
 21 22  1  6
 22 23  1  0
 23 27  1  0
 23 24  2  0
 24 25  1  0
 26 25  1  0
 27 26  2  0
 28 29  1  0
 30 28  2  0
M  END
$$$$
