AWH.pdb
     RDKit          3D

 30 32  0  0  1  0  0  0  0  0999 V2000
   27.6671  -21.5866  -15.6639 C   0  0  0  0  0  0  0  0  0  0  0  0
   28.5214  -21.4147  -14.4266 C   0  0  2  0  0  0  0  0  0  0  0  0
   29.5242  -22.4385  -14.4171 N   0  0  0  0  0  0  0  0  0  0  0  0
   27.6746  -21.4772  -13.1855 C   0  0  0  0  0  0  0  0  0  0  0  0
   26.4308  -21.6799  -13.2363 O   0  0  0  0  0  0  0  0  0  0  0  0
   28.2395  -21.3106  -11.8955 N   0  0  0  0  0  0  0  0  0  0  0  0
   27.4549  -21.3261  -10.6681 C   0  0  1  0  0  0  0  0  0  0  0  0
   28.3365  -21.2926   -9.4600 C   0  0  0  0  0  0  0  0  0  0  0  0
   27.7559  -20.6557   -8.2638 C   0  0  0  0  0  0  0  0  0  0  0  0
   26.4539  -20.1092   -8.2495 C   0  0  0  0  0  0  0  0  0  0  0  0
   26.1854  -19.6211   -7.0298 N   0  0  0  0  0  0  0  0  0  0  0  0
   27.2479  -19.8151   -6.2262 C   0  0  0  0  0  0  0  0  0  0  0  0
   27.4919  -19.5051   -4.9119 C   0  0  0  0  0  0  0  0  0  0  0  0
   28.7113  -19.8353   -4.3603 C   0  0  0  0  0  0  0  0  0  0  0  0
   29.6885  -20.4637   -5.0837 C   0  0  0  0  0  0  0  0  0  0  0  0
   29.4199  -20.7700   -6.4181 C   0  0  0  0  0  0  0  0  0  0  0  0
   28.2161  -20.4542   -6.9924 C   0  0  0  0  0  0  0  0  0  0  0  0
   26.3874  -20.3338  -10.7215 C   0  0  0  0  0  0  0  0  0  0  0  0
   26.5398  -19.1364  -11.0989 O   0  0  0  0  0  0  0  0  0  0  0  0
   25.0677  -20.7600  -10.3206 N   0  0  0  0  0  0  0  0  0  0  0  0
   23.9414  -20.3981  -11.1373 C   0  0  1  0  0  0  0  0  0  0  0  0
   24.0815  -21.0763  -12.5019 C   0  0  0  0  0  0  0  0  0  0  0  0
   23.0180  -20.6400  -13.4332 C   0  0  0  0  0  0  0  0  0  0  0  0
   22.0081  -19.7602  -13.1436 C   0  0  0  0  0  0  0  0  0  0  0  0
   21.2694  -19.6476  -14.2702 N   0  0  0  0  0  0  0  0  0  0  0  0
   21.7840  -20.4217  -15.2388 C   0  0  0  0  0  0  0  0  0  0  0  0
   22.8627  -21.0248  -14.6995 N   0  0  0  0  0  0  0  0  0  0  0  0
   22.6490  -20.8773  -10.5932 C   0  0  0  0  0  0  0  0  0  0  0  0
   22.6192  -21.8697   -9.6292 O   0  0  0  0  0  0  0  0  0  0  0  0
   21.5988  -20.3481  -11.0426 O   0  0  0  0  0  0  0  0  0  0  0  0
  2  1  1  6
  2  4  1  0
  2  3  1  0
  4  5  2  0
  6  7  1  0
  6  4  1  0
  7  8  1  1
  9  8  1  0
  9 10  2  0
 11 10  1  0
 12 11  1  0
 13 12  2  0
 14 13  1  0
 15 14  2  0
 15 16  1  0
 16 17  2  0
 17 12  1  0
 17  9  1  0
 18 20  1  0
 18  7  1  0
 19 18  2  0
 21 28  1  0
 21 20  1  0
 21 22  1  6
 22 23  1  0
 23 27  1  0
 23 24  2  0
 24 25  1  0
 26 25  1  0
 27 26  2  0
 28 29  1  0
 30 28  2  0
M  END
$$$$
