AWH.pdb
     RDKit          3D

 30 32  0  0  1  0  0  0  0  0999 V2000
   18.6605  -12.5215  -15.2283 C   0  0  0  0  0  0  0  0  0  0  0  0
   18.1556  -12.6573  -16.6485 C   0  0  2  0  0  0  0  0  0  0  0  0
   18.9310  -13.6610  -17.3158 N   0  0  0  0  0  0  0  0  0  0  0  0
   18.2422  -11.3405  -17.3695 C   0  0  0  0  0  0  0  0  0  0  0  0
   19.3409  -10.8748  -17.7780 O   0  0  0  0  0  0  0  0  0  0  0  0
   17.0865  -10.5592  -17.6241 N   0  0  0  0  0  0  0  0  0  0  0  0
   17.1175   -9.2906  -18.3397 C   0  0  1  0  0  0  0  0  0  0  0  0
   15.8227   -9.0325  -19.0429 C   0  0  0  0  0  0  0  0  0  0  0  0
   15.6100   -9.7933  -20.2879 C   0  0  0  0  0  0  0  0  0  0  0  0
   15.2467  -11.1578  -20.2924 C   0  0  0  0  0  0  0  0  0  0  0  0
   15.0999  -11.5788  -21.5571 N   0  0  0  0  0  0  0  0  0  0  0  0
   15.3486  -10.5592  -22.4001 C   0  0  0  0  0  0  0  0  0  0  0  0
   15.3434  -10.4583  -23.7685 C   0  0  0  0  0  0  0  0  0  0  0  0
   15.6558   -9.2495  -24.3529 C   0  0  0  0  0  0  0  0  0  0  0  0
   15.9719   -8.1445  -23.6098 C   0  0  0  0  0  0  0  0  0  0  0  0
   15.9710   -8.2687  -22.2201 C   0  0  0  0  0  0  0  0  0  0  0  0
   15.6637   -9.4579  -21.6120 C   0  0  0  0  0  0  0  0  0  0  0  0
   17.6151   -8.2220  -17.4809 C   0  0  0  0  0  0  0  0  0  0  0  0
   17.2175   -8.0078  -16.2996 O   0  0  0  0  0  0  0  0  0  0  0  0
   18.6371   -7.3591  -18.0237 N   0  0  0  0  0  0  0  0  0  0  0  0
   19.1337   -6.2765  -17.2188 C   0  0  1  0  0  0  0  0  0  0  0  0
   20.3803   -6.7497  -16.4680 C   0  0  0  0  0  0  0  0  0  0  0  0
   20.9349   -5.6772  -15.6129 C   0  0  0  0  0  0  0  0  0  0  0  0
   20.4122   -4.4196  -15.4616 C   0  0  0  0  0  0  0  0  0  0  0  0
   21.2263   -3.7724  -14.5980 N   0  0  0  0  0  0  0  0  0  0  0  0
   22.2268   -4.5807  -14.2132 C   0  0  0  0  0  0  0  0  0  0  0  0
   22.0265   -5.7510  -14.8522 N   0  0  0  0  0  0  0  0  0  0  0  0
   19.5779   -5.1112  -18.0193 C   0  0  0  0  0  0  0  0  0  0  0  0
   19.5101   -3.8329  -17.4935 O   0  0  0  0  0  0  0  0  0  0  0  0
   20.0113   -5.3362  -19.1798 O   0  0  0  0  0  0  0  0  0  0  0  0
  2  1  1  1
  2  4  1  0
  2  3  1  0
  4  5  2  0
  6  7  1  0
  6  4  1  0
  7  8  1  1
  9  8  1  0
  9 10  2  0
 11 10  1  0
 12 11  1  0
 13 12  2  0
 14 13  1  0
 15 14  2  0
 15 16  1  0
 16 17  2  0
 17 12  1  0
 17  9  1  0
 18 20  1  0
 18  7  1  0
 19 18  2  0
 21 28  1  0
 21 20  1  0
 21 22  1  6
 22 23  1  0
 23 27  1  0
 23 24  2  0
 24 25  1  0
 26 25  1  0
 27 26  2  0
 28 29  1  0
 30 28  2  0
M  END
$$$$
