AWH.pdb
     RDKit          3D

 30 32  0  0  1  0  0  0  0  0999 V2000
   18.8044   -9.3666  -20.2195 C   0  0  0  0  0  0  0  0  0  0  0  0
   19.9701   -9.5207  -19.2669 C   0  0  2  0  0  0  0  0  0  0  0  0
   20.0232  -10.8831  -18.8254 N   0  0  0  0  0  0  0  0  0  0  0  0
   19.8293   -8.5809  -18.1013 C   0  0  0  0  0  0  0  0  0  0  0  0
   18.8447   -8.6364  -17.3150 O   0  0  0  0  0  0  0  0  0  0  0  0
   20.8025   -7.5851  -17.8324 N   0  0  0  0  0  0  0  0  0  0  0  0
   20.7291   -6.6784  -16.6944 C   0  0  1  0  0  0  0  0  0  0  0  0
   22.0280   -6.6305  -15.9542 C   0  0  0  0  0  0  0  0  0  0  0  0
   22.3242   -7.8014  -15.1086 C   0  0  0  0  0  0  0  0  0  0  0  0
   23.2882   -8.7707  -15.4625 C   0  0  0  0  0  0  0  0  0  0  0  0
   23.3611   -9.7029  -14.5015 N   0  0  0  0  0  0  0  0  0  0  0  0
   22.4899   -9.4031  -13.5200 C   0  0  0  0  0  0  0  0  0  0  0  0
   22.1706  -10.0194  -12.3363 C   0  0  0  0  0  0  0  0  0  0  0  0
   21.2062   -9.4580  -11.5269 C   0  0  0  0  0  0  0  0  0  0  0  0
   20.5557   -8.3030  -11.8673 C   0  0  0  0  0  0  0  0  0  0  0  0
   20.8956   -7.6925  -13.0750 C   0  0  0  0  0  0  0  0  0  0  0  0
   21.8510   -8.2278  -13.8990 C   0  0  0  0  0  0  0  0  0  0  0  0
   20.1577   -5.3957  -17.0885 C   0  0  0  0  0  0  0  0  0  0  0  0
   20.5982   -4.6731  -18.0283 O   0  0  0  0  0  0  0  0  0  0  0  0
   19.0055   -4.9313  -16.3533 N   0  0  0  0  0  0  0  0  0  0  0  0
   18.4399   -3.6511  -16.6818 C   0  0  1  0  0  0  0  0  0  0  0  0
   16.9169   -3.7373  -16.5605 C   0  0  0  0  0  0  0  0  0  0  0  0
   16.2734   -2.4548  -16.9207 C   0  0  0  0  0  0  0  0  0  0  0  0
   16.4163   -1.7909  -18.1109 C   0  0  0  0  0  0  0  0  0  0  0  0
   15.6614   -0.6736  -18.0144 N   0  0  0  0  0  0  0  0  0  0  0  0
   15.0613   -0.6245  -16.8145 C   0  0  0  0  0  0  0  0  0  0  0  0
   15.4535   -1.7340  -16.1565 N   0  0  0  0  0  0  0  0  0  0  0  0
   18.8468   -2.5767  -15.7458 C   0  0  0  0  0  0  0  0  0  0  0  0
   19.0491   -1.2869  -16.2047 O   0  0  0  0  0  0  0  0  0  0  0  0
   18.9974   -2.8885  -14.5354 O   0  0  0  0  0  0  0  0  0  0  0  0
  2  1  1  6
  2  4  1  0
  2  3  1  0
  4  5  2  0
  6  7  1  0
  6  4  1  0
  7  8  1  6
  9  8  1  0
  9 10  2  0
 11 10  1  0
 12 11  1  0
 13 12  2  0
 14 13  1  0
 15 14  2  0
 15 16  1  0
 16 17  2  0
 17 12  1  0
 17  9  1  0
 18 20  1  0
 18  7  1  0
 19 18  2  0
 21 28  1  0
 21 20  1  0
 21 22  1  1
 22 23  1  0
 23 27  1  0
 23 24  2  0
 24 25  1  0
 26 25  1  0
 27 26  2  0
 28 29  1  0
 30 28  2  0
M  END
$$$$
