YQR.pdb
     RDKit          3D

 33 33  0  0  1  0  0  0  0  0999 V2000
   31.5043  -22.4017  -21.1424 O   0  0  0  0  0  0  0  0  0  0  0  0
   30.7570  -22.5730  -19.9786 C   0  0  0  0  0  0  0  0  0  0  0  0
   29.3919  -22.7056  -20.1000 C   0  0  0  0  0  0  0  0  0  0  0  0
   28.5991  -22.8797  -18.9614 C   0  0  0  0  0  0  0  0  0  0  0  0
   29.1577  -22.9212  -17.7187 C   0  0  0  0  0  0  0  0  0  0  0  0
   28.3106  -23.1028  -16.5260 C   0  0  0  0  0  0  0  0  0  0  0  0
   27.3346  -21.9599  -16.3936 C   0  0  2  0  0  0  0  0  0  0  0  0
   28.0722  -20.7356  -16.2838 N   0  0  0  0  0  0  0  0  0  0  0  0
   26.3875  -22.1519  -15.2740 C   0  0  0  0  0  0  0  0  0  0  0  0
   25.6164  -23.1659  -15.1998 O   0  0  0  0  0  0  0  0  0  0  0  0
   30.5207  -22.7889  -17.5989 C   0  0  0  0  0  0  0  0  0  0  0  0
   31.3279  -22.6143  -18.7238 C   0  0  0  0  0  0  0  0  0  0  0  0
   26.6112  -21.6898   -9.8149 N   0  0  0  0  0  0  0  0  0  0  0  0
   25.2991  -21.1720   -9.7451 C   0  0  0  0  0  0  0  0  0  0  0  0
   24.5965  -21.3774   -8.7383 O   0  0  0  0  0  0  0  0  0  0  0  0
   24.7705  -20.3852  -10.8772 C   0  0  0  0  0  0  0  0  0  0  0  0
   25.7746  -20.3818  -11.9930 C   0  0  0  0  0  0  0  0  0  0  0  0
   25.3422  -21.2389  -13.1662 C   0  0  2  0  0  0  0  0  0  0  0  0
   26.2982  -21.2078  -14.2286 N   0  0  0  0  0  0  0  0  0  0  0  0
   23.9863  -20.8312  -13.5953 C   0  0  0  0  0  0  0  0  0  0  0  0
   23.7782  -19.6627  -14.0083 O   0  0  0  0  0  0  0  0  0  0  0  0
   17.4136  -26.0387  -16.0048 N   0  0  0  0  0  0  0  0  0  0  0  0
   17.0828  -24.8134  -16.6405 C   0  0  0  0  0  0  0  0  0  0  0  0
   15.9333  -24.7156  -17.2602 N   0  0  0  0  0  0  0  0  0  0  0  0
   17.9647  -23.6901  -16.6216 N   0  0  0  0  0  0  0  0  0  0  0  0
   19.2867  -23.8213  -16.0536 C   0  0  0  0  0  0  0  0  0  0  0  0
   19.7129  -22.5844  -15.3104 C   0  0  0  0  0  0  0  0  0  0  0  0
   21.1104  -22.6311  -14.8141 C   0  0  0  0  0  0  0  0  0  0  0  0
   21.5719  -21.4582  -14.0248 C   0  0  2  0  0  0  0  0  0  0  0  0
   22.9181  -21.7684  -13.5375 N   0  0  0  0  0  0  0  0  0  0  0  0
   20.6845  -21.2385  -12.8431 C   0  0  0  0  0  0  0  0  0  0  0  0
   19.5159  -20.5005  -12.8959 O   0  0  0  0  0  0  0  0  0  0  0  0
   21.0068  -21.7447  -11.7416 O   0  0  0  0  0  0  0  0  0  0  0  0
  2  1  1  0
  3  2  2  0
  4  3  1  0
  5 11  1  0
  5  4  2  0
  6  5  1  0
  7  6  1  0
  7  8  1  1
  9  7  1  0
  9 19  1  0
 10  9  2  0
 11 12  2  0
 12  2  1  0
 13 14  1  0
 14 15  2  0
 16 14  1  0
 16 17  1  0
 18 17  1  1
 18 19  1  0
 18 20  1  0
 20 21  2  0
 20 30  1  0
 22 23  1  0
 23 24  2  0
 23 25  1  0
 25 26  1  0
 26 27  1  0
 28 27  1  0
 29 28  1  1
 29 31  1  0
 30 29  1  0
 31 33  2  0
 31 32  1  0
M  END
$$$$
