YQR.pdb
     RDKit          3D

 33 33  0  0  1  0  0  0  0  0999 V2000
   32.6570  -22.1677   -9.9051 O   0  0  0  0  0  0  0  0  0  0  0  0
   31.2762  -22.0127  -10.0128 C   0  0  0  0  0  0  0  0  0  0  0  0
   30.7403  -21.8443  -11.2699 C   0  0  0  0  0  0  0  0  0  0  0  0
   29.3604  -21.6848  -11.4297 C   0  0  0  0  0  0  0  0  0  0  0  0
   28.5251  -21.6929  -10.3525 C   0  0  0  0  0  0  0  0  0  0  0  0
   27.0723  -21.5214  -10.5340 C   0  0  0  0  0  0  0  0  0  0  0  0
   26.6977  -20.0629  -10.4385 C   0  0  2  0  0  0  0  0  0  0  0  0
   25.9042  -19.8681   -9.2605 N   0  0  0  0  0  0  0  0  0  0  0  0
   26.0260  -19.5704  -11.6606 C   0  0  0  0  0  0  0  0  0  0  0  0
   24.7592  -19.4359  -11.7351 O   0  0  0  0  0  0  0  0  0  0  0  0
   29.0614  -21.8613   -9.0980 C   0  0  0  0  0  0  0  0  0  0  0  0
   30.4361  -22.0219   -8.9191 C   0  0  0  0  0  0  0  0  0  0  0  0
   29.1636  -17.3572  -16.6663 N   0  0  0  0  0  0  0  0  0  0  0  0
   27.8293  -17.1933  -17.0990 C   0  0  0  0  0  0  0  0  0  0  0  0
   27.5844  -16.6058  -18.1687 O   0  0  0  0  0  0  0  0  0  0  0  0
   26.7293  -17.7259  -16.2704 C   0  0  0  0  0  0  0  0  0  0  0  0
   27.2954  -18.3193  -15.0132 C   0  0  0  0  0  0  0  0  0  0  0  0
   26.2178  -18.7647  -14.0445 C   0  0  2  0  0  0  0  0  0  0  0  0
   26.7703  -19.2247  -12.8089 N   0  0  0  0  0  0  0  0  0  0  0  0
   25.3547  -19.7700  -14.7027 C   0  0  0  0  0  0  0  0  0  0  0  0
   25.7593  -20.9503  -14.8523 O   0  0  0  0  0  0  0  0  0  0  0  0
   18.7839  -22.3966  -10.7314 N   0  0  0  0  0  0  0  0  0  0  0  0
   19.3818  -23.2358  -11.7077 C   0  0  0  0  0  0  0  0  0  0  0  0
   18.9356  -24.4594  -11.8449 N   0  0  0  0  0  0  0  0  0  0  0  0
   20.4503  -22.7837  -12.5406 N   0  0  0  0  0  0  0  0  0  0  0  0
   20.9907  -21.4558  -12.3622 C   0  0  0  0  0  0  0  0  0  0  0  0
   21.2888  -20.7810  -13.6736 C   0  0  0  0  0  0  0  0  0  0  0  0
   22.6574  -21.0375  -14.1860 C   0  0  0  0  0  0  0  0  0  0  0  0
   23.0191  -20.3756  -15.4677 C   0  0  2  0  0  0  0  0  0  0  0  0
   24.0640  -19.3939  -15.1668 N   0  0  0  0  0  0  0  0  0  0  0  0
   21.8426  -19.6495  -16.0339 C   0  0  0  0  0  0  0  0  0  0  0  0
   21.7180  -18.2721  -16.0162 O   0  0  0  0  0  0  0  0  0  0  0  0
   20.9143  -20.3136  -16.5541 O   0  0  0  0  0  0  0  0  0  0  0  0
  2  1  1  0
  3  2  2  0
  4  3  1  0
  5 11  1  0
  5  4  2  0
  6  5  1  0
  7  6  1  0
  7  8  1  1
  9  7  1  0
  9 19  1  0
 10  9  2  0
 11 12  2  0
 12  2  1  0
 13 14  1  0
 14 15  2  0
 16 14  1  0
 16 17  1  0
 18 17  1  6
 18 19  1  0
 18 20  1  0
 20 21  2  0
 20 30  1  0
 22 23  1  0
 23 24  2  0
 23 25  1  0
 25 26  1  0
 26 27  1  0
 28 27  1  0
 29 28  1  1
 29 31  1  0
 30 29  1  0
 31 33  2  0
 31 32  1  0
M  END
$$$$
