YQR.pdb
     RDKit          3D

 33 33  0  0  1  0  0  0  0  0999 V2000
   30.3247  -30.6234  -20.1508 O   0  0  0  0  0  0  0  0  0  0  0  0
   29.5812  -29.8899  -19.2281 C   0  0  0  0  0  0  0  0  0  0  0  0
   28.3897  -29.3416  -19.6470 C   0  0  0  0  0  0  0  0  0  0  0  0
   27.6081  -28.5973  -18.7581 C   0  0  0  0  0  0  0  0  0  0  0  0
   28.0071  -28.4015  -17.4695 C   0  0  0  0  0  0  0  0  0  0  0  0
   27.1751  -27.6127  -16.5428 C   0  0  0  0  0  0  0  0  0  0  0  0
   27.1781  -26.1572  -16.9403 C   0  0  2  0  0  0  0  0  0  0  0  0
   28.4972  -25.6304  -16.7470 N   0  0  0  0  0  0  0  0  0  0  0  0
   26.1462  -25.3741  -16.2268 C   0  0  0  0  0  0  0  0  0  0  0  0
   26.3489  -24.8728  -15.0710 O   0  0  0  0  0  0  0  0  0  0  0  0
   29.1968  -28.9496  -17.0525 C   0  0  0  0  0  0  0  0  0  0  0  0
   29.9901  -29.6953  -17.9254 C   0  0  0  0  0  0  0  0  0  0  0  0
   25.3271  -23.5330  -19.0164 N   0  0  0  0  0  0  0  0  0  0  0  0
   25.3520  -22.3134  -18.3047 C   0  0  0  0  0  0  0  0  0  0  0  0
   26.1786  -21.4311  -18.6008 O   0  0  0  0  0  0  0  0  0  0  0  0
   24.3879  -22.0961  -17.2076 C   0  0  0  0  0  0  0  0  0  0  0  0
   23.4094  -23.2337  -17.1721 C   0  0  0  0  0  0  0  0  0  0  0  0
   23.8425  -24.3436  -16.2348 C   0  0  2  0  0  0  0  0  0  0  0  0
   24.8786  -25.1470  -16.8045 N   0  0  0  0  0  0  0  0  0  0  0  0
   22.6570  -25.1301  -15.8287 C   0  0  0  0  0  0  0  0  0  0  0  0
   22.2373  -26.0637  -16.5577 O   0  0  0  0  0  0  0  0  0  0  0  0
   15.9206  -25.2068  -12.6485 N   0  0  0  0  0  0  0  0  0  0  0  0
   16.1820  -26.0900  -11.5684 C   0  0  0  0  0  0  0  0  0  0  0  0
   15.2136  -26.8566  -11.1331 N   0  0  0  0  0  0  0  0  0  0  0  0
   17.4662  -26.1654  -10.9478 N   0  0  0  0  0  0  0  0  0  0  0  0
   18.5663  -25.3887  -11.4712 C   0  0  0  0  0  0  0  0  0  0  0  0
   19.6506  -26.2556  -12.0515 C   0  0  0  0  0  0  0  0  0  0  0  0
   20.7464  -25.4956  -12.7018 C   0  0  0  0  0  0  0  0  0  0  0  0
   20.7653  -25.5033  -14.1888 C   0  0  2  0  0  0  0  0  0  0  0  0
   21.9935  -24.8240  -14.6085 N   0  0  0  0  0  0  0  0  0  0  0  0
   19.5998  -24.7431  -14.7327 C   0  0  0  0  0  0  0  0  0  0  0  0
   18.4380  -25.3475  -15.1779 O   0  0  0  0  0  0  0  0  0  0  0  0
   19.6681  -23.4921  -14.7934 O   0  0  0  0  0  0  0  0  0  0  0  0
  2  1  1  0
  3  2  2  0
  4  3  1  0
  5 11  1  0
  5  4  2  0
  6  5  1  0
  7  6  1  0
  7  8  1  1
  9  7  1  0
  9 19  1  0
 10  9  2  0
 11 12  2  0
 12  2  1  0
 13 14  1  0
 14 15  2  0
 16 14  1  0
 16 17  1  0
 18 17  1  6
 18 19  1  0
 18 20  1  0
 20 21  2  0
 20 30  1  0
 22 23  1  0
 23 24  2  0
 23 25  1  0
 25 26  1  0
 26 27  1  0
 28 27  1  0
 29 28  1  1
 29 31  1  0
 30 29  1  0
 31 33  2  0
 31 32  1  0
M  END
$$$$
