YQR.pdb
     RDKit          3D

 33 33  0  0  1  0  0  0  0  0999 V2000
   30.4437  -17.6376  -18.2866 O   0  0  0  0  0  0  0  0  0  0  0  0
   29.2312  -17.5689  -17.6032 C   0  0  0  0  0  0  0  0  0  0  0  0
   28.2902  -16.6657  -18.0445 C   0  0  0  0  0  0  0  0  0  0  0  0
   27.0582  -16.5595  -17.3918 C   0  0  0  0  0  0  0  0  0  0  0  0
   26.7668  -17.3418  -16.3142 C   0  0  0  0  0  0  0  0  0  0  0  0
   25.4652  -17.2184  -15.6332 C   0  0  0  0  0  0  0  0  0  0  0  0
   24.6846  -18.5042  -15.7509 C   0  0  2  0  0  0  0  0  0  0  0  0
   24.6762  -18.9130  -17.1249 N   0  0  0  0  0  0  0  0  0  0  0  0
   23.3225  -18.3926  -15.1858 C   0  0  0  0  0  0  0  0  0  0  0  0
   23.1095  -17.9823  -13.9964 O   0  0  0  0  0  0  0  0  0  0  0  0
   27.7070  -18.2431  -15.8747 C   0  0  0  0  0  0  0  0  0  0  0  0
   28.9420  -18.3631  -16.5134 C   0  0  0  0  0  0  0  0  0  0  0  0
   16.6863  -17.3606  -17.5159 N   0  0  0  0  0  0  0  0  0  0  0  0
   17.8012  -16.8237  -16.8352 C   0  0  0  0  0  0  0  0  0  0  0  0
   18.1338  -15.6377  -17.0141 O   0  0  0  0  0  0  0  0  0  0  0  0
   18.5667  -17.6829  -15.9100 C   0  0  0  0  0  0  0  0  0  0  0  0
   19.9724  -17.8304  -16.4154 C   0  0  0  0  0  0  0  0  0  0  0  0
   20.8341  -18.6749  -15.4977 C   0  0  2  0  0  0  0  0  0  0  0  0
   22.1884  -18.7402  -15.9507 N   0  0  0  0  0  0  0  0  0  0  0  0
   20.2132  -20.0078  -15.3347 C   0  0  0  0  0  0  0  0  0  0  0  0
   19.9443  -20.7079  -16.3431 O   0  0  0  0  0  0  0  0  0  0  0  0
   15.9016  -24.2913  -11.0678 N   0  0  0  0  0  0  0  0  0  0  0  0
   16.7883  -25.1367  -10.3510 C   0  0  0  0  0  0  0  0  0  0  0  0
   16.3979  -26.3507  -10.0526 N   0  0  0  0  0  0  0  0  0  0  0  0
   18.0881  -24.7018   -9.9496 N   0  0  0  0  0  0  0  0  0  0  0  0
   18.5725  -23.4041  -10.3601 C   0  0  0  0  0  0  0  0  0  0  0  0
   18.5834  -23.2472  -11.8565 C   0  0  0  0  0  0  0  0  0  0  0  0
   19.1973  -21.9803  -12.3252 C   0  0  0  0  0  0  0  0  0  0  0  0
   19.3031  -21.8013  -13.7977 C   0  0  2  0  0  0  0  0  0  0  0  0
   19.9209  -20.4935  -14.0303 N   0  0  0  0  0  0  0  0  0  0  0  0
   17.9471  -21.7975  -14.4249 C   0  0  0  0  0  0  0  0  0  0  0  0
   17.1909  -20.6520  -14.5955 O   0  0  0  0  0  0  0  0  0  0  0  0
   17.4599  -22.8836  -14.8202 O   0  0  0  0  0  0  0  0  0  0  0  0
  2  1  1  0
  3  2  2  0
  4  3  1  0
  5 11  1  0
  5  4  2  0
  6  5  1  0
  7  6  1  0
  7  8  1  6
  9  7  1  0
  9 19  1  0
 10  9  2  0
 11 12  2  0
 12  2  1  0
 13 14  1  0
 14 15  2  0
 16 14  1  0
 16 17  1  0
 18 17  1  6
 18 19  1  0
 18 20  1  0
 20 21  2  0
 20 30  1  0
 22 23  1  0
 23 24  2  0
 23 25  1  0
 25 26  1  0
 26 27  1  0
 28 27  1  0
 29 28  1  1
 29 31  1  0
 30 29  1  0
 31 33  2  0
 31 32  1  0
M  END
$$$$
