YQR.pdb
     RDKit          3D

 33 33  0  0  1  0  0  0  0  0999 V2000
   25.6967  -10.4100  -21.7964 O   0  0  0  0  0  0  0  0  0  0  0  0
   25.2765  -11.5851  -21.1760 C   0  0  0  0  0  0  0  0  0  0  0  0
   23.9582  -11.9562  -21.3185 C   0  0  0  0  0  0  0  0  0  0  0  0
   23.4889  -13.1269  -20.7149 C   0  0  0  0  0  0  0  0  0  0  0  0
   24.3207  -13.9176  -19.9794 C   0  0  0  0  0  0  0  0  0  0  0  0
   23.8129  -15.1482  -19.3461 C   0  0  0  0  0  0  0  0  0  0  0  0
   24.4078  -16.3662  -20.0087 C   0  0  2  0  0  0  0  0  0  0  0  0
   23.9773  -16.4027  -21.3756 N   0  0  0  0  0  0  0  0  0  0  0  0
   24.0924  -17.6155  -19.2829 C   0  0  0  0  0  0  0  0  0  0  0  0
   22.9719  -18.2129  -19.4093 O   0  0  0  0  0  0  0  0  0  0  0  0
   25.6365  -13.5461  -19.8381 C   0  0  0  0  0  0  0  0  0  0  0  0
   26.1228  -12.3812  -20.4331 C   0  0  0  0  0  0  0  0  0  0  0  0
   28.4627  -21.1050  -16.4178 N   0  0  0  0  0  0  0  0  0  0  0  0
   27.2990  -21.8300  -16.0789 C   0  0  0  0  0  0  0  0  0  0  0  0
   27.3885  -22.9068  -15.4610 O   0  0  0  0  0  0  0  0  0  0  0  0
   25.9768  -21.2975  -16.4644 C   0  0  0  0  0  0  0  0  0  0  0  0
   26.1591  -20.0228  -17.2357 C   0  0  0  0  0  0  0  0  0  0  0  0
   24.8425  -19.4293  -17.6965 C   0  0  2  0  0  0  0  0  0  0  0  0
   25.0316  -18.2048  -18.4096 N   0  0  0  0  0  0  0  0  0  0  0  0
   23.9371  -19.2889  -16.5348 C   0  0  0  0  0  0  0  0  0  0  0  0
   24.0274  -18.2884  -15.7797 O   0  0  0  0  0  0  0  0  0  0  0  0
   18.0756  -23.9926  -12.3575 N   0  0  0  0  0  0  0  0  0  0  0  0
   17.2925  -22.9278  -12.8751 C   0  0  0  0  0  0  0  0  0  0  0  0
   15.9874  -23.0197  -12.8171 N   0  0  0  0  0  0  0  0  0  0  0  0
   17.8864  -21.7647  -13.4533 N   0  0  0  0  0  0  0  0  0  0  0  0
   19.0882  -21.8874  -14.2458 C   0  0  0  0  0  0  0  0  0  0  0  0
   19.4941  -20.5807  -14.8716 C   0  0  0  0  0  0  0  0  0  0  0  0
   20.6774  -20.6803  -15.7611 C   0  0  0  0  0  0  0  0  0  0  0  0
   21.9602  -20.1613  -15.2166 C   0  0  2  0  0  0  0  0  0  0  0  0
   22.9636  -20.2928  -16.2759 N   0  0  0  0  0  0  0  0  0  0  0  0
   22.4032  -20.9787  -14.0471 C   0  0  0  0  0  0  0  0  0  0  0  0
   22.1798  -20.6101  -12.7329 O   0  0  0  0  0  0  0  0  0  0  0  0
   23.0100  -22.0563  -14.2568 O   0  0  0  0  0  0  0  0  0  0  0  0
  2  1  1  0
  3  2  2  0
  4  3  1  0
  5 11  1  0
  5  4  2  0
  6  5  1  0
  7  6  1  0
  7  8  1  6
  9  7  1  0
  9 19  1  0
 10  9  2  0
 11 12  2  0
 12  2  1  0
 13 14  1  0
 14 15  2  0
 16 14  1  0
 16 17  1  0
 18 17  1  1
 18 19  1  0
 18 20  1  0
 20 21  2  0
 20 30  1  0
 22 23  1  0
 23 24  2  0
 23 25  1  0
 25 26  1  0
 26 27  1  0
 28 27  1  0
 29 28  1  6
 29 31  1  0
 30 29  1  0
 31 33  2  0
 31 32  1  0
M  END
$$$$
