YQR.pdb
     RDKit          3D

 33 33  0  0  1  0  0  0  0  0999 V2000
   19.4622  -13.7804  -19.1941 O   0  0  0  0  0  0  0  0  0  0  0  0
   20.0509  -15.0080  -18.8964 C   0  0  0  0  0  0  0  0  0  0  0  0
   20.9590  -15.5244  -19.7935 C   0  0  0  0  0  0  0  0  0  0  0  0
   21.5764  -16.7529  -19.5393 C   0  0  0  0  0  0  0  0  0  0  0  0
   21.2938  -17.4580  -18.4074 C   0  0  0  0  0  0  0  0  0  0  0  0
   21.9498  -18.7532  -18.1523 C   0  0  0  0  0  0  0  0  0  0  0  0
   22.9503  -18.6255  -17.0302 C   0  0  2  0  0  0  0  0  0  0  0  0
   24.2702  -18.6179  -17.5896 N   0  0  0  0  0  0  0  0  0  0  0  0
   22.7794  -19.6712  -15.9985 C   0  0  0  0  0  0  0  0  0  0  0  0
   23.2645  -20.8441  -16.1297 O   0  0  0  0  0  0  0  0  0  0  0  0
   20.3872  -16.9412  -17.5127 C   0  0  0  0  0  0  0  0  0  0  0  0
   19.7610  -15.7168  -17.7494 C   0  0  0  0  0  0  0  0  0  0  0  0
   20.9954  -18.3804  -10.1200 N   0  0  0  0  0  0  0  0  0  0  0  0
   21.2712  -19.7619  -10.0191 C   0  0  0  0  0  0  0  0  0  0  0  0
   21.2699  -20.3222   -8.9076 O   0  0  0  0  0  0  0  0  0  0  0  0
   21.5602  -20.5334  -11.2444 C   0  0  0  0  0  0  0  0  0  0  0  0
   21.6455  -19.5965  -12.4141 C   0  0  0  0  0  0  0  0  0  0  0  0
   21.9102  -20.3200  -13.7197 C   0  0  2  0  0  0  0  0  0  0  0  0
   22.0629  -19.4092  -14.8110 N   0  0  0  0  0  0  0  0  0  0  0  0
   20.8461  -21.3225  -13.9468 C   0  0  0  0  0  0  0  0  0  0  0  0
   19.6825  -20.9534  -14.2449 O   0  0  0  0  0  0  0  0  0  0  0  0
   19.6261  -28.3880  -11.3974 N   0  0  0  0  0  0  0  0  0  0  0  0
   19.3141  -29.0687  -12.6032 C   0  0  0  0  0  0  0  0  0  0  0  0
   18.4496  -30.0518  -12.5660 N   0  0  0  0  0  0  0  0  0  0  0  0
   19.9135  -28.7116  -13.8494 N   0  0  0  0  0  0  0  0  0  0  0  0
   20.7811  -27.5590  -13.9277 C   0  0  0  0  0  0  0  0  0  0  0  0
   20.0203  -26.2650  -13.8244 C   0  0  0  0  0  0  0  0  0  0  0  0
   20.8568  -25.0563  -14.0261 C   0  0  0  0  0  0  0  0  0  0  0  0
   20.1424  -23.7521  -14.0414 C   0  0  2  0  0  0  0  0  0  0  0  0
   21.1464  -22.7073  -13.8252 N   0  0  0  0  0  0  0  0  0  0  0  0
   19.1485  -23.6848  -12.9280 C   0  0  0  0  0  0  0  0  0  0  0  0
   17.8217  -24.0490  -13.0695 O   0  0  0  0  0  0  0  0  0  0  0  0
   19.5262  -23.2781  -11.8031 O   0  0  0  0  0  0  0  0  0  0  0  0
  2  1  1  0
  3  2  2  0
  4  3  1  0
  5 11  1  0
  5  4  2  0
  6  5  1  0
  7  6  1  0
  7  8  1  6
  9  7  1  0
  9 19  1  0
 10  9  2  0
 11 12  2  0
 12  2  1  0
 13 14  1  0
 14 15  2  0
 16 14  1  0
 16 17  1  0
 18 17  1  1
 18 19  1  0
 18 20  1  0
 20 21  2  0
 20 30  1  0
 22 23  1  0
 23 24  2  0
 23 25  1  0
 25 26  1  0
 26 27  1  0
 28 27  1  0
 29 28  1  1
 29 31  1  0
 30 29  1  0
 31 33  2  0
 31 32  1  0
M  END
$$$$
