YQR.pdb
     RDKit          3D

 33 33  0  0  1  0  0  0  0  0999 V2000
   24.0801  -23.9013  -24.7754 O   0  0  0  0  0  0  0  0  0  0  0  0
   24.0784  -23.6631  -23.4023 C   0  0  0  0  0  0  0  0  0  0  0  0
   25.2750  -23.3464  -22.7992 C   0  0  0  0  0  0  0  0  0  0  0  0
   25.3246  -23.0988  -21.4239 C   0  0  0  0  0  0  0  0  0  0  0  0
   24.1981  -23.1655  -20.6592 C   0  0  0  0  0  0  0  0  0  0  0  0
   24.2641  -22.9046  -19.2098 C   0  0  0  0  0  0  0  0  0  0  0  0
   23.7729  -21.5116  -18.9020 C   0  0  2  0  0  0  0  0  0  0  0  0
   24.9053  -20.6409  -18.7812 N   0  0  0  0  0  0  0  0  0  0  0  0
   22.8986  -21.4710  -17.7099 C   0  0  0  0  0  0  0  0  0  0  0  0
   22.8685  -20.4689  -16.9205 O   0  0  0  0  0  0  0  0  0  0  0  0
   23.0041  -23.4817  -21.2626 C   0  0  0  0  0  0  0  0  0  0  0  0
   22.9353  -23.7321  -22.6337 C   0  0  0  0  0  0  0  0  0  0  0  0
   18.4326  -19.3490  -16.5076 N   0  0  0  0  0  0  0  0  0  0  0  0
   18.1918  -20.2856  -15.4782 C   0  0  0  0  0  0  0  0  0  0  0  0
   17.2232  -20.1386  -14.7105 O   0  0  0  0  0  0  0  0  0  0  0  0
   19.0997  -21.4396  -15.3231 C   0  0  0  0  0  0  0  0  0  0  0  0
   20.1399  -21.4037  -16.4048 C   0  0  0  0  0  0  0  0  0  0  0  0
   21.0987  -22.5753  -16.3279 C   0  0  2  0  0  0  0  0  0  0  0  0
   22.0508  -22.5543  -17.3940 N   0  0  0  0  0  0  0  0  0  0  0  0
   20.3259  -23.8354  -16.2665 C   0  0  0  0  0  0  0  0  0  0  0  0
   19.5563  -24.1521  -17.2082 O   0  0  0  0  0  0  0  0  0  0  0  0
   21.4852  -29.9491  -10.0617 N   0  0  0  0  0  0  0  0  0  0  0  0
   21.8003  -29.9491  -11.4457 C   0  0  0  0  0  0  0  0  0  0  0  0
   22.7537  -30.7379  -11.8746 N   0  0  0  0  0  0  0  0  0  0  0  0
   21.1085  -29.1174  -12.3782 N   0  0  0  0  0  0  0  0  0  0  0  0
   20.0611  -28.2351  -11.9179 C   0  0  0  0  0  0  0  0  0  0  0  0
   19.4126  -27.4825  -13.0479 C   0  0  0  0  0  0  0  0  0  0  0  0
   20.3633  -26.6974  -13.8732 C   0  0  0  0  0  0  0  0  0  0  0  0
   19.7908  -25.9890  -15.0488 C   0  0  2  0  0  0  0  0  0  0  0  0
   20.4574  -24.6874  -15.1353 N   0  0  0  0  0  0  0  0  0  0  0  0
   18.3275  -25.7547  -14.8591 C   0  0  0  0  0  0  0  0  0  0  0  0
   17.8103  -24.6248  -14.2518 O   0  0  0  0  0  0  0  0  0  0  0  0
   17.5177  -26.6211  -15.2677 O   0  0  0  0  0  0  0  0  0  0  0  0
  2  1  1  0
  3  2  2  0
  4  3  1  0
  5 11  1  0
  5  4  2  0
  6  5  1  0
  7  6  1  0
  7  8  1  1
  9  7  1  0
  9 19  1  0
 10  9  2  0
 11 12  2  0
 12  2  1  0
 13 14  1  0
 14 15  2  0
 16 14  1  0
 16 17  1  0
 18 17  1  6
 18 19  1  0
 18 20  1  0
 20 21  2  0
 20 30  1  0
 22 23  1  0
 23 24  2  0
 23 25  1  0
 25 26  1  0
 26 27  1  0
 28 27  1  0
 29 28  1  1
 29 31  1  0
 30 29  1  0
 31 33  2  0
 31 32  1  0
M  END
$$$$
