YQR.pdb
     RDKit          3D

 33 33  0  0  1  0  0  0  0  0999 V2000
   18.7875  -23.1178  -11.7058 O   0  0  0  0  0  0  0  0  0  0  0  0
   20.0310  -22.4891  -11.7285 C   0  0  0  0  0  0  0  0  0  0  0  0
   20.1346  -21.2394  -11.1599 C   0  0  0  0  0  0  0  0  0  0  0  0
   21.3612  -20.5681  -11.1579 C   0  0  0  0  0  0  0  0  0  0  0  0
   22.4698  -21.1332  -11.7145 C   0  0  0  0  0  0  0  0  0  0  0  0
   23.7566  -20.4141  -11.7081 C   0  0  0  0  0  0  0  0  0  0  0  0
   24.6581  -20.9562  -10.6265 C   0  0  2  0  0  0  0  0  0  0  0  0
   24.0303  -20.7440   -9.3553 N   0  0  0  0  0  0  0  0  0  0  0  0
   26.0206  -20.3843  -10.6868 C   0  0  0  0  0  0  0  0  0  0  0  0
   26.3250  -19.2861  -10.1127 O   0  0  0  0  0  0  0  0  0  0  0  0
   22.3650  -22.3810  -12.2817 C   0  0  0  0  0  0  0  0  0  0  0  0
   21.1493  -23.0660  -12.2932 C   0  0  0  0  0  0  0  0  0  0  0  0
   31.8227  -21.0731  -10.3565 N   0  0  0  0  0  0  0  0  0  0  0  0
   30.9571  -22.1877  -10.4121 C   0  0  0  0  0  0  0  0  0  0  0  0
   31.3336  -23.2960   -9.9887 O   0  0  0  0  0  0  0  0  0  0  0  0
   29.6025  -22.0244  -10.9764 C   0  0  0  0  0  0  0  0  0  0  0  0
   29.4553  -20.6344  -11.5235 C   0  0  0  0  0  0  0  0  0  0  0  0
   28.0888  -20.3917  -12.1331 C   0  0  2  0  0  0  0  0  0  0  0  0
   27.0528  -21.0401  -11.3916 N   0  0  0  0  0  0  0  0  0  0  0  0
   28.1134  -20.7852  -13.5591 C   0  0  0  0  0  0  0  0  0  0  0  0
   27.7836  -21.9489  -13.8999 O   0  0  0  0  0  0  0  0  0  0  0  0
   22.8699  -21.9841  -14.6823 N   0  0  0  0  0  0  0  0  0  0  0  0
   22.5678  -21.8582  -16.0634 C   0  0  0  0  0  0  0  0  0  0  0  0
   21.6739  -22.6586  -16.5882 N   0  0  0  0  0  0  0  0  0  0  0  0
   23.2083  -20.8866  -16.8916 N   0  0  0  0  0  0  0  0  0  0  0  0
   24.1295  -19.9382  -16.3092 C   0  0  0  0  0  0  0  0  0  0  0  0
   25.5600  -20.3911  -16.4208 C   0  0  0  0  0  0  0  0  0  0  0  0
   26.5369  -19.4595  -15.8049 C   0  0  0  0  0  0  0  0  0  0  0  0
   27.9703  -19.8430  -15.9040 C   0  0  2  0  0  0  0  0  0  0  0  0
   28.5132  -19.8396  -14.5434 N   0  0  0  0  0  0  0  0  0  0  0  0
   28.7272  -18.8408  -16.7133 C   0  0  0  0  0  0  0  0  0  0  0  0
   28.8169  -18.8882  -18.0927 O   0  0  0  0  0  0  0  0  0  0  0  0
   29.3155  -17.9045  -16.1212 O   0  0  0  0  0  0  0  0  0  0  0  0
  2  1  1  0
  3  2  2  0
  4  3  1  0
  5 11  1  0
  5  4  2  0
  6  5  1  0
  7  6  1  0
  7  8  1  1
  9  7  1  0
  9 19  1  0
 10  9  2  0
 11 12  2  0
 12  2  1  0
 13 14  1  0
 14 15  2  0
 16 14  1  0
 16 17  1  0
 18 17  1  1
 18 19  1  0
 18 20  1  0
 20 21  2  0
 20 30  1  0
 22 23  1  0
 23 24  2  0
 23 25  1  0
 25 26  1  0
 26 27  1  0
 28 27  1  0
 29 28  1  1
 29 31  1  0
 30 29  1  0
 31 33  2  0
 31 32  1  0
M  END
$$$$
