YQR.pdb
     RDKit          3D

 33 33  0  0  1  0  0  0  0  0999 V2000
   28.7183  -11.0736  -16.6242 O   0  0  0  0  0  0  0  0  0  0  0  0
   27.8850  -12.1868  -16.5314 C   0  0  0  0  0  0  0  0  0  0  0  0
   27.9191  -12.9254  -15.3699 C   0  0  0  0  0  0  0  0  0  0  0  0
   27.1017  -14.0510  -15.2289 C   0  0  0  0  0  0  0  0  0  0  0  0
   26.2615  -14.4362  -16.2308 C   0  0  0  0  0  0  0  0  0  0  0  0
   25.4064  -15.6264  -16.0707 C   0  0  0  0  0  0  0  0  0  0  0  0
   26.2352  -16.8849  -16.1464 C   0  0  2  0  0  0  0  0  0  0  0  0
   26.7978  -16.9868  -17.4610 N   0  0  0  0  0  0  0  0  0  0  0  0
   25.4685  -18.0906  -15.7645 C   0  0  0  0  0  0  0  0  0  0  0  0
   24.5734  -18.5969  -16.5199 O   0  0  0  0  0  0  0  0  0  0  0  0
   26.2283  -13.6979  -17.3898 C   0  0  0  0  0  0  0  0  0  0  0  0
   27.0368  -12.5717  -17.5485 C   0  0  0  0  0  0  0  0  0  0  0  0
   26.9709  -21.7718  -10.8772 N   0  0  0  0  0  0  0  0  0  0  0  0
   25.7072  -22.3041  -11.2155 C   0  0  0  0  0  0  0  0  0  0  0  0
   25.2647  -23.3001  -10.6142 O   0  0  0  0  0  0  0  0  0  0  0  0
   24.9174  -21.6670  -12.2882 C   0  0  0  0  0  0  0  0  0  0  0  0
   25.7020  -20.5304  -12.8761 C   0  0  0  0  0  0  0  0  0  0  0  0
   25.0038  -19.8947  -14.0620 C   0  0  2  0  0  0  0  0  0  0  0  0
   25.7002  -18.7380  -14.5319 N   0  0  0  0  0  0  0  0  0  0  0  0
   23.5943  -19.6178  -13.7078 C   0  0  0  0  0  0  0  0  0  0  0  0
   23.3209  -18.8104  -12.7844 O   0  0  0  0  0  0  0  0  0  0  0  0
   17.6591  -24.5690  -17.6675 N   0  0  0  0  0  0  0  0  0  0  0  0
   17.7135  -24.8685  -16.2811 C   0  0  0  0  0  0  0  0  0  0  0  0
   17.2115  -26.0030  -15.8615 N   0  0  0  0  0  0  0  0  0  0  0  0
   18.2987  -23.9711  -15.3366 N   0  0  0  0  0  0  0  0  0  0  0  0
   18.9310  -22.7552  -15.7939 C   0  0  0  0  0  0  0  0  0  0  0  0
   19.6248  -22.0198  -14.6796 C   0  0  0  0  0  0  0  0  0  0  0  0
   20.3416  -20.7972  -15.1189 C   0  0  0  0  0  0  0  0  0  0  0  0
   21.1350  -20.0863  -14.0813 C   0  0  2  0  0  0  0  0  0  0  0  0
   22.5490  -20.2708  -14.4174 N   0  0  0  0  0  0  0  0  0  0  0  0
   20.8917  -20.6835  -12.7337 C   0  0  0  0  0  0  0  0  0  0  0  0
   19.9313  -20.2144  -11.8558 O   0  0  0  0  0  0  0  0  0  0  0  0
   21.5889  -21.6606  -12.3696 O   0  0  0  0  0  0  0  0  0  0  0  0
  2  1  1  0
  3  2  2  0
  4  3  1  0
  5 11  1  0
  5  4  2  0
  6  5  1  0
  7  6  1  0
  7  8  1  6
  9  7  1  0
  9 19  1  0
 10  9  2  0
 11 12  2  0
 12  2  1  0
 13 14  1  0
 14 15  2  0
 16 14  1  0
 16 17  1  0
 18 17  1  1
 18 19  1  0
 18 20  1  0
 20 21  2  0
 20 30  1  0
 22 23  1  0
 23 24  2  0
 23 25  1  0
 25 26  1  0
 26 27  1  0
 28 27  1  0
 29 28  1  6
 29 31  1  0
 30 29  1  0
 31 33  2  0
 31 32  1  0
M  END
$$$$
