YQR.pdb
     RDKit          3D

 33 33  0  0  1  0  0  0  0  0999 V2000
   28.8692  -11.6692  -16.1963 O   0  0  0  0  0  0  0  0  0  0  0  0
   28.0310  -12.7819  -16.2345 C   0  0  0  0  0  0  0  0  0  0  0  0
   27.7104  -13.3084  -17.4657 C   0  0  0  0  0  0  0  0  0  0  0  0
   26.8729  -14.4245  -17.5559 C   0  0  0  0  0  0  0  0  0  0  0  0
   26.3614  -15.0086  -16.4355 C   0  0  0  0  0  0  0  0  0  0  0  0
   25.4776  -16.1835  -16.5442 C   0  0  0  0  0  0  0  0  0  0  0  0
   26.2545  -17.4525  -16.2945 C   0  0  2  0  0  0  0  0  0  0  0  0
   27.3138  -17.5402  -17.2564 N   0  0  0  0  0  0  0  0  0  0  0  0
   25.3910  -18.6532  -16.2932 C   0  0  0  0  0  0  0  0  0  0  0  0
   25.5924  -19.6385  -17.0785 O   0  0  0  0  0  0  0  0  0  0  0  0
   26.6824  -14.4821  -15.2069 C   0  0  0  0  0  0  0  0  0  0  0  0
   27.5166  -13.3687  -15.0973 C   0  0  0  0  0  0  0  0  0  0  0  0
   25.4748  -23.3062  -13.8675 N   0  0  0  0  0  0  0  0  0  0  0  0
   25.5607  -22.1623  -13.0435 C   0  0  0  0  0  0  0  0  0  0  0  0
   26.1486  -22.2212  -11.9480 O   0  0  0  0  0  0  0  0  0  0  0  0
   24.9471  -20.8975  -13.4952 C   0  0  0  0  0  0  0  0  0  0  0  0
   24.2521  -21.1217  -14.8066 C   0  0  0  0  0  0  0  0  0  0  0  0
   23.4619  -19.9101  -15.2599 C   0  0  2  0  0  0  0  0  0  0  0  0
   24.2946  -18.7579  -15.4106 N   0  0  0  0  0  0  0  0  0  0  0  0
   22.3308  -19.6897  -14.3320 C   0  0  0  0  0  0  0  0  0  0  0  0
   22.5160  -19.1004  -13.2377 O   0  0  0  0  0  0  0  0  0  0  0  0
   15.4195  -23.2448  -11.8128 N   0  0  0  0  0  0  0  0  0  0  0  0
   14.7680  -22.0356  -12.1709 C   0  0  0  0  0  0  0  0  0  0  0  0
   13.4901  -21.9086  -11.9139 N   0  0  0  0  0  0  0  0  0  0  0  0
   15.4652  -20.9592  -12.7995 N   0  0  0  0  0  0  0  0  0  0  0  0
   16.8153  -21.1551  -13.2751 C   0  0  0  0  0  0  0  0  0  0  0  0
   17.3476  -19.9450  -13.9936 C   0  0  0  0  0  0  0  0  0  0  0  0
   18.6567  -20.1651  -14.6563 C   0  0  0  0  0  0  0  0  0  0  0  0
   19.8667  -19.9549  -13.8176 C   0  0  2  0  0  0  0  0  0  0  0  0
   21.0317  -20.1491  -14.6842 N   0  0  0  0  0  0  0  0  0  0  0  0
   19.9259  -20.9655  -12.7189 C   0  0  0  0  0  0  0  0  0  0  0  0
   19.5235  -20.7037  -11.4218 O   0  0  0  0  0  0  0  0  0  0  0  0
   20.3618  -22.1135  -12.9752 O   0  0  0  0  0  0  0  0  0  0  0  0
  2  1  1  0
  3  2  2  0
  4  3  1  0
  5 11  1  0
  5  4  2  0
  6  5  1  0
  7  6  1  0
  7  8  1  6
  9  7  1  0
  9 19  1  0
 10  9  2  0
 11 12  2  0
 12  2  1  0
 13 14  1  0
 14 15  2  0
 16 14  1  0
 16 17  1  0
 18 17  1  1
 18 19  1  0
 18 20  1  0
 20 21  2  0
 20 30  1  0
 22 23  1  0
 23 24  2  0
 23 25  1  0
 25 26  1  0
 26 27  1  0
 28 27  1  0
 29 28  1  6
 29 31  1  0
 30 29  1  0
 31 33  2  0
 31 32  1  0
M  END
$$$$
