YQR.pdb
     RDKit          3D

 33 33  0  0  1  0  0  0  0  0999 V2000
   28.6884  -25.5655  -17.6302 O   0  0  0  0  0  0  0  0  0  0  0  0
   27.9913  -24.7232  -16.7661 C   0  0  0  0  0  0  0  0  0  0  0  0
   26.7985  -25.1736  -16.2460 C   0  0  0  0  0  0  0  0  0  0  0  0
   26.0624  -24.3651  -15.3745 C   0  0  0  0  0  0  0  0  0  0  0  0
   26.5076  -23.1249  -15.0253 C   0  0  0  0  0  0  0  0  0  0  0  0
   25.7209  -22.2813  -14.1075 C   0  0  0  0  0  0  0  0  0  0  0  0
   24.8296  -21.3448  -14.8854 C   0  0  2  0  0  0  0  0  0  0  0  0
   25.6223  -20.2542  -15.3727 N   0  0  0  0  0  0  0  0  0  0  0  0
   23.6639  -20.8889  -14.0978 C   0  0  0  0  0  0  0  0  0  0  0  0
   23.7798  -20.0937  -13.1065 O   0  0  0  0  0  0  0  0  0  0  0  0
   27.6985  -22.6766  -15.5451 C   0  0  0  0  0  0  0  0  0  0  0  0
   28.4468  -23.4693  -16.4164 C   0  0  0  0  0  0  0  0  0  0  0  0
   19.0676  -17.8565  -15.4963 N   0  0  0  0  0  0  0  0  0  0  0  0
   20.3595  -17.5330  -15.0262 C   0  0  0  0  0  0  0  0  0  0  0  0
   20.8083  -16.3807  -15.1679 O   0  0  0  0  0  0  0  0  0  0  0  0
   21.1708  -18.5747  -14.3652 C   0  0  0  0  0  0  0  0  0  0  0  0
   20.4028  -19.8642  -14.3425 C   0  0  0  0  0  0  0  0  0  0  0  0
   21.1763  -20.9895  -13.6842 C   0  0  2  0  0  0  0  0  0  0  0  0
   22.3586  -21.3215  -14.4161 N   0  0  0  0  0  0  0  0  0  0  0  0
   20.2770  -22.1466  -13.4812 C   0  0  0  0  0  0  0  0  0  0  0  0
   20.1245  -22.9970  -14.3938 O   0  0  0  0  0  0  0  0  0  0  0  0
   17.5200  -25.4023   -5.6935 N   0  0  0  0  0  0  0  0  0  0  0  0
   18.1876  -26.2649   -6.6018 C   0  0  0  0  0  0  0  0  0  0  0  0
   18.7628  -27.3457   -6.1370 N   0  0  0  0  0  0  0  0  0  0  0  0
   18.2476  -25.9877   -8.0016 N   0  0  0  0  0  0  0  0  0  0  0  0
   17.6596  -24.7750   -8.5220 C   0  0  0  0  0  0  0  0  0  0  0  0
   17.7501  -24.6958  -10.0219 C   0  0  0  0  0  0  0  0  0  0  0  0
   18.6294  -23.6076  -10.5159 C   0  0  0  0  0  0  0  0  0  0  0  0
   18.6631  -23.4009  -11.9882 C   0  0  2  0  0  0  0  0  0  0  0  0
   19.5845  -22.2918  -12.2475 N   0  0  0  0  0  0  0  0  0  0  0  0
   17.3116  -23.0159  -12.4954 C   0  0  0  0  0  0  0  0  0  0  0  0
   16.4040  -23.9250  -13.0081 O   0  0  0  0  0  0  0  0  0  0  0  0
   16.9726  -21.8088  -12.4593 O   0  0  0  0  0  0  0  0  0  0  0  0
  2  1  1  0
  3  2  2  0
  4  3  1  0
  5 11  1  0
  5  4  2  0
  6  5  1  0
  7  6  1  0
  7  8  1  1
  9  7  1  0
  9 19  1  0
 10  9  2  0
 11 12  2  0
 12  2  1  0
 13 14  1  0
 14 15  2  0
 16 14  1  0
 16 17  1  0
 18 17  1  6
 18 19  1  0
 18 20  1  0
 20 21  2  0
 20 30  1  0
 22 23  1  0
 23 24  2  0
 23 25  1  0
 25 26  1  0
 26 27  1  0
 28 27  1  0
 29 28  1  1
 29 31  1  0
 30 29  1  0
 31 33  2  0
 31 32  1  0
M  END
$$$$
