YQR.pdb
     RDKit          3D

 33 33  0  0  1  0  0  0  0  0999 V2000
   30.1024  -17.3889  -19.5385 O   0  0  0  0  0  0  0  0  0  0  0  0
   28.9775  -17.2406  -18.7293 C   0  0  0  0  0  0  0  0  0  0  0  0
   28.2156  -18.3577  -18.4696 C   0  0  0  0  0  0  0  0  0  0  0  0
   27.0775  -18.2598  -17.6632 C   0  0  0  0  0  0  0  0  0  0  0  0
   26.7028  -17.0659  -17.1226 C   0  0  0  0  0  0  0  0  0  0  0  0
   25.4994  -16.9754  -16.2761 C   0  0  0  0  0  0  0  0  0  0  0  0
   24.2526  -17.0437  -17.1231 C   0  0  2  0  0  0  0  0  0  0  0  0
   24.1831  -15.8644  -17.9351 N   0  0  0  0  0  0  0  0  0  0  0  0
   23.0306  -17.2470  -16.3153 C   0  0  0  0  0  0  0  0  0  0  0  0
   22.5856  -16.3569  -15.5166 O   0  0  0  0  0  0  0  0  0  0  0  0
   27.4644  -15.9514  -17.3825 C   0  0  0  0  0  0  0  0  0  0  0  0
   28.6034  -16.0299  -18.1850 C   0  0  0  0  0  0  0  0  0  0  0  0
   17.8304  -20.0538  -17.6687 N   0  0  0  0  0  0  0  0  0  0  0  0
   17.6957  -20.0367  -16.2629 C   0  0  0  0  0  0  0  0  0  0  0  0
   16.6186  -20.3640  -15.7320 O   0  0  0  0  0  0  0  0  0  0  0  0
   18.8449  -19.6275  -15.4309 C   0  0  0  0  0  0  0  0  0  0  0  0
   19.9873  -19.2309  -16.3202 C   0  0  0  0  0  0  0  0  0  0  0  0
   21.2186  -18.8215  -15.5365 C   0  0  2  0  0  0  0  0  0  0  0  0
   22.2980  -18.4506  -16.3973 N   0  0  0  0  0  0  0  0  0  0  0  0
   21.5769  -19.9015  -14.5909 C   0  0  0  0  0  0  0  0  0  0  0  0
   22.1437  -20.9434  -15.0059 O   0  0  0  0  0  0  0  0  0  0  0  0
   26.3365  -22.4156  -10.5914 N   0  0  0  0  0  0  0  0  0  0  0  0
   26.8719  -21.1879  -11.0614 C   0  0  0  0  0  0  0  0  0  0  0  0
   27.9680  -21.2118  -11.7776 N   0  0  0  0  0  0  0  0  0  0  0  0
   26.2501  -19.9340  -10.7765 N   0  0  0  0  0  0  0  0  0  0  0  0
   24.8555  -19.8898  -10.4020 C   0  0  0  0  0  0  0  0  0  0  0  0
   23.9588  -20.4391  -11.4782 C   0  0  0  0  0  0  0  0  0  0  0  0
   22.5134  -20.2107  -11.2330 C   0  0  0  0  0  0  0  0  0  0  0  0
   21.5731  -20.7984  -12.2239 C   0  0  2  0  0  0  0  0  0  0  0  0
   21.2759  -19.7552  -13.2086 N   0  0  0  0  0  0  0  0  0  0  0  0
   20.2941  -21.1965  -11.5622 C   0  0  0  0  0  0  0  0  0  0  0  0
   20.0950  -22.4316  -10.9724 O   0  0  0  0  0  0  0  0  0  0  0  0
   19.3457  -20.3760  -11.5348 O   0  0  0  0  0  0  0  0  0  0  0  0
  2  1  1  0
  3  2  2  0
  4  3  1  0
  5 11  1  0
  5  4  2  0
  6  5  1  0
  7  6  1  0
  7  8  1  1
  9  7  1  0
  9 19  1  0
 10  9  2  0
 11 12  2  0
 12  2  1  0
 13 14  1  0
 14 15  2  0
 16 14  1  0
 16 17  1  0
 18 17  1  6
 18 19  1  0
 18 20  1  0
 20 21  2  0
 20 30  1  0
 22 23  1  0
 23 24  2  0
 23 25  1  0
 25 26  1  0
 26 27  1  0
 28 27  1  0
 29 28  1  1
 29 31  1  0
 30 29  1  0
 31 33  2  0
 31 32  1  0
M  END
$$$$
