YQR.pdb
     RDKit          3D

 33 33  0  0  1  0  0  0  0  0999 V2000
   28.7790  -28.1574  -16.8541 O   0  0  0  0  0  0  0  0  0  0  0  0
   27.9703  -27.0262  -16.7624 C   0  0  0  0  0  0  0  0  0  0  0  0
   28.5843  -25.7956  -16.6956 C   0  0  0  0  0  0  0  0  0  0  0  0
   27.8158  -24.6312  -16.6027 C   0  0  0  0  0  0  0  0  0  0  0  0
   26.4542  -24.6909  -16.5767 C   0  0  0  0  0  0  0  0  0  0  0  0
   25.6554  -23.4561  -16.4761 C   0  0  0  0  0  0  0  0  0  0  0  0
   25.7663  -22.8678  -15.0911 C   0  0  2  0  0  0  0  0  0  0  0  0
   25.2597  -23.8187  -14.1455 N   0  0  0  0  0  0  0  0  0  0  0  0
   25.1014  -21.5514  -14.9810 C   0  0  0  0  0  0  0  0  0  0  0  0
   24.1775  -21.3234  -14.1309 O   0  0  0  0  0  0  0  0  0  0  0  0
   25.8424  -25.9201  -16.6436 C   0  0  0  0  0  0  0  0  0  0  0  0
   26.5929  -27.0929  -16.7366 C   0  0  0  0  0  0  0  0  0  0  0  0
   28.1098  -16.6398  -17.0916 N   0  0  0  0  0  0  0  0  0  0  0  0
   28.4978  -17.5814  -16.1131 C   0  0  0  0  0  0  0  0  0  0  0  0
   29.6779  -17.6275  -15.7200 O   0  0  0  0  0  0  0  0  0  0  0  0
   27.4898  -18.5089  -15.5616 C   0  0  0  0  0  0  0  0  0  0  0  0
   26.1354  -18.1494  -16.0995 C   0  0  0  0  0  0  0  0  0  0  0  0
   25.0584  -19.1206  -15.6579 C   0  0  2  0  0  0  0  0  0  0  0  0
   25.4678  -20.4802  -15.8238 N   0  0  0  0  0  0  0  0  0  0  0  0
   23.7973  -18.8053  -16.3643 C   0  0  0  0  0  0  0  0  0  0  0  0
   23.5820  -19.2696  -17.5120 O   0  0  0  0  0  0  0  0  0  0  0  0
   20.1643  -19.9347  -11.1802 N   0  0  0  0  0  0  0  0  0  0  0  0
   19.8207  -21.0344  -12.0094 C   0  0  0  0  0  0  0  0  0  0  0  0
   19.8621  -22.2417  -11.5036 N   0  0  0  0  0  0  0  0  0  0  0  0
   19.4321  -20.8605  -13.3727 N   0  0  0  0  0  0  0  0  0  0  0  0
   19.3657  -19.5332  -13.9393 C   0  0  0  0  0  0  0  0  0  0  0  0
   20.5186  -19.2497  -14.8636 C   0  0  0  0  0  0  0  0  0  0  0  0
   20.4667  -17.9097  -15.4986 C   0  0  0  0  0  0  0  0  0  0  0  0
   21.5918  -17.5641  -16.4076 C   0  0  2  0  0  0  0  0  0  0  0  0
   22.8290  -17.9729  -15.7381 N   0  0  0  0  0  0  0  0  0  0  0  0
   21.6478  -16.0887  -16.6361 C   0  0  0  0  0  0  0  0  0  0  0  0
   20.7931  -15.4184  -17.4924 O   0  0  0  0  0  0  0  0  0  0  0  0
   22.5109  -15.4138  -16.0253 O   0  0  0  0  0  0  0  0  0  0  0  0
  2  1  1  0
  3  2  2  0
  4  3  1  0
  5 11  1  0
  5  4  2  0
  6  5  1  0
  7  6  1  0
  7  8  1  1
  9  7  1  0
  9 19  1  0
 10  9  2  0
 11 12  2  0
 12  2  1  0
 13 14  1  0
 14 15  2  0
 16 14  1  0
 16 17  1  0
 18 17  1  6
 18 19  1  0
 18 20  1  0
 20 21  2  0
 20 30  1  0
 22 23  1  0
 23 24  2  0
 23 25  1  0
 25 26  1  0
 26 27  1  0
 28 27  1  0
 29 28  1  1
 29 31  1  0
 30 29  1  0
 31 33  2  0
 31 32  1  0
M  END
$$$$
