YQR.pdb
     RDKit          3D

 33 33  0  0  1  0  0  0  0  0999 V2000
   30.4936  -17.0436  -18.5574 O   0  0  0  0  0  0  0  0  0  0  0  0
   29.5376  -17.6977  -17.7825 C   0  0  0  0  0  0  0  0  0  0  0  0
   29.3187  -17.2397  -16.5026 C   0  0  0  0  0  0  0  0  0  0  0  0
   28.3699  -17.8629  -15.6862 C   0  0  0  0  0  0  0  0  0  0  0  0
   27.6485  -18.9277  -16.1379 C   0  0  0  0  0  0  0  0  0  0  0  0
   26.6528  -19.5775  -15.2665 C   0  0  0  0  0  0  0  0  0  0  0  0
   27.3384  -20.4236  -14.2222 C   0  0  2  0  0  0  0  0  0  0  0  0
   28.1518  -21.4012  -14.8838 N   0  0  0  0  0  0  0  0  0  0  0  0
   26.3831  -21.0325  -13.2715 C   0  0  0  0  0  0  0  0  0  0  0  0
   25.3847  -21.7265  -13.6587 O   0  0  0  0  0  0  0  0  0  0  0  0
   27.8680  -19.3838  -17.4159 C   0  0  0  0  0  0  0  0  0  0  0  0
   28.8108  -18.7746  -18.2451 C   0  0  0  0  0  0  0  0  0  0  0  0
   27.2933  -20.9729   -7.0927 N   0  0  0  0  0  0  0  0  0  0  0  0
   26.9175  -19.7332   -7.6555 C   0  0  0  0  0  0  0  0  0  0  0  0
   27.1039  -18.6761   -7.0254 O   0  0  0  0  0  0  0  0  0  0  0  0
   26.3026  -19.7046   -8.9976 C   0  0  0  0  0  0  0  0  0  0  0  0
   26.1129  -21.1104   -9.4884 C   0  0  0  0  0  0  0  0  0  0  0  0
   25.5473  -21.1637  -10.8938 C   0  0  2  0  0  0  0  0  0  0  0  0
   26.5405  -20.8679  -11.8785 N   0  0  0  0  0  0  0  0  0  0  0  0
   24.3658  -20.2772  -10.9786 C   0  0  0  0  0  0  0  0  0  0  0  0
   24.4942  -19.0870  -11.3607 O   0  0  0  0  0  0  0  0  0  0  0  0
   20.5855  -20.8029  -17.7212 N   0  0  0  0  0  0  0  0  0  0  0  0
   21.8240  -20.5787  -17.0649 C   0  0  0  0  0  0  0  0  0  0  0  0
   22.7823  -19.9709  -17.7186 N   0  0  0  0  0  0  0  0  0  0  0  0
   22.0514  -20.9948  -15.7177 N   0  0  0  0  0  0  0  0  0  0  0  0
   20.9700  -21.5637  -14.9468 C   0  0  0  0  0  0  0  0  0  0  0  0
   20.8087  -20.8927  -13.6098 C   0  0  0  0  0  0  0  0  0  0  0  0
   21.9565  -21.0951  -12.6916 C   0  0  0  0  0  0  0  0  0  0  0  0
   21.8689  -20.4275  -11.3656 C   0  0  2  0  0  0  0  0  0  0  0  0
   23.0829  -20.7785  -10.6245 N   0  0  0  0  0  0  0  0  0  0  0  0
   20.6897  -20.9330  -10.6001 C   0  0  0  0  0  0  0  0  0  0  0  0
   20.7124  -22.0920   -9.8455 O   0  0  0  0  0  0  0  0  0  0  0  0
   19.6190  -20.2807  -10.6372 O   0  0  0  0  0  0  0  0  0  0  0  0
  2  1  1  0
  3  2  2  0
  4  3  1  0
  5 11  1  0
  5  4  2  0
  6  5  1  0
  7  6  1  0
  7  8  1  6
  9  7  1  0
  9 19  1  0
 10  9  2  0
 11 12  2  0
 12  2  1  0
 13 14  1  0
 14 15  2  0
 16 14  1  0
 16 17  1  0
 18 17  1  1
 18 19  1  0
 18 20  1  0
 20 21  2  0
 20 30  1  0
 22 23  1  0
 23 24  2  0
 23 25  1  0
 25 26  1  0
 26 27  1  0
 28 27  1  0
 29 28  1  6
 29 31  1  0
 30 29  1  0
 31 33  2  0
 31 32  1  0
M  END
$$$$
