YQR.pdb
     RDKit          3D

 33 33  0  0  1  0  0  0  0  0999 V2000
   21.7540  -15.5252  -19.9258 O   0  0  0  0  0  0  0  0  0  0  0  0
   21.6689  -14.2053  -19.4868 C   0  0  0  0  0  0  0  0  0  0  0  0
   22.3582  -13.2436  -20.1910 C   0  0  0  0  0  0  0  0  0  0  0  0
   22.3041  -11.9052  -19.7898 C   0  0  0  0  0  0  0  0  0  0  0  0
   21.5736  -11.5292  -18.7021 C   0  0  0  0  0  0  0  0  0  0  0  0
   21.5266  -10.1152  -18.2878 C   0  0  0  0  0  0  0  0  0  0  0  0
   22.8941   -9.6470  -17.8550 C   0  0  2  0  0  0  0  0  0  0  0  0
   23.2832  -10.3811  -16.6868 N   0  0  0  0  0  0  0  0  0  0  0  0
   22.9515   -8.1837  -17.6486 C   0  0  0  0  0  0  0  0  0  0  0  0
   22.6099   -7.6366  -16.5476 O   0  0  0  0  0  0  0  0  0  0  0  0
   20.8858  -12.4903  -18.0000 C   0  0  0  0  0  0  0  0  0  0  0  0
   20.9280  -13.8308  -18.3855 C   0  0  0  0  0  0  0  0  0  0  0  0
   26.4829   -4.2790  -20.9848 N   0  0  0  0  0  0  0  0  0  0  0  0
   25.6980   -3.3427  -20.2762 C   0  0  0  0  0  0  0  0  0  0  0  0
   25.9174   -2.1232  -20.3944 O   0  0  0  0  0  0  0  0  0  0  0  0
   24.6156   -3.8253  -19.3954 C   0  0  0  0  0  0  0  0  0  0  0  0
   24.5210   -5.3200  -19.4960 C   0  0  0  0  0  0  0  0  0  0  0  0
   23.4495   -5.8964  -18.5918 C   0  0  2  0  0  0  0  0  0  0  0  0
   23.3930   -7.3223  -18.6760 N   0  0  0  0  0  0  0  0  0  0  0  0
   22.1549   -5.2468  -18.8934 C   0  0  0  0  0  0  0  0  0  0  0  0
   21.6085   -5.4147  -20.0126 O   0  0  0  0  0  0  0  0  0  0  0  0
   14.7171   -6.7543  -15.6180 N   0  0  0  0  0  0  0  0  0  0  0  0
   14.4437   -5.5520  -16.3213 C   0  0  0  0  0  0  0  0  0  0  0  0
   13.2058   -5.1301  -16.3902 N   0  0  0  0  0  0  0  0  0  0  0  0
   15.4768   -4.7937  -16.9517 N   0  0  0  0  0  0  0  0  0  0  0  0
   16.8338   -5.2896  -16.9570 C   0  0  0  0  0  0  0  0  0  0  0  0
   17.7992   -4.3017  -17.5537 C   0  0  0  0  0  0  0  0  0  0  0  0
   19.2035   -4.7793  -17.5919 C   0  0  0  0  0  0  0  0  0  0  0  0
   20.2144   -3.8212  -18.1132 C   0  0  2  0  0  0  0  0  0  0  0  0
   21.5312   -4.4301  -17.9103 N   0  0  0  0  0  0  0  0  0  0  0  0
   20.1673   -2.5396  -17.3468 C   0  0  0  0  0  0  0  0  0  0  0  0
   19.3789   -1.4633  -17.7117 O   0  0  0  0  0  0  0  0  0  0  0  0
   20.8755   -2.4230  -16.3181 O   0  0  0  0  0  0  0  0  0  0  0  0
  2  1  1  0
  3  2  2  0
  4  3  1  0
  5 11  1  0
  5  4  2  0
  6  5  1  0
  7  6  1  0
  7  8  1  1
  9  7  1  0
  9 19  1  0
 10  9  2  0
 11 12  2  0
 12  2  1  0
 13 14  1  0
 14 15  2  0
 16 14  1  0
 16 17  1  0
 18 17  1  6
 18 19  1  0
 18 20  1  0
 20 21  2  0
 20 30  1  0
 22 23  1  0
 23 24  2  0
 23 25  1  0
 25 26  1  0
 26 27  1  0
 28 27  1  0
 29 28  1  1
 29 31  1  0
 30 29  1  0
 31 33  2  0
 31 32  1  0
M  END
$$$$
