YQR.pdb
     RDKit          3D

 33 33  0  0  1  0  0  0  0  0999 V2000
   19.7976  -33.1082   -0.1195 O   0  0  0  0  0  0  0  0  0  0  0  0
   19.3484  -31.8073   -0.3390 C   0  0  0  0  0  0  0  0  0  0  0  0
   18.5307  -31.5796   -1.4232 C   0  0  0  0  0  0  0  0  0  0  0  0
   18.0542  -30.2914   -1.6853 C   0  0  0  0  0  0  0  0  0  0  0  0
   18.3871  -29.2440   -0.8789 C   0  0  0  0  0  0  0  0  0  0  0  0
   17.8801  -27.8902   -1.1675 C   0  0  0  0  0  0  0  0  0  0  0  0
   18.4873  -27.3606   -2.4432 C   0  0  2  0  0  0  0  0  0  0  0  0
   19.9011  -27.2167   -2.2545 N   0  0  0  0  0  0  0  0  0  0  0  0
   17.8467  -26.1071   -2.8965 C   0  0  0  0  0  0  0  0  0  0  0  0
   17.6275  -25.1292   -2.1066 O   0  0  0  0  0  0  0  0  0  0  0  0
   19.2033  -29.4727    0.2032 C   0  0  0  0  0  0  0  0  0  0  0  0
   19.6885  -30.7515    0.4805 C   0  0  0  0  0  0  0  0  0  0  0  0
   16.4111  -24.8822   -8.9218 N   0  0  0  0  0  0  0  0  0  0  0  0
   15.8110  -23.7783   -8.2768 C   0  0  0  0  0  0  0  0  0  0  0  0
   15.3278  -22.8471   -8.9467 O   0  0  0  0  0  0  0  0  0  0  0  0
   15.7626  -23.7409   -6.8015 C   0  0  0  0  0  0  0  0  0  0  0  0
   16.5137  -24.9171   -6.2488 C   0  0  0  0  0  0  0  0  0  0  0  0
   16.6730  -24.8491   -4.7428 C   0  0  2  0  0  0  0  0  0  0  0  0
   17.4471  -25.9406   -4.2399 N   0  0  0  0  0  0  0  0  0  0  0  0
   15.3373  -24.7487   -4.1146 C   0  0  0  0  0  0  0  0  0  0  0  0
   14.6639  -25.7859   -3.8909 O   0  0  0  0  0  0  0  0  0  0  0  0
   13.3480  -19.8817    2.6343 N   0  0  0  0  0  0  0  0  0  0  0  0
   14.3348  -20.6426    1.9546 C   0  0  0  0  0  0  0  0  0  0  0  0
   15.5674  -20.6136    2.3961 N   0  0  0  0  0  0  0  0  0  0  0  0
   14.0212  -21.4356    0.8088 N   0  0  0  0  0  0  0  0  0  0  0  0
   12.8518  -21.1283    0.0180 C   0  0  0  0  0  0  0  0  0  0  0  0
   12.5904  -22.1661   -1.0397 C   0  0  0  0  0  0  0  0  0  0  0  0
   13.7783  -22.4987   -1.8642 C   0  0  0  0  0  0  0  0  0  0  0  0
   13.5291  -23.3044   -3.0891 C   0  0  2  0  0  0  0  0  0  0  0  0
   14.8178  -23.4716   -3.7654 N   0  0  0  0  0  0  0  0  0  0  0  0
   12.6047  -22.5816   -4.0138 C   0  0  0  0  0  0  0  0  0  0  0  0
   11.2612  -22.3874   -3.7482 O   0  0  0  0  0  0  0  0  0  0  0  0
   13.0600  -22.1237   -5.0892 O   0  0  0  0  0  0  0  0  0  0  0  0
  2  1  1  0
  3  2  2  0
  4  3  1  0
  5 11  1  0
  5  4  2  0
  6  5  1  0
  7  6  1  0
  7  8  1  1
  9  7  1  0
  9 19  1  0
 10  9  2  0
 11 12  2  0
 12  2  1  0
 13 14  1  0
 14 15  2  0
 16 14  1  0
 16 17  1  0
 18 17  1  6
 18 19  1  0
 18 20  1  0
 20 21  2  0
 20 30  1  0
 22 23  1  0
 23 24  2  0
 23 25  1  0
 25 26  1  0
 26 27  1  0
 28 27  1  0
 29 28  1  1
 29 31  1  0
 30 29  1  0
 31 33  2  0
 31 32  1  0
M  END
$$$$
