CWS.pdb
     RDKit          3D

 27 28  0  0  1  0  0  0  0  0999 V2000
    7.1562  -14.7425   19.9463 N   0  0  0  0  0  0  0  0  0  0  0  0
    7.3198  -15.8083   20.8842 C   0  0  1  0  0  0  0  0  0  0  0  0
    7.6508  -17.1363   20.2675 C   0  0  0  0  0  0  0  0  0  0  0  0
    9.3138  -17.1148   19.5678 S   0  0  0  0  0  0  0  0  0  0  0  0
    8.3495  -15.4036   21.8851 C   0  0  0  0  0  0  0  0  0  0  0  0
    9.1183  -14.4177   21.6822 O   0  0  0  0  0  0  0  0  0  0  0  0
    8.5060  -16.1019   23.0928 N   0  0  0  0  0  0  0  0  0  0  0  0
    9.5722  -15.7827   24.0452 C   0  0  1  0  0  0  0  0  0  0  0  0
    8.9448  -15.9686   25.3972 C   0  0  0  0  0  0  0  0  0  0  0  0
    7.7746  -15.1567   25.6972 C   0  0  0  0  0  0  0  0  0  0  0  0
    6.4491  -15.6104   25.7286 C   0  0  0  0  0  0  0  0  0  0  0  0
    5.6554  -14.5754   26.0402 N   0  0  0  0  0  0  0  0  0  0  0  0
    6.4297  -13.4760   26.2090 C   0  0  0  0  0  0  0  0  0  0  0  0
    6.1185  -12.1774   26.5557 C   0  0  0  0  0  0  0  0  0  0  0  0
    7.0860  -11.2096   26.7000 C   0  0  0  0  0  0  0  0  0  0  0  0
    8.4116  -11.5619   26.4868 C   0  0  0  0  0  0  0  0  0  0  0  0
    8.7468  -12.8522   26.1392 C   0  0  0  0  0  0  0  0  0  0  0  0
    7.7510  -13.8138   25.9999 C   0  0  0  0  0  0  0  0  0  0  0  0
   10.7605  -16.5730   23.8457 C   0  0  0  0  0  0  0  0  0  0  0  0
   10.6229  -17.8355   23.6742 O   0  0  0  0  0  0  0  0  0  0  0  0
   14.6441  -15.1082   23.4185 O   0  0  0  0  0  0  0  0  0  0  0  0
   14.3201  -16.3046   22.7830 C   0  0  0  0  0  0  0  0  0  0  0  0
   13.2211  -17.0352   23.5819 C   0  0  2  0  0  0  0  0  0  0  0  0
   12.1092  -16.1250   23.8014 N   0  0  0  0  0  0  0  0  0  0  0  0
   13.7562  -17.4878   24.8718 C   0  0  0  0  0  0  0  0  0  0  0  0
   14.7506  -18.2527   24.8915 O   0  0  0  0  0  0  0  0  0  0  0  0
   13.2186  -17.1141   26.0977 O   0  0  0  0  0  0  0  0  0  0  0  0
  2  1  1  6
  2  3  1  0
  4  3  1  0
  5  2  1  0
  6  5  2  0
  7  5  1  0
  8  7  1  0
  9 10  1  0
  8  9  1  1
 10 18  1  0
 11 10  2  0
 11 12  1  0
 12 13  1  0
 13 14  1  0
 14 15  2  0
 16 15  1  0
 17 16  2  0
 18 13  2  0
 18 17  1  0
 19 24  1  0
 19  8  1  0
 20 19  2  0
 21 22  1  0
 23 22  1  1
 23 24  1  0
 25 23  1  0
 26 25  2  0
 27 25  1  0
M  END
$$$$
