CWS.pdb
     RDKit          3D

 27 28  0  0  1  0  0  0  0  0999 V2000
    6.4955  -14.3833   20.4988 N   0  0  0  0  0  0  0  0  0  0  0  0
    7.3558  -15.5088   20.6872 C   0  0  1  0  0  0  0  0  0  0  0  0
    8.0431  -15.9838   19.4400 C   0  0  0  0  0  0  0  0  0  0  0  0
    8.9333  -17.5220   19.7519 S   0  0  0  0  0  0  0  0  0  0  0  0
    8.3417  -15.1768   21.7565 C   0  0  0  0  0  0  0  0  0  0  0  0
    9.0618  -14.1366   21.6931 O   0  0  0  0  0  0  0  0  0  0  0  0
    8.5095  -16.0064   22.8763 N   0  0  0  0  0  0  0  0  0  0  0  0
    9.5289  -15.7442   23.8950 C   0  0  1  0  0  0  0  0  0  0  0  0
    8.8455  -16.0305   25.2016 C   0  0  0  0  0  0  0  0  0  0  0  0
    7.7101  -15.1886   25.5490 C   0  0  0  0  0  0  0  0  0  0  0  0
    6.3729  -15.6026   25.6134 C   0  0  0  0  0  0  0  0  0  0  0  0
    5.6208  -14.5493   25.9644 N   0  0  0  0  0  0  0  0  0  0  0  0
    6.4331  -13.4766   26.1265 C   0  0  0  0  0  0  0  0  0  0  0  0
    6.1721  -12.1750   26.5021 C   0  0  0  0  0  0  0  0  0  0  0  0
    7.1727  -11.2392   26.6319 C   0  0  0  0  0  0  0  0  0  0  0  0
    8.4799  -11.6278   26.3736 C   0  0  0  0  0  0  0  0  0  0  0  0
    8.7651  -12.9218   25.9965 C   0  0  0  0  0  0  0  0  0  0  0  0
    7.7366  -13.8506   25.8726 C   0  0  0  0  0  0  0  0  0  0  0  0
   10.7349  -16.5069   23.6942 C   0  0  0  0  0  0  0  0  0  0  0  0
   10.6225  -17.7623   23.4630 O   0  0  0  0  0  0  0  0  0  0  0  0
   14.7154  -15.0859   23.9047 O   0  0  0  0  0  0  0  0  0  0  0  0
   14.4304  -16.1671   23.0741 C   0  0  0  0  0  0  0  0  0  0  0  0
   13.2141  -16.9389   23.6263 C   0  0  2  0  0  0  0  0  0  0  0  0
   12.0768  -16.0373   23.7077 N   0  0  0  0  0  0  0  0  0  0  0  0
   13.5223  -17.4733   24.9584 C   0  0  0  0  0  0  0  0  0  0  0  0
   12.8684  -17.0693   25.9500 O   0  0  0  0  0  0  0  0  0  0  0  0
   14.5137  -18.4183   25.1940 O   0  0  0  0  0  0  0  0  0  0  0  0
  2  1  1  6
  2  3  1  0
  4  3  1  0
  5  2  1  0
  6  5  2  0
  7  5  1  0
  8  7  1  0
  9 10  1  0
  8  9  1  1
 10 18  1  0
 11 10  2  0
 11 12  1  0
 12 13  1  0
 13 14  1  0
 14 15  2  0
 16 15  1  0
 17 16  2  0
 18 13  2  0
 18 17  1  0
 19 24  1  0
 19  8  1  0
 20 19  2  0
 21 22  1  0
 23 22  1  1
 23 24  1  0
 25 23  1  0
 26 25  2  0
 27 25  1  0
M  END
$$$$
