CWS.pdb
     RDKit          3D

 27 28  0  0  1  0  0  0  0  0999 V2000
    6.1469  -15.3688   20.3524 N   0  0  0  0  0  0  0  0  0  0  0  0
    6.8962  -16.4551   20.9007 C   0  0  1  0  0  0  0  0  0  0  0  0
    7.4963  -17.3770   19.8792 C   0  0  0  0  0  0  0  0  0  0  0  0
    6.3154  -18.6572   19.4075 S   0  0  0  0  0  0  0  0  0  0  0  0
    7.9410  -15.8984   21.8086 C   0  0  0  0  0  0  0  0  0  0  0  0
    8.5596  -14.8291   21.5287 O   0  0  0  0  0  0  0  0  0  0  0  0
    8.2793  -16.5400   23.0104 N   0  0  0  0  0  0  0  0  0  0  0  0
    9.2920  -16.0031   23.9225 C   0  0  1  0  0  0  0  0  0  0  0  0
    8.6715  -16.1076   25.2863 C   0  0  0  0  0  0  0  0  0  0  0  0
    7.5682  -15.2043   25.5785 C   0  0  0  0  0  0  0  0  0  0  0  0
    6.2130  -15.5570   25.6321 C   0  0  0  0  0  0  0  0  0  0  0  0
    5.5019  -14.4591   25.9275 N   0  0  0  0  0  0  0  0  0  0  0  0
    6.3577  -13.4171   26.0646 C   0  0  0  0  0  0  0  0  0  0  0  0
    6.1477  -12.0917   26.3848 C   0  0  0  0  0  0  0  0  0  0  0  0
    7.1861  -11.1959   26.4986 C   0  0  0  0  0  0  0  0  0  0  0  0
    8.4794  -11.6507   26.2814 C   0  0  0  0  0  0  0  0  0  0  0  0
    8.7139  -12.9696   25.9599 C   0  0  0  0  0  0  0  0  0  0  0  0
    7.6479  -13.8571   25.8512 C   0  0  0  0  0  0  0  0  0  0  0  0
   10.5620  -16.6750   23.8122 C   0  0  0  0  0  0  0  0  0  0  0  0
   10.5744  -17.9547   23.8778 O   0  0  0  0  0  0  0  0  0  0  0  0
   13.7117  -16.0022   21.4827 O   0  0  0  0  0  0  0  0  0  0  0  0
   14.1416  -16.1452   22.7998 C   0  0  0  0  0  0  0  0  0  0  0  0
   13.0636  -16.8832   23.6201 C   0  0  2  0  0  0  0  0  0  0  0  0
   11.8447  -16.0912   23.6236 N   0  0  0  0  0  0  0  0  0  0  0  0
   13.5312  -17.0835   24.9971 C   0  0  0  0  0  0  0  0  0  0  0  0
   12.9239  -16.5229   25.9411 O   0  0  0  0  0  0  0  0  0  0  0  0
   14.6274  -17.8715   25.3268 O   0  0  0  0  0  0  0  0  0  0  0  0
  2  1  1  6
  2  3  1  0
  4  3  1  0
  5  2  1  0
  6  5  2  0
  7  5  1  0
  8  7  1  0
  9 10  1  0
  8  9  1  1
 10 18  1  0
 11 10  2  0
 11 12  1  0
 12 13  1  0
 13 14  1  0
 14 15  2  0
 16 15  1  0
 17 16  2  0
 18 13  2  0
 18 17  1  0
 19 24  1  0
 19  8  1  0
 20 19  2  0
 21 22  1  0
 23 22  1  6
 23 24  1  0
 25 23  1  0
 26 25  2  0
 27 25  1  0
M  END
$$$$
