CWS.pdb
     RDKit          3D

 27 28  0  0  1  0  0  0  0  0999 V2000
    7.7323  -14.7469   20.0256 N   0  0  0  0  0  0  0  0  0  0  0  0
    7.8565  -15.9233   20.8273 C   0  0  1  0  0  0  0  0  0  0  0  0
    8.4215  -17.1125   20.1061 C   0  0  0  0  0  0  0  0  0  0  0  0
   10.1841  -16.8870   19.7931 S   0  0  0  0  0  0  0  0  0  0  0  0
    8.6638  -15.5887   22.0364 C   0  0  0  0  0  0  0  0  0  0  0  0
    9.3691  -14.5381   22.0914 O   0  0  0  0  0  0  0  0  0  0  0  0
    8.6727  -16.4275   23.1620 N   0  0  0  0  0  0  0  0  0  0  0  0
    9.5232  -16.1628   24.3248 C   0  0  1  0  0  0  0  0  0  0  0  0
    8.6037  -16.2845   25.5062 C   0  0  0  0  0  0  0  0  0  0  0  0
    7.5242  -15.3130   25.6031 C   0  0  0  0  0  0  0  0  0  0  0  0
    6.1571  -15.5919   25.4720 C   0  0  0  0  0  0  0  0  0  0  0  0
    5.4759  -14.4466   25.6220 N   0  0  0  0  0  0  0  0  0  0  0  0
    6.3622  -13.4457   25.8446 C   0  0  0  0  0  0  0  0  0  0  0  0
    6.1857  -12.0985   26.0838 C   0  0  0  0  0  0  0  0  0  0  0  0
    7.2472  -11.2540   26.3150 C   0  0  0  0  0  0  0  0  0  0  0  0
    8.5298  -11.7847   26.3040 C   0  0  0  0  0  0  0  0  0  0  0  0
    8.7311  -13.1268   26.0669 C   0  0  0  0  0  0  0  0  0  0  0  0
    7.6420  -13.9613   25.8364 C   0  0  0  0  0  0  0  0  0  0  0  0
   10.6703  -17.0322   24.3930 C   0  0  0  0  0  0  0  0  0  0  0  0
   10.5812  -18.1908   23.8527 O   0  0  0  0  0  0  0  0  0  0  0  0
   11.7878  -18.1749   28.3607 O   0  0  0  0  0  0  0  0  0  0  0  0
   11.4033  -17.3638   27.2956 C   0  0  0  0  0  0  0  0  0  0  0  0
   12.4176  -17.5068   26.1422 C   0  0  2  0  0  0  0  0  0  0  0  0
   11.9332  -16.7656   24.9893 N   0  0  0  0  0  0  0  0  0  0  0  0
   12.5811  -18.9227   25.7911 C   0  0  0  0  0  0  0  0  0  0  0  0
   11.7069  -19.4882   25.0910 O   0  0  0  0  0  0  0  0  0  0  0  0
   13.6664  -19.6915   26.1943 O   0  0  0  0  0  0  0  0  0  0  0  0
  2  1  1  6
  2  3  1  0
  4  3  1  0
  5  2  1  0
  6  5  2  0
  7  5  1  0
  8  7  1  0
  9 10  1  0
  8  9  1  1
 10 18  1  0
 11 10  2  0
 11 12  1  0
 12 13  1  0
 13 14  1  0
 14 15  2  0
 16 15  1  0
 17 16  2  0
 18 13  2  0
 18 17  1  0
 19 24  1  0
 19  8  1  0
 20 19  2  0
 21 22  1  0
 23 22  1  1
 23 24  1  0
 25 23  1  0
 26 25  2  0
 27 25  1  0
M  END
$$$$
