CWS.pdb
     RDKit          3D

 27 28  0  0  1  0  0  0  0  0999 V2000
    7.0127  -15.3154   20.3845 N   0  0  0  0  0  0  0  0  0  0  0  0
    7.6582  -16.3877   21.0743 C   0  0  1  0  0  0  0  0  0  0  0  0
    8.3281  -17.3904   20.1802 C   0  0  0  0  0  0  0  0  0  0  0  0
    8.7708  -18.8731   21.1082 S   0  0  0  0  0  0  0  0  0  0  0  0
    8.6209  -15.8075   22.0552 C   0  0  0  0  0  0  0  0  0  0  0  0
    9.2704  -14.7506   21.7994 O   0  0  0  0  0  0  0  0  0  0  0  0
    8.8443  -16.4123   23.3021 N   0  0  0  0  0  0  0  0  0  0  0  0
    9.8356  -15.8994   24.2509 C   0  0  1  0  0  0  0  0  0  0  0  0
    9.1721  -16.0105   25.5938 C   0  0  0  0  0  0  0  0  0  0  0  0
    7.9364  -15.2645   25.7813 C   0  0  0  0  0  0  0  0  0  0  0  0
    6.6446  -15.8076   25.7874 C   0  0  0  0  0  0  0  0  0  0  0  0
    5.7685  -14.8121   25.9867 N   0  0  0  0  0  0  0  0  0  0  0  0
    6.4577  -13.6514   26.1082 C   0  0  0  0  0  0  0  0  0  0  0  0
    6.0428  -12.3570   26.3444 C   0  0  0  0  0  0  0  0  0  0  0  0
    6.9346  -11.3153   26.4596 C   0  0  0  0  0  0  0  0  0  0  0  0
    8.2897  -11.5869   26.3317 C   0  0  0  0  0  0  0  0  0  0  0  0
    8.7280  -12.8714   26.0951 C   0  0  0  0  0  0  0  0  0  0  0  0
    7.8074  -13.9086   25.9830 C   0  0  0  0  0  0  0  0  0  0  0  0
   11.0993  -16.5873   24.1718 C   0  0  0  0  0  0  0  0  0  0  0  0
   11.1530  -17.7987   24.5865 O   0  0  0  0  0  0  0  0  0  0  0  0
   14.8041  -14.9498   23.1025 O   0  0  0  0  0  0  0  0  0  0  0  0
   14.5401  -16.2357   22.6367 C   0  0  0  0  0  0  0  0  0  0  0  0
   13.5194  -16.9246   23.5659 C   0  0  2  0  0  0  0  0  0  0  0  0
   12.3332  -16.0908   23.6693 N   0  0  0  0  0  0  0  0  0  0  0  0
   14.1068  -17.1223   24.8966 C   0  0  0  0  0  0  0  0  0  0  0  0
   15.2157  -17.6999   25.0004 O   0  0  0  0  0  0  0  0  0  0  0  0
   13.4982  -16.7007   26.0728 O   0  0  0  0  0  0  0  0  0  0  0  0
  2  1  1  6
  2  3  1  0
  4  3  1  0
  5  2  1  0
  6  5  2  0
  7  5  1  0
  8  7  1  0
  9 10  1  0
  8  9  1  1
 10 18  1  0
 11 10  2  0
 11 12  1  0
 12 13  1  0
 13 14  1  0
 14 15  2  0
 16 15  1  0
 17 16  2  0
 18 13  2  0
 18 17  1  0
 19 24  1  0
 19  8  1  0
 20 19  2  0
 21 22  1  0
 23 22  1  6
 23 24  1  0
 25 23  1  0
 26 25  2  0
 27 25  1  0
M  END
$$$$
