CWS.pdb
     RDKit          3D

 27 28  0  0  1  0  0  0  0  0999 V2000
    7.9053  -13.3399   17.7545 N   0  0  0  0  0  0  0  0  0  0  0  0
    7.7291  -14.5768   18.4482 C   0  0  1  0  0  0  0  0  0  0  0  0
    8.4116  -15.7520   17.8104 C   0  0  0  0  0  0  0  0  0  0  0  0
   10.1348  -15.3631   17.4430 S   0  0  0  0  0  0  0  0  0  0  0  0
    8.1717  -14.3940   19.8611 C   0  0  0  0  0  0  0  0  0  0  0  0
    9.0116  -13.5017   20.1814 O   0  0  0  0  0  0  0  0  0  0  0  0
    7.6732  -15.2060   20.8919 N   0  0  0  0  0  0  0  0  0  0  0  0
    8.0729  -15.0248   22.2895 C   0  0  1  0  0  0  0  0  0  0  0  0
    6.7805  -14.9799   23.0536 C   0  0  0  0  0  0  0  0  0  0  0  0
    6.8743  -14.8117   24.4963 C   0  0  0  0  0  0  0  0  0  0  0  0
    6.8863  -15.8454   25.4424 C   0  0  0  0  0  0  0  0  0  0  0  0
    6.9824  -15.2997   26.6635 N   0  0  0  0  0  0  0  0  0  0  0  0
    7.0325  -13.9520   26.5289 C   0  0  0  0  0  0  0  0  0  0  0  0
    7.1553  -12.9398   27.4582 C   0  0  0  0  0  0  0  0  0  0  0  0
    7.2141  -11.6152   27.0898 C   0  0  0  0  0  0  0  0  0  0  0  0
    7.1461  -11.3001   25.7398 C   0  0  0  0  0  0  0  0  0  0  0  0
    7.0229  -12.2935   24.7933 C   0  0  0  0  0  0  0  0  0  0  0  0
    6.9660  -13.6259   25.1899 C   0  0  0  0  0  0  0  0  0  0  0  0
    8.9825  -16.0425   22.7514 C   0  0  0  0  0  0  0  0  0  0  0  0
    8.7787  -17.2497   22.3730 O   0  0  0  0  0  0  0  0  0  0  0  0
   12.6220  -16.5309   22.3216 O   0  0  0  0  0  0  0  0  0  0  0  0
   12.4314  -16.6572   23.6956 C   0  0  0  0  0  0  0  0  0  0  0  0
   10.9560  -17.0025   23.9850 C   0  0  2  0  0  0  0  0  0  0  0  0
   10.1196  -15.8813   23.5897 N   0  0  0  0  0  0  0  0  0  0  0  0
   10.7770  -17.2772   25.4159 C   0  0  0  0  0  0  0  0  0  0  0  0
   10.0288  -16.5345   26.0963 O   0  0  0  0  0  0  0  0  0  0  0  0
   11.3975  -18.3302   26.0772 O   0  0  0  0  0  0  0  0  0  0  0  0
  2  1  1  6
  2  3  1  0
  4  3  1  0
  5  2  1  0
  6  5  2  0
  7  5  1  0
  8  7  1  0
  9 10  1  0
  8  9  1  1
 10 18  1  0
 11 10  2  0
 11 12  1  0
 12 13  1  0
 13 14  1  0
 14 15  2  0
 16 15  1  0
 17 16  2  0
 18 13  2  0
 18 17  1  0
 19 24  1  0
 19  8  1  0
 20 19  2  0
 21 22  1  0
 23 22  1  1
 23 24  1  0
 25 23  1  0
 26 25  2  0
 27 25  1  0
M  END
$$$$
