CWS.pdb
     RDKit          3D

 27 28  0  0  1  0  0  0  0  0999 V2000
    7.5437  -16.7429   21.7766 N   0  0  0  0  0  0  0  0  0  0  0  0
    8.4814  -15.7184   21.4396 C   0  0  1  0  0  0  0  0  0  0  0  0
    7.8608  -14.4393   20.9577 C   0  0  0  0  0  0  0  0  0  0  0  0
    6.5317  -14.7801   19.7859 S   0  0  0  0  0  0  0  0  0  0  0  0
    9.3666  -15.4816   22.6169 C   0  0  0  0  0  0  0  0  0  0  0  0
   10.3426  -14.6763   22.5598 O   0  0  0  0  0  0  0  0  0  0  0  0
    9.1513  -16.1439   23.8357 N   0  0  0  0  0  0  0  0  0  0  0  0
   10.0772  -16.0208   24.9640 C   0  0  1  0  0  0  0  0  0  0  0  0
    9.2007  -16.0589   26.1833 C   0  0  0  0  0  0  0  0  0  0  0  0
    7.9235  -15.3661   26.0977 C   0  0  0  0  0  0  0  0  0  0  0  0
    6.6887  -15.9585   25.8007 C   0  0  0  0  0  0  0  0  0  0  0  0
    5.7478  -15.0031   25.8126 N   0  0  0  0  0  0  0  0  0  0  0  0
    6.3405  -13.8204   26.1075 C   0  0  0  0  0  0  0  0  0  0  0  0
    5.8271  -12.5496   26.2654 C   0  0  0  0  0  0  0  0  0  0  0  0
    6.6234  -11.4779   26.5983 C   0  0  0  0  0  0  0  0  0  0  0  0
    7.9829  -11.6937   26.7771 C   0  0  0  0  0  0  0  0  0  0  0  0
    8.5187  -12.9537   26.6243 C   0  0  0  0  0  0  0  0  0  0  0  0
    7.6934  -14.0221   26.2881 C   0  0  0  0  0  0  0  0  0  0  0  0
   11.1065  -17.0292   24.9604 C   0  0  0  0  0  0  0  0  0  0  0  0
   11.5883  -17.4027   26.0876 O   0  0  0  0  0  0  0  0  0  0  0  0
   11.9516  -18.9855   21.7262 O   0  0  0  0  0  0  0  0  0  0  0  0
   12.8187  -19.5124   22.6806 C   0  0  0  0  0  0  0  0  0  0  0  0
   12.7346  -18.6774   23.9750 C   0  0  2  0  0  0  0  0  0  0  0  0
   11.6713  -17.6957   23.8385 N   0  0  0  0  0  0  0  0  0  0  0  0
   14.0127  -17.9968   24.2164 C   0  0  0  0  0  0  0  0  0  0  0  0
   15.0459  -18.6801   24.4158 O   0  0  0  0  0  0  0  0  0  0  0  0
   14.1521  -16.6143   24.2382 O   0  0  0  0  0  0  0  0  0  0  0  0
  2  1  1  1
  2  3  1  0
  4  3  1  0
  5  2  1  0
  6  5  2  0
  7  5  1  0
  8  7  1  0
  9 10  1  0
  8  9  1  1
 10 18  1  0
 11 10  2  0
 11 12  1  0
 12 13  1  0
 13 14  1  0
 14 15  2  0
 16 15  1  0
 17 16  2  0
 18 13  2  0
 18 17  1  0
 19 24  1  0
 19  8  1  0
 20 19  2  0
 21 22  1  0
 23 22  1  6
 23 24  1  0
 25 23  1  0
 26 25  2  0
 27 25  1  0
M  END
$$$$
