CWS.pdb
     RDKit          3D

 27 28  0  0  1  0  0  0  0  0999 V2000
    6.8896  -13.7729   19.9935 N   0  0  0  0  0  0  0  0  0  0  0  0
    7.5417  -15.0207   20.2383 C   0  0  1  0  0  0  0  0  0  0  0  0
    8.3468  -15.5407   19.0829 C   0  0  0  0  0  0  0  0  0  0  0  0
    8.8571  -17.2456   19.3805 S   0  0  0  0  0  0  0  0  0  0  0  0
    8.3799  -14.8837   21.4649 C   0  0  0  0  0  0  0  0  0  0  0  0
    9.0730  -13.8457   21.6804 O   0  0  0  0  0  0  0  0  0  0  0  0
    8.4325  -15.9024   22.4292 N   0  0  0  0  0  0  0  0  0  0  0  0
    9.2935  -15.8135   23.6109 C   0  0  1  0  0  0  0  0  0  0  0  0
    8.4433  -16.3181   24.7417 C   0  0  0  0  0  0  0  0  0  0  0  0
    7.3667  -15.4495   25.1943 C   0  0  0  0  0  0  0  0  0  0  0  0
    6.0136  -15.8022   25.2868 C   0  0  0  0  0  0  0  0  0  0  0  0
    5.3304  -14.7416   25.7413 N   0  0  0  0  0  0  0  0  0  0  0  0
    6.2019  -13.7234   25.9423 C   0  0  0  0  0  0  0  0  0  0  0  0
    6.0224  -12.4407   26.4175 C   0  0  0  0  0  0  0  0  0  0  0  0
    7.0736  -11.5656   26.5688 C   0  0  0  0  0  0  0  0  0  0  0  0
    8.3483  -11.9973   26.2290 C   0  0  0  0  0  0  0  0  0  0  0  0
    8.5523  -13.2734   25.7518 C   0  0  0  0  0  0  0  0  0  0  0  0
    7.4739  -14.1407   25.6080 C   0  0  0  0  0  0  0  0  0  0  0  0
   10.5353  -16.5281   23.4579 C   0  0  0  0  0  0  0  0  0  0  0  0
   10.4813  -17.7864   23.2211 O   0  0  0  0  0  0  0  0  0  0  0  0
   14.3610  -14.9895   24.1026 O   0  0  0  0  0  0  0  0  0  0  0  0
   14.2598  -15.9549   23.1036 C   0  0  0  0  0  0  0  0  0  0  0  0
   13.0308  -16.8487   23.3687 C   0  0  2  0  0  0  0  0  0  0  0  0
   11.8564  -16.0067   23.5258 N   0  0  0  0  0  0  0  0  0  0  0  0
   13.2411  -17.6420   24.5858 C   0  0  0  0  0  0  0  0  0  0  0  0
   14.2079  -18.4398   24.6412 O   0  0  0  0  0  0  0  0  0  0  0  0
   12.4189  -17.5627   25.7035 O   0  0  0  0  0  0  0  0  0  0  0  0
  2  1  1  6
  2  3  1  0
  4  3  1  0
  5  2  1  0
  6  5  2  0
  7  5  1  0
  8  7  1  0
  9 10  1  0
  8  9  1  1
 10 18  1  0
 11 10  2  0
 11 12  1  0
 12 13  1  0
 13 14  1  0
 14 15  2  0
 16 15  1  0
 17 16  2  0
 18 13  2  0
 18 17  1  0
 19 24  1  0
 19  8  1  0
 20 19  2  0
 21 22  1  0
 23 22  1  1
 23 24  1  0
 25 23  1  0
 26 25  2  0
 27 25  1  0
M  END
$$$$
