CWS.pdb
     RDKit          3D

 27 28  0  0  1  0  0  0  0  0999 V2000
    8.2154  -13.4267   17.9132 N   0  0  0  0  0  0  0  0  0  0  0  0
    7.7138  -14.5190   18.6863 C   0  0  1  0  0  0  0  0  0  0  0  0
    7.9616  -15.8727   18.0868 C   0  0  0  0  0  0  0  0  0  0  0  0
    9.7045  -16.3190   18.2243 S   0  0  0  0  0  0  0  0  0  0  0  0
    8.2808  -14.4237   20.0630 C   0  0  0  0  0  0  0  0  0  0  0  0
    9.3832  -13.8412   20.2860 O   0  0  0  0  0  0  0  0  0  0  0  0
    7.6126  -14.9776   21.1663 N   0  0  0  0  0  0  0  0  0  0  0  0
    8.1584  -14.9074   22.5238 C   0  0  1  0  0  0  0  0  0  0  0  0
    6.9527  -14.8526   23.4178 C   0  0  0  0  0  0  0  0  0  0  0  0
    7.1946  -14.6361   24.8367 C   0  0  0  0  0  0  0  0  0  0  0  0
    7.5914  -15.6141   25.7586 C   0  0  0  0  0  0  0  0  0  0  0  0
    7.7115  -15.0361   26.9626 N   0  0  0  0  0  0  0  0  0  0  0  0
    7.4050  -13.7216   26.8404 C   0  0  0  0  0  0  0  0  0  0  0  0
    7.3949  -12.6914   27.7580 C   0  0  0  0  0  0  0  0  0  0  0  0
    7.0711  -11.4020   27.4028 C   0  0  0  0  0  0  0  0  0  0  0  0
    6.7456  -11.1421   26.0787 C   0  0  0  0  0  0  0  0  0  0  0  0
    6.7482  -12.1546   25.1445 C   0  0  0  0  0  0  0  0  0  0  0  0
    7.0797  -13.4505   25.5273 C   0  0  0  0  0  0  0  0  0  0  0  0
    9.0542  -15.9945   22.8274 C   0  0  0  0  0  0  0  0  0  0  0  0
    8.7530  -17.1624   22.3943 O   0  0  0  0  0  0  0  0  0  0  0  0
   12.9907  -15.6953   23.4206 O   0  0  0  0  0  0  0  0  0  0  0  0
   12.4514  -16.9318   23.0737 C   0  0  0  0  0  0  0  0  0  0  0  0
   11.0934  -17.1221   23.7803 C   0  0  2  0  0  0  0  0  0  0  0  0
   10.2731  -15.9430   23.5577 N   0  0  0  0  0  0  0  0  0  0  0  0
   11.3009  -17.3199   25.2200 C   0  0  0  0  0  0  0  0  0  0  0  0
   10.7401  -16.5477   26.0345 O   0  0  0  0  0  0  0  0  0  0  0  0
   12.0964  -18.3299   25.7477 O   0  0  0  0  0  0  0  0  0  0  0  0
  2  1  1  6
  2  3  1  0
  4  3  1  0
  5  2  1  0
  6  5  2  0
  7  5  1  0
  8  7  1  0
  9 10  1  0
  8  9  1  1
 10 18  1  0
 11 10  2  0
 11 12  1  0
 12 13  1  0
 13 14  1  0
 14 15  2  0
 16 15  1  0
 17 16  2  0
 18 13  2  0
 18 17  1  0
 19 24  1  0
 19  8  1  0
 20 19  2  0
 21 22  1  0
 23 22  1  6
 23 24  1  0
 25 23  1  0
 26 25  2  0
 27 25  1  0
M  END
$$$$
