CWS.pdb
     RDKit          3D

 27 28  0  0  1  0  0  0  0  0999 V2000
    7.0881  -14.8845   20.1734 N   0  0  0  0  0  0  0  0  0  0  0  0
    7.5293  -16.0575   20.8600 C   0  0  1  0  0  0  0  0  0  0  0  0
    8.0879  -17.1286   19.9688 C   0  0  0  0  0  0  0  0  0  0  0  0
    9.7046  -16.6445   19.3305 S   0  0  0  0  0  0  0  0  0  0  0  0
    8.5152  -15.6520   21.9038 C   0  0  0  0  0  0  0  0  0  0  0  0
    9.3290  -14.7006   21.7115 O   0  0  0  0  0  0  0  0  0  0  0  0
    8.5788  -16.3110   23.1416 N   0  0  0  0  0  0  0  0  0  0  0  0
    9.5578  -15.9476   24.1688 C   0  0  1  0  0  0  0  0  0  0  0  0
    8.8235  -16.1062   25.4694 C   0  0  0  0  0  0  0  0  0  0  0  0
    7.6592  -15.2574   25.6757 C   0  0  0  0  0  0  0  0  0  0  0  0
    6.3243  -15.6836   25.6747 C   0  0  0  0  0  0  0  0  0  0  0  0
    5.5403  -14.6186   25.8967 N   0  0  0  0  0  0  0  0  0  0  0  0
    6.3300  -13.5265   26.0398 C   0  0  0  0  0  0  0  0  0  0  0  0
    6.0320  -12.2055   26.3035 C   0  0  0  0  0  0  0  0  0  0  0  0
    7.0130  -11.2497   26.4374 C   0  0  0  0  0  0  0  0  0  0  0  0
    8.3385  -11.6379   26.2999 C   0  0  0  0  0  0  0  0  0  0  0  0
    8.6606  -12.9510   26.0359 C   0  0  0  0  0  0  0  0  0  0  0  0
    7.6514  -13.8999   25.9054 C   0  0  0  0  0  0  0  0  0  0  0  0
   10.7698  -16.7232   24.0910 C   0  0  0  0  0  0  0  0  0  0  0  0
   10.6745  -17.9991   24.1630 O   0  0  0  0  0  0  0  0  0  0  0  0
   14.4818  -15.0827   23.8522 O   0  0  0  0  0  0  0  0  0  0  0  0
   14.4750  -16.3943   23.3835 C   0  0  0  0  0  0  0  0  0  0  0  0
   13.2484  -17.1405   23.9477 C   0  0  2  0  0  0  0  0  0  0  0  0
   12.1004  -16.2490   23.9290 N   0  0  0  0  0  0  0  0  0  0  0  0
   13.5167  -17.5780   25.3230 C   0  0  0  0  0  0  0  0  0  0  0  0
   12.7967  -17.1495   26.2568 O   0  0  0  0  0  0  0  0  0  0  0  0
   14.5399  -18.4554   25.6618 O   0  0  0  0  0  0  0  0  0  0  0  0
  2  1  1  6
  2  3  1  0
  4  3  1  0
  5  2  1  0
  6  5  2  0
  7  5  1  0
  8  7  1  0
  9 10  1  0
  8  9  1  1
 10 18  1  0
 11 10  2  0
 11 12  1  0
 12 13  1  0
 13 14  1  0
 14 15  2  0
 16 15  1  0
 17 16  2  0
 18 13  2  0
 18 17  1  0
 19 24  1  0
 19  8  1  0
 20 19  2  0
 21 22  1  0
 23 22  1  1
 23 24  1  0
 25 23  1  0
 26 25  2  0
 27 25  1  0
M  END
$$$$
