CWS.pdb
     RDKit          3D

 27 28  0  0  1  0  0  0  0  0999 V2000
    8.8587  -16.5466   18.2887 N   0  0  0  0  0  0  0  0  0  0  0  0
    8.2183  -16.8085   19.5391 C   0  0  1  0  0  0  0  0  0  0  0  0
    7.7247  -18.2166   19.7040 C   0  0  0  0  0  0  0  0  0  0  0  0
    6.4854  -18.6060   18.4518 S   0  0  0  0  0  0  0  0  0  0  0  0
    9.1535  -16.4297   20.6380 C   0  0  0  0  0  0  0  0  0  0  0  0
   10.4098  -16.4818   20.4854 O   0  0  0  0  0  0  0  0  0  0  0  0
    8.6757  -16.0001   21.8861 N   0  0  0  0  0  0  0  0  0  0  0  0
    9.5765  -15.6152   22.9752 C   0  0  1  0  0  0  0  0  0  0  0  0
    8.9944  -14.3425   23.5205 C   0  0  0  0  0  0  0  0  0  0  0  0
    7.9978  -14.4724   24.5733 C   0  0  0  0  0  0  0  0  0  0  0  0
    7.2842  -15.6371   24.8864 C   0  0  0  0  0  0  0  0  0  0  0  0
    6.4614  -15.3664   25.9101 N   0  0  0  0  0  0  0  0  0  0  0  0
    6.6258  -14.0678   26.2613 C   0  0  0  0  0  0  0  0  0  0  0  0
    6.0469  -13.3041   27.2538 C   0  0  0  0  0  0  0  0  0  0  0  0
    6.3891  -11.9861   27.4525 C   0  0  0  0  0  0  0  0  0  0  0  0
    7.3460  -11.4184   26.6226 C   0  0  0  0  0  0  0  0  0  0  0  0
    7.9376  -12.1608   25.6243 C   0  0  0  0  0  0  0  0  0  0  0  0
    7.5759  -13.4920   25.4430 C   0  0  0  0  0  0  0  0  0  0  0  0
    9.7357  -16.6492   23.9662 C   0  0  0  0  0  0  0  0  0  0  0  0
    8.7228  -17.3864   24.2360 O   0  0  0  0  0  0  0  0  0  0  0  0
   13.2877  -18.1825   25.0912 O   0  0  0  0  0  0  0  0  0  0  0  0
   12.1671  -18.9846   25.2933 C   0  0  0  0  0  0  0  0  0  0  0  0
   10.9490  -18.0993   25.6284 C   0  0  2  0  0  0  0  0  0  0  0  0
   10.9065  -16.9800   24.7019 N   0  0  0  0  0  0  0  0  0  0  0  0
   11.0544  -17.6021   27.0055 C   0  0  0  0  0  0  0  0  0  0  0  0
   11.0907  -16.3651   27.2123 O   0  0  0  0  0  0  0  0  0  0  0  0
   11.1180  -18.4335   28.1173 O   0  0  0  0  0  0  0  0  0  0  0  0
  2  1  1  6
  2  3  1  0
  4  3  1  0
  5  2  1  0
  6  5  2  0
  7  5  1  0
  8  7  1  0
  9 10  1  0
  8  9  1  1
 10 18  1  0
 11 10  2  0
 11 12  1  0
 12 13  1  0
 13 14  1  0
 14 15  2  0
 16 15  1  0
 17 16  2  0
 18 13  2  0
 18 17  1  0
 19 24  1  0
 19  8  1  0
 20 19  2  0
 21 22  1  0
 23 22  1  6
 23 24  1  0
 25 23  1  0
 26 25  2  0
 27 25  1  0
M  END
$$$$
