EAF.pdb
     RDKit          3D

 26 26  0  0  1  0  0  0  0  0999 V2000
   46.0842   -9.7144   -4.2620 N   0  0  0  0  0  0  0  0  0  0  0  0
   46.0831   -9.8052   -5.6718 C   0  0  1  0  0  0  0  0  0  0  0  0
   45.8832  -11.1938   -6.1641 C   0  0  0  0  0  0  0  0  0  0  0  0
   45.7598  -11.2867   -7.6359 C   0  0  0  0  0  0  0  0  0  0  0  0
   45.4360  -12.5878   -8.2346 C   0  0  0  0  0  0  0  0  0  0  0  0
   44.7628  -12.7708   -9.2694 O   0  0  0  0  0  0  0  0  0  0  0  0
   45.0655   -8.8619   -6.2318 C   0  0  0  0  0  0  0  0  0  0  0  0
   44.0175   -8.6109   -5.5906 O   0  0  0  0  0  0  0  0  0  0  0  0
   45.8969  -13.7863   -7.6367 O   0  0  0  0  0  0  0  0  0  0  0  0
   44.8024   -6.6394   -9.1952 C   0  0  0  0  0  0  0  0  0  0  0  0
   44.2491   -7.3063   -7.9360 C   0  0  2  0  0  0  0  0  0  0  0  0
   45.2687   -8.2457   -7.4798 N   0  0  0  0  0  0  0  0  0  0  0  0
   42.9559   -7.9620   -8.2327 C   0  0  0  0  0  0  0  0  0  0  0  0
   42.8366   -9.1169   -8.7139 O   0  0  0  0  0  0  0  0  0  0  0  0
   41.7831   -7.2296   -7.9511 N   0  0  0  0  0  0  0  0  0  0  0  0
   40.4429   -7.7893   -8.1522 C   0  0  1  0  0  0  0  0  0  0  0  0
   39.8561   -7.8778   -6.7414 C   0  0  0  0  0  0  0  0  0  0  0  0
   38.4452   -8.2667   -6.8174 C   0  0  0  0  0  0  0  0  0  0  0  0
   37.4348   -7.3975   -7.1518 C   0  0  0  0  0  0  0  0  0  0  0  0
   36.1205   -7.8400   -7.2122 C   0  0  0  0  0  0  0  0  0  0  0  0
   35.8133   -9.1536   -6.9378 C   0  0  0  0  0  0  0  0  0  0  0  0
   36.8259  -10.0439   -6.5978 C   0  0  0  0  0  0  0  0  0  0  0  0
   38.1241   -9.5974   -6.5406 C   0  0  0  0  0  0  0  0  0  0  0  0
   39.6927   -6.8836   -9.0282 C   0  0  0  0  0  0  0  0  0  0  0  0
   39.8243   -5.5188   -8.9062 O   0  0  0  0  0  0  0  0  0  0  0  0
   38.9242   -7.3483   -9.8966 O   0  0  0  0  0  0  0  0  0  0  0  0
  2  1  1  1
  3  2  1  0
  4  3  1  0
  5  9  1  0
  5  4  1  0
  6  5  2  0
  7  8  2  0
  7  2  1  0
 11 10  1  6
 11 12  1  0
 12  7  1  0
 13 11  1  0
 14 13  2  0
 15 13  1  0
 16 15  1  0
 17 18  1  0
 16 17  1  1
 18 23  2  0
 19 20  2  0
 19 18  1  0
 20 21  1  0
 21 22  2  0
 23 22  1  0
 24 25  1  0
 24 16  1  0
 26 24  2  0
M  END
$$$$
