EAF.pdb
     RDKit          3D

 26 26  0  0  1  0  0  0  0  0999 V2000
   25.2168  -20.5985  -15.1348 N   0  0  0  0  0  0  0  0  0  0  0  0
   25.6733  -19.9398  -13.9715 C   0  0  1  0  0  0  0  0  0  0  0  0
   24.5667  -19.4051  -13.1348 C   0  0  0  0  0  0  0  0  0  0  0  0
   23.4619  -18.8153  -13.9232 C   0  0  0  0  0  0  0  0  0  0  0  0
   22.6867  -19.6894  -14.8126 C   0  0  0  0  0  0  0  0  0  0  0  0
   22.1164  -20.7494  -14.4831 O   0  0  0  0  0  0  0  0  0  0  0  0
   26.5665  -20.8568  -13.1968 C   0  0  0  0  0  0  0  0  0  0  0  0
   26.3409  -22.0902  -13.1779 O   0  0  0  0  0  0  0  0  0  0  0  0
   22.5302  -19.3612  -16.1816 O   0  0  0  0  0  0  0  0  0  0  0  0
   29.8785  -20.8175  -11.6861 C   0  0  0  0  0  0  0  0  0  0  0  0
   28.4265  -21.2947  -11.6673 C   0  0  2  0  0  0  0  0  0  0  0  0
   27.6673  -20.3512  -12.4819 N   0  0  0  0  0  0  0  0  0  0  0  0
   27.9344  -21.3755  -10.2739 C   0  0  0  0  0  0  0  0  0  0  0  0
   28.6074  -21.8081   -9.3046 O   0  0  0  0  0  0  0  0  0  0  0  0
   26.6169  -20.9332  -10.0296 N   0  0  0  0  0  0  0  0  0  0  0  0
   26.0737  -20.8007   -8.6742 C   0  0  1  0  0  0  0  0  0  0  0  0
   26.6257  -19.4628   -8.1762 C   0  0  0  0  0  0  0  0  0  0  0  0
   27.3938  -19.6732   -6.9460 C   0  0  0  0  0  0  0  0  0  0  0  0
   27.2734  -20.7920   -6.1573 C   0  0  0  0  0  0  0  0  0  0  0  0
   28.0414  -20.9263   -5.0089 C   0  0  0  0  0  0  0  0  0  0  0  0
   28.9321  -19.9413   -4.6460 C   0  0  0  0  0  0  0  0  0  0  0  0
   29.0639  -18.8037   -5.4348 C   0  0  0  0  0  0  0  0  0  0  0  0
   28.2999  -18.6791   -6.5699 C   0  0  0  0  0  0  0  0  0  0  0  0
   24.6099  -20.8189   -8.7613 C   0  0  0  0  0  0  0  0  0  0  0  0
   23.8448  -21.1474   -7.6652 O   0  0  0  0  0  0  0  0  0  0  0  0
   24.0445  -20.5344   -9.8383 O   0  0  0  0  0  0  0  0  0  0  0  0
  2  1  1  6
  3  2  1  0
  4  3  1  0
  5  9  1  0
  5  4  1  0
  6  5  2  0
  7  8  2  0
  7  2  1  0
 11 10  1  1
 11 12  1  0
 12  7  1  0
 13 11  1  0
 14 13  2  0
 15 13  1  0
 16 15  1  0
 17 18  1  0
 16 17  1  6
 18 23  2  0
 19 20  2  0
 19 18  1  0
 20 21  1  0
 21 22  2  0
 23 22  1  0
 24 25  1  0
 24 16  1  0
 26 24  2  0
M  END
$$$$
