EAF.pdb
     RDKit          3D

 26 26  0  0  1  0  0  0  0  0999 V2000
   25.3908  -18.4076  -13.6989 N   0  0  0  0  0  0  0  0  0  0  0  0
   25.4431  -19.5773  -14.4894 C   0  0  1  0  0  0  0  0  0  0  0  0
   25.8376  -19.3093  -15.8976 C   0  0  0  0  0  0  0  0  0  0  0  0
   25.1571  -18.1355  -16.4886 C   0  0  0  0  0  0  0  0  0  0  0  0
   24.1080  -18.3606  -17.4909 C   0  0  0  0  0  0  0  0  0  0  0  0
   24.2847  -18.7657  -18.6580 O   0  0  0  0  0  0  0  0  0  0  0  0
   26.3430  -20.5798  -13.8382 C   0  0  0  0  0  0  0  0  0  0  0  0
   26.9435  -21.4338  -14.5329 O   0  0  0  0  0  0  0  0  0  0  0  0
   22.7493  -18.1167  -17.1732 O   0  0  0  0  0  0  0  0  0  0  0  0
   28.9086  -20.8261  -12.5461 C   0  0  0  0  0  0  0  0  0  0  0  0
   27.6298  -21.3759  -11.9145 C   0  0  2  0  0  0  0  0  0  0  0  0
   26.5277  -20.5790  -12.4438 N   0  0  0  0  0  0  0  0  0  0  0  0
   27.7240  -21.3167  -10.4387 C   0  0  0  0  0  0  0  0  0  0  0  0
   28.4794  -22.0416   -9.7434 O   0  0  0  0  0  0  0  0  0  0  0  0
   26.9040  -20.3771   -9.7783 N   0  0  0  0  0  0  0  0  0  0  0  0
   26.3007  -20.6471   -8.4696 C   0  0  1  0  0  0  0  0  0  0  0  0
   26.4982  -19.3461   -7.6881 C   0  0  0  0  0  0  0  0  0  0  0  0
   27.5202  -19.5408   -6.6559 C   0  0  0  0  0  0  0  0  0  0  0  0
   27.8828  -20.7736   -6.1691 C   0  0  0  0  0  0  0  0  0  0  0  0
   28.8669  -20.8815   -5.1962 C   0  0  0  0  0  0  0  0  0  0  0  0
   29.4909  -19.7561   -4.7071 C   0  0  0  0  0  0  0  0  0  0  0  0
   29.1335  -18.5022   -5.1906 C   0  0  0  0  0  0  0  0  0  0  0  0
   28.1586  -18.4047   -6.1538 C   0  0  0  0  0  0  0  0  0  0  0  0
   24.8878  -20.9826   -8.6747 C   0  0  0  0  0  0  0  0  0  0  0  0
   24.2010  -20.4962   -9.7639 O   0  0  0  0  0  0  0  0  0  0  0  0
   24.2949  -21.7171   -7.8564 O   0  0  0  0  0  0  0  0  0  0  0  0
  2  1  1  1
  3  2  1  0
  4  3  1  0
  5  9  1  0
  5  4  1  0
  6  5  2  0
  7  8  2  0
  7  2  1  0
 11 10  1  6
 11 12  1  0
 12  7  1  0
 13 11  1  0
 14 13  2  0
 15 13  1  0
 16 15  1  0
 17 18  1  0
 16 17  1  1
 18 23  2  0
 19 20  2  0
 19 18  1  0
 20 21  1  0
 21 22  2  0
 23 22  1  0
 24 25  1  0
 24 16  1  0
 26 24  2  0
M  END
$$$$
