EAF.pdb
     RDKit          3D

 26 26  0  0  1  0  0  0  0  0999 V2000
   38.8341   -6.4077   -9.6043 N   0  0  0  0  0  0  0  0  0  0  0  0
   39.0729   -5.0863   -9.1654 C   0  0  1  0  0  0  0  0  0  0  0  0
   38.0054   -4.1363   -9.5757 C   0  0  0  0  0  0  0  0  0  0  0  0
   37.9027   -3.9603  -11.0415 C   0  0  0  0  0  0  0  0  0  0  0  0
   36.7922   -3.1642  -11.5790 C   0  0  0  0  0  0  0  0  0  0  0  0
   36.8638   -1.9850  -11.9814 O   0  0  0  0  0  0  0  0  0  0  0  0
   39.2845   -5.0831   -7.6841 C   0  0  0  0  0  0  0  0  0  0  0  0
   38.5931   -5.8249   -6.9463 O   0  0  0  0  0  0  0  0  0  0  0  0
   35.4938   -3.7214  -11.6793 O   0  0  0  0  0  0  0  0  0  0  0  0
   41.7308   -3.7182   -5.2879 C   0  0  0  0  0  0  0  0  0  0  0  0
   40.3377   -4.2374   -5.6431 C   0  0  2  0  0  0  0  0  0  0  0  0
   40.2575   -4.2520   -7.1002 N   0  0  0  0  0  0  0  0  0  0  0  0
   39.3015   -3.3842   -5.0196 C   0  0  0  0  0  0  0  0  0  0  0  0
   38.7058   -2.4445   -5.6043 O   0  0  0  0  0  0  0  0  0  0  0  0
   38.9680   -3.6546   -3.6754 N   0  0  0  0  0  0  0  0  0  0  0  0
   38.0041   -2.8405   -2.9285 C   0  0  1  0  0  0  0  0  0  0  0  0
   37.2658   -3.8478   -2.0439 C   0  0  0  0  0  0  0  0  0  0  0  0
   36.3110   -3.1428   -1.1842 C   0  0  0  0  0  0  0  0  0  0  0  0
   35.0695   -2.7314   -1.6056 C   0  0  0  0  0  0  0  0  0  0  0  0
   34.2139   -2.0756   -0.7312 C   0  0  0  0  0  0  0  0  0  0  0  0
   34.5981   -1.8292    0.5676 C   0  0  0  0  0  0  0  0  0  0  0  0
   35.8518   -2.2398    1.0073 C   0  0  0  0  0  0  0  0  0  0  0  0
   36.6923   -2.8885    0.1351 C   0  0  0  0  0  0  0  0  0  0  0  0
   38.7476   -1.8388   -2.1574 C   0  0  0  0  0  0  0  0  0  0  0  0
   38.2155   -0.5898   -1.9304 O   0  0  0  0  0  0  0  0  0  0  0  0
   39.8763   -2.1150   -1.6988 O   0  0  0  0  0  0  0  0  0  0  0  0
  2  1  1  1
  3  2  1  0
  4  3  1  0
  5  9  1  0
  5  4  1  0
  6  5  2  0
  7  8  2  0
  7  2  1  0
 11 10  1  6
 11 12  1  0
 12  7  1  0
 13 11  1  0
 14 13  2  0
 15 13  1  0
 16 15  1  0
 17 18  1  0
 16 17  1  1
 18 23  2  0
 19 20  2  0
 19 18  1  0
 20 21  1  0
 21 22  2  0
 23 22  1  0
 24 25  1  0
 24 16  1  0
 26 24  2  0
M  END
$$$$
