EAF.pdb
     RDKit          3D

 26 26  0  0  1  0  0  0  0  0999 V2000
   28.8560  -23.0567  -17.6793 N   0  0  0  0  0  0  0  0  0  0  0  0
   28.5068  -21.6924  -17.5675 C   0  0  1  0  0  0  0  0  0  0  0  0
   27.3630  -21.3126  -18.4382 C   0  0  0  0  0  0  0  0  0  0  0  0
   26.1507  -22.1304  -18.2112 C   0  0  0  0  0  0  0  0  0  0  0  0
   25.0905  -21.5937  -17.3487 C   0  0  0  0  0  0  0  0  0  0  0  0
   24.5044  -20.5025  -17.5012 O   0  0  0  0  0  0  0  0  0  0  0  0
   28.2507  -21.3590  -16.1316 C   0  0  0  0  0  0  0  0  0  0  0  0
   28.3152  -22.2533  -15.2548 O   0  0  0  0  0  0  0  0  0  0  0  0
   24.6422  -22.3276  -16.2232 O   0  0  0  0  0  0  0  0  0  0  0  0
   27.6902  -18.2669  -14.1572 C   0  0  0  0  0  0  0  0  0  0  0  0
   27.7795  -19.7844  -14.3180 C   0  0  2  0  0  0  0  0  0  0  0  0
   27.9355  -20.0436  -15.7457 N   0  0  0  0  0  0  0  0  0  0  0  0
   26.5768  -20.4293  -13.7454 C   0  0  0  0  0  0  0  0  0  0  0  0
   25.5355  -20.6992  -14.3952 O   0  0  0  0  0  0  0  0  0  0  0  0
   26.6144  -20.7593  -12.3739 N   0  0  0  0  0  0  0  0  0  0  0  0
   25.4811  -21.3879  -11.6882 C   0  0  1  0  0  0  0  0  0  0  0  0
   26.1161  -22.1171  -10.5018 C   0  0  0  0  0  0  0  0  0  0  0  0
   26.6182  -21.1390   -9.5328 C   0  0  0  0  0  0  0  0  0  0  0  0
   25.8034  -20.3867   -8.7213 C   0  0  0  0  0  0  0  0  0  0  0  0
   26.3515  -19.4848   -7.8197 C   0  0  0  0  0  0  0  0  0  0  0  0
   27.7166  -19.3327   -7.7276 C   0  0  0  0  0  0  0  0  0  0  0  0
   28.5529  -20.0874   -8.5430 C   0  0  0  0  0  0  0  0  0  0  0  0
   28.0018  -20.9779   -9.4324 C   0  0  0  0  0  0  0  0  0  0  0  0
   24.5483  -20.3329  -11.2788 C   0  0  0  0  0  0  0  0  0  0  0  0
   23.2400  -20.6317  -10.9727 O   0  0  0  0  0  0  0  0  0  0  0  0
   24.9382  -19.1484  -11.2049 O   0  0  0  0  0  0  0  0  0  0  0  0
  2  1  1  1
  3  2  1  0
  4  3  1  0
  5  9  1  0
  5  4  1  0
  6  5  2  0
  7  8  2  0
  7  2  1  0
 11 10  1  6
 11 12  1  0
 12  7  1  0
 13 11  1  0
 14 13  2  0
 15 13  1  0
 16 15  1  0
 17 18  1  0
 16 17  1  1
 18 23  2  0
 19 20  2  0
 19 18  1  0
 20 21  1  0
 21 22  2  0
 23 22  1  0
 24 25  1  0
 24 16  1  0
 26 24  2  0
M  END
$$$$
