EAF.pdb
     RDKit          3D

 26 26  0  0  1  0  0  0  0  0999 V2000
   24.3130  -14.3018  -18.1772 N   0  0  0  0  0  0  0  0  0  0  0  0
   23.8243  -12.9776  -18.1180 C   0  0  1  0  0  0  0  0  0  0  0  0
   22.3612  -12.9095  -17.8629 C   0  0  0  0  0  0  0  0  0  0  0  0
   21.8287  -11.5289  -17.8426 C   0  0  0  0  0  0  0  0  0  0  0  0
   20.9299  -11.1369  -16.7498 C   0  0  0  0  0  0  0  0  0  0  0  0
   21.2371  -10.4347  -15.7648 O   0  0  0  0  0  0  0  0  0  0  0  0
   24.6050  -12.2026  -17.1038 C   0  0  0  0  0  0  0  0  0  0  0  0
   25.1173  -12.7877  -16.1200 O   0  0  0  0  0  0  0  0  0  0  0  0
   19.5774  -11.5578  -16.7484 O   0  0  0  0  0  0  0  0  0  0  0  0
   27.0044  -10.8772  -16.3632 C   0  0  0  0  0  0  0  0  0  0  0  0
   25.6611  -10.1518  -16.2855 C   0  0  2  0  0  0  0  0  0  0  0  0
   24.7750  -10.8128  -17.2383 N   0  0  0  0  0  0  0  0  0  0  0  0
   25.8422   -8.7115  -16.5737 C   0  0  0  0  0  0  0  0  0  0  0  0
   26.7217   -7.9846  -16.0469 O   0  0  0  0  0  0  0  0  0  0  0  0
   24.9600   -8.1256  -17.5063 N   0  0  0  0  0  0  0  0  0  0  0  0
   23.9384   -7.1504  -17.1124 C   0  0  1  0  0  0  0  0  0  0  0  0
   23.4999   -7.6062  -15.7187 C   0  0  0  0  0  0  0  0  0  0  0  0
   22.4182   -6.7438  -15.2351 C   0  0  0  0  0  0  0  0  0  0  0  0
   21.0882   -6.9803  -15.4866 C   0  0  0  0  0  0  0  0  0  0  0  0
   20.1170   -6.1232  -14.9877 C   0  0  0  0  0  0  0  0  0  0  0  0
   20.4738   -5.0266  -14.2358 C   0  0  0  0  0  0  0  0  0  0  0  0
   21.8162   -4.7752  -13.9738 C   0  0  0  0  0  0  0  0  0  0  0  0
   22.7708   -5.6289  -14.4714 C   0  0  0  0  0  0  0  0  0  0  0  0
   24.5503   -5.8177  -17.1125 C   0  0  0  0  0  0  0  0  0  0  0  0
   25.6743   -5.5605  -16.3607 O   0  0  0  0  0  0  0  0  0  0  0  0
   24.0516   -4.9012  -17.7995 O   0  0  0  0  0  0  0  0  0  0  0  0
  2  1  1  1
  3  2  1  0
  4  3  1  0
  5  9  1  0
  5  4  1  0
  6  5  2  0
  7  8  2  0
  7  2  1  0
 11 10  1  6
 11 12  1  0
 12  7  1  0
 13 11  1  0
 14 13  2  0
 15 13  1  0
 16 15  1  0
 17 18  1  0
 16 17  1  1
 18 23  2  0
 19 20  2  0
 19 18  1  0
 20 21  1  0
 21 22  2  0
 23 22  1  0
 24 25  1  0
 24 16  1  0
 26 24  2  0
M  END
$$$$
