EAF.pdb
     RDKit          3D

 26 26  0  0  1  0  0  0  0  0999 V2000
   27.8224  -20.9801  -17.6929 N   0  0  0  0  0  0  0  0  0  0  0  0
   26.8779  -20.3882  -16.8250 C   0  0  1  0  0  0  0  0  0  0  0  0
   25.5001  -20.3814  -17.3837 C   0  0  0  0  0  0  0  0  0  0  0  0
   25.3969  -19.6992  -18.6928 C   0  0  0  0  0  0  0  0  0  0  0  0
   25.1454  -20.5095  -19.8912 C   0  0  0  0  0  0  0  0  0  0  0  0
   25.7902  -20.4585  -20.9585 O   0  0  0  0  0  0  0  0  0  0  0  0
   26.9362  -21.0617  -15.4901 C   0  0  0  0  0  0  0  0  0  0  0  0
   27.0692  -22.3065  -15.4166 O   0  0  0  0  0  0  0  0  0  0  0  0
   24.0915  -21.4557  -19.9082 O   0  0  0  0  0  0  0  0  0  0  0  0
   27.7141  -20.2076  -12.0741 C   0  0  0  0  0  0  0  0  0  0  0  0
   26.8816  -21.0467  -13.0432 C   0  0  2  0  0  0  0  0  0  0  0  0
   26.8432  -20.3120  -14.3036 N   0  0  0  0  0  0  0  0  0  0  0  0
   25.5350  -21.2903  -12.4795 C   0  0  0  0  0  0  0  0  0  0  0  0
   25.3144  -21.8720  -11.3875 O   0  0  0  0  0  0  0  0  0  0  0  0
   24.4306  -20.8328  -13.2293 N   0  0  0  0  0  0  0  0  0  0  0  0
   23.0480  -21.0083  -12.7741 C   0  0  1  0  0  0  0  0  0  0  0  0
   22.5257  -19.5807  -12.5966 C   0  0  0  0  0  0  0  0  0  0  0  0
   22.5259  -18.8908  -13.8896 C   0  0  0  0  0  0  0  0  0  0  0  0
   23.6430  -18.3106  -14.4406 C   0  0  0  0  0  0  0  0  0  0  0  0
   23.5693  -17.6810  -15.6755 C   0  0  0  0  0  0  0  0  0  0  0  0
   22.3775  -17.6299  -16.3626 C   0  0  0  0  0  0  0  0  0  0  0  0
   21.2392  -18.2127  -15.8165 C   0  0  0  0  0  0  0  0  0  0  0  0
   21.3212  -18.8340  -14.5938 C   0  0  0  0  0  0  0  0  0  0  0  0
   22.3182  -21.7613  -13.7994 C   0  0  0  0  0  0  0  0  0  0  0  0
   22.9458  -22.1619  -14.9571 O   0  0  0  0  0  0  0  0  0  0  0  0
   21.1140  -22.0457  -13.6270 O   0  0  0  0  0  0  0  0  0  0  0  0
  2  1  1  6
  3  2  1  0
  4  3  1  0
  5  9  1  0
  5  4  1  0
  6  5  2  0
  7  8  2  0
  7  2  1  0
 11 10  1  1
 11 12  1  0
 12  7  1  0
 13 11  1  0
 14 13  2  0
 15 13  1  0
 16 15  1  0
 17 18  1  0
 16 17  1  6
 18 23  2  0
 19 20  2  0
 19 18  1  0
 20 21  1  0
 21 22  2  0
 23 22  1  0
 24 25  1  0
 24 16  1  0
 26 24  2  0
M  END
$$$$
