EAF.pdb
     RDKit          3D

 26 26  0  0  1  0  0  0  0  0999 V2000
   25.8969  -20.8926  -15.8364 N   0  0  0  0  0  0  0  0  0  0  0  0
   26.0222  -21.7475  -14.7187 C   0  0  1  0  0  0  0  0  0  0  0  0
   27.3096  -22.4910  -14.6978 C   0  0  0  0  0  0  0  0  0  0  0  0
   27.3211  -23.6773  -15.5825 C   0  0  0  0  0  0  0  0  0  0  0  0
   26.1667  -24.5843  -15.5592 C   0  0  0  0  0  0  0  0  0  0  0  0
   25.3714  -24.7821  -16.5004 O   0  0  0  0  0  0  0  0  0  0  0  0
   25.8105  -20.9617  -13.4632 C   0  0  0  0  0  0  0  0  0  0  0  0
   26.6625  -20.1184  -13.0952 O   0  0  0  0  0  0  0  0  0  0  0  0
   25.8689  -25.3353  -14.3957 O   0  0  0  0  0  0  0  0  0  0  0  0
   23.0781  -20.4057  -11.0434 C   0  0  0  0  0  0  0  0  0  0  0  0
   24.5539  -20.3931  -11.4412 C   0  0  2  0  0  0  0  0  0  0  0  0
   24.6579  -21.1564  -12.6807 N   0  0  0  0  0  0  0  0  0  0  0  0
   25.3808  -20.9550  -10.3499 C   0  0  0  0  0  0  0  0  0  0  0  0
   25.7248  -22.1609  -10.2653 O   0  0  0  0  0  0  0  0  0  0  0  0
   25.8062  -20.0652   -9.3408 N   0  0  0  0  0  0  0  0  0  0  0  0
   26.5206  -20.5213   -8.1444 C   0  0  1  0  0  0  0  0  0  0  0  0
   27.4851  -19.3774   -7.8225 C   0  0  0  0  0  0  0  0  0  0  0  0
   28.0854  -19.5947   -6.5033 C   0  0  0  0  0  0  0  0  0  0  0  0
   27.7188  -18.8968   -5.3778 C   0  0  0  0  0  0  0  0  0  0  0  0
   28.3264  -19.1634   -4.1586 C   0  0  0  0  0  0  0  0  0  0  0  0
   29.3028  -20.1290   -4.0619 C   0  0  0  0  0  0  0  0  0  0  0  0
   29.6837  -20.8426   -5.1930 C   0  0  0  0  0  0  0  0  0  0  0  0
   29.0769  -20.5724   -6.3958 C   0  0  0  0  0  0  0  0  0  0  0  0
   25.5367  -20.7562   -7.0826 C   0  0  0  0  0  0  0  0  0  0  0  0
   25.8056  -21.6340   -6.0570 O   0  0  0  0  0  0  0  0  0  0  0  0
   24.4408  -20.1568   -7.1025 O   0  0  0  0  0  0  0  0  0  0  0  0
  2  1  1  6
  3  2  1  0
  4  3  1  0
  5  9  1  0
  5  4  1  0
  6  5  2  0
  7  8  2  0
  7  2  1  0
 11 10  1  1
 11 12  1  0
 12  7  1  0
 13 11  1  0
 14 13  2  0
 15 13  1  0
 16 15  1  0
 17 18  1  0
 16 17  1  1
 18 23  2  0
 19 20  2  0
 19 18  1  0
 20 21  1  0
 21 22  2  0
 23 22  1  0
 24 25  1  0
 24 16  1  0
 26 24  2  0
M  END
$$$$
