EAF.pdb
     RDKit          3D

 26 26  0  0  1  0  0  0  0  0999 V2000
   22.3478  -16.8049  -14.8172 N   0  0  0  0  0  0  0  0  0  0  0  0
   22.5744  -17.2182  -16.1490 C   0  0  1  0  0  0  0  0  0  0  0  0
   22.1185  -16.2201  -17.1522 C   0  0  0  0  0  0  0  0  0  0  0  0
   20.8327  -15.5761  -16.8028 C   0  0  0  0  0  0  0  0  0  0  0  0
   19.5919  -16.3423  -16.9746 C   0  0  0  0  0  0  0  0  0  0  0  0
   19.1590  -17.2189  -16.1991 O   0  0  0  0  0  0  0  0  0  0  0  0
   24.0189  -17.5669  -16.3243 C   0  0  0  0  0  0  0  0  0  0  0  0
   24.4406  -17.9694  -17.4345 O   0  0  0  0  0  0  0  0  0  0  0  0
   18.7613  -16.1179  -18.0998 O   0  0  0  0  0  0  0  0  0  0  0  0
   27.1839  -16.8210  -14.7782 C   0  0  0  0  0  0  0  0  0  0  0  0
   26.3040  -17.8462  -15.4932 C   0  0  2  0  0  0  0  0  0  0  0  0
   24.9207  -17.4489  -15.2513 N   0  0  0  0  0  0  0  0  0  0  0  0
   26.6047  -19.2086  -14.9995 C   0  0  0  0  0  0  0  0  0  0  0  0
   27.6874  -19.8153  -15.1974 O   0  0  0  0  0  0  0  0  0  0  0  0
   25.5979  -19.8610  -14.2565 N   0  0  0  0  0  0  0  0  0  0  0  0
   25.7605  -21.2263  -13.7473 C   0  0  1  0  0  0  0  0  0  0  0  0
   25.6430  -21.0784  -12.2285 C   0  0  0  0  0  0  0  0  0  0  0  0
   26.9697  -20.8444  -11.6514 C   0  0  0  0  0  0  0  0  0  0  0  0
   28.1028  -21.5063  -12.0591 C   0  0  0  0  0  0  0  0  0  0  0  0
   29.3286  -21.2254  -11.4715 C   0  0  0  0  0  0  0  0  0  0  0  0
   29.4242  -20.2817  -10.4739 C   0  0  0  0  0  0  0  0  0  0  0  0
   28.2854  -19.6045  -10.0514 C   0  0  0  0  0  0  0  0  0  0  0  0
   27.0762  -19.8886  -10.6387 C   0  0  0  0  0  0  0  0  0  0  0  0
   24.7024  -22.0616  -14.3245 C   0  0  0  0  0  0  0  0  0  0  0  0
   24.7034  -23.4254  -14.1380 O   0  0  0  0  0  0  0  0  0  0  0  0
   23.7872  -21.5369  -14.9937 O   0  0  0  0  0  0  0  0  0  0  0  0
  2  1  1  1
  3  2  1  0
  4  3  1  0
  5  9  1  0
  5  4  1  0
  6  5  2  0
  7  8  2  0
  7  2  1  0
 11 10  1  1
 11 12  1  0
 12  7  1  0
 13 11  1  0
 14 13  2  0
 15 13  1  0
 16 15  1  0
 17 18  1  0
 16 17  1  1
 18 23  2  0
 19 20  2  0
 19 18  1  0
 20 21  1  0
 21 22  2  0
 23 22  1  0
 24 25  1  0
 24 16  1  0
 26 24  2  0
M  END
$$$$
