EAF.pdb
     RDKit          3D

 26 26  0  0  1  0  0  0  0  0999 V2000
   21.4778  -20.6713  -15.8246 N   0  0  0  0  0  0  0  0  0  0  0  0
   21.4753  -20.8833  -14.4279 C   0  0  1  0  0  0  0  0  0  0  0  0
   20.3484  -21.7398  -13.9726 C   0  0  0  0  0  0  0  0  0  0  0  0
   19.1660  -20.9712  -13.5243 C   0  0  0  0  0  0  0  0  0  0  0  0
   19.1515  -20.4350  -12.1575 C   0  0  0  0  0  0  0  0  0  0  0  0
   18.8623  -19.2652  -11.8325 O   0  0  0  0  0  0  0  0  0  0  0  0
   22.8011  -21.4326  -14.0042 C   0  0  0  0  0  0  0  0  0  0  0  0
   23.2509  -22.4757  -14.5354 O   0  0  0  0  0  0  0  0  0  0  0  0
   19.4851  -21.2644  -11.0588 O   0  0  0  0  0  0  0  0  0  0  0  0
   25.7003  -21.0220  -14.0575 C   0  0  0  0  0  0  0  0  0  0  0  0
   24.9119  -21.2838  -12.7744 C   0  0  2  0  0  0  0  0  0  0  0  0
   23.5588  -20.7898  -13.0086 N   0  0  0  0  0  0  0  0  0  0  0  0
   25.5732  -20.6243  -11.6263 C   0  0  0  0  0  0  0  0  0  0  0  0
   25.0669  -19.6927  -10.9515 O   0  0  0  0  0  0  0  0  0  0  0  0
   26.8609  -21.0821  -11.2749 N   0  0  0  0  0  0  0  0  0  0  0  0
   27.6094  -20.5236  -10.1446 C   0  0  1  0  0  0  0  0  0  0  0  0
   26.8253  -20.9791   -8.9117 C   0  0  0  0  0  0  0  0  0  0  0  0
   27.4829  -20.4853   -7.6986 C   0  0  0  0  0  0  0  0  0  0  0  0
   28.5566  -21.1084   -7.1094 C   0  0  0  0  0  0  0  0  0  0  0  0
   29.1342  -20.5768   -5.9646 C   0  0  0  0  0  0  0  0  0  0  0  0
   28.6389  -19.4203   -5.4057 C   0  0  0  0  0  0  0  0  0  0  0  0
   27.5526  -18.7795   -5.9915 C   0  0  0  0  0  0  0  0  0  0  0  0
   26.9872  -19.3125   -7.1246 C   0  0  0  0  0  0  0  0  0  0  0  0
   28.9735  -21.0604  -10.1859 C   0  0  0  0  0  0  0  0  0  0  0  0
   30.0471  -20.2799   -9.8214 O   0  0  0  0  0  0  0  0  0  0  0  0
   29.1708  -22.2375  -10.5546 O   0  0  0  0  0  0  0  0  0  0  0  0
  2  1  1  6
  3  2  1  0
  4  3  1  0
  5  9  1  0
  5  4  1  0
  6  5  2  0
  7  8  2  0
  7  2  1  0
 11 10  1  6
 11 12  1  0
 12  7  1  0
 13 11  1  0
 14 13  2  0
 15 13  1  0
 16 15  1  0
 17 18  1  0
 16 17  1  1
 18 23  2  0
 19 20  2  0
 19 18  1  0
 20 21  1  0
 21 22  2  0
 23 22  1  0
 24 25  1  0
 24 16  1  0
 26 24  2  0
M  END
$$$$
