EAF.pdb
     RDKit          3D

 26 26  0  0  1  0  0  0  0  0999 V2000
   23.4632  -13.3095  -19.5843 N   0  0  0  0  0  0  0  0  0  0  0  0
   24.5965  -12.5293  -19.2640 C   0  0  1  0  0  0  0  0  0  0  0  0
   25.0236  -11.6412  -20.3772 C   0  0  0  0  0  0  0  0  0  0  0  0
   24.3756  -11.9598  -21.6690 C   0  0  0  0  0  0  0  0  0  0  0  0
   25.1788  -12.5930  -22.7225 C   0  0  0  0  0  0  0  0  0  0  0  0
   26.1542  -13.3509  -22.5442 O   0  0  0  0  0  0  0  0  0  0  0  0
   24.3347  -11.7621  -18.0063 C   0  0  0  0  0  0  0  0  0  0  0  0
   23.1576  -11.5180  -17.6494 O   0  0  0  0  0  0  0  0  0  0  0  0
   24.8758  -12.3677  -24.0876 O   0  0  0  0  0  0  0  0  0  0  0  0
   26.3061  -10.5350  -15.1297 C   0  0  0  0  0  0  0  0  0  0  0  0
   25.0616  -10.5350  -16.0173 C   0  0  2  0  0  0  0  0  0  0  0  0
   25.4002  -11.3056  -17.2095 N   0  0  0  0  0  0  0  0  0  0  0  0
   24.6568   -9.1456  -16.3275 C   0  0  0  0  0  0  0  0  0  0  0  0
   25.2881   -8.3735  -17.0921 O   0  0  0  0  0  0  0  0  0  0  0  0
   23.4785   -8.6666  -15.7163 N   0  0  0  0  0  0  0  0  0  0  0  0
   22.9119   -7.3515  -16.0310 C   0  0  1  0  0  0  0  0  0  0  0  0
   22.2112   -7.5553  -17.3763 C   0  0  0  0  0  0  0  0  0  0  0  0
   21.0119   -8.3766  -17.1886 C   0  0  0  0  0  0  0  0  0  0  0  0
   19.8226   -7.8851  -16.7068 C   0  0  0  0  0  0  0  0  0  0  0  0
   18.7245   -8.7221  -16.5638 C   0  0  0  0  0  0  0  0  0  0  0  0
   18.8134  -10.0536  -16.9022 C   0  0  0  0  0  0  0  0  0  0  0  0
   20.0110  -10.5643  -17.3908 C   0  0  0  0  0  0  0  0  0  0  0  0
   21.0928   -9.7286  -17.5293 C   0  0  0  0  0  0  0  0  0  0  0  0
   21.9876   -6.9793  -14.9549 C   0  0  0  0  0  0  0  0  0  0  0  0
   21.3985   -5.7354  -14.9335 O   0  0  0  0  0  0  0  0  0  0  0  0
   21.7275   -7.7946  -14.0449 O   0  0  0  0  0  0  0  0  0  0  0  0
  2  1  1  6
  3  2  1  0
  4  3  1  0
  5  9  1  0
  5  4  1  0
  6  5  2  0
  7  8  2  0
  7  2  1  0
 11 10  1  1
 11 12  1  0
 12  7  1  0
 13 11  1  0
 14 13  2  0
 15 13  1  0
 16 15  1  0
 17 18  1  0
 16 17  1  6
 18 23  2  0
 19 20  2  0
 19 18  1  0
 20 21  1  0
 21 22  2  0
 23 22  1  0
 24 25  1  0
 24 16  1  0
 26 24  2  0
M  END
$$$$
