EAF.pdb
     RDKit          3D

 26 26  0  0  1  0  0  0  0  0999 V2000
   23.1368  -22.4156  -15.1409 N   0  0  0  0  0  0  0  0  0  0  0  0
   23.5736  -21.1932  -14.5837 C   0  0  1  0  0  0  0  0  0  0  0  0
   22.4978  -20.4691  -13.8566 C   0  0  0  0  0  0  0  0  0  0  0  0
   21.1345  -20.8365  -14.2999 C   0  0  0  0  0  0  0  0  0  0  0  0
   20.1674  -21.2965  -13.2954 C   0  0  0  0  0  0  0  0  0  0  0  0
   18.9672  -21.5675  -13.5042 O   0  0  0  0  0  0  0  0  0  0  0  0
   24.7672  -21.4389  -13.7154 C   0  0  0  0  0  0  0  0  0  0  0  0
   24.8852  -22.5235  -13.0971 O   0  0  0  0  0  0  0  0  0  0  0  0
   20.5635  -21.4710  -11.9467 O   0  0  0  0  0  0  0  0  0  0  0  0
   27.8987  -19.6499  -12.8398 C   0  0  0  0  0  0  0  0  0  0  0  0
   26.8325  -20.7219  -12.6150 C   0  0  2  0  0  0  0  0  0  0  0  0
   25.7697  -20.4614  -13.5806 N   0  0  0  0  0  0  0  0  0  0  0  0
   26.3575  -20.6826  -11.2139 C   0  0  0  0  0  0  0  0  0  0  0  0
   25.2483  -20.2167  -10.8505 O   0  0  0  0  0  0  0  0  0  0  0  0
   27.2187  -21.2077  -10.2271 N   0  0  0  0  0  0  0  0  0  0  0  0
   26.9486  -21.0614   -8.7934 C   0  0  1  0  0  0  0  0  0  0  0  0
   28.3361  -21.0535   -8.1475 C   0  0  0  0  0  0  0  0  0  0  0  0
   28.2338  -20.5802   -6.7643 C   0  0  0  0  0  0  0  0  0  0  0  0
   27.5101  -21.2272   -5.7918 C   0  0  0  0  0  0  0  0  0  0  0  0
   27.4661  -20.7239   -4.4989 C   0  0  0  0  0  0  0  0  0  0  0  0
   28.1459  -19.5713   -4.1754 C   0  0  0  0  0  0  0  0  0  0  0  0
   28.8820  -18.9062   -5.1499 C   0  0  0  0  0  0  0  0  0  0  0  0
   28.9202  -19.4117   -6.4270 C   0  0  0  0  0  0  0  0  0  0  0  0
   26.2150  -19.8081   -8.5890 C   0  0  0  0  0  0  0  0  0  0  0  0
   26.7597  -18.6042   -8.9746 O   0  0  0  0  0  0  0  0  0  0  0  0
   25.0835  -19.8256   -8.0599 O   0  0  0  0  0  0  0  0  0  0  0  0
  2  1  1  1
  3  2  1  0
  4  3  1  0
  5  9  1  0
  5  4  1  0
  6  5  2  0
  7  8  2  0
  7  2  1  0
 11 10  1  1
 11 12  1  0
 12  7  1  0
 13 11  1  0
 14 13  2  0
 15 13  1  0
 16 15  1  0
 17 18  1  0
 16 17  1  1
 18 23  2  0
 19 20  2  0
 19 18  1  0
 20 21  1  0
 21 22  2  0
 23 22  1  0
 24 25  1  0
 24 16  1  0
 26 24  2  0
M  END
$$$$
