EAF.pdb
     RDKit          3D

 26 26  0  0  1  0  0  0  0  0999 V2000
   25.0509  -21.9495  -13.9471 N   0  0  0  0  0  0  0  0  0  0  0  0
   25.8814  -20.8087  -13.8789 C   0  0  1  0  0  0  0  0  0  0  0  0
   25.5023  -19.7551  -14.8570 C   0  0  0  0  0  0  0  0  0  0  0  0
   24.0771  -19.3640  -14.7813 C   0  0  0  0  0  0  0  0  0  0  0  0
   23.0772  -20.2163  -15.4368 C   0  0  0  0  0  0  0  0  0  0  0  0
   22.0557  -20.6921  -14.9006 O   0  0  0  0  0  0  0  0  0  0  0  0
   25.9000  -20.2882  -12.4762 C   0  0  0  0  0  0  0  0  0  0  0  0
   26.6469  -19.3289  -12.1689 O   0  0  0  0  0  0  0  0  0  0  0  0
   23.2212  -20.5707  -16.8006 O   0  0  0  0  0  0  0  0  0  0  0  0
   23.7481  -20.2754   -9.5864 C   0  0  0  0  0  0  0  0  0  0  0  0
   25.1728  -20.3100  -10.1392 C   0  0  2  0  0  0  0  0  0  0  0  0
   25.0837  -20.8646  -11.4862 N   0  0  0  0  0  0  0  0  0  0  0  0
   26.0463  -21.1053   -9.2477 C   0  0  0  0  0  0  0  0  0  0  0  0
   26.3093  -22.3235   -9.4094 O   0  0  0  0  0  0  0  0  0  0  0  0
   26.6175  -20.4379   -8.1432 N   0  0  0  0  0  0  0  0  0  0  0  0
   27.4451  -21.1315   -7.1514 C   0  0  1  0  0  0  0  0  0  0  0  0
   28.7792  -20.3821   -7.1837 C   0  0  0  0  0  0  0  0  0  0  0  0
   28.9074  -19.5509   -5.9835 C   0  0  0  0  0  0  0  0  0  0  0  0
   28.4115  -18.2730   -5.8881 C   0  0  0  0  0  0  0  0  0  0  0  0
   28.5632  -17.5478   -4.7143 C   0  0  0  0  0  0  0  0  0  0  0  0
   29.2119  -18.0990   -3.6325 C   0  0  0  0  0  0  0  0  0  0  0  0
   29.7190  -19.3912   -3.7153 C   0  0  0  0  0  0  0  0  0  0  0  0
   29.5641  -20.1020   -4.8809 C   0  0  0  0  0  0  0  0  0  0  0  0
   26.7725  -21.0469   -5.8509 C   0  0  0  0  0  0  0  0  0  0  0  0
   27.1550  -21.8594   -4.8078 O   0  0  0  0  0  0  0  0  0  0  0  0
   25.8418  -20.2311   -5.6808 O   0  0  0  0  0  0  0  0  0  0  0  0
  2  1  1  1
  3  2  1  0
  4  3  1  0
  5  9  1  0
  5  4  1  0
  6  5  2  0
  7  8  2  0
  7  2  1  0
 11 10  1  1
 11 12  1  0
 12  7  1  0
 13 11  1  0
 14 13  2  0
 15 13  1  0
 16 15  1  0
 17 18  1  0
 16 17  1  1
 18 23  2  0
 19 20  2  0
 19 18  1  0
 20 21  1  0
 21 22  2  0
 23 22  1  0
 24 25  1  0
 24 16  1  0
 26 24  2  0
M  END
$$$$
