EAF.pdb
     RDKit          3D

 26 26  0  0  1  0  0  0  0  0999 V2000
   26.1952  -11.8391  -22.9547 N   0  0  0  0  0  0  0  0  0  0  0  0
   24.9566  -11.4302  -22.4121 C   0  0  1  0  0  0  0  0  0  0  0  0
   24.2608  -12.5151  -21.6708 C   0  0  0  0  0  0  0  0  0  0  0  0
   23.4955  -13.4314  -22.5452 C   0  0  0  0  0  0  0  0  0  0  0  0
   22.7886  -14.5630  -21.9324 C   0  0  0  0  0  0  0  0  0  0  0  0
   22.0556  -14.5094  -20.9237 O   0  0  0  0  0  0  0  0  0  0  0  0
   25.1606  -10.2152  -21.5630 C   0  0  0  0  0  0  0  0  0  0  0  0
   26.1701   -9.4904  -21.7306 O   0  0  0  0  0  0  0  0  0  0  0  0
   22.9033  -15.8628  -22.4834 O   0  0  0  0  0  0  0  0  0  0  0  0
   24.4556   -7.5069  -20.8931 C   0  0  0  0  0  0  0  0  0  0  0  0
   24.4503   -8.6212  -19.8468 C   0  0  2  0  0  0  0  0  0  0  0  0
   24.2273   -9.8697  -20.5689 N   0  0  0  0  0  0  0  0  0  0  0  0
   23.4132   -8.3560  -18.8249 C   0  0  0  0  0  0  0  0  0  0  0  0
   22.1861   -8.5787  -18.9806 O   0  0  0  0  0  0  0  0  0  0  0  0
   23.8446   -7.8158  -17.5947 N   0  0  0  0  0  0  0  0  0  0  0  0
   22.9273   -7.5908  -16.4733 C   0  0  1  0  0  0  0  0  0  0  0  0
   23.8012   -7.7707  -15.2298 C   0  0  0  0  0  0  0  0  0  0  0  0
   22.9659   -7.7125  -14.0270 C   0  0  0  0  0  0  0  0  0  0  0  0
   22.5493   -8.8254  -13.3370 C   0  0  0  0  0  0  0  0  0  0  0  0
   21.7657   -8.6923  -12.1991 C   0  0  0  0  0  0  0  0  0  0  0  0
   21.3963   -7.4451  -11.7482 C   0  0  0  0  0  0  0  0  0  0  0  0
   21.8107   -6.3104  -12.4370 C   0  0  0  0  0  0  0  0  0  0  0  0
   22.5863   -6.4513  -13.5623 C   0  0  0  0  0  0  0  0  0  0  0  0
   22.3760   -6.2372  -16.5943 C   0  0  0  0  0  0  0  0  0  0  0  0
   21.0809   -5.9692  -16.2128 O   0  0  0  0  0  0  0  0  0  0  0  0
   23.0835   -5.3127  -17.0475 O   0  0  0  0  0  0  0  0  0  0  0  0
  2  1  1  1
  3  2  1  0
  4  3  1  0
  5  9  1  0
  5  4  1  0
  6  5  2  0
  7  8  2  0
  7  2  1  0
 11 10  1  6
 11 12  1  0
 12  7  1  0
 13 11  1  0
 14 13  2  0
 15 13  1  0
 16 15  1  0
 17 18  1  0
 16 17  1  1
 18 23  2  0
 19 20  2  0
 19 18  1  0
 20 21  1  0
 21 22  2  0
 23 22  1  0
 24 25  1  0
 24 16  1  0
 26 24  2  0
M  END
$$$$
