PNN.pdb
     RDKit          3D

 24 24  0  0  1  0  0  0  0  0999 V2000
   20.0389  -11.7626  -15.5359 N   0  0  0  0  0  0  0  0  0  0  0  0
   20.0430  -12.9670  -16.3475 C   0  0  0  0  0  0  0  0  0  0  0  0
   18.6098  -13.0626  -16.8127 C   0  0  0  0  0  0  0  0  0  0  0  0
   18.1528  -11.6258  -16.9236 C   0  0  0  0  0  0  0  0  0  0  0  0
   19.2078  -10.8270  -16.3109 C   0  0  1  0  0  0  0  0  0  0  0  0
   18.8803   -9.6419  -15.5472 C   0  0  0  0  0  0  0  0  0  0  0  0
   18.2810   -8.6975  -16.1242 O   0  0  0  0  0  0  0  0  0  0  0  0
   18.1787   -7.3304   -9.8683 N   0  0  0  0  0  0  0  0  0  0  0  0
   18.1735   -7.2852  -11.2800 C   0  0  0  0  0  0  0  0  0  0  0  0
   17.9274   -6.2123  -11.8577 O   0  0  0  0  0  0  0  0  0  0  0  0
   18.4576   -8.4990  -12.0587 C   0  0  0  0  0  0  0  0  0  0  0  0
   18.9582   -8.2352  -13.4578 C   0  0  2  0  0  0  0  0  0  0  0  0
   19.1867   -9.4526  -14.1656 N   0  0  0  0  0  0  0  0  0  0  0  0
   20.1462   -7.3246  -13.4412 C   0  0  0  0  0  0  0  0  0  0  0  0
   21.1615   -7.6582  -12.7825 O   0  0  0  0  0  0  0  0  0  0  0  0
   23.5020   -3.6033  -14.7342 N   0  0  0  0  0  0  0  0  0  0  0  0
   23.0196   -4.3784  -15.8173 C   0  0  0  0  0  0  0  0  0  0  0  0
   23.6276   -4.3287  -16.9059 O   0  0  0  0  0  0  0  0  0  0  0  0
   21.8240   -5.2197  -15.6408 C   0  0  0  0  0  0  0  0  0  0  0  0
   21.2493   -5.2295  -14.2654 C   0  0  2  0  0  0  0  0  0  0  0  0
   20.1119   -6.1066  -14.1613 N   0  0  0  0  0  0  0  0  0  0  0  0
   20.9087   -3.8857  -13.7291 C   0  0  0  0  0  0  0  0  0  0  0  0
   21.7589   -3.0117  -13.4476 O   0  0  0  0  0  0  0  0  0  0  0  0
   19.5796   -3.5659  -13.5209 O   0  0  0  0  0  0  0  0  0  0  0  0
  1  5  1  0
  1  2  1  0
  2  3  1  0
  4  3  1  0
  5  4  1  0
  6 13  1  0
  5  6  1  1
  7  6  2  0
  8  9  1  0
  9 11  1  0
 10  9  2  0
 12 11  1  1
 12 13  1  0
 14 12  1  0
 15 14  2  0
 16 17  1  0
 17 19  1  0
 17 18  2  0
 20 19  1  6
 20 22  1  0
 20 21  1  0
 21 14  1  0
 22 24  1  0
 23 22  2  0
M  END
$$$$
