PNN.pdb
     RDKit          3D

 24 24  0  0  1  0  0  0  0  0999 V2000
   27.3705  -19.8558  -15.7527 N   0  0  0  0  0  0  0  0  0  0  0  0
   28.5770  -19.8252  -16.5606 C   0  0  0  0  0  0  0  0  0  0  0  0
   29.2947  -21.0849  -16.1390 C   0  0  0  0  0  0  0  0  0  0  0  0
   28.1858  -22.0546  -15.7987 C   0  0  0  0  0  0  0  0  0  0  0  0
   26.9579  -21.2679  -15.8017 C   0  0  1  0  0  0  0  0  0  0  0  0
   25.9033  -21.5516  -14.8519 C   0  0  0  0  0  0  0  0  0  0  0  0
   25.2775  -22.6390  -14.9505 O   0  0  0  0  0  0  0  0  0  0  0  0
   27.1430  -20.8414  -10.8296 N   0  0  0  0  0  0  0  0  0  0  0  0
   25.8520  -21.4039  -10.9386 C   0  0  0  0  0  0  0  0  0  0  0  0
   25.6599  -22.5738  -10.5647 O   0  0  0  0  0  0  0  0  0  0  0  0
   24.7448  -20.6099  -11.4901 C   0  0  0  0  0  0  0  0  0  0  0  0
   24.4027  -20.9347  -12.9237 C   0  0  2  0  0  0  0  0  0  0  0  0
   25.5069  -20.6821  -13.7909 N   0  0  0  0  0  0  0  0  0  0  0  0
   23.1440  -20.2432  -13.3461 C   0  0  0  0  0  0  0  0  0  0  0  0
   23.2059  -19.0558  -13.7489 O   0  0  0  0  0  0  0  0  0  0  0  0
   20.1123  -18.9582  -17.2251 N   0  0  0  0  0  0  0  0  0  0  0  0
   19.9820  -20.1156  -16.4189 C   0  0  0  0  0  0  0  0  0  0  0  0
   18.9198  -20.7680  -16.4763 O   0  0  0  0  0  0  0  0  0  0  0  0
   21.0896  -20.5236  -15.5384 C   0  0  0  0  0  0  0  0  0  0  0  0
   20.7681  -20.5551  -14.0831 C   0  0  2  0  0  0  0  0  0  0  0  0
   21.9076  -20.9294  -13.2861 N   0  0  0  0  0  0  0  0  0  0  0  0
   19.5971  -21.3987  -13.7278 C   0  0  0  0  0  0  0  0  0  0  0  0
   19.6338  -22.6476  -13.6565 O   0  0  0  0  0  0  0  0  0  0  0  0
   18.3875  -20.7848  -13.4589 O   0  0  0  0  0  0  0  0  0  0  0  0
  1  5  1  0
  1  2  1  0
  2  3  1  0
  4  3  1  0
  5  4  1  0
  6 13  1  0
  5  6  1  1
  7  6  2  0
  8  9  1  0
  9 11  1  0
 10  9  2  0
 12 11  1  1
 12 13  1  0
 14 12  1  0
 15 14  2  0
 16 17  1  0
 17 19  1  0
 17 18  2  0
 20 19  1  6
 20 22  1  0
 20 21  1  0
 21 14  1  0
 22 24  1  0
 23 22  2  0
M  END
$$$$
