PNN.pdb
     RDKit          3D

 24 24  0  0  1  0  0  0  0  0999 V2000
   26.1815  -33.7705   -8.3805 N   0  0  0  0  0  0  0  0  0  0  0  0
   26.4966  -32.8170   -9.4298 C   0  0  0  0  0  0  0  0  0  0  0  0
   25.1985  -32.0651   -9.6001 C   0  0  0  0  0  0  0  0  0  0  0  0
   24.5789  -32.0653   -8.2212 C   0  0  0  0  0  0  0  0  0  0  0  0
   25.3865  -32.9821   -7.4250 C   0  0  1  0  0  0  0  0  0  0  0  0
   24.7678  -33.8215   -6.4213 C   0  0  0  0  0  0  0  0  0  0  0  0
   24.1248  -33.2740   -5.4882 O   0  0  0  0  0  0  0  0  0  0  0  0
   20.9926  -36.8805   -6.1915 N   0  0  0  0  0  0  0  0  0  0  0  0
   22.2545  -36.8579   -6.8256 C   0  0  0  0  0  0  0  0  0  0  0  0
   22.3340  -36.5241   -8.0204 O   0  0  0  0  0  0  0  0  0  0  0  0
   23.4640  -37.2263   -6.0762 C   0  0  0  0  0  0  0  0  0  0  0  0
   24.1725  -36.0608   -5.4302 C   0  0  2  0  0  0  0  0  0  0  0  0
   24.8277  -35.2480   -6.4026 N   0  0  0  0  0  0  0  0  0  0  0  0
   25.0795  -36.5237   -4.3330 C   0  0  0  0  0  0  0  0  0  0  0  0
   24.6070  -37.2275   -3.4070 O   0  0  0  0  0  0  0  0  0  0  0  0
   29.3278  -37.0980   -1.3597 N   0  0  0  0  0  0  0  0  0  0  0  0
   29.7580  -36.8269   -2.6818 C   0  0  0  0  0  0  0  0  0  0  0  0
   30.9719  -36.9363   -2.9500 O   0  0  0  0  0  0  0  0  0  0  0  0
   28.7766  -36.4264   -3.7039 C   0  0  0  0  0  0  0  0  0  0  0  0
   27.3506  -36.4771   -3.2723 C   0  0  2  0  0  0  0  0  0  0  0  0
   26.4485  -36.1650   -4.3505 N   0  0  0  0  0  0  0  0  0  0  0  0
   27.0352  -35.6414   -2.0843 C   0  0  0  0  0  0  0  0  0  0  0  0
   26.3969  -34.5664   -2.1381 O   0  0  0  0  0  0  0  0  0  0  0  0
   27.4660  -36.0599   -0.8387 O   0  0  0  0  0  0  0  0  0  0  0  0
  1  5  1  0
  1  2  1  0
  2  3  1  0
  4  3  1  0
  5  4  1  0
  6 13  1  0
  5  6  1  6
  7  6  2  0
  8  9  1  0
  9 11  1  0
 10  9  2  0
 12 11  1  6
 12 13  1  0
 14 12  1  0
 15 14  2  0
 16 17  1  0
 17 19  1  0
 17 18  2  0
 20 19  1  6
 20 22  1  0
 20 21  1  0
 21 14  1  0
 22 24  1  0
 23 22  2  0
M  END
$$$$
