PNN.pdb
     RDKit          3D

 24 24  0  0  1  0  0  0  0  0999 V2000
   19.9951  -13.4323  -16.2685 N   0  0  0  0  0  0  0  0  0  0  0  0
   20.3873  -14.7120  -16.8324 C   0  0  0  0  0  0  0  0  0  0  0  0
   19.8577  -14.6326  -18.2440 C   0  0  0  0  0  0  0  0  0  0  0  0
   19.9471  -13.1657  -18.5983 C   0  0  0  0  0  0  0  0  0  0  0  0
   20.2712  -12.4775  -17.3542 C   0  0  1  0  0  0  0  0  0  0  0  0
   19.7159  -11.1708  -17.0731 C   0  0  0  0  0  0  0  0  0  0  0  0
   20.1165  -10.1861  -17.7468 O   0  0  0  0  0  0  0  0  0  0  0  0
   14.9337  -11.3703  -15.8050 N   0  0  0  0  0  0  0  0  0  0  0  0
   15.8265  -10.3804  -16.2720 C   0  0  0  0  0  0  0  0  0  0  0  0
   15.8266  -10.0748  -17.4769 O   0  0  0  0  0  0  0  0  0  0  0  0
   16.7476   -9.7171  -15.3382 C   0  0  0  0  0  0  0  0  0  0  0  0
   18.1680   -9.6125  -15.8376 C   0  0  2  0  0  0  0  0  0  0  0  0
   18.7312  -10.9017  -16.0748 N   0  0  0  0  0  0  0  0  0  0  0  0
   18.9963   -8.7595  -14.9281 C   0  0  0  0  0  0  0  0  0  0  0  0
   19.2011   -9.1432  -13.7504 O   0  0  0  0  0  0  0  0  0  0  0  0
   21.9291   -4.8527  -13.1360 N   0  0  0  0  0  0  0  0  0  0  0  0
   22.4326   -5.3748  -14.3527 C   0  0  0  0  0  0  0  0  0  0  0  0
   23.5597   -5.0059  -14.7409 O   0  0  0  0  0  0  0  0  0  0  0  0
   21.6266   -6.3329  -15.1279 C   0  0  0  0  0  0  0  0  0  0  0  0
   20.2816   -6.6382  -14.5623 C   0  0  2  0  0  0  0  0  0  0  0  0
   19.5344   -7.5390  -15.4014 N   0  0  0  0  0  0  0  0  0  0  0  0
   19.4612   -5.4414  -14.2400 C   0  0  0  0  0  0  0  0  0  0  0  0
   19.2880   -5.0073  -13.0791 O   0  0  0  0  0  0  0  0  0  0  0  0
   18.8443   -4.7561  -15.2705 O   0  0  0  0  0  0  0  0  0  0  0  0
  1  5  1  0
  1  2  1  0
  2  3  1  0
  4  3  1  0
  5  4  1  0
  6 13  1  0
  5  6  1  1
  7  6  2  0
  8  9  1  0
  9 11  1  0
 10  9  2  0
 12 11  1  1
 12 13  1  0
 14 12  1  0
 15 14  2  0
 16 17  1  0
 17 19  1  0
 17 18  2  0
 20 19  1  6
 20 22  1  0
 20 21  1  0
 21 14  1  0
 22 24  1  0
 23 22  2  0
M  END
$$$$
