PNN.pdb
     RDKit          3D

 24 24  0  0  1  0  0  0  0  0999 V2000
   18.0979  -12.0755  -15.4731 N   0  0  0  0  0  0  0  0  0  0  0  0
   17.7867  -13.4887  -15.5967 C   0  0  0  0  0  0  0  0  0  0  0  0
   16.2857  -13.4885  -15.7596 C   0  0  0  0  0  0  0  0  0  0  0  0
   15.9855  -12.1968  -16.4854 C   0  0  0  0  0  0  0  0  0  0  0  0
   17.2334  -11.4421  -16.4821 C   0  0  1  0  0  0  0  0  0  0  0  0
   17.2183  -10.0012  -16.3469 C   0  0  0  0  0  0  0  0  0  0  0  0
   17.8955   -9.3114  -17.1528 O   0  0  0  0  0  0  0  0  0  0  0  0
   12.8841   -6.5295  -15.0921 N   0  0  0  0  0  0  0  0  0  0  0  0
   14.0344   -7.2357  -15.5078 C   0  0  0  0  0  0  0  0  0  0  0  0
   14.0721   -7.7281  -16.6487 O   0  0  0  0  0  0  0  0  0  0  0  0
   15.1780   -7.3860  -14.5968 C   0  0  0  0  0  0  0  0  0  0  0  0
   16.4453   -7.8604  -15.2653 C   0  0  2  0  0  0  0  0  0  0  0  0
   16.4835   -9.2837  -15.3550 N   0  0  0  0  0  0  0  0  0  0  0  0
   17.6538   -7.2731  -14.6053 C   0  0  0  0  0  0  0  0  0  0  0  0
   18.1143   -7.8233  -13.5751 O   0  0  0  0  0  0  0  0  0  0  0  0
   22.0899   -4.7543  -13.8929 N   0  0  0  0  0  0  0  0  0  0  0  0
   21.9531   -6.0592  -14.4266 C   0  0  0  0  0  0  0  0  0  0  0  0
   22.9791   -6.7526  -14.5814 O   0  0  0  0  0  0  0  0  0  0  0  0
   20.6185   -6.5684  -14.7841 C   0  0  0  0  0  0  0  0  0  0  0  0
   19.5060   -5.5843  -14.6563 C   0  0  2  0  0  0  0  0  0  0  0  0
   18.2586   -6.1127  -15.1446 N   0  0  0  0  0  0  0  0  0  0  0  0
   19.7779   -4.2612  -15.2765 C   0  0  0  0  0  0  0  0  0  0  0  0
   20.3183   -3.3069  -14.6737 O   0  0  0  0  0  0  0  0  0  0  0  0
   19.4176   -4.0540  -16.5953 O   0  0  0  0  0  0  0  0  0  0  0  0
  1  5  1  0
  1  2  1  0
  2  3  1  0
  4  3  1  0
  5  4  1  0
  6 13  1  0
  5  6  1  1
  7  6  2  0
  8  9  1  0
  9 11  1  0
 10  9  2  0
 12 11  1  1
 12 13  1  0
 14 12  1  0
 15 14  2  0
 16 17  1  0
 17 19  1  0
 17 18  2  0
 20 19  1  6
 20 22  1  0
 20 21  1  0
 21 14  1  0
 22 24  1  0
 23 22  2  0
M  END
$$$$
