PNN.pdb
     RDKit          3D

 24 24  0  0  1  0  0  0  0  0999 V2000
   25.4046  -17.1054  -16.2601 N   0  0  0  0  0  0  0  0  0  0  0  0
   25.6808  -15.7567  -16.7227 C   0  0  0  0  0  0  0  0  0  0  0  0
   26.8904  -15.3643  -15.9088 C   0  0  0  0  0  0  0  0  0  0  0  0
   27.6370  -16.6611  -15.6938 C   0  0  0  0  0  0  0  0  0  0  0  0
   26.7405  -17.7147  -16.1552 C   0  0  1  0  0  0  0  0  0  0  0  0
   26.6959  -18.9902  -15.4727 C   0  0  0  0  0  0  0  0  0  0  0  0
   27.7540  -19.6658  -15.3845 O   0  0  0  0  0  0  0  0  0  0  0  0
   25.8328  -22.0293  -11.4649 N   0  0  0  0  0  0  0  0  0  0  0  0
   26.6137  -20.8545  -11.5358 C   0  0  0  0  0  0  0  0  0  0  0  0
   27.4174  -20.5970  -10.6230 O   0  0  0  0  0  0  0  0  0  0  0  0
   26.4761  -19.9444  -12.6817 C   0  0  0  0  0  0  0  0  0  0  0  0
   25.5501  -20.4448  -13.7633 C   0  0  2  0  0  0  0  0  0  0  0  0
   25.5270  -19.5562  -14.8791 N   0  0  0  0  0  0  0  0  0  0  0  0
   24.1907  -20.7431  -13.2120 C   0  0  0  0  0  0  0  0  0  0  0  0
   24.0644  -21.6583  -12.3619 O   0  0  0  0  0  0  0  0  0  0  0  0
   22.7081  -19.9583   -9.9050 N   0  0  0  0  0  0  0  0  0  0  0  0
   21.8478  -20.5968  -10.8317 C   0  0  0  0  0  0  0  0  0  0  0  0
   21.5585  -21.7971  -10.6505 O   0  0  0  0  0  0  0  0  0  0  0  0
   21.3161  -19.8412  -11.9784 C   0  0  0  0  0  0  0  0  0  0  0  0
   21.7163  -20.3538  -13.3198 C   0  0  2  0  0  0  0  0  0  0  0  0
   23.0714  -19.9971  -13.6522 N   0  0  0  0  0  0  0  0  0  0  0  0
   20.8010  -19.9692  -14.4258 C   0  0  0  0  0  0  0  0  0  0  0  0
   21.1560  -19.3048  -15.4251 O   0  0  0  0  0  0  0  0  0  0  0  0
   19.4754  -20.3579  -14.3628 O   0  0  0  0  0  0  0  0  0  0  0  0
  1  5  1  0
  1  2  1  0
  2  3  1  0
  4  3  1  0
  5  4  1  0
  6 13  1  0
  5  6  1  1
  7  6  2  0
  8  9  1  0
  9 11  1  0
 10  9  2  0
 12 11  1  1
 12 13  1  0
 14 12  1  0
 15 14  2  0
 16 17  1  0
 17 19  1  0
 17 18  2  0
 20 19  1  1
 20 22  1  0
 20 21  1  0
 21 14  1  0
 22 24  1  0
 23 22  2  0
M  END
$$$$
