PNN.pdb
     RDKit          3D

 24 24  0  0  1  0  0  0  0  0999 V2000
   27.4173  -18.7942   -6.8069 N   0  0  0  0  0  0  0  0  0  0  0  0
   28.0560  -18.4725   -5.5429 C   0  0  0  0  0  0  0  0  0  0  0  0
   28.4418  -19.8303   -5.0072 C   0  0  0  0  0  0  0  0  0  0  0  0
   28.7284  -20.6550   -6.2414 C   0  0  0  0  0  0  0  0  0  0  0  0
   28.2765  -19.8487   -7.3694 C   0  0  1  0  0  0  0  0  0  0  0  0
   27.6687  -20.4771   -8.5228 C   0  0  0  0  0  0  0  0  0  0  0  0
   28.2759  -21.4256   -9.0845 O   0  0  0  0  0  0  0  0  0  0  0  0
   24.4748  -21.9503  -12.3557 N   0  0  0  0  0  0  0  0  0  0  0  0
   23.7943  -21.8515  -11.1219 C   0  0  0  0  0  0  0  0  0  0  0  0
   22.6443  -22.3118  -11.0180 O   0  0  0  0  0  0  0  0  0  0  0  0
   24.4431  -21.2090   -9.9702 C   0  0  0  0  0  0  0  0  0  0  0  0
   25.8425  -20.7141  -10.2432 C   0  0  2  0  0  0  0  0  0  0  0  0
   26.4116  -20.1023   -9.0868 N   0  0  0  0  0  0  0  0  0  0  0  0
   25.8762  -19.8386  -11.4570 C   0  0  0  0  0  0  0  0  0  0  0  0
   25.4937  -18.6468  -11.3604 O   0  0  0  0  0  0  0  0  0  0  0  0
   29.0778  -17.8418  -15.7705 N   0  0  0  0  0  0  0  0  0  0  0  0
   27.9470  -18.6869  -15.6537 C   0  0  0  0  0  0  0  0  0  0  0  0
   27.1101  -18.6975  -16.5793 O   0  0  0  0  0  0  0  0  0  0  0  0
   27.7819  -19.5283  -14.4566 C   0  0  0  0  0  0  0  0  0  0  0  0
   26.4022  -19.5715  -13.8937 C   0  0  2  0  0  0  0  0  0  0  0  0
   26.3339  -20.3600  -12.6906 N   0  0  0  0  0  0  0  0  0  0  0  0
   25.3573  -20.0134  -14.8539 C   0  0  0  0  0  0  0  0  0  0  0  0
   25.1502  -21.2099  -15.1567 O   0  0  0  0  0  0  0  0  0  0  0  0
   24.5590  -19.0603  -15.4593 O   0  0  0  0  0  0  0  0  0  0  0  0
  1  5  1  0
  1  2  1  0
  2  3  1  0
  4  3  1  0
  5  4  1  0
  6 13  1  0
  5  6  1  6
  7  6  2  0
  8  9  1  0
  9 11  1  0
 10  9  2  0
 12 11  1  1
 12 13  1  0
 14 12  1  0
 15 14  2  0
 16 17  1  0
 17 19  1  0
 17 18  2  0
 20 19  1  6
 20 22  1  0
 20 21  1  0
 21 14  1  0
 22 24  1  0
 23 22  2  0
M  END
$$$$
