PNN.pdb
     RDKit          3D

 24 24  0  0  1  0  0  0  0  0999 V2000
   24.6937  -15.7358  -15.9761 N   0  0  0  0  0  0  0  0  0  0  0  0
   24.7255  -17.1713  -16.1948 C   0  0  0  0  0  0  0  0  0  0  0  0
   26.0863  -17.3861  -16.8127 C   0  0  0  0  0  0  0  0  0  0  0  0
   26.9559  -16.3175  -16.1904 C   0  0  0  0  0  0  0  0  0  0  0  0
   26.0439  -15.4331  -15.4742 C   0  0  1  0  0  0  0  0  0  0  0  0
   26.2912  -14.0078  -15.4267 C   0  0  0  0  0  0  0  0  0  0  0  0
   27.4312  -13.6034  -15.0793 O   0  0  0  0  0  0  0  0  0  0  0  0
   26.3555   -8.9381  -16.2970 N   0  0  0  0  0  0  0  0  0  0  0  0
   27.2121   -9.9391  -16.8062 C   0  0  0  0  0  0  0  0  0  0  0  0
   28.2743   -9.6115  -17.3628 O   0  0  0  0  0  0  0  0  0  0  0  0
   26.8486  -11.3574  -16.6776 C   0  0  0  0  0  0  0  0  0  0  0  0
   25.6274  -11.6101  -15.8276 C   0  0  2  0  0  0  0  0  0  0  0  0
   25.3292  -13.0030  -15.7483 N   0  0  0  0  0  0  0  0  0  0  0  0
   24.4704  -10.7791  -16.2879 C   0  0  0  0  0  0  0  0  0  0  0  0
   23.9895  -10.9820  -17.4296 O   0  0  0  0  0  0  0  0  0  0  0  0
   20.5984   -6.6201  -14.4273 N   0  0  0  0  0  0  0  0  0  0  0  0
   20.6929   -7.9987  -14.7392 C   0  0  0  0  0  0  0  0  0  0  0  0
   19.6899   -8.5764  -15.2057 O   0  0  0  0  0  0  0  0  0  0  0  0
   21.9581   -8.7164  -14.5107 C   0  0  0  0  0  0  0  0  0  0  0  0
   22.7235   -9.0659  -15.7413 C   0  0  2  0  0  0  0  0  0  0  0  0
   23.9362   -9.7810  -15.4384 N   0  0  0  0  0  0  0  0  0  0  0  0
   23.0191   -7.9136  -16.6324 C   0  0  0  0  0  0  0  0  0  0  0  0
   24.1051   -7.2918  -16.6305 O   0  0  0  0  0  0  0  0  0  0  0  0
   22.0482   -7.4888  -17.5207 O   0  0  0  0  0  0  0  0  0  0  0  0
  1  5  1  0
  1  2  1  0
  2  3  1  0
  4  3  1  0
  5  4  1  0
  6 13  1  0
  5  6  1  6
  7  6  2  0
  8  9  1  0
  9 11  1  0
 10  9  2  0
 12 11  1  6
 12 13  1  0
 14 12  1  0
 15 14  2  0
 16 17  1  0
 17 19  1  0
 17 18  2  0
 20 19  1  1
 20 22  1  0
 20 21  1  0
 21 14  1  0
 22 24  1  0
 23 22  2  0
M  END
$$$$
