PNN.pdb
     RDKit          3D

 24 24  0  0  1  0  0  0  0  0999 V2000
   26.4736  -18.9672  -15.4983 N   0  0  0  0  0  0  0  0  0  0  0  0
   27.6242  -18.5693  -16.2901 C   0  0  0  0  0  0  0  0  0  0  0  0
   28.7559  -19.3310  -15.6431 C   0  0  0  0  0  0  0  0  0  0  0  0
   28.1146  -20.6046  -15.1409 C   0  0  0  0  0  0  0  0  0  0  0  0
   26.6774  -20.4106  -15.2942 C   0  0  1  0  0  0  0  0  0  0  0  0
   25.7565  -20.9491  -14.3160 C   0  0  0  0  0  0  0  0  0  0  0  0
   25.2275  -22.0696  -14.5365 O   0  0  0  0  0  0  0  0  0  0  0  0
   27.2455  -20.2852  -10.0998 N   0  0  0  0  0  0  0  0  0  0  0  0
   26.1022  -21.0913  -10.2948 C   0  0  0  0  0  0  0  0  0  0  0  0
   26.1717  -22.3144  -10.0843 O   0  0  0  0  0  0  0  0  0  0  0  0
   24.8399  -20.4862  -10.7431 C   0  0  0  0  0  0  0  0  0  0  0  0
   24.4555  -20.8321  -12.1610 C   0  0  2  0  0  0  0  0  0  0  0  0
   25.3919  -20.3011  -13.0971 N   0  0  0  0  0  0  0  0  0  0  0  0
   23.0400  -20.4371  -12.4460 C   0  0  0  0  0  0  0  0  0  0  0  0
   22.5781  -19.3973  -11.9154 O   0  0  0  0  0  0  0  0  0  0  0  0
   22.5933  -19.9395  -16.7134 N   0  0  0  0  0  0  0  0  0  0  0  0
   21.6363  -19.6125  -15.7216 C   0  0  0  0  0  0  0  0  0  0  0  0
   21.5436  -18.4254  -15.3482 O   0  0  0  0  0  0  0  0  0  0  0  0
   20.7777  -20.6668  -15.1562 C   0  0  0  0  0  0  0  0  0  0  0  0
   20.9038  -20.8703  -13.6848 C   0  0  2  0  0  0  0  0  0  0  0  0
   22.2437  -21.2341  -13.3026 N   0  0  0  0  0  0  0  0  0  0  0  0
   19.9291  -21.8334  -13.1091 C   0  0  0  0  0  0  0  0  0  0  0  0
   20.1730  -23.0474  -12.9280 O   0  0  0  0  0  0  0  0  0  0  0  0
   18.6737  -21.3795  -12.7483 O   0  0  0  0  0  0  0  0  0  0  0  0
  1  5  1  0
  1  2  1  0
  2  3  1  0
  4  3  1  0
  5  4  1  0
  6 13  1  0
  5  6  1  1
  7  6  2  0
  8  9  1  0
  9 11  1  0
 10  9  2  0
 12 11  1  1
 12 13  1  0
 14 12  1  0
 15 14  2  0
 16 17  1  0
 17 19  1  0
 17 18  2  0
 20 19  1  6
 20 22  1  0
 20 21  1  0
 21 14  1  0
 22 24  1  0
 23 22  2  0
M  END
$$$$
