PNN.pdb
     RDKit          3D

 24 24  0  0  1  0  0  0  0  0999 V2000
   19.0982   -9.8040  -13.9011 N   0  0  0  0  0  0  0  0  0  0  0  0
   19.2102  -11.1097  -14.5271 C   0  0  0  0  0  0  0  0  0  0  0  0
   17.7869  -11.6131  -14.5094 C   0  0  0  0  0  0  0  0  0  0  0  0
   16.9439  -10.3649  -14.6399 C   0  0  0  0  0  0  0  0  0  0  0  0
   17.8666   -9.2465  -14.4832 C   0  0  1  0  0  0  0  0  0  0  0  0
   17.4482   -8.0413  -13.7996 C   0  0  0  0  0  0  0  0  0  0  0  0
   16.5383   -7.3398  -14.3134 O   0  0  0  0  0  0  0  0  0  0  0  0
   15.8129   -7.6458  -10.2313 N   0  0  0  0  0  0  0  0  0  0  0  0
   16.9810   -7.1091   -9.6461 C   0  0  0  0  0  0  0  0  0  0  0  0
   17.1911   -7.2772   -8.4325 O   0  0  0  0  0  0  0  0  0  0  0  0
   17.9405   -6.3579  -10.4681 C   0  0  0  0  0  0  0  0  0  0  0  0
   17.6183   -6.3463  -11.9425 C   0  0  2  0  0  0  0  0  0  0  0  0
   17.9933   -7.5738  -12.5655 N   0  0  0  0  0  0  0  0  0  0  0  0
   18.1984   -5.1386  -12.6102 C   0  0  0  0  0  0  0  0  0  0  0  0
   19.4460   -5.0302  -12.6981 O   0  0  0  0  0  0  0  0  0  0  0  0
   17.9970   -1.8972  -17.3797 N   0  0  0  0  0  0  0  0  0  0  0  0
   18.4966   -2.0863  -16.0678 C   0  0  0  0  0  0  0  0  0  0  0  0
   19.3093   -1.2562  -15.6119 O   0  0  0  0  0  0  0  0  0  0  0  0
   18.0527   -3.2449  -15.2747 C   0  0  0  0  0  0  0  0  0  0  0  0
   17.8295   -2.9769  -13.8254 C   0  0  2  0  0  0  0  0  0  0  0  0
   17.3411   -4.1396  -13.1300 N   0  0  0  0  0  0  0  0  0  0  0  0
   16.9571   -1.8077  -13.5410 C   0  0  0  0  0  0  0  0  0  0  0  0
   17.3645   -0.6248  -13.5124 O   0  0  0  0  0  0  0  0  0  0  0  0
   15.6142   -2.0208  -13.2889 O   0  0  0  0  0  0  0  0  0  0  0  0
  1  5  1  0
  1  2  1  0
  2  3  1  0
  4  3  1  0
  5  4  1  0
  6 13  1  0
  5  6  1  1
  7  6  2  0
  8  9  1  0
  9 11  1  0
 10  9  2  0
 12 11  1  1
 12 13  1  0
 14 12  1  0
 15 14  2  0
 16 17  1  0
 17 19  1  0
 17 18  2  0
 20 19  1  6
 20 22  1  0
 20 21  1  0
 21 14  1  0
 22 24  1  0
 23 22  2  0
M  END
$$$$
