PNN.pdb
     RDKit          3D

 24 24  0  0  1  0  0  0  0  0999 V2000
   18.3242   -8.6762  -15.3933 N   0  0  0  0  0  0  0  0  0  0  0  0
   18.0056   -9.5264  -16.5268 C   0  0  0  0  0  0  0  0  0  0  0  0
   17.9107  -10.8973  -15.9014 C   0  0  0  0  0  0  0  0  0  0  0  0
   17.3989  -10.6389  -14.5025 C   0  0  0  0  0  0  0  0  0  0  0  0
   17.4595   -9.1933  -14.3202 C   0  0  1  0  0  0  0  0  0  0  0  0
   17.8081   -8.6308  -13.0329 C   0  0  0  0  0  0  0  0  0  0  0  0
   17.1202   -8.9487  -12.0281 O   0  0  0  0  0  0  0  0  0  0  0  0
   19.9346   -5.7943   -9.1958 N   0  0  0  0  0  0  0  0  0  0  0  0
   20.9166   -5.9517  -10.1986 C   0  0  0  0  0  0  0  0  0  0  0  0
   22.0688   -5.5295   -9.9996 O   0  0  0  0  0  0  0  0  0  0  0  0
   20.5769   -6.6108  -11.4677 C   0  0  0  0  0  0  0  0  0  0  0  0
   19.1501   -7.0953  -11.5524 C   0  0  2  0  0  0  0  0  0  0  0  0
   18.8900   -7.7274  -12.8046 N   0  0  0  0  0  0  0  0  0  0  0  0
   18.1883   -5.9944  -11.2303 C   0  0  0  0  0  0  0  0  0  0  0  0
   17.9287   -5.1349  -12.1077 O   0  0  0  0  0  0  0  0  0  0  0  0
   14.2788   -3.5093   -8.8254 N   0  0  0  0  0  0  0  0  0  0  0  0
   14.4546   -4.7744   -8.2130 C   0  0  0  0  0  0  0  0  0  0  0  0
   13.6578   -5.1213   -7.3175 O   0  0  0  0  0  0  0  0  0  0  0  0
   15.5609   -5.6475   -8.6399 C   0  0  0  0  0  0  0  0  0  0  0  0
   16.4893   -5.0545   -9.6443 C   0  0  2  0  0  0  0  0  0  0  0  0
   17.5877   -5.9341   -9.9501 N   0  0  0  0  0  0  0  0  0  0  0  0
   16.9995   -3.7039   -9.2914 C   0  0  0  0  0  0  0  0  0  0  0  0
   16.2628   -2.7190   -9.0606 O   0  0  0  0  0  0  0  0  0  0  0  0
   18.3656   -3.5049   -9.2108 O   0  0  0  0  0  0  0  0  0  0  0  0
  1  5  1  0
  1  2  1  0
  2  3  1  0
  4  3  1  0
  5  4  1  0
  6 13  1  0
  5  6  1  1
  7  6  2  0
  8  9  1  0
  9 11  1  0
 10  9  2  0
 12 11  1  6
 12 13  1  0
 14 12  1  0
 15 14  2  0
 16 17  1  0
 17 19  1  0
 17 18  2  0
 20 19  1  1
 20 22  1  0
 20 21  1  0
 21 14  1  0
 22 24  1  0
 23 22  2  0
M  END
$$$$
