PNN.pdb
     RDKit          3D

 24 24  0  0  1  0  0  0  0  0999 V2000
   19.2480   -9.2125  -15.8592 N   0  0  0  0  0  0  0  0  0  0  0  0
   19.3029  -10.1208  -16.9911 C   0  0  0  0  0  0  0  0  0  0  0  0
   19.7268  -11.4231  -16.3556 C   0  0  0  0  0  0  0  0  0  0  0  0
   19.1260  -11.3791  -14.9691 C   0  0  0  0  0  0  0  0  0  0  0  0
   18.6249  -10.0203  -14.7982 C   0  0  1  0  0  0  0  0  0  0  0  0
   18.7046   -9.3662  -13.5096 C   0  0  0  0  0  0  0  0  0  0  0  0
   18.1551   -9.9139  -12.5187 O   0  0  0  0  0  0  0  0  0  0  0  0
   21.1820   -4.4471  -12.8103 N   0  0  0  0  0  0  0  0  0  0  0  0
   21.0232   -5.8394  -12.9873 C   0  0  0  0  0  0  0  0  0  0  0  0
   21.1492   -6.3311  -14.1220 O   0  0  0  0  0  0  0  0  0  0  0  0
   20.7116   -6.6991  -11.8366 C   0  0  0  0  0  0  0  0  0  0  0  0
   19.4402   -7.4985  -11.9859 C   0  0  2  0  0  0  0  0  0  0  0  0
   19.3689   -8.1262  -13.2651 N   0  0  0  0  0  0  0  0  0  0  0  0
   18.2395   -6.6644  -11.6646 C   0  0  0  0  0  0  0  0  0  0  0  0
   17.6809   -6.0189  -12.5852 O   0  0  0  0  0  0  0  0  0  0  0  0
   14.9235   -8.1972  -10.4644 N   0  0  0  0  0  0  0  0  0  0  0  0
   15.0835   -7.7839   -9.1190 C   0  0  0  0  0  0  0  0  0  0  0  0
   14.5577   -8.4672   -8.2169 O   0  0  0  0  0  0  0  0  0  0  0  0
   15.8590   -6.5701   -8.8129 C   0  0  0  0  0  0  0  0  0  0  0  0
   16.5326   -5.9331   -9.9802 C   0  0  2  0  0  0  0  0  0  0  0  0
   17.7515   -6.6118  -10.3371 N   0  0  0  0  0  0  0  0  0  0  0  0
   16.7849   -4.4763   -9.8280 C   0  0  0  0  0  0  0  0  0  0  0  0
   17.9158   -3.9830   -9.6186 O   0  0  0  0  0  0  0  0  0  0  0  0
   15.7190   -3.5999   -9.9181 O   0  0  0  0  0  0  0  0  0  0  0  0
  1  5  1  0
  1  2  1  0
  2  3  1  0
  4  3  1  0
  5  4  1  0
  6 13  1  0
  5  6  1  1
  7  6  2  0
  8  9  1  0
  9 11  1  0
 10  9  2  0
 12 11  1  6
 12 13  1  0
 14 12  1  0
 15 14  2  0
 16 17  1  0
 17 19  1  0
 17 18  2  0
 20 19  1  1
 20 22  1  0
 20 21  1  0
 21 14  1  0
 22 24  1  0
 23 22  2  0
M  END
$$$$
