PNN.pdb
     RDKit          3D

 24 24  0  0  1  0  0  0  0  0999 V2000
   18.5045  -15.5943    2.8541 N   0  0  0  0  0  0  0  0  0  0  0  0
   18.2794  -14.5526    1.8675 C   0  0  0  0  0  0  0  0  0  0  0  0
   16.8281  -14.1959    2.0819 C   0  0  0  0  0  0  0  0  0  0  0  0
   16.5980  -14.4237    3.5586 C   0  0  0  0  0  0  0  0  0  0  0  0
   17.7942  -15.1010    4.0452 C   0  0  1  0  0  0  0  0  0  0  0  0
   17.6949  -16.1184    5.0698 C   0  0  0  0  0  0  0  0  0  0  0  0
   17.1434  -15.8244    6.1622 O   0  0  0  0  0  0  0  0  0  0  0  0
   16.0350  -18.7495    4.2200 N   0  0  0  0  0  0  0  0  0  0  0  0
   16.8042  -19.8944    4.5243 C   0  0  0  0  0  0  0  0  0  0  0  0
   16.5341  -20.9773    3.9767 O   0  0  0  0  0  0  0  0  0  0  0  0
   17.9160  -19.8040    5.4813 C   0  0  0  0  0  0  0  0  0  0  0  0
   18.1762  -18.4107    5.9998 C   0  0  2  0  0  0  0  0  0  0  0  0
   18.1804  -17.4550    4.9405 N   0  0  0  0  0  0  0  0  0  0  0  0
   19.4140  -18.3722    6.8408 C   0  0  0  0  0  0  0  0  0  0  0  0
   20.5186  -18.6517    6.3138 O   0  0  0  0  0  0  0  0  0  0  0  0
   23.0778  -17.0262    9.7063 N   0  0  0  0  0  0  0  0  0  0  0  0
   22.0065  -16.1299    9.9418 C   0  0  0  0  0  0  0  0  0  0  0  0
   22.2616  -15.0049   10.4177 O   0  0  0  0  0  0  0  0  0  0  0  0
   20.6276  -16.5368    9.6236 C   0  0  0  0  0  0  0  0  0  0  0  0
   20.4821  -17.9097    9.0613 C   0  0  2  0  0  0  0  0  0  0  0  0
   19.3263  -18.0253    8.2101 N   0  0  0  0  0  0  0  0  0  0  0  0
   20.4795  -18.9954   10.0764 C   0  0  0  0  0  0  0  0  0  0  0  0
   19.4923  -19.7281   10.3105 O   0  0  0  0  0  0  0  0  0  0  0  0
   21.6255  -19.2223   10.8161 O   0  0  0  0  0  0  0  0  0  0  0  0
  1  5  1  0
  1  2  1  0
  2  3  1  0
  4  3  1  0
  5  4  1  0
  6 13  1  0
  5  6  1  1
  7  6  2  0
  8  9  1  0
  9 11  1  0
 10  9  2  0
 12 11  1  6
 12 13  1  0
 14 12  1  0
 15 14  2  0
 16 17  1  0
 17 19  1  0
 17 18  2  0
 20 19  1  1
 20 22  1  0
 20 21  1  0
 21 14  1  0
 22 24  1  0
 23 22  2  0
M  END
$$$$
