PNN.pdb
     RDKit          3D

 24 24  0  0  1  0  0  0  0  0999 V2000
   27.0475  -33.0495   -7.5876 N   0  0  0  0  0  0  0  0  0  0  0  0
   26.6990  -32.5671   -8.9125 C   0  0  0  0  0  0  0  0  0  0  0  0
   25.2217  -32.8657   -9.0001 C   0  0  0  0  0  0  0  0  0  0  0  0
   24.7242  -32.7275   -7.5792 C   0  0  0  0  0  0  0  0  0  0  0  0
   25.9190  -32.6083   -6.7518 C   0  0  1  0  0  0  0  0  0  0  0  0
   25.9613  -33.2069   -5.4347 C   0  0  0  0  0  0  0  0  0  0  0  0
   24.9682  -33.0660   -4.6746 O   0  0  0  0  0  0  0  0  0  0  0  0
   28.8155  -37.3857   -5.3572 N   0  0  0  0  0  0  0  0  0  0  0  0
   27.7820  -36.8601   -4.5506 C   0  0  0  0  0  0  0  0  0  0  0  0
   26.6386  -37.3418   -4.6288 O   0  0  0  0  0  0  0  0  0  0  0  0
   28.0585  -35.7520   -3.6254 C   0  0  0  0  0  0  0  0  0  0  0  0
   27.0365  -34.6421   -3.6641 C   0  0  2  0  0  0  0  0  0  0  0  0
   27.0586  -33.9595   -4.9167 N   0  0  0  0  0  0  0  0  0  0  0  0
   27.1880  -33.7302   -2.4867 C   0  0  0  0  0  0  0  0  0  0  0  0
   28.1465  -32.9199   -2.4620 O   0  0  0  0  0  0  0  0  0  0  0  0
   26.1093  -31.0246    1.8176 N   0  0  0  0  0  0  0  0  0  0  0  0
   24.9382  -31.7244    1.4364 C   0  0  0  0  0  0  0  0  0  0  0  0
   23.9051  -31.5792    2.1212 O   0  0  0  0  0  0  0  0  0  0  0  0
   24.9605  -32.5996    0.2524 C   0  0  0  0  0  0  0  0  0  0  0  0
   26.3161  -32.9130   -0.2827 C   0  0  2  0  0  0  0  0  0  0  0  0
   26.2574  -33.7916   -1.4221 N   0  0  0  0  0  0  0  0  0  0  0  0
   27.2694  -33.4466    0.7251 C   0  0  0  0  0  0  0  0  0  0  0  0
   27.3107  -34.6463    1.0786 O   0  0  0  0  0  0  0  0  0  0  0  0
   28.1694  -32.5806    1.3187 O   0  0  0  0  0  0  0  0  0  0  0  0
  1  5  1  0
  1  2  1  0
  2  3  1  0
  4  3  1  0
  5  4  1  0
  6 13  1  0
  5  6  1  1
  7  6  2  0
  8  9  1  0
  9 11  1  0
 10  9  2  0
 12 11  1  6
 12 13  1  0
 14 12  1  0
 15 14  2  0
 16 17  1  0
 17 19  1  0
 17 18  2  0
 20 19  1  1
 20 22  1  0
 20 21  1  0
 21 14  1  0
 22 24  1  0
 23 22  2  0
M  END
$$$$
