PNN.pdb
     RDKit          3D

 24 24  0  0  1  0  0  0  0  0999 V2000
   17.8109   -9.8234  -17.6605 N   0  0  0  0  0  0  0  0  0  0  0  0
   16.5077  -10.1460  -18.2143 C   0  0  0  0  0  0  0  0  0  0  0  0
   16.2037  -11.4892  -17.5956 C   0  0  0  0  0  0  0  0  0  0  0  0
   16.8776  -11.4425  -16.2431 C   0  0  0  0  0  0  0  0  0  0  0  0
   17.7001  -10.2383  -16.2526 C   0  0  1  0  0  0  0  0  0  0  0  0
   18.9849  -10.2228  -15.5864 C   0  0  0  0  0  0  0  0  0  0  0  0
   19.0164  -10.3188  -14.3319 O   0  0  0  0  0  0  0  0  0  0  0  0
   23.9509  -10.8467  -14.3789 N   0  0  0  0  0  0  0  0  0  0  0  0
   23.7806  -11.2238  -15.7294 C   0  0  0  0  0  0  0  0  0  0  0  0
   24.7106  -11.7898  -16.3294 O   0  0  0  0  0  0  0  0  0  0  0  0
   22.5119  -10.9485  -16.4185 C   0  0  0  0  0  0  0  0  0  0  0  0
   21.5048  -10.1937  -15.5856 C   0  0  2  0  0  0  0  0  0  0  0  0
   20.2445  -10.1057  -16.2484 N   0  0  0  0  0  0  0  0  0  0  0  0
   22.0470   -8.8650  -15.1595 C   0  0  0  0  0  0  0  0  0  0  0  0
   23.0891   -8.8271  -14.4604 O   0  0  0  0  0  0  0  0  0  0  0  0
   22.5017   -3.6984  -14.5434 N   0  0  0  0  0  0  0  0  0  0  0  0
   22.1659   -4.0076  -15.8844 C   0  0  0  0  0  0  0  0  0  0  0  0
   22.1923   -3.0936  -16.7335 O   0  0  0  0  0  0  0  0  0  0  0  0
   21.7967   -5.3860  -16.2479 C   0  0  0  0  0  0  0  0  0  0  0  0
   21.8200   -6.3685  -15.1270 C   0  0  2  0  0  0  0  0  0  0  0  0
   21.3839   -7.6756  -15.5452 N   0  0  0  0  0  0  0  0  0  0  0  0
   21.0693   -5.9425  -13.9170 C   0  0  0  0  0  0  0  0  0  0  0  0
   20.0716   -6.5488  -13.4666 O   0  0  0  0  0  0  0  0  0  0  0  0
   21.4821   -4.8110  -13.2377 O   0  0  0  0  0  0  0  0  0  0  0  0
  1  5  1  0
  1  2  1  0
  2  3  1  0
  4  3  1  0
  5  4  1  0
  6 13  1  0
  5  6  1  6
  7  6  2  0
  8  9  1  0
  9 11  1  0
 10  9  2  0
 12 11  1  6
 12 13  1  0
 14 12  1  0
 15 14  2  0
 16 17  1  0
 17 19  1  0
 17 18  2  0
 20 19  1  6
 20 22  1  0
 20 21  1  0
 21 14  1  0
 22 24  1  0
 23 22  2  0
M  END
$$$$
