EMQ.pdb
     RDKit          3D

 27 26  0  0  1  0  0  0  0  0999 V2000
   18.4201  -13.8575  -16.0584 N   0  0  0  0  0  0  0  0  0  0  0  0
   19.0975  -13.1588  -17.1009 C   0  0  1  0  0  0  0  0  0  0  0  0
   18.2379  -12.4459  -18.0773 C   0  0  0  0  0  0  0  0  0  0  0  0
   17.2899  -13.3018  -18.8498 C   0  0  0  0  0  0  0  0  0  0  0  0
   17.8676  -14.1775  -19.8704 C   0  0  0  0  0  0  0  0  0  0  0  0
   19.0831  -14.1964  -20.1679 O   0  0  0  0  0  0  0  0  0  0  0  0
   20.0955  -12.2184  -16.4879 C   0  0  0  0  0  0  0  0  0  0  0  0
   19.7967  -11.5551  -15.4814 O   0  0  0  0  0  0  0  0  0  0  0  0
   17.0472  -15.0795  -20.5975 O   0  0  0  0  0  0  0  0  0  0  0  0
   27.6921  -10.7765  -15.1623 C   0  0  0  0  0  0  0  0  0  0  0  0
   26.4346  -11.7013  -16.0683 S   0  0  0  0  0  0  0  0  0  0  0  0
   24.7996  -10.8986  -15.9006 C   0  0  0  0  0  0  0  0  0  0  0  0
   23.7677  -11.7194  -16.6255 C   0  0  0  0  0  0  0  0  0  0  0  0
   22.3724  -11.2299  -16.4733 C   0  0  2  0  0  0  0  0  0  0  0  0
   21.3798  -12.0874  -17.0584 N   0  0  0  0  0  0  0  0  0  0  0  0
   22.1891   -9.8037  -16.8697 C   0  0  0  0  0  0  0  0  0  0  0  0
   22.0617   -9.4554  -18.0927 O   0  0  0  0  0  0  0  0  0  0  0  0
   18.1271   -7.8856  -18.3109 N   0  0  0  0  0  0  0  0  0  0  0  0
   18.2472   -6.6031  -17.7317 C   0  0  0  0  0  0  0  0  0  0  0  0
   17.4337   -5.6971  -18.0110 O   0  0  0  0  0  0  0  0  0  0  0  0
   19.3781   -6.3477  -16.7677 C   0  0  0  0  0  0  0  0  0  0  0  0
   20.1721   -7.5970  -16.5600 C   0  0  0  0  0  0  0  0  0  0  0  0
   21.6059   -7.4167  -16.2059 C   0  0  2  0  0  0  0  0  0  0  0  0
   22.1449   -8.7557  -15.9256 N   0  0  0  0  0  0  0  0  0  0  0  0
   21.7853   -6.5161  -15.0768 C   0  0  0  0  0  0  0  0  0  0  0  0
   21.9688   -6.9633  -13.9252 O   0  0  0  0  0  0  0  0  0  0  0  0
   21.7514   -5.1308  -15.2857 O   0  0  0  0  0  0  0  0  0  0  0  0
  2  1  1  1
  2  3  1  0
  4  3  1  0
  5  4  1  0
  5  6  2  0
  7  2  1  0
  8  7  2  0
  9  5  1  0
 11 10  1  0
 11 12  1  0
 12 13  1  0
 14 13  1  6
 14 15  1  0
 15  7  1  0
 16 24  1  0
 16 14  1  0
 17 16  2  0
 19 18  1  0
 19 21  1  0
 20 19  2  0
 22 21  1  0
 23 22  1  1
 23 24  1  0
 25 27  1  0
 25 23  1  0
 26 25  2  0
M  END
$$$$
