EMQ.pdb
     RDKit          3D

 27 26  0  0  1  0  0  0  0  0999 V2000
   28.1457  -21.9613  -15.5494 N   0  0  0  0  0  0  0  0  0  0  0  0
   27.6039  -20.8002  -14.9231 C   0  0  1  0  0  0  0  0  0  0  0  0
   26.9185  -19.8341  -15.8161 C   0  0  0  0  0  0  0  0  0  0  0  0
   27.7615  -19.2420  -16.8963 C   0  0  0  0  0  0  0  0  0  0  0  0
   27.0964  -18.3403  -17.8379 C   0  0  0  0  0  0  0  0  0  0  0  0
   27.0363  -17.0988  -17.6922 O   0  0  0  0  0  0  0  0  0  0  0  0
   26.6934  -21.2289  -13.8081 C   0  0  0  0  0  0  0  0  0  0  0  0
   25.8576  -22.1291  -13.9912 O   0  0  0  0  0  0  0  0  0  0  0  0
   26.4652  -18.8493  -19.0031 O   0  0  0  0  0  0  0  0  0  0  0  0
   27.8136  -20.2134   -7.5838 C   0  0  0  0  0  0  0  0  0  0  0  0
   26.0477  -20.5513   -7.4270 S   0  0  0  0  0  0  0  0  0  0  0  0
   25.3248  -20.9666   -9.0551 C   0  0  0  0  0  0  0  0  0  0  0  0
   26.3005  -20.5974  -10.1394 C   0  0  0  0  0  0  0  0  0  0  0  0
   25.8094  -20.8435  -11.5207 C   0  0  2  0  0  0  0  0  0  0  0  0
   26.7875  -20.6056  -12.5452 N   0  0  0  0  0  0  0  0  0  0  0  0
   24.5062  -20.1833  -11.8219 C   0  0  0  0  0  0  0  0  0  0  0  0
   24.4405  -18.9659  -12.2053 O   0  0  0  0  0  0  0  0  0  0  0  0
   21.1161  -19.7409  -16.1674 N   0  0  0  0  0  0  0  0  0  0  0  0
   21.2630  -21.1178  -15.8891 C   0  0  0  0  0  0  0  0  0  0  0  0
   20.8860  -21.9796  -16.7110 O   0  0  0  0  0  0  0  0  0  0  0  0
   21.8849  -21.5284  -14.5784 C   0  0  0  0  0  0  0  0  0  0  0  0
   22.2598  -20.3196  -13.7831 C   0  0  0  0  0  0  0  0  0  0  0  0
   22.0184  -20.3931  -12.3168 C   0  0  2  0  0  0  0  0  0  0  0  0
   23.2717  -20.8567  -11.7035 N   0  0  0  0  0  0  0  0  0  0  0  0
   20.9012  -21.2651  -11.9856 C   0  0  0  0  0  0  0  0  0  0  0  0
   21.0880  -22.4718  -11.7233 O   0  0  0  0  0  0  0  0  0  0  0  0
   19.6009  -20.7432  -11.9613 O   0  0  0  0  0  0  0  0  0  0  0  0
  2  1  1  6
  2  3  1  0
  4  3  1  0
  5  4  1  0
  5  6  2  0
  7  2  1  0
  8  7  2  0
  9  5  1  0
 11 10  1  0
 11 12  1  0
 12 13  1  0
 14 13  1  1
 14 15  1  0
 15  7  1  0
 16 24  1  0
 16 14  1  0
 17 16  2  0
 19 18  1  0
 19 21  1  0
 20 19  2  0
 22 21  1  0
 23 22  1  6
 23 24  1  0
 25 27  1  0
 25 23  1  0
 26 25  2  0
M  END
$$$$
