EMQ.pdb
     RDKit          3D

 27 26  0  0  1  0  0  0  0  0999 V2000
   27.6485  -19.7093  -14.6293 N   0  0  0  0  0  0  0  0  0  0  0  0
   26.9953  -20.8631  -15.1546 C   0  0  1  0  0  0  0  0  0  0  0  0
   27.8716  -22.0049  -15.5140 C   0  0  0  0  0  0  0  0  0  0  0  0
   29.0537  -21.6706  -16.3618 C   0  0  0  0  0  0  0  0  0  0  0  0
   28.8166  -21.5101  -17.7971 C   0  0  0  0  0  0  0  0  0  0  0  0
   28.1351  -22.3025  -18.4854 O   0  0  0  0  0  0  0  0  0  0  0  0
   25.9268  -21.2976  -14.1926 C   0  0  0  0  0  0  0  0  0  0  0  0
   25.0609  -22.1157  -14.5439 O   0  0  0  0  0  0  0  0  0  0  0  0
   29.3682  -20.4083  -18.5021 O   0  0  0  0  0  0  0  0  0  0  0  0
   28.5994  -20.2673   -8.1041 C   0  0  0  0  0  0  0  0  0  0  0  0
   26.8419  -20.2486   -8.5145 S   0  0  0  0  0  0  0  0  0  0  0  0
   26.5623  -20.9519  -10.1798 C   0  0  0  0  0  0  0  0  0  0  0  0
   25.1172  -20.7714  -10.5578 C   0  0  0  0  0  0  0  0  0  0  0  0
   24.8153  -21.0436  -11.9876 C   0  0  2  0  0  0  0  0  0  0  0  0
   25.9060  -20.7736  -12.8822 N   0  0  0  0  0  0  0  0  0  0  0  0
   23.5370  -20.4358  -12.4584 C   0  0  0  0  0  0  0  0  0  0  0  0
   23.5119  -19.3266  -13.0927 O   0  0  0  0  0  0  0  0  0  0  0  0
   22.4158  -20.0205  -16.7281 N   0  0  0  0  0  0  0  0  0  0  0  0
   21.0513  -20.3851  -16.7338 C   0  0  0  0  0  0  0  0  0  0  0  0
   20.3159  -20.0929  -17.7004 O   0  0  0  0  0  0  0  0  0  0  0  0
   20.4981  -21.1356  -15.5489 C   0  0  0  0  0  0  0  0  0  0  0  0
   21.5355  -21.2487  -14.4787 C   0  0  0  0  0  0  0  0  0  0  0  0
   21.1126  -20.8613  -13.1058 C   0  0  2  0  0  0  0  0  0  0  0  0
   22.2830  -21.0431  -12.2345 N   0  0  0  0  0  0  0  0  0  0  0  0
   19.9703  -21.6351  -12.6425 C   0  0  0  0  0  0  0  0  0  0  0  0
   20.1332  -22.6913  -11.9964 O   0  0  0  0  0  0  0  0  0  0  0  0
   18.6725  -21.1883  -12.9256 O   0  0  0  0  0  0  0  0  0  0  0  0
  2  1  1  1
  2  3  1  0
  4  3  1  0
  5  4  1  0
  5  6  2  0
  7  2  1  0
  8  7  2  0
  9  5  1  0
 11 10  1  0
 11 12  1  0
 12 13  1  0
 14 13  1  1
 14 15  1  0
 15  7  1  0
 16 24  1  0
 16 14  1  0
 17 16  2  0
 19 18  1  0
 19 21  1  0
 20 19  2  0
 22 21  1  0
 23 22  1  6
 23 24  1  0
 25 27  1  0
 25 23  1  0
 26 25  2  0
M  END
$$$$
