EMQ.pdb
     RDKit          3D

 27 26  0  0  1  0  0  0  0  0999 V2000
   26.4277  -21.6408  -15.2557 N   0  0  0  0  0  0  0  0  0  0  0  0
   26.4105  -20.6013  -14.2796 C   0  0  1  0  0  0  0  0  0  0  0  0
   25.8787  -19.2910  -14.7278 C   0  0  0  0  0  0  0  0  0  0  0  0
   24.7535  -19.3508  -15.7068 C   0  0  0  0  0  0  0  0  0  0  0  0
   25.0989  -19.2227  -17.1232 C   0  0  0  0  0  0  0  0  0  0  0  0
   26.1519  -18.6901  -17.5400 O   0  0  0  0  0  0  0  0  0  0  0  0
   25.6707  -21.0860  -13.0656 C   0  0  0  0  0  0  0  0  0  0  0  0
   25.0631  -22.1689  -13.0917 O   0  0  0  0  0  0  0  0  0  0  0  0
   24.2246  -19.7143  -18.1278 O   0  0  0  0  0  0  0  0  0  0  0  0
   27.4920  -19.4293   -7.1677 C   0  0  0  0  0  0  0  0  0  0  0  0
   25.8246  -19.9648   -6.7312 S   0  0  0  0  0  0  0  0  0  0  0  0
   25.0001  -20.7385   -8.1691 C   0  0  0  0  0  0  0  0  0  0  0  0
   25.6095  -20.2040   -9.4367 C   0  0  0  0  0  0  0  0  0  0  0  0
   25.0410  -20.7788  -10.6842 C   0  0  2  0  0  0  0  0  0  0  0  0
   25.6655  -20.3071  -11.8886 N   0  0  0  0  0  0  0  0  0  0  0  0
   23.5529  -20.7064  -10.7557 C   0  0  0  0  0  0  0  0  0  0  0  0
   22.9504  -19.6875  -11.2373 O   0  0  0  0  0  0  0  0  0  0  0  0
   19.7409  -23.7237   -7.1126 N   0  0  0  0  0  0  0  0  0  0  0  0
   18.7576  -23.3276   -8.0458 C   0  0  0  0  0  0  0  0  0  0  0  0
   17.5467  -23.5454   -7.8294 O   0  0  0  0  0  0  0  0  0  0  0  0
   19.1979  -22.6351   -9.3107 C   0  0  0  0  0  0  0  0  0  0  0  0
   20.6778  -22.4248   -9.2963 C   0  0  0  0  0  0  0  0  0  0  0  0
   21.2676  -21.7998  -10.5108 C   0  0  2  0  0  0  0  0  0  0  0  0
   22.7218  -21.7516  -10.2992 N   0  0  0  0  0  0  0  0  0  0  0  0
   20.7169  -20.4784  -10.7730 C   0  0  0  0  0  0  0  0  0  0  0  0
   19.5767  -20.3471  -11.2656 O   0  0  0  0  0  0  0  0  0  0  0  0
   21.4762  -19.3405  -10.4686 O   0  0  0  0  0  0  0  0  0  0  0  0
  2  1  1  6
  2  3  1  0
  4  3  1  0
  5  4  1  0
  5  6  2  0
  7  2  1  0
  8  7  2  0
  9  5  1  0
 11 10  1  0
 11 12  1  0
 12 13  1  0
 14 13  1  1
 14 15  1  0
 15  7  1  0
 16 24  1  0
 16 14  1  0
 17 16  2  0
 19 18  1  0
 19 21  1  0
 20 19  2  0
 22 21  1  0
 23 22  1  1
 23 24  1  0
 25 27  1  0
 25 23  1  0
 26 25  2  0
M  END
$$$$
