EMQ.pdb
     RDKit          3D

 27 26  0  0  1  0  0  0  0  0999 V2000
   14.4490  -11.5599  -10.1561 N   0  0  0  0  0  0  0  0  0  0  0  0
   15.3863  -10.5419  -10.5011 C   0  0  1  0  0  0  0  0  0  0  0  0
   15.8922  -10.5631  -11.8955 C   0  0  0  0  0  0  0  0  0  0  0  0
   16.6230  -11.8004  -12.2992 C   0  0  0  0  0  0  0  0  0  0  0  0
   17.2157  -11.8140  -13.6373 C   0  0  0  0  0  0  0  0  0  0  0  0
   18.3033  -11.2658  -13.9252 O   0  0  0  0  0  0  0  0  0  0  0  0
   14.7920   -9.2020  -10.1735 C   0  0  0  0  0  0  0  0  0  0  0  0
   13.7114   -8.8545  -10.6776 O   0  0  0  0  0  0  0  0  0  0  0  0
   16.5618  -12.4735  -14.7110 O   0  0  0  0  0  0  0  0  0  0  0  0
   10.3842   -7.4765   -5.9372 C   0  0  0  0  0  0  0  0  0  0  0  0
   12.1534   -7.1206   -5.9593 S   0  0  0  0  0  0  0  0  0  0  0  0
   12.8355   -7.3516   -7.6407 C   0  0  0  0  0  0  0  0  0  0  0  0
   14.2823   -6.9387   -7.6497 C   0  0  0  0  0  0  0  0  0  0  0  0
   14.9416   -7.0312   -8.9788 C   0  0  2  0  0  0  0  0  0  0  0  0
   15.4646   -8.3327   -9.2881 N   0  0  0  0  0  0  0  0  0  0  0  0
   15.9365   -5.9493   -9.2329 C   0  0  0  0  0  0  0  0  0  0  0  0
   17.1152   -5.9889   -8.7406 O   0  0  0  0  0  0  0  0  0  0  0  0
   16.8927   -3.3115  -14.4000 N   0  0  0  0  0  0  0  0  0  0  0  0
   17.6412   -2.3636  -13.6678 C   0  0  0  0  0  0  0  0  0  0  0  0
   18.3529   -1.5207  -14.2540 O   0  0  0  0  0  0  0  0  0  0  0  0
   17.5646   -2.3882  -12.1622 C   0  0  0  0  0  0  0  0  0  0  0  0
   16.7082   -3.5256  -11.7069 C   0  0  0  0  0  0  0  0  0  0  0  0
   16.5642   -3.6959  -10.2359 C   0  0  2  0  0  0  0  0  0  0  0  0
   15.6411   -4.8213  -10.0277 N   0  0  0  0  0  0  0  0  0  0  0  0
   16.0913   -2.4832   -9.5848 C   0  0  0  0  0  0  0  0  0  0  0  0
   14.9073   -2.3842   -9.2000 O   0  0  0  0  0  0  0  0  0  0  0  0
   16.9762   -1.4144   -9.3881 O   0  0  0  0  0  0  0  0  0  0  0  0
  2  1  1  6
  2  3  1  0
  4  3  1  0
  5  4  1  0
  5  6  2  0
  7  2  1  0
  8  7  2  0
  9  5  1  0
 11 10  1  0
 11 12  1  0
 12 13  1  0
 14 13  1  1
 14 15  1  0
 15  7  1  0
 16 24  1  0
 16 14  1  0
 17 16  2  0
 19 18  1  0
 19 21  1  0
 20 19  2  0
 22 21  1  0
 23 22  1  6
 23 24  1  0
 25 27  1  0
 25 23  1  0
 26 25  2  0
M  END
$$$$
