EMQ.pdb
     RDKit          3D

 27 26  0  0  1  0  0  0  0  0999 V2000
   26.5857  -22.3536  -14.7791 N   0  0  0  0  0  0  0  0  0  0  0  0
   26.9873  -21.2826  -13.9273 C   0  0  1  0  0  0  0  0  0  0  0  0
   26.7975  -19.9128  -14.4640 C   0  0  0  0  0  0  0  0  0  0  0  0
   26.1378  -19.8278  -15.8003 C   0  0  0  0  0  0  0  0  0  0  0  0
   26.8560  -19.1034  -16.8498 C   0  0  0  0  0  0  0  0  0  0  0  0
   27.7536  -19.6102  -17.5594 O   0  0  0  0  0  0  0  0  0  0  0  0
   26.2992  -21.4318  -12.6005 C   0  0  0  0  0  0  0  0  0  0  0  0
   25.2674  -22.1161  -12.5021 O   0  0  0  0  0  0  0  0  0  0  0  0
   26.5578  -17.7425  -17.1227 O   0  0  0  0  0  0  0  0  0  0  0  0
   26.5238  -19.9316   -4.7963 C   0  0  0  0  0  0  0  0  0  0  0  0
   27.3220  -19.7917   -6.4090 S   0  0  0  0  0  0  0  0  0  0  0  0
   26.1883  -20.3350   -7.7376 C   0  0  0  0  0  0  0  0  0  0  0  0
   26.9308  -20.3532   -9.0462 C   0  0  0  0  0  0  0  0  0  0  0  0
   26.1139  -20.7792  -10.2128 C   0  0  2  0  0  0  0  0  0  0  0  0
   26.8274  -20.7912  -11.4592 N   0  0  0  0  0  0  0  0  0  0  0  0
   24.8046  -20.0726  -10.3199 C   0  0  0  0  0  0  0  0  0  0  0  0
   24.7316  -18.8000  -10.4129 O   0  0  0  0  0  0  0  0  0  0  0  0
   23.2943  -19.5578  -14.9525 N   0  0  0  0  0  0  0  0  0  0  0  0
   21.9641  -19.2298  -14.6094 C   0  0  0  0  0  0  0  0  0  0  0  0
   21.1744  -18.7826  -15.4679 O   0  0  0  0  0  0  0  0  0  0  0  0
   21.5142  -19.4301  -13.1843 C   0  0  0  0  0  0  0  0  0  0  0  0
   22.6476  -19.9350  -12.3507 C   0  0  0  0  0  0  0  0  0  0  0  0
   22.3379  -20.2331  -10.9264 C   0  0  2  0  0  0  0  0  0  0  0  0
   23.5722  -20.7599  -10.3254 N   0  0  0  0  0  0  0  0  0  0  0  0
   21.2297  -21.1661  -10.7873 C   0  0  0  0  0  0  0  0  0  0  0  0
   21.4014  -22.3920  -10.9530 O   0  0  0  0  0  0  0  0  0  0  0  0
   19.9551  -20.6817  -10.4636 O   0  0  0  0  0  0  0  0  0  0  0  0
  2  1  1  6
  2  3  1  0
  4  3  1  0
  5  4  1  0
  5  6  2  0
  7  2  1  0
  8  7  2  0
  9  5  1  0
 11 10  1  0
 11 12  1  0
 12 13  1  0
 14 13  1  1
 14 15  1  0
 15  7  1  0
 16 24  1  0
 16 14  1  0
 17 16  2  0
 19 18  1  0
 19 21  1  0
 20 19  2  0
 22 21  1  0
 23 22  1  6
 23 24  1  0
 25 27  1  0
 25 23  1  0
 26 25  2  0
M  END
$$$$
