EMQ.pdb
     RDKit          3D

 27 26  0  0  1  0  0  0  0  0999 V2000
   16.1707  -12.0226  -10.8569 N   0  0  0  0  0  0  0  0  0  0  0  0
   15.9985  -10.9347  -11.7629 C   0  0  1  0  0  0  0  0  0  0  0  0
   14.5985  -10.5842  -12.1063 C   0  0  0  0  0  0  0  0  0  0  0  0
   13.6025  -10.7493  -11.0069 C   0  0  0  0  0  0  0  0  0  0  0  0
   12.2104  -10.4222  -11.3182 C   0  0  0  0  0  0  0  0  0  0  0  0
   11.2699  -10.5189  -10.4982 O   0  0  0  0  0  0  0  0  0  0  0  0
   16.7289   -9.7361  -11.2284 C   0  0  0  0  0  0  0  0  0  0  0  0
   16.6560   -9.4423  -10.0238 O   0  0  0  0  0  0  0  0  0  0  0  0
   11.8475   -9.9632  -12.6116 O   0  0  0  0  0  0  0  0  0  0  0  0
   23.2200   -9.3616  -12.9868 C   0  0  0  0  0  0  0  0  0  0  0  0
   22.0079   -8.0246  -13.0080 S   0  0  0  0  0  0  0  0  0  0  0  0
   20.4650   -8.5411  -12.1723 C   0  0  0  0  0  0  0  0  0  0  0  0
   19.4408   -7.4466  -12.3018 C   0  0  0  0  0  0  0  0  0  0  0  0
   18.1413   -7.7369  -11.6409 C   0  0  2  0  0  0  0  0  0  0  0  0
   17.5024   -8.9389  -12.0991 N   0  0  0  0  0  0  0  0  0  0  0  0
   17.2058   -6.5753  -11.6180 C   0  0  0  0  0  0  0  0  0  0  0  0
   16.4329   -6.3132  -12.6015 O   0  0  0  0  0  0  0  0  0  0  0  0
   14.7130   -4.6174   -6.5135 N   0  0  0  0  0  0  0  0  0  0  0  0
   14.2629   -3.5248   -7.2872 C   0  0  0  0  0  0  0  0  0  0  0  0
   13.4747   -2.6832   -6.8068 O   0  0  0  0  0  0  0  0  0  0  0  0
   14.7531   -3.3933   -8.7070 C   0  0  0  0  0  0  0  0  0  0  0  0
   15.6496   -4.5385   -9.0523 C   0  0  0  0  0  0  0  0  0  0  0  0
   16.1835   -4.5635  -10.4408 C   0  0  2  0  0  0  0  0  0  0  0  0
   17.1157   -5.6981  -10.5162 N   0  0  0  0  0  0  0  0  0  0  0  0
   16.8283   -3.3108  -10.8057 C   0  0  0  0  0  0  0  0  0  0  0  0
   18.0702   -3.1913  -10.7507 O   0  0  0  0  0  0  0  0  0  0  0  0
   16.0449   -2.2265  -11.2234 O   0  0  0  0  0  0  0  0  0  0  0  0
  2  1  1  1
  2  3  1  0
  4  3  1  0
  5  4  1  0
  5  6  2  0
  7  2  1  0
  8  7  2  0
  9  5  1  0
 11 10  1  0
 11 12  1  0
 12 13  1  0
 14 13  1  6
 14 15  1  0
 15  7  1  0
 16 24  1  0
 16 14  1  0
 17 16  2  0
 19 18  1  0
 19 21  1  0
 20 19  2  0
 22 21  1  0
 23 22  1  1
 23 24  1  0
 25 27  1  0
 25 23  1  0
 26 25  2  0
M  END
$$$$
