EMQ.pdb
     RDKit          3D

 27 26  0  0  1  0  0  0  0  0999 V2000
   22.5701  -13.4601  -18.9065 N   0  0  0  0  0  0  0  0  0  0  0  0
   21.9884  -13.8692  -17.6703 C   0  0  1  0  0  0  0  0  0  0  0  0
   22.2103  -15.2825  -17.2782 C   0  0  0  0  0  0  0  0  0  0  0  0
   21.5082  -16.3025  -18.1118 C   0  0  0  0  0  0  0  0  0  0  0  0
   20.1409  -15.9903  -18.5302 C   0  0  0  0  0  0  0  0  0  0  0  0
   19.1202  -16.3260  -17.8886 O   0  0  0  0  0  0  0  0  0  0  0  0
   22.4493  -12.9395  -16.5844 C   0  0  0  0  0  0  0  0  0  0  0  0
   22.1082  -13.1328  -15.4059 O   0  0  0  0  0  0  0  0  0  0  0  0
   19.8988  -15.2657  -19.7267 O   0  0  0  0  0  0  0  0  0  0  0  0
   28.1465  -10.4837  -16.6554 C   0  0  0  0  0  0  0  0  0  0  0  0
   27.7732  -11.9695  -15.7012 S   0  0  0  0  0  0  0  0  0  0  0  0
   25.9650  -12.1923  -15.5381 C   0  0  0  0  0  0  0  0  0  0  0  0
   25.2755  -10.8908  -15.8457 C   0  0  0  0  0  0  0  0  0  0  0  0
   23.7917  -10.9729  -15.8827 C   0  0  2  0  0  0  0  0  0  0  0  0
   23.2746  -11.8401  -16.9042 N   0  0  0  0  0  0  0  0  0  0  0  0
   23.1158   -9.6432  -15.8774 C   0  0  0  0  0  0  0  0  0  0  0  0
   22.8573   -9.0146  -16.9596 O   0  0  0  0  0  0  0  0  0  0  0  0
   24.6513   -4.9413  -16.3477 N   0  0  0  0  0  0  0  0  0  0  0  0
   23.4036   -4.3980  -15.9697 C   0  0  0  0  0  0  0  0  0  0  0  0
   23.1467   -3.1911  -16.1649 O   0  0  0  0  0  0  0  0  0  0  0  0
   22.3854   -5.3041  -15.3250 C   0  0  0  0  0  0  0  0  0  0  0  0
   22.9051   -6.7043  -15.2640 C   0  0  0  0  0  0  0  0  0  0  0  0
   22.0088   -7.7144  -14.6394 C   0  0  2  0  0  0  0  0  0  0  0  0
   22.7218   -8.9996  -14.6849 N   0  0  0  0  0  0  0  0  0  0  0  0
   20.7168   -7.7908  -15.3050 C   0  0  0  0  0  0  0  0  0  0  0  0
   20.6389   -8.0692  -16.5200 O   0  0  0  0  0  0  0  0  0  0  0  0
   19.5468   -7.5487  -14.5724 O   0  0  0  0  0  0  0  0  0  0  0  0
  2  1  1  6
  2  3  1  0
  4  3  1  0
  5  4  1  0
  5  6  2  0
  7  2  1  0
  8  7  2  0
  9  5  1  0
 11 10  1  0
 11 12  1  0
 12 13  1  0
 14 13  1  6
 14 15  1  0
 15  7  1  0
 16 24  1  0
 16 14  1  0
 17 16  2  0
 19 18  1  0
 19 21  1  0
 20 19  2  0
 22 21  1  0
 23 22  1  6
 23 24  1  0
 25 27  1  0
 25 23  1  0
 26 25  2  0
M  END
$$$$
