EMQ.pdb
     RDKit          3D

 27 26  0  0  1  0  0  0  0  0999 V2000
   17.7257  -24.6465   -6.6987 N   0  0  0  0  0  0  0  0  0  0  0  0
   18.5972  -24.7566   -7.8222 C   0  0  1  0  0  0  0  0  0  0  0  0
   18.2059  -25.7413   -8.8603 C   0  0  0  0  0  0  0  0  0  0  0  0
   18.3075  -27.1761   -8.4613 C   0  0  0  0  0  0  0  0  0  0  0  0
   17.0521  -27.8860   -8.2125 C   0  0  0  0  0  0  0  0  0  0  0  0
   15.9192  -27.3869   -8.3959 O   0  0  0  0  0  0  0  0  0  0  0  0
   18.7850  -23.3949   -8.4276 C   0  0  0  0  0  0  0  0  0  0  0  0
   17.8153  -22.6320   -8.5695 O   0  0  0  0  0  0  0  0  0  0  0  0
   17.0600  -29.2226   -7.7341 O   0  0  0  0  0  0  0  0  0  0  0  0
   24.6085  -20.6518   -9.4748 C   0  0  0  0  0  0  0  0  0  0  0  0
   23.5197  -19.2627   -9.8521 S   0  0  0  0  0  0  0  0  0  0  0  0
   21.8033  -19.8410  -10.1073 C   0  0  0  0  0  0  0  0  0  0  0  0
   21.6018  -21.1365   -9.3691 C   0  0  0  0  0  0  0  0  0  0  0  0
   20.2629  -21.7534   -9.5603 C   0  0  2  0  0  0  0  0  0  0  0  0
   20.0701  -22.9795   -8.8377 N   0  0  0  0  0  0  0  0  0  0  0  0
   19.8544  -21.8719  -10.9900 C   0  0  0  0  0  0  0  0  0  0  0  0
   20.0727  -22.9335  -11.6672 O   0  0  0  0  0  0  0  0  0  0  0  0
   16.0407  -17.7765  -13.5873 N   0  0  0  0  0  0  0  0  0  0  0  0
   16.2802  -18.5309  -14.7571 C   0  0  0  0  0  0  0  0  0  0  0  0
   15.6964  -18.2544  -15.8264 O   0  0  0  0  0  0  0  0  0  0  0  0
   17.2560  -19.6784  -14.6908 C   0  0  0  0  0  0  0  0  0  0  0  0
   17.8070  -19.8088  -13.3075 C   0  0  0  0  0  0  0  0  0  0  0  0
   18.7934  -20.9012  -13.0901 C   0  0  2  0  0  0  0  0  0  0  0  0
   19.2052  -20.8263  -11.6805 N   0  0  0  0  0  0  0  0  0  0  0  0
   19.9326  -20.8019  -13.9905 C   0  0  0  0  0  0  0  0  0  0  0  0
   20.8075  -19.9270  -13.8205 O   0  0  0  0  0  0  0  0  0  0  0  0
   20.0477  -21.6993  -15.0607 O   0  0  0  0  0  0  0  0  0  0  0  0
  2  1  1  1
  2  3  1  0
  4  3  1  0
  5  4  1  0
  5  6  2  0
  7  2  1  0
  8  7  2  0
  9  5  1  0
 11 10  1  0
 11 12  1  0
 12 13  1  0
 14 13  1  6
 14 15  1  0
 15  7  1  0
 16 24  1  0
 16 14  1  0
 17 16  2  0
 19 18  1  0
 19 21  1  0
 20 19  2  0
 22 21  1  0
 23 22  1  6
 23 24  1  0
 25 27  1  0
 25 23  1  0
 26 25  2  0
M  END
$$$$
