EMQ.pdb
     RDKit          3D

 27 26  0  0  1  0  0  0  0  0999 V2000
   28.1844  -22.0211  -16.5364 N   0  0  0  0  0  0  0  0  0  0  0  0
   27.6532  -20.8756  -15.8737 C   0  0  1  0  0  0  0  0  0  0  0  0
   27.1211  -19.8016  -16.7477 C   0  0  0  0  0  0  0  0  0  0  0  0
   28.1042  -19.1867  -17.6877 C   0  0  0  0  0  0  0  0  0  0  0  0
   28.2758  -19.8374  -18.9874 C   0  0  0  0  0  0  0  0  0  0  0  0
   27.3467  -20.0183  -19.8060 O   0  0  0  0  0  0  0  0  0  0  0  0
   26.6105  -21.3228  -14.8894 C   0  0  0  0  0  0  0  0  0  0  0  0
   26.0156  -22.4010  -15.0517 O   0  0  0  0  0  0  0  0  0  0  0  0
   29.5501  -20.3111  -19.3960 O   0  0  0  0  0  0  0  0  0  0  0  0
   24.2903  -21.0517   -7.3771 C   0  0  0  0  0  0  0  0  0  0  0  0
   25.3847  -20.4611   -8.6851 S   0  0  0  0  0  0  0  0  0  0  0  0
   24.7800  -21.0033  -10.3241 C   0  0  0  0  0  0  0  0  0  0  0  0
   25.7654  -20.5822  -11.3802 C   0  0  0  0  0  0  0  0  0  0  0  0
   25.3778  -20.9506  -12.7672 C   0  0  2  0  0  0  0  0  0  0  0  0
   26.3045  -20.5140  -13.7740 N   0  0  0  0  0  0  0  0  0  0  0  0
   23.9684  -20.6026  -13.1100 C   0  0  0  0  0  0  0  0  0  0  0  0
   23.6289  -19.4158  -13.4410 O   0  0  0  0  0  0  0  0  0  0  0  0
   19.3952  -24.5137  -11.7789 N   0  0  0  0  0  0  0  0  0  0  0  0
   18.5778  -23.4518  -12.2252 C   0  0  0  0  0  0  0  0  0  0  0  0
   17.3351  -23.5106  -12.1113 O   0  0  0  0  0  0  0  0  0  0  0  0
   19.2348  -22.2434  -12.8427 C   0  0  0  0  0  0  0  0  0  0  0  0
   20.7222  -22.3849  -12.7986 C   0  0  0  0  0  0  0  0  0  0  0  0
   21.5105  -21.2321  -13.3117 C   0  0  2  0  0  0  0  0  0  0  0  0
   22.9277  -21.5556  -13.0905 N   0  0  0  0  0  0  0  0  0  0  0  0
   21.1368  -19.9803  -12.6703 C   0  0  0  0  0  0  0  0  0  0  0  0
   21.3669  -19.7896  -11.4577 O   0  0  0  0  0  0  0  0  0  0  0  0
   20.5112  -18.9777  -13.4236 O   0  0  0  0  0  0  0  0  0  0  0  0
  2  1  1  6
  2  3  1  0
  4  3  1  0
  5  4  1  0
  5  6  2  0
  7  2  1  0
  8  7  2  0
  9  5  1  0
 11 10  1  0
 11 12  1  0
 12 13  1  0
 14 13  1  1
 14 15  1  0
 15  7  1  0
 16 24  1  0
 16 14  1  0
 17 16  2  0
 19 18  1  0
 19 21  1  0
 20 19  2  0
 22 21  1  0
 23 22  1  1
 23 24  1  0
 25 27  1  0
 25 23  1  0
 26 25  2  0
M  END
$$$$
