EMQ.pdb
     RDKit          3D

 27 26  0  0  1  0  0  0  0  0999 V2000
   17.3789  -10.5719  -18.8044 N   0  0  0  0  0  0  0  0  0  0  0  0
   18.1203   -9.4094  -18.4402 C   0  0  1  0  0  0  0  0  0  0  0  0
   17.6622   -8.1286  -19.0321 C   0  0  0  0  0  0  0  0  0  0  0  0
   16.1922   -8.0131  -19.2642 C   0  0  0  0  0  0  0  0  0  0  0  0
   15.4290   -7.2176  -18.3015 C   0  0  0  0  0  0  0  0  0  0  0  0
   15.8494   -6.1607  -17.7796 O   0  0  0  0  0  0  0  0  0  0  0  0
   18.1694   -9.3131  -16.9421 C   0  0  0  0  0  0  0  0  0  0  0  0
   17.3498   -9.9347  -16.2460 O   0  0  0  0  0  0  0  0  0  0  0  0
   14.1288   -7.6215  -17.8995 O   0  0  0  0  0  0  0  0  0  0  0  0
   22.8556   -8.6677  -10.7078 C   0  0  0  0  0  0  0  0  0  0  0  0
   22.6311   -8.5641  -12.4956 S   0  0  0  0  0  0  0  0  0  0  0  0
   20.8522   -8.5241  -12.9196 C   0  0  0  0  0  0  0  0  0  0  0  0
   20.6998   -8.5009  -14.4163 C   0  0  0  0  0  0  0  0  0  0  0  0
   19.2918   -8.4760  -14.8924 C   0  0  2  0  0  0  0  0  0  0  0  0
   19.1519   -8.5122  -16.3214 N   0  0  0  0  0  0  0  0  0  0  0  0
   18.4667   -7.3988  -14.2728 C   0  0  0  0  0  0  0  0  0  0  0  0
   18.3127   -6.2610  -14.8341 O   0  0  0  0  0  0  0  0  0  0  0  0
   15.5310   -8.3166   -8.8867 N   0  0  0  0  0  0  0  0  0  0  0  0
   15.2237   -6.9438   -9.0123 C   0  0  0  0  0  0  0  0  0  0  0  0
   14.5797   -6.3491   -8.1222 O   0  0  0  0  0  0  0  0  0  0  0  0
   15.6889   -6.2081  -10.2434 C   0  0  0  0  0  0  0  0  0  0  0  0
   16.4334   -7.1354  -11.1491 C   0  0  0  0  0  0  0  0  0  0  0  0
   16.9454   -6.5497  -12.4173 C   0  0  2  0  0  0  0  0  0  0  0  0
   17.8085   -7.5668  -13.0359 N   0  0  0  0  0  0  0  0  0  0  0  0
   17.6573   -5.2993  -12.1986 C   0  0  0  0  0  0  0  0  0  0  0  0
   18.9003   -5.2840  -12.0773 O   0  0  0  0  0  0  0  0  0  0  0  0
   16.9383   -4.0988  -12.1232 O   0  0  0  0  0  0  0  0  0  0  0  0
  2  1  1  1
  2  3  1  0
  4  3  1  0
  5  4  1  0
  5  6  2  0
  7  2  1  0
  8  7  2  0
  9  5  1  0
 11 10  1  0
 11 12  1  0
 12 13  1  0
 14 13  1  6
 14 15  1  0
 15  7  1  0
 16 24  1  0
 16 14  1  0
 17 16  2  0
 19 18  1  0
 19 21  1  0
 20 19  2  0
 22 21  1  0
 23 22  1  1
 23 24  1  0
 25 27  1  0
 25 23  1  0
 26 25  2  0
M  END
$$$$
