EMQ.pdb
     RDKit          3D

 27 26  0  0  1  0  0  0  0  0999 V2000
   17.8263  -13.1587  -15.5378 N   0  0  0  0  0  0  0  0  0  0  0  0
   17.4291  -11.8035  -15.7366 C   0  0  1  0  0  0  0  0  0  0  0  0
   15.9851  -11.5745  -15.9876 C   0  0  0  0  0  0  0  0  0  0  0  0
   15.4222  -12.2553  -17.1908 C   0  0  0  0  0  0  0  0  0  0  0  0
   13.9643  -12.3486  -17.2790 C   0  0  0  0  0  0  0  0  0  0  0  0
   13.3522  -13.3652  -17.6765 O   0  0  0  0  0  0  0  0  0  0  0  0
   17.9010  -10.9822  -14.5710 C   0  0  0  0  0  0  0  0  0  0  0  0
   17.7659  -11.4037  -13.4105 O   0  0  0  0  0  0  0  0  0  0  0  0
   13.1457  -11.2510  -16.9043 O   0  0  0  0  0  0  0  0  0  0  0  0
   23.1253   -7.9473  -15.4364 C   0  0  0  0  0  0  0  0  0  0  0  0
   23.0073   -8.7904  -13.8449 S   0  0  0  0  0  0  0  0  0  0  0  0
   21.3377   -9.5017  -13.6156 C   0  0  0  0  0  0  0  0  0  0  0  0
   20.3096   -8.4147  -13.7755 C   0  0  0  0  0  0  0  0  0  0  0  0
   18.9007   -8.8830  -13.7016 C   0  0  2  0  0  0  0  0  0  0  0  0
   18.5012   -9.7245  -14.7949 N   0  0  0  0  0  0  0  0  0  0  0  0
   17.9174   -7.7918  -13.4422 C   0  0  0  0  0  0  0  0  0  0  0  0
   17.3493   -7.1565  -14.3945 O   0  0  0  0  0  0  0  0  0  0  0  0
   15.2750   -7.0724   -7.9347 N   0  0  0  0  0  0  0  0  0  0  0  0
   14.8538   -5.8316   -8.4618 C   0  0  0  0  0  0  0  0  0  0  0  0
   14.1808   -5.0387   -7.7697 O   0  0  0  0  0  0  0  0  0  0  0  0
   15.2327   -5.4814   -9.8785 C   0  0  0  0  0  0  0  0  0  0  0  0
   16.1058   -6.5471  -10.4584 C   0  0  0  0  0  0  0  0  0  0  0  0
   16.6051   -6.3122  -11.8401 C   0  0  2  0  0  0  0  0  0  0  0  0
   17.5547   -7.3947  -12.1375 N   0  0  0  0  0  0  0  0  0  0  0  0
   17.2188   -5.0008  -11.9883 C   0  0  0  0  0  0  0  0  0  0  0  0
   18.4571   -4.8613  -11.9051 O   0  0  0  0  0  0  0  0  0  0  0  0
   16.4093   -3.8821  -12.2272 O   0  0  0  0  0  0  0  0  0  0  0  0
  2  1  1  1
  2  3  1  0
  4  3  1  0
  5  4  1  0
  5  6  2  0
  7  2  1  0
  8  7  2  0
  9  5  1  0
 11 10  1  0
 11 12  1  0
 12 13  1  0
 14 13  1  6
 14 15  1  0
 15  7  1  0
 16 24  1  0
 16 14  1  0
 17 16  2  0
 19 18  1  0
 19 21  1  0
 20 19  2  0
 22 21  1  0
 23 22  1  1
 23 24  1  0
 25 27  1  0
 25 23  1  0
 26 25  2  0
M  END
$$$$
