EMQ.pdb
     RDKit          3D

 27 26  0  0  1  0  0  0  0  0999 V2000
   18.7593  -12.8618  -16.6289 N   0  0  0  0  0  0  0  0  0  0  0  0
   19.3847  -11.8809  -17.4538 C   0  0  1  0  0  0  0  0  0  0  0  0
   18.4988  -10.8241  -18.0006 C   0  0  0  0  0  0  0  0  0  0  0  0
   17.3778  -11.3024  -18.8624 C   0  0  0  0  0  0  0  0  0  0  0  0
   16.4871  -10.2829  -19.4186 C   0  0  0  0  0  0  0  0  0  0  0  0
   16.6030   -9.0570  -19.1953 O   0  0  0  0  0  0  0  0  0  0  0  0
   20.5330  -11.2723  -16.7008 C   0  0  0  0  0  0  0  0  0  0  0  0
   20.3601  -10.8043  -15.5635 O   0  0  0  0  0  0  0  0  0  0  0  0
   15.4106  -10.6493  -20.2684 O   0  0  0  0  0  0  0  0  0  0  0  0
   28.2248  -11.2665  -15.2407 C   0  0  0  0  0  0  0  0  0  0  0  0
   26.8094  -11.9273  -16.1447 S   0  0  0  0  0  0  0  0  0  0  0  0
   25.3415  -10.8613  -15.9107 C   0  0  0  0  0  0  0  0  0  0  0  0
   24.1649  -11.4753  -16.6196 C   0  0  0  0  0  0  0  0  0  0  0  0
   22.9325  -10.6441  -16.6026 C   0  0  2  0  0  0  0  0  0  0  0  0
   21.8157  -11.2318  -17.2884 N   0  0  0  0  0  0  0  0  0  0  0  0
   23.1584   -9.2260  -17.0059 C   0  0  0  0  0  0  0  0  0  0  0  0
   23.2320   -8.8782  -18.2335 O   0  0  0  0  0  0  0  0  0  0  0  0
   21.4182   -4.6422  -13.4376 N   0  0  0  0  0  0  0  0  0  0  0  0
   22.1938   -3.8342  -14.2980 C   0  0  0  0  0  0  0  0  0  0  0  0
   22.2428   -2.5960  -14.1399 O   0  0  0  0  0  0  0  0  0  0  0  0
   22.9632   -4.4958  -15.4132 C   0  0  0  0  0  0  0  0  0  0  0  0
   22.7973   -5.9798  -15.3459 C   0  0  0  0  0  0  0  0  0  0  0  0
   23.4600   -6.7675  -16.4201 C   0  0  2  0  0  0  0  0  0  0  0  0
   23.3039   -8.1855  -16.0637 N   0  0  0  0  0  0  0  0  0  0  0  0
   24.8596   -6.4042  -16.5859 C   0  0  0  0  0  0  0  0  0  0  0  0
   25.7510   -6.9740  -15.9223 O   0  0  0  0  0  0  0  0  0  0  0  0
   25.2096   -5.4027  -17.5016 O   0  0  0  0  0  0  0  0  0  0  0  0
  2  1  1  1
  2  3  1  0
  4  3  1  0
  5  4  1  0
  5  6  2  0
  7  2  1  0
  8  7  2  0
  9  5  1  0
 11 10  1  0
 11 12  1  0
 12 13  1  0
 14 13  1  6
 14 15  1  0
 15  7  1  0
 16 24  1  0
 16 14  1  0
 17 16  2  0
 19 18  1  0
 19 21  1  0
 20 19  2  0
 22 21  1  0
 23 22  1  1
 23 24  1  0
 25 27  1  0
 25 23  1  0
 26 25  2  0
M  END
$$$$
