EMQ.pdb
     RDKit          3D

 27 26  0  0  1  0  0  0  0  0999 V2000
   21.2741  -21.0163  -11.1800 N   0  0  0  0  0  0  0  0  0  0  0  0
   21.9753  -21.3165  -12.3850 C   0  0  1  0  0  0  0  0  0  0  0  0
   21.2072  -21.1634  -13.6448 C   0  0  0  0  0  0  0  0  0  0  0  0
   20.9396  -22.4251  -14.3961 C   0  0  0  0  0  0  0  0  0  0  0  0
   19.6261  -23.0429  -14.2087 C   0  0  0  0  0  0  0  0  0  0  0  0
   18.7270  -22.5654  -13.4809 O   0  0  0  0  0  0  0  0  0  0  0  0
   23.2358  -20.5009  -12.4305 C   0  0  0  0  0  0  0  0  0  0  0  0
   23.2181  -19.3000  -12.1144 O   0  0  0  0  0  0  0  0  0  0  0  0
   19.2976  -24.2568  -14.8673 O   0  0  0  0  0  0  0  0  0  0  0  0
   29.8950  -21.0522  -11.0625 C   0  0  0  0  0  0  0  0  0  0  0  0
   28.4809  -21.9420  -10.3800 S   0  0  0  0  0  0  0  0  0  0  0  0
   26.9142  -21.1410  -10.8799 C   0  0  0  0  0  0  0  0  0  0  0  0
   26.8590  -21.0537  -12.3810 C   0  0  0  0  0  0  0  0  0  0  0  0
   25.6656  -20.3456  -12.9139 C   0  0  2  0  0  0  0  0  0  0  0  0
   24.4472  -21.1020  -12.8347 N   0  0  0  0  0  0  0  0  0  0  0  0
   25.8731  -19.7520  -14.2665 C   0  0  0  0  0  0  0  0  0  0  0  0
   25.6003  -20.3981  -15.3348 O   0  0  0  0  0  0  0  0  0  0  0  0
   27.3170  -13.2843  -15.7000 N   0  0  0  0  0  0  0  0  0  0  0  0
   26.6786  -14.1763  -16.5898 C   0  0  0  0  0  0  0  0  0  0  0  0
   25.6799  -13.8164  -17.2483 O   0  0  0  0  0  0  0  0  0  0  0  0
   27.2267  -15.5739  -16.7303 C   0  0  0  0  0  0  0  0  0  0  0  0
   26.8716  -16.3912  -15.5302 C   0  0  0  0  0  0  0  0  0  0  0  0
   26.6336  -17.8409  -15.7657 C   0  0  2  0  0  0  0  0  0  0  0  0
   26.3804  -18.4480  -14.4506 N   0  0  0  0  0  0  0  0  0  0  0  0
   27.7499  -18.4785  -16.4479 C   0  0  0  0  0  0  0  0  0  0  0  0
   28.6673  -19.0248  -15.8001 O   0  0  0  0  0  0  0  0  0  0  0  0
   27.7946  -18.4787  -17.8486 O   0  0  0  0  0  0  0  0  0  0  0  0
  2  1  1  1
  2  3  1  0
  4  3  1  0
  5  4  1  0
  5  6  2  0
  7  2  1  0
  8  7  2  0
  9  5  1  0
 11 10  1  0
 11 12  1  0
 12 13  1  0
 14 13  1  6
 14 15  1  0
 15  7  1  0
 16 24  1  0
 16 14  1  0
 17 16  2  0
 19 18  1  0
 19 21  1  0
 20 19  2  0
 22 21  1  0
 23 22  1  1
 23 24  1  0
 25 27  1  0
 25 23  1  0
 26 25  2  0
M  END
$$$$
