HCF.pdb
     RDKit          3D

 28 29  0  0  1  0  0  0  0  0999 V2000
   25.8065  -21.6776  -16.9527 N   0  0  0  0  0  0  0  0  0  0  0  0
   26.0952  -22.2709  -15.6892 C   0  0  1  0  0  0  0  0  0  0  0  0
   27.3030  -23.1766  -15.7200 C   0  0  0  0  0  0  0  0  0  0  0  0
   26.9768  -24.3622  -16.5387 C   0  0  0  0  0  0  0  0  0  0  0  0
   26.3368  -25.5024  -16.0473 C   0  0  0  0  0  0  0  0  0  0  0  0
   26.2148  -26.3616  -17.0893 N   0  0  0  0  0  0  0  0  0  0  0  0
   26.7433  -25.8078  -18.1811 C   0  0  0  0  0  0  0  0  0  0  0  0
   27.1965  -24.6024  -17.8250 N   0  0  0  0  0  0  0  0  0  0  0  0
   26.2670  -21.2804  -14.6013 C   0  0  0  0  0  0  0  0  0  0  0  0
   26.7916  -20.1526  -14.7815 O   0  0  0  0  0  0  0  0  0  0  0  0
   25.8204  -21.6182  -13.2970 N   0  0  0  0  0  0  0  0  0  0  0  0
   25.8170  -20.5900  -12.2743 C   0  0  1  0  0  0  0  0  0  0  0  0
   24.5591  -19.7551  -12.3026 C   0  0  0  0  0  0  0  0  0  0  0  0
   23.0745  -20.7950  -12.3185 S   0  0  0  0  0  0  0  0  0  0  0  0
   25.8639  -21.2640  -10.9467 C   0  0  0  0  0  0  0  0  0  0  0  0
   25.4227  -22.4275  -10.7619 O   0  0  0  0  0  0  0  0  0  0  0  0
   26.4213  -20.5965   -9.8244 N   0  0  0  0  0  0  0  0  0  0  0  0
   26.4262  -21.2506   -8.5322 C   0  0  1  0  0  0  0  0  0  0  0  0
   27.8117  -21.0916   -7.9642 C   0  0  0  0  0  0  0  0  0  0  0  0
   27.8876  -20.2346   -6.7805 C   0  0  0  0  0  0  0  0  0  0  0  0
   27.2625  -20.5097   -5.5859 C   0  0  0  0  0  0  0  0  0  0  0  0
   27.3690  -19.6763   -4.5164 C   0  0  0  0  0  0  0  0  0  0  0  0
   28.1183  -18.5117   -4.5969 C   0  0  0  0  0  0  0  0  0  0  0  0
   28.7485  -18.2192   -5.7766 C   0  0  0  0  0  0  0  0  0  0  0  0
   28.6315  -19.0756   -6.8557 C   0  0  0  0  0  0  0  0  0  0  0  0
   25.3614  -20.7083   -7.6787 C   0  0  0  0  0  0  0  0  0  0  0  0
   24.8773  -19.5818   -7.9496 O   0  0  0  0  0  0  0  0  0  0  0  0
   24.8523  -21.3771   -6.5760 O   0  0  0  0  0  0  0  0  0  0  0  0
  2  1  1  6
  3  4  1  0
  3  2  1  0
  4  5  2  0
  5  6  1  0
  7  6  1  0
  8  4  1  0
  8  7  2  0
  9  2  1  0
  9 10  2  0
 11  9  1  0
 12 11  1  0
 12 15  1  0
 12 13  1  1
 14 13  1  0
 15 17  1  0
 16 15  2  0
 17 18  1  0
 18 26  1  0
 19 20  1  0
 18 19  1  1
 20 25  1  0
 21 20  2  0
 21 22  1  0
 22 23  2  0
 23 24  1  0
 25 24  2  0
 26 27  2  0
 26 28  1  0
M  END
$$$$
