HCF.pdb
     RDKit          3D

 28 29  0  0  1  0  0  0  0  0999 V2000
   23.9040  -21.0572  -15.7370 N   0  0  0  0  0  0  0  0  0  0  0  0
   24.1718  -20.5774  -14.4218 C   0  0  1  0  0  0  0  0  0  0  0  0
   22.9765  -20.6630  -13.5031 C   0  0  0  0  0  0  0  0  0  0  0  0
   21.9371  -19.7394  -14.0022 C   0  0  0  0  0  0  0  0  0  0  0  0
   21.2972  -19.8724  -15.2367 C   0  0  0  0  0  0  0  0  0  0  0  0
   20.4177  -18.8448  -15.3336 N   0  0  0  0  0  0  0  0  0  0  0  0
   20.4884  -18.0989  -14.2306 C   0  0  0  0  0  0  0  0  0  0  0  0
   21.4113  -18.6576  -13.4421 N   0  0  0  0  0  0  0  0  0  0  0  0
   25.3221  -21.2498  -13.7747 C   0  0  0  0  0  0  0  0  0  0  0  0
   25.6297  -22.4469  -14.0026 O   0  0  0  0  0  0  0  0  0  0  0  0
   26.1130  -20.5112  -12.8562 N   0  0  0  0  0  0  0  0  0  0  0  0
   27.3033  -21.1312  -12.3067 C   0  0  1  0  0  0  0  0  0  0  0  0
   28.5719  -20.5654  -12.8989 C   0  0  0  0  0  0  0  0  0  0  0  0
   28.2638  -18.9913  -13.7432 S   0  0  0  0  0  0  0  0  0  0  0  0
   27.3373  -20.8432  -10.8456 C   0  0  0  0  0  0  0  0  0  0  0  0
   27.7517  -19.7504  -10.3802 O   0  0  0  0  0  0  0  0  0  0  0  0
   26.8922  -21.8173   -9.9134 N   0  0  0  0  0  0  0  0  0  0  0  0
   26.4314  -21.3987   -8.6058 C   0  0  1  0  0  0  0  0  0  0  0  0
   26.9931  -20.0231   -8.3612 C   0  0  0  0  0  0  0  0  0  0  0  0
   27.6370  -19.8534   -7.0582 C   0  0  0  0  0  0  0  0  0  0  0  0
   28.5706  -18.8822   -6.7781 C   0  0  0  0  0  0  0  0  0  0  0  0
   29.1363  -18.7702   -5.5464 C   0  0  0  0  0  0  0  0  0  0  0  0
   28.7866  -19.6399   -4.5239 C   0  0  0  0  0  0  0  0  0  0  0  0
   27.8594  -20.6138   -4.7815 C   0  0  0  0  0  0  0  0  0  0  0  0
   27.2925  -20.7159   -6.0384 C   0  0  0  0  0  0  0  0  0  0  0  0
   24.9666  -21.4713   -8.5306 C   0  0  0  0  0  0  0  0  0  0  0  0
   24.4185  -21.5783   -7.4059 O   0  0  0  0  0  0  0  0  0  0  0  0
   24.1423  -21.4278   -9.6446 O   0  0  0  0  0  0  0  0  0  0  0  0
  2  1  1  6
  3  4  1  0
  3  2  1  0
  4  5  2  0
  5  6  1  0
  7  6  1  0
  8  4  1  0
  8  7  2  0
  9  2  1  0
  9 10  2  0
 11  9  1  0
 12 11  1  0
 12 15  1  0
 12 13  1  6
 14 13  1  0
 15 17  1  0
 16 15  2  0
 17 18  1  0
 18 26  1  0
 19 20  1  0
 18 19  1  6
 20 25  1  0
 21 20  2  0
 21 22  1  0
 22 23  2  0
 23 24  1  0
 25 24  2  0
 26 27  2  0
 26 28  1  0
M  END
$$$$
