HCF.pdb
     RDKit          3D

 28 29  0  0  1  0  0  0  0  0999 V2000
   24.2013  -17.4728  -18.6643 N   0  0  0  0  0  0  0  0  0  0  0  0
   24.6041  -17.2738  -17.3114 C   0  0  1  0  0  0  0  0  0  0  0  0
   23.9744  -16.0568  -16.6769 C   0  0  0  0  0  0  0  0  0  0  0  0
   24.2975  -14.8779  -17.5064 C   0  0  0  0  0  0  0  0  0  0  0  0
   23.4069  -14.2817  -18.4023 C   0  0  0  0  0  0  0  0  0  0  0  0
   24.0625  -13.2386  -18.9690 N   0  0  0  0  0  0  0  0  0  0  0  0
   25.2965  -13.1695  -18.4684 C   0  0  0  0  0  0  0  0  0  0  0  0
   25.4155  -14.1680  -17.5885 N   0  0  0  0  0  0  0  0  0  0  0  0
   24.3534  -18.4491  -16.4456 C   0  0  0  0  0  0  0  0  0  0  0  0
   23.4661  -19.3037  -16.6946 O   0  0  0  0  0  0  0  0  0  0  0  0
   25.1492  -18.6193  -15.2826 N   0  0  0  0  0  0  0  0  0  0  0  0
   25.1606  -19.9144  -14.6303 C   0  0  1  0  0  0  0  0  0  0  0  0
   25.8427  -20.9723  -15.4644 C   0  0  0  0  0  0  0  0  0  0  0  0
   27.5288  -21.2907  -14.8803 S   0  0  0  0  0  0  0  0  0  0  0  0
   25.9398  -19.7847  -13.3673 C   0  0  0  0  0  0  0  0  0  0  0  0
   26.6576  -18.7830  -13.1143 O   0  0  0  0  0  0  0  0  0  0  0  0
   25.8938  -20.8126  -12.3890 N   0  0  0  0  0  0  0  0  0  0  0  0
   26.5584  -20.6201  -11.1167 C   0  0  1  0  0  0  0  0  0  0  0  0
   25.7660  -19.5881  -10.3586 C   0  0  0  0  0  0  0  0  0  0  0  0
   26.2131  -19.3703   -8.9823 C   0  0  0  0  0  0  0  0  0  0  0  0
   27.0439  -18.3448   -8.5929 C   0  0  0  0  0  0  0  0  0  0  0  0
   27.4267  -18.1897   -7.2970 C   0  0  0  0  0  0  0  0  0  0  0  0
   26.9876  -19.0688   -6.3180 C   0  0  0  0  0  0  0  0  0  0  0  0
   26.1602  -20.0962   -6.6843 C   0  0  0  0  0  0  0  0  0  0  0  0
   25.7790  -20.2417   -8.0053 C   0  0  0  0  0  0  0  0  0  0  0  0
   26.7026  -21.9016  -10.4142 C   0  0  0  0  0  0  0  0  0  0  0  0
   25.7481  -22.7173  -10.4320 O   0  0  0  0  0  0  0  0  0  0  0  0
   27.8473  -22.2683   -9.7231 O   0  0  0  0  0  0  0  0  0  0  0  0
  2  1  1  6
  3  4  1  0
  3  2  1  0
  4  5  2  0
  5  6  1  0
  7  6  1  0
  8  4  1  0
  8  7  2  0
  9  2  1  0
  9 10  2  0
 11  9  1  0
 12 11  1  0
 12 15  1  0
 12 13  1  6
 14 13  1  0
 15 17  1  0
 16 15  2  0
 17 18  1  0
 18 26  1  0
 19 20  1  0
 18 19  1  1
 20 25  1  0
 21 20  2  0
 21 22  1  0
 22 23  2  0
 23 24  1  0
 25 24  2  0
 26 27  2  0
 26 28  1  0
M  END
$$$$
