HCF.pdb
     RDKit          3D

 28 29  0  0  1  0  0  0  0  0999 V2000
   28.5135  -16.1462  -18.7052 N   0  0  0  0  0  0  0  0  0  0  0  0
   27.9927  -17.3622  -18.1740 C   0  0  1  0  0  0  0  0  0  0  0  0
   29.0647  -18.2940  -17.6615 C   0  0  0  0  0  0  0  0  0  0  0  0
   29.9499  -18.6520  -18.7887 C   0  0  0  0  0  0  0  0  0  0  0  0
   31.2603  -18.1906  -18.9338 C   0  0  0  0  0  0  0  0  0  0  0  0
   31.7408  -18.7328  -20.0801 N   0  0  0  0  0  0  0  0  0  0  0  0
   30.7980  -19.4946  -20.6361 C   0  0  0  0  0  0  0  0  0  0  0  0
   29.7270  -19.4306  -19.8397 N   0  0  0  0  0  0  0  0  0  0  0  0
   26.9889  -17.1532  -17.1050 C   0  0  0  0  0  0  0  0  0  0  0  0
   26.6479  -16.0125  -16.7022 O   0  0  0  0  0  0  0  0  0  0  0  0
   26.3844  -18.2902  -16.5078 N   0  0  0  0  0  0  0  0  0  0  0  0
   25.2787  -18.0900  -15.5911 C   0  0  1  0  0  0  0  0  0  0  0  0
   24.0989  -17.4174  -16.2514 C   0  0  0  0  0  0  0  0  0  0  0  0
   22.6368  -17.4443  -15.1804 S   0  0  0  0  0  0  0  0  0  0  0  0
   24.8165  -19.4293  -15.1310 C   0  0  0  0  0  0  0  0  0  0  0  0
   24.2476  -20.2492  -15.8968 O   0  0  0  0  0  0  0  0  0  0  0  0
   25.0095  -19.8287  -13.7823 N   0  0  0  0  0  0  0  0  0  0  0  0
   24.6502  -21.1713  -13.3750 C   0  0  1  0  0  0  0  0  0  0  0  0
   25.7769  -21.6875  -12.5196 C   0  0  0  0  0  0  0  0  0  0  0  0
   25.9185  -21.0112  -11.2296 C   0  0  0  0  0  0  0  0  0  0  0  0
   26.5722  -19.8135  -11.0527 C   0  0  0  0  0  0  0  0  0  0  0  0
   26.6721  -19.2291   -9.8286 C   0  0  0  0  0  0  0  0  0  0  0  0
   26.1127  -19.8278   -8.7094 C   0  0  0  0  0  0  0  0  0  0  0  0
   25.4576  -21.0202   -8.8636 C   0  0  0  0  0  0  0  0  0  0  0  0
   25.3638  -21.6028  -10.1139 C   0  0  0  0  0  0  0  0  0  0  0  0
   23.3414  -21.1725  -12.7090 C   0  0  0  0  0  0  0  0  0  0  0  0
   22.8693  -20.0866  -12.2909 O   0  0  0  0  0  0  0  0  0  0  0  0
   22.5863  -22.3185  -12.5123 O   0  0  0  0  0  0  0  0  0  0  0  0
  2  1  1  1
  3  4  1  0
  3  2  1  0
  4  5  2  0
  5  6  1  0
  7  6  1  0
  8  4  1  0
  8  7  2  0
  9  2  1  0
  9 10  2  0
 11  9  1  0
 12 11  1  0
 12 15  1  0
 12 13  1  6
 14 13  1  0
 15 17  1  0
 16 15  2  0
 17 18  1  0
 18 26  1  0
 19 20  1  0
 18 19  1  1
 20 25  1  0
 21 20  2  0
 21 22  1  0
 22 23  2  0
 23 24  1  0
 25 24  2  0
 26 27  2  0
 26 28  1  0
M  END
$$$$
