HCF.pdb
     RDKit          3D

 28 29  0  0  1  0  0  0  0  0999 V2000
   19.8068  -11.4000  -16.5483 N   0  0  0  0  0  0  0  0  0  0  0  0
   20.9349  -10.5644  -16.7958 C   0  0  1  0  0  0  0  0  0  0  0  0
   21.5020  -10.7279  -18.1857 C   0  0  0  0  0  0  0  0  0  0  0  0
   21.8623  -12.1474  -18.3789 C   0  0  0  0  0  0  0  0  0  0  0  0
   21.0700  -13.0712  -19.0644 C   0  0  0  0  0  0  0  0  0  0  0  0
   21.7308  -14.2549  -19.0291 N   0  0  0  0  0  0  0  0  0  0  0  0
   22.8755  -14.1007  -18.3628 C   0  0  0  0  0  0  0  0  0  0  0  0
   22.9333  -12.8217  -17.9802 N   0  0  0  0  0  0  0  0  0  0  0  0
   20.6654   -9.1281  -16.5545 C   0  0  0  0  0  0  0  0  0  0  0  0
   19.6139   -8.5567  -16.9387 O   0  0  0  0  0  0  0  0  0  0  0  0
   21.6364   -8.3613  -15.8589 N   0  0  0  0  0  0  0  0  0  0  0  0
   21.3953   -6.9447  -15.6630 C   0  0  1  0  0  0  0  0  0  0  0  0
   20.9683   -6.6241  -14.2505 C   0  0  0  0  0  0  0  0  0  0  0  0
   22.0540   -7.4168  -13.0346 S   0  0  0  0  0  0  0  0  0  0  0  0
   22.6759   -6.2238  -15.9063 C   0  0  0  0  0  0  0  0  0  0  0  0
   23.7937   -6.8003  -15.8773 O   0  0  0  0  0  0  0  0  0  0  0  0
   22.6719   -4.8316  -16.1846 N   0  0  0  0  0  0  0  0  0  0  0  0
   23.9238   -4.1485  -16.4372 C   0  0  1  0  0  0  0  0  0  0  0  0
   24.5843   -4.8539  -17.5921 C   0  0  0  0  0  0  0  0  0  0  0  0
   25.7639   -4.1717  -18.1255 C   0  0  0  0  0  0  0  0  0  0  0  0
   25.7158   -3.1540  -19.0503 C   0  0  0  0  0  0  0  0  0  0  0  0
   26.8463   -2.5543  -19.5108 C   0  0  0  0  0  0  0  0  0  0  0  0
   28.0953   -2.9535  -19.0582 C   0  0  0  0  0  0  0  0  0  0  0  0
   28.1655   -3.9645  -18.1377 C   0  0  0  0  0  0  0  0  0  0  0  0
   27.0080   -4.5652  -17.6784 C   0  0  0  0  0  0  0  0  0  0  0  0
   23.6904   -2.7163  -16.6625 C   0  0  0  0  0  0  0  0  0  0  0  0
   22.6326   -2.3536  -17.2337 O   0  0  0  0  0  0  0  0  0  0  0  0
   24.5822   -1.7277  -16.2757 O   0  0  0  0  0  0  0  0  0  0  0  0
  2  1  1  6
  3  4  1  0
  3  2  1  0
  4  5  2  0
  5  6  1  0
  7  6  1  0
  8  4  1  0
  8  7  2  0
  9  2  1  0
  9 10  2  0
 11  9  1  0
 12 11  1  0
 12 15  1  0
 12 13  1  1
 14 13  1  0
 15 17  1  0
 16 15  2  0
 17 18  1  0
 18 26  1  0
 19 20  1  0
 18 19  1  6
 20 25  1  0
 21 20  2  0
 21 22  1  0
 22 23  2  0
 23 24  1  0
 25 24  2  0
 26 27  2  0
 26 28  1  0
M  END
$$$$
