HCF.pdb
     RDKit          3D

 28 29  0  0  1  0  0  0  0  0999 V2000
   22.9680  -17.7747  -18.1775 N   0  0  0  0  0  0  0  0  0  0  0  0
   23.4134  -18.1841  -16.8867 C   0  0  1  0  0  0  0  0  0  0  0  0
   22.2825  -18.5599  -15.9594 C   0  0  0  0  0  0  0  0  0  0  0  0
   21.3727  -17.4022  -15.8397 C   0  0  0  0  0  0  0  0  0  0  0  0
   20.2337  -17.2154  -16.6265 C   0  0  0  0  0  0  0  0  0  0  0  0
   19.6669  -16.0513  -16.2233 N   0  0  0  0  0  0  0  0  0  0  0  0
   20.3962  -15.5238  -15.2394 C   0  0  0  0  0  0  0  0  0  0  0  0
   21.4196  -16.3558  -15.0252 N   0  0  0  0  0  0  0  0  0  0  0  0
   24.3886  -19.2983  -16.9286 C   0  0  0  0  0  0  0  0  0  0  0  0
   24.5422  -20.0336  -17.9362 O   0  0  0  0  0  0  0  0  0  0  0  0
   25.1855  -19.5482  -15.7809 N   0  0  0  0  0  0  0  0  0  0  0  0
   26.5877  -19.1799  -15.8133 C   0  0  1  0  0  0  0  0  0  0  0  0
   26.7889  -17.7036  -16.0585 C   0  0  0  0  0  0  0  0  0  0  0  0
   28.5489  -17.2705  -16.0843 S   0  0  0  0  0  0  0  0  0  0  0  0
   27.1726  -19.4843  -14.4775 C   0  0  0  0  0  0  0  0  0  0  0  0
   28.4017  -19.3710  -14.2346 O   0  0  0  0  0  0  0  0  0  0  0  0
   26.3396  -19.9216  -13.4142 N   0  0  0  0  0  0  0  0  0  0  0  0
   26.9324  -20.2870  -12.1443 C   0  0  1  0  0  0  0  0  0  0  0  0
   26.2421  -19.4686  -11.0853 C   0  0  0  0  0  0  0  0  0  0  0  0
   24.8417  -19.8272  -10.8580 C   0  0  0  0  0  0  0  0  0  0  0  0
   23.8916  -19.8995  -11.8507 C   0  0  0  0  0  0  0  0  0  0  0  0
   22.6026  -20.2399  -11.5813 C   0  0  0  0  0  0  0  0  0  0  0  0
   22.2015  -20.5277  -10.2850 C   0  0  0  0  0  0  0  0  0  0  0  0
   23.1314  -20.4617   -9.2823 C   0  0  0  0  0  0  0  0  0  0  0  0
   24.4382  -20.1143   -9.5707 C   0  0  0  0  0  0  0  0  0  0  0  0
   26.8433  -21.7377  -11.9351 C   0  0  0  0  0  0  0  0  0  0  0  0
   26.3710  -22.4576  -12.8492 O   0  0  0  0  0  0  0  0  0  0  0  0
   27.2562  -22.3676  -10.7711 O   0  0  0  0  0  0  0  0  0  0  0  0
  2  1  1  6
  3  4  1  0
  3  2  1  0
  4  5  2  0
  5  6  1  0
  7  6  1  0
  8  4  1  0
  8  7  2  0
  9  2  1  0
  9 10  2  0
 11  9  1  0
 12 11  1  0
 12 15  1  0
 12 13  1  1
 14 13  1  0
 15 17  1  0
 16 15  2  0
 17 18  1  0
 18 26  1  0
 19 20  1  0
 18 19  1  1
 20 25  1  0
 21 20  2  0
 21 22  1  0
 22 23  2  0
 23 24  1  0
 25 24  2  0
 26 27  2  0
 26 28  1  0
M  END
$$$$
