HCF.pdb
     RDKit          3D

 28 29  0  0  1  0  0  0  0  0999 V2000
   26.4511  -26.0002  -17.7646 N   0  0  0  0  0  0  0  0  0  0  0  0
   26.2183  -25.2385  -16.5824 C   0  0  1  0  0  0  0  0  0  0  0  0
   27.0367  -23.9710  -16.5215 C   0  0  0  0  0  0  0  0  0  0  0  0
   28.4621  -24.3408  -16.4036 C   0  0  0  0  0  0  0  0  0  0  0  0
   28.9277  -25.6558  -16.3327 C   0  0  0  0  0  0  0  0  0  0  0  0
   30.2783  -25.5872  -16.2324 N   0  0  0  0  0  0  0  0  0  0  0  0
   30.6561  -24.3085  -16.2385 C   0  0  0  0  0  0  0  0  0  0  0  0
   29.5440  -23.5751  -16.3425 N   0  0  0  0  0  0  0  0  0  0  0  0
   24.7918  -24.8978  -16.3752 C   0  0  0  0  0  0  0  0  0  0  0  0
   24.0310  -24.5455  -17.3115 O   0  0  0  0  0  0  0  0  0  0  0  0
   24.2587  -24.9718  -15.0618 N   0  0  0  0  0  0  0  0  0  0  0  0
   22.8604  -24.6454  -14.8586 C   0  0  1  0  0  0  0  0  0  0  0  0
   22.1162  -25.7357  -14.1252 C   0  0  0  0  0  0  0  0  0  0  0  0
   22.2781  -27.3313  -14.9698 S   0  0  0  0  0  0  0  0  0  0  0  0
   22.7936  -23.4237  -14.0090 C   0  0  0  0  0  0  0  0  0  0  0  0
   23.6928  -23.1240  -13.1818 O   0  0  0  0  0  0  0  0  0  0  0  0
   21.6863  -22.5408  -14.1107 N   0  0  0  0  0  0  0  0  0  0  0  0
   21.6502  -21.3416  -13.2994 C   0  0  1  0  0  0  0  0  0  0  0  0
   22.9307  -20.5941  -13.5625 C   0  0  0  0  0  0  0  0  0  0  0  0
   23.0659  -20.0835  -14.9272 C   0  0  0  0  0  0  0  0  0  0  0  0
   23.8244  -20.6843  -15.9055 C   0  0  0  0  0  0  0  0  0  0  0  0
   23.9127  -20.1651  -17.1595 C   0  0  0  0  0  0  0  0  0  0  0  0
   23.2345  -19.0025  -17.4948 C   0  0  0  0  0  0  0  0  0  0  0  0
   22.4740  -18.3888  -16.5359 C   0  0  0  0  0  0  0  0  0  0  0  0
   22.3933  -18.9278  -15.2653 C   0  0  0  0  0  0  0  0  0  0  0  0
   20.4344  -20.5678  -13.5814 C   0  0  0  0  0  0  0  0  0  0  0  0
   19.7196  -20.8916  -14.5618 O   0  0  0  0  0  0  0  0  0  0  0  0
   20.0242  -19.4858  -12.8177 O   0  0  0  0  0  0  0  0  0  0  0  0
  2  1  1  6
  3  4  1  0
  3  2  1  0
  4  5  2  0
  5  6  1  0
  7  6  1  0
  8  4  1  0
  8  7  2  0
  9  2  1  0
  9 10  2  0
 11  9  1  0
 12 11  1  0
 12 15  1  0
 12 13  1  1
 14 13  1  0
 15 17  1  0
 16 15  2  0
 17 18  1  0
 18 26  1  0
 19 20  1  0
 18 19  1  6
 20 25  1  0
 21 20  2  0
 21 22  1  0
 22 23  2  0
 23 24  1  0
 25 24  2  0
 26 27  2  0
 26 28  1  0
M  END
$$$$
