HCF.pdb
     RDKit          3D

 28 29  0  0  1  0  0  0  0  0999 V2000
   18.8476  -14.8488  -16.5376 N   0  0  0  0  0  0  0  0  0  0  0  0
   19.1167  -13.5683  -17.1032 C   0  0  1  0  0  0  0  0  0  0  0  0
   17.9192  -12.9598  -17.7928 C   0  0  0  0  0  0  0  0  0  0  0  0
   17.4173  -13.9233  -18.7938 C   0  0  0  0  0  0  0  0  0  0  0  0
   16.0761  -14.0399  -19.1663 C   0  0  0  0  0  0  0  0  0  0  0  0
   16.0137  -15.0224  -20.0989 N   0  0  0  0  0  0  0  0  0  0  0  0
   17.2379  -15.5062  -20.3118 C   0  0  0  0  0  0  0  0  0  0  0  0
   18.0679  -14.8282  -19.5138 N   0  0  0  0  0  0  0  0  0  0  0  0
   19.6511  -12.5946  -16.1233 C   0  0  0  0  0  0  0  0  0  0  0  0
   19.6808  -12.8168  -14.8866 O   0  0  0  0  0  0  0  0  0  0  0  0
   20.1519  -11.3549  -16.6000 N   0  0  0  0  0  0  0  0  0  0  0  0
   20.7193  -10.4205  -15.6471 C   0  0  1  0  0  0  0  0  0  0  0  0
   22.0138  -10.9211  -15.0521 C   0  0  0  0  0  0  0  0  0  0  0  0
   22.7425   -9.6991  -13.9291 S   0  0  0  0  0  0  0  0  0  0  0  0
   21.0322   -9.1583  -16.3736 C   0  0  0  0  0  0  0  0  0  0  0  0
   21.6866   -9.1396  -17.4479 O   0  0  0  0  0  0  0  0  0  0  0  0
   20.5902   -7.9097  -15.8623 N   0  0  0  0  0  0  0  0  0  0  0  0
   20.7981   -6.7045  -16.6381 C   0  0  1  0  0  0  0  0  0  0  0  0
   20.0415   -6.8765  -17.9287 C   0  0  0  0  0  0  0  0  0  0  0  0
   18.6033   -6.6262  -17.8271 C   0  0  0  0  0  0  0  0  0  0  0  0
   17.6541   -7.6141  -17.6990 C   0  0  0  0  0  0  0  0  0  0  0  0
   16.3288   -7.3226  -17.6073 C   0  0  0  0  0  0  0  0  0  0  0  0
   15.8882   -6.0078  -17.6403 C   0  0  0  0  0  0  0  0  0  0  0  0
   16.8164   -5.0094  -17.7672 C   0  0  0  0  0  0  0  0  0  0  0  0
   18.1604   -5.3203  -17.8594 C   0  0  0  0  0  0  0  0  0  0  0  0
   20.4027   -5.5212  -15.8634 C   0  0  0  0  0  0  0  0  0  0  0  0
   19.8698   -5.6799  -14.7376 O   0  0  0  0  0  0  0  0  0  0  0  0
   20.5864   -4.2212  -16.3089 O   0  0  0  0  0  0  0  0  0  0  0  0
  2  1  1  1
  3  4  1  0
  3  2  1  0
  4  5  2  0
  5  6  1  0
  7  6  1  0
  8  4  1  0
  8  7  2  0
  9  2  1  0
  9 10  2  0
 11  9  1  0
 12 11  1  0
 12 15  1  0
 12 13  1  6
 14 13  1  0
 15 17  1  0
 16 15  2  0
 17 18  1  0
 18 26  1  0
 19 20  1  0
 18 19  1  6
 20 25  1  0
 21 20  2  0
 21 22  1  0
 22 23  2  0
 23 24  1  0
 25 24  2  0
 26 27  2  0
 26 28  1  0
M  END
$$$$
