HCF.pdb
     RDKit          3D

 28 29  0  0  1  0  0  0  0  0999 V2000
   20.3330  -12.9071  -18.2172 N   0  0  0  0  0  0  0  0  0  0  0  0
   20.3792  -11.4828  -18.1831 C   0  0  1  0  0  0  0  0  0  0  0  0
   19.1075  -10.8351  -18.6764 C   0  0  0  0  0  0  0  0  0  0  0  0
   18.8866  -11.2477  -20.0776 C   0  0  0  0  0  0  0  0  0  0  0  0
   17.8046  -12.0203  -20.5061 C   0  0  0  0  0  0  0  0  0  0  0  0
   17.9495  -12.1875  -21.8440 N   0  0  0  0  0  0  0  0  0  0  0  0
   19.0551  -11.5617  -22.2490 C   0  0  0  0  0  0  0  0  0  0  0  0
   19.6036  -11.0022  -21.1666 N   0  0  0  0  0  0  0  0  0  0  0  0
   20.7060  -10.9382  -16.8450 C   0  0  0  0  0  0  0  0  0  0  0  0
   19.9739  -11.1144  -15.8387 O   0  0  0  0  0  0  0  0  0  0  0  0
   21.8982  -10.1835  -16.6904 N   0  0  0  0  0  0  0  0  0  0  0  0
   22.2305   -9.6682  -15.3761 C   0  0  1  0  0  0  0  0  0  0  0  0
   23.5361  -10.2201  -14.8554 C   0  0  0  0  0  0  0  0  0  0  0  0
   24.0146  -11.7304  -15.7360 S   0  0  0  0  0  0  0  0  0  0  0  0
   22.3952   -8.1922  -15.4907 C   0  0  0  0  0  0  0  0  0  0  0  0
   22.7445   -7.6308  -16.5610 O   0  0  0  0  0  0  0  0  0  0  0  0
   22.1568   -7.3561  -14.3683 N   0  0  0  0  0  0  0  0  0  0  0  0
   22.2637   -5.9188  -14.5108 C   0  0  1  0  0  0  0  0  0  0  0  0
   21.3306   -5.5166  -15.6222 C   0  0  0  0  0  0  0  0  0  0  0  0
   21.2157   -4.0720  -15.8252 C   0  0  0  0  0  0  0  0  0  0  0  0
   22.1723   -3.3000  -16.4435 C   0  0  0  0  0  0  0  0  0  0  0  0
   22.0115   -1.9593  -16.6063 C   0  0  0  0  0  0  0  0  0  0  0  0
   20.8672   -1.3219  -16.1498 C   0  0  0  0  0  0  0  0  0  0  0  0
   19.9028   -2.0718  -15.5317 C   0  0  0  0  0  0  0  0  0  0  0  0
   20.0796   -3.4338  -15.3730 C   0  0  0  0  0  0  0  0  0  0  0  0
   21.9928   -5.2546  -13.2294 C   0  0  0  0  0  0  0  0  0  0  0  0
   21.1893   -5.7872  -12.4247 O   0  0  0  0  0  0  0  0  0  0  0  0
   22.5808   -4.0574  -12.8512 O   0  0  0  0  0  0  0  0  0  0  0  0
  2  1  1  1
  3  4  1  0
  3  2  1  0
  4  5  2  0
  5  6  1  0
  7  6  1  0
  8  4  1  0
  8  7  2  0
  9  2  1  0
  9 10  2  0
 11  9  1  0
 12 11  1  0
 12 15  1  0
 12 13  1  6
 14 13  1  0
 15 17  1  0
 16 15  2  0
 17 18  1  0
 18 26  1  0
 19 20  1  0
 18 19  1  6
 20 25  1  0
 21 20  2  0
 21 22  1  0
 22 23  2  0
 23 24  1  0
 25 24  2  0
 26 27  2  0
 26 28  1  0
M  END
$$$$
