HCF.pdb
     RDKit          3D

 28 29  0  0  1  0  0  0  0  0999 V2000
   26.5313  -17.3125  -17.5650 N   0  0  0  0  0  0  0  0  0  0  0  0
   25.2060  -17.3653  -18.0874 C   0  0  1  0  0  0  0  0  0  0  0  0
   25.1189  -18.0783  -19.4156 C   0  0  0  0  0  0  0  0  0  0  0  0
   26.0531  -17.4276  -20.3570 C   0  0  0  0  0  0  0  0  0  0  0  0
   25.6771  -16.4601  -21.2918 C   0  0  0  0  0  0  0  0  0  0  0  0
   26.8013  -16.1084  -21.9636 N   0  0  0  0  0  0  0  0  0  0  0  0
   27.8342  -16.8061  -21.4899 C   0  0  0  0  0  0  0  0  0  0  0  0
   27.3590  -17.5950  -20.5218 N   0  0  0  0  0  0  0  0  0  0  0  0
   24.2306  -17.9730  -17.1529 C   0  0  0  0  0  0  0  0  0  0  0  0
   24.5716  -18.7145  -16.1971 O   0  0  0  0  0  0  0  0  0  0  0  0
   22.8494  -17.7075  -17.3438 N   0  0  0  0  0  0  0  0  0  0  0  0
   21.9088  -18.1525  -16.3336 C   0  0  1  0  0  0  0  0  0  0  0  0
   22.1598  -17.5087  -14.9909 C   0  0  0  0  0  0  0  0  0  0  0  0
   20.8662  -17.9412  -13.7972 S   0  0  0  0  0  0  0  0  0  0  0  0
   20.5436  -17.7422  -16.7660 C   0  0  0  0  0  0  0  0  0  0  0  0
   20.2432  -16.5465  -17.0163 O   0  0  0  0  0  0  0  0  0  0  0  0
   19.5172  -18.7123  -16.9118 N   0  0  0  0  0  0  0  0  0  0  0  0
   18.1983  -18.2994  -17.3448 C   0  0  1  0  0  0  0  0  0  0  0  0
   17.8788  -19.0836  -18.5900 C   0  0  0  0  0  0  0  0  0  0  0  0
   17.9903  -20.5348  -18.4385 C   0  0  0  0  0  0  0  0  0  0  0  0
   17.0219  -21.3290  -17.8686 C   0  0  0  0  0  0  0  0  0  0  0  0
   17.1789  -22.6751  -17.7549 C   0  0  0  0  0  0  0  0  0  0  0  0
   18.3312  -23.2958  -18.2142 C   0  0  0  0  0  0  0  0  0  0  0  0
   19.3074  -22.5238  -18.7848 C   0  0  0  0  0  0  0  0  0  0  0  0
   19.1343  -21.1565  -18.8939 C   0  0  0  0  0  0  0  0  0  0  0  0
   17.2244  -18.4729  -16.2595 C   0  0  0  0  0  0  0  0  0  0  0  0
   16.0391  -18.0991  -16.4386 O   0  0  0  0  0  0  0  0  0  0  0  0
   17.5419  -19.0334  -15.0318 O   0  0  0  0  0  0  0  0  0  0  0  0
  2  1  1  1
  3  4  1  0
  3  2  1  0
  4  5  2  0
  5  6  1  0
  7  6  1  0
  8  4  1  0
  8  7  2  0
  9  2  1  0
  9 10  2  0
 11  9  1  0
 12 11  1  0
 12 15  1  0
 12 13  1  1
 14 13  1  0
 15 17  1  0
 16 15  2  0
 17 18  1  0
 18 26  1  0
 19 20  1  0
 18 19  1  6
 20 25  1  0
 21 20  2  0
 21 22  1  0
 22 23  2  0
 23 24  1  0
 25 24  2  0
 26 27  2  0
 26 28  1  0
M  END
$$$$
