HCF.pdb
     RDKit          3D

 28 29  0  0  1  0  0  0  0  0999 V2000
   25.7825  -17.9118  -16.0313 N   0  0  0  0  0  0  0  0  0  0  0  0
   26.6543  -18.1340  -14.9256 C   0  0  1  0  0  0  0  0  0  0  0  0
   27.3086  -16.8701  -14.4213 C   0  0  0  0  0  0  0  0  0  0  0  0
   28.1053  -16.2865  -15.5200 C   0  0  0  0  0  0  0  0  0  0  0  0
   29.3633  -16.7522  -15.9095 C   0  0  0  0  0  0  0  0  0  0  0  0
   29.7681  -15.9690  -16.9398 N   0  0  0  0  0  0  0  0  0  0  0  0
   28.8290  -15.0576  -17.1958 C   0  0  0  0  0  0  0  0  0  0  0  0
   27.8358  -15.2684  -16.3271 N   0  0  0  0  0  0  0  0  0  0  0  0
   25.9971  -18.8194  -13.7887 C   0  0  0  0  0  0  0  0  0  0  0  0
   24.9243  -18.4137  -13.2748 O   0  0  0  0  0  0  0  0  0  0  0  0
   26.6045  -19.9859  -13.2546 N   0  0  0  0  0  0  0  0  0  0  0  0
   25.8621  -20.7802  -12.2950 C   0  0  1  0  0  0  0  0  0  0  0  0
   25.7401  -22.2251  -12.7165 C   0  0  0  0  0  0  0  0  0  0  0  0
   25.0555  -23.2475  -11.3855 S   0  0  0  0  0  0  0  0  0  0  0  0
   26.6117  -20.7627  -11.0079 C   0  0  0  0  0  0  0  0  0  0  0  0
   27.7937  -21.1815  -10.9068 O   0  0  0  0  0  0  0  0  0  0  0  0
   25.9991  -20.2608   -9.8295 N   0  0  0  0  0  0  0  0  0  0  0  0
   26.5417  -20.6149   -8.5342 C   0  0  1  0  0  0  0  0  0  0  0  0
   27.4313  -19.4783   -8.1046 C   0  0  0  0  0  0  0  0  0  0  0  0
   27.9507  -19.5959   -6.7416 C   0  0  0  0  0  0  0  0  0  0  0  0
   28.8170  -20.5813   -6.3271 C   0  0  0  0  0  0  0  0  0  0  0  0
   29.2691  -20.6412   -5.0457 C   0  0  0  0  0  0  0  0  0  0  0  0
   28.8673  -19.7018   -4.1075 C   0  0  0  0  0  0  0  0  0  0  0  0
   28.0055  -18.7127   -4.4993 C   0  0  0  0  0  0  0  0  0  0  0  0
   27.5540  -18.6641   -5.8052 C   0  0  0  0  0  0  0  0  0  0  0  0
   25.4589  -20.9197   -7.5903 C   0  0  0  0  0  0  0  0  0  0  0  0
   24.2839  -20.5866   -7.8824 O   0  0  0  0  0  0  0  0  0  0  0  0
   25.6611  -21.5628   -6.3788 O   0  0  0  0  0  0  0  0  0  0  0  0
  2  1  1  6
  3  4  1  0
  3  2  1  0
  4  5  2  0
  5  6  1  0
  7  6  1  0
  8  4  1  0
  8  7  2  0
  9  2  1  0
  9 10  2  0
 11  9  1  0
 12 11  1  0
 12 15  1  0
 12 13  1  6
 14 13  1  0
 15 17  1  0
 16 15  2  0
 17 18  1  0
 18 26  1  0
 19 20  1  0
 18 19  1  1
 20 25  1  0
 21 20  2  0
 21 22  1  0
 22 23  2  0
 23 24  1  0
 25 24  2  0
 26 27  2  0
 26 28  1  0
M  END
$$$$
