HCF.pdb
     RDKit          3D

 28 29  0  0  1  0  0  0  0  0999 V2000
   13.2720  -20.9973    2.4552 N   0  0  0  0  0  0  0  0  0  0  0  0
   14.5222  -20.4891    2.9143 C   0  0  1  0  0  0  0  0  0  0  0  0
   15.5251  -20.2864    1.8038 C   0  0  0  0  0  0  0  0  0  0  0  0
   15.6480  -21.5505    1.0493 C   0  0  0  0  0  0  0  0  0  0  0  0
   16.3160  -22.6831    1.5206 C   0  0  0  0  0  0  0  0  0  0  0  0
   16.2122  -23.6284    0.5538 N   0  0  0  0  0  0  0  0  0  0  0  0
   15.5210  -23.1338   -0.4736 C   0  0  0  0  0  0  0  0  0  0  0  0
   15.1913  -21.8794   -0.1523 N   0  0  0  0  0  0  0  0  0  0  0  0
   14.3969  -19.2287    3.6823 C   0  0  0  0  0  0  0  0  0  0  0  0
   13.5073  -18.3723    3.4485 O   0  0  0  0  0  0  0  0  0  0  0  0
   15.3217  -18.9751    4.7287 N   0  0  0  0  0  0  0  0  0  0  0  0
   15.0872  -17.8447    5.6064 C   0  0  1  0  0  0  0  0  0  0  0  0
   14.6923  -18.2711    7.0001 C   0  0  0  0  0  0  0  0  0  0  0  0
   15.6872  -19.6750    7.5698 S   0  0  0  0  0  0  0  0  0  0  0  0
   16.3632  -17.0857    5.7272 C   0  0  0  0  0  0  0  0  0  0  0  0
   17.4856  -17.6077    5.5027 O   0  0  0  0  0  0  0  0  0  0  0  0
   16.3493  -15.7181    6.1084 N   0  0  0  0  0  0  0  0  0  0  0  0
   17.6005  -15.0053    6.2628 C   0  0  1  0  0  0  0  0  0  0  0  0
   17.3502  -13.5814    5.8416 C   0  0  0  0  0  0  0  0  0  0  0  0
   18.5064  -12.6953    5.9802 C   0  0  0  0  0  0  0  0  0  0  0  0
   18.8336  -12.0270    7.1377 C   0  0  0  0  0  0  0  0  0  0  0  0
   19.9228  -11.2158    7.2097 C   0  0  0  0  0  0  0  0  0  0  0  0
   20.7461  -11.0349    6.1081 C   0  0  0  0  0  0  0  0  0  0  0  0
   20.4385  -11.6907    4.9464 C   0  0  0  0  0  0  0  0  0  0  0  0
   19.3280  -12.5123    4.8875 C   0  0  0  0  0  0  0  0  0  0  0  0
   18.1050  -15.1458    7.6348 C   0  0  0  0  0  0  0  0  0  0  0  0
   17.2836  -15.2192    8.5817 O   0  0  0  0  0  0  0  0  0  0  0  0
   19.4540  -15.2030    7.9497 O   0  0  0  0  0  0  0  0  0  0  0  0
  2  1  1  6
  3  4  1  0
  3  2  1  0
  4  5  2  0
  5  6  1  0
  7  6  1  0
  8  4  1  0
  8  7  2  0
  9  2  1  0
  9 10  2  0
 11  9  1  0
 12 11  1  0
 12 15  1  0
 12 13  1  1
 14 13  1  0
 15 17  1  0
 16 15  2  0
 17 18  1  0
 18 26  1  0
 19 20  1  0
 18 19  1  1
 20 25  1  0
 21 20  2  0
 21 22  1  0
 22 23  2  0
 23 24  1  0
 25 24  2  0
 26 27  2  0
 26 28  1  0
M  END
$$$$
