RMG.pdb
     RDKit          3D

 24 23  0  0  1  0  0  0  0  0999 V2000
    8.1320  -12.7789   14.5414 N   0  0  0  0  0  0  0  0  0  0  0  0
    7.6292  -13.6510   15.5650 C   0  0  0  0  0  0  0  0  0  0  0  0
    7.6469  -14.9243   15.3961 N   0  0  0  0  0  0  0  0  0  0  0  0
    7.1061  -13.1049   16.7799 N   0  0  0  0  0  0  0  0  0  0  0  0
    7.8133  -13.3156   18.0303 C   0  0  0  0  0  0  0  0  0  0  0  0
    7.5333  -14.7052   18.5343 C   0  0  0  0  0  0  0  0  0  0  0  0
    7.2107  -14.7685   19.9884 C   0  0  0  0  0  0  0  0  0  0  0  0
    8.0772  -15.7931   20.6827 C   0  0  2  0  0  0  0  0  0  0  0  0
    7.2007  -16.8872   21.0496 N   0  0  0  0  0  0  0  0  0  0  0  0
    8.6975  -15.2608   21.9162 C   0  0  0  0  0  0  0  0  0  0  0  0
    9.7374  -14.5652   21.8407 O   0  0  0  0  0  0  0  0  0  0  0  0
    7.3118  -15.5559   16.1499 C   0  0  0  0  0  0  0  0  0  0  0  0
    6.9279  -11.5513   27.2907 S   0  0  0  0  0  0  0  0  0  0  0  0
    6.1353  -12.3807   25.9011 C   0  0  0  0  0  0  0  0  0  0  0  0
    7.2859  -13.1732   24.8027 C   0  0  0  0  0  0  0  0  0  0  0  0
    7.7590  -14.4988   25.2709 C   0  0  2  0  0  0  0  0  0  0  0  0
    8.8045  -15.1238   24.4508 N   0  0  0  0  0  0  0  0  0  0  0  0
    8.1227  -15.5323   23.1847 C   0  0  0  0  0  0  0  0  0  0  0  0
    9.4598  -16.3095   24.9614 O   0  0  0  0  0  0  0  0  0  0  0  0
    8.8525  -17.3169   25.4435 N   0  0  0  0  0  0  0  0  0  0  0  0
   10.9047  -16.3934   24.9399 C   0  0  0  0  0  0  0  0  0  0  0  0
   11.5511  -17.6045   25.4472 C   0  0  0  0  0  0  0  0  0  0  0  0
   13.0138  -17.4490   25.4282 O   0  0  0  0  0  0  0  0  0  0  0  0
   13.7937  -18.4339   26.0177 O   0  0  0  0  0  0  0  0  0  0  0  0
  1  2  1  0
  2  3  2  0
  4  5  1  0
  4  2  1  0
  6  7  1  0
  6  5  1  0
  8  7  1  0
  8  9  1  1
  8 10  1  0
 10 11  2  0
 13 14  1  0
 13 12  1  0
 16 15  1  6
 15 14  1  0
 17 16  1  0
 17 10  1  0
 18 16  1  0
 18 19  2  0
 20 18  1  0
 21 20  1  0
 22 21  1  0
 23 22  1  0
 24 22  2  0
M  END
$$$$
