RMG.pdb
     RDKit          3D

 24 23  0  0  1  0  0  0  0  0999 V2000
    9.2602  -17.5285   17.5244 N   0  0  0  0  0  0  0  0  0  0  0  0
    8.5267  -17.2763   16.3162 C   0  0  0  0  0  0  0  0  0  0  0  0
    8.2426  -18.2423   15.5185 N   0  0  0  0  0  0  0  0  0  0  0  0
    8.1080  -15.9462   15.9952 N   0  0  0  0  0  0  0  0  0  0  0  0
    8.4188  -14.8530   16.8987 C   0  0  0  0  0  0  0  0  0  0  0  0
    7.5632  -14.9648   18.1311 C   0  0  0  0  0  0  0  0  0  0  0  0
    8.3230  -14.8490   19.4084 C   0  0  0  0  0  0  0  0  0  0  0  0
    7.7273  -13.7743   20.2876 C   0  0  2  0  0  0  0  0  0  0  0  0
    8.1264  -12.5068   19.7098 N   0  0  0  0  0  0  0  0  0  0  0  0
    8.2402  -13.8350   21.6744 C   0  0  0  0  0  0  0  0  0  0  0  0
    9.2928  -13.2256   21.9767 O   0  0  0  0  0  0  0  0  0  0  0  0
    7.7541  -18.0525   14.6214 C   0  0  0  0  0  0  0  0  0  0  0  0
    5.7627  -10.4730   26.6969 S   0  0  0  0  0  0  0  0  0  0  0  0
    5.7143  -12.2372   26.3328 C   0  0  0  0  0  0  0  0  0  0  0  0
    6.9853  -12.7603   25.2061 C   0  0  0  0  0  0  0  0  0  0  0  0
    6.9865  -14.2166   24.9246 C   0  0  2  0  0  0  0  0  0  0  0  0
    8.0732  -14.6934   24.0597 N   0  0  0  0  0  0  0  0  0  0  0  0
    7.5479  -14.5786   22.6648 C   0  0  0  0  0  0  0  0  0  0  0  0
    8.5235  -16.0606   24.2141 O   0  0  0  0  0  0  0  0  0  0  0  0
    7.7538  -17.0713   24.2613 N   0  0  0  0  0  0  0  0  0  0  0  0
    9.9395  -16.3390   24.3263 C   0  0  0  0  0  0  0  0  0  0  0  0
   10.3766  -17.7239   24.5077 C   0  0  0  0  0  0  0  0  0  0  0  0
   11.8452  -17.8036   24.4813 O   0  0  0  0  0  0  0  0  0  0  0  0
   12.4476  -19.0315   24.7161 O   0  0  0  0  0  0  0  0  0  0  0  0
  1  2  1  0
  2  3  2  0
  4  5  1  0
  4  2  1  0
  6  7  1  0
  6  5  1  0
  8  7  1  0
  8  9  1  6
  8 10  1  0
 10 11  2  0
 13 14  1  0
 13 12  1  0
 16 15  1  6
 15 14  1  0
 17 16  1  0
 17 10  1  0
 18 16  1  0
 18 19  2  0
 20 18  1  0
 21 20  1  0
 22 21  1  0
 23 22  1  0
 24 22  2  0
M  END
$$$$
