RMG.pdb
     RDKit          3D

 24 23  0  0  1  0  0  0  0  0999 V2000
    7.9810  -13.0917   16.4319 N   0  0  0  0  0  0  0  0  0  0  0  0
    7.9947  -14.3685   15.7755 C   0  0  0  0  0  0  0  0  0  0  0  0
    8.6164  -14.5161   14.6611 N   0  0  0  0  0  0  0  0  0  0  0  0
    7.3157  -15.4838   16.3609 N   0  0  0  0  0  0  0  0  0  0  0  0
    7.0890  -15.5204   17.7946 C   0  0  0  0  0  0  0  0  0  0  0  0
    8.4029  -15.7067   18.5033 C   0  0  0  0  0  0  0  0  0  0  0  0
    8.2906  -15.7345   19.9896 C   0  0  0  0  0  0  0  0  0  0  0  0
    8.1106  -14.3378   20.5369 C   0  0  2  0  0  0  0  0  0  0  0  0
    9.0465  -13.4949   19.8203 N   0  0  0  0  0  0  0  0  0  0  0  0
    8.4230  -14.2560   21.9811 C   0  0  0  0  0  0  0  0  0  0  0  0
    9.5948  -14.4573   22.3775 O   0  0  0  0  0  0  0  0  0  0  0  0
    8.6613  -15.4499   14.2078 C   0  0  0  0  0  0  0  0  0  0  0  0
    6.6501  -11.2033   28.9078 S   0  0  0  0  0  0  0  0  0  0  0  0
    6.6225  -11.2269   27.1061 C   0  0  0  0  0  0  0  0  0  0  0  0
    6.7003  -12.8648   26.4206 C   0  0  0  0  0  0  0  0  0  0  0  0
    6.7981  -12.9006   24.9410 C   0  0  1  0  0  0  0  0  0  0  0  0
    7.6809  -13.9364   24.3897 N   0  0  0  0  0  0  0  0  0  0  0  0
    7.4046  -13.9507   22.9206 C   0  0  0  0  0  0  0  0  0  0  0  0
    7.5109  -15.2987   24.8494 O   0  0  0  0  0  0  0  0  0  0  0  0
    6.4837  -16.0124   24.6225 N   0  0  0  0  0  0  0  0  0  0  0  0
    8.5591  -15.9282   25.6241 C   0  0  0  0  0  0  0  0  0  0  0  0
    8.3383  -17.2756   26.1508 C   0  0  0  0  0  0  0  0  0  0  0  0
    9.5307  -17.7429   26.8746 O   0  0  0  0  0  0  0  0  0  0  0  0
    9.4658  -18.9543   27.5485 O   0  0  0  0  0  0  0  0  0  0  0  0
  1  2  1  0
  2  3  2  0
  4  5  1  0
  4  2  1  0
  6  7  1  0
  6  5  1  0
  8  7  1  0
  8  9  1  6
  8 10  1  0
 10 11  2  0
 13 14  1  0
 13 12  1  0
 16 15  1  6
 15 14  1  0
 17 16  1  0
 17 10  1  0
 18 16  1  0
 18 19  2  0
 20 18  1  0
 21 20  1  0
 22 21  1  0
 23 22  1  0
 24 22  2  0
M  END
$$$$
