RMG.pdb
     RDKit          3D

 24 23  0  0  1  0  0  0  0  0999 V2000
    7.6743  -13.0293   16.1383 N   0  0  0  0  0  0  0  0  0  0  0  0
    7.6482  -14.2721   15.4197 C   0  0  0  0  0  0  0  0  0  0  0  0
    8.1093  -14.3367   14.2225 N   0  0  0  0  0  0  0  0  0  0  0  0
    7.1086  -15.4457   16.0352 N   0  0  0  0  0  0  0  0  0  0  0  0
    7.0037  -15.5201   17.4814 C   0  0  0  0  0  0  0  0  0  0  0  0
    8.3716  -15.3709   18.0897 C   0  0  0  0  0  0  0  0  0  0  0  0
    8.3945  -15.5203   19.5728 C   0  0  0  0  0  0  0  0  0  0  0  0
    7.9122  -14.2554   20.2437 C   0  0  2  0  0  0  0  0  0  0  0  0
    8.4232  -13.1538   19.4529 N   0  0  0  0  0  0  0  0  0  0  0  0
    8.4315  -14.1179   21.6225 C   0  0  0  0  0  0  0  0  0  0  0  0
    9.6405  -13.8449   21.8087 O   0  0  0  0  0  0  0  0  0  0  0  0
    8.0518  -15.2257   13.6879 C   0  0  0  0  0  0  0  0  0  0  0  0
    5.8754  -10.7516   26.5840 S   0  0  0  0  0  0  0  0  0  0  0  0
    7.3084  -11.7796   26.9542 C   0  0  0  0  0  0  0  0  0  0  0  0
    7.1566  -13.4449   26.3523 C   0  0  0  0  0  0  0  0  0  0  0  0
    6.9590  -13.5457   24.8857 C   0  0  1  0  0  0  0  0  0  0  0  0
    8.0700  -14.1470   24.1371 N   0  0  0  0  0  0  0  0  0  0  0  0
    7.5696  -14.2930   22.7359 C   0  0  0  0  0  0  0  0  0  0  0  0
    8.5403  -15.4556   24.5401 O   0  0  0  0  0  0  0  0  0  0  0  0
    7.8884  -16.5354   24.3815 N   0  0  0  0  0  0  0  0  0  0  0  0
    9.8365  -15.5868   25.1708 C   0  0  0  0  0  0  0  0  0  0  0  0
   10.1964  -16.8629   25.7904 C   0  0  0  0  0  0  0  0  0  0  0  0
   11.1316  -17.6031   24.9293 O   0  0  0  0  0  0  0  0  0  0  0  0
   12.1504  -18.3310   25.5275 O   0  0  0  0  0  0  0  0  0  0  0  0
  1  2  1  0
  2  3  2  0
  4  5  1  0
  4  2  1  0
  6  7  1  0
  6  5  1  0
  8  7  1  0
  8  9  1  6
  8 10  1  0
 10 11  2  0
 13 14  1  0
 13 12  1  0
 16 15  1  6
 15 14  1  0
 17 16  1  0
 17 10  1  0
 18 16  1  0
 18 19  2  0
 20 18  1  0
 21 20  1  0
 22 21  1  0
 23 22  1  0
 24 22  2  0
M  END
$$$$
