RMG.pdb
     RDKit          3D

 24 23  0  0  1  0  0  0  0  0999 V2000
    8.4593  -12.6011   16.7169 N   0  0  0  0  0  0  0  0  0  0  0  0
    7.7270  -13.6622   16.0849 C   0  0  0  0  0  0  0  0  0  0  0  0
    7.3321  -13.5404   14.8687 N   0  0  0  0  0  0  0  0  0  0  0  0
    7.4344  -14.8618   16.8080 N   0  0  0  0  0  0  0  0  0  0  0  0
    8.1481  -15.1569   18.0374 C   0  0  0  0  0  0  0  0  0  0  0  0
    7.5317  -14.3831   19.1708 C   0  0  0  0  0  0  0  0  0  0  0  0
    7.0788  -15.2330   20.3087 C   0  0  0  0  0  0  0  0  0  0  0  0
    8.2635  -15.7771   21.0724 C   0  0  2  0  0  0  0  0  0  0  0  0
    7.9488  -17.1567   21.3849 N   0  0  0  0  0  0  0  0  0  0  0  0
    8.4932  -15.0536   22.3426 C   0  0  0  0  0  0  0  0  0  0  0  0
    8.6399  -13.8089   22.3331 O   0  0  0  0  0  0  0  0  0  0  0  0
    6.8787  -14.3399   14.3842 C   0  0  0  0  0  0  0  0  0  0  0  0
    6.4269  -10.6086   27.2015 S   0  0  0  0  0  0  0  0  0  0  0  0
    6.4458  -11.7088   25.7745 C   0  0  0  0  0  0  0  0  0  0  0  0
    7.4082  -13.1806   26.0308 C   0  0  0  0  0  0  0  0  0  0  0  0
    7.5450  -14.0352   24.8261 C   0  0  1  0  0  0  0  0  0  0  0  0
    8.6153  -15.0390   24.8802 N   0  0  0  0  0  0  0  0  0  0  0  0
    8.5482  -15.7596   23.5721 C   0  0  0  0  0  0  0  0  0  0  0  0
    8.5512  -16.0556   25.9090 O   0  0  0  0  0  0  0  0  0  0  0  0
    7.4744  -16.4872   26.4288 N   0  0  0  0  0  0  0  0  0  0  0  0
    9.7748  -16.6466   26.4078 C   0  0  0  0  0  0  0  0  0  0  0  0
   10.8094  -17.0449   25.4524 C   0  0  0  0  0  0  0  0  0  0  0  0
   11.9081  -17.7337   26.1470 O   0  0  0  0  0  0  0  0  0  0  0  0
   12.9949  -18.1690   25.4018 O   0  0  0  0  0  0  0  0  0  0  0  0
  1  2  1  0
  2  3  2  0
  4  5  1  0
  4  2  1  0
  6  7  1  0
  6  5  1  0
  8  7  1  0
  8  9  1  1
  8 10  1  0
 10 11  2  0
 13 14  1  0
 13 12  1  0
 16 15  1  6
 15 14  1  0
 17 16  1  0
 17 10  1  0
 18 16  1  0
 18 19  2  0
 20 18  1  0
 21 20  1  0
 22 21  1  0
 23 22  1  0
 24 22  2  0
M  END
$$$$
