RMG.pdb
     RDKit          3D

 24 23  0  0  1  0  0  0  0  0999 V2000
    7.7845  -12.6425   18.6810 N   0  0  0  0  0  0  0  0  0  0  0  0
    8.1005  -13.7384   17.8090 C   0  0  0  0  0  0  0  0  0  0  0  0
    8.5148  -13.5152   16.6137 N   0  0  0  0  0  0  0  0  0  0  0  0
    7.9558  -15.0858   18.2685 N   0  0  0  0  0  0  0  0  0  0  0  0
    7.5484  -15.3424   19.6382 C   0  0  0  0  0  0  0  0  0  0  0  0
    8.4700  -14.6143   20.5782 C   0  0  0  0  0  0  0  0  0  0  0  0
    9.5891  -15.4507   21.0982 C   0  0  0  0  0  0  0  0  0  0  0  0
    9.0853  -16.4352   22.1275 C   0  0  2  0  0  0  0  0  0  0  0  0
    7.7809  -16.8712   21.6710 N   0  0  0  0  0  0  0  0  0  0  0  0
    8.9281  -15.8194   23.4639 C   0  0  0  0  0  0  0  0  0  0  0  0
    9.8535  -15.1220   23.9414 O   0  0  0  0  0  0  0  0  0  0  0  0
    8.6889  -14.3076   15.9648 C   0  0  0  0  0  0  0  0  0  0  0  0
    8.0932  -11.6735   27.3164 S   0  0  0  0  0  0  0  0  0  0  0  0
    6.4699  -12.0304   26.6203 C   0  0  0  0  0  0  0  0  0  0  0  0
    6.0459  -13.7557   26.6669 C   0  0  0  0  0  0  0  0  0  0  0  0
    6.4081  -14.5043   25.4387 C   0  0  2  0  0  0  0  0  0  0  0  0
    7.5591  -15.4074   25.5640 N   0  0  0  0  0  0  0  0  0  0  0  0
    7.7361  -16.0130   24.2087 C   0  0  0  0  0  0  0  0  0  0  0  0
    7.4661  -16.5124   26.4949 O   0  0  0  0  0  0  0  0  0  0  0  0
    7.2585  -16.3871   27.7428 N   0  0  0  0  0  0  0  0  0  0  0  0
    7.6141  -17.8689   26.0119 C   0  0  0  0  0  0  0  0  0  0  0  0
    8.9585  -18.4341   25.8898 C   0  0  0  0  0  0  0  0  0  0  0  0
    9.5013  -18.7528   27.2194 O   0  0  0  0  0  0  0  0  0  0  0  0
    9.9041  -20.0556   27.4770 O   0  0  0  0  0  0  0  0  0  0  0  0
  1  2  1  0
  2  3  2  0
  4  5  1  0
  4  2  1  0
  6  7  1  0
  6  5  1  0
  8  7  1  0
  8  9  1  6
  8 10  1  0
 10 11  2  0
 13 14  1  0
 13 12  1  0
 16 15  1  6
 15 14  1  0
 17 16  1  0
 17 10  1  0
 18 16  1  0
 18 19  2  0
 20 18  1  0
 21 20  1  0
 22 21  1  0
 23 22  1  0
 24 22  2  0
M  END
$$$$
