RMG.pdb
     RDKit          3D

 24 23  0  0  1  0  0  0  0  0999 V2000
    7.9151  -14.0085   13.9461 N   0  0  0  0  0  0  0  0  0  0  0  0
    8.1291  -14.5070   15.2755 C   0  0  0  0  0  0  0  0  0  0  0  0
    8.2303  -15.7704   15.4840 N   0  0  0  0  0  0  0  0  0  0  0  0
    8.2315  -13.5971   16.3752 N   0  0  0  0  0  0  0  0  0  0  0  0
    8.4104  -14.1088   17.7221 C   0  0  0  0  0  0  0  0  0  0  0  0
    7.2225  -13.7277   18.5630 C   0  0  0  0  0  0  0  0  0  0  0  0
    7.5690  -13.3388   19.9598 C   0  0  0  0  0  0  0  0  0  0  0  0
    8.3453  -14.4403   20.6430 C   0  0  2  0  0  0  0  0  0  0  0  0
    7.5096  -15.6229   20.5884 N   0  0  0  0  0  0  0  0  0  0  0  0
    8.6239  -14.1332   22.0635 C   0  0  0  0  0  0  0  0  0  0  0  0
    9.3466  -13.1528   22.3590 O   0  0  0  0  0  0  0  0  0  0  0  0
    8.3935  -16.1298   16.4451 C   0  0  0  0  0  0  0  0  0  0  0  0
    7.5900  -11.6150   28.4937 S   0  0  0  0  0  0  0  0  0  0  0  0
    7.6648  -12.0645   26.7503 C   0  0  0  0  0  0  0  0  0  0  0  0
    6.8955  -13.6256   26.3903 C   0  0  0  0  0  0  0  0  0  0  0  0
    6.9741  -14.0278   24.9647 C   0  0  1  0  0  0  0  0  0  0  0  0
    8.2604  -14.5913   24.5358 N   0  0  0  0  0  0  0  0  0  0  0  0
    8.0778  -14.9414   23.0940 C   0  0  0  0  0  0  0  0  0  0  0  0
    8.7354  -15.7925   25.1897 O   0  0  0  0  0  0  0  0  0  0  0  0
    8.0738  -16.8745   25.2770 N   0  0  0  0  0  0  0  0  0  0  0  0
   10.0485  -15.8039   25.7987 C   0  0  0  0  0  0  0  0  0  0  0  0
   10.4485  -16.9632   26.5973 C   0  0  0  0  0  0  0  0  0  0  0  0
   11.2338  -17.9004   25.7794 O   0  0  0  0  0  0  0  0  0  0  0  0
   11.9009  -18.9381   26.4151 O   0  0  0  0  0  0  0  0  0  0  0  0
  1  2  1  0
  2  3  2  0
  4  5  1  0
  4  2  1  0
  6  7  1  0
  6  5  1  0
  8  7  1  0
  8  9  1  1
  8 10  1  0
 10 11  2  0
 13 14  1  0
 13 12  1  0
 16 15  1  6
 15 14  1  0
 17 16  1  0
 17 10  1  0
 18 16  1  0
 18 19  2  0
 20 18  1  0
 21 20  1  0
 22 21  1  0
 23 22  1  0
 24 22  2  0
M  END
$$$$
