RMG.pdb
     RDKit          3D

 24 23  0  0  1  0  0  0  0  0999 V2000
    9.8576  -14.2104   15.6140 N   0  0  0  0  0  0  0  0  0  0  0  0
    8.5350  -14.1408   16.1683 C   0  0  0  0  0  0  0  0  0  0  0  0
    7.7610  -13.1590   15.8733 N   0  0  0  0  0  0  0  0  0  0  0  0
    8.0725  -15.1666   17.0523 N   0  0  0  0  0  0  0  0  0  0  0  0
    8.8261  -15.4794   18.2533 C   0  0  0  0  0  0  0  0  0  0  0  0
    8.7248  -14.3310   19.2198 C   0  0  0  0  0  0  0  0  0  0  0  0
    9.4928  -14.5318   20.4816 C   0  0  0  0  0  0  0  0  0  0  0  0
    8.7022  -15.3694   21.4594 C   0  0  2  0  0  0  0  0  0  0  0  0
    7.3121  -15.2507   21.0677 N   0  0  0  0  0  0  0  0  0  0  0  0
    8.8360  -14.8841   22.8510 C   0  0  0  0  0  0  0  0  0  0  0  0
    9.4675  -13.8270   23.0843 O   0  0  0  0  0  0  0  0  0  0  0  0
    6.8137  -13.0955   16.2954 C   0  0  0  0  0  0  0  0  0  0  0  0
    5.9503  -11.6945   27.5732 S   0  0  0  0  0  0  0  0  0  0  0  0
    7.1304  -11.9360   26.2329 C   0  0  0  0  0  0  0  0  0  0  0  0
    6.6970  -13.2711   25.1429 C   0  0  0  0  0  0  0  0  0  0  0  0
    7.0223  -14.6181   25.6721 C   0  0  2  0  0  0  0  0  0  0  0  0
    8.3585  -15.1251   25.3346 N   0  0  0  0  0  0  0  0  0  0  0  0
    8.2536  -15.6077   23.9236 C   0  0  0  0  0  0  0  0  0  0  0  0
    8.8875  -16.2308   26.1050 O   0  0  0  0  0  0  0  0  0  0  0  0
    9.0932  -16.2014   27.3592 N   0  0  0  0  0  0  0  0  0  0  0  0
    9.2181  -17.4729   25.4394 C   0  0  0  0  0  0  0  0  0  0  0  0
    9.6962  -18.6002   26.2410 C   0  0  0  0  0  0  0  0  0  0  0  0
   11.1502  -18.5035   26.4422 O   0  0  0  0  0  0  0  0  0  0  0  0
   11.8006  -19.5418   27.0939 O   0  0  0  0  0  0  0  0  0  0  0  0
  1  2  1  0
  2  3  2  0
  4  5  1  0
  4  2  1  0
  6  7  1  0
  6  5  1  0
  8  7  1  0
  8  9  1  6
  8 10  1  0
 10 11  2  0
 13 14  1  0
 13 12  1  0
 16 15  1  6
 15 14  1  0
 17 16  1  0
 17 10  1  0
 18 16  1  0
 18 19  2  0
 20 18  1  0
 21 20  1  0
 22 21  1  0
 23 22  1  0
 24 22  2  0
M  END
$$$$
