RMG.pdb
     RDKit          3D

 24 23  0  0  1  0  0  0  0  0999 V2000
    8.2360  -12.7015   15.2184 N   0  0  0  0  0  0  0  0  0  0  0  0
    8.3806  -14.1005   15.5068 C   0  0  0  0  0  0  0  0  0  0  0  0
    9.0716  -14.8533   14.7284 N   0  0  0  0  0  0  0  0  0  0  0  0
    7.7555  -14.6629   16.6647 N   0  0  0  0  0  0  0  0  0  0  0  0
    7.1134  -13.7929   17.6336 C   0  0  0  0  0  0  0  0  0  0  0  0
    8.1451  -13.2679   18.5944 C   0  0  0  0  0  0  0  0  0  0  0  0
    7.8158  -13.5092   20.0282 C   0  0  0  0  0  0  0  0  0  0  0  0
    8.6351  -14.6532   20.5782 C   0  0  2  0  0  0  0  0  0  0  0  0
    7.8865  -15.8622   20.2994 N   0  0  0  0  0  0  0  0  0  0  0  0
    8.8278  -14.5531   22.0420 C   0  0  0  0  0  0  0  0  0  0  0  0
    9.4854  -13.5993   22.5202 O   0  0  0  0  0  0  0  0  0  0  0  0
    9.2487  -15.8450   14.9827 C   0  0  0  0  0  0  0  0  0  0  0  0
    7.0854  -10.9636   26.7673 S   0  0  0  0  0  0  0  0  0  0  0  0
    7.1305  -12.7632   26.6852 C   0  0  0  0  0  0  0  0  0  0  0  0
    7.2727  -13.3907   25.0286 C   0  0  0  0  0  0  0  0  0  0  0  0
    7.2708  -14.8712   24.9370 C   0  0  2  0  0  0  0  0  0  0  0  0
    8.4917  -15.4730   24.3862 N   0  0  0  0  0  0  0  0  0  0  0  0
    8.2727  -15.5300   22.9085 C   0  0  0  0  0  0  0  0  0  0  0  0
    8.8406  -16.8163   24.7983 O   0  0  0  0  0  0  0  0  0  0  0  0
    8.0120  -17.7741   24.9078 N   0  0  0  0  0  0  0  0  0  0  0  0
   10.2169  -17.1319   25.1170 C   0  0  0  0  0  0  0  0  0  0  0  0
   10.5572  -18.5007   25.5074 C   0  0  0  0  0  0  0  0  0  0  0  0
   11.9953  -18.6061   25.7989 O   0  0  0  0  0  0  0  0  0  0  0  0
   12.4743  -19.7813   26.3604 O   0  0  0  0  0  0  0  0  0  0  0  0
  1  2  1  0
  2  3  2  0
  4  5  1  0
  4  2  1  0
  6  7  1  0
  6  5  1  0
  8  7  1  0
  8  9  1  1
  8 10  1  0
 10 11  2  0
 13 14  1  0
 13 12  1  0
 16 15  1  6
 15 14  1  0
 17 16  1  0
 17 10  1  0
 18 16  1  0
 18 19  2  0
 20 18  1  0
 21 20  1  0
 22 21  1  0
 23 22  1  0
 24 22  2  0
M  END
$$$$
