RMG.pdb
     RDKit          3D

 24 23  0  0  1  0  0  0  0  0999 V2000
    7.4052  -12.8017   19.9108 N   0  0  0  0  0  0  0  0  0  0  0  0
    8.3341  -13.0609   18.8471 C   0  0  0  0  0  0  0  0  0  0  0  0
    9.4049  -12.3598   18.7384 N   0  0  0  0  0  0  0  0  0  0  0  0
    8.0709  -14.1033   17.9027 N   0  0  0  0  0  0  0  0  0  0  0  0
    8.3773  -15.4811   18.2432 C   0  0  0  0  0  0  0  0  0  0  0  0
    7.7589  -15.8163   19.5730 C   0  0  0  0  0  0  0  0  0  0  0  0
    8.7187  -16.3866   20.5608 C   0  0  0  0  0  0  0  0  0  0  0  0
    8.0093  -16.7528   21.8435 C   0  0  2  0  0  0  0  0  0  0  0  0
    6.6025  -16.8642   21.5142 N   0  0  0  0  0  0  0  0  0  0  0  0
    8.1617  -15.7136   22.8860 C   0  0  0  0  0  0  0  0  0  0  0  0
    7.8671  -14.5232   22.6270 O   0  0  0  0  0  0  0  0  0  0  0  0
   10.0054  -12.4506   17.8953 C   0  0  0  0  0  0  0  0  0  0  0  0
    7.0081  -11.1209   27.0744 S   0  0  0  0  0  0  0  0  0  0  0  0
    6.0706  -12.1482   25.9285 C   0  0  0  0  0  0  0  0  0  0  0  0
    7.0958  -13.1568   24.8844 C   0  0  0  0  0  0  0  0  0  0  0  0
    7.2974  -14.5393   25.3827 C   0  0  2  0  0  0  0  0  0  0  0  0
    8.6695  -15.0533   25.2861 N   0  0  0  0  0  0  0  0  0  0  0  0
    8.6391  -16.0558   24.1775 C   0  0  0  0  0  0  0  0  0  0  0  0
    9.2300  -15.7332   26.4349 O   0  0  0  0  0  0  0  0  0  0  0  0
    9.4473  -15.1848   27.5609 N   0  0  0  0  0  0  0  0  0  0  0  0
    9.5809  -17.1340   26.3360 C   0  0  0  0  0  0  0  0  0  0  0  0
   10.9733  -17.5317   26.5483 C   0  0  0  0  0  0  0  0  0  0  0  0
   11.1154  -18.9890   26.4070 O   0  0  0  0  0  0  0  0  0  0  0  0
   12.3442  -19.5669   26.6934 O   0  0  0  0  0  0  0  0  0  0  0  0
  1  2  1  0
  2  3  2  0
  4  5  1  0
  4  2  1  0
  6  7  1  0
  6  5  1  0
  8  7  1  0
  8  9  1  6
  8 10  1  0
 10 11  2  0
 13 14  1  0
 13 12  1  0
 16 15  1  6
 15 14  1  0
 17 16  1  0
 17 10  1  0
 18 16  1  0
 18 19  2  0
 20 18  1  0
 21 20  1  0
 22 21  1  0
 23 22  1  0
 24 22  2  0
M  END
$$$$
