RMG.pdb
     RDKit          3D

 24 23  0  0  1  0  0  0  0  0999 V2000
    7.8034  -15.1034   15.5626 N   0  0  0  0  0  0  0  0  0  0  0  0
    7.9461  -13.7913   16.1276 C   0  0  0  0  0  0  0  0  0  0  0  0
    7.7562  -12.7497   15.4001 N   0  0  0  0  0  0  0  0  0  0  0  0
    8.3002  -13.6379   17.5055 N   0  0  0  0  0  0  0  0  0  0  0  0
    8.9589  -14.7247   18.2076 C   0  0  0  0  0  0  0  0  0  0  0  0
    8.0691  -15.2141   19.3176 C   0  0  0  0  0  0  0  0  0  0  0  0
    8.2310  -14.4672   20.5976 C   0  0  0  0  0  0  0  0  0  0  0  0
    8.8066  -15.3637   21.6689 C   0  0  2  0  0  0  0  0  0  0  0  0
    8.0649  -16.6068   21.6027 N   0  0  0  0  0  0  0  0  0  0  0  0
    8.6412  -14.7955   23.0252 C   0  0  0  0  0  0  0  0  0  0  0  0
    8.2772  -13.6040   23.1615 O   0  0  0  0  0  0  0  0  0  0  0  0
    7.8600  -11.8005   15.8096 C   0  0  0  0  0  0  0  0  0  0  0  0
    6.5401  -10.7000   26.6362 S   0  0  0  0  0  0  0  0  0  0  0  0
    7.0852  -12.4125   26.7672 C   0  0  0  0  0  0  0  0  0  0  0  0
    6.7340  -13.3777   25.3168 C   0  0  0  0  0  0  0  0  0  0  0  0
    7.0679  -14.8169   25.4487 C   0  0  2  0  0  0  0  0  0  0  0  0
    8.4999  -15.1289   25.5398 N   0  0  0  0  0  0  0  0  0  0  0  0
    8.8918  -15.5908   24.1731 C   0  0  0  0  0  0  0  0  0  0  0  0
    8.9187  -16.1680   26.4567 O   0  0  0  0  0  0  0  0  0  0  0  0
    8.7500  -16.1281   27.7161 N   0  0  0  0  0  0  0  0  0  0  0  0
    9.5788  -17.3502   25.9448 C   0  0  0  0  0  0  0  0  0  0  0  0
   11.0348  -17.4511   26.0534 C   0  0  0  0  0  0  0  0  0  0  0  0
   11.4766  -18.8190   25.7410 O   0  0  0  0  0  0  0  0  0  0  0  0
   10.5160  -19.7747   25.4415 O   0  0  0  0  0  0  0  0  0  0  0  0
  1  2  1  0
  2  3  2  0
  4  5  1  0
  4  2  1  0
  6  7  1  0
  6  5  1  0
  8  7  1  0
  8  9  1  1
  8 10  1  0
 10 11  2  0
 13 14  1  0
 13 12  1  0
 16 15  1  6
 15 14  1  0
 17 16  1  0
 17 10  1  0
 18 16  1  0
 18 19  2  0
 20 18  1  0
 21 20  1  0
 22 21  1  0
 23 22  1  0
 24 22  2  0
M  END
$$$$
