RMG.pdb
     RDKit          3D

 24 23  0  0  1  0  0  0  0  0999 V2000
    9.8043  -14.2610   17.6390 N   0  0  0  0  0  0  0  0  0  0  0  0
    8.7296  -14.0978   16.7010 C   0  0  0  0  0  0  0  0  0  0  0  0
    8.8686  -14.4857   15.4844 N   0  0  0  0  0  0  0  0  0  0  0  0
    7.4972  -13.5022   17.1182 N   0  0  0  0  0  0  0  0  0  0  0  0
    7.2312  -13.3068   18.5321 C   0  0  0  0  0  0  0  0  0  0  0  0
    8.4582  -13.6654   19.3254 C   0  0  0  0  0  0  0  0  0  0  0  0
    8.2898  -13.5213   20.7996 C   0  0  0  0  0  0  0  0  0  0  0  0
    8.6443  -14.8094   21.5052 C   0  0  2  0  0  0  0  0  0  0  0  0
    7.5044  -15.6896   21.3446 N   0  0  0  0  0  0  0  0  0  0  0  0
    8.8778  -14.6107   22.9529 C   0  0  0  0  0  0  0  0  0  0  0  0
    9.7643  -13.8125   23.3374 O   0  0  0  0  0  0  0  0  0  0  0  0
    8.0910  -14.3659   14.8058 C   0  0  0  0  0  0  0  0  0  0  0  0
    6.2749  -10.8693   27.0293 S   0  0  0  0  0  0  0  0  0  0  0  0
    7.1398  -12.4501   27.0448 C   0  0  0  0  0  0  0  0  0  0  0  0
    6.5029  -13.6146   25.8629 C   0  0  0  0  0  0  0  0  0  0  0  0
    7.0613  -14.9824   25.9954 C   0  0  2  0  0  0  0  0  0  0  0  0
    8.3751  -15.1928   25.3742 N   0  0  0  0  0  0  0  0  0  0  0  0
    8.1045  -15.3181   23.9093 C   0  0  0  0  0  0  0  0  0  0  0  0
    9.1316  -16.3683   25.7507 O   0  0  0  0  0  0  0  0  0  0  0  0
    9.4804  -16.6498   26.9403 N   0  0  0  0  0  0  0  0  0  0  0  0
    9.5387  -17.3133   24.7325 C   0  0  0  0  0  0  0  0  0  0  0  0
   10.2181  -18.5439   25.1398 C   0  0  0  0  0  0  0  0  0  0  0  0
   11.6746  -18.3945   24.9969 O   0  0  0  0  0  0  0  0  0  0  0  0
   12.4879  -19.4680   25.3317 O   0  0  0  0  0  0  0  0  0  0  0  0
  1  2  1  0
  2  3  2  0
  4  5  1  0
  4  2  1  0
  6  7  1  0
  6  5  1  0
  8  7  1  0
  8  9  1  1
  8 10  1  0
 10 11  2  0
 13 14  1  0
 13 12  1  0
 16 15  1  6
 15 14  1  0
 17 16  1  0
 17 10  1  0
 18 16  1  0
 18 19  2  0
 20 18  1  0
 21 20  1  0
 22 21  1  0
 23 22  1  0
 24 22  2  0
M  END
$$$$
