RMG.pdb
     RDKit          3D

 24 23  0  0  1  0  0  0  0  0999 V2000
   10.4943  -14.3146   19.3318 N   0  0  0  0  0  0  0  0  0  0  0  0
    9.3466  -13.6742   18.7538 C   0  0  0  0  0  0  0  0  0  0  0  0
    9.3031  -12.3945   18.6516 N   0  0  0  0  0  0  0  0  0  0  0  0
    8.2451  -14.4599   18.2879 N   0  0  0  0  0  0  0  0  0  0  0  0
    8.0362  -15.7961   18.8159 C   0  0  0  0  0  0  0  0  0  0  0  0
    7.1340  -15.7231   20.0175 C   0  0  0  0  0  0  0  0  0  0  0  0
    7.4989  -16.6724   21.1075 C   0  0  0  0  0  0  0  0  0  0  0  0
    6.5457  -16.5389   22.2721 C   0  0  2  0  0  0  0  0  0  0  0  0
    5.2656  -16.1577   21.7100 N   0  0  0  0  0  0  0  0  0  0  0  0
    6.9666  -15.4877   23.2247 C   0  0  0  0  0  0  0  0  0  0  0  0
    6.6463  -14.2939   23.0169 O   0  0  0  0  0  0  0  0  0  0  0  0
    8.4728  -11.9319   18.2319 C   0  0  0  0  0  0  0  0  0  0  0  0
    5.8713  -12.3851   26.7098 S   0  0  0  0  0  0  0  0  0  0  0  0
    7.2938  -12.5960   27.7956 C   0  0  0  0  0  0  0  0  0  0  0  0
    7.9835  -14.2332   27.7453 C   0  0  0  0  0  0  0  0  0  0  0  0
    7.5345  -15.0468   26.5892 C   0  0  1  0  0  0  0  0  0  0  0  0
    8.2150  -14.7700   25.3178 N   0  0  0  0  0  0  0  0  0  0  0  0
    7.7306  -15.8221   24.3726 C   0  0  0  0  0  0  0  0  0  0  0  0
    9.6612  -14.8292   25.2866 O   0  0  0  0  0  0  0  0  0  0  0  0
   10.4283  -14.0247   25.9034 N   0  0  0  0  0  0  0  0  0  0  0  0
   10.3184  -15.8600   24.5115 C   0  0  0  0  0  0  0  0  0  0  0  0
   11.7807  -15.9182   24.5067 C   0  0  0  0  0  0  0  0  0  0  0  0
   12.2430  -17.0809   23.7330 O   0  0  0  0  0  0  0  0  0  0  0  0
   13.6071  -17.3220   23.6484 O   0  0  0  0  0  0  0  0  0  0  0  0
  1  2  1  0
  2  3  2  0
  4  5  1  0
  4  2  1  0
  6  7  1  0
  6  5  1  0
  8  7  1  0
  8  9  1  6
  8 10  1  0
 10 11  2  0
 13 14  1  0
 13 12  1  0
 16 15  1  6
 15 14  1  0
 17 16  1  0
 17 10  1  0
 18 16  1  0
 18 19  2  0
 20 18  1  0
 21 20  1  0
 22 21  1  0
 23 22  1  0
 24 22  2  0
M  END
$$$$
