RMG.pdb
     RDKit          3D

 24 23  0  0  1  0  0  0  0  0999 V2000
    8.3498  -12.7002   16.7443 N   0  0  0  0  0  0  0  0  0  0  0  0
    8.2005  -13.9603   16.0726 C   0  0  0  0  0  0  0  0  0  0  0  0
    7.4453  -14.0562   15.0379 N   0  0  0  0  0  0  0  0  0  0  0  0
    8.8940  -15.1161   16.5530 N   0  0  0  0  0  0  0  0  0  0  0  0
    9.2272  -15.2252   17.9619 C   0  0  0  0  0  0  0  0  0  0  0  0
    8.1733  -16.0383   18.6630 C   0  0  0  0  0  0  0  0  0  0  0  0
    8.4679  -16.3015   20.1004 C   0  0  0  0  0  0  0  0  0  0  0  0
    7.3784  -15.7348   20.9804 C   0  0  2  0  0  0  0  0  0  0  0  0
    6.7092  -14.7161   20.1966 N   0  0  0  0  0  0  0  0  0  0  0  0
    7.9176  -15.1005   22.2038 C   0  0  0  0  0  0  0  0  0  0  0  0
    8.7385  -14.1583   22.1072 O   0  0  0  0  0  0  0  0  0  0  0  0
    7.3578  -14.9624   14.5373 C   0  0  0  0  0  0  0  0  0  0  0  0
    5.8106  -11.3338   26.2480 S   0  0  0  0  0  0  0  0  0  0  0  0
    7.3075  -12.0589   26.9413 C   0  0  0  0  0  0  0  0  0  0  0  0
    7.3641  -13.8297   26.8013 C   0  0  0  0  0  0  0  0  0  0  0  0
    7.0283  -14.3438   25.4510 C   0  0  1  0  0  0  0  0  0  0  0  0
    8.1265  -15.0042   24.7339 N   0  0  0  0  0  0  0  0  0  0  0  0
    7.5114  -15.5516   23.4862 C   0  0  0  0  0  0  0  0  0  0  0  0
    8.7974  -16.1136   25.3780 O   0  0  0  0  0  0  0  0  0  0  0  0
    8.2286  -16.9509   26.1471 N   0  0  0  0  0  0  0  0  0  0  0  0
   10.2132  -16.3188   25.1574 C   0  0  0  0  0  0  0  0  0  0  0  0
   10.8915  -17.4011   25.8719 C   0  0  0  0  0  0  0  0  0  0  0  0
   12.2641  -17.5640   25.3684 O   0  0  0  0  0  0  0  0  0  0  0  0
   13.0870  -18.5019   25.9759 O   0  0  0  0  0  0  0  0  0  0  0  0
  1  2  1  0
  2  3  2  0
  4  5  1  0
  4  2  1  0
  6  7  1  0
  6  5  1  0
  8  7  1  0
  8  9  1  6
  8 10  1  0
 10 11  2  0
 13 14  1  0
 13 12  1  0
 16 15  1  6
 15 14  1  0
 17 16  1  0
 17 10  1  0
 18 16  1  0
 18 19  2  0
 20 18  1  0
 21 20  1  0
 22 21  1  0
 23 22  1  0
 24 22  2  0
M  END
$$$$
