RMG.pdb
     RDKit          3D

 24 23  0  0  1  0  0  0  0  0999 V2000
    6.5913  -13.8745   18.7705 N   0  0  0  0  0  0  0  0  0  0  0  0
    7.9763  -13.5029   18.8415 C   0  0  0  0  0  0  0  0  0  0  0  0
    8.4720  -12.6872   17.9818 N   0  0  0  0  0  0  0  0  0  0  0  0
    8.8114  -14.0396   19.8721 N   0  0  0  0  0  0  0  0  0  0  0  0
    8.4419  -15.2810   20.5283 C   0  0  0  0  0  0  0  0  0  0  0  0
    7.7468  -14.9722   21.8262 C   0  0  0  0  0  0  0  0  0  0  0  0
    8.6608  -14.9054   23.0020 C   0  0  0  0  0  0  0  0  0  0  0  0
    9.1027  -16.2905   23.4131 C   0  0  2  0  0  0  0  0  0  0  0  0
    7.9312  -16.9479   23.9566 N   0  0  0  0  0  0  0  0  0  0  0  0
   10.1463  -16.2589   24.4618 C   0  0  0  0  0  0  0  0  0  0  0  0
   11.2446  -15.7008   24.2313 O   0  0  0  0  0  0  0  0  0  0  0  0
    9.4825  -12.4477   18.0112 C   0  0  0  0  0  0  0  0  0  0  0  0
    9.1560  -11.7129   27.7321 S   0  0  0  0  0  0  0  0  0  0  0  0
    9.0149  -13.4620   28.1421 C   0  0  0  0  0  0  0  0  0  0  0  0
   10.4181  -14.4231   27.6267 C   0  0  0  0  0  0  0  0  0  0  0  0
   10.2680  -15.8828   27.8434 C   0  0  2  0  0  0  0  0  0  0  0  0
   10.9064  -16.7411   26.8375 N   0  0  0  0  0  0  0  0  0  0  0  0
    9.9119  -16.8562   25.7272 C   0  0  0  0  0  0  0  0  0  0  0  0
   11.2561  -18.0949   27.2130 O   0  0  0  0  0  0  0  0  0  0  0  0
   11.0309  -18.6065   28.3548 N   0  0  0  0  0  0  0  0  0  0  0  0
   11.9086  -18.9580   26.2515 C   0  0  0  0  0  0  0  0  0  0  0  0
   12.2754  -20.3164   26.6540 C   0  0  0  0  0  0  0  0  0  0  0  0
   13.7310  -20.4181   26.8413 O   0  0  0  0  0  0  0  0  0  0  0  0
   14.2677  -21.6409   27.2191 O   0  0  0  0  0  0  0  0  0  0  0  0
  1  2  1  0
  2  3  2  0
  4  5  1  0
  4  2  1  0
  6  7  1  0
  6  5  1  0
  8  7  1  0
  8  9  1  1
  8 10  1  0
 10 11  2  0
 13 14  1  0
 13 12  1  0
 16 15  1  6
 15 14  1  0
 17 16  1  0
 17 10  1  0
 18 16  1  0
 18 19  2  0
 20 18  1  0
 21 20  1  0
 22 21  1  0
 23 22  1  0
 24 22  2  0
M  END
$$$$
