VGD.pdb
     RDKit          3D

 20 19  0  0  1  0  0  0  0  0999 V2000
   14.5998  -14.9184  -15.0022 C   0  0  0  0  0  0  0  0  0  0  0  0
   16.0812  -14.5816  -15.1918 C   0  0  1  0  0  0  0  0  0  0  0  0
   16.7465  -15.8599  -15.6272 C   0  0  0  0  0  0  0  0  0  0  0  0
   16.1597  -13.5446  -16.3114 C   0  0  2  0  0  0  0  0  0  0  0  0
   17.5351  -13.3539  -16.7299 N   0  0  0  0  0  0  0  0  0  0  0  0
   15.6641  -12.2352  -15.8507 C   0  0  0  0  0  0  0  0  0  0  0  0
   14.4804  -12.1431  -15.3761 O   0  0  0  0  0  0  0  0  0  0  0  0
   16.4138  -11.0336  -15.8906 N   0  0  0  0  0  0  0  0  0  0  0  0
   15.8778   -9.8254  -15.3205 C   0  0  0  0  0  0  0  0  0  0  0  0
   16.7875   -8.6816  -15.4233 C   0  0  0  0  0  0  0  0  0  0  0  0
   18.0427   -8.8195  -15.4977 O   0  0  0  0  0  0  0  0  0  0  0  0
   16.2600   -7.3512  -15.4421 N   0  0  0  0  0  0  0  0  0  0  0  0
   17.1117   -6.1930  -15.6225 C   0  0  1  0  0  0  0  0  0  0  0  0
   16.4098   -5.1106  -16.4123 C   0  0  0  0  0  0  0  0  0  0  0  0
   17.2616   -3.9551  -16.6928 C   0  0  0  0  0  0  0  0  0  0  0  0
   18.5141   -4.1094  -16.6164 O   0  0  0  0  0  0  0  0  0  0  0  0
   17.4371   -5.6249  -14.2933 C   0  0  0  0  0  0  0  0  0  0  0  0
   18.5090   -4.7581  -14.1947 O   0  0  0  0  0  0  0  0  0  0  0  0
   16.8006   -2.6936  -17.0387 O   0  0  0  0  0  0  0  0  0  0  0  0
   16.7619   -5.9137  -13.2589 O   0  0  0  0  0  0  0  0  0  0  0  0
  2  3  1  6
  2  1  1  0
  4  6  1  0
  4  2  1  0
  4  5  1  1
  6  8  1  0
  7  6  2  0
  8  9  1  0
  9 10  1  0
 10 12  1  0
 10 11  2  0
 12 13  1  0
 13 17  1  0
 13 14  1  6
 15 19  1  0
 15 14  1  0
 16 15  2  0
 17 18  1  0
 20 17  2  0
M  END
$$$$
