VGD.pdb
     RDKit          3D

 20 19  0  0  1  0  0  0  0  0999 V2000
   24.1688  -13.0834  -15.7446 C   0  0  0  0  0  0  0  0  0  0  0  0
   23.9576  -11.9674  -16.7711 C   0  0  1  0  0  0  0  0  0  0  0  0
   22.7736  -12.3846  -17.6021 C   0  0  0  0  0  0  0  0  0  0  0  0
   23.6231  -10.7003  -15.9851 C   0  0  2  0  0  0  0  0  0  0  0  0
   22.4126  -10.8901  -15.2092 N   0  0  0  0  0  0  0  0  0  0  0  0
   23.3786   -9.5667  -16.8946 C   0  0  0  0  0  0  0  0  0  0  0  0
   24.3726   -8.9309  -17.3874 O   0  0  0  0  0  0  0  0  0  0  0  0
   22.0943   -9.1097  -17.2809 N   0  0  0  0  0  0  0  0  0  0  0  0
   21.9609   -7.9586  -18.1347 C   0  0  0  0  0  0  0  0  0  0  0  0
   21.6361   -6.7297  -17.4061 C   0  0  0  0  0  0  0  0  0  0  0  0
   21.2208   -5.6868  -17.9891 O   0  0  0  0  0  0  0  0  0  0  0  0
   21.7861   -6.6842  -15.9834 N   0  0  0  0  0  0  0  0  0  0  0  0
   21.2891   -5.5734  -15.1969 C   0  0  1  0  0  0  0  0  0  0  0  0
   20.5562   -6.0553  -13.9646 C   0  0  0  0  0  0  0  0  0  0  0  0
   19.3234   -6.7800  -14.2717 C   0  0  0  0  0  0  0  0  0  0  0  0
   18.5135   -6.2533  -15.0873 O   0  0  0  0  0  0  0  0  0  0  0  0
   22.4385   -4.7610  -14.7339 C   0  0  0  0  0  0  0  0  0  0  0  0
   22.1860   -3.6639  -13.9323 O   0  0  0  0  0  0  0  0  0  0  0  0
   18.9695   -8.0090  -13.7352 O   0  0  0  0  0  0  0  0  0  0  0  0
   23.6322   -5.0476  -15.0535 O   0  0  0  0  0  0  0  0  0  0  0  0
  2  3  1  6
  2  1  1  0
  4  6  1  0
  4  2  1  0
  4  5  1  6
  6  8  1  0
  7  6  2  0
  8  9  1  0
  9 10  1  0
 10 12  1  0
 10 11  2  0
 12 13  1  0
 13 17  1  0
 13 14  1  1
 15 19  1  0
 15 14  1  0
 16 15  2  0
 17 18  1  0
 20 17  2  0
M  END
$$$$
