VGD.pdb
     RDKit          3D

 20 19  0  0  1  0  0  0  0  0999 V2000
   18.6535  -12.6481  -18.5294 C   0  0  0  0  0  0  0  0  0  0  0  0
   19.8415  -12.0125  -17.8026 C   0  0  1  0  0  0  0  0  0  0  0  0
   20.2395  -10.8148  -18.6232 C   0  0  0  0  0  0  0  0  0  0  0  0
   19.3335  -11.5619  -16.4336 C   0  0  2  0  0  0  0  0  0  0  0  0
   18.1792  -10.6964  -16.5814 N   0  0  0  0  0  0  0  0  0  0  0  0
   20.3641  -10.7873  -15.7194 C   0  0  0  0  0  0  0  0  0  0  0  0
   21.4174  -11.3793  -15.3010 O   0  0  0  0  0  0  0  0  0  0  0  0
   20.2824   -9.3986  -15.4506 N   0  0  0  0  0  0  0  0  0  0  0  0
   21.4010   -8.7062  -14.8665 C   0  0  0  0  0  0  0  0  0  0  0  0
   21.2150   -7.2545  -14.8003 C   0  0  0  0  0  0  0  0  0  0  0  0
   22.0649   -6.4870  -14.2628 O   0  0  0  0  0  0  0  0  0  0  0  0
   20.0375   -6.6609  -15.3569 N   0  0  0  0  0  0  0  0  0  0  0  0
   19.8427   -5.2253  -15.3810 C   0  0  1  0  0  0  0  0  0  0  0  0
   19.5098   -4.7378  -16.7737 C   0  0  0  0  0  0  0  0  0  0  0  0
   19.2161   -3.3060  -16.8300 C   0  0  0  0  0  0  0  0  0  0  0  0
   19.3733   -2.6266  -15.7755 O   0  0  0  0  0  0  0  0  0  0  0  0
   18.6940   -4.8824  -14.5101 C   0  0  0  0  0  0  0  0  0  0  0  0
   18.4463   -3.5486  -14.2457 O   0  0  0  0  0  0  0  0  0  0  0  0
   18.7754   -2.6292  -17.9575 O   0  0  0  0  0  0  0  0  0  0  0  0
   17.9443   -5.7747  -14.0094 O   0  0  0  0  0  0  0  0  0  0  0  0
  2  3  1  6
  2  1  1  0
  4  6  1  0
  4  2  1  0
  4  5  1  6
  6  8  1  0
  7  6  2  0
  8  9  1  0
  9 10  1  0
 10 12  1  0
 10 11  2  0
 12 13  1  0
 13 17  1  0
 13 14  1  6
 15 19  1  0
 15 14  1  0
 16 15  2  0
 17 18  1  0
 20 17  2  0
M  END
$$$$
