VGD.pdb
     RDKit          3D

 20 19  0  0  1  0  0  0  0  0999 V2000
   21.5285  -12.5369  -19.7803 C   0  0  0  0  0  0  0  0  0  0  0  0
   22.0178  -11.3024  -19.0187 C   0  0  1  0  0  0  0  0  0  0  0  0
   20.7873  -10.4974  -18.6958 C   0  0  0  0  0  0  0  0  0  0  0  0
   22.6656  -11.8056  -17.7293 C   0  0  2  0  0  0  0  0  0  0  0  0
   21.7575  -12.6819  -17.0146 N   0  0  0  0  0  0  0  0  0  0  0  0
   22.9811  -10.6837  -16.8271 C   0  0  0  0  0  0  0  0  0  0  0  0
   23.9469   -9.8973  -17.1166 O   0  0  0  0  0  0  0  0  0  0  0  0
   22.2811  -10.3950  -15.6295 N   0  0  0  0  0  0  0  0  0  0  0  0
   22.6906   -9.2939  -14.7979 C   0  0  0  0  0  0  0  0  0  0  0  0
   22.1932   -7.9973  -15.2647 C   0  0  0  0  0  0  0  0  0  0  0  0
   22.1355   -7.6965  -16.4920 O   0  0  0  0  0  0  0  0  0  0  0  0
   21.7513   -7.0204  -14.3165 N   0  0  0  0  0  0  0  0  0  0  0  0
   21.1923   -5.7497  -14.7316 C   0  0  1  0  0  0  0  0  0  0  0  0
   19.7663   -5.5923  -14.2522 C   0  0  0  0  0  0  0  0  0  0  0  0
   19.1531   -4.3307  -14.6669 C   0  0  0  0  0  0  0  0  0  0  0  0
   19.6032   -3.7655  -15.7043 O   0  0  0  0  0  0  0  0  0  0  0  0
   21.9833   -4.6554  -14.1214 C   0  0  0  0  0  0  0  0  0  0  0  0
   22.9212   -4.9810  -13.1599 O   0  0  0  0  0  0  0  0  0  0  0  0
   18.1086   -3.7004  -14.0071 O   0  0  0  0  0  0  0  0  0  0  0  0
   21.8199   -3.4434  -14.4585 O   0  0  0  0  0  0  0  0  0  0  0  0
  2  3  1  1
  2  1  1  0
  4  6  1  0
  4  2  1  0
  4  5  1  1
  6  8  1  0
  7  6  2  0
  8  9  1  0
  9 10  1  0
 10 12  1  0
 10 11  2  0
 12 13  1  0
 13 17  1  0
 13 14  1  1
 15 19  1  0
 15 14  1  0
 16 15  2  0
 17 18  1  0
 20 17  2  0
M  END
$$$$
