VGD.pdb
     RDKit          3D

 20 19  0  0  1  0  0  0  0  0999 V2000
   14.6298  -11.8835  -17.4903 C   0  0  0  0  0  0  0  0  0  0  0  0
   15.6214  -11.0008  -16.7278 C   0  0  1  0  0  0  0  0  0  0  0  0
   14.8079   -9.8893  -16.1204 C   0  0  0  0  0  0  0  0  0  0  0  0
   16.2277  -11.8670  -15.6246 C   0  0  2  0  0  0  0  0  0  0  0  0
   15.1829  -12.4335  -14.7934 N   0  0  0  0  0  0  0  0  0  0  0  0
   17.0928  -11.0643  -14.7417 C   0  0  0  0  0  0  0  0  0  0  0  0
   18.1912  -10.5939  -15.1971 O   0  0  0  0  0  0  0  0  0  0  0  0
   16.7988  -10.7605  -13.3894 N   0  0  0  0  0  0  0  0  0  0  0  0
   17.6368   -9.8519  -12.6518 C   0  0  0  0  0  0  0  0  0  0  0  0
   17.1381   -8.4743  -12.6490 C   0  0  0  0  0  0  0  0  0  0  0  0
   16.1097   -8.1254  -13.2977 O   0  0  0  0  0  0  0  0  0  0  0  0
   17.8226   -7.4703  -11.8926 N   0  0  0  0  0  0  0  0  0  0  0  0
   17.3253   -6.1127  -11.7970 C   0  0  1  0  0  0  0  0  0  0  0  0
   17.5868   -5.5253  -10.4279 C   0  0  0  0  0  0  0  0  0  0  0  0
   16.6963   -6.0513   -9.3936 C   0  0  0  0  0  0  0  0  0  0  0  0
   15.7210   -6.7680   -9.7594 O   0  0  0  0  0  0  0  0  0  0  0  0
   18.0431   -5.2686  -12.7807 C   0  0  0  0  0  0  0  0  0  0  0  0
   17.5003   -4.0415  -13.1121 O   0  0  0  0  0  0  0  0  0  0  0  0
   16.8380   -5.8246   -8.0327 O   0  0  0  0  0  0  0  0  0  0  0  0
   19.1297   -5.6435  -13.3173 O   0  0  0  0  0  0  0  0  0  0  0  0
  2  3  1  1
  2  1  1  0
  4  6  1  0
  4  2  1  0
  4  5  1  1
  6  8  1  0
  7  6  2  0
  8  9  1  0
  9 10  1  0
 10 12  1  0
 10 11  2  0
 12 13  1  0
 13 17  1  0
 13 14  1  1
 15 19  1  0
 15 14  1  0
 16 15  2  0
 17 18  1  0
 20 17  2  0
M  END
$$$$
