VGD.pdb
     RDKit          3D

 20 19  0  0  1  0  0  0  0  0999 V2000
   17.4876  -13.4418  -17.5304 C   0  0  0  0  0  0  0  0  0  0  0  0
   18.3307  -12.4428  -16.7336 C   0  0  1  0  0  0  0  0  0  0  0  0
   18.2675  -11.1450  -17.4939 C   0  0  0  0  0  0  0  0  0  0  0  0
   17.6574  -12.2828  -15.3711 C   0  0  2  0  0  0  0  0  0  0  0  0
   16.2552  -11.9509  -15.5347 N   0  0  0  0  0  0  0  0  0  0  0  0
   18.2738  -11.1842  -14.6060 C   0  0  0  0  0  0  0  0  0  0  0  0
   19.4842  -11.2968  -14.2094 O   0  0  0  0  0  0  0  0  0  0  0  0
   17.6166   -9.9765  -14.2639 N   0  0  0  0  0  0  0  0  0  0  0  0
   18.3229   -8.9429  -13.5535 C   0  0  0  0  0  0  0  0  0  0  0  0
   17.5110   -7.7483  -13.3079 C   0  0  0  0  0  0  0  0  0  0  0  0
   16.6288   -7.3503  -14.1225 O   0  0  0  0  0  0  0  0  0  0  0  0
   17.7051   -6.9888  -12.1104 N   0  0  0  0  0  0  0  0  0  0  0  0
   16.8990   -5.8244  -11.8040 C   0  0  1  0  0  0  0  0  0  0  0  0
   17.0255   -5.4346  -10.3479 C   0  0  0  0  0  0  0  0  0  0  0  0
   16.3170   -6.3399   -9.4436 C   0  0  0  0  0  0  0  0  0  0  0  0
   15.6177   -7.2609   -9.9545 O   0  0  0  0  0  0  0  0  0  0  0  0
   17.3853   -4.6790  -12.6084 C   0  0  0  0  0  0  0  0  0  0  0  0
   16.5780   -3.5622  -12.7147 O   0  0  0  0  0  0  0  0  0  0  0  0
   16.3518   -6.2676   -8.0590 O   0  0  0  0  0  0  0  0  0  0  0  0
   18.5107   -4.7020  -13.1932 O   0  0  0  0  0  0  0  0  0  0  0  0
  2  3  1  6
  2  1  1  0
  4  6  1  0
  4  2  1  0
  4  5  1  6
  6  8  1  0
  7  6  2  0
  8  9  1  0
  9 10  1  0
 10 12  1  0
 10 11  2  0
 12 13  1  0
 13 17  1  0
 13 14  1  1
 15 19  1  0
 15 14  1  0
 16 15  2  0
 17 18  1  0
 20 17  2  0
M  END
$$$$
