VGD.pdb
     RDKit          3D

 20 19  0  0  1  0  0  0  0  0999 V2000
   16.6539  -12.3856  -16.5303 C   0  0  0  0  0  0  0  0  0  0  0  0
   17.3743  -13.5947  -17.1327 C   0  0  1  0  0  0  0  0  0  0  0  0
   17.3080  -13.4175  -18.6262 C   0  0  0  0  0  0  0  0  0  0  0  0
   18.8266  -13.5241  -16.6627 C   0  0  2  0  0  0  0  0  0  0  0  0
   18.9008  -13.6739  -15.2220 N   0  0  0  0  0  0  0  0  0  0  0  0
   19.4224  -12.2166  -16.9911 C   0  0  0  0  0  0  0  0  0  0  0  0
   19.9114  -12.0241  -18.1568 O   0  0  0  0  0  0  0  0  0  0  0  0
   19.4996  -11.1216  -16.0953 N   0  0  0  0  0  0  0  0  0  0  0  0
   20.1549   -9.9036  -16.4939 C   0  0  0  0  0  0  0  0  0  0  0  0
   20.1612   -8.8783  -15.4474 C   0  0  0  0  0  0  0  0  0  0  0  0
   19.4041   -8.9389  -14.4359 O   0  0  0  0  0  0  0  0  0  0  0  0
   21.0473   -7.7591  -15.5518 N   0  0  0  0  0  0  0  0  0  0  0  0
   21.1670   -6.7768  -14.4934 C   0  0  1  0  0  0  0  0  0  0  0  0
   22.4006   -5.9202  -14.6738 C   0  0  0  0  0  0  0  0  0  0  0  0
   22.6089   -4.9697  -13.5817 C   0  0  0  0  0  0  0  0  0  0  0  0
   22.4592   -5.3854  -12.3972 O   0  0  0  0  0  0  0  0  0  0  0  0
   19.9942   -5.8727  -14.5431 C   0  0  0  0  0  0  0  0  0  0  0  0
   19.6117   -5.2298  -13.3809 O   0  0  0  0  0  0  0  0  0  0  0  0
   22.9605   -3.6379  -13.7439 O   0  0  0  0  0  0  0  0  0  0  0  0
   19.3435   -5.6793  -15.6146 O   0  0  0  0  0  0  0  0  0  0  0  0
  2  3  1  6
  2  1  1  0
  4  6  1  0
  4  2  1  0
  4  5  1  1
  6  8  1  0
  7  6  2  0
  8  9  1  0
  9 10  1  0
 10 12  1  0
 10 11  2  0
 12 13  1  0
 13 17  1  0
 13 14  1  6
 15 19  1  0
 15 14  1  0
 16 15  2  0
 17 18  1  0
 20 17  2  0
M  END
$$$$
