VGD.pdb
     RDKit          3D

 20 19  0  0  1  0  0  0  0  0999 V2000
   17.6931  -14.3231  -16.7584 C   0  0  0  0  0  0  0  0  0  0  0  0
   18.0010  -12.8498  -17.0383 C   0  0  1  0  0  0  0  0  0  0  0  0
   17.5648  -12.0929  -15.8123 C   0  0  0  0  0  0  0  0  0  0  0  0
   19.5155  -12.7387  -17.2090 C   0  0  2  0  0  0  0  0  0  0  0  0
   20.1981  -13.3353  -16.0769 N   0  0  0  0  0  0  0  0  0  0  0  0
   19.9354  -11.3273  -17.2704 C   0  0  0  0  0  0  0  0  0  0  0  0
   19.6247  -10.6234  -18.2916 O   0  0  0  0  0  0  0  0  0  0  0  0
   20.6765  -10.6654  -16.2604 N   0  0  0  0  0  0  0  0  0  0  0  0
   21.1184   -9.3096  -16.4563 C   0  0  0  0  0  0  0  0  0  0  0  0
   20.3222   -8.3268  -15.7169 C   0  0  0  0  0  0  0  0  0  0  0  0
   19.2131   -8.6180  -15.1830 O   0  0  0  0  0  0  0  0  0  0  0  0
   20.7962   -6.9831  -15.5808 N   0  0  0  0  0  0  0  0  0  0  0  0
   20.0636   -5.9862  -14.8266 C   0  0  1  0  0  0  0  0  0  0  0  0
   20.9945   -4.9585  -14.2222 C   0  0  0  0  0  0  0  0  0  0  0  0
   21.9041   -5.5193  -13.2234 C   0  0  0  0  0  0  0  0  0  0  0  0
   21.5215   -6.5369  -12.5780 O   0  0  0  0  0  0  0  0  0  0  0  0
   19.1510   -5.2651  -15.7446 C   0  0  0  0  0  0  0  0  0  0  0  0
   18.1958   -4.4293  -15.1976 O   0  0  0  0  0  0  0  0  0  0  0  0
   23.1630   -5.0193  -12.9258 O   0  0  0  0  0  0  0  0  0  0  0  0
   19.2273   -5.3971  -17.0039 O   0  0  0  0  0  0  0  0  0  0  0  0
  2  3  1  1
  2  1  1  0
  4  6  1  0
  4  2  1  0
  4  5  1  1
  6  8  1  0
  7  6  2  0
  8  9  1  0
  9 10  1  0
 10 12  1  0
 10 11  2  0
 12 13  1  0
 13 17  1  0
 13 14  1  6
 15 19  1  0
 15 14  1  0
 16 15  2  0
 17 18  1  0
 20 17  2  0
M  END
$$$$
