VGD.pdb
     RDKit          3D

 20 19  0  0  1  0  0  0  0  0999 V2000
   14.4410  -14.2910  -15.5963 C   0  0  0  0  0  0  0  0  0  0  0  0
   14.4526  -12.7733  -15.3964 C   0  0  1  0  0  0  0  0  0  0  0  0
   14.3417  -12.5478  -13.9121 C   0  0  0  0  0  0  0  0  0  0  0  0
   15.8045  -12.2705  -15.9012 C   0  0  2  0  0  0  0  0  0  0  0  0
   16.8859  -12.9851  -15.2507 N   0  0  0  0  0  0  0  0  0  0  0  0
   15.9835  -10.8412  -15.5893 C   0  0  0  0  0  0  0  0  0  0  0  0
   15.2418   -9.9745  -16.1669 O   0  0  0  0  0  0  0  0  0  0  0  0
   16.9378  -10.3326  -14.6738 N   0  0  0  0  0  0  0  0  0  0  0  0
   17.0804   -8.9121  -14.4897 C   0  0  0  0  0  0  0  0  0  0  0  0
   18.0245   -8.5562  -13.4274 C   0  0  0  0  0  0  0  0  0  0  0  0
   18.2198   -9.2955  -12.4197 O   0  0  0  0  0  0  0  0  0  0  0  0
   18.7635   -7.3333  -13.5112 N   0  0  0  0  0  0  0  0  0  0  0  0
   19.7909   -6.9928  -12.5480 C   0  0  1  0  0  0  0  0  0  0  0  0
   20.7566   -5.9731  -13.1098 C   0  0  0  0  0  0  0  0  0  0  0  0
   21.8822   -5.6911  -12.2193 C   0  0  0  0  0  0  0  0  0  0  0  0
   22.2670   -6.6100  -11.4408 O   0  0  0  0  0  0  0  0  0  0  0  0
   19.1507   -6.3821  -11.3594 C   0  0  0  0  0  0  0  0  0  0  0  0
   19.7741   -6.5220  -10.1338 O   0  0  0  0  0  0  0  0  0  0  0  0
   22.5664   -4.4861  -12.1607 O   0  0  0  0  0  0  0  0  0  0  0  0
   18.0582   -5.7429  -11.4423 O   0  0  0  0  0  0  0  0  0  0  0  0
  2  3  1  1
  2  1  1  0
  4  6  1  0
  4  2  1  0
  4  5  1  1
  6  8  1  0
  7  6  2  0
  8  9  1  0
  9 10  1  0
 10 12  1  0
 10 11  2  0
 12 13  1  0
 13 17  1  0
 13 14  1  6
 15 19  1  0
 15 14  1  0
 16 15  2  0
 17 18  1  0
 20 17  2  0
M  END
$$$$
