VGD.pdb
     RDKit          3D

 20 19  0  0  1  0  0  0  0  0999 V2000
   25.6290  -16.8979  -15.6407 C   0  0  0  0  0  0  0  0  0  0  0  0
   26.8344  -17.7824  -15.9699 C   0  0  1  0  0  0  0  0  0  0  0  0
   27.6322  -17.8895  -14.6977 C   0  0  0  0  0  0  0  0  0  0  0  0
   26.2842  -19.1541  -16.3581 C   0  0  2  0  0  0  0  0  0  0  0  0
   25.5049  -19.7137  -15.2704 N   0  0  0  0  0  0  0  0  0  0  0  0
   27.3794  -20.1007  -16.6348 C   0  0  0  0  0  0  0  0  0  0  0  0
   28.1527  -19.8925  -17.6317 O   0  0  0  0  0  0  0  0  0  0  0  0
   27.6556  -21.2568  -15.8638 N   0  0  0  0  0  0  0  0  0  0  0  0
   28.7472  -22.1238  -16.2225 C   0  0  0  0  0  0  0  0  0  0  0  0
   28.3167  -23.4693  -16.6107 C   0  0  0  0  0  0  0  0  0  0  0  0
   27.1589  -23.9098  -16.3543 O   0  0  0  0  0  0  0  0  0  0  0  0
   29.2211  -24.3340  -17.3057 N   0  0  0  0  0  0  0  0  0  0  0  0
   28.8370  -25.6679  -17.7213 C   0  0  1  0  0  0  0  0  0  0  0  0
   29.9224  -26.3213  -18.5478 C   0  0  0  0  0  0  0  0  0  0  0  0
   29.4013  -27.1760  -19.6142 C   0  0  0  0  0  0  0  0  0  0  0  0
   28.1469  -27.2937  -19.7200 O   0  0  0  0  0  0  0  0  0  0  0  0
   28.6380  -26.5071  -16.5165 C   0  0  0  0  0  0  0  0  0  0  0  0
   29.3326  -26.1802  -15.3672 O   0  0  0  0  0  0  0  0  0  0  0  0
   30.1801  -27.8731  -20.5257 O   0  0  0  0  0  0  0  0  0  0  0  0
   27.8549  -27.5050  -16.5182 O   0  0  0  0  0  0  0  0  0  0  0  0
  2  3  1  1
  2  1  1  0
  4  6  1  0
  4  2  1  0
  4  5  1  1
  6  8  1  0
  7  6  2  0
  8  9  1  0
  9 10  1  0
 10 12  1  0
 10 11  2  0
 12 13  1  0
 13 17  1  0
 13 14  1  6
 15 19  1  0
 15 14  1  0
 16 15  2  0
 17 18  1  0
 20 17  2  0
M  END
$$$$
