WLW.pdb
     RDKit          3D

 37 40  0  0  1  0  0  0  0  0999 V2000
   28.2304  -21.8236  -13.3925 N   0  0  0  0  0  0  0  0  0  0  0  0
   27.0775  -22.0131  -12.4992 C   0  0  1  0  0  0  0  0  0  0  0  0
   27.0303  -20.7850  -11.5833 C   0  0  0  0  0  0  0  0  0  0  0  0
   28.1124  -20.8378  -10.5870 C   0  0  0  0  0  0  0  0  0  0  0  0
   29.4666  -21.0483  -10.8304 C   0  0  0  0  0  0  0  0  0  0  0  0
   30.0783  -21.0289   -9.6436 N   0  0  0  0  0  0  0  0  0  0  0  0
   29.1722  -20.8149   -8.6553 C   0  0  0  0  0  0  0  0  0  0  0  0
   29.3025  -20.7107   -7.2895 C   0  0  0  0  0  0  0  0  0  0  0  0
   28.1945  -20.4849   -6.4996 C   0  0  0  0  0  0  0  0  0  0  0  0
   26.9544  -20.3651   -7.0964 C   0  0  0  0  0  0  0  0  0  0  0  0
   26.7889  -20.4627   -8.4488 C   0  0  0  0  0  0  0  0  0  0  0  0
   27.9228  -20.6915   -9.2289 C   0  0  0  0  0  0  0  0  0  0  0  0
   25.8140  -21.9635  -13.2843 C   0  0  0  0  0  0  0  0  0  0  0  0
   25.6703  -21.0322  -14.1003 O   0  0  0  0  0  0  0  0  0  0  0  0
   22.3823  -24.3422  -16.4684 C   0  0  0  0  0  0  0  0  0  0  0  0
   22.0611  -24.6019  -15.0244 C   0  0  1  0  0  0  0  0  0  0  0  0
   21.7148  -26.1038  -14.9546 C   0  0  0  0  0  0  0  0  0  0  0  0
   23.2045  -24.3934  -14.0932 C   0  0  0  0  0  0  0  0  0  0  0  0
   23.6571  -22.9624  -13.9444 C   0  0  2  0  0  0  0  0  0  0  0  0
   24.8304  -22.9597  -13.0844 N   0  0  0  0  0  0  0  0  0  0  0  0
   22.6345  -22.0477  -13.4279 C   0  0  0  0  0  0  0  0  0  0  0  0
   22.0555  -22.3531  -12.3459 O   0  0  0  0  0  0  0  0  0  0  0  0
   22.3244  -20.8616  -14.1417 N   0  0  0  0  0  0  0  0  0  0  0  0
   21.3317  -19.9633  -13.5965 C   0  0  1  0  0  0  0  0  0  0  0  0
   21.6130  -18.5312  -14.0130 C   0  0  0  0  0  0  0  0  0  0  0  0
   20.5760  -17.5939  -13.5770 C   0  0  0  0  0  0  0  0  0  0  0  0
   20.3017  -17.3049  -12.2572 C   0  0  0  0  0  0  0  0  0  0  0  0
   19.3042  -16.4083  -12.2030 N   0  0  0  0  0  0  0  0  0  0  0  0
   18.9480  -16.1302  -13.4717 C   0  0  0  0  0  0  0  0  0  0  0  0
   17.9707  -15.2706  -13.9498 C   0  0  0  0  0  0  0  0  0  0  0  0
   17.8060  -15.1691  -15.3210 C   0  0  0  0  0  0  0  0  0  0  0  0
   18.5936  -15.9044  -16.1920 C   0  0  0  0  0  0  0  0  0  0  0  0
   19.5654  -16.7599  -15.7288 C   0  0  0  0  0  0  0  0  0  0  0  0
   19.7197  -16.8517  -14.3641 C   0  0  0  0  0  0  0  0  0  0  0  0
   20.0296  -20.3349  -14.2606 C   0  0  0  0  0  0  0  0  0  0  0  0
   18.8378  -20.3494  -13.5522 O   0  0  0  0  0  0  0  0  0  0  0  0
   19.9690  -20.6478  -15.4845 O   0  0  0  0  0  0  0  0  0  0  0  0
  2  1  1  6
  2  3  1  0
  3  4  1  0
  4  5  2  0
  5  6  1  0
  7  8  2  0
  7  6  1  0
  9  8  1  0
 10  9  2  0
 11 10  1  0
 11 12  2  0
 12  4  1  0
 12  7  1  0
 13  2  1  0
 13 14  2  0
 16 18  1  0
 16 17  1  6
 16 15  1  0
 19 20  1  0
 19 18  1  1
 20 13  1  0
 21 19  1  0
 22 21  2  0
 23 21  1  0
 24 23  1  0
 25 26  1  0
 24 25  1  6
 26 27  2  0
 27 28  1  0
 29 28  1  0
 30 29  2  0
 31 30  1  0
 32 33  1  0
 32 31  2  0
 33 34  2  0
 34 26  1  0
 34 29  1  0
 35 24  1  0
 35 36  1  0
 37 35  2  0
M  END
$$$$
