WLW.pdb
     RDKit          3D

 37 40  0  0  1  0  0  0  0  0999 V2000
   24.2585  -19.5090  -15.4720 N   0  0  0  0  0  0  0  0  0  0  0  0
   24.1228  -19.5231  -14.0076 C   0  0  1  0  0  0  0  0  0  0  0  0
   22.7288  -20.0841  -13.7053 C   0  0  0  0  0  0  0  0  0  0  0  0
   21.6875  -19.1036  -14.0520 C   0  0  0  0  0  0  0  0  0  0  0  0
   21.0754  -18.9331  -15.2905 C   0  0  0  0  0  0  0  0  0  0  0  0
   20.2049  -17.9296  -15.1546 N   0  0  0  0  0  0  0  0  0  0  0  0
   20.2363  -17.4541  -13.8832 C   0  0  0  0  0  0  0  0  0  0  0  0
   19.5398  -16.4462  -13.2567 C   0  0  0  0  0  0  0  0  0  0  0  0
   19.7690  -16.1645  -11.9261 C   0  0  0  0  0  0  0  0  0  0  0  0
   20.7054  -16.9058  -11.2317 C   0  0  0  0  0  0  0  0  0  0  0  0
   21.4142  -17.9133  -11.8221 C   0  0  0  0  0  0  0  0  0  0  0  0
   21.1668  -18.1814  -13.1688 C   0  0  0  0  0  0  0  0  0  0  0  0
   25.0748  -20.5045  -13.4194 C   0  0  0  0  0  0  0  0  0  0  0  0
   25.0064  -21.6874  -13.8063 O   0  0  0  0  0  0  0  0  0  0  0  0
   29.9813  -19.1717  -13.5937 C   0  0  0  0  0  0  0  0  0  0  0  0
   28.6106  -19.7671  -13.4438 C   0  0  1  0  0  0  0  0  0  0  0  0
   28.5497  -20.9010  -14.4884 C   0  0  0  0  0  0  0  0  0  0  0  0
   28.3582  -20.4037  -12.1214 C   0  0  0  0  0  0  0  0  0  0  0  0
   26.9938  -21.0258  -11.9596 C   0  0  2  0  0  0  0  0  0  0  0  0
   26.0140  -20.0715  -12.4551 N   0  0  0  0  0  0  0  0  0  0  0  0
   26.6681  -21.4391  -10.5913 C   0  0  0  0  0  0  0  0  0  0  0  0
   27.3857  -22.3302  -10.0526 O   0  0  0  0  0  0  0  0  0  0  0  0
   25.5745  -20.8395   -9.9152 N   0  0  0  0  0  0  0  0  0  0  0  0
   25.2329  -21.3123   -8.5926 C   0  0  1  0  0  0  0  0  0  0  0  0
   25.2063  -20.1649   -7.5995 C   0  0  0  0  0  0  0  0  0  0  0  0
   26.5394  -19.6433   -7.2916 C   0  0  0  0  0  0  0  0  0  0  0  0
   27.1355  -18.5999   -7.9673 C   0  0  0  0  0  0  0  0  0  0  0  0
   28.3462  -18.3682   -7.4358 N   0  0  0  0  0  0  0  0  0  0  0  0
   28.5186  -19.2526   -6.4349 C   0  0  0  0  0  0  0  0  0  0  0  0
   29.5972  -19.4253   -5.5807 C   0  0  0  0  0  0  0  0  0  0  0  0
   29.5183  -20.4241   -4.6249 C   0  0  0  0  0  0  0  0  0  0  0  0
   28.3952  -21.2291   -4.5232 C   0  0  0  0  0  0  0  0  0  0  0  0
   27.3201  -21.0667   -5.3650 C   0  0  0  0  0  0  0  0  0  0  0  0
   27.4104  -20.0704   -6.3105 C   0  0  0  0  0  0  0  0  0  0  0  0
   23.8111  -21.8069   -8.6855 C   0  0  0  0  0  0  0  0  0  0  0  0
   23.1043  -21.7484   -9.8769 O   0  0  0  0  0  0  0  0  0  0  0  0
   23.2059  -22.2929   -7.6869 O   0  0  0  0  0  0  0  0  0  0  0  0
  2  1  1  6
  2  3  1  0
  3  4  1  0
  4  5  2  0
  5  6  1  0
  7  8  2  0
  7  6  1  0
  9  8  1  0
 10  9  2  0
 11 10  1  0
 11 12  2  0
 12  4  1  0
 12  7  1  0
 13  2  1  0
 13 14  2  0
 16 18  1  0
 16 17  1  6
 16 15  1  0
 19 20  1  0
 19 18  1  1
 20 13  1  0
 21 19  1  0
 22 21  2  0
 23 21  1  0
 24 23  1  0
 25 26  1  0
 24 25  1  1
 26 27  2  0
 27 28  1  0
 29 28  1  0
 30 29  2  0
 31 30  1  0
 32 33  1  0
 32 31  2  0
 33 34  2  0
 34 26  1  0
 34 29  1  0
 35 24  1  0
 35 36  1  0
 37 35  2  0
M  END
$$$$
