WLW.pdb
     RDKit          3D

 37 40  0  0  1  0  0  0  0  0999 V2000
   26.0231  -18.6021   -9.0285 N   0  0  0  0  0  0  0  0  0  0  0  0
   26.7410  -19.7307   -9.6399 C   0  0  1  0  0  0  0  0  0  0  0  0
   26.2108  -21.0006   -8.9648 C   0  0  0  0  0  0  0  0  0  0  0  0
   26.3405  -20.9045   -7.5019 C   0  0  0  0  0  0  0  0  0  0  0  0
   25.3147  -20.9684   -6.5633 C   0  0  0  0  0  0  0  0  0  0  0  0
   25.8822  -20.8262   -5.3629 N   0  0  0  0  0  0  0  0  0  0  0  0
   27.2248  -20.6746   -5.4968 C   0  0  0  0  0  0  0  0  0  0  0  0
   28.2310  -20.4991   -4.5747 C   0  0  0  0  0  0  0  0  0  0  0  0
   29.5403  -20.3702   -4.9890 C   0  0  0  0  0  0  0  0  0  0  0  0
   29.8279  -20.4192   -6.3394 C   0  0  0  0  0  0  0  0  0  0  0  0
   28.8541  -20.5926   -7.2815 C   0  0  0  0  0  0  0  0  0  0  0  0
   27.5366  -20.7206   -6.8406 C   0  0  0  0  0  0  0  0  0  0  0  0
   26.3568  -19.8603  -11.0720 C   0  0  0  0  0  0  0  0  0  0  0  0
   25.1703  -19.6346  -11.3804 O   0  0  0  0  0  0  0  0  0  0  0  0
   28.4687  -17.7537  -14.9908 C   0  0  0  0  0  0  0  0  0  0  0  0
   28.4938  -19.2122  -15.3489 C   0  0  1  0  0  0  0  0  0  0  0  0
   29.9038  -19.4593  -15.9246 C   0  0  0  0  0  0  0  0  0  0  0  0
   28.3498  -20.1329  -14.1874 C   0  0  0  0  0  0  0  0  0  0  0  0
   27.0478  -20.0167  -13.4350 C   0  0  2  0  0  0  0  0  0  0  0  0
   27.3347  -20.2289  -12.0246 N   0  0  0  0  0  0  0  0  0  0  0  0
   25.9937  -20.9273  -13.8916 C   0  0  0  0  0  0  0  0  0  0  0  0
   26.0292  -22.1264  -13.4911 O   0  0  0  0  0  0  0  0  0  0  0  0
   24.9757  -20.4500  -14.7568 N   0  0  0  0  0  0  0  0  0  0  0  0
   23.6801  -21.0901  -14.7231 C   0  0  1  0  0  0  0  0  0  0  0  0
   22.7999  -20.4709  -13.6529 C   0  0  0  0  0  0  0  0  0  0  0  0
   21.4887  -21.1141  -13.5474 C   0  0  0  0  0  0  0  0  0  0  0  0
   21.2358  -22.2308  -12.7796 C   0  0  0  0  0  0  0  0  0  0  0  0
   19.9399  -22.5603  -12.8985 N   0  0  0  0  0  0  0  0  0  0  0  0
   19.3753  -21.6650  -13.7313 C   0  0  0  0  0  0  0  0  0  0  0  0
   18.0648  -21.5706  -14.1746 C   0  0  0  0  0  0  0  0  0  0  0  0
   17.7428  -20.5402  -15.0418 C   0  0  0  0  0  0  0  0  0  0  0  0
   18.7006  -19.6288  -15.4561 C   0  0  0  0  0  0  0  0  0  0  0  0
   20.0030  -19.7132  -15.0230 C   0  0  0  0  0  0  0  0  0  0  0  0
   20.3105  -20.7414  -14.1612 C   0  0  0  0  0  0  0  0  0  0  0  0
   23.0212  -20.7578  -16.0385 C   0  0  0  0  0  0  0  0  0  0  0  0
   22.2739  -21.7001  -16.7284 O   0  0  0  0  0  0  0  0  0  0  0  0
   23.1216  -19.6126  -16.5657 O   0  0  0  0  0  0  0  0  0  0  0  0
  2  1  1  1
  2  3  1  0
  3  4  1  0
  4  5  2  0
  5  6  1  0
  7  8  2  0
  7  6  1  0
  9  8  1  0
 10  9  2  0
 11 10  1  0
 11 12  2  0
 12  4  1  0
 12  7  1  0
 13  2  1  0
 13 14  2  0
 16 18  1  0
 16 17  1  1
 16 15  1  0
 19 20  1  0
 19 18  1  6
 20 13  1  0
 21 19  1  0
 22 21  2  0
 23 21  1  0
 24 23  1  0
 25 26  1  0
 24 25  1  1
 26 27  2  0
 27 28  1  0
 29 28  1  0
 30 29  2  0
 31 30  1  0
 32 33  1  0
 32 31  2  0
 33 34  2  0
 34 26  1  0
 34 29  1  0
 35 24  1  0
 35 36  1  0
 37 35  2  0
M  END
$$$$
