WLW.pdb
     RDKit          3D

 37 40  0  0  1  0  0  0  0  0999 V2000
   26.1645  -18.8324  -10.8668 N   0  0  0  0  0  0  0  0  0  0  0  0
   26.5916  -20.1214  -11.4315 C   0  0  1  0  0  0  0  0  0  0  0  0
   25.9840  -21.2099  -10.5397 C   0  0  0  0  0  0  0  0  0  0  0  0
   26.2747  -20.9424   -9.1219 C   0  0  0  0  0  0  0  0  0  0  0  0
   25.3698  -20.5484   -8.1403 C   0  0  0  0  0  0  0  0  0  0  0  0
   26.0653  -20.4109   -7.0088 N   0  0  0  0  0  0  0  0  0  0  0  0
   27.3737  -20.7005   -7.2275 C   0  0  0  0  0  0  0  0  0  0  0  0
   28.4697  -20.7077   -6.3954 C   0  0  0  0  0  0  0  0  0  0  0  0
   29.7131  -21.0499   -6.8848 C   0  0  0  0  0  0  0  0  0  0  0  0
   29.8437  -21.3845   -8.2188 C   0  0  0  0  0  0  0  0  0  0  0  0
   28.7772  -21.3883   -9.0724 C   0  0  0  0  0  0  0  0  0  0  0  0
   27.5289  -21.0387   -8.5566 C   0  0  0  0  0  0  0  0  0  0  0  0
   25.9697  -20.3202  -12.7691 C   0  0  0  0  0  0  0  0  0  0  0  0
   24.9221  -19.6948  -13.0241 O   0  0  0  0  0  0  0  0  0  0  0  0
   29.8521  -20.5764  -16.5297 C   0  0  0  0  0  0  0  0  0  0  0  0
   28.6579  -20.3672  -15.6430 C   0  0  1  0  0  0  0  0  0  0  0  0
   28.1196  -18.9708  -16.0185 C   0  0  0  0  0  0  0  0  0  0  0  0
   27.5409  -21.3229  -15.8807 C   0  0  0  0  0  0  0  0  0  0  0  0
   26.2767  -21.0356  -15.1099 C   0  0  2  0  0  0  0  0  0  0  0  0
   26.5774  -21.1985  -13.6959 N   0  0  0  0  0  0  0  0  0  0  0  0
   25.1260  -21.8593  -15.4928 C   0  0  0  0  0  0  0  0  0  0  0  0
   24.7862  -21.8765  -16.7108 O   0  0  0  0  0  0  0  0  0  0  0  0
   24.4331  -22.6052  -14.5048 N   0  0  0  0  0  0  0  0  0  0  0  0
   23.1833  -23.2374  -14.8625 C   0  0  1  0  0  0  0  0  0  0  0  0
   22.4369  -23.6967  -13.6234 C   0  0  0  0  0  0  0  0  0  0  0  0
   21.1822  -24.3851  -13.9332 C   0  0  0  0  0  0  0  0  0  0  0  0
   21.1080  -25.6687  -14.4306 C   0  0  0  0  0  0  0  0  0  0  0  0
   19.8180  -26.0001  -14.5979 N   0  0  0  0  0  0  0  0  0  0  0  0
   19.0806  -24.9411  -14.2122 C   0  0  0  0  0  0  0  0  0  0  0  0
   17.7035  -24.7796  -14.1934 C   0  0  0  0  0  0  0  0  0  0  0  0
   17.1950  -23.5723  -13.7447 C   0  0  0  0  0  0  0  0  0  0  0  0
   18.0358  -22.5537  -13.3262 C   0  0  0  0  0  0  0  0  0  0  0  0
   19.4026  -22.7030  -13.3408 C   0  0  0  0  0  0  0  0  0  0  0  0
   19.8959  -23.9075  -13.7887 C   0  0  0  0  0  0  0  0  0  0  0  0
   22.3326  -22.1529  -15.4747 C   0  0  0  0  0  0  0  0  0  0  0  0
   21.5605  -22.3924  -16.6012 O   0  0  0  0  0  0  0  0  0  0  0  0
   22.2873  -20.9854  -14.9904 O   0  0  0  0  0  0  0  0  0  0  0  0
  2  1  1  1
  2  3  1  0
  3  4  1  0
  4  5  2  0
  5  6  1  0
  7  8  2  0
  7  6  1  0
  9  8  1  0
 10  9  2  0
 11 10  1  0
 11 12  2  0
 12  4  1  0
 12  7  1  0
 13  2  1  0
 13 14  2  0
 16 18  1  0
 16 17  1  6
 16 15  1  0
 19 20  1  0
 19 18  1  6
 20 13  1  0
 21 19  1  0
 22 21  2  0
 23 21  1  0
 24 23  1  0
 25 26  1  0
 24 25  1  1
 26 27  2  0
 27 28  1  0
 29 28  1  0
 30 29  2  0
 31 30  1  0
 32 33  1  0
 32 31  2  0
 33 34  2  0
 34 26  1  0
 34 29  1  0
 35 24  1  0
 35 36  1  0
 37 35  2  0
M  END
$$$$
