WLW.pdb
     RDKit          3D

 37 40  0  0  1  0  0  0  0  0999 V2000
   23.0322  -20.9679  -14.9540 N   0  0  0  0  0  0  0  0  0  0  0  0
   23.9488  -20.1059  -14.1925 C   0  0  1  0  0  0  0  0  0  0  0  0
   23.1072  -19.4305  -13.1039 C   0  0  0  0  0  0  0  0  0  0  0  0
   22.2192  -18.4134  -13.6896 C   0  0  0  0  0  0  0  0  0  0  0  0
   20.8273  -18.4191  -13.6960 C   0  0  0  0  0  0  0  0  0  0  0  0
   20.4410  -17.3152  -14.3404 N   0  0  0  0  0  0  0  0  0  0  0  0
   21.5267  -16.6069  -14.7443 C   0  0  0  0  0  0  0  0  0  0  0  0
   21.6528  -15.4211  -15.4308 C   0  0  0  0  0  0  0  0  0  0  0  0
   22.9023  -14.9115  -15.7167 C   0  0  0  0  0  0  0  0  0  0  0  0
   24.0236  -15.6061  -15.3058 C   0  0  0  0  0  0  0  0  0  0  0  0
   23.9350  -16.7855  -14.6223 C   0  0  0  0  0  0  0  0  0  0  0  0
   22.6616  -17.2829  -14.3439 C   0  0  0  0  0  0  0  0  0  0  0  0
   24.9387  -20.9410  -13.4590 C   0  0  0  0  0  0  0  0  0  0  0  0
   24.6834  -22.1519  -13.3093 O   0  0  0  0  0  0  0  0  0  0  0  0
   30.0241  -19.6504  -14.3833 C   0  0  0  0  0  0  0  0  0  0  0  0
   28.6966  -20.2899  -14.0921 C   0  0  1  0  0  0  0  0  0  0  0  0
   28.7250  -21.6345  -14.8482 C   0  0  0  0  0  0  0  0  0  0  0  0
   28.4760  -20.6224  -12.6573 C   0  0  0  0  0  0  0  0  0  0  0  0
   27.1191  -21.1957  -12.3336 C   0  0  2  0  0  0  0  0  0  0  0  0
   26.1209  -20.3446  -12.9627 N   0  0  0  0  0  0  0  0  0  0  0  0
   26.8437  -21.3452  -10.9016 C   0  0  0  0  0  0  0  0  0  0  0  0
   27.6194  -22.0753  -10.2200 O   0  0  0  0  0  0  0  0  0  0  0  0
   25.7329  -20.6782  -10.3239 N   0  0  0  0  0  0  0  0  0  0  0  0
   25.3691  -20.9896   -8.9600 C   0  0  1  0  0  0  0  0  0  0  0  0
   25.3040  -19.7288   -8.1175 C   0  0  0  0  0  0  0  0  0  0  0  0
   26.6201  -19.2745   -7.6644 C   0  0  0  0  0  0  0  0  0  0  0  0
   27.3106  -18.2230   -8.2285 C   0  0  0  0  0  0  0  0  0  0  0  0
   28.4747  -18.0643   -7.5792 N   0  0  0  0  0  0  0  0  0  0  0  0
   28.5246  -19.0025   -6.6143 C   0  0  0  0  0  0  0  0  0  0  0  0
   29.5140  -19.2581   -5.6769 C   0  0  0  0  0  0  0  0  0  0  0  0
   29.3141  -20.2987   -4.7855 C   0  0  0  0  0  0  0  0  0  0  0  0
   28.1598  -21.0639   -4.8270 C   0  0  0  0  0  0  0  0  0  0  0  0
   27.1724  -20.8193   -5.7524 C   0  0  0  0  0  0  0  0  0  0  0  0
   27.3827  -19.7823   -6.6327 C   0  0  0  0  0  0  0  0  0  0  0  0
   23.9571  -21.5162   -9.0193 C   0  0  0  0  0  0  0  0  0  0  0  0
   23.3142  -21.9839   -7.8834 O   0  0  0  0  0  0  0  0  0  0  0  0
   23.3027  -21.5540  -10.1009 O   0  0  0  0  0  0  0  0  0  0  0  0
  2  1  1  6
  2  3  1  0
  3  4  1  0
  4  5  2  0
  5  6  1  0
  7  8  2  0
  7  6  1  0
  9  8  1  0
 10  9  2  0
 11 10  1  0
 11 12  2  0
 12  4  1  0
 12  7  1  0
 13  2  1  0
 13 14  2  0
 16 18  1  0
 16 17  1  6
 16 15  1  0
 19 20  1  0
 19 18  1  1
 20 13  1  0
 21 19  1  0
 22 21  2  0
 23 21  1  0
 24 23  1  0
 25 26  1  0
 24 25  1  1
 26 27  2  0
 27 28  1  0
 29 28  1  0
 30 29  2  0
 31 30  1  0
 32 33  1  0
 32 31  2  0
 33 34  2  0
 34 26  1  0
 34 29  1  0
 35 24  1  0
 35 36  1  0
 37 35  2  0
M  END
$$$$
