WLW.pdb
     RDKit          3D

 37 40  0  0  1  0  0  0  0  0999 V2000
   26.6283  -22.1939  -17.0860 N   0  0  0  0  0  0  0  0  0  0  0  0
   25.5658  -21.2550  -16.6956 C   0  0  1  0  0  0  0  0  0  0  0  0
   24.5468  -21.2507  -17.8406 C   0  0  0  0  0  0  0  0  0  0  0  0
   25.0015  -20.3815  -18.9378 C   0  0  0  0  0  0  0  0  0  0  0  0
   25.7691  -20.7524  -20.0382 C   0  0  0  0  0  0  0  0  0  0  0  0
   25.9533  -19.6495  -20.7681 N   0  0  0  0  0  0  0  0  0  0  0  0
   25.3360  -18.5927  -20.1802 C   0  0  0  0  0  0  0  0  0  0  0  0
   25.2342  -17.2675  -20.5364 C   0  0  0  0  0  0  0  0  0  0  0  0
   24.5308  -16.3854  -19.7428 C   0  0  0  0  0  0  0  0  0  0  0  0
   23.9312  -16.8487  -18.5877 C   0  0  0  0  0  0  0  0  0  0  0  0
   24.0118  -18.1574  -18.2045 C   0  0  0  0  0  0  0  0  0  0  0  0
   24.7282  -19.0324  -19.0216 C   0  0  0  0  0  0  0  0  0  0  0  0
   24.8273  -21.7859  -15.5175 C   0  0  0  0  0  0  0  0  0  0  0  0
   24.5751  -23.0063  -15.4886 O   0  0  0  0  0  0  0  0  0  0  0  0
   26.1699  -20.6238  -10.4900 C   0  0  0  0  0  0  0  0  0  0  0  0
   25.6640  -21.1660  -11.7961 C   0  0  1  0  0  0  0  0  0  0  0  0
   25.7045  -22.7001  -11.6358 C   0  0  0  0  0  0  0  0  0  0  0  0
   24.2491  -20.8153  -12.1006 C   0  0  0  0  0  0  0  0  0  0  0  0
   23.6906  -21.4372  -13.3560 C   0  0  2  0  0  0  0  0  0  0  0  0
   24.4409  -20.9034  -14.4824 N   0  0  0  0  0  0  0  0  0  0  0  0
   22.2516  -21.2361  -13.5507 C   0  0  0  0  0  0  0  0  0  0  0  0
   21.7988  -20.0585  -13.4642 O   0  0  0  0  0  0  0  0  0  0  0  0
   21.4154  -22.3483  -13.8273 N   0  0  0  0  0  0  0  0  0  0  0  0
   20.0032  -22.1199  -14.0347 C   0  0  1  0  0  0  0  0  0  0  0  0
   19.3772  -23.2709  -14.8007 C   0  0  0  0  0  0  0  0  0  0  0  0
   19.7020  -24.5807  -14.2323 C   0  0  0  0  0  0  0  0  0  0  0  0
   19.1173  -25.0954  -13.0948 C   0  0  0  0  0  0  0  0  0  0  0  0
   19.6310  -26.3112  -12.8497 N   0  0  0  0  0  0  0  0  0  0  0  0
   20.5310  -26.5669  -13.8184 C   0  0  0  0  0  0  0  0  0  0  0  0
   21.3302  -27.6832  -14.0134 C   0  0  0  0  0  0  0  0  0  0  0  0
   22.1832  -27.6916  -15.1042 C   0  0  0  0  0  0  0  0  0  0  0  0
   22.2384  -26.6168  -15.9768 C   0  0  0  0  0  0  0  0  0  0  0  0
   21.4506  -25.5049  -15.7929 C   0  0  0  0  0  0  0  0  0  0  0  0
   20.6067  -25.5087  -14.7054 C   0  0  0  0  0  0  0  0  0  0  0  0
   19.3746  -22.1499  -12.6641 C   0  0  0  0  0  0  0  0  0  0  0  0
   18.0373  -21.8347  -12.4777 O   0  0  0  0  0  0  0  0  0  0  0  0
   20.0360  -22.4613  -11.6321 O   0  0  0  0  0  0  0  0  0  0  0  0
  2  1  1  6
  2  3  1  0
  3  4  1  0
  4  5  2  0
  5  6  1  0
  7  8  2  0
  7  6  1  0
  9  8  1  0
 10  9  2  0
 11 10  1  0
 11 12  2  0
 12  4  1  0
 12  7  1  0
 13  2  1  0
 13 14  2  0
 16 18  1  0
 16 17  1  1
 16 15  1  0
 19 20  1  0
 19 18  1  1
 20 13  1  0
 21 19  1  0
 22 21  2  0
 23 21  1  0
 24 23  1  0
 25 26  1  0
 24 25  1  6
 26 27  2  0
 27 28  1  0
 29 28  1  0
 30 29  2  0
 31 30  1  0
 32 33  1  0
 32 31  2  0
 33 34  2  0
 34 26  1  0
 34 29  1  0
 35 24  1  0
 35 36  1  0
 37 35  2  0
M  END
$$$$
