WLW.pdb
     RDKit          3D

 37 40  0  0  1  0  0  0  0  0999 V2000
   17.8932   -9.9395  -20.9188 N   0  0  0  0  0  0  0  0  0  0  0  0
   17.3586   -8.5719  -20.8360 C   0  0  1  0  0  0  0  0  0  0  0  0
   16.6858   -8.4501  -19.4642 C   0  0  0  0  0  0  0  0  0  0  0  0
   15.4120   -9.1870  -19.4428 C   0  0  0  0  0  0  0  0  0  0  0  0
   15.1685  -10.4235  -18.8517 C   0  0  0  0  0  0  0  0  0  0  0  0
   13.8863  -10.7152  -19.0842 N   0  0  0  0  0  0  0  0  0  0  0  0
   13.3031   -9.7180  -19.7976 C   0  0  0  0  0  0  0  0  0  0  0  0
   12.0233   -9.5501  -20.2745 C   0  0  0  0  0  0  0  0  0  0  0  0
   11.6881   -8.4162  -20.9846 C   0  0  0  0  0  0  0  0  0  0  0  0
   12.6522   -7.4529  -21.2107 C   0  0  0  0  0  0  0  0  0  0  0  0
   13.9317   -7.5869  -20.7514 C   0  0  0  0  0  0  0  0  0  0  0  0
   14.2493   -8.7417  -20.0357 C   0  0  0  0  0  0  0  0  0  0  0  0
   18.4775   -7.5906  -20.8108 C   0  0  0  0  0  0  0  0  0  0  0  0
   19.5421   -7.9338  -20.2608 O   0  0  0  0  0  0  0  0  0  0  0  0
   20.1924   -5.7615  -24.2789 C   0  0  0  0  0  0  0  0  0  0  0  0
   20.2134   -4.4592  -23.5309 C   0  0  1  0  0  0  0  0  0  0  0  0
   19.8221   -3.3916  -24.5739 C   0  0  0  0  0  0  0  0  0  0  0  0
   19.2077   -4.3623  -22.4369 C   0  0  0  0  0  0  0  0  0  0  0  0
   19.3856   -5.3527  -21.3133 C   0  0  2  0  0  0  0  0  0  0  0  0
   18.3016   -6.3188  -21.4032 N   0  0  0  0  0  0  0  0  0  0  0  0
   19.4384   -4.7568  -19.9750 C   0  0  0  0  0  0  0  0  0  0  0  0
   18.3446   -4.5137  -19.3888 O   0  0  0  0  0  0  0  0  0  0  0  0
   20.6941   -4.4725  -19.3790 N   0  0  0  0  0  0  0  0  0  0  0  0
   20.7186   -3.9123  -18.0467 C   0  0  1  0  0  0  0  0  0  0  0  0
   22.0981   -4.0496  -17.4289 C   0  0  0  0  0  0  0  0  0  0  0  0
   22.1947   -3.4376  -16.1022 C   0  0  0  0  0  0  0  0  0  0  0  0
   22.1523   -4.1456  -14.9201 C   0  0  0  0  0  0  0  0  0  0  0  0
   22.2720   -3.2904  -13.8923 N   0  0  0  0  0  0  0  0  0  0  0  0
   22.3889   -2.0540  -14.4135 C   0  0  0  0  0  0  0  0  0  0  0  0
   22.5355   -0.8326  -13.7735 C   0  0  0  0  0  0  0  0  0  0  0  0
   22.6336    0.3056  -14.5560 C   0  0  0  0  0  0  0  0  0  0  0  0
   22.5867    0.2288  -15.9386 C   0  0  0  0  0  0  0  0  0  0  0  0
   22.4414   -0.9769  -16.5836 C   0  0  0  0  0  0  0  0  0  0  0  0
   22.3453   -2.1009  -15.7949 C   0  0  0  0  0  0  0  0  0  0  0  0
   20.4918   -2.4311  -18.2175 C   0  0  0  0  0  0  0  0  0  0  0  0
   19.6910   -1.7186  -17.3379 O   0  0  0  0  0  0  0  0  0  0  0  0
   21.0186   -1.7790  -19.1645 O   0  0  0  0  0  0  0  0  0  0  0  0
  2  1  1  1
  2  3  1  0
  3  4  1  0
  4  5  2  0
  5  6  1  0
  7  8  2  0
  7  6  1  0
  9  8  1  0
 10  9  2  0
 11 10  1  0
 11 12  2  0
 12  4  1  0
 12  7  1  0
 13  2  1  0
 13 14  2  0
 16 18  1  0
 16 17  1  6
 16 15  1  0
 19 20  1  0
 19 18  1  6
 20 13  1  0
 21 19  1  0
 22 21  2  0
 23 21  1  0
 24 23  1  0
 25 26  1  0
 24 25  1  6
 26 27  2  0
 27 28  1  0
 29 28  1  0
 30 29  2  0
 31 30  1  0
 32 33  1  0
 32 31  2  0
 33 34  2  0
 34 26  1  0
 34 29  1  0
 35 24  1  0
 35 36  1  0
 37 35  2  0
M  END
$$$$
