WLW.pdb
     RDKit          3D

 37 40  0  0  1  0  0  0  0  0999 V2000
   28.0488  -21.4749  -14.4691 N   0  0  0  0  0  0  0  0  0  0  0  0
   27.3554  -20.4539  -13.6692 C   0  0  1  0  0  0  0  0  0  0  0  0
   26.0730  -20.1013  -14.4311 C   0  0  0  0  0  0  0  0  0  0  0  0
   26.3798  -19.2803  -15.6134 C   0  0  0  0  0  0  0  0  0  0  0  0
   27.6414  -18.9473  -16.0984 C   0  0  0  0  0  0  0  0  0  0  0  0
   27.4496  -18.1834  -17.1768 N   0  0  0  0  0  0  0  0  0  0  0  0
   26.1207  -18.0159  -17.3992 C   0  0  0  0  0  0  0  0  0  0  0  0
   25.4259  -17.3281  -18.3675 C   0  0  0  0  0  0  0  0  0  0  0  0
   24.0465  -17.3221  -18.3629 C   0  0  0  0  0  0  0  0  0  0  0  0
   23.3728  -18.0144  -17.3752 C   0  0  0  0  0  0  0  0  0  0  0  0
   24.0307  -18.7079  -16.3994 C   0  0  0  0  0  0  0  0  0  0  0  0
   25.4257  -18.7004  -16.4227 C   0  0  0  0  0  0  0  0  0  0  0  0
   26.8955  -21.0437  -12.3823 C   0  0  0  0  0  0  0  0  0  0  0  0
   26.2333  -22.0987  -12.4278 O   0  0  0  0  0  0  0  0  0  0  0  0
   28.1090  -21.3798   -7.6106 C   0  0  0  0  0  0  0  0  0  0  0  0
   26.9871  -20.3814   -7.6323 C   0  0  1  0  0  0  0  0  0  0  0  0
   27.3783  -19.3161   -6.5869 C   0  0  0  0  0  0  0  0  0  0  0  0
   26.8314  -19.6597   -8.9256 C   0  0  0  0  0  0  0  0  0  0  0  0
   26.2797  -20.4876  -10.0592 C   0  0  2  0  0  0  0  0  0  0  0  0
   27.2197  -20.3995  -11.1660 N   0  0  0  0  0  0  0  0  0  0  0  0
   24.9316  -20.1093  -10.4935 C   0  0  0  0  0  0  0  0  0  0  0  0
   24.7797  -18.9827  -11.0476 O   0  0  0  0  0  0  0  0  0  0  0  0
   23.8479  -21.0010  -10.2860 N   0  0  0  0  0  0  0  0  0  0  0  0
   22.6481  -20.8299  -11.0739 C   0  0  1  0  0  0  0  0  0  0  0  0
   22.7080  -21.6686  -12.3374 C   0  0  0  0  0  0  0  0  0  0  0  0
   21.4815  -21.5928  -13.1336 C   0  0  0  0  0  0  0  0  0  0  0  0
   20.7516  -20.4382  -13.3195 C   0  0  0  0  0  0  0  0  0  0  0  0
   19.6938  -20.7092  -14.1003 N   0  0  0  0  0  0  0  0  0  0  0  0
   19.7495  -22.0194  -14.4073 C   0  0  0  0  0  0  0  0  0  0  0  0
   18.8921  -22.7853  -15.1824 C   0  0  0  0  0  0  0  0  0  0  0  0
   19.1820  -24.1302  -15.3401 C   0  0  0  0  0  0  0  0  0  0  0  0
   20.2959  -24.6963  -14.7415 C   0  0  0  0  0  0  0  0  0  0  0  0
   21.1527  -23.9462  -13.9707 C   0  0  0  0  0  0  0  0  0  0  0  0
   20.8540  -22.6108  -13.8218 C   0  0  0  0  0  0  0  0  0  0  0  0
   21.5266  -21.4107  -10.2494 C   0  0  0  0  0  0  0  0  0  0  0  0
   20.2072  -21.0456  -10.4689 O   0  0  0  0  0  0  0  0  0  0  0  0
   21.7400  -22.2503   -9.3279 O   0  0  0  0  0  0  0  0  0  0  0  0
  2  1  1  6
  2  3  1  0
  3  4  1  0
  4  5  2  0
  5  6  1  0
  7  8  2  0
  7  6  1  0
  9  8  1  0
 10  9  2  0
 11 10  1  0
 11 12  2  0
 12  4  1  0
 12  7  1  0
 13  2  1  0
 13 14  2  0
 16 18  1  0
 16 17  1  1
 16 15  1  0
 19 20  1  0
 19 18  1  1
 20 13  1  0
 21 19  1  0
 22 21  2  0
 23 21  1  0
 24 23  1  0
 25 26  1  0
 24 25  1  6
 26 27  2  0
 27 28  1  0
 29 28  1  0
 30 29  2  0
 31 30  1  0
 32 33  1  0
 32 31  2  0
 33 34  2  0
 34 26  1  0
 34 29  1  0
 35 24  1  0
 35 36  1  0
 37 35  2  0
M  END
$$$$
