WLW.pdb
     RDKit          3D

 37 40  0  0  1  0  0  0  0  0999 V2000
   27.3195  -21.3713  -16.5426 N   0  0  0  0  0  0  0  0  0  0  0  0
   27.3439  -20.3981  -15.4402 C   0  0  1  0  0  0  0  0  0  0  0  0
   26.6185  -19.1470  -15.9480 C   0  0  0  0  0  0  0  0  0  0  0  0
   27.3417  -18.5519  -17.0834 C   0  0  0  0  0  0  0  0  0  0  0  0
   26.8464  -18.3181  -18.3631 C   0  0  0  0  0  0  0  0  0  0  0  0
   27.8432  -17.7779  -19.0686 N   0  0  0  0  0  0  0  0  0  0  0  0
   28.9514  -17.6576  -18.2934 C   0  0  0  0  0  0  0  0  0  0  0  0
   30.2110  -17.1679  -18.5524 C   0  0  0  0  0  0  0  0  0  0  0  0
   31.1719  -17.1599  -17.5629 C   0  0  0  0  0  0  0  0  0  0  0  0
   30.8540  -17.6493  -16.3107 C   0  0  0  0  0  0  0  0  0  0  0  0
   29.6139  -18.1422  -16.0190 C   0  0  0  0  0  0  0  0  0  0  0  0
   28.6572  -18.1411  -17.0345 C   0  0  0  0  0  0  0  0  0  0  0  0
   26.5177  -20.8953  -14.3063 C   0  0  0  0  0  0  0  0  0  0  0  0
   25.5630  -21.6527  -14.5683 O   0  0  0  0  0  0  0  0  0  0  0  0
   28.9263  -21.4168  -11.1392 C   0  0  0  0  0  0  0  0  0  0  0  0
   27.7571  -21.4273  -10.1963 C   0  0  1  0  0  0  0  0  0  0  0  0
   28.3032  -20.8484   -8.8744 C   0  0  0  0  0  0  0  0  0  0  0  0
   26.6301  -20.5438  -10.6049 C   0  0  0  0  0  0  0  0  0  0  0  0
   25.9603  -20.9184  -11.9033 C   0  0  2  0  0  0  0  0  0  0  0  0
   26.8367  -20.5001  -12.9866 N   0  0  0  0  0  0  0  0  0  0  0  0
   24.6157  -20.3622  -12.0810 C   0  0  0  0  0  0  0  0  0  0  0  0
   24.5107  -19.1238  -12.3150 O   0  0  0  0  0  0  0  0  0  0  0  0
   23.4834  -21.2119  -11.9886 N   0  0  0  0  0  0  0  0  0  0  0  0
   22.1874  -20.6824  -12.3484 C   0  0  1  0  0  0  0  0  0  0  0  0
   22.0755  -20.5045  -13.8515 C   0  0  0  0  0  0  0  0  0  0  0  0
   20.7904  -19.9387  -14.2669 C   0  0  0  0  0  0  0  0  0  0  0  0
   20.4361  -18.6177  -14.0937 C   0  0  0  0  0  0  0  0  0  0  0  0
   19.2020  -18.4267  -14.5860 N   0  0  0  0  0  0  0  0  0  0  0  0
   18.7761  -19.6107  -15.0662 C   0  0  0  0  0  0  0  0  0  0  0  0
   17.5735  -19.9404  -15.6727 C   0  0  0  0  0  0  0  0  0  0  0  0
   17.3861  -21.2509  -16.0788 C   0  0  0  0  0  0  0  0  0  0  0  0
   18.3702  -22.2069  -15.8856 C   0  0  0  0  0  0  0  0  0  0  0  0
   19.5662  -21.8911  -15.2852 C   0  0  0  0  0  0  0  0  0  0  0  0
   19.7407  -20.5853  -14.8863 C   0  0  0  0  0  0  0  0  0  0  0  0
   21.1891  -21.7536  -11.9870 C   0  0  0  0  0  0  0  0  0  0  0  0
   21.4692  -23.0967  -12.1871 O   0  0  0  0  0  0  0  0  0  0  0  0
   20.0602  -21.4748  -11.4895 O   0  0  0  0  0  0  0  0  0  0  0  0
  2  1  1  6
  2  3  1  0
  3  4  1  0
  4  5  2  0
  5  6  1  0
  7  8  2  0
  7  6  1  0
  9  8  1  0
 10  9  2  0
 11 10  1  0
 11 12  2  0
 12  4  1  0
 12  7  1  0
 13  2  1  0
 13 14  2  0
 16 18  1  0
 16 17  1  1
 16 15  1  0
 19 20  1  0
 19 18  1  1
 20 13  1  0
 21 19  1  0
 22 21  2  0
 23 21  1  0
 24 23  1  0
 25 26  1  0
 24 25  1  6
 26 27  2  0
 27 28  1  0
 29 28  1  0
 30 29  2  0
 31 30  1  0
 32 33  1  0
 32 31  2  0
 33 34  2  0
 34 26  1  0
 34 29  1  0
 35 24  1  0
 35 36  1  0
 37 35  2  0
M  END
$$$$
