WLW.pdb
     RDKit          3D

 37 40  0  0  1  0  0  0  0  0999 V2000
   23.6788  -22.8393  -16.7337 N   0  0  0  0  0  0  0  0  0  0  0  0
   23.5858  -21.6447  -15.8809 C   0  0  1  0  0  0  0  0  0  0  0  0
   22.3467  -21.8350  -14.9991 C   0  0  0  0  0  0  0  0  0  0  0  0
   21.1703  -21.1962  -15.6108 C   0  0  0  0  0  0  0  0  0  0  0  0
   20.0424  -21.8315  -16.1223 C   0  0  0  0  0  0  0  0  0  0  0  0
   19.2370  -20.8721  -16.5849 N   0  0  0  0  0  0  0  0  0  0  0  0
   19.8033  -19.6536  -16.3898 C   0  0  0  0  0  0  0  0  0  0  0  0
   19.3772  -18.3790  -16.6854 C   0  0  0  0  0  0  0  0  0  0  0  0
   20.1648  -17.2912  -16.3710 C   0  0  0  0  0  0  0  0  0  0  0  0
   21.3849  -17.4974  -15.7568 C   0  0  0  0  0  0  0  0  0  0  0  0
   21.8385  -18.7485  -15.4488 C   0  0  0  0  0  0  0  0  0  0  0  0
   21.0261  -19.8347  -15.7757 C   0  0  0  0  0  0  0  0  0  0  0  0
   24.7352  -21.6053  -14.9361 C   0  0  0  0  0  0  0  0  0  0  0  0
   25.3088  -22.6796  -14.6701 O   0  0  0  0  0  0  0  0  0  0  0  0
   28.0633  -17.2998  -15.0780 C   0  0  0  0  0  0  0  0  0  0  0  0
   27.4793  -18.6780  -14.9539 C   0  0  1  0  0  0  0  0  0  0  0  0
   28.6666  -19.6379  -15.1767 C   0  0  0  0  0  0  0  0  0  0  0  0
   26.9335  -18.9952  -13.6051 C   0  0  0  0  0  0  0  0  0  0  0  0
   26.2803  -20.3488  -13.4801 C   0  0  2  0  0  0  0  0  0  0  0  0
   25.1359  -20.3693  -14.3782 N   0  0  0  0  0  0  0  0  0  0  0  0
   25.8760  -20.7098  -12.1181 C   0  0  0  0  0  0  0  0  0  0  0  0
   24.6505  -20.6216  -11.8185 O   0  0  0  0  0  0  0  0  0  0  0  0
   26.8523  -21.1429  -11.1843 N   0  0  0  0  0  0  0  0  0  0  0  0
   26.4491  -21.3729   -9.8153 C   0  0  1  0  0  0  0  0  0  0  0  0
   27.6589  -21.4499   -8.9021 C   0  0  0  0  0  0  0  0  0  0  0  0
   27.3494  -21.1096   -7.5120 C   0  0  0  0  0  0  0  0  0  0  0  0
   26.1142  -21.2944   -6.9282 C   0  0  0  0  0  0  0  0  0  0  0  0
   26.1680  -20.8874   -5.6502 N   0  0  0  0  0  0  0  0  0  0  0  0
   27.4211  -20.4489   -5.4234 C   0  0  0  0  0  0  0  0  0  0  0  0
   27.9823  -19.9285   -4.2671 C   0  0  0  0  0  0  0  0  0  0  0  0
   29.3128  -19.5465   -4.3032 C   0  0  0  0  0  0  0  0  0  0  0  0
   30.0636  -19.6794   -5.4601 C   0  0  0  0  0  0  0  0  0  0  0  0
   29.5172  -20.1940   -6.6123 C   0  0  0  0  0  0  0  0  0  0  0  0
   28.1941  -20.5703   -6.5637 C   0  0  0  0  0  0  0  0  0  0  0  0
   25.6955  -20.1363   -9.3937 C   0  0  0  0  0  0  0  0  0  0  0  0
   24.5084  -20.2234   -8.6826 O   0  0  0  0  0  0  0  0  0  0  0  0
   26.1110  -18.9740   -9.6692 O   0  0  0  0  0  0  0  0  0  0  0  0
  2  1  1  6
  2  3  1  0
  3  4  1  0
  4  5  2  0
  5  6  1  0
  7  8  2  0
  7  6  1  0
  9  8  1  0
 10  9  2  0
 11 10  1  0
 11 12  2  0
 12  4  1  0
 12  7  1  0
 13  2  1  0
 13 14  2  0
 16 18  1  0
 16 17  1  1
 16 15  1  0
 19 20  1  0
 19 18  1  1
 20 13  1  0
 21 19  1  0
 22 21  2  0
 23 21  1  0
 24 23  1  0
 25 26  1  0
 24 25  1  1
 26 27  2  0
 27 28  1  0
 29 28  1  0
 30 29  2  0
 31 30  1  0
 32 33  1  0
 32 31  2  0
 33 34  2  0
 34 26  1  0
 34 29  1  0
 35 24  1  0
 35 36  1  0
 37 35  2  0
M  END
$$$$
