WLW.pdb
     RDKit          3D

 37 40  0  0  1  0  0  0  0  0999 V2000
   23.2030  -17.6497  -16.0026 N   0  0  0  0  0  0  0  0  0  0  0  0
   24.5419  -17.5014  -15.4125 C   0  0  1  0  0  0  0  0  0  0  0  0
   24.5166  -16.2040  -14.5968 C   0  0  0  0  0  0  0  0  0  0  0  0
   24.3126  -15.0413  -15.4758 C   0  0  0  0  0  0  0  0  0  0  0  0
   23.2999  -14.0905  -15.3869 C   0  0  0  0  0  0  0  0  0  0  0  0
   23.4936  -13.2274  -16.3873 N   0  0  0  0  0  0  0  0  0  0  0  0
   24.5859  -13.5876  -17.1090 C   0  0  0  0  0  0  0  0  0  0  0  0
   25.1873  -13.0307  -18.2142 C   0  0  0  0  0  0  0  0  0  0  0  0
   26.3136  -13.6104  -18.7602 C   0  0  0  0  0  0  0  0  0  0  0  0
   26.8290  -14.7554  -18.1841 C   0  0  0  0  0  0  0  0  0  0  0  0
   26.2577  -15.3343  -17.0866 C   0  0  0  0  0  0  0  0  0  0  0  0
   25.1192  -14.7317  -16.5507 C   0  0  0  0  0  0  0  0  0  0  0  0
   24.7808  -18.5831  -14.4184 C   0  0  0  0  0  0  0  0  0  0  0  0
   23.8993  -18.7941  -13.5628 O   0  0  0  0  0  0  0  0  0  0  0  0
   26.3439  -21.0669  -16.4844 C   0  0  0  0  0  0  0  0  0  0  0  0
   26.5219  -22.0317  -15.3471 C   0  0  1  0  0  0  0  0  0  0  0  0
   27.5795  -23.0413  -15.8399 C   0  0  0  0  0  0  0  0  0  0  0  0
   27.0730  -21.4227  -14.1049 C   0  0  0  0  0  0  0  0  0  0  0  0
   26.2089  -20.3594  -13.4745 C   0  0  2  0  0  0  0  0  0  0  0  0
   25.9817  -19.3277  -14.4747 N   0  0  0  0  0  0  0  0  0  0  0  0
   26.7544  -19.7772  -12.2447 C   0  0  0  0  0  0  0  0  0  0  0  0
   27.5236  -18.7788  -12.3498 O   0  0  0  0  0  0  0  0  0  0  0  0
   26.4119  -20.3375  -10.9872 N   0  0  0  0  0  0  0  0  0  0  0  0
   27.2148  -19.9972   -9.8343 C   0  0  1  0  0  0  0  0  0  0  0  0
   26.3369  -19.5658   -8.6737 C   0  0  0  0  0  0  0  0  0  0  0  0
   27.1052  -19.1241   -7.5081 C   0  0  0  0  0  0  0  0  0  0  0  0
   27.6425  -17.8620   -7.3704 C   0  0  0  0  0  0  0  0  0  0  0  0
   28.2778  -17.7823   -6.1906 N   0  0  0  0  0  0  0  0  0  0  0  0
   28.1468  -18.9782   -5.5852 C   0  0  0  0  0  0  0  0  0  0  0  0
   28.6222  -19.4054   -4.3546 C   0  0  0  0  0  0  0  0  0  0  0  0
   28.3441  -20.7045   -3.9638 C   0  0  0  0  0  0  0  0  0  0  0  0
   27.6124  -21.5546   -4.7772 C   0  0  0  0  0  0  0  0  0  0  0  0
   27.1364  -21.1415   -5.9993 C   0  0  0  0  0  0  0  0  0  0  0  0
   27.4190  -19.8482   -6.3764 C   0  0  0  0  0  0  0  0  0  0  0  0
   27.8722  -21.2816   -9.3954 C   0  0  0  0  0  0  0  0  0  0  0  0
   27.3046  -22.5147   -9.6778 O   0  0  0  0  0  0  0  0  0  0  0  0
   28.9626  -21.2894   -8.7546 O   0  0  0  0  0  0  0  0  0  0  0  0
  2  1  1  1
  2  3  1  0
  3  4  1  0
  4  5  2  0
  5  6  1  0
  7  8  2  0
  7  6  1  0
  9  8  1  0
 10  9  2  0
 11 10  1  0
 11 12  2  0
 12  4  1  0
 12  7  1  0
 13  2  1  0
 13 14  2  0
 16 18  1  0
 16 17  1  6
 16 15  1  0
 19 20  1  0
 19 18  1  6
 20 13  1  0
 21 19  1  0
 22 21  2  0
 23 21  1  0
 24 23  1  0
 25 26  1  0
 24 25  1  1
 26 27  2  0
 27 28  1  0
 29 28  1  0
 30 29  2  0
 31 30  1  0
 32 33  1  0
 32 31  2  0
 33 34  2  0
 34 26  1  0
 34 29  1  0
 35 24  1  0
 35 36  1  0
 37 35  2  0
M  END
$$$$
