WLW.pdb
     RDKit          3D

 37 40  0  0  1  0  0  0  0  0999 V2000
   24.6741  -21.5697  -19.9625 N   0  0  0  0  0  0  0  0  0  0  0  0
   23.9160  -20.4102  -19.4685 C   0  0  1  0  0  0  0  0  0  0  0  0
   22.4468  -20.8431  -19.4118 C   0  0  0  0  0  0  0  0  0  0  0  0
   21.7730  -20.5640  -20.6902 C   0  0  0  0  0  0  0  0  0  0  0  0
   22.2077  -20.9227  -21.9629 C   0  0  0  0  0  0  0  0  0  0  0  0
   21.2986  -20.4599  -22.8246 N   0  0  0  0  0  0  0  0  0  0  0  0
   20.3040  -19.8223  -22.1555 C   0  0  0  0  0  0  0  0  0  0  0  0
   19.1605  -19.1887  -22.5849 C   0  0  0  0  0  0  0  0  0  0  0  0
   18.3004  -18.6116  -21.6740 C   0  0  0  0  0  0  0  0  0  0  0  0
   18.6014  -18.6777  -20.3273 C   0  0  0  0  0  0  0  0  0  0  0  0
   19.7273  -19.2989  -19.8664 C   0  0  0  0  0  0  0  0  0  0  0  0
   20.5835  -19.8757  -20.8049 C   0  0  0  0  0  0  0  0  0  0  0  0
   24.2928  -20.1214  -18.0579 C   0  0  0  0  0  0  0  0  0  0  0  0
   24.4465  -21.0876  -17.2856 O   0  0  0  0  0  0  0  0  0  0  0  0
   27.4012  -18.1199  -17.9944 C   0  0  0  0  0  0  0  0  0  0  0  0
   27.1842  -17.6370  -16.5888 C   0  0  1  0  0  0  0  0  0  0  0  0
   27.9458  -16.2978  -16.5031 C   0  0  0  0  0  0  0  0  0  0  0  0
   25.7651  -17.3323  -16.2556 C   0  0  0  0  0  0  0  0  0  0  0  0
   24.8361  -18.5204  -16.2613 C   0  0  2  0  0  0  0  0  0  0  0  0
   24.4632  -18.7802  -17.6433 N   0  0  0  0  0  0  0  0  0  0  0  0
   23.6432  -18.3686  -15.4230 C   0  0  0  0  0  0  0  0  0  0  0  0
   23.8071  -18.0846  -14.2016 O   0  0  0  0  0  0  0  0  0  0  0  0
   22.3551  -18.5402  -15.9921 N   0  0  0  0  0  0  0  0  0  0  0  0
   21.1939  -18.2687  -15.1751 C   0  0  1  0  0  0  0  0  0  0  0  0
   20.0725  -17.6784  -16.0103 C   0  0  0  0  0  0  0  0  0  0  0  0
   20.4382  -16.4109  -16.6458 C   0  0  0  0  0  0  0  0  0  0  0  0
   21.5287  -15.6505  -16.2811 C   0  0  0  0  0  0  0  0  0  0  0  0
   21.5826  -14.5590  -17.0607 N   0  0  0  0  0  0  0  0  0  0  0  0
   20.5398  -14.6238  -17.9105 C   0  0  0  0  0  0  0  0  0  0  0  0
   20.1539  -13.7420  -18.9088 C   0  0  0  0  0  0  0  0  0  0  0  0
   19.0243  -14.0490  -19.6485 C   0  0  0  0  0  0  0  0  0  0  0  0
   18.2989  -15.2030  -19.4002 C   0  0  0  0  0  0  0  0  0  0  0  0
   18.6724  -16.0842  -18.4128 C   0  0  0  0  0  0  0  0  0  0  0  0
   19.7970  -15.7682  -17.6847 C   0  0  0  0  0  0  0  0  0  0  0  0
   20.6936  -19.6130  -14.7090 C   0  0  0  0  0  0  0  0  0  0  0  0
   19.5975  -19.7215  -13.8668 O   0  0  0  0  0  0  0  0  0  0  0  0
   21.2491  -20.6925  -15.0636 O   0  0  0  0  0  0  0  0  0  0  0  0
  2  1  1  1
  2  3  1  0
  3  4  1  0
  4  5  2  0
  5  6  1  0
  7  8  2  0
  7  6  1  0
  9  8  1  0
 10  9  2  0
 11 10  1  0
 11 12  2  0
 12  4  1  0
 12  7  1  0
 13  2  1  0
 13 14  2  0
 16 18  1  0
 16 17  1  6
 16 15  1  0
 19 20  1  0
 19 18  1  6
 20 13  1  0
 21 19  1  0
 22 21  2  0
 23 21  1  0
 24 23  1  0
 25 26  1  0
 24 25  1  6
 26 27  2  0
 27 28  1  0
 29 28  1  0
 30 29  2  0
 31 30  1  0
 32 33  1  0
 32 31  2  0
 33 34  2  0
 34 26  1  0
 34 29  1  0
 35 24  1  0
 35 36  1  0
 37 35  2  0
M  END
$$$$
