WLW.pdb
     RDKit          3D

 37 40  0  0  1  0  0  0  0  0999 V2000
   27.2299  -20.9730  -14.0601 N   0  0  0  0  0  0  0  0  0  0  0  0
   26.4830  -20.0107  -13.2359 C   0  0  1  0  0  0  0  0  0  0  0  0
   25.0747  -19.9257  -13.8350 C   0  0  0  0  0  0  0  0  0  0  0  0
   25.0417  -18.9669  -14.9512 C   0  0  0  0  0  0  0  0  0  0  0  0
   26.1065  -18.2192  -15.4459 C   0  0  0  0  0  0  0  0  0  0  0  0
   25.6243  -17.4792  -16.4475 N   0  0  0  0  0  0  0  0  0  0  0  0
   24.2988  -17.7237  -16.6118 C   0  0  0  0  0  0  0  0  0  0  0  0
   23.3696  -17.2222  -17.4941 C   0  0  0  0  0  0  0  0  0  0  0  0
   22.0598  -17.6518  -17.4446 C   0  0  0  0  0  0  0  0  0  0  0  0
   21.6936  -18.5903  -16.4993 C   0  0  0  0  0  0  0  0  0  0  0  0
   22.5899  -19.1094  -15.6088 C   0  0  0  0  0  0  0  0  0  0  0  0
   23.9093  -18.6608  -15.6762 C   0  0  0  0  0  0  0  0  0  0  0  0
   26.2919  -20.5580  -11.8650 C   0  0  0  0  0  0  0  0  0  0  0  0
   26.0201  -21.7693  -11.7531 O   0  0  0  0  0  0  0  0  0  0  0  0
   27.6923  -21.0646   -6.6131 C   0  0  0  0  0  0  0  0  0  0  0  0
   26.8839  -19.8661   -7.0206 C   0  0  1  0  0  0  0  0  0  0  0  0
   27.4522  -18.6976   -6.1885 C   0  0  0  0  0  0  0  0  0  0  0  0
   27.0402  -19.4760   -8.4492 C   0  0  0  0  0  0  0  0  0  0  0  0
   26.1786  -20.2429   -9.4209 C   0  0  2  0  0  0  0  0  0  0  0  0
   26.4233  -19.7003  -10.7484 N   0  0  0  0  0  0  0  0  0  0  0  0
   24.7457  -20.2283   -9.1117 C   0  0  0  0  0  0  0  0  0  0  0  0
   24.0611  -19.2433   -9.5121 O   0  0  0  0  0  0  0  0  0  0  0  0
   24.1707  -21.3016   -8.3836 N   0  0  0  0  0  0  0  0  0  0  0  0
   22.7303  -21.3893   -8.2987 C   0  0  1  0  0  0  0  0  0  0  0  0
   22.1411  -21.8762   -9.6099 C   0  0  0  0  0  0  0  0  0  0  0  0
   20.6820  -21.9930   -9.5734 C   0  0  0  0  0  0  0  0  0  0  0  0
   19.8802  -21.3687   -8.6418 C   0  0  0  0  0  0  0  0  0  0  0  0
   18.5975  -21.6764   -8.8907 N   0  0  0  0  0  0  0  0  0  0  0  0
   18.5829  -22.4862   -9.9667 C   0  0  0  0  0  0  0  0  0  0  0  0
   17.5100  -23.0770  -10.6169 C   0  0  0  0  0  0  0  0  0  0  0  0
   17.7743  -23.8784  -11.7148 C   0  0  0  0  0  0  0  0  0  0  0  0
   19.0723  -24.0855  -12.1529 C   0  0  0  0  0  0  0  0  0  0  0  0
   20.1436  -23.5048  -11.5157 C   0  0  0  0  0  0  0  0  0  0  0  0
   19.8680  -22.7103  -10.4259 C   0  0  0  0  0  0  0  0  0  0  0  0
   22.4415  -22.4743   -7.2917 C   0  0  0  0  0  0  0  0  0  0  0  0
   21.6772  -22.2243   -6.1623 O   0  0  0  0  0  0  0  0  0  0  0  0
   22.8817  -23.6516   -7.4329 O   0  0  0  0  0  0  0  0  0  0  0  0
  2  1  1  6
  2  3  1  0
  3  4  1  0
  4  5  2  0
  5  6  1  0
  7  8  2  0
  7  6  1  0
  9  8  1  0
 10  9  2  0
 11 10  1  0
 11 12  2  0
 12  4  1  0
 12  7  1  0
 13  2  1  0
 13 14  2  0
 16 18  1  0
 16 17  1  1
 16 15  1  0
 19 20  1  0
 19 18  1  1
 20 13  1  0
 21 19  1  0
 22 21  2  0
 23 21  1  0
 24 23  1  0
 25 26  1  0
 24 25  1  6
 26 27  2  0
 27 28  1  0
 29 28  1  0
 30 29  2  0
 31 30  1  0
 32 33  1  0
 32 31  2  0
 33 34  2  0
 34 26  1  0
 34 29  1  0
 35 24  1  0
 35 36  1  0
 37 35  2  0
M  END
$$$$
