WLW.pdb
     RDKit          3D

 37 40  0  0  1  0  0  0  0  0999 V2000
   19.5139  -17.5032  -18.5906 N   0  0  0  0  0  0  0  0  0  0  0  0
   20.9736  -17.6780  -18.5478 C   0  0  1  0  0  0  0  0  0  0  0  0
   21.4955  -16.7180  -17.4730 C   0  0  0  0  0  0  0  0  0  0  0  0
   21.4111  -15.3236  -17.9363 C   0  0  0  0  0  0  0  0  0  0  0  0
   20.4813  -14.3647  -17.5445 C   0  0  0  0  0  0  0  0  0  0  0  0
   20.7703  -13.2498  -18.2203 N   0  0  0  0  0  0  0  0  0  0  0  0
   21.8440  -13.4575  -19.0251 C   0  0  0  0  0  0  0  0  0  0  0  0
   22.5154  -12.6344  -19.8998 C   0  0  0  0  0  0  0  0  0  0  0  0
   23.6003  -13.1081  -20.6080 C   0  0  0  0  0  0  0  0  0  0  0  0
   24.0031  -14.4172  -20.4281 C   0  0  0  0  0  0  0  0  0  0  0  0
   23.3600  -15.2613  -19.5679 C   0  0  0  0  0  0  0  0  0  0  0  0
   22.2651  -14.7617  -18.8619 C   0  0  0  0  0  0  0  0  0  0  0  0
   21.3069  -19.0404  -18.0497 C   0  0  0  0  0  0  0  0  0  0  0  0
   20.5717  -19.5376  -17.1744 O   0  0  0  0  0  0  0  0  0  0  0  0
   22.4207  -22.9718  -21.4797 C   0  0  0  0  0  0  0  0  0  0  0  0
   22.0229  -22.1095  -20.3160 C   0  0  1  0  0  0  0  0  0  0  0  0
   20.9147  -22.9012  -19.5909 C   0  0  0  0  0  0  0  0  0  0  0  0
   23.1036  -21.8915  -19.3148 C   0  0  0  0  0  0  0  0  0  0  0  0
   22.7080  -21.0698  -18.1135 C   0  0  2  0  0  0  0  0  0  0  0  0
   22.4297  -19.7192  -18.5771 N   0  0  0  0  0  0  0  0  0  0  0  0
   23.6969  -21.0523  -17.0316 C   0  0  0  0  0  0  0  0  0  0  0  0
   24.5273  -20.0989  -17.0004 O   0  0  0  0  0  0  0  0  0  0  0  0
   23.6986  -22.0872  -16.0612 N   0  0  0  0  0  0  0  0  0  0  0  0
   24.6004  -21.9821  -14.9364 C   0  0  1  0  0  0  0  0  0  0  0  0
   24.1491  -20.8908  -13.9830 C   0  0  0  0  0  0  0  0  0  0  0  0
   24.9277  -20.8555  -12.7434 C   0  0  0  0  0  0  0  0  0  0  0  0
   26.3038  -20.7885  -12.6974 C   0  0  0  0  0  0  0  0  0  0  0  0
   26.6991  -20.7664  -11.4148 N   0  0  0  0  0  0  0  0  0  0  0  0
   25.5889  -20.8187  -10.6541 C   0  0  0  0  0  0  0  0  0  0  0  0
   25.4598  -20.8229   -9.2735 C   0  0  0  0  0  0  0  0  0  0  0  0
   24.1841  -20.8849   -8.7384 C   0  0  0  0  0  0  0  0  0  0  0  0
   23.0675  -20.9413   -9.5567 C   0  0  0  0  0  0  0  0  0  0  0  0
   23.1839  -20.9378  -10.9268 C   0  0  0  0  0  0  0  0  0  0  0  0
   24.4570  -20.8756  -11.4466 C   0  0  0  0  0  0  0  0  0  0  0  0
   24.4614  -23.2757  -14.1736 C   0  0  0  0  0  0  0  0  0  0  0  0
   25.5382  -23.8367  -13.5041 O   0  0  0  0  0  0  0  0  0  0  0  0
   23.3638  -23.9010  -14.1124 O   0  0  0  0  0  0  0  0  0  0  0  0
  2  1  1  1
  2  3  1  0
  3  4  1  0
  4  5  2  0
  5  6  1  0
  7  8  2  0
  7  6  1  0
  9  8  1  0
 10  9  2  0
 11 10  1  0
 11 12  2  0
 12  4  1  0
 12  7  1  0
 13  2  1  0
 13 14  2  0
 16 18  1  0
 16 17  1  1
 16 15  1  0
 19 20  1  0
 19 18  1  6
 20 13  1  0
 21 19  1  0
 22 21  2  0
 23 21  1  0
 24 23  1  0
 25 26  1  0
 24 25  1  1
 26 27  2  0
 27 28  1  0
 29 28  1  0
 30 29  2  0
 31 30  1  0
 32 33  1  0
 32 31  2  0
 33 34  2  0
 34 26  1  0
 34 29  1  0
 35 24  1  0
 35 36  1  0
 37 35  2  0
M  END
$$$$
