WLW.pdb
     RDKit          3D

 37 40  0  0  1  0  0  0  0  0999 V2000
   26.4717  -19.2132  -12.7949 N   0  0  0  0  0  0  0  0  0  0  0  0
   27.0956  -20.5337  -12.9685 C   0  0  1  0  0  0  0  0  0  0  0  0
   26.4121  -21.4726  -11.9682 C   0  0  0  0  0  0  0  0  0  0  0  0
   26.5902  -20.9839  -10.5913 C   0  0  0  0  0  0  0  0  0  0  0  0
   25.5894  -20.6221   -9.6941 C   0  0  0  0  0  0  0  0  0  0  0  0
   26.2008  -20.2306   -8.5733 N   0  0  0  0  0  0  0  0  0  0  0  0
   27.5473  -20.3278   -8.7182 C   0  0  0  0  0  0  0  0  0  0  0  0
   28.5904  -20.0503   -7.8648 C   0  0  0  0  0  0  0  0  0  0  0  0
   29.8939  -20.2437   -8.2726 C   0  0  0  0  0  0  0  0  0  0  0  0
   30.1380  -20.7186   -9.5468 C   0  0  0  0  0  0  0  0  0  0  0  0
   29.1267  -21.0047  -10.4193 C   0  0  0  0  0  0  0  0  0  0  0  0
   27.8160  -20.8016   -9.9865 C   0  0  0  0  0  0  0  0  0  0  0  0
   26.7589  -21.0813  -14.3109 C   0  0  0  0  0  0  0  0  0  0  0  0
   25.8788  -20.4992  -14.9745 O   0  0  0  0  0  0  0  0  0  0  0  0
   30.8334  -23.8531  -16.7930 C   0  0  0  0  0  0  0  0  0  0  0  0
   29.6884  -22.9071  -16.5696 C   0  0  1  0  0  0  0  0  0  0  0  0
   29.6984  -21.9693  -17.7948 C   0  0  0  0  0  0  0  0  0  0  0  0
   28.3485  -23.5568  -16.5521 C   0  0  0  0  0  0  0  0  0  0  0  0
   27.2049  -22.6569  -16.1560 C   0  0  2  0  0  0  0  0  0  0  0  0
   27.4380  -22.2271  -14.7858 N   0  0  0  0  0  0  0  0  0  0  0  0
   25.8760  -23.2609  -16.2901 C   0  0  0  0  0  0  0  0  0  0  0  0
   25.3793  -23.3537  -17.4495 O   0  0  0  0  0  0  0  0  0  0  0  0
   25.1905  -23.7199  -15.1360 N   0  0  0  0  0  0  0  0  0  0  0  0
   23.8410  -24.2170  -15.2825 C   0  0  1  0  0  0  0  0  0  0  0  0
   23.2218  -24.5048  -13.9270 C   0  0  0  0  0  0  0  0  0  0  0  0
   21.8099  -24.8835  -14.0114 C   0  0  0  0  0  0  0  0  0  0  0  0
   20.7909  -24.2136  -13.3685 C   0  0  0  0  0  0  0  0  0  0  0  0
   19.6235  -24.8103  -13.6571 N   0  0  0  0  0  0  0  0  0  0  0  0
   19.8960  -25.8466  -14.4730 C   0  0  0  0  0  0  0  0  0  0  0  0
   19.0374  -26.7709  -15.0486 C   0  0  0  0  0  0  0  0  0  0  0  0
   19.5841  -27.7517  -15.8589 C   0  0  0  0  0  0  0  0  0  0  0  0
   20.9491  -27.8100  -16.0892 C   0  0  0  0  0  0  0  0  0  0  0  0
   21.8095  -26.8987  -15.5235 C   0  0  0  0  0  0  0  0  0  0  0  0
   21.2541  -25.9286  -14.7203 C   0  0  0  0  0  0  0  0  0  0  0  0
   23.0423  -23.0776  -15.8642 C   0  0  0  0  0  0  0  0  0  0  0  0
   22.0821  -23.2954  -16.8404 O   0  0  0  0  0  0  0  0  0  0  0  0
   23.2130  -21.8818  -15.4894 O   0  0  0  0  0  0  0  0  0  0  0  0
  2  1  1  6
  2  3  1  0
  3  4  1  0
  4  5  2  0
  5  6  1  0
  7  8  2  0
  7  6  1  0
  9  8  1  0
 10  9  2  0
 11 10  1  0
 11 12  2  0
 12  4  1  0
 12  7  1  0
 13  2  1  0
 13 14  2  0
 16 18  1  0
 16 17  1  6
 16 15  1  0
 19 20  1  0
 19 18  1  1
 20 13  1  0
 21 19  1  0
 22 21  2  0
 23 21  1  0
 24 23  1  0
 25 26  1  0
 24 25  1  1
 26 27  2  0
 27 28  1  0
 29 28  1  0
 30 29  2  0
 31 30  1  0
 32 33  1  0
 32 31  2  0
 33 34  2  0
 34 26  1  0
 34 29  1  0
 35 24  1  0
 35 36  1  0
 37 35  2  0
M  END
$$$$
