IYF.pdb
     RDKit          3D

 32 33  0  0  1  0  0  0  0  0999 V2000
    7.2367  -12.5506   18.8223 C   0  0  0  0  0  0  0  0  0  0  0  0
    7.9300  -13.8096   19.2089 C   0  0  0  0  0  0  0  0  0  0  0  0
    7.5621  -14.3627   20.5342 C   0  0  2  0  0  0  0  0  0  0  0  0
    7.6532  -13.2922   21.6002 C   0  0  0  0  0  0  0  0  0  0  0  0
    8.2736  -15.6055   20.9415 C   0  0  2  0  0  0  0  0  0  0  0  0
    8.3397  -16.6293   19.9572 N   0  0  0  0  0  0  0  0  0  0  0  0
    7.7460  -16.1646   22.2116 C   0  0  0  0  0  0  0  0  0  0  0  0
    7.2383  -15.3901   23.0498 O   0  0  0  0  0  0  0  0  0  0  0  0
    6.6821  -21.7949   28.8901 O   0  0  0  0  0  0  0  0  0  0  0  0
    6.8147  -21.2257   27.6511 C   0  0  0  0  0  0  0  0  0  0  0  0
    7.1017  -22.0097   26.5516 C   0  0  0  0  0  0  0  0  0  0  0  0
    7.2388  -21.4592   25.2998 C   0  0  0  0  0  0  0  0  0  0  0  0
    7.0791  -20.0792   25.1706 C   0  0  0  0  0  0  0  0  0  0  0  0
    7.2490  -19.5127   23.8167 C   0  0  0  0  0  0  0  0  0  0  0  0
    7.3706  -18.0207   23.8023 C   0  0  2  0  0  0  0  0  0  0  0  0
    7.8102  -17.5476   22.4818 N   0  0  0  0  0  0  0  0  0  0  0  0
    8.3169  -17.5720   24.8376 C   0  0  0  0  0  0  0  0  0  0  0  0
    8.9728  -18.3583   25.5567 O   0  0  0  0  0  0  0  0  0  0  0  0
    6.7941  -19.2924   26.2576 C   0  0  0  0  0  0  0  0  0  0  0  0
    6.6576  -19.8507   27.5110 C   0  0  0  0  0  0  0  0  0  0  0  0
    8.4970  -16.1688   25.0329 N   0  0  0  0  0  0  0  0  0  0  0  0
    9.6285  -15.7360   25.8287 C   0  0  1  0  0  0  0  0  0  0  0  0
    9.6655  -14.2276   25.7980 C   0  0  0  0  0  0  0  0  0  0  0  0
    8.4228  -13.6007   26.2818 C   0  0  0  0  0  0  0  0  0  0  0  0
    7.2258  -13.6776   25.5754 C   0  0  0  0  0  0  0  0  0  0  0  0
    6.0741  -13.0896   26.0509 C   0  0  0  0  0  0  0  0  0  0  0  0
    6.1403  -12.4138   27.2620 C   0  0  0  0  0  0  0  0  0  0  0  0
    7.3146  -12.3242   27.9800 C   0  0  0  0  0  0  0  0  0  0  0  0
    8.4597  -12.9188   27.4900 C   0  0  0  0  0  0  0  0  0  0  0  0
    9.4771  -16.2968   27.1748 C   0  0  0  0  0  0  0  0  0  0  0  0
   10.3301  -16.0188   28.0536 O   0  0  0  0  0  0  0  0  0  0  0  0
    8.4278  -17.1320   27.5419 O   0  0  0  0  0  0  0  0  0  0  0  0
  2  1  1  0
  3  2  1  0
  3  4  1  1
  5  6  1  6
  5  3  1  0
  7  5  1  0
  8  7  2  0
 10 11  2  0
 10  9  1  0
 12 11  1  0
 13 12  2  0
 14 13  1  0
 15 14  1  6
 15 16  1  0
 16  7  1  0
 17 21  1  0
 17 15  1  0
 18 17  2  0
 19 13  1  0
 19 20  2  0
 20 10  1  0
 22 23  1  1
 22 21  1  0
 23 24  1  0
 24 29  1  0
 25 24  2  0
 25 26  1  0
 26 27  2  0
 27 28  1  0
 29 28  2  0
 30 22  1  0
 30 32  1  0
 31 30  2  0
M  END
$$$$
