IYF.pdb
     RDKit          3D

 32 33  0  0  1  0  0  0  0  0999 V2000
    7.7354  -13.1411   18.9654 C   0  0  0  0  0  0  0  0  0  0  0  0
    8.9365  -13.9700   19.2576 C   0  0  0  0  0  0  0  0  0  0  0  0
    8.9510  -14.6317   20.5841 C   0  0  2  0  0  0  0  0  0  0  0  0
    8.7055  -13.6217   21.6841 C   0  0  0  0  0  0  0  0  0  0  0  0
   10.1377  -15.4828   20.8744 C   0  0  2  0  0  0  0  0  0  0  0  0
   10.4317  -16.4822   19.9070 N   0  0  0  0  0  0  0  0  0  0  0  0
   10.0726  -16.0961   22.2248 C   0  0  0  0  0  0  0  0  0  0  0  0
   10.3723  -17.3014   22.3579 O   0  0  0  0  0  0  0  0  0  0  0  0
   12.0967  -17.6888   30.3512 O   0  0  0  0  0  0  0  0  0  0  0  0
   11.8660  -17.3404   29.0465 C   0  0  0  0  0  0  0  0  0  0  0  0
   12.2729  -18.1708   28.0215 C   0  0  0  0  0  0  0  0  0  0  0  0
   12.0513  -17.8405   26.7059 C   0  0  0  0  0  0  0  0  0  0  0  0
   11.4006  -16.6367   26.4340 C   0  0  0  0  0  0  0  0  0  0  0  0
   11.1912  -16.2993   25.0109 C   0  0  0  0  0  0  0  0  0  0  0  0
    9.7697  -15.9700   24.6762 C   0  0  2  0  0  0  0  0  0  0  0  0
    9.6800  -15.3417   23.3503 N   0  0  0  0  0  0  0  0  0  0  0  0
    9.1951  -15.0762   25.6958 C   0  0  0  0  0  0  0  0  0  0  0  0
    9.6147  -13.9168   25.9087 O   0  0  0  0  0  0  0  0  0  0  0  0
   10.9931  -15.8052   27.4461 C   0  0  0  0  0  0  0  0  0  0  0  0
   11.2182  -16.1423   28.7641 C   0  0  0  0  0  0  0  0  0  0  0  0
    8.1037  -15.5545   26.4830 N   0  0  0  0  0  0  0  0  0  0  0  0
    6.8964  -15.9595   25.7906 C   0  0  1  0  0  0  0  0  0  0  0  0
    6.5870  -14.9120   24.7492 C   0  0  0  0  0  0  0  0  0  0  0  0
    6.3678  -13.5693   25.3154 C   0  0  0  0  0  0  0  0  0  0  0  0
    5.6273  -13.3620   26.4757 C   0  0  0  0  0  0  0  0  0  0  0  0
    5.4415  -12.0977   26.9910 C   0  0  0  0  0  0  0  0  0  0  0  0
    6.0168  -11.0289   26.3168 C   0  0  0  0  0  0  0  0  0  0  0  0
    6.7546  -11.2093   25.1655 C   0  0  0  0  0  0  0  0  0  0  0  0
    6.9316  -12.4822   24.6622 C   0  0  0  0  0  0  0  0  0  0  0  0
    7.1194  -17.2979   25.2355 C   0  0  0  0  0  0  0  0  0  0  0  0
    8.1167  -17.9601   25.6151 O   0  0  0  0  0  0  0  0  0  0  0  0
    6.2782  -17.8871   24.2982 O   0  0  0  0  0  0  0  0  0  0  0  0
  2  1  1  0
  3  2  1  0
  3  4  1  1
  5  6  1  6
  5  3  1  0
  7  5  1  0
  8  7  2  0
 10 11  2  0
 10  9  1  0
 12 11  1  0
 13 12  2  0
 14 13  1  0
 15 14  1  1
 15 16  1  0
 16  7  1  0
 17 21  1  0
 17 15  1  0
 18 17  2  0
 19 13  1  0
 19 20  2  0
 20 10  1  0
 22 23  1  6
 22 21  1  0
 23 24  1  0
 24 29  1  0
 25 24  2  0
 25 26  1  0
 26 27  2  0
 27 28  1  0
 29 28  2  0
 30 22  1  0
 30 32  1  0
 31 30  2  0
M  END
$$$$
