IYF.pdb
     RDKit          3D

 32 33  0  0  1  0  0  0  0  0999 V2000
    7.4205  -11.7730   20.3122 C   0  0  0  0  0  0  0  0  0  0  0  0
    7.7137  -13.1201   19.7511 C   0  0  0  0  0  0  0  0  0  0  0  0
    8.1613  -14.1386   20.7308 C   0  0  2  0  0  0  0  0  0  0  0  0
    9.3010  -13.6031   21.5705 C   0  0  0  0  0  0  0  0  0  0  0  0
    8.4737  -15.4840   20.1747 C   0  0  2  0  0  0  0  0  0  0  0  0
    7.4564  -16.0722   19.3744 N   0  0  0  0  0  0  0  0  0  0  0  0
    8.9006  -16.4414   21.2260 C   0  0  0  0  0  0  0  0  0  0  0  0
    8.0603  -17.2343   21.7008 O   0  0  0  0  0  0  0  0  0  0  0  0
   14.0145  -22.4107   24.9854 O   0  0  0  0  0  0  0  0  0  0  0  0
   13.5347  -21.3340   24.2875 C   0  0  0  0  0  0  0  0  0  0  0  0
   14.2090  -20.1296   24.3152 C   0  0  0  0  0  0  0  0  0  0  0  0
   13.7452  -19.0370   23.6222 C   0  0  0  0  0  0  0  0  0  0  0  0
   12.5684  -19.1797   22.8865 C   0  0  0  0  0  0  0  0  0  0  0  0
   12.0843  -17.9844   22.1657 C   0  0  0  0  0  0  0  0  0  0  0  0
   10.6687  -17.6215   22.4902 C   0  0  2  0  0  0  0  0  0  0  0  0
   10.2318  -16.4670   21.6919 N   0  0  0  0  0  0  0  0  0  0  0  0
   10.5310  -17.3212   23.9253 C   0  0  0  0  0  0  0  0  0  0  0  0
   10.8470  -18.1262   24.8295 O   0  0  0  0  0  0  0  0  0  0  0  0
   11.8917  -20.3726   22.8535 C   0  0  0  0  0  0  0  0  0  0  0  0
   12.3621  -21.4653   23.5508 C   0  0  0  0  0  0  0  0  0  0  0  0
   10.0106  -16.0471   24.3071 N   0  0  0  0  0  0  0  0  0  0  0  0
    9.9932  -15.7187   25.7188 C   0  0  1  0  0  0  0  0  0  0  0  0
    9.8427  -14.2223   25.8436 C   0  0  0  0  0  0  0  0  0  0  0  0
    8.4548  -13.7566   25.6751 C   0  0  0  0  0  0  0  0  0  0  0  0
    7.9707  -13.2824   24.4592 C   0  0  0  0  0  0  0  0  0  0  0  0
    6.6667  -12.8588   24.3232 C   0  0  0  0  0  0  0  0  0  0  0  0
    5.8431  -12.9183   25.4394 C   0  0  0  0  0  0  0  0  0  0  0  0
    6.2999  -13.3843   26.6546 C   0  0  0  0  0  0  0  0  0  0  0  0
    7.6089  -13.8050   26.7744 C   0  0  0  0  0  0  0  0  0  0  0  0
    8.9073  -16.4770   26.3473 C   0  0  0  0  0  0  0  0  0  0  0  0
    8.7525  -16.4080   27.5918 O   0  0  0  0  0  0  0  0  0  0  0  0
    8.0242  -17.2812   25.6356 O   0  0  0  0  0  0  0  0  0  0  0  0
  2  1  1  0
  3  2  1  0
  3  4  1  6
  5  6  1  1
  5  3  1  0
  7  5  1  0
  8  7  2  0
 10 11  2  0
 10  9  1  0
 12 11  1  0
 13 12  2  0
 14 13  1  0
 15 14  1  1
 15 16  1  0
 16  7  1  0
 17 21  1  0
 17 15  1  0
 18 17  2  0
 19 13  1  0
 19 20  2  0
 20 10  1  0
 22 23  1  6
 22 21  1  0
 23 24  1  0
 24 29  1  0
 25 24  2  0
 25 26  1  0
 26 27  2  0
 27 28  1  0
 29 28  2  0
 30 22  1  0
 30 32  1  0
 31 30  2  0
M  END
$$$$
