IYF.pdb
     RDKit          3D

 32 33  0  0  1  0  0  0  0  0999 V2000
    8.1483  -19.6963   16.7388 C   0  0  0  0  0  0  0  0  0  0  0  0
    7.8945  -19.6151   18.2031 C   0  0  0  0  0  0  0  0  0  0  0  0
    8.6493  -18.5645   18.9269 C   0  0  2  0  0  0  0  0  0  0  0  0
   10.1335  -18.7002   18.6637 C   0  0  0  0  0  0  0  0  0  0  0  0
    8.3586  -18.4390   20.3818 C   0  0  2  0  0  0  0  0  0  0  0  0
    6.9829  -18.3571   20.7312 N   0  0  0  0  0  0  0  0  0  0  0  0
    9.1027  -17.3179   21.0090 C   0  0  0  0  0  0  0  0  0  0  0  0
   10.3466  -17.2813   20.9020 O   0  0  0  0  0  0  0  0  0  0  0  0
    7.6311  -13.3645   16.3910 O   0  0  0  0  0  0  0  0  0  0  0  0
    7.8523  -13.4887   17.7372 C   0  0  0  0  0  0  0  0  0  0  0  0
    9.0788  -13.1534   18.2753 C   0  0  0  0  0  0  0  0  0  0  0  0
    9.3218  -13.2702   19.6229 C   0  0  0  0  0  0  0  0  0  0  0  0
    8.2896  -13.7393   20.4359 C   0  0  0  0  0  0  0  0  0  0  0  0
    8.5844  -13.8710   21.8776 C   0  0  0  0  0  0  0  0  0  0  0  0
    9.2172  -15.1776   22.2429 C   0  0  2  0  0  0  0  0  0  0  0  0
    8.4287  -16.3018   21.7183 N   0  0  0  0  0  0  0  0  0  0  0  0
    9.3481  -15.2945   23.7051 C   0  0  0  0  0  0  0  0  0  0  0  0
   10.2185  -14.6874   24.3680 O   0  0  0  0  0  0  0  0  0  0  0  0
    7.0679  -14.0751   19.9099 C   0  0  0  0  0  0  0  0  0  0  0  0
    6.8301  -13.9556   18.5569 C   0  0  0  0  0  0  0  0  0  0  0  0
    8.4368  -16.1431   24.4043 N   0  0  0  0  0  0  0  0  0  0  0  0
    8.4333  -16.0850   25.8525 C   0  0  1  0  0  0  0  0  0  0  0  0
    7.1225  -15.4766   26.2877 C   0  0  0  0  0  0  0  0  0  0  0  0
    7.1954  -14.0209   26.5051 C   0  0  0  0  0  0  0  0  0  0  0  0
    8.1643  -13.2251   25.9006 C   0  0  0  0  0  0  0  0  0  0  0  0
    8.2086  -11.8645   26.1128 C   0  0  0  0  0  0  0  0  0  0  0  0
    7.2540  -11.3050   26.9516 C   0  0  0  0  0  0  0  0  0  0  0  0
    6.2842  -12.0729   27.5617 C   0  0  0  0  0  0  0  0  0  0  0  0
    6.2534  -13.4346   27.3388 C   0  0  0  0  0  0  0  0  0  0  0  0
    8.6535  -17.4421   26.3613 C   0  0  0  0  0  0  0  0  0  0  0  0
    8.6588  -18.4052   25.5552 O   0  0  0  0  0  0  0  0  0  0  0  0
    8.8601  -17.7308   27.7056 O   0  0  0  0  0  0  0  0  0  0  0  0
  2  1  1  0
  3  2  1  0
  3  4  1  1
  5  6  1  6
  5  3  1  0
  7  5  1  0
  8  7  2  0
 10 11  2  0
 10  9  1  0
 12 11  1  0
 13 12  2  0
 14 13  1  0
 15 14  1  1
 15 16  1  0
 16  7  1  0
 17 21  1  0
 17 15  1  0
 18 17  2  0
 19 13  1  0
 19 20  2  0
 20 10  1  0
 22 23  1  1
 22 21  1  0
 23 24  1  0
 24 29  1  0
 25 24  2  0
 25 26  1  0
 26 27  2  0
 27 28  1  0
 29 28  2  0
 30 22  1  0
 30 32  1  0
 31 30  2  0
M  END
$$$$
