IYF.pdb
     RDKit          3D

 32 33  0  0  1  0  0  0  0  0999 V2000
    8.2580  -20.0374   26.7921 C   0  0  0  0  0  0  0  0  0  0  0  0
    8.2180  -20.0488   25.3043 C   0  0  0  0  0  0  0  0  0  0  0  0
    6.8697  -19.9353   24.6987 C   0  0  2  0  0  0  0  0  0  0  0  0
    5.9050  -20.8905   25.3678 C   0  0  0  0  0  0  0  0  0  0  0  0
    6.8108  -20.0446   23.2150 C   0  0  2  0  0  0  0  0  0  0  0  0
    7.2717  -21.2733   22.6682 N   0  0  0  0  0  0  0  0  0  0  0  0
    7.4899  -18.9097   22.5405 C   0  0  0  0  0  0  0  0  0  0  0  0
    8.6059  -19.0989   22.0122 O   0  0  0  0  0  0  0  0  0  0  0  0
    8.5027  -11.8972   17.5109 O   0  0  0  0  0  0  0  0  0  0  0  0
    8.0191  -12.7933   18.4272 C   0  0  0  0  0  0  0  0  0  0  0  0
    7.7957  -14.1069   18.0659 C   0  0  0  0  0  0  0  0  0  0  0  0
    7.3111  -15.0221   18.9695 C   0  0  0  0  0  0  0  0  0  0  0  0
    7.0499  -14.5845   20.2682 C   0  0  0  0  0  0  0  0  0  0  0  0
    6.5136  -15.5855   21.2133 C   0  0  0  0  0  0  0  0  0  0  0  0
    7.5218  -16.6061   21.6412 C   0  0  2  0  0  0  0  0  0  0  0  0
    6.8963  -17.6311   22.4890 N   0  0  0  0  0  0  0  0  0  0  0  0
    8.6298  -15.9616   22.3663 C   0  0  0  0  0  0  0  0  0  0  0  0
    9.3488  -15.0669   21.8684 O   0  0  0  0  0  0  0  0  0  0  0  0
    7.2685  -13.2811   20.6360 C   0  0  0  0  0  0  0  0  0  0  0  0
    7.7550  -12.3675   19.7249 C   0  0  0  0  0  0  0  0  0  0  0  0
    8.8994  -16.3772   23.7058 N   0  0  0  0  0  0  0  0  0  0  0  0
    8.9299  -15.3591   24.7370 C   0  0  1  0  0  0  0  0  0  0  0  0
    7.6779  -14.5272   24.6026 C   0  0  0  0  0  0  0  0  0  0  0  0
    7.5595  -13.4763   25.6288 C   0  0  0  0  0  0  0  0  0  0  0  0
    8.5821  -12.5675   25.8858 C   0  0  0  0  0  0  0  0  0  0  0  0
    8.4461  -11.5883   26.8455 C   0  0  0  0  0  0  0  0  0  0  0  0
    7.2533  -11.5322   27.5539 C   0  0  0  0  0  0  0  0  0  0  0  0
    6.2258  -12.4215   27.3171 C   0  0  0  0  0  0  0  0  0  0  0  0
    6.3777  -13.3966   26.3522 C   0  0  0  0  0  0  0  0  0  0  0  0
    9.0574  -16.0310   26.0338 C   0  0  0  0  0  0  0  0  0  0  0  0
    8.5389  -17.1641   26.1902 O   0  0  0  0  0  0  0  0  0  0  0  0
    9.7294  -15.4788   27.1185 O   0  0  0  0  0  0  0  0  0  0  0  0
  2  1  1  0
  3  2  1  0
  3  4  1  1
  5  6  1  1
  5  3  1  0
  7  5  1  0
  8  7  2  0
 10 11  2  0
 10  9  1  0
 12 11  1  0
 13 12  2  0
 14 13  1  0
 15 14  1  1
 15 16  1  0
 16  7  1  0
 17 21  1  0
 17 15  1  0
 18 17  2  0
 19 13  1  0
 19 20  2  0
 20 10  1  0
 22 23  1  1
 22 21  1  0
 23 24  1  0
 24 29  1  0
 25 24  2  0
 25 26  1  0
 26 27  2  0
 27 28  1  0
 29 28  2  0
 30 22  1  0
 30 32  1  0
 31 30  2  0
M  END
$$$$
