IYF.pdb
     RDKit          3D

 32 33  0  0  1  0  0  0  0  0999 V2000
    7.5406  -11.9205   19.5333 C   0  0  0  0  0  0  0  0  0  0  0  0
    7.8022  -13.3605   19.2627 C   0  0  0  0  0  0  0  0  0  0  0  0
    8.1104  -14.1902   20.4519 C   0  0  2  0  0  0  0  0  0  0  0  0
    9.3126  -13.6383   21.1874 C   0  0  0  0  0  0  0  0  0  0  0  0
    8.2389  -15.6536   20.2094 C   0  0  2  0  0  0  0  0  0  0  0  0
    7.1503  -16.2640   19.5286 N   0  0  0  0  0  0  0  0  0  0  0  0
    8.5365  -16.4056   21.4544 C   0  0  0  0  0  0  0  0  0  0  0  0
    7.5878  -16.8230   22.1515 O   0  0  0  0  0  0  0  0  0  0  0  0
   12.0208  -21.3634   27.6518 O   0  0  0  0  0  0  0  0  0  0  0  0
   11.7827  -20.6550   26.5037 C   0  0  0  0  0  0  0  0  0  0  0  0
   10.6362  -20.8837   25.7693 C   0  0  0  0  0  0  0  0  0  0  0  0
   10.3779  -20.1841   24.6149 C   0  0  0  0  0  0  0  0  0  0  0  0
   11.3110  -19.2319   24.2038 C   0  0  0  0  0  0  0  0  0  0  0  0
   11.0157  -18.5074   22.9505 C   0  0  0  0  0  0  0  0  0  0  0  0
   10.0896  -17.3456   23.1339 C   0  0  2  0  0  0  0  0  0  0  0  0
    9.8657  -16.6526   21.8571 N   0  0  0  0  0  0  0  0  0  0  0  0
   10.6350  -16.4052   24.1273 C   0  0  0  0  0  0  0  0  0  0  0  0
   11.6016  -15.6451   23.8961 O   0  0  0  0  0  0  0  0  0  0  0  0
   12.4530  -18.9982   24.9270 C   0  0  0  0  0  0  0  0  0  0  0  0
   12.7066  -19.7032   26.0847 C   0  0  0  0  0  0  0  0  0  0  0  0
   10.0318  -16.3563   25.4210 N   0  0  0  0  0  0  0  0  0  0  0  0
   10.6563  -15.5210   26.4276 C   0  0  1  0  0  0  0  0  0  0  0  0
   10.3293  -14.0837   26.1036 C   0  0  0  0  0  0  0  0  0  0  0  0
    8.9044  -13.7524   26.2805 C   0  0  0  0  0  0  0  0  0  0  0  0
    8.4447  -12.9871   27.3485 C   0  0  0  0  0  0  0  0  0  0  0  0
    7.1081  -12.6836   27.4896 C   0  0  0  0  0  0  0  0  0  0  0  0
    6.2264  -13.1651   26.5312 C   0  0  0  0  0  0  0  0  0  0  0  0
    6.6582  -13.9253   25.4643 C   0  0  0  0  0  0  0  0  0  0  0  0
    8.0004  -14.2205   25.3371 C   0  0  0  0  0  0  0  0  0  0  0  0
   10.1727  -15.9560   27.7414 C   0  0  0  0  0  0  0  0  0  0  0  0
    9.3297  -16.8846   27.8072 O   0  0  0  0  0  0  0  0  0  0  0  0
   10.5992  -15.3920   28.9386 O   0  0  0  0  0  0  0  0  0  0  0  0
  2  1  1  0
  3  2  1  0
  3  4  1  6
  5  6  1  1
  5  3  1  0
  7  5  1  0
  8  7  2  0
 10 11  2  0
 10  9  1  0
 12 11  1  0
 13 12  2  0
 14 13  1  0
 15 14  1  6
 15 16  1  0
 16  7  1  0
 17 21  1  0
 17 15  1  0
 18 17  2  0
 19 13  1  0
 19 20  2  0
 20 10  1  0
 22 23  1  6
 22 21  1  0
 23 24  1  0
 24 29  1  0
 25 24  2  0
 25 26  1  0
 26 27  2  0
 27 28  1  0
 29 28  2  0
 30 22  1  0
 30 32  1  0
 31 30  2  0
M  END
$$$$
