IYF.pdb
     RDKit          3D

 32 33  0  0  1  0  0  0  0  0999 V2000
    6.8311  -19.0453   26.3600 C   0  0  0  0  0  0  0  0  0  0  0  0
    7.3454  -19.1239   24.9655 C   0  0  0  0  0  0  0  0  0  0  0  0
    6.4975  -18.4818   23.9328 C   0  0  2  0  0  0  0  0  0  0  0  0
    5.0919  -19.0413   23.9767 C   0  0  0  0  0  0  0  0  0  0  0  0
    7.0455  -18.4811   22.5484 C   0  0  2  0  0  0  0  0  0  0  0  0
    7.2093  -19.7599   21.9491 N   0  0  0  0  0  0  0  0  0  0  0  0
    8.3121  -17.7135   22.4457 C   0  0  0  0  0  0  0  0  0  0  0  0
    9.3644  -18.3177   22.1497 O   0  0  0  0  0  0  0  0  0  0  0  0
    7.5307  -13.8307   16.6539 O   0  0  0  0  0  0  0  0  0  0  0  0
    7.9754  -13.9316   17.9456 C   0  0  0  0  0  0  0  0  0  0  0  0
    7.1974  -13.4690   18.9882 C   0  0  0  0  0  0  0  0  0  0  0  0
    7.6243  -13.5606   20.2913 C   0  0  0  0  0  0  0  0  0  0  0  0
    8.8719  -14.1368   20.5324 C   0  0  0  0  0  0  0  0  0  0  0  0
    9.3126  -14.2065   21.9409 C   0  0  0  0  0  0  0  0  0  0  0  0
    9.5946  -15.5991   22.4122 C   0  0  2  0  0  0  0  0  0  0  0  0
    8.3423  -16.3222   22.6763 N   0  0  0  0  0  0  0  0  0  0  0  0
   10.4254  -15.5721   23.6278 C   0  0  0  0  0  0  0  0  0  0  0  0
   11.6587  -15.3620   23.6130 O   0  0  0  0  0  0  0  0  0  0  0  0
    9.6518  -14.5988   19.5027 C   0  0  0  0  0  0  0  0  0  0  0  0
    9.2178  -14.5042   18.1973 C   0  0  0  0  0  0  0  0  0  0  0  0
    9.7938  -15.7969   24.8889 N   0  0  0  0  0  0  0  0  0  0  0  0
   10.5921  -15.6227   26.0861 C   0  0  1  0  0  0  0  0  0  0  0  0
   10.5465  -14.1624   26.4640 C   0  0  0  0  0  0  0  0  0  0  0  0
    9.1778  -13.6431   26.6332 C   0  0  0  0  0  0  0  0  0  0  0  0
    8.7799  -12.9493   27.7725 C   0  0  0  0  0  0  0  0  0  0  0  0
    7.4964  -12.4665   27.9057 C   0  0  0  0  0  0  0  0  0  0  0  0
    6.6047  -12.6922   26.8656 C   0  0  0  0  0  0  0  0  0  0  0  0
    6.9756  -13.3768   25.7270 C   0  0  0  0  0  0  0  0  0  0  0  0
    8.2652  -13.8541   25.6089 C   0  0  0  0  0  0  0  0  0  0  0  0
   10.0617  -16.5179   27.1189 C   0  0  0  0  0  0  0  0  0  0  0  0
   10.5551  -16.4816   28.2733 O   0  0  0  0  0  0  0  0  0  0  0  0
    9.0278  -17.4195   26.8923 O   0  0  0  0  0  0  0  0  0  0  0  0
  2  1  1  0
  3  2  1  0
  3  4  1  6
  5  6  1  1
  5  3  1  0
  7  5  1  0
  8  7  2  0
 10 11  2  0
 10  9  1  0
 12 11  1  0
 13 12  2  0
 14 13  1  0
 15 14  1  1
 15 16  1  0
 16  7  1  0
 17 21  1  0
 17 15  1  0
 18 17  2  0
 19 13  1  0
 19 20  2  0
 20 10  1  0
 22 23  1  1
 22 21  1  0
 23 24  1  0
 24 29  1  0
 25 24  2  0
 25 26  1  0
 26 27  2  0
 27 28  1  0
 29 28  2  0
 30 22  1  0
 30 32  1  0
 31 30  2  0
M  END
$$$$
