IYF.pdb
     RDKit          3D

 32 33  0  0  1  0  0  0  0  0999 V2000
    6.5157  -19.6463   27.7727 C   0  0  0  0  0  0  0  0  0  0  0  0
    7.0765  -19.4147   26.4136 C   0  0  0  0  0  0  0  0  0  0  0  0
    7.1200  -20.6024   25.5276 C   0  0  2  0  0  0  0  0  0  0  0  0
    8.5276  -21.1524   25.4455 C   0  0  0  0  0  0  0  0  0  0  0  0
    6.5181  -20.4296   24.1768 C   0  0  2  0  0  0  0  0  0  0  0  0
    6.4286  -21.6077   23.3859 N   0  0  0  0  0  0  0  0  0  0  0  0
    7.1818  -19.3531   23.3992 C   0  0  0  0  0  0  0  0  0  0  0  0
    8.1658  -19.6400   22.6853 O   0  0  0  0  0  0  0  0  0  0  0  0
    8.4572  -12.1778   18.6477 O   0  0  0  0  0  0  0  0  0  0  0  0
    7.9480  -13.0993   19.5241 C   0  0  0  0  0  0  0  0  0  0  0  0
    7.8773  -12.8129   20.8728 C   0  0  0  0  0  0  0  0  0  0  0  0
    7.3700  -13.7229   21.7691 C   0  0  0  0  0  0  0  0  0  0  0  0
    6.9263  -14.9501   21.2756 C   0  0  0  0  0  0  0  0  0  0  0  0
    6.4019  -15.9152   22.2637 C   0  0  0  0  0  0  0  0  0  0  0  0
    7.3544  -17.0258   22.5804 C   0  0  2  0  0  0  0  0  0  0  0  0
    6.7195  -18.0216   23.4557 N   0  0  0  0  0  0  0  0  0  0  0  0
    8.5688  -16.4944   23.2218 C   0  0  0  0  0  0  0  0  0  0  0  0
    9.5100  -15.9712   22.5847 O   0  0  0  0  0  0  0  0  0  0  0  0
    6.9930  -15.2434   19.9372 C   0  0  0  0  0  0  0  0  0  0  0  0
    7.5029  -14.3261   19.0428 C   0  0  0  0  0  0  0  0  0  0  0  0
    8.6805  -16.5792   24.6431 N   0  0  0  0  0  0  0  0  0  0  0  0
    9.8475  -15.9875   25.2667 C   0  0  1  0  0  0  0  0  0  0  0  0
    9.7896  -14.4973   25.0359 C   0  0  0  0  0  0  0  0  0  0  0  0
    8.7719  -13.8162   25.8557 C   0  0  0  0  0  0  0  0  0  0  0  0
    9.1018  -13.0660   26.9808 C   0  0  0  0  0  0  0  0  0  0  0  0
    8.1336  -12.4316   27.7282 C   0  0  0  0  0  0  0  0  0  0  0  0
    6.8111  -12.5620   27.3259 C   0  0  0  0  0  0  0  0  0  0  0  0
    6.4598  -13.2999   26.2147 C   0  0  0  0  0  0  0  0  0  0  0  0
    7.4416  -13.9292   25.4766 C   0  0  0  0  0  0  0  0  0  0  0  0
    9.8466  -16.3674   26.6827 C   0  0  0  0  0  0  0  0  0  0  0  0
   10.7871  -15.9825   27.4207 O   0  0  0  0  0  0  0  0  0  0  0  0
    8.8498  -17.1411   27.2665 O   0  0  0  0  0  0  0  0  0  0  0  0
  2  1  1  0
  3  2  1  0
  3  4  1  6
  5  6  1  6
  5  3  1  0
  7  5  1  0
  8  7  2  0
 10 11  2  0
 10  9  1  0
 12 11  1  0
 13 12  2  0
 14 13  1  0
 15 14  1  1
 15 16  1  0
 16  7  1  0
 17 21  1  0
 17 15  1  0
 18 17  2  0
 19 13  1  0
 19 20  2  0
 20 10  1  0
 22 23  1  1
 22 21  1  0
 23 24  1  0
 24 29  1  0
 25 24  2  0
 25 26  1  0
 26 27  2  0
 27 28  1  0
 29 28  2  0
 30 22  1  0
 30 32  1  0
 31 30  2  0
M  END
$$$$
