IYF.pdb
     RDKit          3D

 32 33  0  0  1  0  0  0  0  0999 V2000
    7.9263  -11.5256   19.0387 C   0  0  0  0  0  0  0  0  0  0  0  0
    7.9659  -13.0109   18.9525 C   0  0  0  0  0  0  0  0  0  0  0  0
    7.5453  -13.7352   20.1756 C   0  0  2  0  0  0  0  0  0  0  0  0
    8.3973  -13.3226   21.3565 C   0  0  0  0  0  0  0  0  0  0  0  0
    7.4524  -15.2164   20.0559 C   0  0  2  0  0  0  0  0  0  0  0  0
    6.6415  -15.6997   18.9929 N   0  0  0  0  0  0  0  0  0  0  0  0
    7.0433  -15.8586   21.3304 C   0  0  0  0  0  0  0  0  0  0  0  0
    5.9347  -15.5677   21.8269 O   0  0  0  0  0  0  0  0  0  0  0  0
    2.5923  -19.5932   20.1960 O   0  0  0  0  0  0  0  0  0  0  0  0
    3.6822  -19.3438   20.9876 C   0  0  0  0  0  0  0  0  0  0  0  0
    4.9584  -19.4843   20.4801 C   0  0  0  0  0  0  0  0  0  0  0  0
    6.0654  -19.2391   21.2568 C   0  0  0  0  0  0  0  0  0  0  0  0
    5.8624  -18.8423   22.5789 C   0  0  0  0  0  0  0  0  0  0  0  0
    7.0702  -18.6022   23.3953 C   0  0  0  0  0  0  0  0  0  0  0  0
    7.5473  -17.1838   23.3568 C   0  0  2  0  0  0  0  0  0  0  0  0
    7.8834  -16.7854   21.9824 N   0  0  0  0  0  0  0  0  0  0  0  0
    8.7198  -17.0118   24.2310 C   0  0  0  0  0  0  0  0  0  0  0  0
    9.8920  -16.9313   23.8009 O   0  0  0  0  0  0  0  0  0  0  0  0
    4.5981  -18.7004   23.0917 C   0  0  0  0  0  0  0  0  0  0  0  0
    3.4913  -18.9478   22.3073 C   0  0  0  0  0  0  0  0  0  0  0  0
    8.5112  -16.9326   25.6417 N   0  0  0  0  0  0  0  0  0  0  0  0
    9.6510  -16.6110   26.4773 C   0  0  1  0  0  0  0  0  0  0  0  0
   10.1445  -15.2415   26.0793 C   0  0  0  0  0  0  0  0  0  0  0  0
    9.1653  -14.1694   26.3311 C   0  0  0  0  0  0  0  0  0  0  0  0
    9.1646  -13.4223   27.5056 C   0  0  0  0  0  0  0  0  0  0  0  0
    8.2435  -12.4194   27.7163 C   0  0  0  0  0  0  0  0  0  0  0  0
    7.3100  -12.1727   26.7186 C   0  0  0  0  0  0  0  0  0  0  0  0
    7.2910  -12.8996   25.5465 C   0  0  0  0  0  0  0  0  0  0  0  0
    8.2205  -13.9009   25.3506 C   0  0  0  0  0  0  0  0  0  0  0  0
    9.2270  -16.7031   27.8777 C   0  0  0  0  0  0  0  0  0  0  0  0
    8.0198  -16.9315   28.1384 O   0  0  0  0  0  0  0  0  0  0  0  0
   10.0965  -16.5501   28.9518 O   0  0  0  0  0  0  0  0  0  0  0  0
  2  1  1  0
  3  2  1  0
  3  4  1  1
  5  6  1  6
  5  3  1  0
  7  5  1  0
  8  7  2  0
 10 11  2  0
 10  9  1  0
 12 11  1  0
 13 12  2  0
 14 13  1  0
 15 14  1  6
 15 16  1  0
 16  7  1  0
 17 21  1  0
 17 15  1  0
 18 17  2  0
 19 13  1  0
 19 20  2  0
 20 10  1  0
 22 23  1  6
 22 21  1  0
 23 24  1  0
 24 29  1  0
 25 24  2  0
 25 26  1  0
 26 27  2  0
 27 28  1  0
 29 28  2  0
 30 22  1  0
 30 32  1  0
 31 30  2  0
M  END
$$$$
