IYF.pdb
     RDKit          3D

 32 33  0  0  1  0  0  0  0  0999 V2000
    7.1395  -11.7536   20.1527 C   0  0  0  0  0  0  0  0  0  0  0  0
    7.3533  -13.1940   19.8447 C   0  0  0  0  0  0  0  0  0  0  0  0
    7.8254  -14.0278   20.9759 C   0  0  2  0  0  0  0  0  0  0  0  0
    9.0525  -13.4125   21.6132 C   0  0  0  0  0  0  0  0  0  0  0  0
    8.0261  -15.4732   20.6801 C   0  0  2  0  0  0  0  0  0  0  0  0
    6.9240  -16.1383   20.0767 N   0  0  0  0  0  0  0  0  0  0  0  0
    8.4786  -16.2332   21.8724 C   0  0  0  0  0  0  0  0  0  0  0  0
    7.6345  -16.8577   22.5490 O   0  0  0  0  0  0  0  0  0  0  0  0
   13.1286  -21.4938   26.9453 O   0  0  0  0  0  0  0  0  0  0  0  0
   12.7541  -20.5655   26.0101 C   0  0  0  0  0  0  0  0  0  0  0  0
   11.7856  -20.8707   25.0747 C   0  0  0  0  0  0  0  0  0  0  0  0
   11.3951  -19.9542   24.1280 C   0  0  0  0  0  0  0  0  0  0  0  0
   12.0076  -18.7007   24.1386 C   0  0  0  0  0  0  0  0  0  0  0  0
   11.5806  -17.7417   23.0990 C   0  0  0  0  0  0  0  0  0  0  0  0
   10.2373  -17.1343   23.3595 C   0  0  2  0  0  0  0  0  0  0  0  0
    9.8380  -16.2591   22.2481 N   0  0  0  0  0  0  0  0  0  0  0  0
   10.2536  -16.3714   24.6191 C   0  0  0  0  0  0  0  0  0  0  0  0
   10.9776  -15.3682   24.8058 O   0  0  0  0  0  0  0  0  0  0  0  0
   12.9710  -18.3888   25.0640 C   0  0  0  0  0  0  0  0  0  0  0  0
   13.3585  -19.3126   26.0116 C   0  0  0  0  0  0  0  0  0  0  0  0
    9.4007  -16.7962   25.6830 N   0  0  0  0  0  0  0  0  0  0  0  0
    9.5868  -16.1855   26.9843 C   0  0  1  0  0  0  0  0  0  0  0  0
    8.2666  -15.5904   27.4089 C   0  0  0  0  0  0  0  0  0  0  0  0
    7.8395  -14.4546   26.5728 C   0  0  0  0  0  0  0  0  0  0  0  0
    6.9321  -14.5992   25.5272 C   0  0  0  0  0  0  0  0  0  0  0  0
    6.5416  -13.5212   24.7631 C   0  0  0  0  0  0  0  0  0  0  0  0
    7.0814  -12.2785   25.0664 C   0  0  0  0  0  0  0  0  0  0  0  0
    7.9821  -12.1104   26.0975 C   0  0  0  0  0  0  0  0  0  0  0  0
    8.3631  -13.2003   26.8537 C   0  0  0  0  0  0  0  0  0  0  0  0
   10.0940  -17.2129   27.8989 C   0  0  0  0  0  0  0  0  0  0  0  0
   10.3846  -16.8936   29.0783 O   0  0  0  0  0  0  0  0  0  0  0  0
   10.2754  -18.5417   27.5318 O   0  0  0  0  0  0  0  0  0  0  0  0
  2  1  1  0
  3  2  1  0
  3  4  1  6
  5  6  1  1
  5  3  1  0
  7  5  1  0
  8  7  2  0
 10 11  2  0
 10  9  1  0
 12 11  1  0
 13 12  2  0
 14 13  1  0
 15 14  1  6
 15 16  1  0
 16  7  1  0
 17 21  1  0
 17 15  1  0
 18 17  2  0
 19 13  1  0
 19 20  2  0
 20 10  1  0
 22 23  1  1
 22 21  1  0
 23 24  1  0
 24 29  1  0
 25 24  2  0
 25 26  1  0
 26 27  2  0
 27 28  1  0
 29 28  2  0
 30 22  1  0
 30 32  1  0
 31 30  2  0
M  END
$$$$
