IYF.pdb
     RDKit          3D

 32 33  0  0  1  0  0  0  0  0999 V2000
    7.6108  -11.8325   19.4509 C   0  0  0  0  0  0  0  0  0  0  0  0
    7.7747  -13.3076   19.3380 C   0  0  0  0  0  0  0  0  0  0  0  0
    7.5447  -14.0750   20.5853 C   0  0  2  0  0  0  0  0  0  0  0  0
    8.4818  -13.6066   21.6775 C   0  0  0  0  0  0  0  0  0  0  0  0
    7.5571  -15.5577   20.4493 C   0  0  2  0  0  0  0  0  0  0  0  0
    6.6540  -16.0970   19.4928 N   0  0  0  0  0  0  0  0  0  0  0  0
    7.3743  -16.2432   21.7534 C   0  0  0  0  0  0  0  0  0  0  0  0
    6.2452  -16.2383   22.2875 O   0  0  0  0  0  0  0  0  0  0  0  0
    7.5912  -21.5182   28.5746 O   0  0  0  0  0  0  0  0  0  0  0  0
    7.8499  -20.8827   27.3889 C   0  0  0  0  0  0  0  0  0  0  0  0
    6.8161  -20.5528   26.5354 C   0  0  0  0  0  0  0  0  0  0  0  0
    7.0535  -19.9151   25.3414 C   0  0  0  0  0  0  0  0  0  0  0  0
    8.3747  -19.6089   25.0142 C   0  0  0  0  0  0  0  0  0  0  0  0
    8.6018  -18.9390   23.7171 C   0  0  0  0  0  0  0  0  0  0  0  0
    8.2173  -17.4922   23.7145 C   0  0  2  0  0  0  0  0  0  0  0  0
    8.4504  -16.8947   22.3919 N   0  0  0  0  0  0  0  0  0  0  0  0
    8.9770  -16.7565   24.7394 C   0  0  0  0  0  0  0  0  0  0  0  0
   10.1641  -16.3923   24.5857 O   0  0  0  0  0  0  0  0  0  0  0  0
    9.4083  -19.9331   25.8559 C   0  0  0  0  0  0  0  0  0  0  0  0
    9.1636  -20.5729   27.0528 C   0  0  0  0  0  0  0  0  0  0  0  0
    8.3282  -16.4415   25.9721 N   0  0  0  0  0  0  0  0  0  0  0  0
    9.0881  -15.7162   26.9707 C   0  0  1  0  0  0  0  0  0  0  0  0
    8.1158  -14.9092   27.7957 C   0  0  0  0  0  0  0  0  0  0  0  0
    7.5322  -13.7698   27.0659 C   0  0  0  0  0  0  0  0  0  0  0  0
    6.2733  -13.8296   26.4751 C   0  0  0  0  0  0  0  0  0  0  0  0
    5.7447  -12.7488   25.8037 C   0  0  0  0  0  0  0  0  0  0  0  0
    6.5070  -11.5906   25.7319 C   0  0  0  0  0  0  0  0  0  0  0  0
    7.7569  -11.5073   26.3094 C   0  0  0  0  0  0  0  0  0  0  0  0
    8.2722  -12.5988   26.9786 C   0  0  0  0  0  0  0  0  0  0  0  0
    9.8590  -16.6901   27.7495 C   0  0  0  0  0  0  0  0  0  0  0  0
   10.6118  -16.2817   28.6681 O   0  0  0  0  0  0  0  0  0  0  0  0
    9.8049  -18.0616   27.5278 O   0  0  0  0  0  0  0  0  0  0  0  0
  2  1  1  0
  3  2  1  0
  3  4  1  1
  5  6  1  6
  5  3  1  0
  7  5  1  0
  8  7  2  0
 10 11  2  0
 10  9  1  0
 12 11  1  0
 13 12  2  0
 14 13  1  0
 15 14  1  6
 15 16  1  0
 16  7  1  0
 17 21  1  0
 17 15  1  0
 18 17  2  0
 19 13  1  0
 19 20  2  0
 20 10  1  0
 22 23  1  1
 22 21  1  0
 23 24  1  0
 24 29  1  0
 25 24  2  0
 25 26  1  0
 26 27  2  0
 27 28  1  0
 29 28  2  0
 30 22  1  0
 30 32  1  0
 31 30  2  0
M  END
$$$$
