IYF.pdb
     RDKit          3D

 32 33  0  0  1  0  0  0  0  0999 V2000
    8.9121  -22.3617   21.6367 C   0  0  0  0  0  0  0  0  0  0  0  0
    8.4386  -21.1344   20.9406 C   0  0  0  0  0  0  0  0  0  0  0  0
    8.8897  -19.8502   21.5281 C   0  0  2  0  0  0  0  0  0  0  0  0
    8.6045  -19.8168   23.0140 C   0  0  0  0  0  0  0  0  0  0  0  0
    8.4058  -18.6173   20.8479 C   0  0  2  0  0  0  0  0  0  0  0  0
    8.5422  -18.5994   19.4328 N   0  0  0  0  0  0  0  0  0  0  0  0
    9.0025  -17.3863   21.4246 C   0  0  0  0  0  0  0  0  0  0  0  0
   10.2115  -17.1467   21.2220 O   0  0  0  0  0  0  0  0  0  0  0  0
    7.3308  -13.3486   16.7234 O   0  0  0  0  0  0  0  0  0  0  0  0
    7.4945  -13.5192   18.0728 C   0  0  0  0  0  0  0  0  0  0  0  0
    6.7112  -14.4247   18.7603 C   0  0  0  0  0  0  0  0  0  0  0  0
    6.8590  -14.6115   20.1139 C   0  0  0  0  0  0  0  0  0  0  0  0
    7.8273  -13.8570   20.7769 C   0  0  0  0  0  0  0  0  0  0  0  0
    7.9524  -14.0661   22.2341 C   0  0  0  0  0  0  0  0  0  0  0  0
    8.8369  -15.2169   22.6006 C   0  0  2  0  0  0  0  0  0  0  0  0
    8.2283  -16.4911   22.1920 N   0  0  0  0  0  0  0  0  0  0  0  0
    9.0953  -15.2254   24.0504 C   0  0  0  0  0  0  0  0  0  0  0  0
    9.7601  -14.3414   24.6353 O   0  0  0  0  0  0  0  0  0  0  0  0
    8.6099  -12.9549   20.1019 C   0  0  0  0  0  0  0  0  0  0  0  0
    8.4570  -12.7720   18.7438 C   0  0  0  0  0  0  0  0  0  0  0  0
    8.5613  -16.2958   24.8306 N   0  0  0  0  0  0  0  0  0  0  0  0
    8.7626  -16.2533   26.2654 C   0  0  1  0  0  0  0  0  0  0  0  0
    7.4998  -15.7169   26.8938 C   0  0  0  0  0  0  0  0  0  0  0  0
    7.4403  -14.2448   26.9255 C   0  0  0  0  0  0  0  0  0  0  0  0
    8.5201  -13.4641   27.3283 C   0  0  0  0  0  0  0  0  0  0  0  0
    8.4438  -12.0885   27.3429 C   0  0  0  0  0  0  0  0  0  0  0  0
    7.2527  -11.4982   26.9422 C   0  0  0  0  0  0  0  0  0  0  0  0
    6.1694  -12.2506   26.5388 C   0  0  0  0  0  0  0  0  0  0  0  0
    6.2618  -13.6276   26.5298 C   0  0  0  0  0  0  0  0  0  0  0  0
    9.1193  -17.6029   26.7134 C   0  0  0  0  0  0  0  0  0  0  0  0
    9.2850  -17.8174   27.9397 O   0  0  0  0  0  0  0  0  0  0  0  0
    9.2877  -18.6770   25.8467 O   0  0  0  0  0  0  0  0  0  0  0  0
  2  1  1  0
  3  2  1  0
  3  4  1  1
  5  6  1  6
  5  3  1  0
  7  5  1  0
  8  7  2  0
 10 11  2  0
 10  9  1  0
 12 11  1  0
 13 12  2  0
 14 13  1  0
 15 14  1  1
 15 16  1  0
 16  7  1  0
 17 21  1  0
 17 15  1  0
 18 17  2  0
 19 13  1  0
 19 20  2  0
 20 10  1  0
 22 23  1  1
 22 21  1  0
 23 24  1  0
 24 29  1  0
 25 24  2  0
 25 26  1  0
 26 27  2  0
 27 28  1  0
 29 28  2  0
 30 22  1  0
 30 32  1  0
 31 30  2  0
M  END
$$$$
