IYF.pdb
     RDKit          3D

 32 33  0  0  1  0  0  0  0  0999 V2000
    7.1483  -21.8661   27.4726 C   0  0  0  0  0  0  0  0  0  0  0  0
    6.4833  -21.5620   26.1762 C   0  0  0  0  0  0  0  0  0  0  0  0
    7.0555  -20.4270   25.4134 C   0  0  2  0  0  0  0  0  0  0  0  0
    7.1437  -19.1925   26.2844 C   0  0  0  0  0  0  0  0  0  0  0  0
    6.4104  -20.1309   24.1045 C   0  0  2  0  0  0  0  0  0  0  0  0
    6.2438  -21.2421   23.2335 N   0  0  0  0  0  0  0  0  0  0  0  0
    7.0872  -19.0246   23.3819 C   0  0  0  0  0  0  0  0  0  0  0  0
    8.0609  -19.2884   22.6453 O   0  0  0  0  0  0  0  0  0  0  0  0
    8.9135  -11.8122   18.9977 O   0  0  0  0  0  0  0  0  0  0  0  0
    8.3094  -12.7297   19.8162 C   0  0  0  0  0  0  0  0  0  0  0  0
    8.2388  -12.5090   21.1772 C   0  0  0  0  0  0  0  0  0  0  0  0
    7.6372  -13.4163   22.0161 C   0  0  0  0  0  0  0  0  0  0  0  0
    7.0973  -14.5721   21.4513 C   0  0  0  0  0  0  0  0  0  0  0  0
    6.4722  -15.5375   22.3787 C   0  0  0  0  0  0  0  0  0  0  0  0
    7.3917  -16.6386   22.8068 C   0  0  2  0  0  0  0  0  0  0  0  0
    6.6485  -17.6906   23.5152 N   0  0  0  0  0  0  0  0  0  0  0  0
    8.4603  -16.1093   23.6709 C   0  0  0  0  0  0  0  0  0  0  0  0
    9.4123  -15.4196   23.2426 O   0  0  0  0  0  0  0  0  0  0  0  0
    7.1632  -14.7999   20.1001 C   0  0  0  0  0  0  0  0  0  0  0  0
    7.7679  -13.8857   19.2635 C   0  0  0  0  0  0  0  0  0  0  0  0
    8.4098  -16.3964   25.0690 N   0  0  0  0  0  0  0  0  0  0  0  0
    9.3627  -15.7271   25.9321 C   0  0  1  0  0  0  0  0  0  0  0  0
    8.5907  -15.0608   27.0445 C   0  0  0  0  0  0  0  0  0  0  0  0
    7.7470  -13.9434   26.5850 C   0  0  0  0  0  0  0  0  0  0  0  0
    6.3631  -14.0494   26.4798 C   0  0  0  0  0  0  0  0  0  0  0  0
    5.5934  -12.9886   26.0546 C   0  0  0  0  0  0  0  0  0  0  0  0
    6.2403  -11.8032   25.7316 C   0  0  0  0  0  0  0  0  0  0  0  0
    7.6101  -11.6741   25.8279 C   0  0  0  0  0  0  0  0  0  0  0  0
    8.3669  -12.7462   26.2556 C   0  0  0  0  0  0  0  0  0  0  0  0
   10.3305  -16.7247   26.3987 C   0  0  0  0  0  0  0  0  0  0  0  0
   10.1954  -17.9219   26.0438 O   0  0  0  0  0  0  0  0  0  0  0  0
   11.4065  -16.4188   27.2244 O   0  0  0  0  0  0  0  0  0  0  0  0
  2  1  1  0
  3  2  1  0
  3  4  1  1
  5  6  1  6
  5  3  1  0
  7  5  1  0
  8  7  2  0
 10 11  2  0
 10  9  1  0
 12 11  1  0
 13 12  2  0
 14 13  1  0
 15 14  1  1
 15 16  1  0
 16  7  1  0
 17 21  1  0
 17 15  1  0
 18 17  2  0
 19 13  1  0
 19 20  2  0
 20 10  1  0
 22 23  1  1
 22 21  1  0
 23 24  1  0
 24 29  1  0
 25 24  2  0
 25 26  1  0
 26 27  2  0
 27 28  1  0
 29 28  2  0
 30 22  1  0
 30 32  1  0
 31 30  2  0
M  END
$$$$
