IYF.pdb
     RDKit          3D

 32 33  0  0  1  0  0  0  0  0999 V2000
   12.2473  -20.8914   21.1238 C   0  0  0  0  0  0  0  0  0  0  0  0
   11.8629  -19.8577   20.1243 C   0  0  0  0  0  0  0  0  0  0  0  0
   10.4081  -19.7136   19.8788 C   0  0  2  0  0  0  0  0  0  0  0  0
    9.9495  -20.6894   18.8167 C   0  0  0  0  0  0  0  0  0  0  0  0
    9.9286  -18.3320   19.5994 C   0  0  2  0  0  0  0  0  0  0  0  0
   10.6115  -17.6398   18.5622 N   0  0  0  0  0  0  0  0  0  0  0  0
    9.8916  -17.4917   20.8228 C   0  0  0  0  0  0  0  0  0  0  0  0
   10.8501  -16.7274   21.0620 O   0  0  0  0  0  0  0  0  0  0  0  0
    6.9167  -12.0347   26.7503 O   0  0  0  0  0  0  0  0  0  0  0  0
    7.0314  -13.1385   25.9471 C   0  0  0  0  0  0  0  0  0  0  0  0
    8.1401  -13.3010   25.1407 C   0  0  0  0  0  0  0  0  0  0  0  0
    8.2751  -14.4007   24.3276 C   0  0  0  0  0  0  0  0  0  0  0  0
    7.2555  -15.3529   24.3398 C   0  0  0  0  0  0  0  0  0  0  0  0
    7.4191  -16.5159   23.4434 C   0  0  0  0  0  0  0  0  0  0  0  0
    8.7967  -16.6422   22.8713 C   0  0  2  0  0  0  0  0  0  0  0  0
    8.7971  -17.5450   21.7112 N   0  0  0  0  0  0  0  0  0  0  0  0
    9.7345  -17.1368   23.8933 C   0  0  0  0  0  0  0  0  0  0  0  0
    9.9026  -18.3515   24.1418 O   0  0  0  0  0  0  0  0  0  0  0  0
    6.1501  -15.1997   25.1377 C   0  0  0  0  0  0  0  0  0  0  0  0
    6.0205  -14.0941   25.9515 C   0  0  0  0  0  0  0  0  0  0  0  0
   10.4918  -16.1837   24.6402 N   0  0  0  0  0  0  0  0  0  0  0  0
   11.4752  -16.6866   25.5788 C   0  0  1  0  0  0  0  0  0  0  0  0
   12.1669  -15.4999   26.2040 C   0  0  0  0  0  0  0  0  0  0  0  0
   11.3206  -14.7651   27.1607 C   0  0  0  0  0  0  0  0  0  0  0  0
   10.5590  -13.6616   26.7866 C   0  0  0  0  0  0  0  0  0  0  0  0
    9.7690  -12.9943   27.6971 C   0  0  0  0  0  0  0  0  0  0  0  0
    9.7532  -13.4555   29.0066 C   0  0  0  0  0  0  0  0  0  0  0  0
   10.4991  -14.5467   29.4010 C   0  0  0  0  0  0  0  0  0  0  0  0
   11.2853  -15.2044   28.4768 C   0  0  0  0  0  0  0  0  0  0  0  0
   10.7826  -17.5444   26.5451 C   0  0  0  0  0  0  0  0  0  0  0  0
   11.4595  -18.2495   27.3337 O   0  0  0  0  0  0  0  0  0  0  0  0
    9.3979  -17.6247   26.6417 O   0  0  0  0  0  0  0  0  0  0  0  0
  2  1  1  0
  3  2  1  0
  3  4  1  6
  5  6  1  6
  5  3  1  0
  7  5  1  0
  8  7  2  0
 10 11  2  0
 10  9  1  0
 12 11  1  0
 13 12  2  0
 14 13  1  0
 15 14  1  1
 15 16  1  0
 16  7  1  0
 17 21  1  0
 17 15  1  0
 18 17  2  0
 19 13  1  0
 19 20  2  0
 20 10  1  0
 22 23  1  1
 22 21  1  0
 23 24  1  0
 24 29  1  0
 25 24  2  0
 25 26  1  0
 26 27  2  0
 27 28  1  0
 29 28  2  0
 30 22  1  0
 30 32  1  0
 31 30  2  0
M  END
$$$$
