IYF.pdb
     RDKit          3D

 32 33  0  0  1  0  0  0  0  0999 V2000
    6.6116  -11.6423   19.4771 C   0  0  0  0  0  0  0  0  0  0  0  0
    7.7198  -12.5728   19.1287 C   0  0  0  0  0  0  0  0  0  0  0  0
    8.0402  -13.5984   20.1500 C   0  0  2  0  0  0  0  0  0  0  0  0
    8.2610  -12.9520   21.5006 C   0  0  0  0  0  0  0  0  0  0  0  0
    9.1412  -14.5395   19.8048 C   0  0  2  0  0  0  0  0  0  0  0  0
    9.0252  -15.1892   18.5455 N   0  0  0  0  0  0  0  0  0  0  0  0
    9.3733  -15.5477   20.8695 C   0  0  0  0  0  0  0  0  0  0  0  0
    8.6741  -16.5826   20.8868 O   0  0  0  0  0  0  0  0  0  0  0  0
   14.8125  -14.6040   18.3829 O   0  0  0  0  0  0  0  0  0  0  0  0
   14.1262  -15.1863   19.4156 C   0  0  0  0  0  0  0  0  0  0  0  0
   14.0818  -14.5769   20.6536 C   0  0  0  0  0  0  0  0  0  0  0  0
   13.3990  -15.1437   21.7030 C   0  0  0  0  0  0  0  0  0  0  0  0
   12.7488  -16.3581   21.4813 C   0  0  0  0  0  0  0  0  0  0  0  0
   12.0373  -16.9526   22.6315 C   0  0  0  0  0  0  0  0  0  0  0  0
   10.6368  -16.4498   22.7947 C   0  0  2  0  0  0  0  0  0  0  0  0
   10.3650  -15.3537   21.8538 N   0  0  0  0  0  0  0  0  0  0  0  0
   10.4121  -15.9934   24.1767 C   0  0  0  0  0  0  0  0  0  0  0  0
   10.7879  -14.8783   24.6019 O   0  0  0  0  0  0  0  0  0  0  0  0
   12.7878  -16.9709   20.2546 C   0  0  0  0  0  0  0  0  0  0  0  0
   13.4745  -16.3971   19.2055 C   0  0  0  0  0  0  0  0  0  0  0  0
    9.7310  -16.8657   25.0793 N   0  0  0  0  0  0  0  0  0  0  0  0
    9.4979  -16.3941   26.4299 C   0  0  1  0  0  0  0  0  0  0  0  0
    8.0176  -16.1435   26.5832 C   0  0  0  0  0  0  0  0  0  0  0  0
    7.6155  -14.7711   26.2278 C   0  0  0  0  0  0  0  0  0  0  0  0
    6.5859  -14.5057   25.3295 C   0  0  0  0  0  0  0  0  0  0  0  0
    6.2222  -13.2138   25.0177 C   0  0  0  0  0  0  0  0  0  0  0  0
    6.9153  -12.1770   25.6280 C   0  0  0  0  0  0  0  0  0  0  0  0
    7.9390  -12.4151   26.5213 C   0  0  0  0  0  0  0  0  0  0  0  0
    8.2912  -13.7150   26.8231 C   0  0  0  0  0  0  0  0  0  0  0  0
   10.0273  -17.3977   27.3583 C   0  0  0  0  0  0  0  0  0  0  0  0
   10.3429  -18.5315   26.9200 O   0  0  0  0  0  0  0  0  0  0  0  0
   10.2035  -17.1646   28.7177 O   0  0  0  0  0  0  0  0  0  0  0  0
  2  1  1  0
  3  2  1  0
  3  4  1  1
  5  6  1  6
  5  3  1  0
  7  5  1  0
  8  7  2  0
 10 11  2  0
 10  9  1  0
 12 11  1  0
 13 12  2  0
 14 13  1  0
 15 14  1  1
 15 16  1  0
 16  7  1  0
 17 21  1  0
 17 15  1  0
 18 17  2  0
 19 13  1  0
 19 20  2  0
 20 10  1  0
 22 23  1  1
 22 21  1  0
 23 24  1  0
 24 29  1  0
 25 24  2  0
 25 26  1  0
 26 27  2  0
 27 28  1  0
 29 28  2  0
 30 22  1  0
 30 32  1  0
 31 30  2  0
M  END
$$$$
