IYF.pdb
     RDKit          3D

 32 33  0  0  1  0  0  0  0  0999 V2000
    7.8777  -12.2039   19.4823 C   0  0  0  0  0  0  0  0  0  0  0  0
    7.5533  -13.6564   19.4633 C   0  0  0  0  0  0  0  0  0  0  0  0
    7.4525  -14.3078   20.7911 C   0  0  2  0  0  0  0  0  0  0  0  0
    8.7144  -14.0754   21.5937 C   0  0  0  0  0  0  0  0  0  0  0  0
    7.0630  -15.7449   20.7836 C   0  0  2  0  0  0  0  0  0  0  0  0
    5.8656  -16.0559   20.0830 N   0  0  0  0  0  0  0  0  0  0  0  0
    7.0070  -16.3192   22.1514 C   0  0  0  0  0  0  0  0  0  0  0  0
    6.0421  -16.0310   22.8905 O   0  0  0  0  0  0  0  0  0  0  0  0
    7.7319  -21.3856   29.1458 O   0  0  0  0  0  0  0  0  0  0  0  0
    7.8950  -20.8249   27.9066 C   0  0  0  0  0  0  0  0  0  0  0  0
    6.7992  -20.5804   27.1031 C   0  0  0  0  0  0  0  0  0  0  0  0
    6.9405  -20.0187   25.8568 C   0  0  0  0  0  0  0  0  0  0  0  0
    8.2282  -19.7010   25.4241 C   0  0  0  0  0  0  0  0  0  0  0  0
    8.3516  -19.1143   24.0737 C   0  0  0  0  0  0  0  0  0  0  0  0
    7.9223  -17.6820   24.0012 C   0  0  2  0  0  0  0  0  0  0  0  0
    8.0209  -17.1788   22.6235 N   0  0  0  0  0  0  0  0  0  0  0  0
    8.7440  -16.8529   24.8991 C   0  0  0  0  0  0  0  0  0  0  0  0
    9.8565  -16.3818   24.5735 O   0  0  0  0  0  0  0  0  0  0  0  0
    9.3228  -19.9406   26.2155 C   0  0  0  0  0  0  0  0  0  0  0  0
    9.1746  -20.5044   27.4652 C   0  0  0  0  0  0  0  0  0  0  0  0
    8.2483  -16.5708   26.2084 N   0  0  0  0  0  0  0  0  0  0  0  0
    9.1080  -15.8339   27.1132 C   0  0  1  0  0  0  0  0  0  0  0  0
    8.2374  -14.9079   27.9270 C   0  0  0  0  0  0  0  0  0  0  0  0
    7.6817  -13.7886   27.1461 C   0  0  0  0  0  0  0  0  0  0  0  0
    6.4480  -13.8670   26.5062 C   0  0  0  0  0  0  0  0  0  0  0  0
    5.9449  -12.8047   25.7873 C   0  0  0  0  0  0  0  0  0  0  0  0
    6.7070  -11.6462   25.7180 C   0  0  0  0  0  0  0  0  0  0  0  0
    7.9321  -11.5447   26.3437 C   0  0  0  0  0  0  0  0  0  0  0  0
    8.4221  -12.6178   27.0601 C   0  0  0  0  0  0  0  0  0  0  0  0
    9.8554  -16.8038   27.9193 C   0  0  0  0  0  0  0  0  0  0  0  0
   10.6853  -16.3873   28.7650 O   0  0  0  0  0  0  0  0  0  0  0  0
    9.6973  -18.1801   27.8010 O   0  0  0  0  0  0  0  0  0  0  0  0
  2  1  1  0
  3  2  1  0
  3  4  1  6
  5  6  1  1
  5  3  1  0
  7  5  1  0
  8  7  2  0
 10 11  2  0
 10  9  1  0
 12 11  1  0
 13 12  2  0
 14 13  1  0
 15 14  1  6
 15 16  1  0
 16  7  1  0
 17 21  1  0
 17 15  1  0
 18 17  2  0
 19 13  1  0
 19 20  2  0
 20 10  1  0
 22 23  1  1
 22 21  1  0
 23 24  1  0
 24 29  1  0
 25 24  2  0
 25 26  1  0
 26 27  2  0
 27 28  1  0
 29 28  2  0
 30 22  1  0
 30 32  1  0
 31 30  2  0
M  END
$$$$
