WNM.pdb
     RDKit          3D

 31 32  0  0  1  0  0  0  0  0999 V2000
   21.1758  -20.1602  -18.1589 N   0  0  0  0  0  0  0  0  0  0  0  0
   22.1375  -19.4084  -17.3245 C   0  0  1  0  0  0  0  0  0  0  0  0
   21.4168  -19.1548  -16.0343 C   0  0  0  0  0  0  0  0  0  0  0  0
   20.4420  -18.0518  -16.0758 C   0  0  0  0  0  0  0  0  0  0  0  0
   19.0489  -18.2333  -16.0068 C   0  0  0  0  0  0  0  0  0  0  0  0
   18.4405  -17.0423  -16.0245 N   0  0  0  0  0  0  0  0  0  0  0  0
   19.3565  -16.0585  -16.1033 C   0  0  0  0  0  0  0  0  0  0  0  0
   19.2477  -14.6770  -16.1654 C   0  0  0  0  0  0  0  0  0  0  0  0
   20.3741  -13.9052  -16.2624 C   0  0  0  0  0  0  0  0  0  0  0  0
   21.6075  -14.5188  -16.2971 C   0  0  0  0  0  0  0  0  0  0  0  0
   21.7073  -15.8959  -16.2342 C   0  0  0  0  0  0  0  0  0  0  0  0
   20.5844  -16.6847  -16.1350 C   0  0  0  0  0  0  0  0  0  0  0  0
   23.3657  -20.1860  -17.1206 C   0  0  0  0  0  0  0  0  0  0  0  0
   23.3973  -21.4432  -17.1076 O   0  0  0  0  0  0  0  0  0  0  0  0
   28.2580  -21.6392  -16.3897 N   0  0  0  0  0  0  0  0  0  0  0  0
   28.3000  -20.2639  -16.7846 C   0  0  0  0  0  0  0  0  0  0  0  0
   29.4466  -19.7827  -16.9642 O   0  0  0  0  0  0  0  0  0  0  0  0
   27.0468  -19.4863  -16.9607 C   0  0  0  0  0  0  0  0  0  0  0  0
   25.8180  -20.3079  -16.6583 C   0  0  2  0  0  0  0  0  0  0  0  0
   24.6432  -19.5439  -16.9153 N   0  0  0  0  0  0  0  0  0  0  0  0
   25.9155  -20.7334  -15.2272 C   0  0  0  0  0  0  0  0  0  0  0  0
   26.8859  -21.4599  -14.9169 O   0  0  0  0  0  0  0  0  0  0  0  0
   23.0271  -20.6805   -7.8292 C   0  0  0  0  0  0  0  0  0  0  0  0
   22.8217  -20.1955   -9.5406 S   0  0  0  0  0  0  0  0  0  0  0  0
   24.1511  -20.8356  -10.6046 C   0  0  0  0  0  0  0  0  0  0  0  0
   24.0925  -20.2878  -11.9773 C   0  0  0  0  0  0  0  0  0  0  0  0
   25.1707  -20.8308  -12.8508 C   0  0  2  0  0  0  0  0  0  0  0  0
   24.9834  -20.3595  -14.2386 N   0  0  0  0  0  0  0  0  0  0  0  0
   25.0855  -22.3065  -12.9009 C   0  0  0  0  0  0  0  0  0  0  0  0
   26.0538  -23.0431  -12.1953 O   0  0  0  0  0  0  0  0  0  0  0  0
   24.1877  -22.9362  -13.5447 O   0  0  0  0  0  0  0  0  0  0  0  0
  2  1  1  6
  2 13  1  0
  2  3  1  0
  3  4  1  0
  4  5  2  0
  6  5  1  0
  7  6  1  0
  8  7  2  0
  9  8  1  0
 10 11  1  0
 10  9  2  0
 11 12  2  0
 12  7  1  0
 12  4  1  0
 13 14  2  0
 15 16  1  0
 16 17  2  0
 19 18  1  1
 18 16  1  0
 20 19  1  0
 20 13  1  0
 21 19  1  0
 22 21  2  0
 23 24  1  0
 24 25  1  0
 25 26  1  0
 27 26  1  1
 27 28  1  0
 28 21  1  0
 29 30  1  0
 29 27  1  0
 31 29  2  0
M  END
$$$$
