WNM.pdb
     RDKit          3D

 31 32  0  0  1  0  0  0  0  0999 V2000
   25.3514  -17.8017  -18.0322 N   0  0  0  0  0  0  0  0  0  0  0  0
   25.5561  -18.4663  -16.7274 C   0  0  1  0  0  0  0  0  0  0  0  0
   25.4838  -17.3632  -15.7143 C   0  0  0  0  0  0  0  0  0  0  0  0
   26.6106  -16.4158  -15.7486 C   0  0  0  0  0  0  0  0  0  0  0  0
   26.5816  -15.1409  -15.1551 C   0  0  0  0  0  0  0  0  0  0  0  0
   27.7665  -14.5428  -15.3203 N   0  0  0  0  0  0  0  0  0  0  0  0
   28.6002  -15.3526  -16.0003 C   0  0  0  0  0  0  0  0  0  0  0  0
   29.9094  -15.2023  -16.4337 C   0  0  0  0  0  0  0  0  0  0  0  0
   30.5170  -16.2065  -17.1381 C   0  0  0  0  0  0  0  0  0  0  0  0
   29.8118  -17.3595  -17.4074 C   0  0  0  0  0  0  0  0  0  0  0  0
   28.5079  -17.5016  -16.9715 C   0  0  0  0  0  0  0  0  0  0  0  0
   27.8845  -16.5017  -16.2612 C   0  0  0  0  0  0  0  0  0  0  0  0
   24.5264  -19.4870  -16.4982 C   0  0  0  0  0  0  0  0  0  0  0  0
   23.4139  -19.4948  -17.0848 O   0  0  0  0  0  0  0  0  0  0  0  0
   23.9497  -25.2558  -14.3899 N   0  0  0  0  0  0  0  0  0  0  0  0
   23.7614  -24.1586  -15.2898 C   0  0  0  0  0  0  0  0  0  0  0  0
   22.8508  -24.3033  -16.1433 O   0  0  0  0  0  0  0  0  0  0  0  0
   24.6080  -22.9421  -15.1911 C   0  0  0  0  0  0  0  0  0  0  0  0
   23.8434  -21.6857  -15.5278 C   0  0  2  0  0  0  0  0  0  0  0  0
   24.7279  -20.5694  -15.5631 N   0  0  0  0  0  0  0  0  0  0  0  0
   22.7757  -21.5304  -14.4913 C   0  0  0  0  0  0  0  0  0  0  0  0
   21.8843  -22.4080  -14.4599 O   0  0  0  0  0  0  0  0  0  0  0  0
   19.6469  -16.7646  -15.1413 C   0  0  0  0  0  0  0  0  0  0  0  0
   19.9707  -16.5860  -13.3894 S   0  0  0  0  0  0  0  0  0  0  0  0
   21.0592  -17.8961  -12.7507 C   0  0  0  0  0  0  0  0  0  0  0  0
   20.6605  -19.2422  -13.2167 C   0  0  0  0  0  0  0  0  0  0  0  0
   21.5555  -20.3118  -12.6919 C   0  0  2  0  0  0  0  0  0  0  0  0
   22.7329  -20.4634  -13.5716 N   0  0  0  0  0  0  0  0  0  0  0  0
   20.8538  -21.6135  -12.7132 C   0  0  0  0  0  0  0  0  0  0  0  0
   19.6709  -21.7327  -11.9617 O   0  0  0  0  0  0  0  0  0  0  0  0
   21.2638  -22.6211  -13.3717 O   0  0  0  0  0  0  0  0  0  0  0  0
  2  1  1  6
  2 13  1  0
  2  3  1  0
  3  4  1  0
  4  5  2  0
  6  5  1  0
  7  6  1  0
  8  7  2  0
  9  8  1  0
 10 11  1  0
 10  9  2  0
 11 12  2  0
 12  7  1  0
 12  4  1  0
 13 14  2  0
 15 16  1  0
 16 17  2  0
 19 18  1  1
 18 16  1  0
 20 19  1  0
 20 13  1  0
 21 19  1  0
 22 21  2  0
 23 24  1  0
 24 25  1  0
 25 26  1  0
 27 26  1  6
 27 28  1  0
 28 21  1  0
 29 30  1  0
 29 27  1  0
 31 29  2  0
M  END
$$$$
