WNM.pdb
     RDKit          3D

 31 32  0  0  1  0  0  0  0  0999 V2000
   28.0892  -19.9252  -10.0007 N   0  0  0  0  0  0  0  0  0  0  0  0
   26.9909  -20.8826   -9.7489 C   0  0  1  0  0  0  0  0  0  0  0  0
   26.3860  -20.4462   -8.4481 C   0  0  0  0  0  0  0  0  0  0  0  0
   27.3311  -19.8307   -7.5012 C   0  0  0  0  0  0  0  0  0  0  0  0
   28.0634  -18.6610   -7.7728 C   0  0  0  0  0  0  0  0  0  0  0  0
   28.7967  -18.3331   -6.7033 N   0  0  0  0  0  0  0  0  0  0  0  0
   28.5973  -19.2273   -5.7166 C   0  0  0  0  0  0  0  0  0  0  0  0
   29.1199  -19.3460   -4.4371 C   0  0  0  0  0  0  0  0  0  0  0  0
   28.7443  -20.3924   -3.6384 C   0  0  0  0  0  0  0  0  0  0  0  0
   27.8459  -21.3181   -4.1230 C   0  0  0  0  0  0  0  0  0  0  0  0
   27.3294  -21.1924   -5.3989 C   0  0  0  0  0  0  0  0  0  0  0  0
   27.6962  -20.1454   -6.2126 C   0  0  0  0  0  0  0  0  0  0  0  0
   26.0138  -20.8505  -10.8439 C   0  0  0  0  0  0  0  0  0  0  0  0
   25.5635  -19.7869  -11.3415 O   0  0  0  0  0  0  0  0  0  0  0  0
   24.6581  -23.2879  -15.7556 N   0  0  0  0  0  0  0  0  0  0  0  0
   23.9362  -23.4374  -14.5286 C   0  0  0  0  0  0  0  0  0  0  0  0
   22.6927  -23.5767  -14.6408 O   0  0  0  0  0  0  0  0  0  0  0  0
   24.6461  -23.4234  -13.2239 C   0  0  0  0  0  0  0  0  0  0  0  0
   24.7508  -22.0336  -12.6460 C   0  0  2  0  0  0  0  0  0  0  0  0
   25.4941  -22.0637  -11.4310 N   0  0  0  0  0  0  0  0  0  0  0  0
   23.3545  -21.5355  -12.4440 C   0  0  0  0  0  0  0  0  0  0  0  0
   22.7700  -21.8960  -11.3981 O   0  0  0  0  0  0  0  0  0  0  0  0
   18.2767  -15.6377  -13.3383 C   0  0  0  0  0  0  0  0  0  0  0  0
   19.8444  -16.3903  -13.7650 S   0  0  0  0  0  0  0  0  0  0  0  0
   19.9508  -18.1222  -13.2191 C   0  0  0  0  0  0  0  0  0  0  0  0
   21.2740  -18.7235  -13.4942 C   0  0  0  0  0  0  0  0  0  0  0  0
   21.3758  -20.1231  -12.9932 C   0  0  2  0  0  0  0  0  0  0  0  0
   22.6867  -20.6980  -13.3598 N   0  0  0  0  0  0  0  0  0  0  0  0
   20.3558  -20.9701  -13.6487 C   0  0  0  0  0  0  0  0  0  0  0  0
   19.1192  -21.1289  -12.9977 O   0  0  0  0  0  0  0  0  0  0  0  0
   20.5403  -21.5563  -14.7620 O   0  0  0  0  0  0  0  0  0  0  0  0
  2  1  1  6
  2 13  1  0
  2  3  1  0
  3  4  1  0
  4  5  2  0
  6  5  1  0
  7  6  1  0
  8  7  2  0
  9  8  1  0
 10 11  1  0
 10  9  2  0
 11 12  2  0
 12  7  1  0
 12  4  1  0
 13 14  2  0
 15 16  1  0
 16 17  2  0
 19 18  1  1
 18 16  1  0
 20 19  1  0
 20 13  1  0
 21 19  1  0
 22 21  2  0
 23 24  1  0
 24 25  1  0
 25 26  1  0
 27 26  1  6
 27 28  1  0
 28 21  1  0
 29 30  1  0
 29 27  1  0
 31 29  2  0
M  END
$$$$
