WNM.pdb
     RDKit          3D

 31 32  0  0  1  0  0  0  0  0999 V2000
   27.3773  -21.3705  -14.6152 N   0  0  0  0  0  0  0  0  0  0  0  0
   26.4601  -21.9557  -13.6140 C   0  0  1  0  0  0  0  0  0  0  0  0
   26.2253  -20.8614  -12.6162 C   0  0  0  0  0  0  0  0  0  0  0  0
   27.2695  -20.7273  -11.5865 C   0  0  0  0  0  0  0  0  0  0  0  0
   28.6434  -20.6287  -11.8712 C   0  0  0  0  0  0  0  0  0  0  0  0
   29.3270  -20.4740  -10.7319 N   0  0  0  0  0  0  0  0  0  0  0  0
   28.4804  -20.4638   -9.6848 C   0  0  0  0  0  0  0  0  0  0  0  0
   28.6801  -20.3483   -8.3170 C   0  0  0  0  0  0  0  0  0  0  0  0
   27.6111  -20.3905   -7.4629 C   0  0  0  0  0  0  0  0  0  0  0  0
   26.3439  -20.5486   -7.9809 C   0  0  0  0  0  0  0  0  0  0  0  0
   26.1534  -20.6625   -9.3451 C   0  0  0  0  0  0  0  0  0  0  0  0
   27.2177  -20.6202  -10.2159 C   0  0  0  0  0  0  0  0  0  0  0  0
   25.2111  -22.3939  -14.2485 C   0  0  0  0  0  0  0  0  0  0  0  0
   24.5876  -21.7096  -15.0997 O   0  0  0  0  0  0  0  0  0  0  0  0
   21.5837  -25.1874  -16.4114 N   0  0  0  0  0  0  0  0  0  0  0  0
   22.5457  -26.0896  -15.8551 C   0  0  0  0  0  0  0  0  0  0  0  0
   22.4602  -27.2829  -16.2389 O   0  0  0  0  0  0  0  0  0  0  0  0
   23.5657  -25.6097  -14.8878 C   0  0  0  0  0  0  0  0  0  0  0  0
   23.4526  -24.1279  -14.6273 C   0  0  2  0  0  0  0  0  0  0  0  0
   24.6040  -23.6648  -13.9277 N   0  0  0  0  0  0  0  0  0  0  0  0
   22.1926  -23.9136  -13.8495 C   0  0  0  0  0  0  0  0  0  0  0  0
   22.2309  -24.1729  -12.6259 O   0  0  0  0  0  0  0  0  0  0  0  0
   23.2867  -20.3664  -10.3576 C   0  0  0  0  0  0  0  0  0  0  0  0
   21.7100  -19.8213  -11.0080 S   0  0  0  0  0  0  0  0  0  0  0  0
   20.7185  -21.1991  -11.6618 C   0  0  0  0  0  0  0  0  0  0  0  0
   20.9086  -21.3951  -13.1156 C   0  0  0  0  0  0  0  0  0  0  0  0
   20.1200  -22.5452  -13.6404 C   0  0  2  0  0  0  0  0  0  0  0  0
   20.9942  -23.4434  -14.4229 N   0  0  0  0  0  0  0  0  0  0  0  0
   19.0818  -22.0614  -14.5761 C   0  0  0  0  0  0  0  0  0  0  0  0
   17.7414  -22.1189  -14.1542 O   0  0  0  0  0  0  0  0  0  0  0  0
   19.3395  -21.6000  -15.7327 O   0  0  0  0  0  0  0  0  0  0  0  0
  2  1  1  6
  2 13  1  0
  2  3  1  0
  3  4  1  0
  4  5  2  0
  6  5  1  0
  7  6  1  0
  8  7  2  0
  9  8  1  0
 10 11  1  0
 10  9  2  0
 11 12  2  0
 12  7  1  0
 12  4  1  0
 13 14  2  0
 15 16  1  0
 16 17  2  0
 19 18  1  1
 18 16  1  0
 20 19  1  0
 20 13  1  0
 21 19  1  0
 22 21  2  0
 23 24  1  0
 24 25  1  0
 25 26  1  0
 27 26  1  6
 27 28  1  0
 28 21  1  0
 29 30  1  0
 29 27  1  0
 31 29  2  0
M  END
$$$$
