WNM.pdb
     RDKit          3D

 31 32  0  0  1  0  0  0  0  0999 V2000
   25.7027  -18.9687  -10.1723 N   0  0  0  0  0  0  0  0  0  0  0  0
   26.6704  -20.0028  -10.5972 C   0  0  1  0  0  0  0  0  0  0  0  0
   26.3791  -21.1882   -9.7265 C   0  0  0  0  0  0  0  0  0  0  0  0
   26.4325  -20.9217   -8.2791 C   0  0  0  0  0  0  0  0  0  0  0  0
   25.3463  -21.1124   -7.4061 C   0  0  0  0  0  0  0  0  0  0  0  0
   25.7218  -20.8260   -6.1547 N   0  0  0  0  0  0  0  0  0  0  0  0
   27.0141  -20.4481   -6.1368 C   0  0  0  0  0  0  0  0  0  0  0  0
   27.8597  -20.0424   -5.1148 C   0  0  0  0  0  0  0  0  0  0  0  0
   29.1523  -19.6892   -5.3951 C   0  0  0  0  0  0  0  0  0  0  0  0
   29.5952  -19.7431   -6.6989 C   0  0  0  0  0  0  0  0  0  0  0  0
   28.7465  -20.1490   -7.7114 C   0  0  0  0  0  0  0  0  0  0  0  0
   27.4454  -20.5084   -7.4449 C   0  0  0  0  0  0  0  0  0  0  0  0
   26.5022  -20.3164  -12.0213 C   0  0  0  0  0  0  0  0  0  0  0  0
   25.4849  -19.9956  -12.6874 O   0  0  0  0  0  0  0  0  0  0  0  0
   27.7916  -21.0236  -16.9536 N   0  0  0  0  0  0  0  0  0  0  0  0
   28.8328  -21.6364  -16.1858 C   0  0  0  0  0  0  0  0  0  0  0  0
   29.8339  -22.0258  -16.8373 O   0  0  0  0  0  0  0  0  0  0  0  0
   28.7028  -21.7856  -14.7136 C   0  0  0  0  0  0  0  0  0  0  0  0
   27.4471  -21.1389  -14.1831 C   0  0  2  0  0  0  0  0  0  0  0  0
   27.5146  -21.0305  -12.7642 N   0  0  0  0  0  0  0  0  0  0  0  0
   26.2954  -21.9813  -14.6330 C   0  0  0  0  0  0  0  0  0  0  0  0
   25.9922  -22.9582  -13.9123 O   0  0  0  0  0  0  0  0  0  0  0  0
   25.8358  -26.9170  -15.4950 C   0  0  0  0  0  0  0  0  0  0  0  0
   24.3058  -26.7141  -16.4028 S   0  0  0  0  0  0  0  0  0  0  0  0
   23.7952  -24.9719  -16.5161 C   0  0  0  0  0  0  0  0  0  0  0  0
   24.8592  -24.0396  -16.0840 C   0  0  0  0  0  0  0  0  0  0  0  0
   24.4292  -22.6149  -16.1586 C   0  0  2  0  0  0  0  0  0  0  0  0
   25.5560  -21.7268  -15.8055 N   0  0  0  0  0  0  0  0  0  0  0  0
   23.3693  -22.3539  -15.1607 C   0  0  0  0  0  0  0  0  0  0  0  0
   23.5742  -22.8209  -13.8499 O   0  0  0  0  0  0  0  0  0  0  0  0
   22.2918  -21.7335  -15.4272 O   0  0  0  0  0  0  0  0  0  0  0  0
  2  1  1  1
  2 13  1  0
  2  3  1  0
  3  4  1  0
  4  5  2  0
  6  5  1  0
  7  6  1  0
  8  7  2  0
  9  8  1  0
 10 11  1  0
 10  9  2  0
 11 12  2  0
 12  7  1  0
 12  4  1  0
 13 14  2  0
 15 16  1  0
 16 17  2  0
 19 18  1  1
 18 16  1  0
 20 19  1  0
 20 13  1  0
 21 19  1  0
 22 21  2  0
 23 24  1  0
 24 25  1  0
 25 26  1  0
 27 26  1  1
 27 28  1  0
 28 21  1  0
 29 30  1  0
 29 27  1  0
 31 29  2  0
M  END
$$$$
