WNM.pdb
     RDKit          3D

 31 32  0  0  1  0  0  0  0  0999 V2000
   26.1404  -19.4127  -16.9919 N   0  0  0  0  0  0  0  0  0  0  0  0
   26.3484  -20.0640  -15.6809 C   0  0  1  0  0  0  0  0  0  0  0  0
   26.7168  -18.9495  -14.7479 C   0  0  0  0  0  0  0  0  0  0  0  0
   27.9890  -19.1373  -14.0303 C   0  0  0  0  0  0  0  0  0  0  0  0
   29.1798  -18.4632  -14.3559 C   0  0  0  0  0  0  0  0  0  0  0  0
   30.1427  -18.8144  -13.4965 N   0  0  0  0  0  0  0  0  0  0  0  0
   29.6612  -19.6977  -12.6014 C   0  0  0  0  0  0  0  0  0  0  0  0
   30.2442  -20.3663  -11.5349 C   0  0  0  0  0  0  0  0  0  0  0  0
   29.5034  -21.2430  -10.7890 C   0  0  0  0  0  0  0  0  0  0  0  0
   28.1799  -21.4485  -11.1129 C   0  0  0  0  0  0  0  0  0  0  0  0
   27.6063  -20.7780  -12.1768 C   0  0  0  0  0  0  0  0  0  0  0  0
   28.3377  -19.8927  -12.9347 C   0  0  0  0  0  0  0  0  0  0  0  0
   25.1301  -20.7588  -15.2480 C   0  0  0  0  0  0  0  0  0  0  0  0
   23.9853  -20.2391  -15.2816 O   0  0  0  0  0  0  0  0  0  0  0  0
   25.5096  -25.2772  -16.0477 N   0  0  0  0  0  0  0  0  0  0  0  0
   24.3471  -24.4925  -15.7617 C   0  0  0  0  0  0  0  0  0  0  0  0
   23.6851  -24.1142  -16.7603 O   0  0  0  0  0  0  0  0  0  0  0  0
   23.9779  -24.1656  -14.3606 C   0  0  0  0  0  0  0  0  0  0  0  0
   24.0423  -22.6837  -14.0843 C   0  0  2  0  0  0  0  0  0  0  0  0
   25.1686  -22.1117  -14.7430 N   0  0  0  0  0  0  0  0  0  0  0  0
   24.1091  -22.5163  -12.5990 C   0  0  0  0  0  0  0  0  0  0  0  0
   24.4737  -23.5106  -11.9325 O   0  0  0  0  0  0  0  0  0  0  0  0
   27.0664  -19.1174   -8.5358 C   0  0  0  0  0  0  0  0  0  0  0  0
   25.8671  -19.8511   -7.4270 S   0  0  0  0  0  0  0  0  0  0  0  0
   24.4381  -20.5431   -8.3146 C   0  0  0  0  0  0  0  0  0  0  0  0
   24.6720  -20.6491   -9.7713 C   0  0  0  0  0  0  0  0  0  0  0  0
   23.5523  -21.3339  -10.4768 C   0  0  2  0  0  0  0  0  0  0  0  0
   23.7866  -21.3155  -11.9356 N   0  0  0  0  0  0  0  0  0  0  0  0
   22.2887  -20.5990  -10.2523 C   0  0  0  0  0  0  0  0  0  0  0  0
   21.7001  -19.9553  -11.3556 O   0  0  0  0  0  0  0  0  0  0  0  0
   21.7134  -20.5214   -9.1209 O   0  0  0  0  0  0  0  0  0  0  0  0
  2  1  1  6
  2 13  1  0
  2  3  1  0
  3  4  1  0
  4  5  2  0
  6  5  1  0
  7  6  1  0
  8  7  2  0
  9  8  1  0
 10 11  1  0
 10  9  2  0
 11 12  2  0
 12  7  1  0
 12  4  1  0
 13 14  2  0
 15 16  1  0
 16 17  2  0
 19 18  1  1
 18 16  1  0
 20 19  1  0
 20 13  1  0
 21 19  1  0
 22 21  2  0
 23 24  1  0
 24 25  1  0
 25 26  1  0
 27 26  1  1
 27 28  1  0
 28 21  1  0
 29 30  1  0
 29 27  1  0
 31 29  2  0
M  END
$$$$
