WNM.pdb
     RDKit          3D

 31 32  0  0  1  0  0  0  0  0999 V2000
   27.5414  -19.7313  -17.4131 N   0  0  0  0  0  0  0  0  0  0  0  0
   27.5233  -19.0962  -16.0779 C   0  0  1  0  0  0  0  0  0  0  0  0
   26.9047  -17.7481  -16.2977 C   0  0  0  0  0  0  0  0  0  0  0  0
   27.7060  -16.8254  -17.1194 C   0  0  0  0  0  0  0  0  0  0  0  0
   27.1739  -15.7099  -17.7909 C   0  0  0  0  0  0  0  0  0  0  0  0
   28.1576  -15.0494  -18.4115 N   0  0  0  0  0  0  0  0  0  0  0  0
   29.3349  -15.6656  -18.1934 C   0  0  0  0  0  0  0  0  0  0  0  0
   30.6280  -15.3970  -18.6175 C   0  0  0  0  0  0  0  0  0  0  0  0
   31.6549  -16.2241  -18.2498 C   0  0  0  0  0  0  0  0  0  0  0  0
   31.3844  -17.3190  -17.4579 C   0  0  0  0  0  0  0  0  0  0  0  0
   30.0932  -17.5794  -17.0391 C   0  0  0  0  0  0  0  0  0  0  0  0
   29.0512  -16.7563  -17.3993 C   0  0  0  0  0  0  0  0  0  0  0  0
   26.7480  -19.9050  -15.1295 C   0  0  0  0  0  0  0  0  0  0  0  0
   25.9886  -20.8451  -15.4775 O   0  0  0  0  0  0  0  0  0  0  0  0
   24.9591  -22.1182  -10.8302 N   0  0  0  0  0  0  0  0  0  0  0  0
   25.8594  -21.0925  -10.3984 C   0  0  0  0  0  0  0  0  0  0  0  0
   26.0924  -21.0554   -9.1644 O   0  0  0  0  0  0  0  0  0  0  0  0
   26.4607  -20.1495  -11.3759 C   0  0  0  0  0  0  0  0  0  0  0  0
   26.0543  -20.4622  -12.7949 C   0  0  2  0  0  0  0  0  0  0  0  0
   26.8072  -19.6669  -13.7060 N   0  0  0  0  0  0  0  0  0  0  0  0
   24.5842  -20.2036  -12.8978 C   0  0  0  0  0  0  0  0  0  0  0  0
   24.2091  -19.0147  -12.7905 O   0  0  0  0  0  0  0  0  0  0  0  0
   19.7023  -21.3037  -17.5954 C   0  0  0  0  0  0  0  0  0  0  0  0
   19.4626  -22.1478  -16.0346 S   0  0  0  0  0  0  0  0  0  0  0  0
   20.1939  -21.2398  -14.6383 C   0  0  0  0  0  0  0  0  0  0  0  0
   21.6102  -21.5990  -14.4074 C   0  0  0  0  0  0  0  0  0  0  0  0
   22.2055  -20.8510  -13.2645 C   0  0  2  0  0  0  0  0  0  0  0  0
   23.6280  -21.2178  -13.1054 N   0  0  0  0  0  0  0  0  0  0  0  0
   21.5360  -21.2377  -12.0037 C   0  0  0  0  0  0  0  0  0  0  0  0
   20.2398  -20.7436  -11.7718 O   0  0  0  0  0  0  0  0  0  0  0  0
   22.0700  -21.9883  -11.1270 O   0  0  0  0  0  0  0  0  0  0  0  0
  2  1  1  6
  2 13  1  0
  2  3  1  0
  3  4  1  0
  4  5  2  0
  6  5  1  0
  7  6  1  0
  8  7  2  0
  9  8  1  0
 10 11  1  0
 10  9  2  0
 11 12  2  0
 12  7  1  0
 12  4  1  0
 13 14  2  0
 15 16  1  0
 16 17  2  0
 19 18  1  1
 18 16  1  0
 20 19  1  0
 20 13  1  0
 21 19  1  0
 22 21  2  0
 23 24  1  0
 24 25  1  0
 25 26  1  0
 27 26  1  6
 27 28  1  0
 28 21  1  0
 29 30  1  0
 29 27  1  0
 31 29  2  0
M  END
$$$$
