WNM.pdb
     RDKit          3D

 31 32  0  0  1  0  0  0  0  0999 V2000
   26.6630  -21.4228  -12.6657 N   0  0  0  0  0  0  0  0  0  0  0  0
   25.4017  -21.5074  -11.8987 C   0  0  1  0  0  0  0  0  0  0  0  0
   25.6614  -20.7377  -10.6384 C   0  0  0  0  0  0  0  0  0  0  0  0
   26.8966  -21.1103   -9.9283 C   0  0  0  0  0  0  0  0  0  0  0  0
   27.9359  -21.8627  -10.5047 C   0  0  0  0  0  0  0  0  0  0  0  0
   28.9339  -21.9960   -9.6243 N   0  0  0  0  0  0  0  0  0  0  0  0
   28.6204  -21.3692   -8.4745 C   0  0  0  0  0  0  0  0  0  0  0  0
   29.2928  -21.2256   -7.2698 C   0  0  0  0  0  0  0  0  0  0  0  0
   28.7126  -20.5355   -6.2397 C   0  0  0  0  0  0  0  0  0  0  0  0
   27.4595  -19.9906   -6.4185 C   0  0  0  0  0  0  0  0  0  0  0  0
   26.7963  -20.1377   -7.6223 C   0  0  0  0  0  0  0  0  0  0  0  0
   27.3674  -20.8272   -8.6670 C   0  0  0  0  0  0  0  0  0  0  0  0
   24.2883  -20.9379  -12.6672 C   0  0  0  0  0  0  0  0  0  0  0  0
   23.4052  -20.1968  -12.1646 O   0  0  0  0  0  0  0  0  0  0  0  0
   24.1219  -24.6414  -16.0977 N   0  0  0  0  0  0  0  0  0  0  0  0
   24.4118  -24.7150  -14.6978 C   0  0  0  0  0  0  0  0  0  0  0  0
   24.9558  -25.7785  -14.3086 O   0  0  0  0  0  0  0  0  0  0  0  0
   24.0760  -23.5860  -13.7928 C   0  0  0  0  0  0  0  0  0  0  0  0
   23.5200  -22.4001  -14.5418 C   0  0  2  0  0  0  0  0  0  0  0  0
   24.1309  -21.1991  -14.0792 N   0  0  0  0  0  0  0  0  0  0  0  0
   22.0391  -22.4012  -14.3287 C   0  0  0  0  0  0  0  0  0  0  0  0
   21.3203  -22.5222  -15.3458 O   0  0  0  0  0  0  0  0  0  0  0  0
   19.0374  -24.9322   -9.1390 C   0  0  0  0  0  0  0  0  0  0  0  0
   17.7745  -23.8159   -9.7436 S   0  0  0  0  0  0  0  0  0  0  0  0
   18.1823  -23.1318  -11.3790 C   0  0  0  0  0  0  0  0  0  0  0  0
   19.6353  -22.9219  -11.5600 C   0  0  0  0  0  0  0  0  0  0  0  0
   19.9740  -22.4566  -12.9345 C   0  0  2  0  0  0  0  0  0  0  0  0
   21.4348  -22.2748  -13.0619 N   0  0  0  0  0  0  0  0  0  0  0  0
   19.3697  -21.1296  -13.1821 C   0  0  0  0  0  0  0  0  0  0  0  0
   18.1562  -21.0843  -13.8917 O   0  0  0  0  0  0  0  0  0  0  0  0
   19.8887  -20.0375  -12.7882 O   0  0  0  0  0  0  0  0  0  0  0  0
  2  1  1  6
  2 13  1  0
  2  3  1  0
  3  4  1  0
  4  5  2  0
  6  5  1  0
  7  6  1  0
  8  7  2  0
  9  8  1  0
 10 11  1  0
 10  9  2  0
 11 12  2  0
 12  7  1  0
 12  4  1  0
 13 14  2  0
 15 16  1  0
 16 17  2  0
 19 18  1  1
 18 16  1  0
 20 19  1  0
 20 13  1  0
 21 19  1  0
 22 21  2  0
 23 24  1  0
 24 25  1  0
 25 26  1  0
 27 26  1  1
 27 28  1  0
 28 21  1  0
 29 30  1  0
 29 27  1  0
 31 29  2  0
M  END
$$$$
