DSA.pdb
     RDKit          3D

 20 19  0  0  1  0  0  0  0  0999 V2000
   16.0450  -10.4593  -15.7090 N   0  0  0  0  0  0  0  0  0  0  0  0
   16.7683  -10.5377  -14.4591 C   0  0  1  0  0  0  0  0  0  0  0  0
   17.9908  -11.4059  -14.6993 C   0  0  0  0  0  0  0  0  0  0  0  0
   17.6591  -12.8505  -14.7724 C   0  0  0  0  0  0  0  0  0  0  0  0
   16.7774  -13.4058  -14.0661 O   0  0  0  0  0  0  0  0  0  0  0  0
   17.2106   -9.1834  -14.0895 C   0  0  0  0  0  0  0  0  0  0  0  0
   17.4636   -8.3816  -15.0277 O   0  0  0  0  0  0  0  0  0  0  0  0
   18.3272  -13.7082  -15.6578 O   0  0  0  0  0  0  0  0  0  0  0  0
   17.9673   -7.6105  -10.1239 O   0  0  0  0  0  0  0  0  0  0  0  0
   17.4166   -6.8626  -11.1492 C   0  0  0  0  0  0  0  0  0  0  0  0
   17.8084   -7.3835  -12.5324 C   0  0  2  0  0  0  0  0  0  0  0  0
   17.3733   -8.7129  -12.7665 N   0  0  0  0  0  0  0  0  0  0  0  0
   19.2594   -7.1790  -12.6786 C   0  0  0  0  0  0  0  0  0  0  0  0
   20.0120   -8.1010  -12.2606 O   0  0  0  0  0  0  0  0  0  0  0  0
   21.8301   -6.8184  -14.4632 C   0  0  0  0  0  0  0  0  0  0  0  0
   21.2704   -5.9462  -13.3634 C   0  0  2  0  0  0  0  0  0  0  0  0
   19.8503   -6.0282  -13.2510 N   0  0  0  0  0  0  0  0  0  0  0  0
   21.6304   -4.5211  -13.6769 C   0  0  0  0  0  0  0  0  0  0  0  0
   20.7517   -3.6900  -14.0449 O   0  0  0  0  0  0  0  0  0  0  0  0
   22.9301   -4.0505  -13.5799 O   0  0  0  0  0  0  0  0  0  0  0  0
  2  1  1  6
  3  2  1  0
  3  4  1  0
  4  5  2  0
  6  2  1  0
  6  7  2  0
  8  4  1  0
 10  9  1  0
 11 10  1  1
 11 12  1  0
 12  6  1  0
 13 11  1  0
 14 13  2  0
 16 15  1  6
 16 17  1  0
 16 18  1  0
 17 13  1  0
 18 20  1  0
 19 18  2  0
M  END
$$$$
