DSA.pdb
     RDKit          3D

 20 19  0  0  1  0  0  0  0  0999 V2000
   16.0963  -10.7332  -16.6447 N   0  0  0  0  0  0  0  0  0  0  0  0
   17.0832  -10.5472  -15.6041 C   0  0  1  0  0  0  0  0  0  0  0  0
   18.0198  -11.7414  -15.6523 C   0  0  0  0  0  0  0  0  0  0  0  0
   17.4538  -12.9378  -14.9812 C   0  0  0  0  0  0  0  0  0  0  0  0
   16.3162  -12.9695  -14.4431 O   0  0  0  0  0  0  0  0  0  0  0  0
   17.8509   -9.3269  -15.9010 C   0  0  0  0  0  0  0  0  0  0  0  0
   18.3936   -9.2470  -17.0350 O   0  0  0  0  0  0  0  0  0  0  0  0
   18.1727  -14.1392  -14.9038 O   0  0  0  0  0  0  0  0  0  0  0  0
   17.3576   -5.6871  -13.9767 O   0  0  0  0  0  0  0  0  0  0  0  0
   17.8708   -5.7988  -15.2565 C   0  0  0  0  0  0  0  0  0  0  0  0
   18.6995   -7.0694  -15.4485 C   0  0  2  0  0  0  0  0  0  0  0  0
   18.0263   -8.2398  -15.0147 N   0  0  0  0  0  0  0  0  0  0  0  0
   20.0038   -6.8386  -14.8050 C   0  0  0  0  0  0  0  0  0  0  0  0
   20.1466   -7.2735  -13.6295 O   0  0  0  0  0  0  0  0  0  0  0  0
   23.4200   -5.4124  -15.5100 C   0  0  0  0  0  0  0  0  0  0  0  0
   22.2692   -5.9005  -14.6609 C   0  0  2  0  0  0  0  0  0  0  0  0
   21.0892   -6.1689  -15.4170 N   0  0  0  0  0  0  0  0  0  0  0  0
   21.9462   -4.8262  -13.6607 C   0  0  0  0  0  0  0  0  0  0  0  0
   21.0283   -3.9846  -13.8780 O   0  0  0  0  0  0  0  0  0  0  0  0
   22.6309   -4.7047  -12.4622 O   0  0  0  0  0  0  0  0  0  0  0  0
  2  1  1  6
  3  2  1  0
  3  4  1  0
  4  5  2  0
  6  2  1  0
  6  7  2  0
  8  4  1  0
 10  9  1  0
 11 10  1  1
 11 12  1  0
 12  6  1  0
 13 11  1  0
 14 13  2  0
 16 15  1  6
 16 17  1  0
 16 18  1  0
 17 13  1  0
 18 20  1  0
 19 18  2  0
M  END
$$$$
