DSA.pdb
     RDKit          3D

 20 19  0  0  1  0  0  0  0  0999 V2000
   29.2398   -9.6662  -18.1416 N   0  0  0  0  0  0  0  0  0  0  0  0
   30.5935   -9.3633  -18.5504 C   0  0  1  0  0  0  0  0  0  0  0  0
   30.5059   -8.4124  -19.7310 C   0  0  0  0  0  0  0  0  0  0  0  0
   30.1569   -9.1045  -20.9965 C   0  0  0  0  0  0  0  0  0  0  0  0
   29.9234  -10.3386  -21.0812 O   0  0  0  0  0  0  0  0  0  0  0  0
   31.2758   -8.6815  -17.4387 C   0  0  0  0  0  0  0  0  0  0  0  0
   30.5746   -7.9465  -16.6937 O   0  0  0  0  0  0  0  0  0  0  0  0
   30.0639   -8.4055  -22.2084 O   0  0  0  0  0  0  0  0  0  0  0  0
   35.4206   -8.8659  -16.6036 O   0  0  0  0  0  0  0  0  0  0  0  0
   34.5302   -8.7112  -15.5562 C   0  0  0  0  0  0  0  0  0  0  0  0
   33.1897   -8.1288  -16.0058 C   0  0  2  0  0  0  0  0  0  0  0  0
   32.6539   -8.7868  -17.1421 N   0  0  0  0  0  0  0  0  0  0  0  0
   33.3799   -6.6779  -16.1709 C   0  0  0  0  0  0  0  0  0  0  0  0
   33.6076   -6.2602  -17.3393 O   0  0  0  0  0  0  0  0  0  0  0  0
   32.8485   -3.4644  -14.3312 C   0  0  0  0  0  0  0  0  0  0  0  0
   33.4514   -4.3471  -15.3993 C   0  0  2  0  0  0  0  0  0  0  0  0
   33.3233   -5.7394  -15.1140 N   0  0  0  0  0  0  0  0  0  0  0  0
   34.9163   -4.0242  -15.4915 C   0  0  0  0  0  0  0  0  0  0  0  0
   35.7829   -4.7480  -14.9228 O   0  0  0  0  0  0  0  0  0  0  0  0
   35.3868   -2.9284  -16.1970 O   0  0  0  0  0  0  0  0  0  0  0  0
  2  1  1  1
  3  2  1  0
  3  4  1  0
  4  5  2  0
  6  2  1  0
  6  7  2  0
  8  4  1  0
 10  9  1  0
 11 10  1  6
 11 12  1  0
 12  6  1  0
 13 11  1  0
 14 13  2  0
 16 15  1  1
 16 17  1  0
 16 18  1  0
 17 13  1  0
 18 20  1  0
 19 18  2  0
M  END
$$$$
