DSA.pdb
     RDKit          3D

 20 19  0  0  1  0  0  0  0  0999 V2000
   18.2496  -12.1023  -15.9732 N   0  0  0  0  0  0  0  0  0  0  0  0
   18.7325  -10.9899  -16.7612 C   0  0  1  0  0  0  0  0  0  0  0  0
   17.5402  -10.4106  -17.5018 C   0  0  0  0  0  0  0  0  0  0  0  0
   17.0584  -11.2974  -18.5897 C   0  0  0  0  0  0  0  0  0  0  0  0
   15.8674  -11.6894  -18.7014 O   0  0  0  0  0  0  0  0  0  0  0  0
   19.2687   -9.9681  -15.8475 C   0  0  0  0  0  0  0  0  0  0  0  0
   18.5421   -9.6200  -14.8791 O   0  0  0  0  0  0  0  0  0  0  0  0
   17.9258  -11.7655  -19.5870 O   0  0  0  0  0  0  0  0  0  0  0  0
   22.8709   -8.0859  -13.4329 O   0  0  0  0  0  0  0  0  0  0  0  0
   22.4131   -8.9002  -14.4532 C   0  0  0  0  0  0  0  0  0  0  0  0
   21.0173   -8.5065  -14.9379 C   0  0  2  0  0  0  0  0  0  0  0  0
   20.5329   -9.3480  -15.9716 N   0  0  0  0  0  0  0  0  0  0  0  0
   21.0652   -7.0760  -15.2841 C   0  0  0  0  0  0  0  0  0  0  0  0
   21.5360   -6.7768  -16.4156 O   0  0  0  0  0  0  0  0  0  0  0  0
   19.5383   -3.8343  -14.3833 C   0  0  0  0  0  0  0  0  0  0  0  0
   20.6819   -4.6821  -14.8903 C   0  0  2  0  0  0  0  0  0  0  0  0
   20.6216   -6.0337  -14.4369 N   0  0  0  0  0  0  0  0  0  0  0  0
   21.9623   -4.0788  -14.3850 C   0  0  0  0  0  0  0  0  0  0  0  0
   22.5259   -4.5184  -13.3423 O   0  0  0  0  0  0  0  0  0  0  0  0
   22.5837   -3.0211  -15.0294 O   0  0  0  0  0  0  0  0  0  0  0  0
  2  1  1  1
  3  2  1  0
  3  4  1  0
  4  5  2  0
  6  2  1  0
  6  7  2  0
  8  4  1  0
 10  9  1  0
 11 10  1  6
 11 12  1  0
 12  6  1  0
 13 11  1  0
 14 13  2  0
 16 15  1  1
 16 17  1  0
 16 18  1  0
 17 13  1  0
 18 20  1  0
 19 18  2  0
M  END
$$$$
