DSA.pdb
     RDKit          3D

 20 19  0  0  1  0  0  0  0  0999 V2000
   17.0441  -11.0450  -17.3670 N   0  0  0  0  0  0  0  0  0  0  0  0
   17.5212  -10.6595  -16.0573 C   0  0  1  0  0  0  0  0  0  0  0  0
   18.5001  -11.7272  -15.6016 C   0  0  0  0  0  0  0  0  0  0  0  0
   17.8278  -12.9975  -15.2323 C   0  0  0  0  0  0  0  0  0  0  0  0
   16.9222  -13.0863  -14.3624 O   0  0  0  0  0  0  0  0  0  0  0  0
   18.2355   -9.3784  -16.1787 C   0  0  0  0  0  0  0  0  0  0  0  0
   19.0744   -9.2704  -17.1123 O   0  0  0  0  0  0  0  0  0  0  0  0
   18.1707  -14.2099  -15.8476 O   0  0  0  0  0  0  0  0  0  0  0  0
   17.2039   -5.8486  -14.1085 O   0  0  0  0  0  0  0  0  0  0  0  0
   17.7537   -5.8227  -15.3776 C   0  0  0  0  0  0  0  0  0  0  0  0
   18.6639   -7.0211  -15.6483 C   0  0  2  0  0  0  0  0  0  0  0  0
   18.0541   -8.2616  -15.3313 N   0  0  0  0  0  0  0  0  0  0  0  0
   19.9354   -6.7673  -14.9501 C   0  0  0  0  0  0  0  0  0  0  0  0
   20.0562   -7.2464  -13.7894 O   0  0  0  0  0  0  0  0  0  0  0  0
   23.3385   -5.2533  -15.5258 C   0  0  0  0  0  0  0  0  0  0  0  0
   22.2000   -5.8428  -14.7259 C   0  0  2  0  0  0  0  0  0  0  0  0
   21.0126   -6.0298  -15.4949 N   0  0  0  0  0  0  0  0  0  0  0  0
   21.8833   -4.8926  -13.6054 C   0  0  0  0  0  0  0  0  0  0  0  0
   22.6603   -4.7654  -12.6162 O   0  0  0  0  0  0  0  0  0  0  0  0
   20.7359   -4.1159  -13.5994 O   0  0  0  0  0  0  0  0  0  0  0  0
  2  1  1  6
  3  2  1  0
  3  4  1  0
  4  5  2  0
  6  2  1  0
  6  7  2  0
  8  4  1  0
 10  9  1  0
 11 10  1  1
 11 12  1  0
 12  6  1  0
 13 11  1  0
 14 13  2  0
 16 15  1  6
 16 17  1  0
 16 18  1  0
 17 13  1  0
 18 20  1  0
 19 18  2  0
M  END
$$$$
