DSA.pdb
     RDKit          3D

 20 19  0  0  1  0  0  0  0  0999 V2000
   13.3075   -9.2405  -10.1216 N   0  0  0  0  0  0  0  0  0  0  0  0
   14.7267   -9.5147  -10.0755 C   0  0  1  0  0  0  0  0  0  0  0  0
   14.9900  -10.6866  -11.0045 C   0  0  0  0  0  0  0  0  0  0  0  0
   14.4403  -11.9626  -10.4831 C   0  0  0  0  0  0  0  0  0  0  0  0
   13.7555  -12.0550   -9.4309 O   0  0  0  0  0  0  0  0  0  0  0  0
   15.4471   -8.3347  -10.5806 C   0  0  0  0  0  0  0  0  0  0  0  0
   14.9503   -7.7338  -11.5701 O   0  0  0  0  0  0  0  0  0  0  0  0
   14.6570  -13.1767  -11.1502 O   0  0  0  0  0  0  0  0  0  0  0  0
   17.6029   -5.7289   -8.3966 O   0  0  0  0  0  0  0  0  0  0  0  0
   17.1695   -5.4492   -9.6802 C   0  0  0  0  0  0  0  0  0  0  0  0
   17.2453   -6.6652  -10.6041 C   0  0  2  0  0  0  0  0  0  0  0  0
   16.6507   -7.8240  -10.0431 N   0  0  0  0  0  0  0  0  0  0  0  0
   18.6562   -6.8277  -10.9933 C   0  0  0  0  0  0  0  0  0  0  0  0
   19.4406   -7.2911  -10.1207 O   0  0  0  0  0  0  0  0  0  0  0  0
   20.8533   -7.0890  -13.9571 C   0  0  0  0  0  0  0  0  0  0  0  0
   20.5669   -6.6831  -12.5299 C   0  0  2  0  0  0  0  0  0  0  0  0
   19.1763   -6.5005  -12.2675 N   0  0  0  0  0  0  0  0  0  0  0  0
   21.2640   -5.3765  -12.2736 C   0  0  0  0  0  0  0  0  0  0  0  0
   20.6202   -4.2894  -12.2279 O   0  0  0  0  0  0  0  0  0  0  0  0
   22.6332   -5.2975  -12.0764 O   0  0  0  0  0  0  0  0  0  0  0  0
  2  1  1  6
  3  2  1  0
  3  4  1  0
  4  5  2  0
  6  2  1  0
  6  7  2  0
  8  4  1  0
 10  9  1  0
 11 10  1  1
 11 12  1  0
 12  6  1  0
 13 11  1  0
 14 13  2  0
 16 15  1  6
 16 17  1  0
 16 18  1  0
 17 13  1  0
 18 20  1  0
 19 18  2  0
M  END
$$$$
