DSA.pdb
     RDKit          3D

 20 19  0  0  1  0  0  0  0  0999 V2000
   18.7183  -11.2240  -16.6710 N   0  0  0  0  0  0  0  0  0  0  0  0
   19.4426  -10.1347  -17.2878 C   0  0  1  0  0  0  0  0  0  0  0  0
   18.6048   -9.6388  -18.4532 C   0  0  0  0  0  0  0  0  0  0  0  0
   18.5743  -10.5998  -19.5836 C   0  0  0  0  0  0  0  0  0  0  0  0
   17.5417  -11.2177  -19.9531 O   0  0  0  0  0  0  0  0  0  0  0  0
   19.5805   -9.0489  -16.3038 C   0  0  0  0  0  0  0  0  0  0  0  0
   18.5926   -8.8160  -15.5576 O   0  0  0  0  0  0  0  0  0  0  0  0
   19.7270  -10.8855  -20.3292 O   0  0  0  0  0  0  0  0  0  0  0  0
   22.0680   -6.6915  -13.0821 O   0  0  0  0  0  0  0  0  0  0  0  0
   21.9721   -7.6195  -14.1037 C   0  0  0  0  0  0  0  0  0  0  0  0
   20.8071   -7.3318  -15.0513 C   0  0  2  0  0  0  0  0  0  0  0  0
   20.7328   -8.2486  -16.1308 N   0  0  0  0  0  0  0  0  0  0  0  0
   20.9128   -5.9191  -15.4533 C   0  0  0  0  0  0  0  0  0  0  0  0
   21.7690   -5.6381  -16.3361 O   0  0  0  0  0  0  0  0  0  0  0  0
   19.1195   -2.6434  -15.0809 C   0  0  0  0  0  0  0  0  0  0  0  0
   20.2892   -3.5439  -15.4045 C   0  0  2  0  0  0  0  0  0  0  0  0
   20.1237   -4.8747  -14.9170 N   0  0  0  0  0  0  0  0  0  0  0  0
   21.5133   -2.9603  -14.7566 C   0  0  0  0  0  0  0  0  0  0  0  0
   21.9720   -1.8384  -15.1161 O   0  0  0  0  0  0  0  0  0  0  0  0
   22.1943   -3.6151  -13.7430 O   0  0  0  0  0  0  0  0  0  0  0  0
  2  1  1  1
  3  2  1  0
  3  4  1  0
  4  5  2  0
  6  2  1  0
  6  7  2  0
  8  4  1  0
 10  9  1  0
 11 10  1  6
 11 12  1  0
 12  6  1  0
 13 11  1  0
 14 13  2  0
 16 15  1  1
 16 17  1  0
 16 18  1  0
 17 13  1  0
 18 20  1  0
 19 18  2  0
M  END
$$$$
