DSA.pdb
     RDKit          3D

 20 19  0  0  1  0  0  0  0  0999 V2000
   17.3569  -11.4117  -17.2991 N   0  0  0  0  0  0  0  0  0  0  0  0
   17.7788  -10.9319  -16.0017 C   0  0  1  0  0  0  0  0  0  0  0  0
   18.8045  -11.9165  -15.4685 C   0  0  0  0  0  0  0  0  0  0  0  0
   18.1920  -13.1916  -15.0200 C   0  0  0  0  0  0  0  0  0  0  0  0
   17.1959  -13.2614  -14.2534 O   0  0  0  0  0  0  0  0  0  0  0  0
   18.4228   -9.6199  -16.1756 C   0  0  0  0  0  0  0  0  0  0  0  0
   19.1944   -9.4807  -17.1616 O   0  0  0  0  0  0  0  0  0  0  0  0
   18.7006  -14.4306  -15.4348 O   0  0  0  0  0  0  0  0  0  0  0  0
   17.2900   -6.1076  -14.1691 O   0  0  0  0  0  0  0  0  0  0  0  0
   17.8731   -6.0781  -15.4233 C   0  0  0  0  0  0  0  0  0  0  0  0
   18.8212   -7.2545  -15.6582 C   0  0  2  0  0  0  0  0  0  0  0  0
   18.2435   -8.5058  -15.3241 N   0  0  0  0  0  0  0  0  0  0  0  0
   20.0755   -6.9498  -14.9493 C   0  0  0  0  0  0  0  0  0  0  0  0
   20.1877   -7.3877  -13.7715 O   0  0  0  0  0  0  0  0  0  0  0  0
   23.4566   -5.3881  -15.5277 C   0  0  0  0  0  0  0  0  0  0  0  0
   22.3206   -5.9792  -14.7253 C   0  0  2  0  0  0  0  0  0  0  0  0
   21.1453   -6.2072  -15.5016 N   0  0  0  0  0  0  0  0  0  0  0  0
   21.9744   -5.0079  -13.6318 C   0  0  0  0  0  0  0  0  0  0  0  0
   21.0229   -4.1861  -13.7638 O   0  0  0  0  0  0  0  0  0  0  0  0
   22.6731   -4.9641  -12.4361 O   0  0  0  0  0  0  0  0  0  0  0  0
  2  1  1  6
  3  2  1  0
  3  4  1  0
  4  5  2  0
  6  2  1  0
  6  7  2  0
  8  4  1  0
 10  9  1  0
 11 10  1  1
 11 12  1  0
 12  6  1  0
 13 11  1  0
 14 13  2  0
 16 15  1  6
 16 17  1  0
 16 18  1  0
 17 13  1  0
 18 20  1  0
 19 18  2  0
M  END
$$$$
