DSA.pdb
     RDKit          3D

 20 19  0  0  1  0  0  0  0  0999 V2000
   24.8380  -10.7263  -16.8831 N   0  0  0  0  0  0  0  0  0  0  0  0
   25.0213   -9.3189  -16.6053 C   0  0  1  0  0  0  0  0  0  0  0  0
   26.2285   -8.8557  -17.4016 C   0  0  0  0  0  0  0  0  0  0  0  0
   27.4979   -9.4445  -16.9075 C   0  0  0  0  0  0  0  0  0  0  0  0
   27.5699  -10.2537  -15.9459 O   0  0  0  0  0  0  0  0  0  0  0  0
   23.8318   -8.5910  -17.0761 C   0  0  0  0  0  0  0  0  0  0  0  0
   23.4254   -8.8403  -18.2421 O   0  0  0  0  0  0  0  0  0  0  0  0
   28.7286   -9.1255  -17.4989 O   0  0  0  0  0  0  0  0  0  0  0  0
   20.5797   -7.7195  -14.9935 O   0  0  0  0  0  0  0  0  0  0  0  0
   20.6541   -7.6672  -16.3739 C   0  0  0  0  0  0  0  0  0  0  0  0
   21.9519   -7.0276  -16.8686 C   0  0  2  0  0  0  0  0  0  0  0  0
   23.1112   -7.6358  -16.3234 N   0  0  0  0  0  0  0  0  0  0  0  0
   21.8449   -5.5800  -16.6203 C   0  0  0  0  0  0  0  0  0  0  0  0
   22.1948   -5.1678  -15.4805 O   0  0  0  0  0  0  0  0  0  0  0  0
   20.9279   -2.3658  -18.3698 C   0  0  0  0  0  0  0  0  0  0  0  0
   21.2780   -3.2628  -17.2052 C   0  0  2  0  0  0  0  0  0  0  0  0
   21.3805   -4.6388  -17.5687 N   0  0  0  0  0  0  0  0  0  0  0  0
   20.1875   -3.1330  -16.1792 C   0  0  0  0  0  0  0  0  0  0  0  0
   19.2275   -3.9544  -16.1372 O   0  0  0  0  0  0  0  0  0  0  0  0
   20.1789   -2.1170  -15.2370 O   0  0  0  0  0  0  0  0  0  0  0  0
  2  1  1  6
  3  2  1  0
  3  4  1  0
  4  5  2  0
  6  2  1  0
  6  7  2  0
  8  4  1  0
 10  9  1  0
 11 10  1  1
 11 12  1  0
 12  6  1  0
 13 11  1  0
 14 13  2  0
 16 15  1  6
 16 17  1  0
 16 18  1  0
 17 13  1  0
 18 20  1  0
 19 18  2  0
M  END
$$$$
