DSA.pdb
     RDKit          3D

 20 19  0  0  1  0  0  0  0  0999 V2000
   20.6212  -11.8264  -18.9526 N   0  0  0  0  0  0  0  0  0  0  0  0
   21.6278  -10.9500  -18.3958 C   0  0  1  0  0  0  0  0  0  0  0  0
   22.3619  -10.3092  -19.5605 C   0  0  0  0  0  0  0  0  0  0  0  0
   23.2451  -11.2650  -20.2735 C   0  0  0  0  0  0  0  0  0  0  0  0
   23.0335  -11.6789  -21.4435 O   0  0  0  0  0  0  0  0  0  0  0  0
   20.9530   -9.8967  -17.6202 C   0  0  0  0  0  0  0  0  0  0  0  0
   19.8447   -9.4812  -18.0515 O   0  0  0  0  0  0  0  0  0  0  0  0
   24.4012  -11.7796  -19.6697 O   0  0  0  0  0  0  0  0  0  0  0  0
   19.4133   -7.8021  -13.7744 O   0  0  0  0  0  0  0  0  0  0  0  0
   20.1927   -8.7630  -14.3932 C   0  0  0  0  0  0  0  0  0  0  0  0
   20.7033   -8.3131  -15.7624 C   0  0  2  0  0  0  0  0  0  0  0  0
   21.4503   -9.3161  -16.4312 N   0  0  0  0  0  0  0  0  0  0  0  0
   21.4232   -7.0441  -15.5620 C   0  0  0  0  0  0  0  0  0  0  0  0
   22.6206   -7.1211  -15.1728 O   0  0  0  0  0  0  0  0  0  0  0  0
   20.9798   -3.3218  -15.9638 C   0  0  0  0  0  0  0  0  0  0  0  0
   21.6260   -4.5978  -15.4760 C   0  0  2  0  0  0  0  0  0  0  0  0
   20.8607   -5.7640  -15.7767 N   0  0  0  0  0  0  0  0  0  0  0  0
   21.7625   -4.5037  -13.9823 C   0  0  0  0  0  0  0  0  0  0  0  0
   20.8619   -4.9469  -13.2138 O   0  0  0  0  0  0  0  0  0  0  0  0
   22.8706   -3.9322  -13.3778 O   0  0  0  0  0  0  0  0  0  0  0  0
  2  1  1  6
  3  2  1  0
  3  4  1  0
  4  5  2  0
  6  2  1  0
  6  7  2  0
  8  4  1  0
 10  9  1  0
 11 10  1  1
 11 12  1  0
 12  6  1  0
 13 11  1  0
 14 13  2  0
 16 15  1  1
 16 17  1  0
 16 18  1  0
 17 13  1  0
 18 20  1  0
 19 18  2  0
M  END
$$$$
