DSA.pdb
     RDKit          3D

 20 19  0  0  1  0  0  0  0  0999 V2000
   17.6755  -11.8122  -17.4547 N   0  0  0  0  0  0  0  0  0  0  0  0
   18.0550  -11.2463  -16.1790 C   0  0  1  0  0  0  0  0  0  0  0  0
   19.1040  -12.1623  -15.5735 C   0  0  0  0  0  0  0  0  0  0  0  0
   18.5363  -13.4536  -15.1127 C   0  0  0  0  0  0  0  0  0  0  0  0
   17.5394  -13.5509  -14.3503 O   0  0  0  0  0  0  0  0  0  0  0  0
   18.6560   -9.9236  -16.4149 C   0  0  0  0  0  0  0  0  0  0  0  0
   19.3657   -9.7868  -17.4467 O   0  0  0  0  0  0  0  0  0  0  0  0
   19.0923  -14.6779  -15.5101 O   0  0  0  0  0  0  0  0  0  0  0  0
   17.4470   -6.3488  -14.6081 O   0  0  0  0  0  0  0  0  0  0  0  0
   18.0955   -6.3858  -15.8295 C   0  0  0  0  0  0  0  0  0  0  0  0
   19.0767   -7.5535  -15.9385 C   0  0  2  0  0  0  0  0  0  0  0  0
   18.4994   -8.7970  -15.5757 N   0  0  0  0  0  0  0  0  0  0  0  0
   20.2762   -7.1864  -15.1671 C   0  0  0  0  0  0  0  0  0  0  0  0
   20.3783   -7.6671  -14.0052 O   0  0  0  0  0  0  0  0  0  0  0  0
   23.5965   -5.4679  -15.6290 C   0  0  0  0  0  0  0  0  0  0  0  0
   22.4935   -6.1717  -14.8728 C   0  0  2  0  0  0  0  0  0  0  0  0
   21.3047   -6.3403  -15.6438 N   0  0  0  0  0  0  0  0  0  0  0  0
   22.1535   -5.3366  -13.6704 C   0  0  0  0  0  0  0  0  0  0  0  0
   21.1751   -4.5361  -13.6853 O   0  0  0  0  0  0  0  0  0  0  0  0
   22.8872   -5.4008  -12.4968 O   0  0  0  0  0  0  0  0  0  0  0  0
  2  1  1  6
  3  2  1  0
  3  4  1  0
  4  5  2  0
  6  2  1  0
  6  7  2  0
  8  4  1  0
 10  9  1  0
 11 10  1  1
 11 12  1  0
 12  6  1  0
 13 11  1  0
 14 13  2  0
 16 15  1  6
 16 17  1  0
 16 18  1  0
 17 13  1  0
 18 20  1  0
 19 18  2  0
M  END
$$$$
