DSA.pdb
     RDKit          3D

 20 19  0  0  1  0  0  0  0  0999 V2000
   22.1707   -7.2610  -17.7092 N   0  0  0  0  0  0  0  0  0  0  0  0
   23.0194   -6.8618  -16.6083 C   0  0  1  0  0  0  0  0  0  0  0  0
   23.9288   -8.0358  -16.2913 C   0  0  0  0  0  0  0  0  0  0  0  0
   23.1741   -9.2551  -15.9093 C   0  0  0  0  0  0  0  0  0  0  0  0
   23.3888  -10.3959  -16.3963 O   0  0  0  0  0  0  0  0  0  0  0  0
   23.8447   -5.7235  -17.0436 C   0  0  0  0  0  0  0  0  0  0  0  0
   24.6737   -5.2605  -16.2157 O   0  0  0  0  0  0  0  0  0  0  0  0
   22.1470   -9.2084  -14.9558 O   0  0  0  0  0  0  0  0  0  0  0  0
   26.2783   -3.2951  -20.2964 O   0  0  0  0  0  0  0  0  0  0  0  0
   25.2567   -4.1961  -20.0548 C   0  0  0  0  0  0  0  0  0  0  0  0
   24.6758   -4.0619  -18.6467 C   0  0  2  0  0  0  0  0  0  0  0  0
   23.7801   -5.1104  -18.3157 N   0  0  0  0  0  0  0  0  0  0  0  0
   24.1025   -2.7097  -18.5404 C   0  0  0  0  0  0  0  0  0  0  0  0
   22.8802   -2.5826  -18.8253 O   0  0  0  0  0  0  0  0  0  0  0  0
   24.1989    0.2890  -16.6649 C   0  0  0  0  0  0  0  0  0  0  0  0
   24.1654   -0.3027  -18.0550 C   0  0  2  0  0  0  0  0  0  0  0  0
   24.8293   -1.5627  -18.1439 N   0  0  0  0  0  0  0  0  0  0  0  0
   24.8606    0.6555  -18.9808 C   0  0  0  0  0  0  0  0  0  0  0  0
   25.9189    0.3263  -19.5889 O   0  0  0  0  0  0  0  0  0  0  0  0
   24.3821    1.9351  -19.2126 O   0  0  0  0  0  0  0  0  0  0  0  0
  2  1  1  6
  3  2  1  0
  3  4  1  0
  4  5  2  0
  6  2  1  0
  6  7  2  0
  8  4  1  0
 10  9  1  0
 11 10  1  6
 11 12  1  0
 12  6  1  0
 13 11  1  0
 14 13  2  0
 16 15  1  1
 16 17  1  0
 16 18  1  0
 17 13  1  0
 18 20  1  0
 19 18  2  0
M  END
$$$$
