DSA.pdb
     RDKit          3D

 20 19  0  0  1  0  0  0  0  0999 V2000
   18.1782  -10.3368  -15.3375 N   0  0  0  0  0  0  0  0  0  0  0  0
   19.2844   -9.7074  -16.0244 C   0  0  1  0  0  0  0  0  0  0  0  0
   18.8511   -9.4782  -17.4616 C   0  0  0  0  0  0  0  0  0  0  0  0
   18.8377  -10.7291  -18.2598 C   0  0  0  0  0  0  0  0  0  0  0  0
   18.5008  -10.7861  -19.4714 O   0  0  0  0  0  0  0  0  0  0  0  0
   19.5467   -8.4045  -15.3920 C   0  0  0  0  0  0  0  0  0  0  0  0
   18.5483   -7.7131  -15.0569 O   0  0  0  0  0  0  0  0  0  0  0  0
   19.2098  -11.9579  -17.6963 O   0  0  0  0  0  0  0  0  0  0  0  0
   22.3065   -5.5200  -12.7231 O   0  0  0  0  0  0  0  0  0  0  0  0
   22.1879   -6.6835  -13.4620 C   0  0  0  0  0  0  0  0  0  0  0  0
   20.9623   -6.6765  -14.3762 C   0  0  2  0  0  0  0  0  0  0  0  0
   20.8289   -7.8694  -15.1316 N   0  0  0  0  0  0  0  0  0  0  0  0
   21.0280   -5.4454  -15.1815 C   0  0  0  0  0  0  0  0  0  0  0  0
   21.8123   -5.4494  -16.1695 O   0  0  0  0  0  0  0  0  0  0  0  0
   19.0002   -2.4753  -15.9855 C   0  0  0  0  0  0  0  0  0  0  0  0
   20.3264   -3.1834  -15.8326 C   0  0  2  0  0  0  0  0  0  0  0  0
   20.2758   -4.2769  -14.9173 N   0  0  0  0  0  0  0  0  0  0  0  0
   21.3237   -2.1869  -15.3117 C   0  0  0  0  0  0  0  0  0  0  0  0
   21.6399   -1.1647  -15.9850 O   0  0  0  0  0  0  0  0  0  0  0  0
   21.9408   -2.3362  -14.0801 O   0  0  0  0  0  0  0  0  0  0  0  0
  2  1  1  1
  3  2  1  0
  3  4  1  0
  4  5  2  0
  6  2  1  0
  6  7  2  0
  8  4  1  0
 10  9  1  0
 11 10  1  6
 11 12  1  0
 12  6  1  0
 13 11  1  0
 14 13  2  0
 16 15  1  1
 16 17  1  0
 16 18  1  0
 17 13  1  0
 18 20  1  0
 19 18  2  0
M  END
$$$$
