DSA.pdb
     RDKit          3D

 20 19  0  0  1  0  0  0  0  0999 V2000
   16.7794  -11.1313  -16.8060 N   0  0  0  0  0  0  0  0  0  0  0  0
   17.2080  -10.6633  -15.5064 C   0  0  1  0  0  0  0  0  0  0  0  0
   18.1822  -11.6900  -14.9562 C   0  0  0  0  0  0  0  0  0  0  0  0
   17.5123  -12.9479  -14.5428 C   0  0  0  0  0  0  0  0  0  0  0  0
   16.5494  -12.9983  -13.7335 O   0  0  0  0  0  0  0  0  0  0  0  0
   17.9125   -9.3827  -15.6800 C   0  0  0  0  0  0  0  0  0  0  0  0
   18.6765   -9.2735  -16.6757 O   0  0  0  0  0  0  0  0  0  0  0  0
   17.9236  -14.1916  -15.0429 O   0  0  0  0  0  0  0  0  0  0  0  0
   17.0923   -5.8777  -13.4945 O   0  0  0  0  0  0  0  0  0  0  0  0
   17.5685   -5.8210  -14.7922 C   0  0  0  0  0  0  0  0  0  0  0  0
   18.4174   -7.0383  -15.1603 C   0  0  2  0  0  0  0  0  0  0  0  0
   17.7989   -8.2678  -14.8184 N   0  0  0  0  0  0  0  0  0  0  0  0
   19.7488   -6.8356  -14.5646 C   0  0  0  0  0  0  0  0  0  0  0  0
   19.9710   -7.3960  -13.4565 O   0  0  0  0  0  0  0  0  0  0  0  0
   23.1394   -5.4568  -15.4127 C   0  0  0  0  0  0  0  0  0  0  0  0
   22.0447   -5.9650  -14.5033 C   0  0  2  0  0  0  0  0  0  0  0  0
   20.7774   -6.0620  -15.1517 N   0  0  0  0  0  0  0  0  0  0  0  0
   21.9094   -4.9986  -13.3602 C   0  0  0  0  0  0  0  0  0  0  0  0
   21.0015   -4.1189  -13.3512 O   0  0  0  0  0  0  0  0  0  0  0  0
   22.7638   -5.0223  -12.2697 O   0  0  0  0  0  0  0  0  0  0  0  0
  2  1  1  6
  3  2  1  0
  3  4  1  0
  4  5  2  0
  6  2  1  0
  6  7  2  0
  8  4  1  0
 10  9  1  0
 11 10  1  1
 11 12  1  0
 12  6  1  0
 13 11  1  0
 14 13  2  0
 16 15  1  6
 16 17  1  0
 16 18  1  0
 17 13  1  0
 18 20  1  0
 19 18  2  0
M  END
$$$$
