CRK.pdb
     RDKit          3D

 27 26  0  0  1  0  0  0  0  0999 V2000
   27.0198  -20.4806  -10.6672 N   0  0  0  0  0  0  0  0  0  0  0  0
   25.7569  -21.1449  -10.9037 C   0  0  1  0  0  0  0  0  0  0  0  0
   24.7051  -20.4463  -10.0575 C   0  0  0  0  0  0  0  0  0  0  0  0
   25.1565  -20.6287   -8.3075 S   0  0  0  0  0  0  0  0  0  0  0  0
   25.3774  -21.0520  -12.3255 C   0  0  0  0  0  0  0  0  0  0  0  0
   25.4775  -19.9641  -12.9274 O   0  0  0  0  0  0  0  0  0  0  0  0
   27.6532  -26.4412  -18.1927 N   0  0  0  0  0  0  0  0  0  0  0  0
   27.3775  -26.2229  -16.8246 C   0  0  0  0  0  0  0  0  0  0  0  0
   27.7558  -27.0464  -15.8831 N   0  0  0  0  0  0  0  0  0  0  0  0
   26.6515  -25.0527  -16.4250 N   0  0  0  0  0  0  0  0  0  0  0  0
   25.7213  -24.3877  -17.2942 C   0  0  0  0  0  0  0  0  0  0  0  0
   25.0278  -23.3000  -16.5173 C   0  0  0  0  0  0  0  0  0  0  0  0
   25.3207  -23.3752  -15.0337 C   0  0  0  0  0  0  0  0  0  0  0  0
   24.6106  -22.1715  -14.4039 C   0  0  2  0  0  0  0  0  0  0  0  0
   24.9005  -22.2072  -12.9959 N   0  0  0  0  0  0  0  0  0  0  0  0
   23.1565  -22.2628  -14.6216 C   0  0  0  0  0  0  0  0  0  0  0  0
   22.4956  -23.0457  -13.8791 O   0  0  0  0  0  0  0  0  0  0  0  0
   27.5093  -26.8429  -14.8888 N   0  0  0  0  0  0  0  0  0  0  0  0
   22.4510  -21.5506  -15.5855 C   0  0  2  0  0  0  0  0  0  0  0  0
   20.9374  -21.5699  -15.6653 C   0  0  0  0  0  0  0  0  0  0  0  0
   20.5153  -20.2334  -16.0904 C   0  0  0  0  0  0  0  0  0  0  0  0
   19.1409  -19.8258  -16.2544 C   0  0  0  0  0  0  0  0  0  0  0  0
   18.7416  -18.4764  -16.7288 C   0  0  0  0  0  0  0  0  0  0  0  0
   17.2591  -18.2828  -16.9296 N   0  0  0  0  0  0  0  0  0  0  0  0
   16.9513  -16.9390  -17.3032 C   0  0  0  0  0  0  0  0  0  0  0  0
   20.5680  -22.7684  -16.3961 O   0  0  0  0  0  0  0  0  0  0  0  0
   19.3608  -23.2417  -16.2897 O   0  0  0  0  0  0  0  0  0  0  0  0
  2  5  1  0
  2  1  1  6
  3  2  1  0
  4  3  1  0
  5  6  2  0
  8 10  1  0
  8  7  1  0
  9  8  2  0
 11 10  1  0
 11 12  1  0
 13 12  1  0
 14 13  1  6
 15 14  1  0
 15  5  1  0
 16 17  2  0
 16 14  1  0
 18 16  1  0
 19 18  1  0
 19 25  1  0
 19 20  1  6
 21 20  1  0
 22 21  1  0
 23 22  1  0
 23 24  1  0
 25 27  1  0
 26 25  2  0
M  END
$$$$
