CRK.pdb
     RDKit          3D

 27 26  0  0  1  0  0  0  0  0999 V2000
   25.6425  -21.9025  -18.9205 N   0  0  0  0  0  0  0  0  0  0  0  0
   25.4383  -20.7780  -18.0339 C   0  0  1  0  0  0  0  0  0  0  0  0
   24.5037  -19.8050  -18.7341 C   0  0  0  0  0  0  0  0  0  0  0  0
   25.4373  -18.9356  -20.0271 S   0  0  0  0  0  0  0  0  0  0  0  0
   24.8233  -21.2175  -16.7679 C   0  0  0  0  0  0  0  0  0  0  0  0
   23.8813  -22.0348  -16.7836 O   0  0  0  0  0  0  0  0  0  0  0  0
   28.0135  -21.6503   -9.0368 N   0  0  0  0  0  0  0  0  0  0  0  0
   28.1785  -21.3286  -10.4024 C   0  0  0  0  0  0  0  0  0  0  0  0
   29.2243  -21.6916  -11.0968 N   0  0  0  0  0  0  0  0  0  0  0  0
   27.1673  -20.5707  -11.0799 N   0  0  0  0  0  0  0  0  0  0  0  0
   25.7888  -20.5900  -10.6769 C   0  0  0  0  0  0  0  0  0  0  0  0
   24.9388  -20.9047  -11.8794 C   0  0  0  0  0  0  0  0  0  0  0  0
   25.6739  -20.6699  -13.1820 C   0  0  0  0  0  0  0  0  0  0  0  0
   24.6963  -21.0678  -14.2936 C   0  0  2  0  0  0  0  0  0  0  0  0
   25.3129  -20.7030  -15.5404 N   0  0  0  0  0  0  0  0  0  0  0  0
   23.4194  -20.3506  -14.1340 C   0  0  0  0  0  0  0  0  0  0  0  0
   23.4311  -19.0903  -14.2465 O   0  0  0  0  0  0  0  0  0  0  0  0
   29.3234  -21.3730  -12.0864 N   0  0  0  0  0  0  0  0  0  0  0  0
   22.1959  -20.9558  -13.8677 C   0  0  1  0  0  0  0  0  0  0  0  0
   20.9256  -20.1591  -13.6458 C   0  0  0  0  0  0  0  0  0  0  0  0
   19.9051  -20.7281  -14.5288 C   0  0  0  0  0  0  0  0  0  0  0  0
   18.5345  -20.2807  -14.5858 C   0  0  0  0  0  0  0  0  0  0  0  0
   17.5064  -20.9106  -15.4530 C   0  0  0  0  0  0  0  0  0  0  0  0
   16.1213  -20.3260  -15.3294 N   0  0  0  0  0  0  0  0  0  0  0  0
   15.1657  -21.0779  -16.0788 C   0  0  0  0  0  0  0  0  0  0  0  0
   20.7376  -20.0547  -12.2103 O   0  0  0  0  0  0  0  0  0  0  0  0
   21.3036  -20.9208  -11.4216 O   0  0  0  0  0  0  0  0  0  0  0  0
  2  5  1  0
  2  1  1  6
  3  2  1  0
  4  3  1  0
  5  6  2  0
  8 10  1  0
  8  7  1  0
  9  8  2  0
 11 10  1  0
 11 12  1  0
 13 12  1  0
 14 13  1  1
 15 14  1  0
 15  5  1  0
 16 17  2  0
 16 14  1  0
 18 16  1  0
 19 18  1  0
 19 25  1  0
 19 20  1  6
 21 20  1  0
 22 21  1  0
 23 22  1  0
 23 24  1  0
 25 27  1  0
 26 25  2  0
M  END
$$$$
