CRK.pdb
     RDKit          3D

 27 26  0  0  1  0  0  0  0  0999 V2000
   26.5114  -12.9556  -16.5430 N   0  0  0  0  0  0  0  0  0  0  0  0
   26.1679  -11.6452  -16.0361 C   0  0  1  0  0  0  0  0  0  0  0  0
   27.4059  -10.7704  -16.1484 C   0  0  0  0  0  0  0  0  0  0  0  0
   27.0325   -9.1452  -15.4282 S   0  0  0  0  0  0  0  0  0  0  0  0
   25.0775  -11.0490  -16.8297 C   0  0  0  0  0  0  0  0  0  0  0  0
   24.9622  -11.3292  -18.0396 O   0  0  0  0  0  0  0  0  0  0  0  0
   19.4155  -12.1653  -19.9197 N   0  0  0  0  0  0  0  0  0  0  0  0
   19.9150  -13.3899  -19.4231 C   0  0  0  0  0  0  0  0  0  0  0  0
   19.8931  -14.4989  -20.1140 N   0  0  0  0  0  0  0  0  0  0  0  0
   20.4763  -13.4449  -18.1048 N   0  0  0  0  0  0  0  0  0  0  0  0
   20.4717  -12.3160  -17.2167 C   0  0  0  0  0  0  0  0  0  0  0  0
   21.7071  -11.4943  -17.4745 C   0  0  0  0  0  0  0  0  0  0  0  0
   21.8104  -10.3026  -16.5463 C   0  0  0  0  0  0  0  0  0  0  0  0
   23.0917   -9.5648  -16.9512 C   0  0  2  0  0  0  0  0  0  0  0  0
   24.1675  -10.1588  -16.2044 N   0  0  0  0  0  0  0  0  0  0  0  0
   22.9829   -8.1322  -16.6254 C   0  0  0  0  0  0  0  0  0  0  0  0
   22.7925   -7.8138  -15.4157 O   0  0  0  0  0  0  0  0  0  0  0  0
   20.3096  -15.3674  -19.7104 N   0  0  0  0  0  0  0  0  0  0  0  0
   23.0739   -7.0978  -17.5505 C   0  0  1  0  0  0  0  0  0  0  0  0
   22.8537   -5.6466  -17.1720 C   0  0  0  0  0  0  0  0  0  0  0  0
   21.4180   -5.3859  -17.2976 C   0  0  0  0  0  0  0  0  0  0  0  0
   20.7456   -4.2381  -16.7386 C   0  0  0  0  0  0  0  0  0  0  0  0
   19.2805   -4.0196  -16.8447 C   0  0  0  0  0  0  0  0  0  0  0  0
   18.7722   -2.7640  -16.1808 N   0  0  0  0  0  0  0  0  0  0  0  0
   17.3513   -2.6567  -16.2794 C   0  0  0  0  0  0  0  0  0  0  0  0
   23.5778   -5.4179  -15.9350 O   0  0  0  0  0  0  0  0  0  0  0  0
   24.0573   -6.4297  -15.2725 O   0  0  0  0  0  0  0  0  0  0  0  0
  2  5  1  0
  2  1  1  6
  3  2  1  0
  4  3  1  0
  5  6  2  0
  8 10  1  0
  8  7  1  0
  9  8  2  0
 11 10  1  0
 11 12  1  0
 13 12  1  0
 14 13  1  1
 15 14  1  0
 15  5  1  0
 16 17  2  0
 16 14  1  0
 18 16  1  0
 19 18  1  0
 19 25  1  0
 19 20  1  6
 21 20  1  0
 22 21  1  0
 23 22  1  0
 23 24  1  0
 25 27  1  0
 26 25  2  0
M  END
$$$$
