CRK.pdb
     RDKit          3D

 27 26  0  0  1  0  0  0  0  0999 V2000
    8.6087  -20.5408   -3.0638 N   0  0  0  0  0  0  0  0  0  0  0  0
    9.9442  -19.9857   -3.0466 C   0  0  1  0  0  0  0  0  0  0  0  0
    9.8905  -18.6841   -2.2634 C   0  0  0  0  0  0  0  0  0  0  0  0
    9.3322  -17.3621   -3.3770 S   0  0  0  0  0  0  0  0  0  0  0  0
   10.8847  -20.9110   -2.3881 C   0  0  0  0  0  0  0  0  0  0  0  0
   10.7228  -21.2154   -1.1894 O   0  0  0  0  0  0  0  0  0  0  0  0
   18.4602  -25.1872   -4.9157 N   0  0  0  0  0  0  0  0  0  0  0  0
   17.8892  -25.7915   -3.7736 C   0  0  0  0  0  0  0  0  0  0  0  0
   18.4174  -26.8284   -3.1790 N   0  0  0  0  0  0  0  0  0  0  0  0
   16.6758  -25.2622   -3.2227 N   0  0  0  0  0  0  0  0  0  0  0  0
   15.9123  -24.2385   -3.8800 C   0  0  0  0  0  0  0  0  0  0  0  0
   14.8086  -23.7924   -2.9577 C   0  0  0  0  0  0  0  0  0  0  0  0
   13.8985  -22.7680   -3.6017 C   0  0  0  0  0  0  0  0  0  0  0  0
   12.9131  -22.3364   -2.5097 C   0  0  2  0  0  0  0  0  0  0  0  0
   11.9683  -21.4470   -3.1296 N   0  0  0  0  0  0  0  0  0  0  0  0
   13.6242  -21.6391   -1.4241 C   0  0  0  0  0  0  0  0  0  0  0  0
   13.9997  -20.4488   -1.6323 O   0  0  0  0  0  0  0  0  0  0  0  0
   17.9487  -27.2372   -2.3400 N   0  0  0  0  0  0  0  0  0  0  0  0
   13.9160  -22.1919   -0.1818 C   0  0  1  0  0  0  0  0  0  0  0  0
   14.7154  -21.4500    0.8710 C   0  0  0  0  0  0  0  0  0  0  0  0
   13.8049  -20.4919    1.5018 C   0  0  0  0  0  0  0  0  0  0  0  0
   14.2299  -19.3249    2.2363 C   0  0  0  0  0  0  0  0  0  0  0  0
   13.2842  -18.3691    2.8669 C   0  0  0  0  0  0  0  0  0  0  0  0
   13.9299  -17.1962    3.5617 N   0  0  0  0  0  0  0  0  0  0  0  0
   12.9563  -16.3431    4.1655 C   0  0  0  0  0  0  0  0  0  0  0  0
   15.4390  -22.4500    1.6347 O   0  0  0  0  0  0  0  0  0  0  0  0
   15.3597  -23.7031    1.2938 O   0  0  0  0  0  0  0  0  0  0  0  0
  2  5  1  0
  2  1  1  1
  3  2  1  0
  4  3  1  0
  5  6  2  0
  8 10  1  0
  8  7  1  0
  9  8  2  0
 11 10  1  0
 11 12  1  0
 13 12  1  0
 14 13  1  6
 15 14  1  0
 15  5  1  0
 16 17  2  0
 16 14  1  0
 18 16  1  0
 19 18  1  0
 19 25  1  0
 19 20  1  1
 21 20  1  0
 22 21  1  0
 23 22  1  0
 23 24  1  0
 25 27  1  0
 26 25  2  0
M  END
$$$$
