CRK.pdb
     RDKit          3D

 27 26  0  0  1  0  0  0  0  0999 V2000
   22.9450  -22.2402  -14.5223 N   0  0  0  0  0  0  0  0  0  0  0  0
   22.2295  -21.6006  -13.4402 C   0  0  1  0  0  0  0  0  0  0  0  0
   21.9664  -20.1610  -13.8512 C   0  0  0  0  0  0  0  0  0  0  0  0
   20.7740  -20.1600  -15.2215 S   0  0  0  0  0  0  0  0  0  0  0  0
   20.9436  -22.2786  -13.1932 C   0  0  0  0  0  0  0  0  0  0  0  0
   20.3724  -22.8878  -14.1197 O   0  0  0  0  0  0  0  0  0  0  0  0
   16.9403  -26.2826   -8.1008 N   0  0  0  0  0  0  0  0  0  0  0  0
   17.9781  -25.5472   -7.4862 C   0  0  0  0  0  0  0  0  0  0  0  0
   18.8398  -26.0851   -6.6640 N   0  0  0  0  0  0  0  0  0  0  0  0
   18.1137  -24.1463   -7.7604 N   0  0  0  0  0  0  0  0  0  0  0  0
   17.1030  -23.3939   -8.4499 C   0  0  0  0  0  0  0  0  0  0  0  0
   17.4613  -23.3304   -9.9111 C   0  0  0  0  0  0  0  0  0  0  0  0
   18.8259  -22.7170  -10.1436 C   0  0  0  0  0  0  0  0  0  0  0  0
   19.0521  -22.7581  -11.6592 C   0  0  2  0  0  0  0  0  0  0  0  0
   20.3681  -22.2299  -11.8979 N   0  0  0  0  0  0  0  0  0  0  0  0
   18.0452  -21.9341  -12.3502 C   0  0  0  0  0  0  0  0  0  0  0  0
   18.1040  -20.6791  -12.1996 O   0  0  0  0  0  0  0  0  0  0  0  0
   19.5364  -25.4788   -6.1762 N   0  0  0  0  0  0  0  0  0  0  0  0
   17.0300  -22.4325  -13.1594 C   0  0  2  0  0  0  0  0  0  0  0  0
   16.0430  -21.5310  -13.8742 C   0  0  0  0  0  0  0  0  0  0  0  0
   15.9487  -22.0111  -15.2546 C   0  0  0  0  0  0  0  0  0  0  0  0
   15.0961  -21.4305  -16.2635 C   0  0  0  0  0  0  0  0  0  0  0  0
   14.9377  -22.0023  -17.6250 C   0  0  0  0  0  0  0  0  0  0  0  0
   14.0144  -21.2336  -18.5372 N   0  0  0  0  0  0  0  0  0  0  0  0
   13.8410  -21.8983  -19.7894 C   0  0  0  0  0  0  0  0  0  0  0  0
   14.8801  -21.4115  -13.0138 O   0  0  0  0  0  0  0  0  0  0  0  0
   14.1670  -20.3237  -13.0416 O   0  0  0  0  0  0  0  0  0  0  0  0
  2  5  1  0
  2  1  1  6
  3  2  1  0
  4  3  1  0
  5  6  2  0
  8 10  1  0
  8  7  1  0
  9  8  2  0
 11 10  1  0
 11 12  1  0
 13 12  1  0
 14 13  1  1
 15 14  1  0
 15  5  1  0
 16 17  2  0
 16 14  1  0
 18 16  1  0
 19 18  1  0
 19 25  1  0
 19 20  1  6
 21 20  1  0
 22 21  1  0
 23 22  1  0
 23 24  1  0
 25 27  1  0
 26 25  2  0
M  END
$$$$
