CRK.pdb
     RDKit          3D

 27 26  0  0  1  0  0  0  0  0999 V2000
   27.5116  -15.9531  -17.1567 N   0  0  0  0  0  0  0  0  0  0  0  0
   26.6731  -15.9325  -15.9783 C   0  0  1  0  0  0  0  0  0  0  0  0
   25.7675  -14.7160  -16.0802 C   0  0  0  0  0  0  0  0  0  0  0  0
   26.1806  -13.8138  -17.6016 S   0  0  0  0  0  0  0  0  0  0  0  0
   25.8451  -17.1506  -15.9067 C   0  0  0  0  0  0  0  0  0  0  0  0
   25.4445  -17.6942  -16.9553 O   0  0  0  0  0  0  0  0  0  0  0  0
   26.6701  -21.4412   -8.9992 N   0  0  0  0  0  0  0  0  0  0  0  0
   25.4327  -21.1932   -9.6339 C   0  0  0  0  0  0  0  0  0  0  0  0
   24.2889  -21.2379   -9.0035 N   0  0  0  0  0  0  0  0  0  0  0  0
   25.4034  -20.8761  -11.0321 N   0  0  0  0  0  0  0  0  0  0  0  0
   26.5990  -20.6944  -11.8070 C   0  0  0  0  0  0  0  0  0  0  0  0
   26.2214  -20.1326  -13.1522 C   0  0  0  0  0  0  0  0  0  0  0  0
   24.8820  -19.4271  -13.1266 C   0  0  0  0  0  0  0  0  0  0  0  0
   24.6790  -18.8602  -14.5362 C   0  0  2  0  0  0  0  0  0  0  0  0
   25.5122  -17.6927  -14.6392 N   0  0  0  0  0  0  0  0  0  0  0  0
   23.2675  -18.4917  -14.7421 C   0  0  0  0  0  0  0  0  0  0  0  0
   22.8672  -17.3922  -14.2605 O   0  0  0  0  0  0  0  0  0  0  0  0
   23.4022  -21.0698   -9.5292 N   0  0  0  0  0  0  0  0  0  0  0  0
   22.3367  -19.2638  -15.4287 C   0  0  2  0  0  0  0  0  0  0  0  0
   20.8607  -18.9201  -15.4617 C   0  0  0  0  0  0  0  0  0  0  0  0
   20.3511  -19.3509  -16.7654 C   0  0  0  0  0  0  0  0  0  0  0  0
   18.9987  -19.1409  -17.2223 C   0  0  0  0  0  0  0  0  0  0  0  0
   18.4816  -19.6699  -18.5101 C   0  0  0  0  0  0  0  0  0  0  0  0
   17.1077  -19.1809  -18.8959 N   0  0  0  0  0  0  0  0  0  0  0  0
   16.7971  -19.5048  -20.2519 C   0  0  0  0  0  0  0  0  0  0  0  0
   20.2896  -19.3895  -14.2125 O   0  0  0  0  0  0  0  0  0  0  0  0
   19.3141  -18.7283  -13.6613 O   0  0  0  0  0  0  0  0  0  0  0  0
  2  5  1  0
  2  1  1  6
  3  2  1  0
  4  3  1  0
  5  6  2  0
  8 10  1  0
  8  7  1  0
  9  8  2  0
 11 10  1  0
 11 12  1  0
 13 12  1  0
 14 13  1  1
 15 14  1  0
 15  5  1  0
 16 17  2  0
 16 14  1  0
 18 16  1  0
 19 18  1  0
 19 25  1  0
 19 20  1  6
 21 20  1  0
 22 21  1  0
 23 22  1  0
 23 24  1  0
 25 27  1  0
 26 25  2  0
M  END
$$$$
