CRK.pdb
     RDKit          3D

 27 26  0  0  1  0  0  0  0  0999 V2000
   26.8337  -20.6972   -9.8619 N   0  0  0  0  0  0  0  0  0  0  0  0
   25.5228  -20.8374  -10.4569 C   0  0  1  0  0  0  0  0  0  0  0  0
   24.5302  -20.1222   -9.5548 C   0  0  0  0  0  0  0  0  0  0  0  0
   24.4066  -21.0379   -7.9909 S   0  0  0  0  0  0  0  0  0  0  0  0
   25.4908  -20.2244  -11.7975 C   0  0  0  0  0  0  0  0  0  0  0  0
   26.0164  -19.1089  -11.9854 O   0  0  0  0  0  0  0  0  0  0  0  0
   28.9521  -24.2395  -17.2384 N   0  0  0  0  0  0  0  0  0  0  0  0
   27.9377  -24.4797  -16.2851 C   0  0  0  0  0  0  0  0  0  0  0  0
   27.4863  -25.6756  -16.0135 N   0  0  0  0  0  0  0  0  0  0  0  0
   27.3612  -23.3787  -15.5698 N   0  0  0  0  0  0  0  0  0  0  0  0
   27.8051  -22.0247  -15.7497 C   0  0  0  0  0  0  0  0  0  0  0  0
   26.9684  -21.1231  -14.8809 C   0  0  0  0  0  0  0  0  0  0  0  0
   25.4854  -21.2921  -15.1350 C   0  0  0  0  0  0  0  0  0  0  0  0
   24.7821  -20.3268  -14.1741 C   0  0  2  0  0  0  0  0  0  0  0  0
   24.8593  -20.9140  -12.8638 N   0  0  0  0  0  0  0  0  0  0  0  0
   23.3727  -20.1506  -14.5652 C   0  0  0  0  0  0  0  0  0  0  0  0
   22.5440  -21.0362  -14.2046 O   0  0  0  0  0  0  0  0  0  0  0  0
   26.7562  -25.7973  -15.2767 N   0  0  0  0  0  0  0  0  0  0  0  0
   22.8809  -19.0800  -15.3041 C   0  0  2  0  0  0  0  0  0  0  0  0
   21.4182  -18.9563  -15.6821 C   0  0  0  0  0  0  0  0  0  0  0  0
   21.1984  -17.5664  -16.0880 C   0  0  0  0  0  0  0  0  0  0  0  0
   19.9276  -17.0328  -16.5152 C   0  0  0  0  0  0  0  0  0  0  0  0
   19.7322  -15.6174  -16.9204 C   0  0  0  0  0  0  0  0  0  0  0  0
   18.3298  -15.2636  -17.3489 N   0  0  0  0  0  0  0  0  0  0  0  0
   18.1549  -13.8500  -17.4563 C   0  0  0  0  0  0  0  0  0  0  0  0
   21.1107  -20.0760  -16.5530 O   0  0  0  0  0  0  0  0  0  0  0  0
   19.9116  -20.5808  -16.5546 O   0  0  0  0  0  0  0  0  0  0  0  0
  2  5  1  0
  2  1  1  1
  3  2  1  0
  4  3  1  0
  5  6  2  0
  8 10  1  0
  8  7  1  0
  9  8  2  0
 11 10  1  0
 11 12  1  0
 13 12  1  0
 14 13  1  6
 15 14  1  0
 15  5  1  0
 16 17  2  0
 16 14  1  0
 18 16  1  0
 19 18  1  0
 19 25  1  0
 19 20  1  6
 21 20  1  0
 22 21  1  0
 23 22  1  0
 23 24  1  0
 25 27  1  0
 26 25  2  0
M  END
$$$$
