CRK.pdb
     RDKit          3D

 27 26  0  0  1  0  0  0  0  0999 V2000
   28.4046  -15.1654  -18.1110 N   0  0  0  0  0  0  0  0  0  0  0  0
   27.7448  -15.5113  -16.8712 C   0  0  1  0  0  0  0  0  0  0  0  0
   27.0206  -14.2705  -16.3748 C   0  0  0  0  0  0  0  0  0  0  0  0
   26.3499  -14.6150  -14.7222 S   0  0  0  0  0  0  0  0  0  0  0  0
   26.7656  -16.5926  -17.0861 C   0  0  0  0  0  0  0  0  0  0  0  0
   26.0206  -16.5689  -18.0861 O   0  0  0  0  0  0  0  0  0  0  0  0
   24.9454  -21.4092  -12.1364 N   0  0  0  0  0  0  0  0  0  0  0  0
   26.1531  -21.0120  -11.5205 C   0  0  0  0  0  0  0  0  0  0  0  0
   26.2538  -20.7773  -10.2389 N   0  0  0  0  0  0  0  0  0  0  0  0
   27.3359  -20.8522  -12.3153 N   0  0  0  0  0  0  0  0  0  0  0  0
   27.3365  -21.0264  -13.7410 C   0  0  0  0  0  0  0  0  0  0  0  0
   26.5346  -19.9141  -14.3635 C   0  0  0  0  0  0  0  0  0  0  0  0
   26.4849  -20.0149  -15.8734 C   0  0  0  0  0  0  0  0  0  0  0  0
   25.7718  -18.7466  -16.3557 C   0  0  2  0  0  0  0  0  0  0  0  0
   26.6820  -17.6529  -16.1479 N   0  0  0  0  0  0  0  0  0  0  0  0
   24.5366  -18.5280  -15.5832 C   0  0  0  0  0  0  0  0  0  0  0  0
   24.6448  -18.0402  -14.4207 O   0  0  0  0  0  0  0  0  0  0  0  0
   27.1598  -20.4383   -9.8452 N   0  0  0  0  0  0  0  0  0  0  0  0
   23.2541  -18.8182  -16.0362 C   0  0  1  0  0  0  0  0  0  0  0  0
   22.0141  -18.5072  -15.2218 C   0  0  0  0  0  0  0  0  0  0  0  0
   20.9871  -18.0561  -16.1635 C   0  0  0  0  0  0  0  0  0  0  0  0
   19.9661  -17.0849  -15.8532 C   0  0  0  0  0  0  0  0  0  0  0  0
   18.9433  -16.6358  -16.8318 C   0  0  0  0  0  0  0  0  0  0  0  0
   18.0103  -15.5607  -16.3327 N   0  0  0  0  0  0  0  0  0  0  0  0
   17.1830  -15.0555  -17.3817 C   0  0  0  0  0  0  0  0  0  0  0  0
   21.8047  -19.6296  -14.3256 O   0  0  0  0  0  0  0  0  0  0  0  0
   22.2417  -20.8093  -14.6570 O   0  0  0  0  0  0  0  0  0  0  0  0
  2  5  1  0
  2  1  1  6
  3  2  1  0
  4  3  1  0
  5  6  2  0
  8 10  1  0
  8  7  1  0
  9  8  2  0
 11 10  1  0
 11 12  1  0
 13 12  1  0
 14 13  1  1
 15 14  1  0
 15  5  1  0
 16 17  2  0
 16 14  1  0
 18 16  1  0
 19 18  1  0
 19 25  1  0
 19 20  1  1
 21 20  1  0
 22 21  1  0
 23 22  1  0
 23 24  1  0
 25 27  1  0
 26 25  2  0
M  END
$$$$
