CRK.pdb
     RDKit          3D

 27 26  0  0  1  0  0  0  0  0999 V2000
   28.4727  -19.5579  -16.4133 N   0  0  0  0  0  0  0  0  0  0  0  0
   27.8398  -18.8726  -15.3080 C   0  0  1  0  0  0  0  0  0  0  0  0
   27.1319  -17.6506  -15.8701 C   0  0  0  0  0  0  0  0  0  0  0  0
   28.3487  -16.3159  -16.0638 S   0  0  0  0  0  0  0  0  0  0  0  0
   26.8517  -19.7471  -14.6498 C   0  0  0  0  0  0  0  0  0  0  0  0
   26.2652  -20.6299  -15.3072 O   0  0  0  0  0  0  0  0  0  0  0  0
   21.7796  -19.7981   -9.3362 N   0  0  0  0  0  0  0  0  0  0  0  0
   22.0674  -20.9869   -8.6294 C   0  0  0  0  0  0  0  0  0  0  0  0
   21.1387  -21.7709   -8.1493 N   0  0  0  0  0  0  0  0  0  0  0  0
   23.4319  -21.3727   -8.4158 N   0  0  0  0  0  0  0  0  0  0  0  0
   24.5367  -20.6328   -8.9587 C   0  0  0  0  0  0  0  0  0  0  0  0
   24.5811  -20.8547  -10.4475 C   0  0  0  0  0  0  0  0  0  0  0  0
   25.7209  -20.1081  -11.1076 C   0  0  0  0  0  0  0  0  0  0  0  0
   25.5854  -20.3782  -12.6104 C   0  0  2  0  0  0  0  0  0  0  0  0
   26.5783  -19.5731  -13.2691 N   0  0  0  0  0  0  0  0  0  0  0  0
   24.2401  -20.0029  -13.0792 C   0  0  0  0  0  0  0  0  0  0  0  0
   23.9385  -18.7741  -13.0879 O   0  0  0  0  0  0  0  0  0  0  0  0
   21.4100  -22.6258   -7.6141 N   0  0  0  0  0  0  0  0  0  0  0  0
   23.2715  -20.9005  -13.5153 C   0  0  2  0  0  0  0  0  0  0  0  0
   21.9421  -20.4486  -14.0865 C   0  0  0  0  0  0  0  0  0  0  0  0
   21.8477  -21.0035  -15.4385 C   0  0  0  0  0  0  0  0  0  0  0  0
   20.7613  -20.7449  -16.3522 C   0  0  0  0  0  0  0  0  0  0  0  0
   20.6660  -21.3598  -17.7007 C   0  0  0  0  0  0  0  0  0  0  0  0
   19.4573  -20.9507  -18.5052 N   0  0  0  0  0  0  0  0  0  0  0  0
   19.4481  -21.5722  -19.7912 C   0  0  0  0  0  0  0  0  0  0  0  0
   20.9369  -20.7051  -13.0713 O   0  0  0  0  0  0  0  0  0  0  0  0
   21.1021  -21.6874  -12.2345 O   0  0  0  0  0  0  0  0  0  0  0  0
  2  5  1  0
  2  1  1  6
  3  2  1  0
  4  3  1  0
  5  6  2  0
  8 10  1  0
  8  7  1  0
  9  8  2  0
 11 10  1  0
 11 12  1  0
 13 12  1  0
 14 13  1  1
 15 14  1  0
 15  5  1  0
 16 17  2  0
 16 14  1  0
 18 16  1  0
 19 18  1  0
 19 25  1  0
 19 20  1  6
 21 20  1  0
 22 21  1  0
 23 22  1  0
 23 24  1  0
 25 27  1  0
 26 25  2  0
M  END
$$$$
