CRK.pdb
     RDKit          3D

 27 26  0  0  1  0  0  0  0  0999 V2000
   28.4292  -20.6334  -16.2924 N   0  0  0  0  0  0  0  0  0  0  0  0
   27.8874  -19.7349  -15.2967 C   0  0  1  0  0  0  0  0  0  0  0  0
   27.2786  -18.5506  -16.0296 C   0  0  0  0  0  0  0  0  0  0  0  0
   28.5780  -17.3116  -16.3056 S   0  0  0  0  0  0  0  0  0  0  0  0
   26.8411  -20.4060  -14.5035 C   0  0  0  0  0  0  0  0  0  0  0  0
   26.1570  -21.3143  -15.0160 O   0  0  0  0  0  0  0  0  0  0  0  0
   21.8248  -20.0984   -9.0220 N   0  0  0  0  0  0  0  0  0  0  0  0
   22.3286  -21.0878   -8.1486 C   0  0  0  0  0  0  0  0  0  0  0  0
   21.5582  -21.9022   -7.4770 N   0  0  0  0  0  0  0  0  0  0  0  0
   23.7452  -21.2250   -7.9737 N   0  0  0  0  0  0  0  0  0  0  0  0
   24.6926  -20.4132   -8.6853 C   0  0  0  0  0  0  0  0  0  0  0  0
   24.6447  -20.7826  -10.1444 C   0  0  0  0  0  0  0  0  0  0  0  0
   25.7505  -20.1242  -10.9420 C   0  0  0  0  0  0  0  0  0  0  0  0
   25.5431  -20.5693  -12.3941 C   0  0  2  0  0  0  0  0  0  0  0  0
   26.6237  -20.0087  -13.1595 N   0  0  0  0  0  0  0  0  0  0  0  0
   24.2534  -20.0717  -12.9034 C   0  0  0  0  0  0  0  0  0  0  0  0
   24.1919  -18.8648  -13.2786 O   0  0  0  0  0  0  0  0  0  0  0  0
   21.9847  -22.5924   -6.8194 N   0  0  0  0  0  0  0  0  0  0  0  0
   23.0925  -20.8308  -13.0040 C   0  0  2  0  0  0  0  0  0  0  0  0
   21.8888  -20.3739  -13.8039 C   0  0  0  0  0  0  0  0  0  0  0  0
   22.3350  -20.2066  -15.1887 C   0  0  0  0  0  0  0  0  0  0  0  0
   21.5401  -19.6112  -16.2355 C   0  0  0  0  0  0  0  0  0  0  0  0
   21.9869  -19.5236  -17.6491 C   0  0  0  0  0  0  0  0  0  0  0  0
   21.0115  -18.8571  -18.5871 N   0  0  0  0  0  0  0  0  0  0  0  0
   21.5033  -18.8369  -19.9279 C   0  0  0  0  0  0  0  0  0  0  0  0
   20.7865  -21.2474  -13.4448 O   0  0  0  0  0  0  0  0  0  0  0  0
   21.0263  -22.4779  -13.0970 O   0  0  0  0  0  0  0  0  0  0  0  0
  2  5  1  0
  2  1  1  6
  3  2  1  0
  4  3  1  0
  5  6  2  0
  8 10  1  0
  8  7  1  0
  9  8  2  0
 11 10  1  0
 11 12  1  0
 13 12  1  0
 14 13  1  1
 15 14  1  0
 15  5  1  0
 16 17  2  0
 16 14  1  0
 18 16  1  0
 19 18  1  0
 19 25  1  0
 19 20  1  6
 21 20  1  0
 22 21  1  0
 23 22  1  0
 23 24  1  0
 25 27  1  0
 26 25  2  0
M  END
$$$$
