KKP.pdb
     RDKit          3D

 26 26  0  0  1  0  0  0  0  0999 V2000
   16.4145  -13.2928  -16.6953 N   0  0  0  0  0  0  0  0  0  0  0  0
   16.8613  -11.9361  -16.9377 C   0  0  1  0  0  0  0  0  0  0  0  0
   15.9404  -10.9464  -16.2259 C   0  0  0  0  0  0  0  0  0  0  0  0
   14.5872  -11.0976  -16.8530 C   0  0  0  0  0  0  0  0  0  0  0  0
   13.5576  -10.1847  -16.2705 C   0  0  0  0  0  0  0  0  0  0  0  0
   12.2039  -10.2271  -16.8901 C   0  0  0  0  0  0  0  0  0  0  0  0
   11.3350   -9.2297  -16.3620 N   0  0  0  0  0  0  0  0  0  0  0  0
   18.2812  -11.7740  -16.4798 C   0  0  0  0  0  0  0  0  0  0  0  0
   18.6516  -12.1739  -15.3467 O   0  0  0  0  0  0  0  0  0  0  0  0
   19.2654  -11.1706  -17.2880 N   0  0  0  0  0  0  0  0  0  0  0  0
   20.6936  -11.0466  -16.8312 C   0  0  1  0  0  0  0  0  0  0  0  0
   21.5112  -10.8220  -18.0884 C   0  0  0  0  0  0  0  0  0  0  0  0
   21.7089  -12.0563  -18.8759 C   0  0  0  0  0  0  0  0  0  0  0  0
   22.4514  -11.8148  -20.1788 C   0  0  0  0  0  0  0  0  0  0  0  0
   22.5297  -13.1174  -20.9811 C   0  0  0  0  0  0  0  0  0  0  0  0
   23.3331  -12.9462  -22.1586 N   0  0  0  0  0  0  0  0  0  0  0  0
   20.6574   -9.7779  -16.0744 C   0  0  0  0  0  0  0  0  0  0  0  0
   19.7175   -8.9575  -16.4244 O   0  0  0  0  0  0  0  0  0  0  0  0
   21.4719   -9.3133  -15.0306 N   0  0  0  0  0  0  0  0  0  0  0  0
   22.7202  -10.0459  -14.6815 C   0  0  0  0  0  0  0  0  0  0  0  0
   22.9913   -9.7372  -13.2373 C   0  0  0  0  0  0  0  0  0  0  0  0
   21.8415   -8.8711  -12.7966 C   0  0  0  0  0  0  0  0  0  0  0  0
   21.4796   -8.2105  -14.1314 C   0  0  1  0  0  0  0  0  0  0  0  0
   22.6228   -7.2673  -14.4275 C   0  0  0  0  0  0  0  0  0  0  0  0
   23.4478   -7.5488  -15.3261 O   0  0  0  0  0  0  0  0  0  0  0  0
   22.8141   -6.0805  -13.7436 O   0  0  0  0  0  0  0  0  0  0  0  0
  2  8  1  0
  2  1  1  1
  3  4  1  0
  3  2  1  0
  5  6  1  0
  5  4  1  0
  7  6  1  0
  8  9  2  0
 10 11  1  0
 10  8  1  0
 11 12  1  6
 13 12  1  0
 14 13  1  0
 15 14  1  0
 16 15  1  0
 17 11  1  0
 18 17  2  0
 19 17  1  0
 20 19  1  0
 21 20  1  0
 21 22  1  0
 22 23  1  0
 23 19  1  0
 23 24  1  6
 25 24  2  0
 26 24  1  0
M  END
$$$$
