KKP.pdb
     RDKit          3D

 26 26  0  0  1  0  0  0  0  0999 V2000
   28.7110  -18.2186  -17.6297 N   0  0  0  0  0  0  0  0  0  0  0  0
   27.9858  -17.7874  -16.4519 C   0  0  1  0  0  0  0  0  0  0  0  0
   26.8011  -16.9122  -16.8576 C   0  0  0  0  0  0  0  0  0  0  0  0
   26.0598  -17.6655  -17.9208 C   0  0  0  0  0  0  0  0  0  0  0  0
   24.6232  -17.2712  -18.0357 C   0  0  0  0  0  0  0  0  0  0  0  0
   24.2010  -16.0655  -17.2700 C   0  0  0  0  0  0  0  0  0  0  0  0
   22.8158  -15.7770  -17.4344 N   0  0  0  0  0  0  0  0  0  0  0  0
   27.5280  -18.9809  -15.6657 C   0  0  0  0  0  0  0  0  0  0  0  0
   27.5575  -20.1377  -16.1580 O   0  0  0  0  0  0  0  0  0  0  0  0
   27.0453  -18.8696  -14.3464 N   0  0  0  0  0  0  0  0  0  0  0  0
   26.5917  -20.0748  -13.5683 C   0  0  1  0  0  0  0  0  0  0  0  0
   26.4816  -19.6180  -12.1265 C   0  0  0  0  0  0  0  0  0  0  0  0
   25.7830  -20.5933  -11.2643 C   0  0  0  0  0  0  0  0  0  0  0  0
   25.6537  -20.1252   -9.8250 C   0  0  0  0  0  0  0  0  0  0  0  0
   25.0771  -21.2520   -8.9623 C   0  0  0  0  0  0  0  0  0  0  0  0
   24.9479  -20.8349   -7.5946 N   0  0  0  0  0  0  0  0  0  0  0  0
   25.2245  -20.2732  -14.0926 C   0  0  0  0  0  0  0  0  0  0  0  0
   24.6374  -19.1976  -14.5136 O   0  0  0  0  0  0  0  0  0  0  0  0
   24.4540  -21.4392  -14.2166 N   0  0  0  0  0  0  0  0  0  0  0  0
   24.9005  -22.6971  -13.5568 C   0  0  0  0  0  0  0  0  0  0  0  0
   24.2967  -23.8187  -14.3518 C   0  0  0  0  0  0  0  0  0  0  0  0
   23.5620  -23.1494  -15.4827 C   0  0  0  0  0  0  0  0  0  0  0  0
   23.2204  -21.8096  -14.8216 C   0  0  1  0  0  0  0  0  0  0  0  0
   22.1744  -22.1383  -13.7814 C   0  0  0  0  0  0  0  0  0  0  0  0
   22.4904  -22.1834  -12.5708 O   0  0  0  0  0  0  0  0  0  0  0  0
   20.8541  -22.3994  -14.0998 O   0  0  0  0  0  0  0  0  0  0  0  0
  2  8  1  0
  2  1  1  6
  3  4  1  0
  3  2  1  0
  5  6  1  0
  5  4  1  0
  7  6  1  0
  8  9  2  0
 10 11  1  0
 10  8  1  0
 11 12  1  1
 13 12  1  0
 14 13  1  0
 15 14  1  0
 16 15  1  0
 17 11  1  0
 18 17  2  0
 19 17  1  0
 20 19  1  0
 21 20  1  0
 21 22  1  0
 22 23  1  0
 23 19  1  0
 23 24  1  1
 25 24  2  0
 26 24  1  0
M  END
$$$$
