KKP.pdb
     RDKit          3D

 26 26  0  0  1  0  0  0  0  0999 V2000
   19.4425  -15.2135  -18.5623 N   0  0  0  0  0  0  0  0  0  0  0  0
   19.6460  -13.7888  -18.7295 C   0  0  1  0  0  0  0  0  0  0  0  0
   18.3567  -13.1291  -19.2158 C   0  0  0  0  0  0  0  0  0  0  0  0
   17.7540  -14.0630  -20.2217 C   0  0  0  0  0  0  0  0  0  0  0  0
   16.4274  -13.6061  -20.7357 C   0  0  0  0  0  0  0  0  0  0  0  0
   15.7721  -14.4759  -21.7517 C   0  0  0  0  0  0  0  0  0  0  0  0
   14.5219  -13.9515  -22.1884 N   0  0  0  0  0  0  0  0  0  0  0  0
   20.1064  -13.1811  -17.4369 C   0  0  0  0  0  0  0  0  0  0  0  0
   19.4607  -13.3470  -16.3708 O   0  0  0  0  0  0  0  0  0  0  0  0
   21.2758  -12.3995  -17.3504 N   0  0  0  0  0  0  0  0  0  0  0  0
   21.7267  -11.7965  -16.0477 C   0  0  1  0  0  0  0  0  0  0  0  0
   23.2336  -11.9627  -16.0155 C   0  0  0  0  0  0  0  0  0  0  0  0
   23.6559  -13.3737  -15.8992 C   0  0  0  0  0  0  0  0  0  0  0  0
   25.1609  -13.5518  -16.0018 C   0  0  0  0  0  0  0  0  0  0  0  0
   25.5102  -15.0431  -15.9777 C   0  0  0  0  0  0  0  0  0  0  0  0
   26.9252  -15.2400  -16.1206 N   0  0  0  0  0  0  0  0  0  0  0  0
   21.4272  -10.3652  -16.2600 C   0  0  0  0  0  0  0  0  0  0  0  0
   21.4872   -9.9696  -17.4924 O   0  0  0  0  0  0  0  0  0  0  0  0
   21.0811   -9.3589  -15.3456 N   0  0  0  0  0  0  0  0  0  0  0  0
   21.1135   -9.6416  -13.8841 C   0  0  0  0  0  0  0  0  0  0  0  0
   20.1388   -8.6876  -13.2561 C   0  0  0  0  0  0  0  0  0  0  0  0
   19.5395   -7.9225  -14.4058 C   0  0  0  0  0  0  0  0  0  0  0  0
   20.7011   -7.9888  -15.4034 C   0  0  1  0  0  0  0  0  0  0  0  0
   21.7725   -7.0957  -14.8214 C   0  0  0  0  0  0  0  0  0  0  0  0
   22.7918   -7.6019  -14.2999 O   0  0  0  0  0  0  0  0  0  0  0  0
   21.6876   -5.7153  -14.8323 O   0  0  0  0  0  0  0  0  0  0  0  0
  2  8  1  0
  2  1  1  1
  3  4  1  0
  3  2  1  0
  5  6  1  0
  5  4  1  0
  7  6  1  0
  8  9  2  0
 10 11  1  0
 10  8  1  0
 11 12  1  6
 13 12  1  0
 14 13  1  0
 15 14  1  0
 16 15  1  0
 17 11  1  0
 18 17  2  0
 19 17  1  0
 20 19  1  0
 21 20  1  0
 21 22  1  0
 22 23  1  0
 23 19  1  0
 23 24  1  1
 25 24  2  0
 26 24  1  0
M  END
$$$$
