KKP.pdb
     RDKit          3D

 26 26  0  0  1  0  0  0  0  0999 V2000
   24.7676  -21.0636  -10.2061 N   0  0  0  0  0  0  0  0  0  0  0  0
   25.1225  -19.9424  -11.0523 C   0  0  1  0  0  0  0  0  0  0  0  0
   26.5257  -19.4479  -10.7052 C   0  0  0  0  0  0  0  0  0  0  0  0
   26.9594  -20.2148   -9.4924 C   0  0  0  0  0  0  0  0  0  0  0  0
   26.5769  -19.5575   -8.2061 C   0  0  0  0  0  0  0  0  0  0  0  0
   27.1622  -20.1348   -6.9642 C   0  0  0  0  0  0  0  0  0  0  0  0
   26.6745  -19.4963   -5.7880 N   0  0  0  0  0  0  0  0  0  0  0  0
   25.0351  -20.3416  -12.4963 C   0  0  0  0  0  0  0  0  0  0  0  0
   25.3321  -21.5044  -12.8715 O   0  0  0  0  0  0  0  0  0  0  0  0
   24.6196  -19.4427  -13.4989 N   0  0  0  0  0  0  0  0  0  0  0  0
   24.5419  -19.8542  -14.9440 C   0  0  1  0  0  0  0  0  0  0  0  0
   23.7074  -18.7911  -15.6318 C   0  0  0  0  0  0  0  0  0  0  0  0
   23.6830  -18.9384  -17.1016 C   0  0  0  0  0  0  0  0  0  0  0  0
   22.3259  -19.3686  -17.6311 C   0  0  0  0  0  0  0  0  0  0  0  0
   21.9033  -18.4513  -18.7829 C   0  0  0  0  0  0  0  0  0  0  0  0
   20.6670  -18.8943  -19.3632 N   0  0  0  0  0  0  0  0  0  0  0  0
   25.9445  -19.6892  -15.3788 C   0  0  0  0  0  0  0  0  0  0  0  0
   26.5325  -18.6215  -14.9395 O   0  0  0  0  0  0  0  0  0  0  0  0
   26.7520  -20.5032  -16.1874 N   0  0  0  0  0  0  0  0  0  0  0  0
   26.1748  -21.7161  -16.8299 C   0  0  0  0  0  0  0  0  0  0  0  0
   27.3254  -22.6554  -17.0499 C   0  0  0  0  0  0  0  0  0  0  0  0
   28.5236  -21.9544  -16.4676 C   0  0  0  0  0  0  0  0  0  0  0  0
   28.0955  -20.4950  -16.6564 C   0  0  1  0  0  0  0  0  0  0  0  0
   28.1561  -20.2558  -18.1475 C   0  0  0  0  0  0  0  0  0  0  0  0
   27.0985  -20.2069  -18.8155 O   0  0  0  0  0  0  0  0  0  0  0  0
   29.3449  -20.0842  -18.8331 O   0  0  0  0  0  0  0  0  0  0  0  0
  2  8  1  0
  2  1  1  1
  3  4  1  0
  3  2  1  0
  5  6  1  0
  5  4  1  0
  7  6  1  0
  8  9  2  0
 10 11  1  0
 10  8  1  0
 11 12  1  6
 13 12  1  0
 14 13  1  0
 15 14  1  0
 16 15  1  0
 17 11  1  0
 18 17  2  0
 19 17  1  0
 20 19  1  0
 21 20  1  0
 21 22  1  0
 22 23  1  0
 23 19  1  0
 23 24  1  6
 25 24  2  0
 26 24  1  0
M  END
$$$$
