KKP.pdb
     RDKit          3D

 26 26  0  0  1  0  0  0  0  0999 V2000
   21.2964  -16.4344  -17.0550 N   0  0  0  0  0  0  0  0  0  0  0  0
   21.4744  -17.8570  -16.8460 C   0  0  1  0  0  0  0  0  0  0  0  0
   21.7652  -18.5494  -18.1763 C   0  0  0  0  0  0  0  0  0  0  0  0
   21.9323  -17.4619  -19.1946 C   0  0  0  0  0  0  0  0  0  0  0  0
   23.1637  -17.6125  -20.0274 C   0  0  0  0  0  0  0  0  0  0  0  0
   23.4123  -16.5538  -21.0451 C   0  0  0  0  0  0  0  0  0  0  0  0
   24.6477  -16.7394  -21.7293 N   0  0  0  0  0  0  0  0  0  0  0  0
   22.5818  -18.0964  -15.8619 C   0  0  0  0  0  0  0  0  0  0  0  0
   23.5559  -17.3065  -15.7701 O   0  0  0  0  0  0  0  0  0  0  0  0
   22.5887  -19.2088  -14.9968 N   0  0  0  0  0  0  0  0  0  0  0  0
   23.7577  -19.4995  -14.0954 C   0  0  1  0  0  0  0  0  0  0  0  0
   23.3379  -20.6812  -13.2429 C   0  0  0  0  0  0  0  0  0  0  0  0
   24.3755  -21.0911  -12.2743 C   0  0  0  0  0  0  0  0  0  0  0  0
   24.3684  -20.2518  -11.0083 C   0  0  0  0  0  0  0  0  0  0  0  0
   24.0729  -21.1416   -9.7969 C   0  0  0  0  0  0  0  0  0  0  0  0
   24.1294  -20.3836   -8.5789 N   0  0  0  0  0  0  0  0  0  0  0  0
   24.7726  -19.9682  -15.0618 C   0  0  0  0  0  0  0  0  0  0  0  0
   24.2972  -20.4281  -16.1760 O   0  0  0  0  0  0  0  0  0  0  0  0
   26.1728  -19.9931  -14.9762 N   0  0  0  0  0  0  0  0  0  0  0  0
   26.8398  -19.7682  -13.6641 C   0  0  0  0  0  0  0  0  0  0  0  0
   28.2054  -19.2301  -13.9807 C   0  0  0  0  0  0  0  0  0  0  0  0
   28.2463  -19.1165  -15.4813 C   0  0  0  0  0  0  0  0  0  0  0  0
   27.2633  -20.2301  -15.8590 C   0  0  1  0  0  0  0  0  0  0  0  0
   27.9768  -21.5183  -15.5186 C   0  0  0  0  0  0  0  0  0  0  0  0
   27.6492  -22.1619  -14.4960 O   0  0  0  0  0  0  0  0  0  0  0  0
   28.9977  -22.0389  -16.2928 O   0  0  0  0  0  0  0  0  0  0  0  0
  2  8  1  0
  2  1  1  6
  3  4  1  0
  3  2  1  0
  5  6  1  0
  5  4  1  0
  7  6  1  0
  8  9  2  0
 10 11  1  0
 10  8  1  0
 11 12  1  1
 13 12  1  0
 14 13  1  0
 15 14  1  0
 16 15  1  0
 17 11  1  0
 18 17  2  0
 19 17  1  0
 20 19  1  0
 21 20  1  0
 21 22  1  0
 22 23  1  0
 23 19  1  0
 23 24  1  1
 25 24  2  0
 26 24  1  0
M  END
$$$$
