KKP.pdb
     RDKit          3D

 26 26  0  0  1  0  0  0  0  0999 V2000
   21.3616  -20.9989  -15.6546 N   0  0  0  0  0  0  0  0  0  0  0  0
   21.7363  -19.6017  -15.7344 C   0  0  1  0  0  0  0  0  0  0  0  0
   20.5575  -18.7193  -15.3271 C   0  0  0  0  0  0  0  0  0  0  0  0
   19.3487  -19.6057  -15.3088 C   0  0  0  0  0  0  0  0  0  0  0  0
   19.0731  -20.2064  -13.9687 C   0  0  0  0  0  0  0  0  0  0  0  0
   17.8259  -21.0109  -13.8439 C   0  0  0  0  0  0  0  0  0  0  0  0
   17.7837  -21.7606  -12.6336 N   0  0  0  0  0  0  0  0  0  0  0  0
   22.9299  -19.3399  -14.8632 C   0  0  0  0  0  0  0  0  0  0  0  0
   23.3443  -18.1707  -14.6573 O   0  0  0  0  0  0  0  0  0  0  0  0
   23.6428  -20.3809  -14.2355 N   0  0  0  0  0  0  0  0  0  0  0  0
   25.0802  -20.2153  -13.8230 C   0  0  1  0  0  0  0  0  0  0  0  0
   25.3197  -21.2468  -12.7375 C   0  0  0  0  0  0  0  0  0  0  0  0
   24.9705  -20.7560  -11.3884 C   0  0  0  0  0  0  0  0  0  0  0  0
   23.5680  -21.1510  -10.9593 C   0  0  0  0  0  0  0  0  0  0  0  0
   23.2492  -20.5331   -9.5943 C   0  0  0  0  0  0  0  0  0  0  0  0
   21.8947  -20.8133   -9.2091 N   0  0  0  0  0  0  0  0  0  0  0  0
   25.7941  -20.6552  -15.0397 C   0  0  0  0  0  0  0  0  0  0  0  0
   25.1031  -21.4042  -15.8400 O   0  0  0  0  0  0  0  0  0  0  0  0
   27.1004  -20.3909  -15.4782 N   0  0  0  0  0  0  0  0  0  0  0  0
   28.0956  -19.8089  -14.5360 C   0  0  0  0  0  0  0  0  0  0  0  0
   29.0952  -19.0806  -15.3873 C   0  0  0  0  0  0  0  0  0  0  0  0
   28.5952  -19.2319  -16.7992 C   0  0  0  0  0  0  0  0  0  0  0  0
   27.8493  -20.5651  -16.6756 C   0  0  1  0  0  0  0  0  0  0  0  0
   28.9300  -21.6072  -16.5018 C   0  0  0  0  0  0  0  0  0  0  0  0
   29.0835  -22.1686  -15.3934 O   0  0  0  0  0  0  0  0  0  0  0  0
   29.7811  -21.9847  -17.5245 O   0  0  0  0  0  0  0  0  0  0  0  0
  2  8  1  0
  2  1  1  1
  3  4  1  0
  3  2  1  0
  5  6  1  0
  5  4  1  0
  7  6  1  0
  8  9  2  0
 10 11  1  0
 10  8  1  0
 11 12  1  1
 13 12  1  0
 14 13  1  0
 15 14  1  0
 16 15  1  0
 17 11  1  0
 18 17  2  0
 19 17  1  0
 20 19  1  0
 21 20  1  0
 21 22  1  0
 22 23  1  0
 23 19  1  0
 23 24  1  1
 25 24  2  0
 26 24  1  0
M  END
$$$$
