KKP.pdb
     RDKit          3D

 26 26  0  0  1  0  0  0  0  0999 V2000
   20.5618  -20.7023  -12.5769 N   0  0  0  0  0  0  0  0  0  0  0  0
   21.5300  -21.1324  -13.5652 C   0  0  1  0  0  0  0  0  0  0  0  0
   20.9604  -20.9488  -14.9708 C   0  0  0  0  0  0  0  0  0  0  0  0
   20.1268  -22.1622  -15.2541 C   0  0  0  0  0  0  0  0  0  0  0  0
   20.9240  -23.4230  -15.3409 C   0  0  0  0  0  0  0  0  0  0  0  0
   20.1655  -24.6708  -15.6341 C   0  0  0  0  0  0  0  0  0  0  0  0
   21.0134  -25.8119  -15.7229 N   0  0  0  0  0  0  0  0  0  0  0  0
   22.8086  -20.3645  -13.3988 C   0  0  0  0  0  0  0  0  0  0  0  0
   22.8056  -19.1166  -13.2443 O   0  0  0  0  0  0  0  0  0  0  0  0
   24.0687  -20.9955  -13.4069 N   0  0  0  0  0  0  0  0  0  0  0  0
   25.3472  -20.2042  -13.3547 C   0  0  1  0  0  0  0  0  0  0  0  0
   26.4145  -21.1744  -12.8865 C   0  0  0  0  0  0  0  0  0  0  0  0
   26.8495  -20.9266  -11.4966 C   0  0  0  0  0  0  0  0  0  0  0  0
   25.6872  -20.7733  -10.5307 C   0  0  0  0  0  0  0  0  0  0  0  0
   26.2065  -20.3305   -9.1593 C   0  0  0  0  0  0  0  0  0  0  0  0
   25.1208  -20.1240   -8.2429 N   0  0  0  0  0  0  0  0  0  0  0  0
   25.5820  -19.9188  -14.7854 C   0  0  0  0  0  0  0  0  0  0  0  0
   25.0081  -20.7380  -15.6091 O   0  0  0  0  0  0  0  0  0  0  0  0
   26.3220  -18.8999  -15.4042 N   0  0  0  0  0  0  0  0  0  0  0  0
   27.3048  -18.1108  -14.6115 C   0  0  0  0  0  0  0  0  0  0  0  0
   27.4282  -16.7854  -15.3062 C   0  0  0  0  0  0  0  0  0  0  0  0
   26.4570  -16.8502  -16.4547 C   0  0  0  0  0  0  0  0  0  0  0  0
   26.4531  -18.3607  -16.7145 C   0  0  1  0  0  0  0  0  0  0  0  0
   27.8129  -18.6636  -17.3006 C   0  0  0  0  0  0  0  0  0  0  0  0
   28.6155  -19.3907  -16.6725 O   0  0  0  0  0  0  0  0  0  0  0  0
   28.2314  -18.1696  -18.5227 O   0  0  0  0  0  0  0  0  0  0  0  0
  2  8  1  0
  2  1  1  1
  3  4  1  0
  3  2  1  0
  5  6  1  0
  5  4  1  0
  7  6  1  0
  8  9  2  0
 10 11  1  0
 10  8  1  0
 11 12  1  6
 13 12  1  0
 14 13  1  0
 15 14  1  0
 16 15  1  0
 17 11  1  0
 18 17  2  0
 19 17  1  0
 20 19  1  0
 21 20  1  0
 21 22  1  0
 22 23  1  0
 23 19  1  0
 23 24  1  1
 25 24  2  0
 26 24  1  0
M  END
$$$$
