KKP.pdb
     RDKit          3D

 26 26  0  0  1  0  0  0  0  0999 V2000
   26.7557  -22.5306  -16.7607 N   0  0  0  0  0  0  0  0  0  0  0  0
   27.6097  -23.4338  -16.0164 C   0  0  1  0  0  0  0  0  0  0  0  0
   26.8403  -24.7031  -15.6544 C   0  0  0  0  0  0  0  0  0  0  0  0
   26.2660  -25.2322  -16.9342 C   0  0  0  0  0  0  0  0  0  0  0  0
   25.9779  -26.6978  -16.8944 C   0  0  0  0  0  0  0  0  0  0  0  0
   25.5690  -27.3305  -18.1792 C   0  0  0  0  0  0  0  0  0  0  0  0
   25.4406  -28.7449  -18.0698 N   0  0  0  0  0  0  0  0  0  0  0  0
   28.8357  -23.7588  -16.8185 C   0  0  0  0  0  0  0  0  0  0  0  0
   28.9326  -23.4256  -18.0271 O   0  0  0  0  0  0  0  0  0  0  0  0
   29.9331  -24.4481  -16.2649 N   0  0  0  0  0  0  0  0  0  0  0  0
   31.1873  -24.6996  -17.0569 C   0  0  1  0  0  0  0  0  0  0  0  0
   32.1652  -25.3386  -16.0899 C   0  0  0  0  0  0  0  0  0  0  0  0
   33.3776  -25.8585  -16.7550 C   0  0  0  0  0  0  0  0  0  0  0  0
   34.4146  -26.3778  -15.7741 C   0  0  0  0  0  0  0  0  0  0  0  0
   35.6721  -26.8158  -16.5313 C   0  0  0  0  0  0  0  0  0  0  0  0
   36.7573  -27.0604  -15.6235 N   0  0  0  0  0  0  0  0  0  0  0  0
   30.7383  -25.7373  -18.0083 C   0  0  0  0  0  0  0  0  0  0  0  0
   29.8859  -26.5877  -17.5297 O   0  0  0  0  0  0  0  0  0  0  0  0
   31.0784  -25.9530  -19.3523 N   0  0  0  0  0  0  0  0  0  0  0  0
   32.1538  -25.1405  -19.9851 C   0  0  0  0  0  0  0  0  0  0  0  0
   31.8522  -25.1279  -21.4559 C   0  0  0  0  0  0  0  0  0  0  0  0
   30.5681  -25.9001  -21.6018 C   0  0  0  0  0  0  0  0  0  0  0  0
   30.6831  -26.8375  -20.3947 C   0  0  1  0  0  0  0  0  0  0  0  0
   31.7920  -27.8016  -20.7482 C   0  0  0  0  0  0  0  0  0  0  0  0
   31.5934  -28.6958  -21.6015 O   0  0  0  0  0  0  0  0  0  0  0  0
   33.0457  -27.7506  -20.1665 O   0  0  0  0  0  0  0  0  0  0  0  0
  2  8  1  0
  2  1  1  6
  3  4  1  0
  3  2  1  0
  5  6  1  0
  5  4  1  0
  7  6  1  0
  8  9  2  0
 10 11  1  0
 10  8  1  0
 11 12  1  1
 13 12  1  0
 14 13  1  0
 15 14  1  0
 16 15  1  0
 17 11  1  0
 18 17  2  0
 19 17  1  0
 20 19  1  0
 21 20  1  0
 21 22  1  0
 22 23  1  0
 23 19  1  0
 23 24  1  6
 25 24  2  0
 26 24  1  0
M  END
$$$$
