KKP.pdb
     RDKit          3D

 26 26  0  0  1  0  0  0  0  0999 V2000
   20.2782  -17.4148  -18.6319 N   0  0  0  0  0  0  0  0  0  0  0  0
   20.8496  -16.0838  -18.6008 C   0  0  1  0  0  0  0  0  0  0  0  0
   21.6857  -15.8433  -19.8566 C   0  0  0  0  0  0  0  0  0  0  0  0
   22.9703  -16.5912  -19.6623 C   0  0  0  0  0  0  0  0  0  0  0  0
   22.9494  -17.9679  -20.2428 C   0  0  0  0  0  0  0  0  0  0  0  0
   24.2174  -18.7446  -20.1591 C   0  0  0  0  0  0  0  0  0  0  0  0
   24.1075  -20.0283  -20.7665 N   0  0  0  0  0  0  0  0  0  0  0  0
   19.7593  -15.0601  -18.4767 C   0  0  0  0  0  0  0  0  0  0  0  0
   19.0000  -14.7944  -19.4432 O   0  0  0  0  0  0  0  0  0  0  0  0
   19.5307  -14.3491  -17.2817 N   0  0  0  0  0  0  0  0  0  0  0  0
   18.4160  -13.3457  -17.1620 C   0  0  1  0  0  0  0  0  0  0  0  0
   17.5874  -13.7891  -15.9718 C   0  0  0  0  0  0  0  0  0  0  0  0
   16.6839  -14.9151  -16.2855 C   0  0  0  0  0  0  0  0  0  0  0  0
   15.8107  -15.3187  -15.1100 C   0  0  0  0  0  0  0  0  0  0  0  0
   14.9847  -16.5555  -15.4772 C   0  0  0  0  0  0  0  0  0  0  0  0
   14.1178  -16.9317  -14.3963 N   0  0  0  0  0  0  0  0  0  0  0  0
   19.1525  -12.1233  -16.7788 C   0  0  0  0  0  0  0  0  0  0  0  0
   20.2491  -12.3281  -16.1197 O   0  0  0  0  0  0  0  0  0  0  0  0
   18.8639  -10.7709  -17.0158 N   0  0  0  0  0  0  0  0  0  0  0  0
   17.5900  -10.3907  -17.6865 C   0  0  0  0  0  0  0  0  0  0  0  0
   17.8488   -9.0674  -18.3472 C   0  0  0  0  0  0  0  0  0  0  0  0
   19.2970   -8.7644  -18.0692 C   0  0  0  0  0  0  0  0  0  0  0  0
   19.4763   -9.5152  -16.7452 C   0  0  1  0  0  0  0  0  0  0  0  0
   18.6825   -8.7231  -15.7319 C   0  0  0  0  0  0  0  0  0  0  0  0
   17.5669   -9.1414  -15.3477 O   0  0  0  0  0  0  0  0  0  0  0  0
   19.1306   -7.5313  -15.1920 O   0  0  0  0  0  0  0  0  0  0  0  0
  2  8  1  0
  2  1  1  6
  3  4  1  0
  3  2  1  0
  5  6  1  0
  5  4  1  0
  7  6  1  0
  8  9  2  0
 10 11  1  0
 10  8  1  0
 11 12  1  1
 13 12  1  0
 14 13  1  0
 15 14  1  0
 16 15  1  0
 17 11  1  0
 18 17  2  0
 19 17  1  0
 20 19  1  0
 21 20  1  0
 21 22  1  0
 22 23  1  0
 23 19  1  0
 23 24  1  1
 25 24  2  0
 26 24  1  0
M  END
$$$$
