KKP.pdb
     RDKit          3D

 26 26  0  0  1  0  0  0  0  0999 V2000
   22.5163  -15.2492  -19.8380 N   0  0  0  0  0  0  0  0  0  0  0  0
   22.3356  -16.6633  -19.5797 C   0  0  1  0  0  0  0  0  0  0  0  0
   22.9947  -17.4861  -20.6854 C   0  0  0  0  0  0  0  0  0  0  0  0
   24.2340  -16.7441  -21.0868 C   0  0  0  0  0  0  0  0  0  0  0  0
   25.4773  -17.2792  -20.4540 C   0  0  0  0  0  0  0  0  0  0  0  0
   26.7557  -16.6163  -20.8344 C   0  0  0  0  0  0  0  0  0  0  0  0
   27.8862  -17.2267  -20.2196 N   0  0  0  0  0  0  0  0  0  0  0  0
   22.9033  -17.0161  -18.2361 C   0  0  0  0  0  0  0  0  0  0  0  0
   23.6852  -16.2377  -17.6327 O   0  0  0  0  0  0  0  0  0  0  0  0
   22.5933  -18.2271  -17.5856 N   0  0  0  0  0  0  0  0  0  0  0  0
   23.1016  -18.5320  -16.2027 C   0  0  1  0  0  0  0  0  0  0  0  0
   22.0822  -19.4699  -15.5856 C   0  0  0  0  0  0  0  0  0  0  0  0
   22.4915  -19.9740  -14.2585 C   0  0  0  0  0  0  0  0  0  0  0  0
   21.5023  -20.9657  -13.6709 C   0  0  0  0  0  0  0  0  0  0  0  0
   21.0555  -20.4935  -12.2838 C   0  0  0  0  0  0  0  0  0  0  0  0
   20.0903  -21.3958  -11.7221 N   0  0  0  0  0  0  0  0  0  0  0  0
   24.3227  -19.3105  -16.4968 C   0  0  0  0  0  0  0  0  0  0  0  0
   24.2819  -20.0010  -17.5924 O   0  0  0  0  0  0  0  0  0  0  0  0
   25.5276  -19.4227  -15.7867 N   0  0  0  0  0  0  0  0  0  0  0  0
   25.6098  -18.9327  -14.3831 C   0  0  0  0  0  0  0  0  0  0  0  0
   27.0541  -18.5981  -14.1452 C   0  0  0  0  0  0  0  0  0  0  0  0
   27.7417  -18.8632  -15.4580 C   0  0  0  0  0  0  0  0  0  0  0  0
   26.8260  -19.9554  -16.0218 C   0  0  1  0  0  0  0  0  0  0  0  0
   27.0860  -21.1708  -15.1619 C   0  0  0  0  0  0  0  0  0  0  0  0
   26.2299  -21.5386  -14.3257 O   0  0  0  0  0  0  0  0  0  0  0  0
   28.2464  -21.9182  -15.2486 O   0  0  0  0  0  0  0  0  0  0  0  0
  2  8  1  0
  2  1  1  6
  3  4  1  0
  3  2  1  0
  5  6  1  0
  5  4  1  0
  7  6  1  0
  8  9  2  0
 10 11  1  0
 10  8  1  0
 11 12  1  1
 13 12  1  0
 14 13  1  0
 15 14  1  0
 16 15  1  0
 17 11  1  0
 18 17  2  0
 19 17  1  0
 20 19  1  0
 21 20  1  0
 21 22  1  0
 22 23  1  0
 23 19  1  0
 23 24  1  1
 25 24  2  0
 26 24  1  0
M  END
$$$$
