KKP.pdb
     RDKit          3D

 26 26  0  0  1  0  0  0  0  0999 V2000
   19.7566  -22.9757  -15.3915 N   0  0  0  0  0  0  0  0  0  0  0  0
   20.1779  -21.7162  -14.8126 C   0  0  1  0  0  0  0  0  0  0  0  0
   20.1662  -21.8107  -13.2878 C   0  0  0  0  0  0  0  0  0  0  0  0
   18.8555  -21.2403  -12.8360 C   0  0  0  0  0  0  0  0  0  0  0  0
   17.6766  -22.0576  -13.2544 C   0  0  0  0  0  0  0  0  0  0  0  0
   16.3431  -21.5923  -12.7818 C   0  0  0  0  0  0  0  0  0  0  0  0
   15.2902  -22.4596  -13.1918 N   0  0  0  0  0  0  0  0  0  0  0  0
   21.5427  -21.3502  -15.3180 C   0  0  0  0  0  0  0  0  0  0  0  0
   22.5016  -22.1612  -15.2549 O   0  0  0  0  0  0  0  0  0  0  0  0
   21.8193  -20.0900  -15.8848 N   0  0  0  0  0  0  0  0  0  0  0  0
   23.1520  -19.7829  -16.5121 C   0  0  1  0  0  0  0  0  0  0  0  0
   22.9650  -18.4772  -17.2603 C   0  0  0  0  0  0  0  0  0  0  0  0
   24.2421  -17.8683  -17.6857 C   0  0  0  0  0  0  0  0  0  0  0  0
   24.8587  -18.5640  -18.8870 C   0  0  0  0  0  0  0  0  0  0  0  0
   26.2221  -17.9419  -19.2041 C   0  0  0  0  0  0  0  0  0  0  0  0
   26.9100  -18.7013  -20.2099 N   0  0  0  0  0  0  0  0  0  0  0  0
   23.9883  -19.5151  -15.3236 C   0  0  0  0  0  0  0  0  0  0  0  0
   23.3732  -18.9403  -14.3387 O   0  0  0  0  0  0  0  0  0  0  0  0
   25.3433  -19.7862  -15.0803 N   0  0  0  0  0  0  0  0  0  0  0  0
   26.1652  -20.4559  -16.1257 C   0  0  0  0  0  0  0  0  0  0  0  0
   27.2755  -21.1544  -15.3951 C   0  0  0  0  0  0  0  0  0  0  0  0
   27.0103  -20.8972  -13.9357 C   0  0  0  0  0  0  0  0  0  0  0  0
   26.2767  -19.5549  -14.0314 C   0  0  1  0  0  0  0  0  0  0  0  0
   27.3333  -18.5566  -14.4455 C   0  0  0  0  0  0  0  0  0  0  0  0
   28.1288  -18.0999  -13.5935 O   0  0  0  0  0  0  0  0  0  0  0  0
   27.4738  -18.1074  -15.7460 O   0  0  0  0  0  0  0  0  0  0  0  0
  2  8  1  0
  2  1  1  6
  3  4  1  0
  3  2  1  0
  5  6  1  0
  5  4  1  0
  7  6  1  0
  8  9  2  0
 10 11  1  0
 10  8  1  0
 11 12  1  6
 13 12  1  0
 14 13  1  0
 15 14  1  0
 16 15  1  0
 17 11  1  0
 18 17  2  0
 19 17  1  0
 20 19  1  0
 21 20  1  0
 21 22  1  0
 22 23  1  0
 23 19  1  0
 23 24  1  6
 25 24  2  0
 26 24  1  0
M  END
$$$$
