KKP.pdb
     RDKit          3D

 26 26  0  0  1  0  0  0  0  0999 V2000
   19.8207  -11.9727  -15.3450 N   0  0  0  0  0  0  0  0  0  0  0  0
   19.5083  -11.7530  -16.7425 C   0  0  1  0  0  0  0  0  0  0  0  0
   18.9157  -13.0221  -17.3525 C   0  0  0  0  0  0  0  0  0  0  0  0
   17.9821  -13.5914  -16.3270 C   0  0  0  0  0  0  0  0  0  0  0  0
   17.4692  -14.9497  -16.6800 C   0  0  0  0  0  0  0  0  0  0  0  0
   16.5578  -15.5938  -15.6937 C   0  0  0  0  0  0  0  0  0  0  0  0
   16.2955  -16.9578  -16.0090 N   0  0  0  0  0  0  0  0  0  0  0  0
   18.5612  -10.5972  -16.8811 C   0  0  0  0  0  0  0  0  0  0  0  0
   18.0995  -10.2618  -18.0016 O   0  0  0  0  0  0  0  0  0  0  0  0
   18.1429   -9.8335  -15.7730 N   0  0  0  0  0  0  0  0  0  0  0  0
   17.0575   -8.7986  -15.8931 C   0  0  1  0  0  0  0  0  0  0  0  0
   16.1414   -9.0213  -14.7053 C   0  0  0  0  0  0  0  0  0  0  0  0
   16.8450   -8.9305  -13.4094 C   0  0  0  0  0  0  0  0  0  0  0  0
   15.9004   -8.9511  -12.2201 C   0  0  0  0  0  0  0  0  0  0  0  0
   16.7009   -8.8372  -10.9190 C   0  0  0  0  0  0  0  0  0  0  0  0
   15.8273   -8.8236   -9.7797 N   0  0  0  0  0  0  0  0  0  0  0  0
   17.8094   -7.5472  -15.6645 C   0  0  0  0  0  0  0  0  0  0  0  0
   18.8755   -7.6731  -14.9389 O   0  0  0  0  0  0  0  0  0  0  0  0
   17.5636   -6.2395  -16.1094 N   0  0  0  0  0  0  0  0  0  0  0  0
   16.2848   -5.9197  -16.8020 C   0  0  0  0  0  0  0  0  0  0  0  0
   16.5718   -4.7309  -17.6733 C   0  0  0  0  0  0  0  0  0  0  0  0
   18.0379   -4.4470  -17.4824 C   0  0  0  0  0  0  0  0  0  0  0  0
   18.2293   -4.9829  -16.0593 C   0  0  1  0  0  0  0  0  0  0  0  0
   17.4959   -4.0069  -15.1683 C   0  0  0  0  0  0  0  0  0  0  0  0
   16.3780   -4.3124  -14.6949 O   0  0  0  0  0  0  0  0  0  0  0  0
   18.0032   -2.7633  -14.8386 O   0  0  0  0  0  0  0  0  0  0  0  0
  2  8  1  0
  2  1  1  1
  3  4  1  0
  3  2  1  0
  5  6  1  0
  5  4  1  0
  7  6  1  0
  8  9  2  0
 10 11  1  0
 10  8  1  0
 11 12  1  1
 13 12  1  0
 14 13  1  0
 15 14  1  0
 16 15  1  0
 17 11  1  0
 18 17  2  0
 19 17  1  0
 20 19  1  0
 21 20  1  0
 21 22  1  0
 22 23  1  0
 23 19  1  0
 23 24  1  1
 25 24  2  0
 26 24  1  0
M  END
$$$$
