KKP.pdb
     RDKit          3D

 26 26  0  0  1  0  0  0  0  0999 V2000
   18.7847  -19.1395  -15.5623 N   0  0  0  0  0  0  0  0  0  0  0  0
   19.3509  -20.4063  -15.1454 C   0  0  1  0  0  0  0  0  0  0  0  0
   18.5730  -21.5604  -15.7755 C   0  0  0  0  0  0  0  0  0  0  0  0
   17.2576  -21.6281  -15.0594 C   0  0  0  0  0  0  0  0  0  0  0  0
   17.3835  -22.0162  -13.6220 C   0  0  0  0  0  0  0  0  0  0  0  0
   16.1119  -22.2034  -12.8696 C   0  0  0  0  0  0  0  0  0  0  0  0
   15.6537  -23.5516  -12.9072 N   0  0  0  0  0  0  0  0  0  0  0  0
   20.8024  -20.4680  -15.5213 C   0  0  0  0  0  0  0  0  0  0  0  0
   21.1697  -20.3975  -16.7218 O   0  0  0  0  0  0  0  0  0  0  0  0
   21.8213  -20.6069  -14.5576 N   0  0  0  0  0  0  0  0  0  0  0  0
   23.2697  -20.7116  -14.9509 C   0  0  1  0  0  0  0  0  0  0  0  0
   24.0519  -20.0720  -13.8201 C   0  0  0  0  0  0  0  0  0  0  0  0
   25.5122  -20.2493  -13.9565 C   0  0  0  0  0  0  0  0  0  0  0  0
   26.1428  -19.2528  -14.9139 C   0  0  0  0  0  0  0  0  0  0  0  0
   27.6613  -19.4521  -14.9452 C   0  0  0  0  0  0  0  0  0  0  0  0
   28.2902  -18.4659  -15.7778 N   0  0  0  0  0  0  0  0  0  0  0  0
   23.4913  -22.1714  -14.8941 C   0  0  0  0  0  0  0  0  0  0  0  0
   22.8974  -22.7782  -13.9153 O   0  0  0  0  0  0  0  0  0  0  0  0
   24.2368  -23.0155  -15.7310 N   0  0  0  0  0  0  0  0  0  0  0  0
   25.0454  -22.4360  -16.8388 C   0  0  0  0  0  0  0  0  0  0  0  0
   25.1707  -23.5196  -17.8707 C   0  0  0  0  0  0  0  0  0  0  0  0
   24.3723  -24.6748  -17.3283 C   0  0  0  0  0  0  0  0  0  0  0  0
   24.5081  -24.4092  -15.8249 C   0  0  1  0  0  0  0  0  0  0  0  0
   25.9528  -24.7116  -15.4999 C   0  0  0  0  0  0  0  0  0  0  0  0
   26.7939  -23.7847  -15.4731 O   0  0  0  0  0  0  0  0  0  0  0  0
   26.4097  -25.9874  -15.2239 O   0  0  0  0  0  0  0  0  0  0  0  0
  2  8  1  0
  2  1  1  6
  3  4  1  0
  3  2  1  0
  5  6  1  0
  5  4  1  0
  7  6  1  0
  8  9  2  0
 10 11  1  0
 10  8  1  0
 11 12  1  1
 13 12  1  0
 14 13  1  0
 15 14  1  0
 16 15  1  0
 17 11  1  0
 18 17  2  0
 19 17  1  0
 20 19  1  0
 21 20  1  0
 21 22  1  0
 22 23  1  0
 23 19  1  0
 23 24  1  6
 25 24  2  0
 26 24  1  0
M  END
$$$$
