FLS.pdb
     RDKit          3D

 26 26  0  0  1  0  0  0  0  0999 V2000
    7.4300  -16.9711   21.3767 N   0  0  0  0  0  0  0  0  0  0  0  0
    8.8253  -16.6894   21.4385 C   0  0  1  0  0  0  0  0  0  0  0  0
    9.3132  -15.8026   20.3230 C   0  0  0  0  0  0  0  0  0  0  0  0
    8.5280  -14.5497   20.2404 C   0  0  0  0  0  0  0  0  0  0  0  0
    7.2134  -14.6540   19.8328 C   0  0  0  0  0  0  0  0  0  0  0  0
    6.4737  -13.5074   19.7507 C   0  0  0  0  0  0  0  0  0  0  0  0
    7.0376  -12.3008   20.0676 C   0  0  0  0  0  0  0  0  0  0  0  0
    8.3494  -12.2154   20.4721 C   0  0  0  0  0  0  0  0  0  0  0  0
    9.1260  -13.3602   20.5654 C   0  0  0  0  0  0  0  0  0  0  0  0
    9.0814  -15.9465   22.7265 C   0  0  0  0  0  0  0  0  0  0  0  0
   10.2389  -15.5326   23.0100 O   0  0  0  0  0  0  0  0  0  0  0  0
    8.3067  -12.4192   26.5004 C   0  0  0  0  0  0  0  0  0  0  0  0
    7.1507  -13.4779   26.5762 C   0  0  1  0  0  0  0  0  0  0  0  0
    5.9150  -12.7117   26.9034 C   0  0  0  0  0  0  0  0  0  0  0  0
    7.2291  -14.2000   25.3075 C   0  0  0  0  0  0  0  0  0  0  0  0
    8.3599  -15.0911   24.9693 C   0  0  2  0  0  0  0  0  0  0  0  0
    8.0354  -15.6953   23.6466 N   0  0  0  0  0  0  0  0  0  0  0  0
    8.5206  -16.2289   25.8727 C   0  0  0  0  0  0  0  0  0  0  0  0
    7.5522  -16.9194   26.2503 O   0  0  0  0  0  0  0  0  0  0  0  0
   11.8889  -18.2380   25.8841 O   0  0  0  0  0  0  0  0  0  0  0  0
   10.7490  -18.8567   26.3428 C   0  0  0  0  0  0  0  0  0  0  0  0
    9.9415  -17.8305   27.1153 C   0  0  2  0  0  0  0  0  0  0  0  0
    9.7908  -16.6010   26.3634 N   0  0  0  0  0  0  0  0  0  0  0  0
   10.6190  -17.5641   28.4023 C   0  0  0  0  0  0  0  0  0  0  0  0
   10.8488  -18.5920   29.2904 O   0  0  0  0  0  0  0  0  0  0  0  0
   10.9875  -16.4035   28.6923 O   0  0  0  0  0  0  0  0  0  0  0  0
  2  1  1  6
  3  2  1  0
  4  3  1  0
  5  4  2  0
  6  5  1  0
  7  6  2  0
  7  8  1  0
  8  9  2  0
  9  4  1  0
 10  2  1  0
 10 17  1  0
 11 10  2  0
 13 14  1  6
 13 12  1  0
 15 13  1  0
 16 15  1  1
 16 17  1  0
 18 16  1  0
 19 18  2  0
 20 21  1  0
 22 21  1  6
 22 24  1  0
 22 23  1  0
 23 18  1  0
 24 25  1  0
 26 24  2  0
M  END
$$$$
