FLS.pdb
     RDKit          3D

 26 26  0  0  1  0  0  0  0  0999 V2000
    6.0588  -17.8765   24.8346 N   0  0  0  0  0  0  0  0  0  0  0  0
    6.5367  -16.5346   24.8640 C   0  0  1  0  0  0  0  0  0  0  0  0
    7.1265  -16.1315   26.1900 C   0  0  0  0  0  0  0  0  0  0  0  0
    7.1055  -14.6619   26.3711 C   0  0  0  0  0  0  0  0  0  0  0  0
    8.3041  -14.0449   26.6673 C   0  0  0  0  0  0  0  0  0  0  0  0
    8.3033  -12.6886   26.8379 C   0  0  0  0  0  0  0  0  0  0  0  0
    7.1380  -11.9806   26.7146 C   0  0  0  0  0  0  0  0  0  0  0  0
    5.9524  -12.6119   26.4189 C   0  0  0  0  0  0  0  0  0  0  0  0
    5.9203  -13.9864   26.2401 C   0  0  0  0  0  0  0  0  0  0  0  0
    7.6445  -16.4252   23.8455 C   0  0  0  0  0  0  0  0  0  0  0  0
    8.2200  -17.4595   23.4090 O   0  0  0  0  0  0  0  0  0  0  0  0
    7.6946  -11.8173   20.6894 C   0  0  0  0  0  0  0  0  0  0  0  0
    7.4528  -13.3058   21.1241 C   0  0  1  0  0  0  0  0  0  0  0  0
    6.7831  -13.9661   19.9681 C   0  0  0  0  0  0  0  0  0  0  0  0
    8.7661  -13.7810   21.5562 C   0  0  0  0  0  0  0  0  0  0  0  0
    8.9669  -15.1115   22.1699 C   0  0  2  0  0  0  0  0  0  0  0  0
    8.0656  -15.1659   23.3550 N   0  0  0  0  0  0  0  0  0  0  0  0
   10.3083  -15.3300   22.7079 C   0  0  0  0  0  0  0  0  0  0  0  0
   11.3313  -15.2393   21.9990 O   0  0  0  0  0  0  0  0  0  0  0  0
   10.8206  -16.6789   26.5238 O   0  0  0  0  0  0  0  0  0  0  0  0
   11.8972  -15.9566   26.0635 C   0  0  0  0  0  0  0  0  0  0  0  0
   11.8424  -15.9553   24.5473 C   0  0  2  0  0  0  0  0  0  0  0  0
   10.5085  -15.6567   24.0664 N   0  0  0  0  0  0  0  0  0  0  0  0
   12.2801  -17.2791   24.0551 C   0  0  0  0  0  0  0  0  0  0  0  0
   13.5646  -17.7170   24.2927 O   0  0  0  0  0  0  0  0  0  0  0  0
   11.4864  -18.0094   23.4199 O   0  0  0  0  0  0  0  0  0  0  0  0
  2  1  1  1
  3  2  1  0
  4  3  1  0
  5  4  2  0
  6  5  1  0
  7  6  2  0
  7  8  1  0
  8  9  2  0
  9  4  1  0
 10  2  1  0
 10 17  1  0
 11 10  2  0
 13 14  1  6
 13 12  1  0
 15 13  1  0
 16 15  1  1
 16 17  1  0
 18 16  1  0
 19 18  2  0
 20 21  1  0
 22 21  1  1
 22 24  1  0
 22 23  1  0
 23 18  1  0
 24 25  1  0
 26 24  2  0
M  END
$$$$
