FLS.pdb
     RDKit          3D

 26 26  0  0  1  0  0  0  0  0999 V2000
   10.8985  -17.1390   21.2570 N   0  0  0  0  0  0  0  0  0  0  0  0
    9.9969  -16.0531   21.4516 C   0  0  1  0  0  0  0  0  0  0  0  0
    8.6896  -16.2140   20.7209 C   0  0  0  0  0  0  0  0  0  0  0  0
    8.0556  -14.9045   20.4443 C   0  0  0  0  0  0  0  0  0  0  0  0
    8.8493  -13.9248   19.8828 C   0  0  0  0  0  0  0  0  0  0  0  0
    8.2804  -12.7096   19.6208 C   0  0  0  0  0  0  0  0  0  0  0  0
    6.9612  -12.4902   19.9137 C   0  0  0  0  0  0  0  0  0  0  0  0
    6.1850  -13.4782   20.4731 C   0  0  0  0  0  0  0  0  0  0  0  0
    6.7325  -14.7214   20.7508 C   0  0  0  0  0  0  0  0  0  0  0  0
    9.6670  -15.9954   22.9228 C   0  0  0  0  0  0  0  0  0  0  0  0
   10.2089  -16.7950   23.7342 O   0  0  0  0  0  0  0  0  0  0  0  0
    8.4317  -12.5562   27.0435 C   0  0  0  0  0  0  0  0  0  0  0  0
    7.2221  -13.3497   26.4350 C   0  0  1  0  0  0  0  0  0  0  0  0
    6.0376  -12.4550   26.5676 C   0  0  0  0  0  0  0  0  0  0  0  0
    7.6740  -13.7444   25.1019 C   0  0  0  0  0  0  0  0  0  0  0  0
    8.7376  -14.7498   24.8891 C   0  0  2  0  0  0  0  0  0  0  0  0
    8.7456  -15.0477   23.4294 N   0  0  0  0  0  0  0  0  0  0  0  0
    8.4864  -16.0374   25.5338 C   0  0  0  0  0  0  0  0  0  0  0  0
    7.3622  -16.5790   25.5205 O   0  0  0  0  0  0  0  0  0  0  0  0
   11.0754  -18.9109   25.7427 O   0  0  0  0  0  0  0  0  0  0  0  0
    9.7557  -19.1653   26.0361 C   0  0  0  0  0  0  0  0  0  0  0  0
    9.2269  -17.9990   26.8498 C   0  0  2  0  0  0  0  0  0  0  0  0
    9.5140  -16.7324   26.2071 N   0  0  0  0  0  0  0  0  0  0  0  0
    9.8397  -18.0416   28.1947 C   0  0  0  0  0  0  0  0  0  0  0  0
   10.5236  -16.9485   28.6799 O   0  0  0  0  0  0  0  0  0  0  0  0
    9.7407  -19.0709   28.9002 O   0  0  0  0  0  0  0  0  0  0  0  0
  2  1  1  1
  3  2  1  0
  4  3  1  0
  5  4  2  0
  6  5  1  0
  7  6  2  0
  7  8  1  0
  8  9  2  0
  9  4  1  0
 10  2  1  0
 10 17  1  0
 11 10  2  0
 13 14  1  6
 13 12  1  0
 15 13  1  0
 16 15  1  6
 16 17  1  0
 18 16  1  0
 19 18  2  0
 20 21  1  0
 22 21  1  6
 22 24  1  0
 22 23  1  0
 23 18  1  0
 24 25  1  0
 26 24  2  0
M  END
$$$$
