FLS.pdb
     RDKit          3D

 26 26  0  0  1  0  0  0  0  0999 V2000
    5.4198  -17.6203   24.9936 N   0  0  0  0  0  0  0  0  0  0  0  0
    6.1324  -16.3888   25.0685 C   0  0  1  0  0  0  0  0  0  0  0  0
    6.8211  -16.1679   26.3897 C   0  0  0  0  0  0  0  0  0  0  0  0
    7.1690  -14.7426   26.5907 C   0  0  0  0  0  0  0  0  0  0  0  0
    8.5059  -14.4341   26.7414 C   0  0  0  0  0  0  0  0  0  0  0  0
    8.8453  -13.1231   26.9280 C   0  0  0  0  0  0  0  0  0  0  0  0
    7.8738  -12.1592   26.9616 C   0  0  0  0  0  0  0  0  0  0  0  0
    6.5461  -12.4846   26.8096 C   0  0  0  0  0  0  0  0  0  0  0  0
    6.1697  -13.8053   26.6187 C   0  0  0  0  0  0  0  0  0  0  0  0
    7.2136  -16.4258   24.0168 C   0  0  0  0  0  0  0  0  0  0  0  0
    7.7683  -17.5148   23.7039 O   0  0  0  0  0  0  0  0  0  0  0  0
    7.7636  -12.1579   20.3722 C   0  0  0  0  0  0  0  0  0  0  0  0
    7.4393  -13.6279   20.8159 C   0  0  1  0  0  0  0  0  0  0  0  0
    7.0487  -14.3535   19.5741 C   0  0  0  0  0  0  0  0  0  0  0  0
    8.6256  -14.0601   21.5530 C   0  0  0  0  0  0  0  0  0  0  0  0
    8.6767  -15.3369   22.2975 C   0  0  2  0  0  0  0  0  0  0  0  0
    7.6325  -15.2459   23.3563 N   0  0  0  0  0  0  0  0  0  0  0  0
    9.9266  -15.5623   23.0209 C   0  0  0  0  0  0  0  0  0  0  0  0
   10.3178  -14.7971   23.9259 O   0  0  0  0  0  0  0  0  0  0  0  0
   12.0612  -18.9137   22.3851 O   0  0  0  0  0  0  0  0  0  0  0  0
   12.4487  -18.2474   23.5246 C   0  0  0  0  0  0  0  0  0  0  0  0
   12.0458  -16.7926   23.3724 C   0  0  2  0  0  0  0  0  0  0  0  0
   10.7554  -16.6660   22.7253 N   0  0  0  0  0  0  0  0  0  0  0  0
   13.0839  -16.0920   22.5866 C   0  0  0  0  0  0  0  0  0  0  0  0
   14.3708  -15.9948   23.0690 O   0  0  0  0  0  0  0  0  0  0  0  0
   12.7998  -15.5832   21.4788 O   0  0  0  0  0  0  0  0  0  0  0  0
  2  1  1  1
  3  2  1  0
  4  3  1  0
  5  4  2  0
  6  5  1  0
  7  6  2  0
  7  8  1  0
  8  9  2  0
  9  4  1  0
 10  2  1  0
 10 17  1  0
 11 10  2  0
 13 14  1  6
 13 12  1  0
 15 13  1  0
 16 15  1  1
 16 17  1  0
 18 16  1  0
 19 18  2  0
 20 21  1  0
 22 21  1  6
 22 24  1  0
 22 23  1  0
 23 18  1  0
 24 25  1  0
 26 24  2  0
M  END
$$$$
