FLS.pdb
     RDKit          3D

 26 26  0  0  1  0  0  0  0  0999 V2000
    8.7083  -16.1734   25.5185 N   0  0  0  0  0  0  0  0  0  0  0  0
    7.3738  -16.5622   25.2056 C   0  0  1  0  0  0  0  0  0  0  0  0
    6.3264  -15.8106   25.9846 C   0  0  0  0  0  0  0  0  0  0  0  0
    6.7307  -14.4066   26.2264 C   0  0  0  0  0  0  0  0  0  0  0  0
    8.0464  -14.1797   26.5764 C   0  0  0  0  0  0  0  0  0  0  0  0
    8.4371  -12.8895   26.8034 C   0  0  0  0  0  0  0  0  0  0  0  0
    7.5356  -11.8664   26.6823 C   0  0  0  0  0  0  0  0  0  0  0  0
    6.2280  -12.1108   26.3326 C   0  0  0  0  0  0  0  0  0  0  0  0
    5.8009  -13.4085   26.0957 C   0  0  0  0  0  0  0  0  0  0  0  0
    7.1394  -16.2476   23.7487 C   0  0  0  0  0  0  0  0  0  0  0  0
    6.2000  -15.4811   23.4002 O   0  0  0  0  0  0  0  0  0  0  0  0
    7.2187  -13.5139   19.9311 C   0  0  0  0  0  0  0  0  0  0  0  0
    8.2813  -13.4201   21.0822 C   0  0  1  0  0  0  0  0  0  0  0  0
    8.1678  -12.0397   21.6324 C   0  0  0  0  0  0  0  0  0  0  0  0
    7.9879  -14.5610   21.9479 C   0  0  0  0  0  0  0  0  0  0  0  0
    8.5831  -15.8972   21.7300 C   0  0  2  0  0  0  0  0  0  0  0  0
    7.9630  -16.8010   22.7390 N   0  0  0  0  0  0  0  0  0  0  0  0
   10.0189  -15.9670   21.9952 C   0  0  0  0  0  0  0  0  0  0  0  0
   10.8526  -15.3419   21.3087 O   0  0  0  0  0  0  0  0  0  0  0  0
   11.4055  -18.3669   24.9357 O   0  0  0  0  0  0  0  0  0  0  0  0
   12.2917  -17.3556   24.6454 C   0  0  0  0  0  0  0  0  0  0  0  0
   11.9632  -16.8328   23.2595 C   0  0  2  0  0  0  0  0  0  0  0  0
   10.5316  -16.7526   23.0500 N   0  0  0  0  0  0  0  0  0  0  0  0
   12.5784  -17.7278   22.2561 C   0  0  0  0  0  0  0  0  0  0  0  0
   13.9453  -17.8971   22.2238 O   0  0  0  0  0  0  0  0  0  0  0  0
   11.8612  -18.3366   21.4304 O   0  0  0  0  0  0  0  0  0  0  0  0
  2  1  1  1
  3  2  1  0
  4  3  1  0
  5  4  2  0
  6  5  1  0
  7  6  2  0
  7  8  1  0
  8  9  2  0
  9  4  1  0
 10  2  1  0
 10 17  1  0
 11 10  2  0
 13 14  1  1
 13 12  1  0
 15 13  1  0
 16 15  1  1
 16 17  1  0
 18 16  1  0
 19 18  2  0
 20 21  1  0
 22 21  1  1
 22 24  1  0
 22 23  1  0
 23 18  1  0
 24 25  1  0
 26 24  2  0
M  END
$$$$
