FLS.pdb
     RDKit          3D

 26 26  0  0  1  0  0  0  0  0999 V2000
    9.8843  -17.3834   21.4488 N   0  0  0  0  0  0  0  0  0  0  0  0
    9.2593  -16.1960   21.9280 C   0  0  1  0  0  0  0  0  0  0  0  0
    7.8422  -16.0224   21.4479 C   0  0  0  0  0  0  0  0  0  0  0  0
    7.6264  -14.6794   20.8623 C   0  0  0  0  0  0  0  0  0  0  0  0
    7.9391  -14.5147   19.5280 C   0  0  0  0  0  0  0  0  0  0  0  0
    7.7461  -13.2813   18.9709 C   0  0  0  0  0  0  0  0  0  0  0  0
    7.2564  -12.2526   19.7300 C   0  0  0  0  0  0  0  0  0  0  0  0
    6.9501  -12.4347   21.0585 C   0  0  0  0  0  0  0  0  0  0  0  0
    7.1347  -13.6738   21.6528 C   0  0  0  0  0  0  0  0  0  0  0  0
    9.1987  -16.2908   23.4326 C   0  0  0  0  0  0  0  0  0  0  0  0
    9.9286  -17.1106   24.0543 O   0  0  0  0  0  0  0  0  0  0  0  0
    5.9979  -12.5188   26.2632 C   0  0  0  0  0  0  0  0  0  0  0  0
    7.3291  -13.0211   25.6009 C   0  0  1  0  0  0  0  0  0  0  0  0
    8.3509  -11.9761   25.8925 C   0  0  0  0  0  0  0  0  0  0  0  0
    7.5166  -14.3712   26.1295 C   0  0  0  0  0  0  0  0  0  0  0  0
    8.5787  -15.2759   25.6388 C   0  0  2  0  0  0  0  0  0  0  0  0
    8.3260  -15.4668   24.1830 N   0  0  0  0  0  0  0  0  0  0  0  0
    8.5332  -16.6216   26.2076 C   0  0  0  0  0  0  0  0  0  0  0  0
    7.4577  -17.2207   26.4119 O   0  0  0  0  0  0  0  0  0  0  0  0
   11.6428  -19.2115   26.2009 O   0  0  0  0  0  0  0  0  0  0  0  0
   10.3705  -19.6699   26.4532 C   0  0  0  0  0  0  0  0  0  0  0  0
    9.6325  -18.5924   27.2253 C   0  0  2  0  0  0  0  0  0  0  0  0
    9.7153  -17.3104   26.5549 N   0  0  0  0  0  0  0  0  0  0  0  0
   10.2120  -18.4992   28.5824 C   0  0  0  0  0  0  0  0  0  0  0  0
   10.1651  -19.5827   29.4321 O   0  0  0  0  0  0  0  0  0  0  0  0
   10.7484  -17.4357   28.9672 O   0  0  0  0  0  0  0  0  0  0  0  0
  2  1  1  6
  3  2  1  0
  4  3  1  0
  5  4  2  0
  6  5  1  0
  7  6  2  0
  7  8  1  0
  8  9  2  0
  9  4  1  0
 10  2  1  0
 10 17  1  0
 11 10  2  0
 13 14  1  1
 13 12  1  0
 15 13  1  0
 16 15  1  1
 16 17  1  0
 18 16  1  0
 19 18  2  0
 20 21  1  0
 22 21  1  6
 22 24  1  0
 22 23  1  0
 23 18  1  0
 24 25  1  0
 26 24  2  0
M  END
$$$$
