FLS.pdb
     RDKit          3D

 26 26  0  0  1  0  0  0  0  0999 V2000
    5.8903  -17.9977   25.2215 N   0  0  0  0  0  0  0  0  0  0  0  0
    6.3595  -16.6539   25.1577 C   0  0  1  0  0  0  0  0  0  0  0  0
    7.1775  -16.2415   26.3533 C   0  0  0  0  0  0  0  0  0  0  0  0
    7.3277  -14.7702   26.4290 C   0  0  0  0  0  0  0  0  0  0  0  0
    6.1785  -14.0122   26.3298 C   0  0  0  0  0  0  0  0  0  0  0  0
    6.2986  -12.6521   26.3975 C   0  0  0  0  0  0  0  0  0  0  0  0
    7.5307  -12.0776   26.5591 C   0  0  0  0  0  0  0  0  0  0  0  0
    8.6656  -12.8485   26.6561 C   0  0  0  0  0  0  0  0  0  0  0  0
    8.5770  -14.2306   26.5911 C   0  0  0  0  0  0  0  0  0  0  0  0
    7.2644  -16.5460   23.9552 C   0  0  0  0  0  0  0  0  0  0  0  0
    7.8155  -17.5727   23.4720 O   0  0  0  0  0  0  0  0  0  0  0  0
    7.3388  -14.2227   19.1145 C   0  0  0  0  0  0  0  0  0  0  0  0
    8.2953  -13.4840   20.1157 C   0  0  1  0  0  0  0  0  0  0  0  0
    8.2315  -12.0400   19.7527 C   0  0  0  0  0  0  0  0  0  0  0  0
    7.8423  -13.9090   21.4391 C   0  0  0  0  0  0  0  0  0  0  0  0
    8.0993  -15.2658   21.9687 C   0  0  2  0  0  0  0  0  0  0  0  0
    7.5179  -15.2965   23.3401 N   0  0  0  0  0  0  0  0  0  0  0  0
    9.5144  -15.5817   22.1535 C   0  0  0  0  0  0  0  0  0  0  0  0
   10.2814  -15.7835   21.1901 O   0  0  0  0  0  0  0  0  0  0  0  0
   11.2286  -16.3311   25.8640 O   0  0  0  0  0  0  0  0  0  0  0  0
   11.9686  -15.5545   25.0027 C   0  0  0  0  0  0  0  0  0  0  0  0
   11.5114  -15.8626   23.5892 C   0  0  2  0  0  0  0  0  0  0  0  0
   10.0822  -15.6738   23.4425 N   0  0  0  0  0  0  0  0  0  0  0  0
   11.8800  -17.2571   23.2641 C   0  0  0  0  0  0  0  0  0  0  0  0
   13.2041  -17.6369   23.2417 O   0  0  0  0  0  0  0  0  0  0  0  0
   10.9914  -18.1006   23.0075 O   0  0  0  0  0  0  0  0  0  0  0  0
  2  1  1  1
  3  2  1  0
  4  3  1  0
  5  4  2  0
  6  5  1  0
  7  6  2  0
  7  8  1  0
  8  9  2  0
  9  4  1  0
 10  2  1  0
 10 17  1  0
 11 10  2  0
 13 14  1  1
 13 12  1  0
 15 13  1  0
 16 15  1  1
 16 17  1  0
 18 16  1  0
 19 18  2  0
 20 21  1  0
 22 21  1  1
 22 24  1  0
 22 23  1  0
 23 18  1  0
 24 25  1  0
 26 24  2  0
M  END
$$$$
