FLS.pdb
     RDKit          3D

 26 26  0  0  1  0  0  0  0  0999 V2000
    5.6969  -17.7157   24.9345 N   0  0  0  0  0  0  0  0  0  0  0  0
    6.3120  -16.4311   24.9699 C   0  0  1  0  0  0  0  0  0  0  0  0
    6.9026  -16.0800   26.3104 C   0  0  0  0  0  0  0  0  0  0  0  0
    7.0763  -14.6173   26.4626 C   0  0  0  0  0  0  0  0  0  0  0  0
    5.9524  -13.8294   26.3170 C   0  0  0  0  0  0  0  0  0  0  0  0
    6.0944  -12.4767   26.4542 C   0  0  0  0  0  0  0  0  0  0  0  0
    7.3230  -11.9383   26.7278 C   0  0  0  0  0  0  0  0  0  0  0  0
    8.4326  -12.7386   26.8697 C   0  0  0  0  0  0  0  0  0  0  0  0
    8.3213  -14.1142   26.7364 C   0  0  0  0  0  0  0  0  0  0  0  0
    7.4540  -16.4477   23.9840 C   0  0  0  0  0  0  0  0  0  0  0  0
    8.1277  -17.4982   23.7992 O   0  0  0  0  0  0  0  0  0  0  0  0
    6.5865  -14.3658   20.6378 C   0  0  0  0  0  0  0  0  0  0  0  0
    8.0424  -13.9397   20.2357 C   0  0  1  0  0  0  0  0  0  0  0  0
    7.9194  -12.5838   19.6296 C   0  0  0  0  0  0  0  0  0  0  0  0
    8.8260  -14.1076   21.4585 C   0  0  0  0  0  0  0  0  0  0  0  0
    8.8654  -15.3820   22.2079 C   0  0  2  0  0  0  0  0  0  0  0  0
    7.7984  -15.2913   23.2437 N   0  0  0  0  0  0  0  0  0  0  0  0
   10.1002  -15.6008   22.9588 C   0  0  0  0  0  0  0  0  0  0  0  0
   10.4108  -14.9021   23.9450 O   0  0  0  0  0  0  0  0  0  0  0  0
   12.2246  -18.9256   22.3941 O   0  0  0  0  0  0  0  0  0  0  0  0
   12.5758  -18.2511   23.5405 C   0  0  0  0  0  0  0  0  0  0  0  0
   12.2405  -16.7852   23.3388 C   0  0  2  0  0  0  0  0  0  0  0  0
   11.0056  -16.6220   22.5984 N   0  0  0  0  0  0  0  0  0  0  0  0
   13.3583  -16.1369   22.6200 C   0  0  0  0  0  0  0  0  0  0  0  0
   14.6078  -16.0710   23.1966 O   0  0  0  0  0  0  0  0  0  0  0  0
   13.1759  -15.6443   21.4838 O   0  0  0  0  0  0  0  0  0  0  0  0
  2  1  1  1
  3  2  1  0
  4  3  1  0
  5  4  2  0
  6  5  1  0
  7  6  2  0
  7  8  1  0
  8  9  2  0
  9  4  1  0
 10  2  1  0
 10 17  1  0
 11 10  2  0
 13 14  1  1
 13 12  1  0
 15 13  1  0
 16 15  1  1
 16 17  1  0
 18 16  1  0
 19 18  2  0
 20 21  1  0
 22 21  1  6
 22 24  1  0
 22 23  1  0
 23 18  1  0
 24 25  1  0
 26 24  2  0
M  END
$$$$
