FLS.pdb
     RDKit          3D

 26 26  0  0  1  0  0  0  0  0999 V2000
    7.2273  -18.0375   26.3939 N   0  0  0  0  0  0  0  0  0  0  0  0
    7.8224  -16.8053   25.9972 C   0  0  1  0  0  0  0  0  0  0  0  0
    9.2745  -16.6844   26.3786 C   0  0  0  0  0  0  0  0  0  0  0  0
    9.4989  -15.5629   27.3193 C   0  0  0  0  0  0  0  0  0  0  0  0
    9.1957  -14.2929   26.8716 C   0  0  0  0  0  0  0  0  0  0  0  0
    9.3968  -13.2456   27.7268 C   0  0  0  0  0  0  0  0  0  0  0  0
    9.8850  -13.4698   28.9860 C   0  0  0  0  0  0  0  0  0  0  0  0
   10.1818  -14.7422   29.4156 C   0  0  0  0  0  0  0  0  0  0  0  0
    9.9889  -15.8254   28.5719 C   0  0  0  0  0  0  0  0  0  0  0  0
    7.7626  -16.7368   24.4911 C   0  0  0  0  0  0  0  0  0  0  0  0
    7.5427  -17.7751   23.8092 O   0  0  0  0  0  0  0  0  0  0  0  0
    7.3668  -12.0319   20.6922 C   0  0  0  0  0  0  0  0  0  0  0  0
    7.3010  -13.5979   20.6124 C   0  0  1  0  0  0  0  0  0  0  0  0
    8.2667  -13.9944   19.5488 C   0  0  0  0  0  0  0  0  0  0  0  0
    7.5264  -14.0462   21.9856 C   0  0  0  0  0  0  0  0  0  0  0  0
    7.7523  -15.4665   22.3304 C   0  0  2  0  0  0  0  0  0  0  0  0
    7.9506  -15.5122   23.8063 N   0  0  0  0  0  0  0  0  0  0  0  0
    8.9765  -16.0348   21.7692 C   0  0  0  0  0  0  0  0  0  0  0  0
    9.0486  -16.4175   20.5836 O   0  0  0  0  0  0  0  0  0  0  0  0
   13.4462  -15.8819   21.0814 O   0  0  0  0  0  0  0  0  0  0  0  0
   12.3083  -15.4119   21.6951 C   0  0  0  0  0  0  0  0  0  0  0  0
   11.3833  -16.5921   21.9263 C   0  0  2  0  0  0  0  0  0  0  0  0
   10.1431  -16.1778   22.5508 N   0  0  0  0  0  0  0  0  0  0  0  0
   12.0793  -17.5817   22.7762 C   0  0  0  0  0  0  0  0  0  0  0  0
   11.5516  -17.9398   23.9974 O   0  0  0  0  0  0  0  0  0  0  0  0
   13.1518  -18.0998   22.3913 O   0  0  0  0  0  0  0  0  0  0  0  0
  2  1  1  6
  3  2  1  0
  4  3  1  0
  5  4  2  0
  6  5  1  0
  7  6  2  0
  7  8  1  0
  8  9  2  0
  9  4  1  0
 10  2  1  0
 10 17  1  0
 11 10  2  0
 13 14  1  6
 13 12  1  0
 15 13  1  0
 16 15  1  6
 16 17  1  0
 18 16  1  0
 19 18  2  0
 20 21  1  0
 22 21  1  1
 22 24  1  0
 22 23  1  0
 23 18  1  0
 24 25  1  0
 26 24  2  0
M  END
$$$$
