FLS.pdb
     RDKit          3D

 26 26  0  0  1  0  0  0  0  0999 V2000
    6.1800  -18.0822   24.8351 N   0  0  0  0  0  0  0  0  0  0  0  0
    6.5746  -16.7132   24.8247 C   0  0  1  0  0  0  0  0  0  0  0  0
    7.0775  -16.2187   26.1556 C   0  0  0  0  0  0  0  0  0  0  0  0
    7.0649  -14.7395   26.2270 C   0  0  0  0  0  0  0  0  0  0  0  0
    8.2024  -14.1207   26.7046 C   0  0  0  0  0  0  0  0  0  0  0  0
    8.2083  -12.7556   26.7774 C   0  0  0  0  0  0  0  0  0  0  0  0
    7.1090  -12.0410   26.3835 C   0  0  0  0  0  0  0  0  0  0  0  0
    5.9837  -12.6743   25.9100 C   0  0  0  0  0  0  0  0  0  0  0  0
    5.9465  -14.0577   25.8240 C   0  0  0  0  0  0  0  0  0  0  0  0
    7.7197  -16.5786   23.8514 C   0  0  0  0  0  0  0  0  0  0  0  0
    8.3597  -17.5958   23.4681 O   0  0  0  0  0  0  0  0  0  0  0  0
    7.7963  -11.9038   20.7036 C   0  0  0  0  0  0  0  0  0  0  0  0
    7.5469  -13.4188   21.0286 C   0  0  1  0  0  0  0  0  0  0  0  0
    7.0286  -14.0273   19.7708 C   0  0  0  0  0  0  0  0  0  0  0  0
    8.8157  -13.8905   21.5808 C   0  0  0  0  0  0  0  0  0  0  0  0
    8.9815  -15.2486   22.1424 C   0  0  2  0  0  0  0  0  0  0  0  0
    8.1045  -15.3140   23.3450 N   0  0  0  0  0  0  0  0  0  0  0  0
   10.3255  -15.5334   22.6417 C   0  0  0  0  0  0  0  0  0  0  0  0
   11.3322  -15.4829   21.9059 O   0  0  0  0  0  0  0  0  0  0  0  0
   11.1504  -17.2159   26.4192 O   0  0  0  0  0  0  0  0  0  0  0  0
   11.9713  -16.2130   25.9582 C   0  0  0  0  0  0  0  0  0  0  0  0
   11.8861  -16.2014   24.4435 C   0  0  2  0  0  0  0  0  0  0  0  0
   10.5469  -15.8820   23.9914 N   0  0  0  0  0  0  0  0  0  0  0  0
   12.2959  -17.5278   23.9346 C   0  0  0  0  0  0  0  0  0  0  0  0
   13.5508  -18.0212   24.2169 O   0  0  0  0  0  0  0  0  0  0  0  0
   11.5052  -18.2100   23.2445 O   0  0  0  0  0  0  0  0  0  0  0  0
  2  1  1  1
  3  2  1  0
  4  3  1  0
  5  4  2  0
  6  5  1  0
  7  6  2  0
  7  8  1  0
  8  9  2  0
  9  4  1  0
 10  2  1  0
 10 17  1  0
 11 10  2  0
 13 14  1  6
 13 12  1  0
 15 13  1  0
 16 15  1  1
 16 17  1  0
 18 16  1  0
 19 18  2  0
 20 21  1  0
 22 21  1  1
 22 24  1  0
 22 23  1  0
 23 18  1  0
 24 25  1  0
 26 24  2  0
M  END
$$$$
