NWP.pdb
     RDKit          3D

 30 32  0  0  1  0  0  0  0  0999 V2000
   19.5027  -21.9432  -14.5478 N   0  0  0  0  0  0  0  0  0  0  0  0
   19.7197  -20.6932  -13.9177 C   0  0  0  0  0  0  0  0  0  0  0  0
   18.6872  -20.0945  -13.5049 O   0  0  0  0  0  0  0  0  0  0  0  0
   21.0593  -20.0992  -13.7392 C   0  0  0  0  0  0  0  0  0  0  0  0
   21.8234  -20.7984  -12.6724 C   0  0  2  0  0  0  0  0  0  0  0  0
   21.2012  -20.6585  -11.3805 N   0  0  0  0  0  0  0  0  0  0  0  0
   23.2745  -20.4523  -12.6697 C   0  0  0  0  0  0  0  0  0  0  0  0
   23.6178  -19.2248  -12.7353 O   0  0  0  0  0  0  0  0  0  0  0  0
   24.3264  -21.3810  -12.5999 N   0  0  0  0  0  0  0  0  0  0  0  0
   25.7648  -20.9339  -12.6067 C   0  0  1  0  0  0  0  0  0  0  0  0
   26.3257  -21.6603  -11.4205 C   0  0  0  0  0  0  0  0  0  0  0  0
   26.2948  -21.0353  -10.1264 C   0  0  0  0  0  0  0  0  0  0  0  0
   25.1679  -20.5040   -9.5022 C   0  0  0  0  0  0  0  0  0  0  0  0
   25.5287  -19.9846   -8.2941 N   0  0  0  0  0  0  0  0  0  0  0  0
   26.8516  -20.1623   -8.1151 C   0  0  0  0  0  0  0  0  0  0  0  0
   27.6896  -19.8191   -7.0747 C   0  0  0  0  0  0  0  0  0  0  0  0
   29.0317  -20.1230   -7.1499 C   0  0  0  0  0  0  0  0  0  0  0  0
   29.5443  -20.7667   -8.2552 C   0  0  0  0  0  0  0  0  0  0  0  0
   28.6771  -21.0913   -9.2695 C   0  0  0  0  0  0  0  0  0  0  0  0
   27.3327  -20.8145   -9.2504 C   0  0  0  0  0  0  0  0  0  0  0  0
   26.3564  -21.2497  -13.8940 C   0  0  0  0  0  0  0  0  0  0  0  0
   25.8873  -22.2355  -14.5466 O   0  0  0  0  0  0  0  0  0  0  0  0
   27.4117  -20.5283  -14.4625 N   0  0  0  0  0  0  0  0  0  0  0  0
   28.3569  -19.5974  -13.8718 C   0  0  0  0  0  0  0  0  0  0  0  0
   28.5496  -18.5009  -14.9053 C   0  0  0  0  0  0  0  0  0  0  0  0
   28.1611  -19.1351  -16.2059 C   0  0  0  0  0  0  0  0  0  0  0  0
   27.7893  -20.5703  -15.8917 C   0  0  1  0  0  0  0  0  0  0  0  0
   28.9472  -21.4352  -16.1399 C   0  0  0  0  0  0  0  0  0  0  0  0
   29.5337  -22.0761  -15.0589 O   0  0  0  0  0  0  0  0  0  0  0  0
   29.4532  -21.6417  -17.2713 O   0  0  0  0  0  0  0  0  0  0  0  0
  2  3  2  0
  2  1  1  0
  4  2  1  0
  5  4  1  0
  5  6  1  1
  7  5  1  0
  7  8  2  0
  9  7  1  0
 10  9  1  0
 10 11  1  1
 11 12  1  0
 12 13  2  0
 12 20  1  0
 13 14  1  0
 14 15  1  0
 15 16  2  0
 16 17  1  0
 18 17  2  0
 19 18  1  0
 20 19  2  0
 20 15  1  0
 21 10  1  0
 22 21  2  0
 23 24  1  0
 23 21  1  0
 25 24  1  0
 26 27  1  0
 26 25  1  0
 27 23  1  0
 28 29  1  0
 27 28  1  1
 30 28  2  0
M  END
$$$$
