NWP.pdb
     RDKit          3D

 30 32  0  0  1  0  0  0  0  0999 V2000
   28.8371  -16.5714  -18.1938 N   0  0  0  0  0  0  0  0  0  0  0  0
   27.9550  -17.5750  -18.6643 C   0  0  0  0  0  0  0  0  0  0  0  0
   27.7545  -17.5960  -19.9110 O   0  0  0  0  0  0  0  0  0  0  0  0
   27.2942  -18.5520  -17.7766 C   0  0  0  0  0  0  0  0  0  0  0  0
   28.2746  -19.5122  -17.2039 C   0  0  2  0  0  0  0  0  0  0  0  0
   28.8649  -20.3512  -18.2155 N   0  0  0  0  0  0  0  0  0  0  0  0
   27.7339  -20.2779  -16.0433 C   0  0  0  0  0  0  0  0  0  0  0  0
   27.2262  -21.4312  -16.2456 O   0  0  0  0  0  0  0  0  0  0  0  0
   27.7327  -19.8316  -14.7111 N   0  0  0  0  0  0  0  0  0  0  0  0
   26.9456  -20.5510  -13.6472 C   0  0  1  0  0  0  0  0  0  0  0  0
   27.4249  -19.8809  -12.3941 C   0  0  0  0  0  0  0  0  0  0  0  0
   26.8104  -20.2065  -11.1361 C   0  0  0  0  0  0  0  0  0  0  0  0
   25.4429  -20.1995  -10.8685 C   0  0  0  0  0  0  0  0  0  0  0  0
   25.2400  -20.5483   -9.5660 N   0  0  0  0  0  0  0  0  0  0  0  0
   26.4305  -20.7811   -8.9812 C   0  0  0  0  0  0  0  0  0  0  0  0
   26.7624  -21.1552   -7.6958 C   0  0  0  0  0  0  0  0  0  0  0  0
   28.0866  -21.3266   -7.3546 C   0  0  0  0  0  0  0  0  0  0  0  0
   29.0824  -21.1276   -8.2860 C   0  0  0  0  0  0  0  0  0  0  0  0
   28.7105  -20.7556   -9.5547 C   0  0  0  0  0  0  0  0  0  0  0  0
   27.4097  -20.5702   -9.9520 C   0  0  0  0  0  0  0  0  0  0  0  0
   25.5287  -20.4320  -13.9396 C   0  0  0  0  0  0  0  0  0  0  0  0
   25.1053  -19.3380  -14.4312 O   0  0  0  0  0  0  0  0  0  0  0  0
   24.6004  -21.4546  -13.7163 N   0  0  0  0  0  0  0  0  0  0  0  0
   24.7725  -22.8033  -13.2064 C   0  0  0  0  0  0  0  0  0  0  0  0
   23.8283  -23.6709  -14.0208 C   0  0  0  0  0  0  0  0  0  0  0  0
   22.7936  -22.7195  -14.5395 C   0  0  0  0  0  0  0  0  0  0  0  0
   23.1507  -21.3528  -13.9902 C   0  0  1  0  0  0  0  0  0  0  0  0
   22.3677  -21.0997  -12.7765 C   0  0  0  0  0  0  0  0  0  0  0  0
   21.0182  -20.8107  -12.9123 O   0  0  0  0  0  0  0  0  0  0  0  0
   22.8331  -21.1255  -11.6097 O   0  0  0  0  0  0  0  0  0  0  0  0
  2  3  2  0
  2  1  1  0
  4  2  1  0
  5  4  1  0
  5  6  1  6
  7  5  1  0
  7  8  2  0
  9  7  1  0
 10  9  1  0
 10 11  1  1
 11 12  1  0
 12 13  2  0
 12 20  1  0
 13 14  1  0
 14 15  1  0
 15 16  2  0
 16 17  1  0
 18 17  2  0
 19 18  1  0
 20 19  2  0
 20 15  1  0
 21 10  1  0
 22 21  2  0
 23 24  1  0
 23 21  1  0
 25 24  1  0
 26 27  1  0
 26 25  1  0
 27 23  1  0
 28 29  1  0
 27 28  1  1
 30 28  2  0
M  END
$$$$
