NWP.pdb
     RDKit          3D

 30 32  0  0  1  0  0  0  0  0999 V2000
   25.3596  -13.1468  -19.8387 N   0  0  0  0  0  0  0  0  0  0  0  0
   25.5227  -14.5484  -19.9628 C   0  0  0  0  0  0  0  0  0  0  0  0
   24.9643  -15.0847  -20.9605 O   0  0  0  0  0  0  0  0  0  0  0  0
   26.2928  -15.3614  -19.0009 C   0  0  0  0  0  0  0  0  0  0  0  0
   25.4666  -16.4631  -18.4402 C   0  0  2  0  0  0  0  0  0  0  0  0
   24.2690  -15.9732  -17.8066 N   0  0  0  0  0  0  0  0  0  0  0  0
   26.2472  -17.4013  -17.5822 C   0  0  0  0  0  0  0  0  0  0  0  0
   27.3914  -17.7997  -17.9833 O   0  0  0  0  0  0  0  0  0  0  0  0
   25.8248  -17.8998  -16.3384 N   0  0  0  0  0  0  0  0  0  0  0  0
   26.5999  -18.9760  -15.6243 C   0  0  1  0  0  0  0  0  0  0  0  0
   26.6037  -18.4756  -14.2106 C   0  0  0  0  0  0  0  0  0  0  0  0
   26.9840  -19.3625  -13.1453 C   0  0  0  0  0  0  0  0  0  0  0  0
   28.2665  -19.8537  -12.9093 C   0  0  0  0  0  0  0  0  0  0  0  0
   28.2378  -20.6754  -11.8214 N   0  0  0  0  0  0  0  0  0  0  0  0
   26.9795  -20.7325  -11.3449 C   0  0  0  0  0  0  0  0  0  0  0  0
   26.4341  -21.4149  -10.2776 C   0  0  0  0  0  0  0  0  0  0  0  0
   25.0880  -21.2963  -10.0069 C   0  0  0  0  0  0  0  0  0  0  0  0
   24.2818  -20.5020  -10.7930 C   0  0  0  0  0  0  0  0  0  0  0  0
   24.8632  -19.8392  -11.8460 C   0  0  0  0  0  0  0  0  0  0  0  0
   26.1963  -19.9188  -12.1636 C   0  0  0  0  0  0  0  0  0  0  0  0
   25.9574  -20.2576  -15.8521 C   0  0  0  0  0  0  0  0  0  0  0  0
   24.7119  -20.2693  -16.1092 O   0  0  0  0  0  0  0  0  0  0  0  0
   26.6310  -21.4831  -15.8102 N   0  0  0  0  0  0  0  0  0  0  0  0
   28.0308  -21.7938  -15.5805 C   0  0  0  0  0  0  0  0  0  0  0  0
   28.3548  -22.9389  -16.5246 C   0  0  0  0  0  0  0  0  0  0  0  0
   27.0294  -23.5727  -16.8186 C   0  0  0  0  0  0  0  0  0  0  0  0
   25.9966  -22.8023  -16.0206 C   0  0  1  0  0  0  0  0  0  0  0  0
   25.7356  -23.5057  -14.7607 C   0  0  0  0  0  0  0  0  0  0  0  0
   25.0149  -24.6897  -14.8051 O   0  0  0  0  0  0  0  0  0  0  0  0
   26.1205  -23.1118  -13.6314 O   0  0  0  0  0  0  0  0  0  0  0  0
  2  3  2  0
  2  1  1  0
  4  2  1  0
  5  4  1  0
  5  6  1  1
  7  5  1  0
  7  8  2  0
  9  7  1  0
 10  9  1  0
 10 11  1  1
 11 12  1  0
 12 13  2  0
 12 20  1  0
 13 14  1  0
 14 15  1  0
 15 16  2  0
 16 17  1  0
 18 17  2  0
 19 18  1  0
 20 19  2  0
 20 15  1  0
 21 10  1  0
 22 21  2  0
 23 24  1  0
 23 21  1  0
 25 24  1  0
 26 27  1  0
 26 25  1  0
 27 23  1  0
 28 29  1  0
 27 28  1  1
 30 28  2  0
M  END
$$$$
