NWP.pdb
     RDKit          3D

 30 32  0  0  1  0  0  0  0  0999 V2000
   29.6919  -22.1476  -19.6696 N   0  0  0  0  0  0  0  0  0  0  0  0
   30.1623  -20.9298  -19.1198 C   0  0  0  0  0  0  0  0  0  0  0  0
   31.1616  -20.4127  -19.6935 O   0  0  0  0  0  0  0  0  0  0  0  0
   29.5437  -20.2791  -17.9480 C   0  0  0  0  0  0  0  0  0  0  0  0
   28.4737  -21.1277  -17.3600 C   0  0  2  0  0  0  0  0  0  0  0  0
   27.4554  -21.4600  -18.3235 N   0  0  0  0  0  0  0  0  0  0  0  0
   27.9249  -20.5781  -16.0864 C   0  0  0  0  0  0  0  0  0  0  0  0
   28.7350  -20.2140  -15.1699 O   0  0  0  0  0  0  0  0  0  0  0  0
   26.5592  -20.4211  -15.7964 N   0  0  0  0  0  0  0  0  0  0  0  0
   26.1014  -19.8229  -14.4920 C   0  0  1  0  0  0  0  0  0  0  0  0
   25.2349  -18.6888  -14.9528 C   0  0  0  0  0  0  0  0  0  0  0  0
   25.8438  -17.4566  -15.3734 C   0  0  0  0  0  0  0  0  0  0  0  0
   26.7679  -16.7110  -14.6441 C   0  0  0  0  0  0  0  0  0  0  0  0
   27.1090  -15.5998  -15.3572 N   0  0  0  0  0  0  0  0  0  0  0  0
   26.4368  -15.6012  -16.5241 C   0  0  0  0  0  0  0  0  0  0  0  0
   26.4296  -14.7119  -17.5783 C   0  0  0  0  0  0  0  0  0  0  0  0
   25.6306  -14.9578  -18.6740 C   0  0  0  0  0  0  0  0  0  0  0  0
   24.8386  -16.0842  -18.7260 C   0  0  0  0  0  0  0  0  0  0  0  0
   24.8743  -16.9447  -17.6561 C   0  0  0  0  0  0  0  0  0  0  0  0
   25.6492  -16.7524  -16.5395 C   0  0  0  0  0  0  0  0  0  0  0  0
   25.4503  -20.8496  -13.6988 C   0  0  0  0  0  0  0  0  0  0  0  0
   25.0811  -21.9175  -14.2826 O   0  0  0  0  0  0  0  0  0  0  0  0
   25.2093  -20.7347  -12.3255 N   0  0  0  0  0  0  0  0  0  0  0  0
   25.5133  -19.6658  -11.3907 C   0  0  0  0  0  0  0  0  0  0  0  0
   25.9393  -20.3561  -10.1063 C   0  0  0  0  0  0  0  0  0  0  0  0
   25.3311  -21.7227  -10.1922 C   0  0  0  0  0  0  0  0  0  0  0  0
   24.5564  -21.7688  -11.4940 C   0  0  1  0  0  0  0  0  0  0  0  0
   23.1464  -21.4663  -11.2287 C   0  0  0  0  0  0  0  0  0  0  0  0
   22.3466  -22.4681  -10.6995 O   0  0  0  0  0  0  0  0  0  0  0  0
   22.6024  -20.3549  -11.4470 O   0  0  0  0  0  0  0  0  0  0  0  0
  2  3  2  0
  2  1  1  0
  4  2  1  0
  5  4  1  0
  5  6  1  6
  7  5  1  0
  7  8  2  0
  9  7  1  0
 10  9  1  0
 10 11  1  6
 11 12  1  0
 12 13  2  0
 12 20  1  0
 13 14  1  0
 14 15  1  0
 15 16  2  0
 16 17  1  0
 18 17  2  0
 19 18  1  0
 20 19  2  0
 20 15  1  0
 21 10  1  0
 22 21  2  0
 23 24  1  0
 23 21  1  0
 25 24  1  0
 26 27  1  0
 26 25  1  0
 27 23  1  0
 28 29  1  0
 27 28  1  1
 30 28  2  0
M  END
$$$$
