NWP.pdb
     RDKit          3D

 30 32  0  0  1  0  0  0  0  0999 V2000
   23.8169  -15.8035  -15.7843 N   0  0  0  0  0  0  0  0  0  0  0  0
   24.0117  -17.1986  -15.9343 C   0  0  0  0  0  0  0  0  0  0  0  0
   23.2555  -17.7773  -16.7639 O   0  0  0  0  0  0  0  0  0  0  0  0
   25.0286  -17.9588  -15.1811 C   0  0  0  0  0  0  0  0  0  0  0  0
   25.6959  -17.1066  -14.1616 C   0  0  2  0  0  0  0  0  0  0  0  0
   26.5015  -16.0742  -14.7622 N   0  0  0  0  0  0  0  0  0  0  0  0
   26.4234  -17.8956  -13.1253 C   0  0  0  0  0  0  0  0  0  0  0  0
   27.5450  -18.4254  -13.4255 O   0  0  0  0  0  0  0  0  0  0  0  0
   25.9727  -18.1145  -11.8127 N   0  0  0  0  0  0  0  0  0  0  0  0
   26.6986  -19.0522  -10.8839 C   0  0  1  0  0  0  0  0  0  0  0  0
   25.9914  -18.8162   -9.5826 C   0  0  0  0  0  0  0  0  0  0  0  0
   26.2809  -19.6592   -8.4550 C   0  0  0  0  0  0  0  0  0  0  0  0
   25.7288  -20.9150   -8.2103 C   0  0  0  0  0  0  0  0  0  0  0  0
   26.2305  -21.4042   -7.0405 N   0  0  0  0  0  0  0  0  0  0  0  0
   27.0894  -20.5072   -6.5197 C   0  0  0  0  0  0  0  0  0  0  0  0
   27.8461  -20.5257   -5.3667 C   0  0  0  0  0  0  0  0  0  0  0  0
   28.6568  -19.4530   -5.0644 C   0  0  0  0  0  0  0  0  0  0  0  0
   28.7183  -18.3618   -5.9036 C   0  0  0  0  0  0  0  0  0  0  0  0
   27.9495  -18.3821   -7.0415 C   0  0  0  0  0  0  0  0  0  0  0  0
   27.1245  -19.4211   -7.3942 C   0  0  0  0  0  0  0  0  0  0  0  0
   26.6310  -20.4002  -11.4184 C   0  0  0  0  0  0  0  0  0  0  0  0
   25.6142  -20.7228  -12.1109 O   0  0  0  0  0  0  0  0  0  0  0  0
   27.6238  -21.3657  -11.2199 N   0  0  0  0  0  0  0  0  0  0  0  0
   28.7252  -21.4198  -10.2751 C   0  0  0  0  0  0  0  0  0  0  0  0
   29.8925  -22.0159  -11.0431 C   0  0  0  0  0  0  0  0  0  0  0  0
   29.2571  -22.7685  -12.1721 C   0  0  0  0  0  0  0  0  0  0  0  0
   27.7589  -22.6110  -12.0059 C   0  0  1  0  0  0  0  0  0  0  0  0
   27.2251  -23.7800  -11.2996 C   0  0  0  0  0  0  0  0  0  0  0  0
   27.1254  -24.9779  -11.9911 O   0  0  0  0  0  0  0  0  0  0  0  0
   26.8473  -23.7776  -10.1013 O   0  0  0  0  0  0  0  0  0  0  0  0
  2  3  2  0
  2  1  1  0
  4  2  1  0
  5  4  1  0
  5  6  1  6
  7  5  1  0
  7  8  2  0
  9  7  1  0
 10  9  1  0
 10 11  1  1
 11 12  1  0
 12 13  2  0
 12 20  1  0
 13 14  1  0
 14 15  1  0
 15 16  2  0
 16 17  1  0
 18 17  2  0
 19 18  1  0
 20 19  2  0
 20 15  1  0
 21 10  1  0
 22 21  2  0
 23 24  1  0
 23 21  1  0
 25 24  1  0
 26 27  1  0
 26 25  1  0
 27 23  1  0
 28 29  1  0
 27 28  1  1
 30 28  2  0
M  END
$$$$
