NWP.pdb
     RDKit          3D

 30 32  0  0  1  0  0  0  0  0999 V2000
   28.5735  -16.0184  -16.9691 N   0  0  0  0  0  0  0  0  0  0  0  0
   27.3700  -16.5032  -16.4004 C   0  0  0  0  0  0  0  0  0  0  0  0
   26.3227  -15.8591  -16.6885 O   0  0  0  0  0  0  0  0  0  0  0  0
   27.3107  -17.6870  -15.5205 C   0  0  0  0  0  0  0  0  0  0  0  0
   26.4292  -17.4457  -14.3476 C   0  0  2  0  0  0  0  0  0  0  0  0
   26.6029  -16.1233  -13.8028 N   0  0  0  0  0  0  0  0  0  0  0  0
   26.5148  -18.5237  -13.3199 C   0  0  0  0  0  0  0  0  0  0  0  0
   26.5127  -19.7421  -13.6999 O   0  0  0  0  0  0  0  0  0  0  0  0
   26.5993  -18.3132  -11.9334 N   0  0  0  0  0  0  0  0  0  0  0  0
   26.6824  -19.4693  -10.9715 C   0  0  1  0  0  0  0  0  0  0  0  0
   27.6196  -18.9422   -9.9261 C   0  0  0  0  0  0  0  0  0  0  0  0
   28.0806  -19.8154   -8.8816 C   0  0  0  0  0  0  0  0  0  0  0  0
   28.6549  -21.0723   -9.0611 C   0  0  0  0  0  0  0  0  0  0  0  0
   28.9517  -21.6069   -7.8423 N   0  0  0  0  0  0  0  0  0  0  0  0
   28.5890  -20.7380   -6.8795 C   0  0  0  0  0  0  0  0  0  0  0  0
   28.6745  -20.8059   -5.5045 C   0  0  0  0  0  0  0  0  0  0  0  0
   28.2175  -19.7550   -4.7390 C   0  0  0  0  0  0  0  0  0  0  0  0
   27.6758  -18.6367   -5.3347 C   0  0  0  0  0  0  0  0  0  0  0  0
   27.6085  -18.6081   -6.7062 C   0  0  0  0  0  0  0  0  0  0  0  0
   28.0471  -19.6233   -7.5194 C   0  0  0  0  0  0  0  0  0  0  0  0
   25.3454  -19.8137  -10.5231 C   0  0  0  0  0  0  0  0  0  0  0  0
   24.5179  -18.8702  -10.3170 O   0  0  0  0  0  0  0  0  0  0  0  0
   24.9116  -21.1264  -10.3086 N   0  0  0  0  0  0  0  0  0  0  0  0
   25.6061  -22.3942  -10.4466 C   0  0  0  0  0  0  0  0  0  0  0  0
   24.5856  -23.3572  -11.0288 C   0  0  0  0  0  0  0  0  0  0  0  0
   23.2579  -22.7622  -10.6713 C   0  0  0  0  0  0  0  0  0  0  0  0
   23.5487  -21.5048   -9.8768 C   0  0  1  0  0  0  0  0  0  0  0  0
   23.4798  -21.8110   -8.4444 C   0  0  0  0  0  0  0  0  0  0  0  0
   22.2298  -21.9640   -7.8636 O   0  0  0  0  0  0  0  0  0  0  0  0
   24.4795  -21.9469   -7.6955 O   0  0  0  0  0  0  0  0  0  0  0  0
  2  3  2  0
  2  1  1  0
  4  2  1  0
  5  4  1  0
  5  6  1  1
  7  5  1  0
  7  8  2  0
  9  7  1  0
 10  9  1  0
 10 11  1  1
 11 12  1  0
 12 13  2  0
 12 20  1  0
 13 14  1  0
 14 15  1  0
 15 16  2  0
 16 17  1  0
 18 17  2  0
 19 18  1  0
 20 19  2  0
 20 15  1  0
 21 10  1  0
 22 21  2  0
 23 24  1  0
 23 21  1  0
 25 24  1  0
 26 27  1  0
 26 25  1  0
 27 23  1  0
 28 29  1  0
 27 28  1  1
 30 28  2  0
M  END
$$$$
