NWP.pdb
     RDKit          3D

 30 32  0  0  1  0  0  0  0  0999 V2000
   27.7835  -14.8741  -17.8621 N   0  0  0  0  0  0  0  0  0  0  0  0
   27.1745  -15.9494  -18.5546 C   0  0  0  0  0  0  0  0  0  0  0  0
   27.1912  -15.8763  -19.8153 O   0  0  0  0  0  0  0  0  0  0  0  0
   26.5496  -17.1000  -17.8730 C   0  0  0  0  0  0  0  0  0  0  0  0
   27.5709  -18.0838  -17.4258 C   0  0  2  0  0  0  0  0  0  0  0  0
   28.2658  -18.6851  -18.5355 N   0  0  0  0  0  0  0  0  0  0  0  0
   27.0362  -19.0811  -16.4536 C   0  0  0  0  0  0  0  0  0  0  0  0
   26.4113  -20.1023  -16.8955 O   0  0  0  0  0  0  0  0  0  0  0  0
   27.1615  -18.9950  -15.0569 N   0  0  0  0  0  0  0  0  0  0  0  0
   26.4410  -19.9555  -14.1474 C   0  0  1  0  0  0  0  0  0  0  0  0
   27.2184  -19.8241  -12.8716 C   0  0  0  0  0  0  0  0  0  0  0  0
   26.8208  -20.5830  -11.7175 C   0  0  0  0  0  0  0  0  0  0  0  0
   26.7329  -21.9717  -11.6432 C   0  0  0  0  0  0  0  0  0  0  0  0
   26.3099  -22.3273  -10.3965 N   0  0  0  0  0  0  0  0  0  0  0  0
   26.1212  -21.2151   -9.6610 C   0  0  0  0  0  0  0  0  0  0  0  0
   25.7029  -21.0379   -8.3587 C   0  0  0  0  0  0  0  0  0  0  0  0
   25.5918  -19.7642   -7.8442 C   0  0  0  0  0  0  0  0  0  0  0  0
   25.8948  -18.6658   -8.6191 C   0  0  0  0  0  0  0  0  0  0  0  0
   26.3077  -18.8846   -9.9106 C   0  0  0  0  0  0  0  0  0  0  0  0
   26.4371  -20.1285  -10.4767 C   0  0  0  0  0  0  0  0  0  0  0  0
   25.0369  -19.5925  -14.0863 C   0  0  0  0  0  0  0  0  0  0  0  0
   24.7242  -18.3693  -14.2393 O   0  0  0  0  0  0  0  0  0  0  0  0
   24.0048  -20.5127  -13.8735 N   0  0  0  0  0  0  0  0  0  0  0  0
   24.0281  -21.9594  -13.7505 C   0  0  0  0  0  0  0  0  0  0  0  0
   22.7843  -22.4502  -14.4714 C   0  0  0  0  0  0  0  0  0  0  0  0
   21.8584  -21.2723  -14.4719 C   0  0  0  0  0  0  0  0  0  0  0  0
   22.5755  -20.1600  -13.7333 C   0  0  1  0  0  0  0  0  0  0  0  0
   22.1363  -20.1468  -12.3343 C   0  0  0  0  0  0  0  0  0  0  0  0
   20.9394  -19.5177  -12.0262 O   0  0  0  0  0  0  0  0  0  0  0  0
   22.7700  -20.6689  -11.3833 O   0  0  0  0  0  0  0  0  0  0  0  0
  2  3  2  0
  2  1  1  0
  4  2  1  0
  5  4  1  0
  5  6  1  6
  7  5  1  0
  7  8  2  0
  9  7  1  0
 10  9  1  0
 10 11  1  1
 11 12  1  0
 12 13  2  0
 12 20  1  0
 13 14  1  0
 14 15  1  0
 15 16  2  0
 16 17  1  0
 18 17  2  0
 19 18  1  0
 20 19  2  0
 20 15  1  0
 21 10  1  0
 22 21  2  0
 23 24  1  0
 23 21  1  0
 25 24  1  0
 26 27  1  0
 26 25  1  0
 27 23  1  0
 28 29  1  0
 27 28  1  1
 30 28  2  0
M  END
$$$$
