NWP.pdb
     RDKit          3D

 30 32  0  0  1  0  0  0  0  0999 V2000
   31.3339  -21.8903  -14.6679 N   0  0  0  0  0  0  0  0  0  0  0  0
   29.9941  -21.6584  -15.0653 C   0  0  0  0  0  0  0  0  0  0  0  0
   29.8026  -21.5055  -16.3042 O   0  0  0  0  0  0  0  0  0  0  0  0
   28.8678  -21.5935  -14.1132 C   0  0  0  0  0  0  0  0  0  0  0  0
   29.3487  -21.5787  -12.7063 C   0  0  2  0  0  0  0  0  0  0  0  0
   30.2708  -22.6527  -12.4380 N   0  0  0  0  0  0  0  0  0  0  0  0
   28.2415  -21.4883  -11.7106 C   0  0  0  0  0  0  0  0  0  0  0  0
   27.7120  -22.5646  -11.2749 O   0  0  0  0  0  0  0  0  0  0  0  0
   27.7142  -20.2924  -11.1952 N   0  0  0  0  0  0  0  0  0  0  0  0
   26.4840  -20.2918  -10.3260 C   0  0  1  0  0  0  0  0  0  0  0  0
   26.8529  -19.3045   -9.2591 C   0  0  0  0  0  0  0  0  0  0  0  0
   27.8527  -19.6518   -8.2865 C   0  0  0  0  0  0  0  0  0  0  0  0
   29.2161  -19.8003   -8.5332 C   0  0  0  0  0  0  0  0  0  0  0  0
   29.8455  -20.1470   -7.3743 N   0  0  0  0  0  0  0  0  0  0  0  0
   28.9351  -20.2276   -6.3852 C   0  0  0  0  0  0  0  0  0  0  0  0
   29.0606  -20.5400   -5.0476 C   0  0  0  0  0  0  0  0  0  0  0  0
   27.9431  -20.5519   -4.2411 C   0  0  0  0  0  0  0  0  0  0  0  0
   26.7012  -20.2545   -4.7589 C   0  0  0  0  0  0  0  0  0  0  0  0
   26.6185  -19.9488   -6.0953 C   0  0  0  0  0  0  0  0  0  0  0  0
   27.6953  -19.9211   -6.9463 C   0  0  0  0  0  0  0  0  0  0  0  0
   25.3268  -19.9607  -11.1375 C   0  0  0  0  0  0  0  0  0  0  0  0
   25.4380  -19.0239  -11.9906 O   0  0  0  0  0  0  0  0  0  0  0  0
   24.0951  -20.6168  -11.0392 N   0  0  0  0  0  0  0  0  0  0  0  0
   23.6645  -21.7133  -10.1901 C   0  0  0  0  0  0  0  0  0  0  0  0
   22.7714  -22.5785  -11.0627 C   0  0  0  0  0  0  0  0  0  0  0  0
   22.2996  -21.6599  -12.1483 C   0  0  0  0  0  0  0  0  0  0  0  0
   22.9032  -20.3009  -11.8557 C   0  0  1  0  0  0  0  0  0  0  0  0
   21.9263  -19.4843  -11.1283 C   0  0  0  0  0  0  0  0  0  0  0  0
   20.8835  -18.9138  -11.8427 O   0  0  0  0  0  0  0  0  0  0  0  0
   21.9636  -19.2603   -9.8926 O   0  0  0  0  0  0  0  0  0  0  0  0
  2  3  2  0
  2  1  1  0
  4  2  1  0
  5  4  1  0
  5  6  1  1
  7  5  1  0
  7  8  2  0
  9  7  1  0
 10  9  1  0
 10 11  1  1
 11 12  1  0
 12 13  2  0
 12 20  1  0
 13 14  1  0
 14 15  1  0
 15 16  2  0
 16 17  1  0
 18 17  2  0
 19 18  1  0
 20 19  2  0
 20 15  1  0
 21 10  1  0
 22 21  2  0
 23 24  1  0
 23 21  1  0
 25 24  1  0
 26 27  1  0
 26 25  1  0
 27 23  1  0
 28 29  1  0
 27 28  1  1
 30 28  2  0
M  END
$$$$
