NWP.pdb
     RDKit          3D

 30 32  0  0  1  0  0  0  0  0999 V2000
   18.9398  -21.1726  -13.7310 N   0  0  0  0  0  0  0  0  0  0  0  0
   19.9365  -21.6415  -12.8404 C   0  0  0  0  0  0  0  0  0  0  0  0
   19.6091  -22.6154  -12.1060 O   0  0  0  0  0  0  0  0  0  0  0  0
   21.2858  -21.0491  -12.7521 C   0  0  0  0  0  0  0  0  0  0  0  0
   21.7270  -20.9164  -11.3384 C   0  0  2  0  0  0  0  0  0  0  0  0
   20.8074  -20.1307  -10.5557 N   0  0  0  0  0  0  0  0  0  0  0  0
   23.1447  -20.4706  -11.2075 C   0  0  0  0  0  0  0  0  0  0  0  0
   23.5088  -19.3902  -11.7810 O   0  0  0  0  0  0  0  0  0  0  0  0
   24.1427  -21.1516  -10.4905 N   0  0  0  0  0  0  0  0  0  0  0  0
   25.5555  -20.6322  -10.4334 C   0  0  1  0  0  0  0  0  0  0  0  0
   25.9829  -21.0343   -9.0532 C   0  0  0  0  0  0  0  0  0  0  0  0
   26.6009  -20.0641   -8.1914 C   0  0  0  0  0  0  0  0  0  0  0  0
   26.3607  -18.6915   -8.2012 C   0  0  0  0  0  0  0  0  0  0  0  0
   27.1388  -18.0942   -7.2540 N   0  0  0  0  0  0  0  0  0  0  0  0
   27.8746  -19.0343   -6.6308 C   0  0  0  0  0  0  0  0  0  0  0  0
   28.8038  -18.9464   -5.6153 C   0  0  0  0  0  0  0  0  0  0  0  0
   29.4241  -20.0882   -5.1561 C   0  0  0  0  0  0  0  0  0  0  0  0
   29.1245  -21.3172   -5.7024 C   0  0  0  0  0  0  0  0  0  0  0  0
   28.1940  -21.3623   -6.7116 C   0  0  0  0  0  0  0  0  0  0  0  0
   27.5446  -20.2600   -7.2092 C   0  0  0  0  0  0  0  0  0  0  0  0
   26.3161  -21.1969  -11.5332 C   0  0  0  0  0  0  0  0  0  0  0  0
   26.1206  -22.4164  -11.8369 O   0  0  0  0  0  0  0  0  0  0  0  0
   27.2504  -20.4748  -12.2837 N   0  0  0  0  0  0  0  0  0  0  0  0
   27.8106  -19.1495  -12.0877 C   0  0  0  0  0  0  0  0  0  0  0  0
   27.9201  -18.5436  -13.4764 C   0  0  0  0  0  0  0  0  0  0  0  0
   27.9503  -19.7217  -14.4014 C   0  0  0  0  0  0  0  0  0  0  0  0
   27.8887  -20.9581  -13.5270 C   0  0  1  0  0  0  0  0  0  0  0  0
   29.2483  -21.4586  -13.3007 C   0  0  0  0  0  0  0  0  0  0  0  0
   29.9058  -22.0767  -14.3537 O   0  0  0  0  0  0  0  0  0  0  0  0
   29.8693  -21.3682  -12.2122 O   0  0  0  0  0  0  0  0  0  0  0  0
  2  3  2  0
  2  1  1  0
  4  2  1  0
  5  4  1  0
  5  6  1  1
  7  5  1  0
  7  8  2  0
  9  7  1  0
 10  9  1  0
 10 11  1  1
 11 12  1  0
 12 13  2  0
 12 20  1  0
 13 14  1  0
 14 15  1  0
 15 16  2  0
 16 17  1  0
 18 17  2  0
 19 18  1  0
 20 19  2  0
 20 15  1  0
 21 10  1  0
 22 21  2  0
 23 24  1  0
 23 21  1  0
 25 24  1  0
 26 27  1  0
 26 25  1  0
 27 23  1  0
 28 29  1  0
 27 28  1  1
 30 28  2  0
M  END
$$$$
