NWP.pdb
     RDKit          3D

 30 32  0  0  1  0  0  0  0  0999 V2000
   28.8436  -16.5085  -17.7806 N   0  0  0  0  0  0  0  0  0  0  0  0
   28.7753  -16.9105  -16.4240 C   0  0  0  0  0  0  0  0  0  0  0  0
   29.5351  -16.2946  -15.6250 O   0  0  0  0  0  0  0  0  0  0  0  0
   27.8808  -17.9812  -15.9418 C   0  0  0  0  0  0  0  0  0  0  0  0
   28.6545  -19.1481  -15.4412 C   0  0  2  0  0  0  0  0  0  0  0  0
   29.4938  -19.7200  -16.4632 N   0  0  0  0  0  0  0  0  0  0  0  0
   27.8058  -20.1561  -14.7416 C   0  0  0  0  0  0  0  0  0  0  0  0
   27.0952  -20.9561  -15.4372 O   0  0  0  0  0  0  0  0  0  0  0  0
   27.7154  -20.3082  -13.3478 N   0  0  0  0  0  0  0  0  0  0  0  0
   26.7835  -21.3183  -12.7313 C   0  0  1  0  0  0  0  0  0  0  0  0
   27.3924  -21.5219  -11.3759 C   0  0  0  0  0  0  0  0  0  0  0  0
   26.8354  -20.8417  -10.2387 C   0  0  0  0  0  0  0  0  0  0  0  0
   25.6248  -20.1522  -10.2112 C   0  0  0  0  0  0  0  0  0  0  0  0
   25.4369  -19.6275   -8.9666 N   0  0  0  0  0  0  0  0  0  0  0  0
   26.4853  -19.9545   -8.1873 C   0  0  0  0  0  0  0  0  0  0  0  0
   26.7709  -19.6690   -6.8685 C   0  0  0  0  0  0  0  0  0  0  0  0
   27.9399  -20.1346   -6.3064 C   0  0  0  0  0  0  0  0  0  0  0  0
   28.8263  -20.8830   -7.0500 C   0  0  0  0  0  0  0  0  0  0  0  0
   28.5053  -21.1453   -8.3594 C   0  0  0  0  0  0  0  0  0  0  0  0
   27.3573  -20.7087   -8.9725 C   0  0  0  0  0  0  0  0  0  0  0  0
   25.4293  -20.7962  -12.7571 C   0  0  0  0  0  0  0  0  0  0  0  0
   25.2623  -19.5474  -12.5836 O   0  0  0  0  0  0  0  0  0  0  0  0
   24.2950  -21.5877  -12.9671 N   0  0  0  0  0  0  0  0  0  0  0  0
   24.1456  -23.0275  -13.0828 C   0  0  0  0  0  0  0  0  0  0  0  0
   23.1025  -23.2437  -14.1656 C   0  0  0  0  0  0  0  0  0  0  0  0
   22.3284  -21.9616  -14.2060 C   0  0  0  0  0  0  0  0  0  0  0  0
   22.9217  -21.0660  -13.1370 C   0  0  1  0  0  0  0  0  0  0  0  0
   22.1235  -21.1806  -11.9123 C   0  0  0  0  0  0  0  0  0  0  0  0
   20.9035  -20.5234  -11.8579 O   0  0  0  0  0  0  0  0  0  0  0  0
   22.4657  -21.8373  -10.8972 O   0  0  0  0  0  0  0  0  0  0  0  0
  2  3  2  0
  2  1  1  0
  4  2  1  0
  5  4  1  0
  5  6  1  6
  7  5  1  0
  7  8  2  0
  9  7  1  0
 10  9  1  0
 10 11  1  1
 11 12  1  0
 12 13  2  0
 12 20  1  0
 13 14  1  0
 14 15  1  0
 15 16  2  0
 16 17  1  0
 18 17  2  0
 19 18  1  0
 20 19  2  0
 20 15  1  0
 21 10  1  0
 22 21  2  0
 23 24  1  0
 23 21  1  0
 25 24  1  0
 26 27  1  0
 26 25  1  0
 27 23  1  0
 28 29  1  0
 27 28  1  1
 30 28  2  0
M  END
$$$$
