NWP.pdb
     RDKit          3D

 30 32  0  0  1  0  0  0  0  0999 V2000
   19.2998  -21.9963  -13.6906 N   0  0  0  0  0  0  0  0  0  0  0  0
   20.4746  -22.4150  -13.0189 C   0  0  0  0  0  0  0  0  0  0  0  0
   20.3724  -23.4674  -12.3283 O   0  0  0  0  0  0  0  0  0  0  0  0
   21.7562  -21.6870  -13.1010 C   0  0  0  0  0  0  0  0  0  0  0  0
   22.2190  -21.2529  -11.7563 C   0  0  2  0  0  0  0  0  0  0  0  0
   21.2467  -20.4241  -11.0905 N   0  0  0  0  0  0  0  0  0  0  0  0
   23.5882  -20.6607  -11.7719 C   0  0  0  0  0  0  0  0  0  0  0  0
   23.7352  -19.4526  -12.1563 O   0  0  0  0  0  0  0  0  0  0  0  0
   24.7628  -21.3312  -11.3917 N   0  0  0  0  0  0  0  0  0  0  0  0
   26.1224  -20.7694  -11.7152 C   0  0  1  0  0  0  0  0  0  0  0  0
   26.9588  -21.3022  -10.5902 C   0  0  0  0  0  0  0  0  0  0  0  0
   26.8978  -20.6709   -9.3003 C   0  0  0  0  0  0  0  0  0  0  0  0
   25.7751  -20.0656   -8.7390 C   0  0  0  0  0  0  0  0  0  0  0  0
   26.1023  -19.5652   -7.5134 N   0  0  0  0  0  0  0  0  0  0  0  0
   27.3993  -19.8265   -7.2623 C   0  0  0  0  0  0  0  0  0  0  0  0
   28.1997  -19.5331   -6.1780 C   0  0  0  0  0  0  0  0  0  0  0  0
   29.5217  -19.9228   -6.1795 C   0  0  0  0  0  0  0  0  0  0  0  0
   30.0512  -20.6029   -7.2546 C   0  0  0  0  0  0  0  0  0  0  0  0
   29.2214  -20.8757   -8.3144 C   0  0  0  0  0  0  0  0  0  0  0  0
   27.8985  -20.5132   -8.3690 C   0  0  0  0  0  0  0  0  0  0  0  0
   26.5037  -21.1834  -13.0532 C   0  0  0  0  0  0  0  0  0  0  0  0
   26.0188  -22.2672  -13.5091 O   0  0  0  0  0  0  0  0  0  0  0  0
   27.3715  -20.4555  -13.8744 N   0  0  0  0  0  0  0  0  0  0  0  0
   28.2888  -19.3721  -13.5684 C   0  0  0  0  0  0  0  0  0  0  0  0
   28.1961  -18.4148  -14.7442 C   0  0  0  0  0  0  0  0  0  0  0  0
   27.6820  -19.2532  -15.8744 C   0  0  0  0  0  0  0  0  0  0  0  0
   27.5243  -20.6593  -15.3311 C   0  0  1  0  0  0  0  0  0  0  0  0
   28.7175  -21.4434  -15.6651 C   0  0  0  0  0  0  0  0  0  0  0  0
   28.9300  -21.7857  -16.9921 O   0  0  0  0  0  0  0  0  0  0  0  0
   29.5715  -21.8326  -14.8297 O   0  0  0  0  0  0  0  0  0  0  0  0
  2  3  2  0
  2  1  1  0
  4  2  1  0
  5  4  1  0
  5  6  1  6
  7  5  1  0
  7  8  2  0
  9  7  1  0
 10  9  1  0
 10 11  1  1
 11 12  1  0
 12 13  2  0
 12 20  1  0
 13 14  1  0
 14 15  1  0
 15 16  2  0
 16 17  1  0
 18 17  2  0
 19 18  1  0
 20 19  2  0
 20 15  1  0
 21 10  1  0
 22 21  2  0
 23 24  1  0
 23 21  1  0
 25 24  1  0
 26 27  1  0
 26 25  1  0
 27 23  1  0
 28 29  1  0
 27 28  1  1
 30 28  2  0
M  END
$$$$
