NWP.pdb
     RDKit          3D

 30 32  0  0  1  0  0  0  0  0999 V2000
   13.7607  -12.3410    7.3816 N   0  0  0  0  0  0  0  0  0  0  0  0
   13.3411  -13.5848    7.9142 C   0  0  0  0  0  0  0  0  0  0  0  0
   12.4445  -13.5328    8.8021 O   0  0  0  0  0  0  0  0  0  0  0  0
   13.8986  -14.8805    7.4787 C   0  0  0  0  0  0  0  0  0  0  0  0
   13.5368  -15.1783    6.0676 C   0  0  2  0  0  0  0  0  0  0  0  0
   12.1394  -15.4975    5.9227 N   0  0  0  0  0  0  0  0  0  0  0  0
   14.4405  -16.1801    5.4309 C   0  0  0  0  0  0  0  0  0  0  0  0
   14.1698  -17.4215    5.5507 O   0  0  0  0  0  0  0  0  0  0  0  0
   15.5947  -15.8720    4.6915 N   0  0  0  0  0  0  0  0  0  0  0  0
   16.5471  -16.9501    4.2449 C   0  0  1  0  0  0  0  0  0  0  0  0
   17.3524  -16.2435    3.1954 C   0  0  0  0  0  0  0  0  0  0  0  0
   18.1706  -17.0086    2.2946 C   0  0  0  0  0  0  0  0  0  0  0  0
   17.8195  -18.2185    1.6992 C   0  0  0  0  0  0  0  0  0  0  0  0
   18.8525  -18.6509    0.9212 N   0  0  0  0  0  0  0  0  0  0  0  0
   19.8608  -17.7611    0.9927 C   0  0  0  0  0  0  0  0  0  0  0  0
   21.1066  -17.7385    0.4011 C   0  0  0  0  0  0  0  0  0  0  0  0
   21.9627  -16.6878    0.6512 C   0  0  0  0  0  0  0  0  0  0  0  0
   21.5854  -15.6594    1.4871 C   0  0  0  0  0  0  0  0  0  0  0  0
   20.3370  -15.7191    2.0565 C   0  0  0  0  0  0  0  0  0  0  0  0
   19.4427  -16.7387    1.8446 C   0  0  0  0  0  0  0  0  0  0  0  0
   17.2812  -17.4447    5.3954 C   0  0  0  0  0  0  0  0  0  0  0  0
   17.5657  -16.6254    6.3256 O   0  0  0  0  0  0  0  0  0  0  0  0
   17.6904  -18.7743    5.5432 N   0  0  0  0  0  0  0  0  0  0  0  0
   17.4947  -19.9324    4.6892 C   0  0  0  0  0  0  0  0  0  0  0  0
   17.2393  -21.0959    5.6319 C   0  0  0  0  0  0  0  0  0  0  0  0
   17.8457  -20.6680    6.9333 C   0  0  0  0  0  0  0  0  0  0  0  0
   18.4524  -19.2993    6.6969 C   0  0  1  0  0  0  0  0  0  0  0  0
   19.8814  -19.4479    6.4035 C   0  0  0  0  0  0  0  0  0  0  0  0
   20.7416  -19.7387    7.4517 O   0  0  0  0  0  0  0  0  0  0  0  0
   20.3906  -19.3303    5.2609 O   0  0  0  0  0  0  0  0  0  0  0  0
  2  3  2  0
  2  1  1  0
  4  2  1  0
  5  4  1  0
  5  6  1  1
  7  5  1  0
  7  8  2  0
  9  7  1  0
 10  9  1  0
 10 11  1  6
 11 12  1  0
 12 13  2  0
 12 20  1  0
 13 14  1  0
 14 15  1  0
 15 16  2  0
 16 17  1  0
 18 17  2  0
 19 18  1  0
 20 19  2  0
 20 15  1  0
 21 10  1  0
 22 21  2  0
 23 24  1  0
 23 21  1  0
 25 24  1  0
 26 27  1  0
 26 25  1  0
 27 23  1  0
 28 29  1  0
 27 28  1  6
 30 28  2  0
M  END
$$$$
