NWP.pdb
     RDKit          3D

 30 32  0  0  1  0  0  0  0  0999 V2000
   22.3108  -19.9367  -15.5919 N   0  0  0  0  0  0  0  0  0  0  0  0
   22.8212  -19.3341  -14.4158 C   0  0  0  0  0  0  0  0  0  0  0  0
   22.9541  -18.0787  -14.4498 O   0  0  0  0  0  0  0  0  0  0  0  0
   23.1850  -20.0997  -13.2073 C   0  0  0  0  0  0  0  0  0  0  0  0
   24.6597  -20.1536  -13.0245 C   0  0  2  0  0  0  0  0  0  0  0  0
   25.3238  -20.7526  -14.1541 N   0  0  0  0  0  0  0  0  0  0  0  0
   25.0658  -20.7474  -11.7176 C   0  0  0  0  0  0  0  0  0  0  0  0
   24.8143  -21.9782  -11.4925 O   0  0  0  0  0  0  0  0  0  0  0  0
   25.7177  -20.0550  -10.6834 N   0  0  0  0  0  0  0  0  0  0  0  0
   26.0441  -20.7292   -9.3766 C   0  0  1  0  0  0  0  0  0  0  0  0
   27.3718  -20.1226   -9.0325 C   0  0  0  0  0  0  0  0  0  0  0  0
   28.0295  -20.5011   -7.8118 C   0  0  0  0  0  0  0  0  0  0  0  0
   28.6666  -21.7165   -7.5696 C   0  0  0  0  0  0  0  0  0  0  0  0
   29.1599  -21.7177   -6.2983 N   0  0  0  0  0  0  0  0  0  0  0  0
   28.8638  -20.5433   -5.7094 C   0  0  0  0  0  0  0  0  0  0  0  0
   29.1343  -20.0575   -4.4472 C   0  0  0  0  0  0  0  0  0  0  0  0
   28.7056  -18.7961   -4.0944 C   0  0  0  0  0  0  0  0  0  0  0  0
   28.0090  -18.0156   -4.9912 C   0  0  0  0  0  0  0  0  0  0  0  0
   27.7599  -18.5358   -6.2377 C   0  0  0  0  0  0  0  0  0  0  0  0
   28.1615  -19.7837   -6.6450 C   0  0  0  0  0  0  0  0  0  0  0  0
   24.9647  -20.4928   -8.4353 C   0  0  0  0  0  0  0  0  0  0  0  0
   24.3098  -19.4068   -8.5307 O   0  0  0  0  0  0  0  0  0  0  0  0
   24.5988  -21.3944   -7.4300 N   0  0  0  0  0  0  0  0  0  0  0  0
   25.2161  -22.6328   -6.9895 C   0  0  0  0  0  0  0  0  0  0  0  0
   24.0652  -23.5745   -6.6794 C   0  0  0  0  0  0  0  0  0  0  0  0
   22.8971  -22.6720   -6.4229 C   0  0  0  0  0  0  0  0  0  0  0  0
   23.4104  -21.2527   -6.5612 C   0  0  1  0  0  0  0  0  0  0  0  0
   23.7463  -20.7284   -5.2337 C   0  0  0  0  0  0  0  0  0  0  0  0
   25.0836  -20.6565   -4.8735 O   0  0  0  0  0  0  0  0  0  0  0  0
   22.9039  -20.3347   -4.3886 O   0  0  0  0  0  0  0  0  0  0  0  0
  2  3  2  0
  2  1  1  0
  4  2  1  0
  5  4  1  0
  5  6  1  6
  7  5  1  0
  7  8  2  0
  9  7  1  0
 10  9  1  0
 10 11  1  1
 11 12  1  0
 12 13  2  0
 12 20  1  0
 13 14  1  0
 14 15  1  0
 15 16  2  0
 16 17  1  0
 18 17  2  0
 19 18  1  0
 20 19  2  0
 20 15  1  0
 21 10  1  0
 22 21  2  0
 23 24  1  0
 23 21  1  0
 25 24  1  0
 26 27  1  0
 26 25  1  0
 27 23  1  0
 28 29  1  0
 27 28  1  1
 30 28  2  0
M  END
$$$$
