NWP.pdb
     RDKit          3D

 30 32  0  0  1  0  0  0  0  0999 V2000
   22.8820  -14.4402  -19.9052 N   0  0  0  0  0  0  0  0  0  0  0  0
   23.5649  -15.4605  -19.1985 C   0  0  0  0  0  0  0  0  0  0  0  0
   23.7215  -16.5515  -19.8152 O   0  0  0  0  0  0  0  0  0  0  0  0
   24.0747  -15.2900  -17.8237 C   0  0  0  0  0  0  0  0  0  0  0  0
   23.3018  -16.1109  -16.8543 C   0  0  2  0  0  0  0  0  0  0  0  0
   22.3290  -15.3275  -16.1362 N   0  0  0  0  0  0  0  0  0  0  0  0
   24.1692  -16.9360  -15.9642 C   0  0  0  0  0  0  0  0  0  0  0  0
   25.3965  -16.6147  -15.8257 O   0  0  0  0  0  0  0  0  0  0  0  0
   23.7455  -18.0661  -15.2451 N   0  0  0  0  0  0  0  0  0  0  0  0
   24.6819  -18.8007  -14.3218 C   0  0  1  0  0  0  0  0  0  0  0  0
   23.7803  -19.1574  -13.1777 C   0  0  0  0  0  0  0  0  0  0  0  0
   24.2573  -20.0380  -12.1467 C   0  0  0  0  0  0  0  0  0  0  0  0
   24.0324  -21.4114  -12.0764 C   0  0  0  0  0  0  0  0  0  0  0  0
   24.6262  -21.9052  -10.9525 N   0  0  0  0  0  0  0  0  0  0  0  0
   25.2285  -20.8973  -10.2929 C   0  0  0  0  0  0  0  0  0  0  0  0
   25.9523  -20.8738   -9.1191 C   0  0  0  0  0  0  0  0  0  0  0  0
   26.4667  -19.6815   -8.6575 C   0  0  0  0  0  0  0  0  0  0  0  0
   26.2645  -18.5123   -9.3580 C   0  0  0  0  0  0  0  0  0  0  0  0
   25.5385  -18.5779  -10.5220 C   0  0  0  0  0  0  0  0  0  0  0  0
   25.0024  -19.7350  -11.0302 C   0  0  0  0  0  0  0  0  0  0  0  0
   25.2841  -19.9107  -15.0375 C   0  0  0  0  0  0  0  0  0  0  0  0
   24.6483  -20.4097  -16.0195 O   0  0  0  0  0  0  0  0  0  0  0  0
   26.5283  -20.4618  -14.7123 N   0  0  0  0  0  0  0  0  0  0  0  0
   27.4193  -20.2096  -13.5938 C   0  0  0  0  0  0  0  0  0  0  0  0
   28.8231  -20.2526  -14.1728 C   0  0  0  0  0  0  0  0  0  0  0  0
   28.6898  -21.0608  -15.4272 C   0  0  0  0  0  0  0  0  0  0  0  0
   27.2363  -21.4805  -15.5173 C   0  0  1  0  0  0  0  0  0  0  0  0
   27.0881  -22.8316  -14.9671 C   0  0  0  0  0  0  0  0  0  0  0  0
   26.3387  -22.9929  -13.8114 O   0  0  0  0  0  0  0  0  0  0  0  0
   27.5945  -23.8656  -15.4699 O   0  0  0  0  0  0  0  0  0  0  0  0
  2  3  2  0
  2  1  1  0
  4  2  1  0
  5  4  1  0
  5  6  1  1
  7  5  1  0
  7  8  2  0
  9  7  1  0
 10  9  1  0
 10 11  1  1
 11 12  1  0
 12 13  2  0
 12 20  1  0
 13 14  1  0
 14 15  1  0
 15 16  2  0
 16 17  1  0
 18 17  2  0
 19 18  1  0
 20 19  2  0
 20 15  1  0
 21 10  1  0
 22 21  2  0
 23 24  1  0
 23 21  1  0
 25 24  1  0
 26 27  1  0
 26 25  1  0
 27 23  1  0
 28 29  1  0
 27 28  1  1
 30 28  2  0
M  END
$$$$
