NWP.pdb
     RDKit          3D

 30 32  0  0  1  0  0  0  0  0999 V2000
   29.5030  -17.4266  -17.3252 N   0  0  0  0  0  0  0  0  0  0  0  0
   28.1059  -17.3492  -17.1036 C   0  0  0  0  0  0  0  0  0  0  0  0
   27.5136  -16.3713  -17.6399 O   0  0  0  0  0  0  0  0  0  0  0  0
   27.3587  -18.3362  -16.2994 C   0  0  0  0  0  0  0  0  0  0  0  0
   28.2725  -19.3316  -15.6789 C   0  0  2  0  0  0  0  0  0  0  0  0
   28.9520  -20.1317  -16.6658 N   0  0  0  0  0  0  0  0  0  0  0  0
   27.6169  -20.1417  -14.6114 C   0  0  0  0  0  0  0  0  0  0  0  0
   26.8239  -21.0831  -14.9483 O   0  0  0  0  0  0  0  0  0  0  0  0
   27.7984  -19.9565  -13.2306 N   0  0  0  0  0  0  0  0  0  0  0  0
   26.9945  -20.7390  -12.2253 C   0  0  1  0  0  0  0  0  0  0  0  0
   27.7229  -20.4501  -10.9466 C   0  0  0  0  0  0  0  0  0  0  0  0
   27.0176  -20.5244   -9.6963 C   0  0  0  0  0  0  0  0  0  0  0  0
   25.7272  -21.0178   -9.5139 C   0  0  0  0  0  0  0  0  0  0  0  0
   25.3908  -20.9148   -8.1965 N   0  0  0  0  0  0  0  0  0  0  0  0
   26.4205  -20.3715   -7.5196 C   0  0  0  0  0  0  0  0  0  0  0  0
   26.5780  -20.0622   -6.1847 C   0  0  0  0  0  0  0  0  0  0  0  0
   27.7580  -19.4994   -5.7486 C   0  0  0  0  0  0  0  0  0  0  0  0
   28.7821  -19.2427   -6.6341 C   0  0  0  0  0  0  0  0  0  0  0  0
   28.5858  -19.5652   -7.9546 C   0  0  0  0  0  0  0  0  0  0  0  0
   27.4338  -20.1268   -8.4464 C   0  0  0  0  0  0  0  0  0  0  0  0
   25.6083  -20.3127  -12.2873 C   0  0  0  0  0  0  0  0  0  0  0  0
   25.3629  -19.0652  -12.3182 O   0  0  0  0  0  0  0  0  0  0  0  0
   24.5242  -21.1964  -12.3203 N   0  0  0  0  0  0  0  0  0  0  0  0
   24.4614  -22.6352  -12.1338 C   0  0  0  0  0  0  0  0  0  0  0  0
   23.4384  -23.1327  -13.1405 C   0  0  0  0  0  0  0  0  0  0  0  0
   22.5896  -21.9350  -13.4401 C   0  0  0  0  0  0  0  0  0  0  0  0
   23.1231  -20.8036  -12.5844 C   0  0  1  0  0  0  0  0  0  0  0  0
   22.3269  -20.7089  -11.3567 C   0  0  0  0  0  0  0  0  0  0  0  0
   21.0533  -20.1663  -11.4384 O   0  0  0  0  0  0  0  0  0  0  0  0
   22.7164  -21.0870  -10.2235 O   0  0  0  0  0  0  0  0  0  0  0  0
  2  3  2  0
  2  1  1  0
  4  2  1  0
  5  4  1  0
  5  6  1  6
  7  5  1  0
  7  8  2  0
  9  7  1  0
 10  9  1  0
 10 11  1  1
 11 12  1  0
 12 13  2  0
 12 20  1  0
 13 14  1  0
 14 15  1  0
 15 16  2  0
 16 17  1  0
 18 17  2  0
 19 18  1  0
 20 19  2  0
 20 15  1  0
 21 10  1  0
 22 21  2  0
 23 24  1  0
 23 21  1  0
 25 24  1  0
 26 27  1  0
 26 25  1  0
 27 23  1  0
 28 29  1  0
 27 28  1  1
 30 28  2  0
M  END
$$$$
