NWP.pdb
     RDKit          3D

 30 32  0  0  1  0  0  0  0  0999 V2000
   29.4569  -24.7878  -18.9858 N   0  0  0  0  0  0  0  0  0  0  0  0
   29.1927  -25.1215  -17.6346 C   0  0  0  0  0  0  0  0  0  0  0  0
   29.4041  -26.3234  -17.3096 O   0  0  0  0  0  0  0  0  0  0  0  0
   28.6995  -24.1462  -16.6423 C   0  0  0  0  0  0  0  0  0  0  0  0
   28.5346  -22.7971  -17.2453 C   0  0  2  0  0  0  0  0  0  0  0  0
   29.7963  -22.2192  -17.6324 N   0  0  0  0  0  0  0  0  0  0  0  0
   27.6966  -21.8838  -16.4151 C   0  0  0  0  0  0  0  0  0  0  0  0
   28.2254  -21.3021  -15.4097 O   0  0  0  0  0  0  0  0  0  0  0  0
   26.3405  -21.5985  -16.6461 N   0  0  0  0  0  0  0  0  0  0  0  0
   25.5616  -20.7033  -15.7183 C   0  0  1  0  0  0  0  0  0  0  0  0
   24.7565  -19.8792  -16.6786 C   0  0  0  0  0  0  0  0  0  0  0  0
   23.6550  -19.0955  -16.1901 C   0  0  0  0  0  0  0  0  0  0  0  0
   23.7524  -17.9560  -15.3940 C   0  0  0  0  0  0  0  0  0  0  0  0
   22.4993  -17.4939  -15.1189 N   0  0  0  0  0  0  0  0  0  0  0  0
   21.5937  -18.2960  -15.7106 C   0  0  0  0  0  0  0  0  0  0  0  0
   20.2152  -18.2601  -15.7348 C   0  0  0  0  0  0  0  0  0  0  0  0
   19.5187  -19.2251  -16.4298 C   0  0  0  0  0  0  0  0  0  0  0  0
   20.1872  -20.2258  -17.1010 C   0  0  0  0  0  0  0  0  0  0  0  0
   21.5597  -20.2264  -17.0525 C   0  0  0  0  0  0  0  0  0  0  0  0
   22.3062  -19.2928  -16.3775 C   0  0  0  0  0  0  0  0  0  0  0  0
   24.8098  -21.5221  -14.7849 C   0  0  0  0  0  0  0  0  0  0  0  0
   24.4117  -22.6661  -15.1729 O   0  0  0  0  0  0  0  0  0  0  0  0
   24.5011  -21.1275  -13.4786 N   0  0  0  0  0  0  0  0  0  0  0  0
   24.9465  -19.9876  -12.6970 C   0  0  0  0  0  0  0  0  0  0  0  0
   25.1349  -20.5108  -11.2834 C   0  0  0  0  0  0  0  0  0  0  0  0
   24.2733  -21.7346  -11.2155 C   0  0  0  0  0  0  0  0  0  0  0  0
   23.5981  -21.8619  -12.5664 C   0  0  1  0  0  0  0  0  0  0  0  0
   22.2620  -21.2617  -12.4977 C   0  0  0  0  0  0  0  0  0  0  0  0
   22.0536  -20.0454  -13.1304 O   0  0  0  0  0  0  0  0  0  0  0  0
   21.2807  -21.7727  -11.9022 O   0  0  0  0  0  0  0  0  0  0  0  0
  2  3  2  0
  2  1  1  0
  4  2  1  0
  5  4  1  0
  5  6  1  1
  7  5  1  0
  7  8  2  0
  9  7  1  0
 10  9  1  0
 10 11  1  6
 11 12  1  0
 12 13  2  0
 12 20  1  0
 13 14  1  0
 14 15  1  0
 15 16  2  0
 16 17  1  0
 18 17  2  0
 19 18  1  0
 20 19  2  0
 20 15  1  0
 21 10  1  0
 22 21  2  0
 23 24  1  0
 23 21  1  0
 25 24  1  0
 26 27  1  0
 26 25  1  0
 27 23  1  0
 28 29  1  0
 27 28  1  1
 30 28  2  0
M  END
$$$$
