NWP.pdb
     RDKit          3D

 30 32  0  0  1  0  0  0  0  0999 V2000
   29.7531  -17.6387  -16.5342 N   0  0  0  0  0  0  0  0  0  0  0  0
   28.3889  -17.4483  -16.2033 C   0  0  0  0  0  0  0  0  0  0  0  0
   27.8401  -16.4192  -16.6877 O   0  0  0  0  0  0  0  0  0  0  0  0
   27.6270  -18.3783  -15.3467 C   0  0  0  0  0  0  0  0  0  0  0  0
   28.5041  -19.4411  -14.7881 C   0  0  2  0  0  0  0  0  0  0  0  0
   29.0609  -20.2805  -15.8181 N   0  0  0  0  0  0  0  0  0  0  0  0
   27.8605  -20.2100  -13.6834 C   0  0  0  0  0  0  0  0  0  0  0  0
   27.1314  -21.2166  -13.9734 O   0  0  0  0  0  0  0  0  0  0  0  0
   27.9875  -19.9178  -12.3151 N   0  0  0  0  0  0  0  0  0  0  0  0
   27.1481  -20.6258  -11.2840 C   0  0  1  0  0  0  0  0  0  0  0  0
   27.8745  -20.3041  -10.0120 C   0  0  0  0  0  0  0  0  0  0  0  0
   27.2180  -20.5072   -8.7496 C   0  0  0  0  0  0  0  0  0  0  0  0
   25.9581  -21.0734   -8.5653 C   0  0  0  0  0  0  0  0  0  0  0  0
   25.6644  -21.0879   -7.2338 N   0  0  0  0  0  0  0  0  0  0  0  0
   26.6921  -20.5502   -6.5496 C   0  0  0  0  0  0  0  0  0  0  0  0
   26.8830  -20.3372   -5.2003 C   0  0  0  0  0  0  0  0  0  0  0  0
   28.0515  -19.7545   -4.7593 C   0  0  0  0  0  0  0  0  0  0  0  0
   29.0311  -19.3827   -5.6542 C   0  0  0  0  0  0  0  0  0  0  0  0
   28.8027  -19.6117   -6.9890 C   0  0  0  0  0  0  0  0  0  0  0  0
   27.6601  -20.1876   -7.4863 C   0  0  0  0  0  0  0  0  0  0  0  0
   25.7780  -20.1559  -11.3798 C   0  0  0  0  0  0  0  0  0  0  0  0
   25.5652  -18.9036  -11.3153 O   0  0  0  0  0  0  0  0  0  0  0  0
   24.6759  -21.0018  -11.5444 N   0  0  0  0  0  0  0  0  0  0  0  0
   24.5730  -22.4500  -11.5139 C   0  0  0  0  0  0  0  0  0  0  0  0
   23.5776  -22.8113  -12.6030 C   0  0  0  0  0  0  0  0  0  0  0  0
   22.7685  -21.5663  -12.8035 C   0  0  0  0  0  0  0  0  0  0  0  0
   23.2952  -20.5459  -11.8144 C   0  0  1  0  0  0  0  0  0  0  0  0
   22.4556  -20.5595  -10.6123 C   0  0  0  0  0  0  0  0  0  0  0  0
   21.2124  -19.9478  -10.6709 O   0  0  0  0  0  0  0  0  0  0  0  0
   22.7817  -21.0899   -9.5209 O   0  0  0  0  0  0  0  0  0  0  0  0
  2  3  2  0
  2  1  1  0
  4  2  1  0
  5  4  1  0
  5  6  1  6
  7  5  1  0
  7  8  2  0
  9  7  1  0
 10  9  1  0
 10 11  1  1
 11 12  1  0
 12 13  2  0
 12 20  1  0
 13 14  1  0
 14 15  1  0
 15 16  2  0
 16 17  1  0
 18 17  2  0
 19 18  1  0
 20 19  2  0
 20 15  1  0
 21 10  1  0
 22 21  2  0
 23 24  1  0
 23 21  1  0
 25 24  1  0
 26 27  1  0
 26 25  1  0
 27 23  1  0
 28 29  1  0
 27 28  1  1
 30 28  2  0
M  END
$$$$
