ELR.pdb
     RDKit          3D

 29 28  0  0  1  0  0  0  0  0999 V2000
   20.8044  -14.3614  -16.3783 N   0  0  0  0  0  0  0  0  0  0  0  0
   20.0392  -13.1695  -16.3052 C   0  0  1  0  0  0  0  0  0  0  0  0
   18.5894  -13.3021  -16.0146 C   0  0  0  0  0  0  0  0  0  0  0  0
   17.8923  -14.1806  -16.9928 C   0  0  0  0  0  0  0  0  0  0  0  0
   16.4814  -14.4670  -16.7456 C   0  0  0  0  0  0  0  0  0  0  0  0
   15.7702  -14.0233  -15.8276 O   0  0  0  0  0  0  0  0  0  0  0  0
   20.7128  -12.1913  -15.4076 C   0  0  0  0  0  0  0  0  0  0  0  0
   20.5665  -12.3853  -14.1700 O   0  0  0  0  0  0  0  0  0  0  0  0
   15.8563  -15.3463  -17.6513 O   0  0  0  0  0  0  0  0  0  0  0  0
   25.6121   -9.6834  -16.3198 C   0  0  0  0  0  0  0  0  0  0  0  0
   24.4216  -10.4684  -15.7868 C   0  0  1  0  0  0  0  0  0  0  0  0
   24.8515  -11.1030  -14.4853 C   0  0  0  0  0  0  0  0  0  0  0  0
   23.2812   -9.5174  -15.6324 C   0  0  0  0  0  0  0  0  0  0  0  0
   22.0349  -10.1159  -15.0546 C   0  0  2  0  0  0  0  0  0  0  0  0
   21.4628  -11.1201  -15.9234 N   0  0  0  0  0  0  0  0  0  0  0  0
   21.0714   -8.9726  -14.8683 C   0  0  0  0  0  0  0  0  0  0  0  0
   20.5717   -8.3775  -15.8673 O   0  0  0  0  0  0  0  0  0  0  0  0
   15.4027   -7.7888   -8.2805 N   0  0  0  0  0  0  0  0  0  0  0  0
   15.1103   -6.7808   -9.2221 C   0  0  0  0  0  0  0  0  0  0  0  0
   13.9994   -6.1290   -9.0987 N   0  0  0  0  0  0  0  0  0  0  0  0
   15.9857   -6.4626  -10.2881 N   0  0  0  0  0  0  0  0  0  0  0  0
   17.1087   -7.2948  -10.6378 C   0  0  0  0  0  0  0  0  0  0  0  0
   17.8087   -6.8091  -11.9074 C   0  0  0  0  0  0  0  0  0  0  0  0
   18.8940   -7.8048  -12.2132 C   0  0  0  0  0  0  0  0  0  0  0  0
   19.7115   -7.4224  -13.4227 C   0  0  2  0  0  0  0  0  0  0  0  0
   20.6909   -8.5240  -13.5885 N   0  0  0  0  0  0  0  0  0  0  0  0
   20.4340   -6.1605  -13.1426 C   0  0  0  0  0  0  0  0  0  0  0  0
   19.8266   -4.9407  -13.4665 O   0  0  0  0  0  0  0  0  0  0  0  0
   21.5632   -6.0943  -12.6309 O   0  0  0  0  0  0  0  0  0  0  0  0
  2  1  1  1
  2  7  1  0
  2  3  1  0
  4  5  1  0
  4  3  1  0
  5  6  2  0
  7  8  2  0
  9  5  1  0
 11 13  1  0
 11 10  1  1
 12 11  1  0
 14 13  1  6
 15 14  1  0
 15  7  1  0
 16 14  1  0
 17 16  2  0
 18 19  1  0
 19 21  1  0
 20 19  2  0
 21 22  1  0
 22 23  1  0
 23 24  1  0
 25 24  1  1
 25 26  1  0
 25 27  1  0
 26 16  1  0
 27 28  1  0
 29 27  2  0
M  END
$$$$
