ELR.pdb
     RDKit          3D

 29 28  0  0  1  0  0  0  0  0999 V2000
   15.0684  -23.2128    3.5618 N   0  0  0  0  0  0  0  0  0  0  0  0
   15.0576  -23.4660    4.9573 C   0  0  1  0  0  0  0  0  0  0  0  0
   14.5549  -24.7872    5.4107 C   0  0  0  0  0  0  0  0  0  0  0  0
   13.2358  -25.1287    4.8123 C   0  0  0  0  0  0  0  0  0  0  0  0
   12.1970  -25.6123    5.7183 C   0  0  0  0  0  0  0  0  0  0  0  0
   12.2944  -25.8115    6.9415 O   0  0  0  0  0  0  0  0  0  0  0  0
   16.3851  -23.1306    5.5416 C   0  0  0  0  0  0  0  0  0  0  0  0
   16.4435  -23.1038    6.8012 O   0  0  0  0  0  0  0  0  0  0  0  0
   10.9420  -25.8833    5.1388 O   0  0  0  0  0  0  0  0  0  0  0  0
   21.0927  -24.7386    3.1166 C   0  0  0  0  0  0  0  0  0  0  0  0
   20.0194  -24.4984    4.1691 C   0  0  1  0  0  0  0  0  0  0  0  0
   20.4362  -25.2494    5.4116 C   0  0  0  0  0  0  0  0  0  0  0  0
   19.9086  -23.0245    4.3786 C   0  0  0  0  0  0  0  0  0  0  0  0
   18.8009  -22.5993    5.2936 C   0  0  2  0  0  0  0  0  0  0  0  0
   17.4976  -22.8618    4.7254 N   0  0  0  0  0  0  0  0  0  0  0  0
   18.9884  -21.1207    5.5158 C   0  0  0  0  0  0  0  0  0  0  0  0
   18.8884  -20.3037    4.5544 O   0  0  0  0  0  0  0  0  0  0  0  0
   15.8206  -16.1124   11.7155 N   0  0  0  0  0  0  0  0  0  0  0  0
   16.6378  -15.2344   10.9744 C   0  0  0  0  0  0  0  0  0  0  0  0
   16.5566  -13.9663   11.2190 N   0  0  0  0  0  0  0  0  0  0  0  0
   17.5359  -15.6921    9.9804 N   0  0  0  0  0  0  0  0  0  0  0  0
   17.6626  -17.0862    9.6393 C   0  0  0  0  0  0  0  0  0  0  0  0
   18.6315  -17.3063    8.4772 C   0  0  0  0  0  0  0  0  0  0  0  0
   18.6049  -18.7768    8.1618 C   0  0  0  0  0  0  0  0  0  0  0  0
   19.4803  -19.1365    6.9863 C   0  0  2  0  0  0  0  0  0  0  0  0
   19.2793  -20.5927    6.7886 N   0  0  0  0  0  0  0  0  0  0  0  0
   20.8958  -18.8789    7.3369 C   0  0  0  0  0  0  0  0  0  0  0  0
   21.6825  -19.9341    7.8159 O   0  0  0  0  0  0  0  0  0  0  0  0
   21.4560  -17.7754    7.2382 O   0  0  0  0  0  0  0  0  0  0  0  0
  2  1  1  6
  2  7  1  0
  2  3  1  0
  4  5  1  0
  4  3  1  0
  5  6  2  0
  7  8  2  0
  9  5  1  0
 11 13  1  0
 11 10  1  6
 12 11  1  0
 14 13  1  6
 15 14  1  0
 15  7  1  0
 16 14  1  0
 17 16  2  0
 18 19  1  0
 19 21  1  0
 20 19  2  0
 21 22  1  0
 22 23  1  0
 23 24  1  0
 25 24  1  1
 25 26  1  0
 25 27  1  0
 26 16  1  0
 27 28  1  0
 29 27  2  0
M  END
$$$$
