ELR.pdb
     RDKit          3D

 29 28  0  0  1  0  0  0  0  0999 V2000
   25.3990  -19.7118  -16.1485 N   0  0  0  0  0  0  0  0  0  0  0  0
   25.6018  -21.1108  -16.0331 C   0  0  1  0  0  0  0  0  0  0  0  0
   26.9033  -21.6555  -16.4948 C   0  0  0  0  0  0  0  0  0  0  0  0
   27.9391  -20.5980  -16.6481 C   0  0  0  0  0  0  0  0  0  0  0  0
   28.3513  -20.2596  -18.0080 C   0  0  0  0  0  0  0  0  0  0  0  0
   27.8609  -20.6762  -19.0717 O   0  0  0  0  0  0  0  0  0  0  0  0
   25.2522  -21.5600  -14.6575 C   0  0  0  0  0  0  0  0  0  0  0  0
   25.2572  -22.8065  -14.4653 O   0  0  0  0  0  0  0  0  0  0  0  0
   29.4271  -19.3580  -18.1266 O   0  0  0  0  0  0  0  0  0  0  0  0
   25.6284  -21.9876   -9.5535 C   0  0  0  0  0  0  0  0  0  0  0  0
   24.9277  -20.6694   -9.8519 C   0  0  1  0  0  0  0  0  0  0  0  0
   25.3983  -19.6702   -8.8216 C   0  0  0  0  0  0  0  0  0  0  0  0
   25.2682  -20.2794  -11.2522 C   0  0  0  0  0  0  0  0  0  0  0  0
   24.5753  -21.0768  -12.3149 C   0  0  2  0  0  0  0  0  0  0  0  0
   24.9371  -20.6382  -13.6442 N   0  0  0  0  0  0  0  0  0  0  0  0
   23.0988  -20.8857  -12.0829 C   0  0  0  0  0  0  0  0  0  0  0  0
   22.6395  -19.7615  -11.7266 O   0  0  0  0  0  0  0  0  0  0  0  0
   17.1879  -24.7207   -7.2683 N   0  0  0  0  0  0  0  0  0  0  0  0
   17.8204  -25.6253   -8.1455 C   0  0  0  0  0  0  0  0  0  0  0  0
   17.4445  -26.8634   -8.1268 N   0  0  0  0  0  0  0  0  0  0  0  0
   18.8442  -25.2255   -9.0377 N   0  0  0  0  0  0  0  0  0  0  0  0
   19.3772  -23.8870   -9.0491 C   0  0  0  0  0  0  0  0  0  0  0  0
   19.3749  -23.2810  -10.4529 C   0  0  0  0  0  0  0  0  0  0  0  0
   20.5905  -22.4001  -10.5478 C   0  0  0  0  0  0  0  0  0  0  0  0
   20.7460  -21.7665  -11.9087 C   0  0  2  0  0  0  0  0  0  0  0  0
   22.1788  -21.9387  -12.2514 N   0  0  0  0  0  0  0  0  0  0  0  0
   20.4341  -20.3222  -11.8115 C   0  0  0  0  0  0  0  0  0  0  0  0
   19.1370  -19.8834  -12.1063 O   0  0  0  0  0  0  0  0  0  0  0  0
   21.2497  -19.4464  -11.4814 O   0  0  0  0  0  0  0  0  0  0  0  0
  2  1  1  1
  2  7  1  0
  2  3  1  0
  4  5  1  0
  4  3  1  0
  5  6  2  0
  7  8  2  0
  9  5  1  0
 11 13  1  0
 11 10  1  1
 12 11  1  0
 14 13  1  1
 15 14  1  0
 15  7  1  0
 16 14  1  0
 17 16  2  0
 18 19  1  0
 19 21  1  0
 20 19  2  0
 21 22  1  0
 22 23  1  0
 23 24  1  0
 25 24  1  1
 25 26  1  0
 25 27  1  0
 26 16  1  0
 27 28  1  0
 29 27  2  0
M  END
$$$$
