ELR.pdb
     RDKit          3D

 29 28  0  0  1  0  0  0  0  0999 V2000
   23.3545  -34.6418  -10.1885 N   0  0  0  0  0  0  0  0  0  0  0  0
   23.8780  -33.3508   -9.9227 C   0  0  1  0  0  0  0  0  0  0  0  0
   23.0938  -32.1822  -10.3955 C   0  0  0  0  0  0  0  0  0  0  0  0
   23.0228  -32.1091  -11.8802 C   0  0  0  0  0  0  0  0  0  0  0  0
   21.7025  -31.9230  -12.4769 C   0  0  0  0  0  0  0  0  0  0  0  0
   20.6269  -31.7277  -11.8851 O   0  0  0  0  0  0  0  0  0  0  0  0
   24.2503  -33.2429   -8.4853 C   0  0  0  0  0  0  0  0  0  0  0  0
   24.8892  -32.2065   -8.1564 O   0  0  0  0  0  0  0  0  0  0  0  0
   21.6425  -31.9701  -13.8834 O   0  0  0  0  0  0  0  0  0  0  0  0
   20.7166  -34.4096   -4.4501 C   0  0  0  0  0  0  0  0  0  0  0  0
   21.7945  -33.6923   -5.2507 C   0  0  1  0  0  0  0  0  0  0  0  0
   22.0822  -32.3884   -4.5445 C   0  0  0  0  0  0  0  0  0  0  0  0
   22.9803  -34.5958   -5.3296 C   0  0  0  0  0  0  0  0  0  0  0  0
   24.1221  -34.0678   -6.1438 C   0  0  2  0  0  0  0  0  0  0  0  0
   23.9039  -34.2446   -7.5621 N   0  0  0  0  0  0  0  0  0  0  0  0
   25.3402  -34.8359   -5.7004 C   0  0  0  0  0  0  0  0  0  0  0  0
   25.3392  -36.1015   -5.6897 O   0  0  0  0  0  0  0  0  0  0  0  0
   33.4200  -34.4835   -5.8675 N   0  0  0  0  0  0  0  0  0  0  0  0
   32.6212  -33.4353   -6.3685 C   0  0  0  0  0  0  0  0  0  0  0  0
   32.8978  -32.9581   -7.5391 N   0  0  0  0  0  0  0  0  0  0  0  0
   31.5365  -32.8934   -5.6380 N   0  0  0  0  0  0  0  0  0  0  0  0
   31.1570  -33.3898   -4.3397 C   0  0  0  0  0  0  0  0  0  0  0  0
   30.1547  -34.5404   -4.4364 C   0  0  0  0  0  0  0  0  0  0  0  0
   28.8303  -33.9327   -4.8096 C   0  0  0  0  0  0  0  0  0  0  0  0
   27.7240  -34.9554   -4.8973 C   0  0  2  0  0  0  0  0  0  0  0  0
   26.5175  -34.1843   -5.2844 N   0  0  0  0  0  0  0  0  0  0  0  0
   27.5134  -35.5602   -3.5622 C   0  0  0  0  0  0  0  0  0  0  0  0
   26.9639  -34.7781   -2.5383 O   0  0  0  0  0  0  0  0  0  0  0  0
   27.7915  -36.7341   -3.2692 O   0  0  0  0  0  0  0  0  0  0  0  0
  2  1  1  1
  2  7  1  0
  2  3  1  0
  4  5  1  0
  4  3  1  0
  5  6  2  0
  7  8  2  0
  9  5  1  0
 11 13  1  0
 11 10  1  1
 12 11  1  0
 14 13  1  1
 15 14  1  0
 15  7  1  0
 16 14  1  0
 17 16  2  0
 18 19  1  0
 19 21  1  0
 20 19  2  0
 21 22  1  0
 22 23  1  0
 23 24  1  0
 25 24  1  1
 25 26  1  0
 25 27  1  0
 26 16  1  0
 27 28  1  0
 29 27  2  0
M  END
$$$$
