ELR.pdb
     RDKit          3D

 29 28  0  0  1  0  0  0  0  0999 V2000
   27.9230  -19.5027  -13.7778 N   0  0  0  0  0  0  0  0  0  0  0  0
   27.4744  -20.8267  -14.0170 C   0  0  1  0  0  0  0  0  0  0  0  0
   28.4489  -21.7875  -14.5924 C   0  0  0  0  0  0  0  0  0  0  0  0
   28.9926  -21.3302  -15.9001 C   0  0  0  0  0  0  0  0  0  0  0  0
   29.9430  -22.2121  -16.5730 C   0  0  0  0  0  0  0  0  0  0  0  0
   30.1323  -23.4221  -16.3596 O   0  0  0  0  0  0  0  0  0  0  0  0
   26.8001  -21.3589  -12.8012 C   0  0  0  0  0  0  0  0  0  0  0  0
   26.2539  -22.4892  -12.9223 O   0  0  0  0  0  0  0  0  0  0  0  0
   30.7348  -21.6234  -17.5783 O   0  0  0  0  0  0  0  0  0  0  0  0
   28.2146  -19.2618   -7.8963 C   0  0  0  0  0  0  0  0  0  0  0  0
   27.9783  -20.2125   -9.0615 C   0  0  1  0  0  0  0  0  0  0  0  0
   28.7487  -21.4783   -8.7685 C   0  0  0  0  0  0  0  0  0  0  0  0
   26.5062  -20.4306   -9.1802 C   0  0  0  0  0  0  0  0  0  0  0  0
   26.0705  -21.1209  -10.4367 C   0  0  2  0  0  0  0  0  0  0  0  0
   26.7812  -20.6331  -11.5975 N   0  0  0  0  0  0  0  0  0  0  0  0
   24.5948  -20.8477  -10.5718 C   0  0  0  0  0  0  0  0  0  0  0  0
   23.7931  -21.1454   -9.6388 O   0  0  0  0  0  0  0  0  0  0  0  0
   19.0481  -21.8993  -15.1600 N   0  0  0  0  0  0  0  0  0  0  0  0
   18.6613  -20.6546  -15.6976 C   0  0  0  0  0  0  0  0  0  0  0  0
   17.4431  -20.5165  -16.1117 N   0  0  0  0  0  0  0  0  0  0  0  0
   19.5552  -19.5615  -15.7978 N   0  0  0  0  0  0  0  0  0  0  0  0
   20.9056  -19.6220  -15.2991 C   0  0  0  0  0  0  0  0  0  0  0  0
   20.9490  -19.7578  -13.7767 C   0  0  0  0  0  0  0  0  0  0  0  0
   22.3932  -19.9400  -13.3978 C   0  0  0  0  0  0  0  0  0  0  0  0
   22.5857  -20.1383  -11.9141 C   0  0  2  0  0  0  0  0  0  0  0  0
   24.0526  -20.2559  -11.7291 N   0  0  0  0  0  0  0  0  0  0  0  0
   21.9356  -21.4040  -11.5040 C   0  0  0  0  0  0  0  0  0  0  0  0
   20.7173  -21.3528  -10.8148 O   0  0  0  0  0  0  0  0  0  0  0  0
   22.3945  -22.5358  -11.7272 O   0  0  0  0  0  0  0  0  0  0  0  0
  2  1  1  1
  2  7  1  0
  2  3  1  0
  4  5  1  0
  4  3  1  0
  5  6  2  0
  7  8  2  0
  9  5  1  0
 11 13  1  0
 11 10  1  1
 12 11  1  0
 14 13  1  1
 15 14  1  0
 15  7  1  0
 16 14  1  0
 17 16  2  0
 18 19  1  0
 19 21  1  0
 20 19  2  0
 21 22  1  0
 22 23  1  0
 23 24  1  0
 25 24  1  6
 25 26  1  0
 25 27  1  0
 26 16  1  0
 27 28  1  0
 29 27  2  0
M  END
$$$$
