ELR.pdb
     RDKit          3D

 29 28  0  0  1  0  0  0  0  0999 V2000
   21.1539  -14.9136  -19.4010 N   0  0  0  0  0  0  0  0  0  0  0  0
   21.8941  -13.8376  -18.8479 C   0  0  1  0  0  0  0  0  0  0  0  0
   23.0847  -13.3665  -19.5993 C   0  0  0  0  0  0  0  0  0  0  0  0
   24.1122  -14.4309  -19.7605 C   0  0  0  0  0  0  0  0  0  0  0  0
   25.2760  -14.1158  -20.5852 C   0  0  0  0  0  0  0  0  0  0  0  0
   26.2460  -14.8518  -20.8354 O   0  0  0  0  0  0  0  0  0  0  0  0
   20.9736  -12.7256  -18.4841 C   0  0  0  0  0  0  0  0  0  0  0  0
   20.1164  -12.4109  -19.3540 O   0  0  0  0  0  0  0  0  0  0  0  0
   25.3008  -12.8311  -21.1625 O   0  0  0  0  0  0  0  0  0  0  0  0
   17.3465  -10.1099  -16.0639 C   0  0  0  0  0  0  0  0  0  0  0  0
   18.5834  -10.0874  -15.1768 C   0  0  1  0  0  0  0  0  0  0  0  0
   18.1109  -10.2174  -13.7481 C   0  0  0  0  0  0  0  0  0  0  0  0
   19.4741  -11.2049  -15.6088 C   0  0  0  0  0  0  0  0  0  0  0  0
   20.1936  -10.9734  -16.9027 C   0  0  2  0  0  0  0  0  0  0  0  0
   21.0670  -12.0746  -17.2417 N   0  0  0  0  0  0  0  0  0  0  0  0
   20.9917   -9.7091  -16.7151 C   0  0  0  0  0  0  0  0  0  0  0  0
   22.0562   -9.7109  -16.0305 O   0  0  0  0  0  0  0  0  0  0  0  0
   20.5761   -2.2670  -21.5074 N   0  0  0  0  0  0  0  0  0  0  0  0
   21.6155   -2.0496  -20.5798 C   0  0  0  0  0  0  0  0  0  0  0  0
   22.3098   -0.9622  -20.6793 N   0  0  0  0  0  0  0  0  0  0  0  0
   21.9205   -2.9748  -19.5527 N   0  0  0  0  0  0  0  0  0  0  0  0
   21.2238   -4.2282  -19.4125 C   0  0  0  0  0  0  0  0  0  0  0  0
   21.7298   -5.0347  -18.2162 C   0  0  0  0  0  0  0  0  0  0  0  0
   21.0019   -6.3508  -18.2404 C   0  0  0  0  0  0  0  0  0  0  0  0
   21.3870   -7.2507  -17.0917 C   0  0  2  0  0  0  0  0  0  0  0  0
   20.5906   -8.4865  -17.2879 N   0  0  0  0  0  0  0  0  0  0  0  0
   20.9921   -6.6087  -15.8171 C   0  0  0  0  0  0  0  0  0  0  0  0
   21.9506   -5.8931  -15.0884 O   0  0  0  0  0  0  0  0  0  0  0  0
   19.8513   -6.6545  -15.3295 O   0  0  0  0  0  0  0  0  0  0  0  0
  2  1  1  6
  2  7  1  0
  2  3  1  0
  4  5  1  0
  4  3  1  0
  5  6  2  0
  7  8  2  0
  9  5  1  0
 11 13  1  0
 11 10  1  6
 12 11  1  0
 14 13  1  1
 15 14  1  0
 15  7  1  0
 16 14  1  0
 17 16  2  0
 18 19  1  0
 19 21  1  0
 20 19  2  0
 21 22  1  0
 22 23  1  0
 23 24  1  0
 25 24  1  6
 25 26  1  0
 25 27  1  0
 26 16  1  0
 27 28  1  0
 29 27  2  0
M  END
$$$$
