ELR.pdb
     RDKit          3D

 29 28  0  0  1  0  0  0  0  0999 V2000
   28.1574  -22.9978  -18.3569 N   0  0  0  0  0  0  0  0  0  0  0  0
   27.5581  -23.7619  -17.3231 C   0  0  1  0  0  0  0  0  0  0  0  0
   28.3924  -24.7986  -16.6650 C   0  0  0  0  0  0  0  0  0  0  0  0
   29.0925  -25.6713  -17.6463 C   0  0  0  0  0  0  0  0  0  0  0  0
   29.0405  -27.1125  -17.4141 C   0  0  0  0  0  0  0  0  0  0  0  0
   28.5688  -27.9822  -18.1667 O   0  0  0  0  0  0  0  0  0  0  0  0
   26.8977  -22.8560  -16.3436 C   0  0  0  0  0  0  0  0  0  0  0  0
   26.2443  -23.4192  -15.4235 O   0  0  0  0  0  0  0  0  0  0  0  0
   29.5877  -27.5677  -16.1986 O   0  0  0  0  0  0  0  0  0  0  0  0
   26.8174  -18.5745  -13.1939 C   0  0  0  0  0  0  0  0  0  0  0  0
   26.3712  -18.2094  -14.6029 C   0  0  1  0  0  0  0  0  0  0  0  0
   26.8086  -16.7858  -14.8551 C   0  0  0  0  0  0  0  0  0  0  0  0
   26.9854  -19.1920  -15.5441 C   0  0  0  0  0  0  0  0  0  0  0  0
   26.4330  -20.5820  -15.4534 C   0  0  2  0  0  0  0  0  0  0  0  0
   27.0046  -21.4585  -16.4511 N   0  0  0  0  0  0  0  0  0  0  0  0
   24.9457  -20.4532  -15.6581 C   0  0  0  0  0  0  0  0  0  0  0  0
   24.4804  -19.9041  -16.6991 O   0  0  0  0  0  0  0  0  0  0  0  0
   17.2196  -23.1069  -11.9027 N   0  0  0  0  0  0  0  0  0  0  0  0
   17.6061  -23.7443  -13.0995 C   0  0  0  0  0  0  0  0  0  0  0  0
   16.7441  -24.5015  -13.6979 N   0  0  0  0  0  0  0  0  0  0  0  0
   18.8952  -23.5835  -13.6618 N   0  0  0  0  0  0  0  0  0  0  0  0
   19.9060  -22.7596  -13.0490 C   0  0  0  0  0  0  0  0  0  0  0  0
   20.4148  -21.6749  -13.9989 C   0  0  0  0  0  0  0  0  0  0  0  0
   21.9152  -21.7812  -14.0160 C   0  0  0  0  0  0  0  0  0  0  0  0
   22.5631  -20.7389  -14.8941 C   0  0  2  0  0  0  0  0  0  0  0  0
   24.0219  -20.9337  -14.7097 N   0  0  0  0  0  0  0  0  0  0  0  0
   22.1825  -19.3915  -14.4120 C   0  0  0  0  0  0  0  0  0  0  0  0
   21.1532  -18.6998  -15.0632 O   0  0  0  0  0  0  0  0  0  0  0  0
   22.7152  -18.8103  -13.4529 O   0  0  0  0  0  0  0  0  0  0  0  0
  2  1  1  6
  2  7  1  0
  2  3  1  0
  4  5  1  0
  4  3  1  0
  5  6  2  0
  7  8  2  0
  9  5  1  0
 11 13  1  0
 11 10  1  1
 12 11  1  0
 14 13  1  6
 15 14  1  0
 15  7  1  0
 16 14  1  0
 17 16  2  0
 18 19  1  0
 19 21  1  0
 20 19  2  0
 21 22  1  0
 22 23  1  0
 23 24  1  0
 25 24  1  1
 25 26  1  0
 25 27  1  0
 26 16  1  0
 27 28  1  0
 29 27  2  0
M  END
$$$$
