ELR.pdb
     RDKit          3D

 29 28  0  0  1  0  0  0  0  0999 V2000
   25.3217  -18.9672  -18.4903 N   0  0  0  0  0  0  0  0  0  0  0  0
   25.8573  -18.3421  -19.6454 C   0  0  1  0  0  0  0  0  0  0  0  0
   24.9583  -18.1780  -20.8154 C   0  0  0  0  0  0  0  0  0  0  0  0
   24.2992  -19.4531  -21.2083 C   0  0  0  0  0  0  0  0  0  0  0  0
   23.4032  -19.4136  -22.3613 C   0  0  0  0  0  0  0  0  0  0  0  0
   23.0716  -18.4171  -23.0265 O   0  0  0  0  0  0  0  0  0  0  0  0
   26.5338  -17.0719  -19.2644 C   0  0  0  0  0  0  0  0  0  0  0  0
   26.1134  -16.5156  -18.2135 O   0  0  0  0  0  0  0  0  0  0  0  0
   22.8529  -20.6459  -22.7649 O   0  0  0  0  0  0  0  0  0  0  0  0
   32.0488  -14.8244  -19.1391 C   0  0  0  0  0  0  0  0  0  0  0  0
   30.6002  -14.3787  -19.2818 C   0  0  1  0  0  0  0  0  0  0  0  0
   30.5634  -13.3160  -20.3546 C   0  0  0  0  0  0  0  0  0  0  0  0
   29.7837  -15.5833  -19.6149 C   0  0  0  0  0  0  0  0  0  0  0  0
   28.3020  -15.3602  -19.6153 C   0  0  2  0  0  0  0  0  0  0  0  0
   27.5768  -16.5366  -20.0400 N   0  0  0  0  0  0  0  0  0  0  0  0
   28.0529  -14.2183  -20.5664 C   0  0  0  0  0  0  0  0  0  0  0  0
   28.3940  -14.3022  -21.7823 O   0  0  0  0  0  0  0  0  0  0  0  0
   21.2588   -9.6788  -18.7592 N   0  0  0  0  0  0  0  0  0  0  0  0
   21.1327  -10.7251  -19.6959 C   0  0  0  0  0  0  0  0  0  0  0  0
   19.9459  -11.1562  -19.9788 N   0  0  0  0  0  0  0  0  0  0  0  0
   22.2530  -11.3133  -20.3305 N   0  0  0  0  0  0  0  0  0  0  0  0
   23.6014  -10.8728  -20.0777 C   0  0  0  0  0  0  0  0  0  0  0  0
   24.6272  -11.6814  -20.8725 C   0  0  0  0  0  0  0  0  0  0  0  0
   25.9852  -11.1730  -20.4727 C   0  0  0  0  0  0  0  0  0  0  0  0
   27.1097  -11.9485  -21.1144 C   0  0  2  0  0  0  0  0  0  0  0  0
   27.4366  -13.0236  -20.1462 N   0  0  0  0  0  0  0  0  0  0  0  0
   28.2831  -11.0598  -21.2767 C   0  0  0  0  0  0  0  0  0  0  0  0
   28.5470  -10.5017  -22.5339 O   0  0  0  0  0  0  0  0  0  0  0  0
   29.0719  -10.7618  -20.3656 O   0  0  0  0  0  0  0  0  0  0  0  0
  2  1  1  1
  2  7  1  0
  2  3  1  0
  4  5  1  0
  4  3  1  0
  5  6  2  0
  7  8  2  0
  9  5  1  0
 11 13  1  0
 11 10  1  6
 12 11  1  0
 14 13  1  6
 15 14  1  0
 15  7  1  0
 16 14  1  0
 17 16  2  0
 18 19  1  0
 19 21  1  0
 20 19  2  0
 21 22  1  0
 22 23  1  0
 23 24  1  0
 25 24  1  1
 25 26  1  0
 25 27  1  0
 26 16  1  0
 27 28  1  0
 29 27  2  0
M  END
$$$$
