ELR.pdb
     RDKit          3D

 29 28  0  0  1  0  0  0  0  0999 V2000
   25.4223  -14.3542  -19.7835 N   0  0  0  0  0  0  0  0  0  0  0  0
   24.4088  -14.4654  -18.7976 C   0  0  1  0  0  0  0  0  0  0  0  0
   24.1811  -15.8034  -18.1960 C   0  0  0  0  0  0  0  0  0  0  0  0
   24.2761  -16.8999  -19.1977 C   0  0  0  0  0  0  0  0  0  0  0  0
   25.6112  -17.4008  -19.5145 C   0  0  0  0  0  0  0  0  0  0  0  0
   26.6940  -17.0189  -19.0378 O   0  0  0  0  0  0  0  0  0  0  0  0
   24.5842  -13.4018  -17.7708 C   0  0  0  0  0  0  0  0  0  0  0  0
   23.6518  -13.2870  -16.9294 O   0  0  0  0  0  0  0  0  0  0  0  0
   25.6784  -18.4345  -20.4689 O   0  0  0  0  0  0  0  0  0  0  0  0
   29.6592  -11.4797  -16.5136 C   0  0  0  0  0  0  0  0  0  0  0  0
   28.2754  -12.1137  -16.4883 C   0  0  1  0  0  0  0  0  0  0  0  0
   28.1349  -12.8269  -15.1642 C   0  0  0  0  0  0  0  0  0  0  0  0
   27.2722  -11.0254  -16.6829 C   0  0  0  0  0  0  0  0  0  0  0  0
   25.8540  -11.4912  -16.8131 C   0  0  2  0  0  0  0  0  0  0  0  0
   25.7260  -12.5820  -17.7535 N   0  0  0  0  0  0  0  0  0  0  0  0
   25.0648  -10.2970  -17.2840 C   0  0  0  0  0  0  0  0  0  0  0  0
   25.1793   -9.8723  -18.4707 O   0  0  0  0  0  0  0  0  0  0  0  0
   17.8343   -8.8170  -17.5857 N   0  0  0  0  0  0  0  0  0  0  0  0
   17.9095   -8.7550  -18.9923 C   0  0  0  0  0  0  0  0  0  0  0  0
   16.9006   -8.2685  -19.6403 N   0  0  0  0  0  0  0  0  0  0  0  0
   19.0433   -9.2041  -19.7111 N   0  0  0  0  0  0  0  0  0  0  0  0
   20.1673   -9.8316  -19.0639 C   0  0  0  0  0  0  0  0  0  0  0  0
   20.9958   -8.8315  -18.2569 C   0  0  0  0  0  0  0  0  0  0  0  0
   22.1926   -9.5791  -17.7360 C   0  0  0  0  0  0  0  0  0  0  0  0
   23.1489   -8.6918  -16.9773 C   0  0  2  0  0  0  0  0  0  0  0  0
   24.1768   -9.6118  -16.4323 N   0  0  0  0  0  0  0  0  0  0  0  0
   22.4273   -8.0430  -15.8587 C   0  0  0  0  0  0  0  0  0  0  0  0
   22.6469   -8.4960  -14.5516 O   0  0  0  0  0  0  0  0  0  0  0  0
   21.6231   -7.1062  -15.9888 O   0  0  0  0  0  0  0  0  0  0  0  0
  2  1  1  1
  2  7  1  0
  2  3  1  0
  4  5  1  0
  4  3  1  0
  5  6  2  0
  7  8  2  0
  9  5  1  0
 11 13  1  0
 11 10  1  1
 12 11  1  0
 14 13  1  6
 15 14  1  0
 15  7  1  0
 16 14  1  0
 17 16  2  0
 18 19  1  0
 19 21  1  0
 20 19  2  0
 21 22  1  0
 22 23  1  0
 23 24  1  0
 25 24  1  1
 25 26  1  0
 25 27  1  0
 26 16  1  0
 27 28  1  0
 29 27  2  0
M  END
$$$$
