ELR.pdb
     RDKit          3D

 29 28  0  0  1  0  0  0  0  0999 V2000
   21.1938  -19.1076  -13.4131 N   0  0  0  0  0  0  0  0  0  0  0  0
   21.6958  -20.2046  -12.6674 C   0  0  1  0  0  0  0  0  0  0  0  0
   21.3167  -21.5685  -13.1144 C   0  0  0  0  0  0  0  0  0  0  0  0
   19.8427  -21.7398  -13.2276 C   0  0  0  0  0  0  0  0  0  0  0  0
   19.2393  -22.8404  -12.4804 C   0  0  0  0  0  0  0  0  0  0  0  0
   18.0306  -23.1144  -12.3835 O   0  0  0  0  0  0  0  0  0  0  0  0
   23.1646  -20.0556  -12.4765 C   0  0  0  0  0  0  0  0  0  0  0  0
   23.7508  -19.2818  -13.2817 O   0  0  0  0  0  0  0  0  0  0  0  0
   20.1294  -23.6874  -11.7915 O   0  0  0  0  0  0  0  0  0  0  0  0
   25.7078  -21.3672   -7.5973 C   0  0  0  0  0  0  0  0  0  0  0  0
   25.1924  -20.6017   -8.8080 C   0  0  1  0  0  0  0  0  0  0  0  0
   25.6153  -19.1615   -8.6391 C   0  0  0  0  0  0  0  0  0  0  0  0
   25.7604  -21.2452  -10.0294 C   0  0  0  0  0  0  0  0  0  0  0  0
   25.2819  -20.6678  -11.3267 C   0  0  2  0  0  0  0  0  0  0  0  0
   23.8438  -20.7432  -11.4558 N   0  0  0  0  0  0  0  0  0  0  0  0
   25.9491  -21.4723  -12.4120 C   0  0  0  0  0  0  0  0  0  0  0  0
   25.8562  -22.7344  -12.4327 O   0  0  0  0  0  0  0  0  0  0  0  0
   21.4162  -22.8367  -18.0605 N   0  0  0  0  0  0  0  0  0  0  0  0
   22.0678  -23.6784  -17.1358 C   0  0  0  0  0  0  0  0  0  0  0  0
   21.4075  -24.6757  -16.6421 N   0  0  0  0  0  0  0  0  0  0  0  0
   23.4089  -23.4686  -16.7343 N   0  0  0  0  0  0  0  0  0  0  0  0
   24.2072  -22.3853  -17.2493 C   0  0  0  0  0  0  0  0  0  0  0  0
   25.6285  -22.4023  -16.6859 C   0  0  0  0  0  0  0  0  0  0  0  0
   25.5864  -21.6600  -15.3783 C   0  0  0  0  0  0  0  0  0  0  0  0
   26.9425  -21.5539  -14.7247 C   0  0  2  0  0  0  0  0  0  0  0  0
   26.6955  -20.8597  -13.4374 N   0  0  0  0  0  0  0  0  0  0  0  0
   27.8266  -20.7202  -15.5709 C   0  0  0  0  0  0  0  0  0  0  0  0
   28.6323  -21.3409  -16.5339 O   0  0  0  0  0  0  0  0  0  0  0  0
   27.9139  -19.4842  -15.4940 O   0  0  0  0  0  0  0  0  0  0  0  0
  2  1  1  6
  2  7  1  0
  2  3  1  0
  4  5  1  0
  4  3  1  0
  5  6  2  0
  7  8  2  0
  9  5  1  0
 11 13  1  0
 11 10  1  1
 12 11  1  0
 14 13  1  1
 15 14  1  0
 15  7  1  0
 16 14  1  0
 17 16  2  0
 18 19  1  0
 19 21  1  0
 20 19  2  0
 21 22  1  0
 22 23  1  0
 23 24  1  0
 25 24  1  6
 25 26  1  0
 25 27  1  0
 26 16  1  0
 27 28  1  0
 29 27  2  0
M  END
$$$$
