ELR.pdb
     RDKit          3D

 29 28  0  0  1  0  0  0  0  0999 V2000
   22.9345  -33.1140   -2.5517 N   0  0  0  0  0  0  0  0  0  0  0  0
   24.2294  -32.9312   -3.1005 C   0  0  1  0  0  0  0  0  0  0  0  0
   25.3867  -33.0344   -2.1764 C   0  0  0  0  0  0  0  0  0  0  0  0
   25.4106  -34.3265   -1.4384 C   0  0  0  0  0  0  0  0  0  0  0  0
   26.5971  -34.6156   -0.6370 C   0  0  0  0  0  0  0  0  0  0  0  0
   27.6480  -35.1624   -1.0135 O   0  0  0  0  0  0  0  0  0  0  0  0
   24.3897  -33.7826   -4.3112 C   0  0  0  0  0  0  0  0  0  0  0  0
   23.4659  -34.6131   -4.5289 O   0  0  0  0  0  0  0  0  0  0  0  0
   26.5433  -34.2304    0.7169 O   0  0  0  0  0  0  0  0  0  0  0  0
   26.5268  -32.1518   -9.1704 C   0  0  0  0  0  0  0  0  0  0  0  0
   25.6257  -32.7811   -8.1171 C   0  0  1  0  0  0  0  0  0  0  0  0
   24.4124  -33.3244   -8.8341 C   0  0  0  0  0  0  0  0  0  0  0  0
   26.4157  -33.8332   -7.4116 C   0  0  0  0  0  0  0  0  0  0  0  0
   25.6919  -34.5225   -6.2952 C   0  0  2  0  0  0  0  0  0  0  0  0
   25.5096  -33.6571   -5.1514 N   0  0  0  0  0  0  0  0  0  0  0  0
   26.5373  -35.7131   -5.9232 C   0  0  0  0  0  0  0  0  0  0  0  0
   26.7620  -36.6348   -6.7609 O   0  0  0  0  0  0  0  0  0  0  0  0
   34.2854  -35.9764   -5.3904 N   0  0  0  0  0  0  0  0  0  0  0  0
   33.2104  -36.3204   -6.2354 C   0  0  0  0  0  0  0  0  0  0  0  0
   33.3581  -36.1644   -7.5114 N   0  0  0  0  0  0  0  0  0  0  0  0
   31.9860  -36.8263   -5.7364 N   0  0  0  0  0  0  0  0  0  0  0  0
   31.7495  -37.0220   -4.3286 C   0  0  0  0  0  0  0  0  0  0  0  0
   30.3641  -37.6086   -4.0562 C   0  0  0  0  0  0  0  0  0  0  0  0
   29.3614  -36.5756   -4.4923 C   0  0  0  0  0  0  0  0  0  0  0  0
   27.9353  -37.0268   -4.2918 C   0  0  2  0  0  0  0  0  0  0  0  0
   27.1063  -35.8477   -4.6419 N   0  0  0  0  0  0  0  0  0  0  0  0
   27.7285  -37.3670   -2.8655 C   0  0  0  0  0  0  0  0  0  0  0  0
   26.7677  -36.6627   -2.1289 O   0  0  0  0  0  0  0  0  0  0  0  0
   28.3536  -38.2483   -2.2541 O   0  0  0  0  0  0  0  0  0  0  0  0
  2  1  1  1
  2  7  1  0
  2  3  1  0
  4  5  1  0
  4  3  1  0
  5  6  2  0
  7  8  2  0
  9  5  1  0
 11 13  1  0
 11 10  1  6
 12 11  1  0
 14 13  1  6
 15 14  1  0
 15  7  1  0
 16 14  1  0
 17 16  2  0
 18 19  1  0
 19 21  1  0
 20 19  2  0
 21 22  1  0
 22 23  1  0
 23 24  1  0
 25 24  1  1
 25 26  1  0
 25 27  1  0
 26 16  1  0
 27 28  1  0
 29 27  2  0
M  END
$$$$
