ELR.pdb
     RDKit          3D

 29 28  0  0  1  0  0  0  0  0999 V2000
   27.7037  -21.3683  -16.7346 N   0  0  0  0  0  0  0  0  0  0  0  0
   27.6015  -20.4503  -15.6583 C   0  0  1  0  0  0  0  0  0  0  0  0
   27.5232  -19.0062  -15.9937 C   0  0  0  0  0  0  0  0  0  0  0  0
   26.6731  -18.7458  -17.1872 C   0  0  0  0  0  0  0  0  0  0  0  0
   27.2162  -17.8588  -18.2128 C   0  0  0  0  0  0  0  0  0  0  0  0
   28.3312  -17.3091  -18.2228 O   0  0  0  0  0  0  0  0  0  0  0  0
   26.5193  -20.8788  -14.7301 C   0  0  0  0  0  0  0  0  0  0  0  0
   25.7048  -21.7274  -15.1852 O   0  0  0  0  0  0  0  0  0  0  0  0
   26.3805  -17.5972  -19.3162 O   0  0  0  0  0  0  0  0  0  0  0  0
   26.4458  -22.2027  -10.1072 C   0  0  0  0  0  0  0  0  0  0  0  0
   25.3276  -21.1716  -10.0444 C   0  0  1  0  0  0  0  0  0  0  0  0
   25.3823  -20.5361   -8.6752 C   0  0  0  0  0  0  0  0  0  0  0  0
   25.5421  -20.1989  -11.1565 C   0  0  0  0  0  0  0  0  0  0  0  0
   25.3632  -20.7649  -12.5323 C   0  0  2  0  0  0  0  0  0  0  0  0
   26.4236  -20.3592  -13.4275 N   0  0  0  0  0  0  0  0  0  0  0  0
   24.0352  -20.2507  -13.0248 C   0  0  0  0  0  0  0  0  0  0  0  0
   23.9089  -19.0537  -13.4158 O   0  0  0  0  0  0  0  0  0  0  0  0
   18.2432  -24.1511  -18.0895 N   0  0  0  0  0  0  0  0  0  0  0  0
   17.6072  -22.9424  -17.7394 C   0  0  0  0  0  0  0  0  0  0  0  0
   16.5122  -22.6249  -18.3515 N   0  0  0  0  0  0  0  0  0  0  0  0
   18.1241  -22.0734  -16.7487 N   0  0  0  0  0  0  0  0  0  0  0  0
   19.3361  -22.3633  -16.0254 C   0  0  0  0  0  0  0  0  0  0  0  0
   19.7407  -21.2146  -15.1010 C   0  0  0  0  0  0  0  0  0  0  0  0
   21.0814  -21.5748  -14.5217 C   0  0  0  0  0  0  0  0  0  0  0  0
   21.5881  -20.5453  -13.5414 C   0  0  2  0  0  0  0  0  0  0  0  0
   22.8920  -21.0723  -13.0702 N   0  0  0  0  0  0  0  0  0  0  0  0
   20.6508  -20.4590  -12.3983 C   0  0  0  0  0  0  0  0  0  0  0  0
   19.4708  -19.7176  -12.5385 O   0  0  0  0  0  0  0  0  0  0  0  0
   20.8305  -21.0046  -11.2977 O   0  0  0  0  0  0  0  0  0  0  0  0
  2  1  1  6
  2  7  1  0
  2  3  1  0
  4  5  1  0
  4  3  1  0
  5  6  2  0
  7  8  2  0
  9  5  1  0
 11 13  1  0
 11 10  1  1
 12 11  1  0
 14 13  1  1
 15 14  1  0
 15  7  1  0
 16 14  1  0
 17 16  2  0
 18 19  1  0
 19 21  1  0
 20 19  2  0
 21 22  1  0
 22 23  1  0
 23 24  1  0
 25 24  1  6
 25 26  1  0
 25 27  1  0
 26 16  1  0
 27 28  1  0
 29 27  2  0
M  END
$$$$
