ELR.pdb
     RDKit          3D

 29 28  0  0  1  0  0  0  0  0999 V2000
   26.1954  -25.8817  -16.2472 N   0  0  0  0  0  0  0  0  0  0  0  0
   25.9714  -24.5391  -16.6458 C   0  0  1  0  0  0  0  0  0  0  0  0
   25.2257  -24.3144  -17.9097 C   0  0  0  0  0  0  0  0  0  0  0  0
   23.9038  -24.9980  -17.9182 C   0  0  0  0  0  0  0  0  0  0  0  0
   23.1156  -24.9115  -19.1450 C   0  0  0  0  0  0  0  0  0  0  0  0
   23.3883  -24.2703  -20.1744 O   0  0  0  0  0  0  0  0  0  0  0  0
   25.4100  -23.7613  -15.5074 C   0  0  0  0  0  0  0  0  0  0  0  0
   24.7438  -24.4202  -14.6632 O   0  0  0  0  0  0  0  0  0  0  0  0
   21.9090  -25.6382  -19.1626 O   0  0  0  0  0  0  0  0  0  0  0  0
   27.6328  -18.7150  -14.2371 C   0  0  0  0  0  0  0  0  0  0  0  0
   27.2358  -20.1807  -14.1299 C   0  0  1  0  0  0  0  0  0  0  0  0
   27.8071  -20.7045  -12.8334 C   0  0  0  0  0  0  0  0  0  0  0  0
   25.7460  -20.2547  -14.1919 C   0  0  0  0  0  0  0  0  0  0  0  0
   25.1847  -21.6437  -14.2250 C   0  0  2  0  0  0  0  0  0  0  0  0
   25.6180  -22.3757  -15.3941 N   0  0  0  0  0  0  0  0  0  0  0  0
   23.6860  -21.4873  -14.2292 C   0  0  0  0  0  0  0  0  0  0  0  0
   23.0697  -21.1837  -15.2921 O   0  0  0  0  0  0  0  0  0  0  0  0
   18.4435  -24.2622   -7.9472 N   0  0  0  0  0  0  0  0  0  0  0  0
   18.7845  -24.8005   -9.2049 C   0  0  0  0  0  0  0  0  0  0  0  0
   18.7148  -26.0829   -9.3633 N   0  0  0  0  0  0  0  0  0  0  0  0
   19.1969  -23.9899  -10.2897 N   0  0  0  0  0  0  0  0  0  0  0  0
   19.1344  -22.5511  -10.2441 C   0  0  0  0  0  0  0  0  0  0  0  0
   19.4751  -21.9194  -11.5941 C   0  0  0  0  0  0  0  0  0  0  0  0
   20.9563  -22.0904  -11.7924 C   0  0  0  0  0  0  0  0  0  0  0  0
   21.4492  -21.4616  -13.0726 C   0  0  2  0  0  0  0  0  0  0  0  0
   22.9176  -21.6708  -13.0632 N   0  0  0  0  0  0  0  0  0  0  0  0
   21.1595  -20.0096  -13.0446 C   0  0  0  0  0  0  0  0  0  0  0  0
   19.9387  -19.5479  -13.5529 O   0  0  0  0  0  0  0  0  0  0  0  0
   21.9305  -19.1464  -12.5956 O   0  0  0  0  0  0  0  0  0  0  0  0
  2  1  1  1
  2  7  1  0
  2  3  1  0
  4  5  1  0
  4  3  1  0
  5  6  2  0
  7  8  2  0
  9  5  1  0
 11 13  1  0
 11 10  1  1
 12 11  1  0
 14 13  1  6
 15 14  1  0
 15  7  1  0
 16 14  1  0
 17 16  2  0
 18 19  1  0
 19 21  1  0
 20 19  2  0
 21 22  1  0
 22 23  1  0
 23 24  1  0
 25 24  1  1
 25 26  1  0
 25 27  1  0
 26 16  1  0
 27 28  1  0
 29 27  2  0
M  END
$$$$
