ELR.pdb
     RDKit          3D

 29 28  0  0  1  0  0  0  0  0999 V2000
   25.7018  -19.0129  -18.1701 N   0  0  0  0  0  0  0  0  0  0  0  0
   26.1187  -18.3276  -17.0004 C   0  0  1  0  0  0  0  0  0  0  0  0
   25.4331  -17.0525  -16.6717 C   0  0  0  0  0  0  0  0  0  0  0  0
   23.9567  -17.1429  -16.8356 C   0  0  0  0  0  0  0  0  0  0  0  0
   23.1875  -15.9160  -16.6442 C   0  0  0  0  0  0  0  0  0  0  0  0
   21.9516  -15.7863  -16.6782 O   0  0  0  0  0  0  0  0  0  0  0  0
   26.1523  -19.2696  -15.8482 C   0  0  0  0  0  0  0  0  0  0  0  0
   25.3077  -20.2058  -15.8750 O   0  0  0  0  0  0  0  0  0  0  0  0
   23.9320  -14.7470  -16.3924 O   0  0  0  0  0  0  0  0  0  0  0  0
   30.8649  -20.2869  -13.0290 C   0  0  0  0  0  0  0  0  0  0  0  0
   29.5813  -20.5504  -13.8038 C   0  0  1  0  0  0  0  0  0  0  0  0
   29.5022  -22.0396  -14.0440 C   0  0  0  0  0  0  0  0  0  0  0  0
   28.4440  -20.0211  -12.9944 C   0  0  0  0  0  0  0  0  0  0  0  0
   27.1160  -20.0352  -13.6884 C   0  0  2  0  0  0  0  0  0  0  0  0
   27.0756  -19.1117  -14.8001 N   0  0  0  0  0  0  0  0  0  0  0  0
   26.0978  -19.6481  -12.6473 C   0  0  0  0  0  0  0  0  0  0  0  0
   25.9238  -18.4349  -12.3313 O   0  0  0  0  0  0  0  0  0  0  0  0
   19.2164  -23.8984  -12.1436 N   0  0  0  0  0  0  0  0  0  0  0  0
   19.3666  -22.8664  -13.0924 C   0  0  0  0  0  0  0  0  0  0  0  0
   18.3641  -22.5896  -13.8624 N   0  0  0  0  0  0  0  0  0  0  0  0
   20.5683  -22.1305  -13.2281 N   0  0  0  0  0  0  0  0  0  0  0  0
   21.5439  -22.0463  -12.1712 C   0  0  0  0  0  0  0  0  0  0  0  0
   22.8063  -21.3059  -12.6140 C   0  0  0  0  0  0  0  0  0  0  0  0
   22.9983  -20.1627  -11.6555 C   0  0  0  0  0  0  0  0  0  0  0  0
   24.3293  -20.2144  -10.9462 C   0  0  2  0  0  0  0  0  0  0  0  0
   25.3061  -20.6098  -11.9900 N   0  0  0  0  0  0  0  0  0  0  0  0
   24.2815  -21.2585   -9.8971 C   0  0  0  0  0  0  0  0  0  0  0  0
   23.5421  -21.0206   -8.7316 O   0  0  0  0  0  0  0  0  0  0  0  0
   24.8584  -22.3555   -9.9688 O   0  0  0  0  0  0  0  0  0  0  0  0
  2  1  1  6
  2  7  1  0
  2  3  1  0
  4  5  1  0
  4  3  1  0
  5  6  2  0
  7  8  2  0
  9  5  1  0
 11 13  1  0
 11 10  1  1
 12 11  1  0
 14 13  1  1
 15 14  1  0
 15  7  1  0
 16 14  1  0
 17 16  2  0
 18 19  1  0
 19 21  1  0
 20 19  2  0
 21 22  1  0
 22 23  1  0
 23 24  1  0
 25 24  1  6
 25 26  1  0
 25 27  1  0
 26 16  1  0
 27 28  1  0
 29 27  2  0
M  END
$$$$
