ELR.pdb
     RDKit          3D

 29 28  0  0  1  0  0  0  0  0999 V2000
   28.2076  -21.9584  -15.8907 N   0  0  0  0  0  0  0  0  0  0  0  0
   27.0320  -21.1736  -16.0077 C   0  0  1  0  0  0  0  0  0  0  0  0
   26.5414  -20.8732  -17.3763 C   0  0  0  0  0  0  0  0  0  0  0  0
   27.4988  -20.0389  -18.1522 C   0  0  0  0  0  0  0  0  0  0  0  0
   27.5977  -18.6267  -17.7920 C   0  0  0  0  0  0  0  0  0  0  0  0
   26.7717  -17.9499  -17.1557 O   0  0  0  0  0  0  0  0  0  0  0  0
   25.9654  -21.7278  -15.1293 C   0  0  0  0  0  0  0  0  0  0  0  0
   25.6039  -22.9102  -15.3779 O   0  0  0  0  0  0  0  0  0  0  0  0
   28.7625  -17.9564  -18.2142 O   0  0  0  0  0  0  0  0  0  0  0  0
   25.5870  -20.2100   -9.8049 C   0  0  0  0  0  0  0  0  0  0  0  0
   25.6936  -21.0525  -11.0683 C   0  0  1  0  0  0  0  0  0  0  0  0
   25.9164  -22.4821  -10.6345 C   0  0  0  0  0  0  0  0  0  0  0  0
   24.4365  -20.8614  -11.8506 C   0  0  0  0  0  0  0  0  0  0  0  0
   24.4208  -21.5297  -13.1917 C   0  0  2  0  0  0  0  0  0  0  0  0
   25.4042  -20.9664  -14.0895 N   0  0  0  0  0  0  0  0  0  0  0  0
   23.0322  -21.3285  -13.7411 C   0  0  0  0  0  0  0  0  0  0  0  0
   22.5871  -20.1653  -13.9661 O   0  0  0  0  0  0  0  0  0  0  0  0
   16.1205  -26.0927  -12.7427 N   0  0  0  0  0  0  0  0  0  0  0  0
   15.7201  -25.2942  -13.8336 C   0  0  0  0  0  0  0  0  0  0  0  0
   14.4646  -25.2657  -14.1454 N   0  0  0  0  0  0  0  0  0  0  0  0
   16.6397  -24.5299  -14.5913 N   0  0  0  0  0  0  0  0  0  0  0  0
   18.0474  -24.4935  -14.2860 C   0  0  0  0  0  0  0  0  0  0  0  0
   18.8119  -23.5528  -15.2178 C   0  0  0  0  0  0  0  0  0  0  0  0
   20.2484  -23.5727  -14.7723 C   0  0  0  0  0  0  0  0  0  0  0  0
   20.7741  -22.1980  -14.4387 C   0  0  2  0  0  0  0  0  0  0  0  0
   22.1816  -22.4148  -14.0242 N   0  0  0  0  0  0  0  0  0  0  0  0
   20.0057  -21.6464  -13.2993 C   0  0  0  0  0  0  0  0  0  0  0  0
   20.3907  -21.9763  -11.9937 O   0  0  0  0  0  0  0  0  0  0  0  0
   19.0228  -20.8961  -13.4104 O   0  0  0  0  0  0  0  0  0  0  0  0
  2  1  1  6
  2  7  1  0
  2  3  1  0
  4  5  1  0
  4  3  1  0
  5  6  2  0
  7  8  2  0
  9  5  1  0
 11 13  1  0
 11 10  1  1
 12 11  1  0
 14 13  1  1
 15 14  1  0
 15  7  1  0
 16 14  1  0
 17 16  2  0
 18 19  1  0
 19 21  1  0
 20 19  2  0
 21 22  1  0
 22 23  1  0
 23 24  1  0
 25 24  1  1
 25 26  1  0
 25 27  1  0
 26 16  1  0
 27 28  1  0
 29 27  2  0
M  END
$$$$
