EWT.pdb
     RDKit          3D

 31 32  0  0  1  0  0  0  0  0999 V2000
    9.2028  -18.8661   21.2443 N   0  0  0  0  0  0  0  0  0  0  0  0
   10.1737  -17.8210   21.3342 C   0  0  1  0  0  0  0  0  0  0  0  0
   10.1330  -16.7880   20.2576 C   0  0  0  0  0  0  0  0  0  0  0  0
    9.9799  -17.2754   18.8696 C   0  0  0  0  0  0  0  0  0  0  0  0
    9.9083  -16.2686   17.8036 C   0  0  0  0  0  0  0  0  0  0  0  0
    8.9080  -15.8390   17.2229 O   0  0  0  0  0  0  0  0  0  0  0  0
   10.1237  -17.1641   22.6948 C   0  0  0  0  0  0  0  0  0  0  0  0
   10.9149  -16.2361   22.9140 O   0  0  0  0  0  0  0  0  0  0  0  0
   11.1448  -15.7203   17.3886 O   0  0  0  0  0  0  0  0  0  0  0  0
    9.2084  -17.5867   23.6939 N   0  0  0  0  0  0  0  0  0  0  0  0
    9.1806  -16.9424   25.0169 C   0  0  1  0  0  0  0  0  0  0  0  0
    7.8018  -16.4583   25.3373 C   0  0  0  0  0  0  0  0  0  0  0  0
    7.3899  -15.2348   24.6683 C   0  0  0  0  0  0  0  0  0  0  0  0
    7.0810  -15.1022   23.3343 C   0  0  0  0  0  0  0  0  0  0  0  0
    6.7466  -13.8058   23.0939 N   0  0  0  0  0  0  0  0  0  0  0  0
    6.8273  -13.0963   24.2199 C   0  0  0  0  0  0  0  0  0  0  0  0
    6.6084  -11.7806   24.5564 C   0  0  0  0  0  0  0  0  0  0  0  0
    6.7663  -11.2839   25.8342 C   0  0  0  0  0  0  0  0  0  0  0  0
    7.1654  -12.1780   26.8036 C   0  0  0  0  0  0  0  0  0  0  0  0
    7.3888  -13.4997   26.4820 C   0  0  0  0  0  0  0  0  0  0  0  0
    7.2261  -13.9773   25.2014 C   0  0  0  0  0  0  0  0  0  0  0  0
    9.5556  -17.9830   26.0099 C   0  0  0  0  0  0  0  0  0  0  0  0
    8.8359  -19.0014   26.1903 O   0  0  0  0  0  0  0  0  0  0  0  0
   12.5827  -19.8896   25.8438 C   0  0  0  0  0  0  0  0  0  0  0  0
   12.5787  -19.3048   27.2361 C   0  0  1  0  0  0  0  0  0  0  0  0
   13.3735  -18.1443   27.2722 O   0  0  0  0  0  0  0  0  0  0  0  0
   11.1660  -18.9210   27.6533 C   0  0  2  0  0  0  0  0  0  0  0  0
   10.7511  -17.8392   26.7805 N   0  0  0  0  0  0  0  0  0  0  0  0
   11.2508  -18.4149   29.0597 C   0  0  0  0  0  0  0  0  0  0  0  0
   11.4853  -19.2518   30.1243 O   0  0  0  0  0  0  0  0  0  0  0  0
   11.1061  -17.1962   29.2901 O   0  0  0  0  0  0  0  0  0  0  0  0
  2  1  1  6
  3  2  1  0
  3  4  1  0
  5  4  1  0
  5  9  1  0
  6  5  2  0
  7  8  2  0
  7  2  1  0
 10  7  1  0
 11 10  1  0
 11 12  1  1
 12 13  1  0
 13 14  2  0
 13 21  1  0
 14 15  1  0
 15 16  1  0
 16 17  2  0
 18 17  1  0
 19 18  2  0
 20 21  2  0
 20 19  1  0
 21 16  1  0
 22 11  1  0
 23 22  2  0
 25 24  1  6
 25 27  1  0
 26 25  1  0
 27 29  1  0
 27 28  1  6
 28 22  1  0
 29 30  1  0
 31 29  2  0
M  END
$$$$
