EWT.pdb
     RDKit          3D

 31 32  0  0  1  0  0  0  0  0999 V2000
    7.4253  -17.7142   21.5090 N   0  0  0  0  0  0  0  0  0  0  0  0
    8.7078  -17.1247   21.2831 C   0  0  1  0  0  0  0  0  0  0  0  0
    8.7658  -16.0451   20.2540 C   0  0  0  0  0  0  0  0  0  0  0  0
    8.0514  -16.2945   18.9832 C   0  0  0  0  0  0  0  0  0  0  0  0
    8.0963  -15.2387   17.9641 C   0  0  0  0  0  0  0  0  0  0  0  0
    8.7134  -14.1708   17.9955 O   0  0  0  0  0  0  0  0  0  0  0  0
    9.3085  -16.6433   22.5841 C   0  0  0  0  0  0  0  0  0  0  0  0
   10.2451  -15.8347   22.5198 O   0  0  0  0  0  0  0  0  0  0  0  0
    7.3341  -15.4759   16.7960 O   0  0  0  0  0  0  0  0  0  0  0  0
    8.8264  -17.0948   23.8404 N   0  0  0  0  0  0  0  0  0  0  0  0
    9.5212  -16.7426   25.0892 C   0  0  1  0  0  0  0  0  0  0  0  0
    8.5350  -16.4627   26.1788 C   0  0  0  0  0  0  0  0  0  0  0  0
    7.4748  -15.5248   25.8463 C   0  0  0  0  0  0  0  0  0  0  0  0
    6.2067  -15.8485   25.4224 C   0  0  0  0  0  0  0  0  0  0  0  0
    5.5136  -14.6973   25.2109 N   0  0  0  0  0  0  0  0  0  0  0  0
    6.2840  -13.6434   25.4816 C   0  0  0  0  0  0  0  0  0  0  0  0
    6.1108  -12.2791   25.4463 C   0  0  0  0  0  0  0  0  0  0  0  0
    7.0970  -11.3761   25.7871 C   0  0  0  0  0  0  0  0  0  0  0  0
    8.3097  -11.8991   26.1799 C   0  0  0  0  0  0  0  0  0  0  0  0
    8.4989  -13.2640   26.2204 C   0  0  0  0  0  0  0  0  0  0  0  0
    7.5031  -14.1499   25.8766 C   0  0  0  0  0  0  0  0  0  0  0  0
   10.3294  -17.9273   25.4803 C   0  0  0  0  0  0  0  0  0  0  0  0
    9.7850  -18.9610   25.9523 O   0  0  0  0  0  0  0  0  0  0  0  0
   13.3317  -19.2040   23.2660 C   0  0  0  0  0  0  0  0  0  0  0  0
   13.7370  -19.0819   24.7156 C   0  0  1  0  0  0  0  0  0  0  0  0
   14.4092  -17.8638   24.9257 O   0  0  0  0  0  0  0  0  0  0  0  0
   12.5125  -19.1058   25.6195 C   0  0  2  0  0  0  0  0  0  0  0  0
   11.7503  -17.9077   25.3234 N   0  0  0  0  0  0  0  0  0  0  0  0
   13.0117  -19.0369   27.0291 C   0  0  0  0  0  0  0  0  0  0  0  0
   12.7687  -17.9526   27.8380 O   0  0  0  0  0  0  0  0  0  0  0  0
   13.6716  -19.9863   27.5006 O   0  0  0  0  0  0  0  0  0  0  0  0
  2  1  1  1
  3  2  1  0
  3  4  1  0
  5  4  1  0
  5  9  1  0
  6  5  2  0
  7  8  2  0
  7  2  1  0
 10  7  1  0
 11 10  1  0
 11 12  1  1
 12 13  1  0
 13 14  2  0
 13 21  1  0
 14 15  1  0
 15 16  1  0
 16 17  2  0
 18 17  1  0
 19 18  2  0
 20 21  2  0
 20 19  1  0
 21 16  1  0
 22 11  1  0
 23 22  2  0
 25 24  1  6
 25 27  1  0
 26 25  1  0
 27 29  1  0
 27 28  1  6
 28 22  1  0
 29 30  1  0
 31 29  2  0
M  END
$$$$
