EWT.pdb
     RDKit          3D

 31 32  0  0  1  0  0  0  0  0999 V2000
    9.5954  -18.7801   21.1955 N   0  0  0  0  0  0  0  0  0  0  0  0
   10.7896  -18.1220   21.6244 C   0  0  1  0  0  0  0  0  0  0  0  0
   11.4417  -17.2224   20.6277 C   0  0  0  0  0  0  0  0  0  0  0  0
   10.9828  -17.3344   19.2261 C   0  0  0  0  0  0  0  0  0  0  0  0
   11.6471  -16.4877   18.2276 C   0  0  0  0  0  0  0  0  0  0  0  0
   12.6234  -15.7486   18.3791 O   0  0  0  0  0  0  0  0  0  0  0  0
   10.5535  -17.3842   22.9226 C   0  0  0  0  0  0  0  0  0  0  0  0
   11.4620  -16.6532   23.3412 O   0  0  0  0  0  0  0  0  0  0  0  0
   11.0976  -16.5235   16.9244 O   0  0  0  0  0  0  0  0  0  0  0  0
    9.3392  -17.5167   23.6455 N   0  0  0  0  0  0  0  0  0  0  0  0
    9.1595  -16.8606   24.9507 C   0  0  1  0  0  0  0  0  0  0  0  0
    7.7606  -16.3503   25.0947 C   0  0  0  0  0  0  0  0  0  0  0  0
    7.5350  -14.9873   24.6413 C   0  0  0  0  0  0  0  0  0  0  0  0
    7.5301  -14.5555   23.3352 C   0  0  0  0  0  0  0  0  0  0  0  0
    7.2876  -13.2170   23.3224 N   0  0  0  0  0  0  0  0  0  0  0  0
    7.1357  -12.7678   24.5685 C   0  0  0  0  0  0  0  0  0  0  0  0
    6.8796  -11.5401   25.1338 C   0  0  0  0  0  0  0  0  0  0  0  0
    6.7647  -11.3358   26.4937 C   0  0  0  0  0  0  0  0  0  0  0  0
    6.9196  -12.4399   27.3033 C   0  0  0  0  0  0  0  0  0  0  0  0
    7.1767  -13.6769   26.7519 C   0  0  0  0  0  0  0  0  0  0  0  0
    7.2881  -13.8617   25.3925 C   0  0  0  0  0  0  0  0  0  0  0  0
    9.3899  -17.8990   25.9891 C   0  0  0  0  0  0  0  0  0  0  0  0
    8.5089  -18.7588   26.2581 O   0  0  0  0  0  0  0  0  0  0  0  0
   12.3266  -20.1786   25.9185 C   0  0  0  0  0  0  0  0  0  0  0  0
   12.2909  -19.5437   27.2882 C   0  0  1  0  0  0  0  0  0  0  0  0
   13.1718  -18.4475   27.3329 O   0  0  0  0  0  0  0  0  0  0  0  0
   10.8918  -19.0368   27.6089 C   0  0  2  0  0  0  0  0  0  0  0  0
   10.6280  -17.9350   26.7029 N   0  0  0  0  0  0  0  0  0  0  0  0
   10.9280  -18.5218   29.0141 C   0  0  0  0  0  0  0  0  0  0  0  0
   11.1056  -19.3545   30.0930 O   0  0  0  0  0  0  0  0  0  0  0  0
   10.7939  -17.2993   29.2303 O   0  0  0  0  0  0  0  0  0  0  0  0
  2  1  1  6
  3  2  1  0
  3  4  1  0
  5  4  1  0
  5  9  1  0
  6  5  2  0
  7  8  2  0
  7  2  1  0
 10  7  1  0
 11 10  1  0
 11 12  1  6
 12 13  1  0
 13 14  2  0
 13 21  1  0
 14 15  1  0
 15 16  1  0
 16 17  2  0
 18 17  1  0
 19 18  2  0
 20 21  2  0
 20 19  1  0
 21 16  1  0
 22 11  1  0
 23 22  2  0
 25 24  1  6
 25 27  1  0
 26 25  1  0
 27 29  1  0
 27 28  1  6
 28 22  1  0
 29 30  1  0
 31 29  2  0
M  END
$$$$
