EWT.pdb
     RDKit          3D

 31 32  0  0  1  0  0  0  0  0999 V2000
    7.4495  -15.2078   20.2060 N   0  0  0  0  0  0  0  0  0  0  0  0
    7.6467  -16.3031   21.1030 C   0  0  1  0  0  0  0  0  0  0  0  0
    8.0460  -17.6006   20.4826 C   0  0  0  0  0  0  0  0  0  0  0  0
    9.3491  -17.6339   19.7839 C   0  0  0  0  0  0  0  0  0  0  0  0
    9.7127  -18.8757   19.0903 C   0  0  0  0  0  0  0  0  0  0  0  0
   10.8387  -19.2886   18.8006 O   0  0  0  0  0  0  0  0  0  0  0  0
    8.6162  -15.9246   22.1995 C   0  0  0  0  0  0  0  0  0  0  0  0
    9.4906  -15.0893   21.9300 O   0  0  0  0  0  0  0  0  0  0  0  0
    8.6338  -19.7056   18.7045 O   0  0  0  0  0  0  0  0  0  0  0  0
    8.5383  -16.4993   23.4950 N   0  0  0  0  0  0  0  0  0  0  0  0
    9.5110  -16.1439   24.5409 C   0  0  1  0  0  0  0  0  0  0  0  0
    8.8491  -16.1004   25.8818 C   0  0  0  0  0  0  0  0  0  0  0  0
    7.6664  -15.2599   25.9762 C   0  0  0  0  0  0  0  0  0  0  0  0
    6.3598  -15.6843   25.9046 C   0  0  0  0  0  0  0  0  0  0  0  0
    5.5453  -14.6023   26.0312 N   0  0  0  0  0  0  0  0  0  0  0  0
    6.2743  -13.4962   26.1818 C   0  0  0  0  0  0  0  0  0  0  0  0
    5.9897  -12.1608   26.3491 C   0  0  0  0  0  0  0  0  0  0  0  0
    6.9571  -11.1864   26.4873 C   0  0  0  0  0  0  0  0  0  0  0  0
    8.2695  -11.6042   26.4519 C   0  0  0  0  0  0  0  0  0  0  0  0
    8.5709  -12.9390   26.2850 C   0  0  0  0  0  0  0  0  0  0  0  0
    7.5922  -13.8972   26.1486 C   0  0  0  0  0  0  0  0  0  0  0  0
   10.5364  -17.2200   24.5579 C   0  0  0  0  0  0  0  0  0  0  0  0
   10.3142  -18.3233   25.1245 O   0  0  0  0  0  0  0  0  0  0  0  0
   13.1455  -17.8133   21.4972 C   0  0  0  0  0  0  0  0  0  0  0  0
   13.8000  -17.7628   22.8572 C   0  0  1  0  0  0  0  0  0  0  0  0
   14.3151  -16.4753   23.0951 O   0  0  0  0  0  0  0  0  0  0  0  0
   12.7892  -18.0751   23.9516 C   0  0  2  0  0  0  0  0  0  0  0  0
   11.8010  -17.0135   23.9240 N   0  0  0  0  0  0  0  0  0  0  0  0
   13.5285  -18.0269   25.2524 C   0  0  0  0  0  0  0  0  0  0  0  0
   13.3187  -17.0303   26.1754 O   0  0  0  0  0  0  0  0  0  0  0  0
   14.3661  -18.9126   25.5231 O   0  0  0  0  0  0  0  0  0  0  0  0
  2  1  1  6
  3  2  1  0
  3  4  1  0
  5  4  1  0
  5  9  1  0
  6  5  2  0
  7  8  2  0
  7  2  1  0
 10  7  1  0
 11 10  1  0
 11 12  1  1
 12 13  1  0
 13 14  2  0
 13 21  1  0
 14 15  1  0
 15 16  1  0
 16 17  2  0
 18 17  1  0
 19 18  2  0
 20 21  2  0
 20 19  1  0
 21 16  1  0
 22 11  1  0
 23 22  2  0
 25 24  1  6
 25 27  1  0
 26 25  1  0
 27 29  1  0
 27 28  1  1
 28 22  1  0
 29 30  1  0
 31 29  2  0
M  END
$$$$
