EWT.pdb
     RDKit          3D

 31 32  0  0  1  0  0  0  0  0999 V2000
    6.3323  -15.4062   21.1345 N   0  0  0  0  0  0  0  0  0  0  0  0
    7.6383  -15.9870   21.1197 C   0  0  1  0  0  0  0  0  0  0  0  0
    8.4968  -15.6506   19.9459 C   0  0  0  0  0  0  0  0  0  0  0  0
    8.7898  -16.7464   18.9968 C   0  0  0  0  0  0  0  0  0  0  0  0
   10.0634  -17.4584   19.1585 C   0  0  0  0  0  0  0  0  0  0  0  0
   10.9120  -17.3170   20.0430 O   0  0  0  0  0  0  0  0  0  0  0  0
    8.3690  -15.6859   22.4085 C   0  0  0  0  0  0  0  0  0  0  0  0
    8.7799  -14.5296   22.5791 O   0  0  0  0  0  0  0  0  0  0  0  0
   10.3557  -18.4315   18.1740 O   0  0  0  0  0  0  0  0  0  0  0  0
    8.5836  -16.6837   23.3948 N   0  0  0  0  0  0  0  0  0  0  0  0
    9.3664  -16.3943   24.6071 C   0  0  1  0  0  0  0  0  0  0  0  0
    8.4911  -16.4315   25.8198 C   0  0  0  0  0  0  0  0  0  0  0  0
    7.4492  -15.4190   25.8788 C   0  0  0  0  0  0  0  0  0  0  0  0
    6.0997  -15.6309   25.7159 C   0  0  0  0  0  0  0  0  0  0  0  0
    5.4562  -14.4387   25.8377 N   0  0  0  0  0  0  0  0  0  0  0  0
    6.3368  -13.4656   26.0727 C   0  0  0  0  0  0  0  0  0  0  0  0
    6.2525  -12.1075   26.2752 C   0  0  0  0  0  0  0  0  0  0  0  0
    7.3484  -11.3015   26.5064 C   0  0  0  0  0  0  0  0  0  0  0  0
    8.5800  -11.9188   26.5301 C   0  0  0  0  0  0  0  0  0  0  0  0
    8.6809  -13.2788   26.3289 C   0  0  0  0  0  0  0  0  0  0  0  0
    7.5762  -14.0672   26.0996 C   0  0  0  0  0  0  0  0  0  0  0  0
   10.3839  -17.4710   24.7291 C   0  0  0  0  0  0  0  0  0  0  0  0
   10.0609  -18.6360   25.0843 O   0  0  0  0  0  0  0  0  0  0  0  0
   13.5179  -17.6280   22.2550 C   0  0  0  0  0  0  0  0  0  0  0  0
   13.9269  -17.8459   23.6923 C   0  0  1  0  0  0  0  0  0  0  0  0
   14.4406  -16.6523   24.2319 O   0  0  0  0  0  0  0  0  0  0  0  0
   12.7299  -18.2660   24.5336 C   0  0  2  0  0  0  0  0  0  0  0  0
   11.7566  -17.1944   24.4412 N   0  0  0  0  0  0  0  0  0  0  0  0
   13.2097  -18.3759   25.9474 C   0  0  0  0  0  0  0  0  0  0  0  0
   14.0795  -19.3613   26.3491 O   0  0  0  0  0  0  0  0  0  0  0  0
   12.8168  -17.5540   26.8014 O   0  0  0  0  0  0  0  0  0  0  0  0
  2  1  1  6
  3  2  1  0
  3  4  1  0
  5  4  1  0
  5  9  1  0
  6  5  2  0
  7  8  2  0
  7  2  1  0
 10  7  1  0
 11 10  1  0
 11 12  1  1
 12 13  1  0
 13 14  2  0
 13 21  1  0
 14 15  1  0
 15 16  1  0
 16 17  2  0
 18 17  1  0
 19 18  2  0
 20 21  2  0
 20 19  1  0
 21 16  1  0
 22 11  1  0
 23 22  2  0
 25 24  1  6
 25 27  1  0
 26 25  1  0
 27 29  1  0
 27 28  1  1
 28 22  1  0
 29 30  1  0
 31 29  2  0
M  END
$$$$
