EWT.pdb
     RDKit          3D

 31 32  0  0  1  0  0  0  0  0999 V2000
    9.6848  -19.2306   18.5508 N   0  0  0  0  0  0  0  0  0  0  0  0
   10.8203  -18.3794   18.3799 C   0  0  1  0  0  0  0  0  0  0  0  0
   10.8533  -17.5664   17.1287 C   0  0  0  0  0  0  0  0  0  0  0  0
   10.1058  -18.0964   15.9677 C   0  0  0  0  0  0  0  0  0  0  0  0
   10.0656  -17.2699   14.7551 C   0  0  0  0  0  0  0  0  0  0  0  0
   11.0120  -16.8428   14.0887 O   0  0  0  0  0  0  0  0  0  0  0  0
   11.0057  -17.4909   19.5889 C   0  0  0  0  0  0  0  0  0  0  0  0
   11.8726  -16.6080   19.5253 O   0  0  0  0  0  0  0  0  0  0  0  0
    8.7763  -16.9180   14.2907 O   0  0  0  0  0  0  0  0  0  0  0  0
   10.2217  -17.6530   20.7609 N   0  0  0  0  0  0  0  0  0  0  0  0
   10.4074  -16.7708   21.9243 C   0  0  1  0  0  0  0  0  0  0  0  0
    9.0906  -16.4547   22.5601 C   0  0  0  0  0  0  0  0  0  0  0  0
    8.0863  -15.8777   21.6810 C   0  0  0  0  0  0  0  0  0  0  0  0
    6.9127  -16.4760   21.2846 C   0  0  0  0  0  0  0  0  0  0  0  0
    6.2466  -15.6210   20.4627 N   0  0  0  0  0  0  0  0  0  0  0  0
    6.9437  -14.4944   20.3130 C   0  0  0  0  0  0  0  0  0  0  0  0
    6.7570  -13.3219   19.6180 C   0  0  0  0  0  0  0  0  0  0  0  0
    7.6575  -12.2764   19.6306 C   0  0  0  0  0  0  0  0  0  0  0  0
    8.7952  -12.4451   20.3892 C   0  0  0  0  0  0  0  0  0  0  0  0
    8.9968  -13.6142   21.0912 C   0  0  0  0  0  0  0  0  0  0  0  0
    8.0871  -14.6470   21.0666 C   0  0  0  0  0  0  0  0  0  0  0  0
   11.2345  -17.5212   22.9052 C   0  0  0  0  0  0  0  0  0  0  0  0
   10.9342  -18.6960   23.2477 O   0  0  0  0  0  0  0  0  0  0  0  0
   15.1365  -17.3864   22.8434 C   0  0  0  0  0  0  0  0  0  0  0  0
   14.6377  -17.1641   24.2513 C   0  0  1  0  0  0  0  0  0  0  0  0
   14.6422  -15.7894   24.5512 O   0  0  0  0  0  0  0  0  0  0  0  0
   13.2115  -17.6742   24.4026 C   0  0  2  0  0  0  0  0  0  0  0  0
   12.3940  -16.9119   23.4781 N   0  0  0  0  0  0  0  0  0  0  0  0
   12.7868  -17.3672   25.8049 C   0  0  0  0  0  0  0  0  0  0  0  0
   13.3403  -18.0017   26.8913 O   0  0  0  0  0  0  0  0  0  0  0  0
   11.9027  -16.5100   26.0117 O   0  0  0  0  0  0  0  0  0  0  0  0
  2  1  1  1
  3  2  1  0
  3  4  1  0
  5  4  1  0
  5  9  1  0
  6  5  2  0
  7  8  2  0
  7  2  1  0
 10  7  1  0
 11 10  1  0
 11 12  1  1
 12 13  1  0
 13 14  2  0
 13 21  1  0
 14 15  1  0
 15 16  1  0
 16 17  2  0
 18 17  1  0
 19 18  2  0
 20 21  2  0
 20 19  1  0
 21 16  1  0
 22 11  1  0
 23 22  2  0
 25 24  1  6
 25 27  1  0
 26 25  1  0
 27 29  1  0
 27 28  1  6
 28 22  1  0
 29 30  1  0
 31 29  2  0
M  END
$$$$
