EWT.pdb
     RDKit          3D

 31 32  0  0  1  0  0  0  0  0999 V2000
    7.1953  -15.5700   19.6834 N   0  0  0  0  0  0  0  0  0  0  0  0
    7.5166  -16.6020   20.6187 C   0  0  1  0  0  0  0  0  0  0  0  0
    8.0274  -17.8801   20.0414 C   0  0  0  0  0  0  0  0  0  0  0  0
    9.2755  -17.8047   19.2515 C   0  0  0  0  0  0  0  0  0  0  0  0
    9.7282  -19.0313   18.5839 C   0  0  0  0  0  0  0  0  0  0  0  0
   10.7140  -19.1884   17.8588 O   0  0  0  0  0  0  0  0  0  0  0  0
    8.4670  -16.0856   21.6749 C   0  0  0  0  0  0  0  0  0  0  0  0
    9.3266  -15.2658   21.3227 O   0  0  0  0  0  0  0  0  0  0  0  0
    8.9322  -20.1809   18.7994 O   0  0  0  0  0  0  0  0  0  0  0  0
    8.3882  -16.5177   23.0246 N   0  0  0  0  0  0  0  0  0  0  0  0
    9.3756  -16.0724   24.0212 C   0  0  1  0  0  0  0  0  0  0  0  0
    8.7921  -16.1214   25.3978 C   0  0  0  0  0  0  0  0  0  0  0  0
    7.6480  -15.2548   25.6309 C   0  0  0  0  0  0  0  0  0  0  0  0
    6.3279  -15.6407   25.6563 C   0  0  0  0  0  0  0  0  0  0  0  0
    5.5606  -14.5442   25.8994 N   0  0  0  0  0  0  0  0  0  0  0  0
    6.3332  -13.4657   26.0321 C   0  0  0  0  0  0  0  0  0  0  0  0
    6.1048  -12.1320   26.2799 C   0  0  0  0  0  0  0  0  0  0  0  0
    7.1096  -11.1908   26.3738 C   0  0  0  0  0  0  0  0  0  0  0  0
    8.4008  -11.6414   26.2059 C   0  0  0  0  0  0  0  0  0  0  0  0
    8.6459  -12.9749   25.9570 C   0  0  0  0  0  0  0  0  0  0  0  0
    7.6304  -13.8997   25.8666 C   0  0  0  0  0  0  0  0  0  0  0  0
   10.5115  -17.0291   23.9581 C   0  0  0  0  0  0  0  0  0  0  0  0
   10.3145  -18.2686   23.8465 O   0  0  0  0  0  0  0  0  0  0  0  0
   14.3773  -15.5055   23.4567 C   0  0  0  0  0  0  0  0  0  0  0  0
   13.9825  -16.8878   22.9944 C   0  0  1  0  0  0  0  0  0  0  0  0
   15.1095  -17.7302   22.9811 O   0  0  0  0  0  0  0  0  0  0  0  0
   12.9521  -17.4950   23.9360 C   0  0  2  0  0  0  0  0  0  0  0  0
   11.8563  -16.5486   24.0239 N   0  0  0  0  0  0  0  0  0  0  0  0
   13.6071  -17.6168   25.2766 C   0  0  0  0  0  0  0  0  0  0  0  0
   14.5967  -18.5377   25.5252 O   0  0  0  0  0  0  0  0  0  0  0  0
   13.2549  -16.8654   26.2097 O   0  0  0  0  0  0  0  0  0  0  0  0
  2  1  1  6
  3  2  1  0
  3  4  1  0
  5  4  1  0
  5  9  1  0
  6  5  2  0
  7  8  2  0
  7  2  1  0
 10  7  1  0
 11 10  1  0
 11 12  1  1
 12 13  1  0
 13 14  2  0
 13 21  1  0
 14 15  1  0
 15 16  1  0
 16 17  2  0
 18 17  1  0
 19 18  2  0
 20 21  2  0
 20 19  1  0
 21 16  1  0
 22 11  1  0
 23 22  2  0
 25 24  1  1
 25 27  1  0
 26 25  1  0
 27 29  1  0
 27 28  1  1
 28 22  1  0
 29 30  1  0
 31 29  2  0
M  END
$$$$
