EWT.pdb
     RDKit          3D

 31 32  0  0  1  0  0  0  0  0999 V2000
    9.4384  -16.8894   18.8448 N   0  0  0  0  0  0  0  0  0  0  0  0
   10.4920  -17.2410   19.7445 C   0  0  1  0  0  0  0  0  0  0  0  0
   11.8831  -17.0310   19.2459 C   0  0  0  0  0  0  0  0  0  0  0  0
   12.1926  -17.5440   17.8937 C   0  0  0  0  0  0  0  0  0  0  0  0
   13.5874  -17.4632   17.4429 C   0  0  0  0  0  0  0  0  0  0  0  0
   14.0588  -17.7920   16.3511 O   0  0  0  0  0  0  0  0  0  0  0  0
   10.3031  -16.5557   21.0787 C   0  0  0  0  0  0  0  0  0  0  0  0
   11.1021  -15.6587   21.3819 O   0  0  0  0  0  0  0  0  0  0  0  0
   14.5096  -16.9414   18.3804 O   0  0  0  0  0  0  0  0  0  0  0  0
    9.2524  -16.9186   21.9614 N   0  0  0  0  0  0  0  0  0  0  0  0
    9.0475  -16.2013   23.2301 C   0  0  1  0  0  0  0  0  0  0  0  0
    7.6035  -15.8543   23.4108 C   0  0  0  0  0  0  0  0  0  0  0  0
    7.2616  -15.2046   24.6659 C   0  0  0  0  0  0  0  0  0  0  0  0
    6.6729  -15.8019   25.7563 C   0  0  0  0  0  0  0  0  0  0  0  0
    6.5124  -14.8650   26.7293 N   0  0  0  0  0  0  0  0  0  0  0  0
    6.9744  -13.6866   26.3102 C   0  0  0  0  0  0  0  0  0  0  0  0
    7.0663  -12.4285   26.8591 C   0  0  0  0  0  0  0  0  0  0  0  0
    7.6046  -11.3447   26.1960 C   0  0  0  0  0  0  0  0  0  0  0  0
    8.0665  -11.5654   24.9169 C   0  0  0  0  0  0  0  0  0  0  0  0
    7.9814  -12.8204   24.3529 C   0  0  0  0  0  0  0  0  0  0  0  0
    7.4410  -13.8902   25.0298 C   0  0  0  0  0  0  0  0  0  0  0  0
    9.4469  -17.1310   24.3190 C   0  0  0  0  0  0  0  0  0  0  0  0
    9.0016  -18.3088   24.3667 O   0  0  0  0  0  0  0  0  0  0  0  0
   12.7559  -18.1174   27.8169 C   0  0  0  0  0  0  0  0  0  0  0  0
   12.2308  -17.2477   26.6996 C   0  0  1  0  0  0  0  0  0  0  0  0
   13.0334  -17.4005   25.5540 O   0  0  0  0  0  0  0  0  0  0  0  0
   10.8076  -17.6446   26.3337 C   0  0  2  0  0  0  0  0  0  0  0  0
   10.3515  -16.6949   25.3365 N   0  0  0  0  0  0  0  0  0  0  0  0
    9.9819  -17.4926   27.5732 C   0  0  0  0  0  0  0  0  0  0  0  0
    9.9994  -18.4264   28.5816 O   0  0  0  0  0  0  0  0  0  0  0  0
    9.2484  -16.4915   27.7111 O   0  0  0  0  0  0  0  0  0  0  0  0
  2  1  1  6
  3  2  1  0
  3  4  1  0
  5  4  1  0
  5  9  1  0
  6  5  2  0
  7  8  2  0
  7  2  1  0
 10  7  1  0
 11 10  1  0
 11 12  1  1
 12 13  1  0
 13 14  2  0
 13 21  1  0
 14 15  1  0
 15 16  1  0
 16 17  2  0
 18 17  1  0
 19 18  2  0
 20 21  2  0
 20 19  1  0
 21 16  1  0
 22 11  1  0
 23 22  2  0
 25 24  1  1
 25 27  1  0
 26 25  1  0
 27 29  1  0
 27 28  1  6
 28 22  1  0
 29 30  1  0
 31 29  2  0
M  END
$$$$
