EWT.pdb
     RDKit          3D

 31 32  0  0  1  0  0  0  0  0999 V2000
    7.3753  -17.4894   21.7574 N   0  0  0  0  0  0  0  0  0  0  0  0
    8.3931  -16.4929   21.6387 C   0  0  1  0  0  0  0  0  0  0  0  0
    7.9774  -15.1942   21.0316 C   0  0  0  0  0  0  0  0  0  0  0  0
    7.5267  -15.2290   19.6234 C   0  0  0  0  0  0  0  0  0  0  0  0
    8.5121  -15.6198   18.6077 C   0  0  0  0  0  0  0  0  0  0  0  0
    9.7047  -15.8944   18.7646 O   0  0  0  0  0  0  0  0  0  0  0  0
    9.0657  -16.2581   22.9721 C   0  0  0  0  0  0  0  0  0  0  0  0
    9.9802  -15.4233   23.0150 O   0  0  0  0  0  0  0  0  0  0  0  0
    8.0330  -15.6908   17.2784 O   0  0  0  0  0  0  0  0  0  0  0  0
    8.6732  -16.9631   24.1398 N   0  0  0  0  0  0  0  0  0  0  0  0
    9.3492  -16.7326   25.4267 C   0  0  1  0  0  0  0  0  0  0  0  0
    8.3574  -16.3580   26.4821 C   0  0  0  0  0  0  0  0  0  0  0  0
    7.3640  -15.3696   26.0940 C   0  0  0  0  0  0  0  0  0  0  0  0
    6.1199  -15.6307   25.5684 C   0  0  0  0  0  0  0  0  0  0  0  0
    5.4917  -14.4472   25.3336 N   0  0  0  0  0  0  0  0  0  0  0  0
    6.2812  -13.4325   25.6869 C   0  0  0  0  0  0  0  0  0  0  0  0
    6.1661  -12.0618   25.6720 C   0  0  0  0  0  0  0  0  0  0  0  0
    7.1592  -11.2084   26.1078 C   0  0  0  0  0  0  0  0  0  0  0  0
    8.3165  -11.7901   26.5776 C   0  0  0  0  0  0  0  0  0  0  0  0
    8.4470  -13.1622   26.5989 C   0  0  0  0  0  0  0  0  0  0  0  0
    7.4453  -13.9980   26.1599 C   0  0  0  0  0  0  0  0  0  0  0  0
    9.9848  -18.0190   25.8149 C   0  0  0  0  0  0  0  0  0  0  0  0
    9.2940  -18.9904   26.2236 O   0  0  0  0  0  0  0  0  0  0  0  0
   13.1144  -19.6303   23.9214 C   0  0  0  0  0  0  0  0  0  0  0  0
   13.3373  -19.5339   25.4119 C   0  0  1  0  0  0  0  0  0  0  0  0
   14.0990  -18.3892   25.7108 O   0  0  0  0  0  0  0  0  0  0  0  0
   12.0093  -19.4208   26.1473 C   0  0  2  0  0  0  0  0  0  0  0  0
   11.4037  -18.1713   25.7279 N   0  0  0  0  0  0  0  0  0  0  0  0
   12.3267  -19.3488   27.6085 C   0  0  0  0  0  0  0  0  0  0  0  0
   12.1425  -18.2002   28.3404 O   0  0  0  0  0  0  0  0  0  0  0  0
   12.7740  -20.3556   28.1965 O   0  0  0  0  0  0  0  0  0  0  0  0
  2  1  1  1
  3  2  1  0
  3  4  1  0
  5  4  1  0
  5  9  1  0
  6  5  2  0
  7  8  2  0
  7  2  1  0
 10  7  1  0
 11 10  1  0
 11 12  1  1
 12 13  1  0
 13 14  2  0
 13 21  1  0
 14 15  1  0
 15 16  1  0
 16 17  2  0
 18 17  1  0
 19 18  2  0
 20 21  2  0
 20 19  1  0
 21 16  1  0
 22 11  1  0
 23 22  2  0
 25 24  1  6
 25 27  1  0
 26 25  1  0
 27 29  1  0
 27 28  1  6
 28 22  1  0
 29 30  1  0
 31 29  2  0
M  END
$$$$
