EWT.pdb
     RDKit          3D

 31 32  0  0  1  0  0  0  0  0999 V2000
    7.7481  -18.0527   21.6991 N   0  0  0  0  0  0  0  0  0  0  0  0
    9.0683  -17.5067   21.6528 C   0  0  1  0  0  0  0  0  0  0  0  0
    9.3058  -16.4394   20.6367 C   0  0  0  0  0  0  0  0  0  0  0  0
    9.1193  -16.8142   19.2182 C   0  0  0  0  0  0  0  0  0  0  0  0
    9.3610  -15.7771   18.2076 C   0  0  0  0  0  0  0  0  0  0  0  0
    9.7585  -14.6215   18.3772 O   0  0  0  0  0  0  0  0  0  0  0  0
    9.4960  -17.0322   23.0230 C   0  0  0  0  0  0  0  0  0  0  0  0
   10.3868  -16.1731   23.0811 O   0  0  0  0  0  0  0  0  0  0  0  0
    9.1053  -16.1503   16.8671 O   0  0  0  0  0  0  0  0  0  0  0  0
    8.9064  -17.5455   24.2077 N   0  0  0  0  0  0  0  0  0  0  0  0
    9.3661  -17.1050   25.5347 C   0  0  1  0  0  0  0  0  0  0  0  0
    8.2117  -16.6347   26.3618 C   0  0  0  0  0  0  0  0  0  0  0  0
    7.3525  -15.6397   25.7405 C   0  0  0  0  0  0  0  0  0  0  0  0
    6.2753  -15.8925   24.9230 C   0  0  0  0  0  0  0  0  0  0  0  0
    5.7333  -14.7049   24.5408 N   0  0  0  0  0  0  0  0  0  0  0  0
    6.4179  -13.6954   25.0794 C   0  0  0  0  0  0  0  0  0  0  0  0
    6.3199  -12.3239   25.0374 C   0  0  0  0  0  0  0  0  0  0  0  0
    7.1801  -11.4771   25.7062 C   0  0  0  0  0  0  0  0  0  0  0  0
    8.1809  -12.0665   26.4475 C   0  0  0  0  0  0  0  0  0  0  0  0
    8.2923  -13.4395   26.4994 C   0  0  0  0  0  0  0  0  0  0  0  0
    7.4246  -14.2686   25.8254 C   0  0  0  0  0  0  0  0  0  0  0  0
    9.9661  -18.2923   26.1977 C   0  0  0  0  0  0  0  0  0  0  0  0
    9.2585  -19.2807   26.5298 O   0  0  0  0  0  0  0  0  0  0  0  0
   13.4237  -19.9605   25.2702 C   0  0  0  0  0  0  0  0  0  0  0  0
   13.3656  -19.6075   26.7373 C   0  0  1  0  0  0  0  0  0  0  0  0
   14.0261  -18.3860   26.9643 O   0  0  0  0  0  0  0  0  0  0  0  0
   11.9223  -19.4545   27.1961 C   0  0  2  0  0  0  0  0  0  0  0  0
   11.3692  -18.3275   26.4694 N   0  0  0  0  0  0  0  0  0  0  0  0
   11.9631  -19.1274   28.6565 C   0  0  0  0  0  0  0  0  0  0  0  0
   12.4301  -20.0193   29.5921 O   0  0  0  0  0  0  0  0  0  0  0  0
   11.5637  -18.0130   29.0539 O   0  0  0  0  0  0  0  0  0  0  0  0
  2  1  1  1
  3  2  1  0
  3  4  1  0
  5  4  1  0
  5  9  1  0
  6  5  2  0
  7  8  2  0
  7  2  1  0
 10  7  1  0
 11 10  1  0
 11 12  1  1
 12 13  1  0
 13 14  2  0
 13 21  1  0
 14 15  1  0
 15 16  1  0
 16 17  2  0
 18 17  1  0
 19 18  2  0
 20 21  2  0
 20 19  1  0
 21 16  1  0
 22 11  1  0
 23 22  2  0
 25 24  1  6
 25 27  1  0
 26 25  1  0
 27 29  1  0
 27 28  1  6
 28 22  1  0
 29 30  1  0
 31 29  2  0
M  END
$$$$
