EWT.pdb
     RDKit          3D

 31 32  0  0  1  0  0  0  0  0999 V2000
    8.7273  -15.0743   20.6649 N   0  0  0  0  0  0  0  0  0  0  0  0
    8.7736  -16.2553   21.4688 C   0  0  1  0  0  0  0  0  0  0  0  0
    9.2128  -17.5050   20.7808 C   0  0  0  0  0  0  0  0  0  0  0  0
    9.0674  -17.5440   19.3095 C   0  0  0  0  0  0  0  0  0  0  0  0
    9.4561  -18.7829   18.6244 C   0  0  0  0  0  0  0  0  0  0  0  0
    8.9281  -19.8956   18.6976 O   0  0  0  0  0  0  0  0  0  0  0  0
    9.6020  -16.0207   22.7114 C   0  0  0  0  0  0  0  0  0  0  0  0
   10.7455  -15.5676   22.5624 O   0  0  0  0  0  0  0  0  0  0  0  0
   10.5803  -18.6892   17.7705 O   0  0  0  0  0  0  0  0  0  0  0  0
    9.0994  -16.3063   24.0077 N   0  0  0  0  0  0  0  0  0  0  0  0
    9.9644  -16.2065   25.1943 C   0  0  1  0  0  0  0  0  0  0  0  0
    9.3461  -15.3125   26.2222 C   0  0  0  0  0  0  0  0  0  0  0  0
    7.9880  -14.8739   25.9440 C   0  0  0  0  0  0  0  0  0  0  0  0
    6.9291  -15.6796   25.5947 C   0  0  0  0  0  0  0  0  0  0  0  0
    5.8306  -14.8977   25.4151 N   0  0  0  0  0  0  0  0  0  0  0  0
    6.1385  -13.6191   25.6348 C   0  0  0  0  0  0  0  0  0  0  0  0
    5.4427  -12.4329   25.6003 C   0  0  0  0  0  0  0  0  0  0  0  0
    6.0115  -11.2069   25.8789 C   0  0  0  0  0  0  0  0  0  0  0  0
    7.3499  -11.2026   26.2059 C   0  0  0  0  0  0  0  0  0  0  0  0
    8.0608  -12.3830   26.2447 C   0  0  0  0  0  0  0  0  0  0  0  0
    7.4764  -13.5971   25.9636 C   0  0  0  0  0  0  0  0  0  0  0  0
   10.0710  -17.5749   25.7649 C   0  0  0  0  0  0  0  0  0  0  0  0
    9.0943  -18.3705   25.7376 O   0  0  0  0  0  0  0  0  0  0  0  0
   12.2803  -20.2812   24.7565 C   0  0  0  0  0  0  0  0  0  0  0  0
   12.5772  -20.0184   26.2137 C   0  0  1  0  0  0  0  0  0  0  0  0
   13.6824  -19.1554   26.3309 O   0  0  0  0  0  0  0  0  0  0  0  0
   11.3876  -19.3548   26.8930 C   0  0  2  0  0  0  0  0  0  0  0  0
   11.2970  -18.0095   26.3580 N   0  0  0  0  0  0  0  0  0  0  0  0
   11.7057  -19.2840   28.3541 C   0  0  0  0  0  0  0  0  0  0  0  0
   11.8591  -18.0866   29.0112 O   0  0  0  0  0  0  0  0  0  0  0  0
   11.8391  -20.3371   29.0117 O   0  0  0  0  0  0  0  0  0  0  0  0
  2  1  1  6
  3  2  1  0
  3  4  1  0
  5  4  1  0
  5  9  1  0
  6  5  2  0
  7  8  2  0
  7  2  1  0
 10  7  1  0
 11 10  1  0
 11 12  1  1
 12 13  1  0
 13 14  2  0
 13 21  1  0
 14 15  1  0
 15 16  1  0
 16 17  2  0
 18 17  1  0
 19 18  2  0
 20 21  2  0
 20 19  1  0
 21 16  1  0
 22 11  1  0
 23 22  2  0
 25 24  1  6
 25 27  1  0
 26 25  1  0
 27 29  1  0
 27 28  1  6
 28 22  1  0
 29 30  1  0
 31 29  2  0
M  END
$$$$
