EWT.pdb
     RDKit          3D

 31 32  0  0  1  0  0  0  0  0999 V2000
   10.1159  -16.0573   18.1066 N   0  0  0  0  0  0  0  0  0  0  0  0
    9.3870  -16.8771   19.0230 C   0  0  1  0  0  0  0  0  0  0  0  0
    9.7612  -18.3216   19.0577 C   0  0  0  0  0  0  0  0  0  0  0  0
   11.1894  -18.6468   18.8533 C   0  0  0  0  0  0  0  0  0  0  0  0
   11.5530  -20.0661   18.7604 C   0  0  0  0  0  0  0  0  0  0  0  0
   12.6655  -20.5590   18.5562 O   0  0  0  0  0  0  0  0  0  0  0  0
    9.4326  -16.2890   20.4150 C   0  0  0  0  0  0  0  0  0  0  0  0
   10.4453  -15.6517   20.7364 O   0  0  0  0  0  0  0  0  0  0  0  0
   10.4919  -20.9870   18.9265 O   0  0  0  0  0  0  0  0  0  0  0  0
    8.3605  -16.4548   21.3302 N   0  0  0  0  0  0  0  0  0  0  0  0
    8.4077  -15.8476   22.6701 C   0  0  1  0  0  0  0  0  0  0  0  0
    7.0363  -15.4494   23.1157 C   0  0  0  0  0  0  0  0  0  0  0  0
    6.9259  -14.9951   24.4926 C   0  0  0  0  0  0  0  0  0  0  0  0
    6.4952  -15.7437   25.5634 C   0  0  0  0  0  0  0  0  0  0  0  0
    6.5303  -14.9651   26.6783 N   0  0  0  0  0  0  0  0  0  0  0  0
    6.9668  -13.7437   26.3695 C   0  0  0  0  0  0  0  0  0  0  0  0
    7.1962  -12.5866   27.0774 C   0  0  0  0  0  0  0  0  0  0  0  0
    7.6651  -11.4223   26.5041 C   0  0  0  0  0  0  0  0  0  0  0  0
    7.9074  -11.4510   25.1481 C   0  0  0  0  0  0  0  0  0  0  0  0
    7.6825  -12.6028   24.4249 C   0  0  0  0  0  0  0  0  0  0  0  0
    7.2143  -13.7554   25.0141 C   0  0  0  0  0  0  0  0  0  0  0  0
    8.9183  -16.8913   23.5973 C   0  0  0  0  0  0  0  0  0  0  0  0
    8.4003  -18.0394   23.6354 O   0  0  0  0  0  0  0  0  0  0  0  0
   12.0403  -18.6035   23.6619 C   0  0  0  0  0  0  0  0  0  0  0  0
   11.9514  -17.8947   24.9924 C   0  0  1  0  0  0  0  0  0  0  0  0
   12.6131  -16.6550   24.9216 O   0  0  0  0  0  0  0  0  0  0  0  0
   10.4991  -17.6325   25.3652 C   0  0  2  0  0  0  0  0  0  0  0  0
   10.0157  -16.6016   24.4664 N   0  0  0  0  0  0  0  0  0  0  0  0
   10.4987  -17.1049   26.7662 C   0  0  0  0  0  0  0  0  0  0  0  0
   10.9153  -17.8647   27.8331 O   0  0  0  0  0  0  0  0  0  0  0  0
   10.1106  -15.9394   26.9900 O   0  0  0  0  0  0  0  0  0  0  0  0
  2  1  1  6
  3  2  1  0
  3  4  1  0
  5  4  1  0
  5  9  1  0
  6  5  2  0
  7  8  2  0
  7  2  1  0
 10  7  1  0
 11 10  1  0
 11 12  1  1
 12 13  1  0
 13 14  2  0
 13 21  1  0
 14 15  1  0
 15 16  1  0
 16 17  2  0
 18 17  1  0
 19 18  2  0
 20 21  2  0
 20 19  1  0
 21 16  1  0
 22 11  1  0
 23 22  2  0
 25 24  1  6
 25 27  1  0
 26 25  1  0
 27 29  1  0
 27 28  1  6
 28 22  1  0
 29 30  1  0
 31 29  2  0
M  END
$$$$
