EWT.pdb
     RDKit          3D

 31 32  0  0  1  0  0  0  0  0999 V2000
    7.5259  -15.2379   20.4636 N   0  0  0  0  0  0  0  0  0  0  0  0
    7.6036  -16.3930   21.3019 C   0  0  1  0  0  0  0  0  0  0  0  0
    7.9553  -17.6765   20.6260 C   0  0  0  0  0  0  0  0  0  0  0  0
    9.2930  -17.7573   20.0005 C   0  0  0  0  0  0  0  0  0  0  0  0
    9.6146  -18.9757   19.2472 C   0  0  0  0  0  0  0  0  0  0  0  0
    8.9176  -19.9806   19.0841 O   0  0  0  0  0  0  0  0  0  0  0  0
    8.5317  -16.1421   22.4686 C   0  0  0  0  0  0  0  0  0  0  0  0
    9.5914  -15.5419   22.2408 O   0  0  0  0  0  0  0  0  0  0  0  0
   10.8869  -19.0012   18.6290 O   0  0  0  0  0  0  0  0  0  0  0  0
    8.2122  -16.5745   23.7822 N   0  0  0  0  0  0  0  0  0  0  0  0
    9.1116  -16.2917   24.9124 C   0  0  1  0  0  0  0  0  0  0  0  0
    8.3261  -16.0571   26.1638 C   0  0  0  0  0  0  0  0  0  0  0  0
    7.2696  -15.0625   26.0700 C   0  0  0  0  0  0  0  0  0  0  0  0
    5.9332  -15.3134   25.8614 C   0  0  0  0  0  0  0  0  0  0  0  0
    5.2690  -14.1267   25.8322 N   0  0  0  0  0  0  0  0  0  0  0  0
    6.1238  -13.1197   26.0138 C   0  0  0  0  0  0  0  0  0  0  0  0
    6.0117  -11.7500   26.0766 C   0  0  0  0  0  0  0  0  0  0  0  0
    7.0838  -10.9058   26.2817 C   0  0  0  0  0  0  0  0  0  0  0  0
    8.3203  -11.4957   26.4281 C   0  0  0  0  0  0  0  0  0  0  0  0
    8.4489  -12.8668   26.3677 C   0  0  0  0  0  0  0  0  0  0  0  0
    7.3677  -13.6935   26.1622 C   0  0  0  0  0  0  0  0  0  0  0  0
    9.9528  -17.5019   25.1057 C   0  0  0  0  0  0  0  0  0  0  0  0
    9.4329  -18.6394   25.2591 O   0  0  0  0  0  0  0  0  0  0  0  0
   13.1140  -18.3754   23.0152 C   0  0  0  0  0  0  0  0  0  0  0  0
   13.4446  -18.4008   24.4884 C   0  0  1  0  0  0  0  0  0  0  0  0
   14.0465  -17.1866   24.8668 O   0  0  0  0  0  0  0  0  0  0  0  0
   12.1817  -18.5791   25.3193 C   0  0  2  0  0  0  0  0  0  0  0  0
   11.3778  -17.3883   25.1198 N   0  0  0  0  0  0  0  0  0  0  0  0
   12.6106  -18.6502   26.7518 C   0  0  0  0  0  0  0  0  0  0  0  0
   13.3336  -19.7094   27.2462 O   0  0  0  0  0  0  0  0  0  0  0  0
   12.3100  -17.7260   27.5359 O   0  0  0  0  0  0  0  0  0  0  0  0
  2  1  1  6
  3  2  1  0
  3  4  1  0
  5  4  1  0
  5  9  1  0
  6  5  2  0
  7  8  2  0
  7  2  1  0
 10  7  1  0
 11 10  1  0
 11 12  1  1
 12 13  1  0
 13 14  2  0
 13 21  1  0
 14 15  1  0
 15 16  1  0
 16 17  2  0
 18 17  1  0
 19 18  2  0
 20 21  2  0
 20 19  1  0
 21 16  1  0
 22 11  1  0
 23 22  2  0
 25 24  1  6
 25 27  1  0
 26 25  1  0
 27 29  1  0
 27 28  1  1
 28 22  1  0
 29 30  1  0
 31 29  2  0
M  END
$$$$
