EWT.pdb
     RDKit          3D

 31 32  0  0  1  0  0  0  0  0999 V2000
    5.9420  -16.6250   21.2968 N   0  0  0  0  0  0  0  0  0  0  0  0
    7.1773  -17.3189   21.1073 C   0  0  1  0  0  0  0  0  0  0  0  0
    7.6670  -17.4223   19.7011 C   0  0  0  0  0  0  0  0  0  0  0  0
    7.9206  -16.1522   18.9870 C   0  0  0  0  0  0  0  0  0  0  0  0
    8.4082  -16.2395   17.6050 C   0  0  0  0  0  0  0  0  0  0  0  0
    9.1158  -15.4364   16.9912 O   0  0  0  0  0  0  0  0  0  0  0  0
    8.2539  -16.7411   21.9974 C   0  0  0  0  0  0  0  0  0  0  0  0
    9.0781  -15.9751   21.4788 O   0  0  0  0  0  0  0  0  0  0  0  0
    8.0167  -17.3922   16.8841 O   0  0  0  0  0  0  0  0  0  0  0  0
    8.3290  -17.0579   23.3790 N   0  0  0  0  0  0  0  0  0  0  0  0
    9.3310  -16.4207   24.2487 C   0  0  1  0  0  0  0  0  0  0  0  0
    8.8056  -16.2822   25.6425 C   0  0  0  0  0  0  0  0  0  0  0  0
    7.6342  -15.4344   25.7954 C   0  0  0  0  0  0  0  0  0  0  0  0
    6.3255  -15.8563   25.8387 C   0  0  0  0  0  0  0  0  0  0  0  0
    5.5240  -14.7673   25.9869 N   0  0  0  0  0  0  0  0  0  0  0  0
    6.2635  -13.6592   26.0411 C   0  0  0  0  0  0  0  0  0  0  0  0
    5.9937  -12.3174   26.1803 C   0  0  0  0  0  0  0  0  0  0  0  0
    6.9697  -11.3423   26.2088 C   0  0  0  0  0  0  0  0  0  0  0  0
    8.2752  -11.7661   26.0894 C   0  0  0  0  0  0  0  0  0  0  0  0
    8.5618  -13.1071   25.9492 C   0  0  0  0  0  0  0  0  0  0  0  0
    7.5746  -14.0660   25.9228 C   0  0  0  0  0  0  0  0  0  0  0  0
   10.5108  -17.3244   24.2791 C   0  0  0  0  0  0  0  0  0  0  0  0
   10.3746  -18.5701   24.4110 O   0  0  0  0  0  0  0  0  0  0  0  0
   13.4198  -17.0106   21.8114 C   0  0  0  0  0  0  0  0  0  0  0  0
   13.9934  -17.1071   23.2049 C   0  0  1  0  0  0  0  0  0  0  0  0
   14.3527  -15.8273   23.6664 O   0  0  0  0  0  0  0  0  0  0  0  0
   12.9669  -17.6842   24.1695 C   0  0  2  0  0  0  0  0  0  0  0  0
   11.8290  -16.7847   24.1573 N   0  0  0  0  0  0  0  0  0  0  0  0
   13.5924  -17.6696   25.5295 C   0  0  0  0  0  0  0  0  0  0  0  0
   14.6248  -18.5114   25.8678 O   0  0  0  0  0  0  0  0  0  0  0  0
   13.1747  -16.8732   26.3959 O   0  0  0  0  0  0  0  0  0  0  0  0
  2  1  1  6
  3  2  1  0
  3  4  1  0
  5  4  1  0
  5  9  1  0
  6  5  2  0
  7  8  2  0
  7  2  1  0
 10  7  1  0
 11 10  1  0
 11 12  1  1
 12 13  1  0
 13 14  2  0
 13 21  1  0
 14 15  1  0
 15 16  1  0
 16 17  2  0
 18 17  1  0
 19 18  2  0
 20 21  2  0
 20 19  1  0
 21 16  1  0
 22 11  1  0
 23 22  2  0
 25 24  1  6
 25 27  1  0
 26 25  1  0
 27 29  1  0
 27 28  1  1
 28 22  1  0
 29 30  1  0
 31 29  2  0
M  END
$$$$
