EWT.pdb
     RDKit          3D

 31 32  0  0  1  0  0  0  0  0999 V2000
    6.3569  -15.2151   20.6804 N   0  0  0  0  0  0  0  0  0  0  0  0
    7.4555  -16.1111   20.8636 C   0  0  1  0  0  0  0  0  0  0  0  0
    8.2968  -16.3782   19.6600 C   0  0  0  0  0  0  0  0  0  0  0  0
    7.6393  -17.0575   18.5226 C   0  0  0  0  0  0  0  0  0  0  0  0
    8.4893  -17.4722   17.3998 C   0  0  0  0  0  0  0  0  0  0  0  0
    8.8182  -16.8178   16.4069 O   0  0  0  0  0  0  0  0  0  0  0  0
    8.3199  -15.6633   22.0201 C   0  0  0  0  0  0  0  0  0  0  0  0
    8.8034  -14.5237   21.9683 O   0  0  0  0  0  0  0  0  0  0  0  0
    8.9965  -18.7913   17.4641 O   0  0  0  0  0  0  0  0  0  0  0  0
    8.5768  -16.5093   23.1305 N   0  0  0  0  0  0  0  0  0  0  0  0
    9.4594  -16.0749   24.2253 C   0  0  1  0  0  0  0  0  0  0  0  0
    8.7372  -16.1250   25.5345 C   0  0  0  0  0  0  0  0  0  0  0  0
    7.5708  -15.2640   25.6466 C   0  0  0  0  0  0  0  0  0  0  0  0
    6.2580  -15.6522   25.5116 C   0  0  0  0  0  0  0  0  0  0  0  0
    5.4639  -14.5609   25.6813 N   0  0  0  0  0  0  0  0  0  0  0  0
    6.2122  -13.4836   25.9206 C   0  0  0  0  0  0  0  0  0  0  0  0
    5.9521  -12.1545   26.1616 C   0  0  0  0  0  0  0  0  0  0  0  0
    6.9360  -11.2136   26.3873 C   0  0  0  0  0  0  0  0  0  0  0  0
    8.2394  -11.6595   26.3638 C   0  0  0  0  0  0  0  0  0  0  0  0
    8.5163  -12.9883   26.1236 C   0  0  0  0  0  0  0  0  0  0  0  0
    7.5214  -13.9130   25.9005 C   0  0  0  0  0  0  0  0  0  0  0  0
   10.5893  -17.0394   24.2750 C   0  0  0  0  0  0  0  0  0  0  0  0
   10.3935  -18.2792   24.1639 O   0  0  0  0  0  0  0  0  0  0  0  0
   13.7519  -16.6860   22.2754 C   0  0  0  0  0  0  0  0  0  0  0  0
   14.1658  -16.9265   23.7076 C   0  0  1  0  0  0  0  0  0  0  0  0
   14.5307  -15.7100   24.3132 O   0  0  0  0  0  0  0  0  0  0  0  0
   13.0155  -17.5235   24.5061 C   0  0  2  0  0  0  0  0  0  0  0  0
   11.9268  -16.5664   24.4511 N   0  0  0  0  0  0  0  0  0  0  0  0
   13.4888  -17.6512   25.9206 C   0  0  0  0  0  0  0  0  0  0  0  0
   14.4961  -18.5149   26.2786 O   0  0  0  0  0  0  0  0  0  0  0  0
   12.9621  -16.9582   26.8159 O   0  0  0  0  0  0  0  0  0  0  0  0
  2  1  1  6
  3  2  1  0
  3  4  1  0
  5  4  1  0
  5  9  1  0
  6  5  2  0
  7  8  2  0
  7  2  1  0
 10  7  1  0
 11 10  1  0
 11 12  1  1
 12 13  1  0
 13 14  2  0
 13 21  1  0
 14 15  1  0
 15 16  1  0
 16 17  2  0
 18 17  1  0
 19 18  2  0
 20 21  2  0
 20 19  1  0
 21 16  1  0
 22 11  1  0
 23 22  2  0
 25 24  1  6
 25 27  1  0
 26 25  1  0
 27 29  1  0
 27 28  1  1
 28 22  1  0
 29 30  1  0
 31 29  2  0
M  END
$$$$
