EWT.pdb
     RDKit          3D

 31 32  0  0  1  0  0  0  0  0999 V2000
   10.3502  -18.8923   21.1405 N   0  0  0  0  0  0  0  0  0  0  0  0
   11.4611  -18.0523   21.4619 C   0  0  1  0  0  0  0  0  0  0  0  0
   12.1308  -17.3753   20.3126 C   0  0  0  0  0  0  0  0  0  0  0  0
   12.0087  -18.0265   18.9903 C   0  0  0  0  0  0  0  0  0  0  0  0
   12.6553  -17.3666   17.8494 C   0  0  0  0  0  0  0  0  0  0  0  0
   13.8610  -17.2119   17.6379 O   0  0  0  0  0  0  0  0  0  0  0  0
   11.0748  -17.0395   22.5157 C   0  0  0  0  0  0  0  0  0  0  0  0
   11.8579  -16.1029   22.7266 O   0  0  0  0  0  0  0  0  0  0  0  0
   11.7846  -16.8405   16.8663 O   0  0  0  0  0  0  0  0  0  0  0  0
    9.8618  -17.1475   23.2448 N   0  0  0  0  0  0  0  0  0  0  0  0
    9.4170  -16.0666   24.1393 C   0  0  1  0  0  0  0  0  0  0  0  0
    7.9234  -15.9880   24.1670 C   0  0  0  0  0  0  0  0  0  0  0  0
    7.2812  -15.7070   22.8931 C   0  0  0  0  0  0  0  0  0  0  0  0
    6.3444  -16.4938   22.2640 C   0  0  0  0  0  0  0  0  0  0  0  0
    5.9894  -15.8944   21.0957 N   0  0  0  0  0  0  0  0  0  0  0  0
    6.6598  -14.7518   20.9457 C   0  0  0  0  0  0  0  0  0  0  0  0
    6.6977  -13.7667   19.9862 C   0  0  0  0  0  0  0  0  0  0  0  0
    7.5027  -12.6492   20.0720 C   0  0  0  0  0  0  0  0  0  0  0  0
    8.3001  -12.5420   21.1904 C   0  0  0  0  0  0  0  0  0  0  0  0
    8.2735  -13.5208   22.1608 C   0  0  0  0  0  0  0  0  0  0  0  0
    7.4637  -14.6291   22.0581 C   0  0  0  0  0  0  0  0  0  0  0  0
    9.8945  -16.4137   25.5035 C   0  0  0  0  0  0  0  0  0  0  0  0
   10.3778  -17.5497   25.7556 O   0  0  0  0  0  0  0  0  0  0  0  0
   10.9069  -13.3480   28.1978 C   0  0  0  0  0  0  0  0  0  0  0  0
   10.1657  -14.5478   28.7376 C   0  0  1  0  0  0  0  0  0  0  0  0
    8.7839  -14.2842   28.7704 O   0  0  0  0  0  0  0  0  0  0  0  0
   10.3920  -15.7631   27.8494 C   0  0  2  0  0  0  0  0  0  0  0  0
    9.8104  -15.4516   26.5575 N   0  0  0  0  0  0  0  0  0  0  0  0
    9.6390  -16.8995   28.4680 C   0  0  0  0  0  0  0  0  0  0  0  0
    9.9663  -17.4066   29.7028 O   0  0  0  0  0  0  0  0  0  0  0  0
    8.6801  -17.4146   27.8559 O   0  0  0  0  0  0  0  0  0  0  0  0
  2  1  1  6
  3  2  1  0
  3  4  1  0
  5  4  1  0
  5  9  1  0
  6  5  2  0
  7  8  2  0
  7  2  1  0
 10  7  1  0
 11 10  1  0
 11 12  1  1
 12 13  1  0
 13 14  2  0
 13 21  1  0
 14 15  1  0
 15 16  1  0
 16 17  2  0
 18 17  1  0
 19 18  2  0
 20 21  2  0
 20 19  1  0
 21 16  1  0
 22 11  1  0
 23 22  2  0
 25 24  1  6
 25 27  1  0
 26 25  1  0
 27 29  1  0
 27 28  1  6
 28 22  1  0
 29 30  1  0
 31 29  2  0
M  END
$$$$
