TIW.pdb
     RDKit          3D

 30 31  0  0  1  0  0  0  0  0999 V2000
   28.5023  -18.4175  -15.0851 C   0  0  0  0  0  0  0  0  0  0  0  0
   27.3925  -19.1005  -14.3131 C   0  0  1  0  0  0  0  0  0  0  0  0
   26.3842  -19.4274  -15.2188 O   0  0  0  0  0  0  0  0  0  0  0  0
   27.9938  -20.3373  -13.6811 C   0  0  2  0  0  0  0  0  0  0  0  0
   28.4463  -21.1943  -14.7247 N   0  0  0  0  0  0  0  0  0  0  0  0
   27.0138  -21.0330  -12.7916 C   0  0  0  0  0  0  0  0  0  0  0  0
   26.4515  -22.0767  -13.2323 O   0  0  0  0  0  0  0  0  0  0  0  0
   27.7834  -20.3032   -7.5008 C   0  0  0  0  0  0  0  0  0  0  0  0
   27.2747  -20.9310   -8.7860 C   0  0  0  0  0  0  0  0  0  0  0  0
   25.9182  -20.3475   -9.2076 C   0  0  2  0  0  0  0  0  0  0  0  0
   24.8414  -20.8251   -8.2648 C   0  0  0  0  0  0  0  0  0  0  0  0
   25.6655  -20.8218  -10.6220 C   0  0  2  0  0  0  0  0  0  0  0  0
   26.7600  -20.5074  -11.5205 N   0  0  0  0  0  0  0  0  0  0  0  0
   24.4201  -20.4090  -11.2426 C   0  0  0  0  0  0  0  0  0  0  0  0
   24.3481  -19.2135  -11.7347 O   0  0  0  0  0  0  0  0  0  0  0  0
   23.2204  -21.1437  -11.4037 N   0  0  0  0  0  0  0  0  0  0  0  0
   22.1502  -20.7239  -12.2850 C   0  0  1  0  0  0  0  0  0  0  0  0
   22.7102  -20.4917  -13.6641 C   0  0  0  0  0  0  0  0  0  0  0  0
   21.7067  -20.0340  -14.6118 C   0  0  0  0  0  0  0  0  0  0  0  0
   21.0288  -18.8274  -14.4710 C   0  0  0  0  0  0  0  0  0  0  0  0
   20.1747  -18.7390  -15.4854 N   0  0  0  0  0  0  0  0  0  0  0  0
   20.2659  -19.8271  -16.2760 C   0  0  0  0  0  0  0  0  0  0  0  0
   19.5830  -20.1522  -17.4362 C   0  0  0  0  0  0  0  0  0  0  0  0
   19.8419  -21.3175  -18.0995 C   0  0  0  0  0  0  0  0  0  0  0  0
   20.8106  -22.1451  -17.5573 C   0  0  0  0  0  0  0  0  0  0  0  0
   21.4924  -21.8292  -16.4056 C   0  0  0  0  0  0  0  0  0  0  0  0
   21.2276  -20.6516  -15.7377 C   0  0  0  0  0  0  0  0  0  0  0  0
   21.0133  -21.6655  -12.3149 C   0  0  0  0  0  0  0  0  0  0  0  0
   19.6874  -21.2988  -12.3729 O   0  0  0  0  0  0  0  0  0  0  0  0
   21.2917  -22.8902  -12.2847 O   0  0  0  0  0  0  0  0  0  0  0  0
  2  1  1  6
  3  2  1  0
  4  2  1  0
  4  5  1  6
  6  7  2  0
  6  4  1  0
  9  8  1  0
 10  9  1  0
 10 12  1  0
 10 11  1  1
 12 13  1  6
 13  6  1  0
 14 12  1  0
 14 16  1  0
 15 14  2  0
 17 16  1  0
 17 28  1  0
 17 18  1  6
 18 19  1  0
 19 20  2  0
 19 27  1  0
 20 21  1  0
 21 22  1  0
 22 23  2  0
 23 24  1  0
 25 24  2  0
 26 25  1  0
 27 26  2  0
 27 22  1  0
 28 29  1  0
 30 28  2  0
M  END
$$$$
