TIW.pdb
     RDKit          3D

 30 31  0  0  1  0  0  0  0  0999 V2000
   36.8653   -8.0946   -5.4195 C   0  0  0  0  0  0  0  0  0  0  0  0
   36.1300   -9.1702   -6.1918 C   0  0  1  0  0  0  0  0  0  0  0  0
   35.6634   -8.5994   -7.3752 O   0  0  0  0  0  0  0  0  0  0  0  0
   37.1276  -10.2754   -6.4639 C   0  0  2  0  0  0  0  0  0  0  0  0
   38.1602   -9.7481   -7.2909 N   0  0  0  0  0  0  0  0  0  0  0  0
   36.4752  -11.4623   -7.0974 C   0  0  0  0  0  0  0  0  0  0  0  0
   36.5606  -11.5846   -8.3534 O   0  0  0  0  0  0  0  0  0  0  0  0
   38.6710  -15.1016   -7.7659 C   0  0  0  0  0  0  0  0  0  0  0  0
   37.2808  -14.5031   -7.8832 C   0  0  0  0  0  0  0  0  0  0  0  0
   36.4498  -14.7382   -6.6132 C   0  0  2  0  0  0  0  0  0  0  0  0
   35.9019  -16.1440   -6.6142 C   0  0  0  0  0  0  0  0  0  0  0  0
   35.3388  -13.7113   -6.6285 C   0  0  2  0  0  0  0  0  0  0  0  0
   35.8031  -12.3808   -6.2845 N   0  0  0  0  0  0  0  0  0  0  0  0
   34.1554  -14.0094   -5.8426 C   0  0  0  0  0  0  0  0  0  0  0  0
   34.2825  -14.1078   -4.5578 O   0  0  0  0  0  0  0  0  0  0  0  0
   32.8250  -14.2147   -6.2814 N   0  0  0  0  0  0  0  0  0  0  0  0
   31.9544  -15.2250   -5.7158 C   0  0  1  0  0  0  0  0  0  0  0  0
   32.2066  -16.5376   -6.4107 C   0  0  0  0  0  0  0  0  0  0  0  0
   31.1557  -17.5141   -6.1724 C   0  0  0  0  0  0  0  0  0  0  0  0
   29.9764  -17.5503   -6.9094 C   0  0  0  0  0  0  0  0  0  0  0  0
   29.2367  -18.5372   -6.4140 N   0  0  0  0  0  0  0  0  0  0  0  0
   29.8780  -19.1419   -5.3939 C   0  0  0  0  0  0  0  0  0  0  0  0
   29.4938  -20.2105   -4.6010 C   0  0  0  0  0  0  0  0  0  0  0  0
   30.3125  -20.6826   -3.6152 C   0  0  0  0  0  0  0  0  0  0  0  0
   31.5306  -20.0443   -3.4533 C   0  0  0  0  0  0  0  0  0  0  0  0
   31.9186  -18.9825   -4.2364 C   0  0  0  0  0  0  0  0  0  0  0  0
   31.0886  -18.5078   -5.2308 C   0  0  0  0  0  0  0  0  0  0  0  0
   32.0838  -15.3555   -4.2508 C   0  0  0  0  0  0  0  0  0  0  0  0
   31.0453  -15.6279   -3.3889 O   0  0  0  0  0  0  0  0  0  0  0  0
   33.2339  -15.2041   -3.7684 O   0  0  0  0  0  0  0  0  0  0  0  0
  2  1  1  1
  3  2  1  0
  4  2  1  0
  4  5  1  6
  6  7  2  0
  6  4  1  0
  9  8  1  0
 10  9  1  0
 10 12  1  0
 10 11  1  6
 12 13  1  1
 13  6  1  0
 14 12  1  0
 14 16  1  0
 15 14  2  0
 17 16  1  0
 17 28  1  0
 17 18  1  6
 18 19  1  0
 19 20  2  0
 19 27  1  0
 20 21  1  0
 21 22  1  0
 22 23  2  0
 23 24  1  0
 25 24  2  0
 26 25  1  0
 27 26  2  0
 27 22  1  0
 28 29  1  0
 30 28  2  0
M  END
$$$$
