TIW.pdb
     RDKit          3D

 30 31  0  0  1  0  0  0  0  0999 V2000
   24.7539  -14.2612  -14.3371 C   0  0  0  0  0  0  0  0  0  0  0  0
   24.8011  -15.6791  -13.8065 C   0  0  1  0  0  0  0  0  0  0  0  0
   23.4898  -16.0845  -13.5612 O   0  0  0  0  0  0  0  0  0  0  0  0
   25.4537  -16.5272  -14.8768 C   0  0  2  0  0  0  0  0  0  0  0  0
   24.7201  -16.3586  -16.0859 N   0  0  0  0  0  0  0  0  0  0  0  0
   25.5187  -17.9661  -14.4755 C   0  0  0  0  0  0  0  0  0  0  0  0
   24.4661  -18.6591  -14.5838 O   0  0  0  0  0  0  0  0  0  0  0  0
   29.1813  -20.9189  -16.5481 C   0  0  0  0  0  0  0  0  0  0  0  0
   27.9896  -20.4046  -15.7608 C   0  0  0  0  0  0  0  0  0  0  0  0
   28.2647  -20.3971  -14.2499 C   0  0  2  0  0  0  0  0  0  0  0  0
   28.5625  -21.7989  -13.7779 C   0  0  0  0  0  0  0  0  0  0  0  0
   27.0221  -19.8427  -13.5881 C   0  0  2  0  0  0  0  0  0  0  0  0
   26.7284  -18.4836  -14.0010 N   0  0  0  0  0  0  0  0  0  0  0  0
   26.9600  -19.9133  -12.1396 C   0  0  0  0  0  0  0  0  0  0  0  0
   27.4584  -18.9324  -11.4570 O   0  0  0  0  0  0  0  0  0  0  0  0
   26.4121  -20.9308  -11.3215 N   0  0  0  0  0  0  0  0  0  0  0  0
   26.4882  -20.9071   -9.8751 C   0  0  1  0  0  0  0  0  0  0  0  0
   25.9455  -19.5939   -9.3747 C   0  0  0  0  0  0  0  0  0  0  0  0
   26.7328  -19.0347   -8.2874 C   0  0  0  0  0  0  0  0  0  0  0  0
   27.2872  -17.7597   -8.3338 C   0  0  0  0  0  0  0  0  0  0  0  0
   27.9581  -17.5844   -7.2000 N   0  0  0  0  0  0  0  0  0  0  0  0
   27.8654  -18.6814   -6.4218 C   0  0  0  0  0  0  0  0  0  0  0  0
   28.3910  -18.9369   -5.1662 C   0  0  0  0  0  0  0  0  0  0  0  0
   28.1621  -20.1282   -4.5390 C   0  0  0  0  0  0  0  0  0  0  0  0
   27.3867  -21.0540   -5.2165 C   0  0  0  0  0  0  0  0  0  0  0  0
   26.8618  -20.8075   -6.4634 C   0  0  0  0  0  0  0  0  0  0  0  0
   27.0959  -19.6033   -7.0943 C   0  0  0  0  0  0  0  0  0  0  0  0
   25.8100  -22.0515   -9.2345 C   0  0  0  0  0  0  0  0  0  0  0  0
   26.1730  -22.6089   -8.0290 O   0  0  0  0  0  0  0  0  0  0  0  0
   24.8295  -22.5435   -9.8468 O   0  0  0  0  0  0  0  0  0  0  0  0
  2  1  1  6
  3  2  1  0
  4  2  1  0
  4  5  1  6
  6  7  2  0
  6  4  1  0
  9  8  1  0
 10  9  1  0
 10 12  1  0
 10 11  1  1
 12 13  1  1
 13  6  1  0
 14 12  1  0
 14 16  1  0
 15 14  2  0
 17 16  1  0
 17 28  1  0
 17 18  1  1
 18 19  1  0
 19 20  2  0
 19 27  1  0
 20 21  1  0
 21 22  1  0
 22 23  2  0
 23 24  1  0
 25 24  2  0
 26 25  1  0
 27 26  2  0
 27 22  1  0
 28 29  1  0
 30 28  2  0
M  END
$$$$
