TIW.pdb
     RDKit          3D

 30 31  0  0  1  0  0  0  0  0999 V2000
   30.2603  -23.4045  -20.3386 C   0  0  0  0  0  0  0  0  0  0  0  0
   28.9867  -23.2053  -19.5433 C   0  0  1  0  0  0  0  0  0  0  0  0
   28.8277  -21.8363  -19.3322 O   0  0  0  0  0  0  0  0  0  0  0  0
   27.8566  -23.7742  -20.3739 C   0  0  2  0  0  0  0  0  0  0  0  0
   26.6260  -23.4284  -19.7460 N   0  0  0  0  0  0  0  0  0  0  0  0
   27.9863  -25.2545  -20.5397 C   0  0  0  0  0  0  0  0  0  0  0  0
   27.5614  -25.9943  -19.6059 O   0  0  0  0  0  0  0  0  0  0  0  0
   27.5761  -27.2238  -25.6380 C   0  0  0  0  0  0  0  0  0  0  0  0
   27.5637  -27.2074  -24.1201 C   0  0  0  0  0  0  0  0  0  0  0  0
   28.9759  -27.3622  -23.5366 C   0  0  2  0  0  0  0  0  0  0  0  0
   29.5085  -28.7394  -23.8465 C   0  0  0  0  0  0  0  0  0  0  0  0
   28.8531  -27.1391  -22.0452 C   0  0  2  0  0  0  0  0  0  0  0  0
   28.5665  -25.7575  -21.7087 N   0  0  0  0  0  0  0  0  0  0  0  0
   29.9519  -27.6018  -21.2173 C   0  0  0  0  0  0  0  0  0  0  0  0
   31.1027  -27.0227  -21.3475 O   0  0  0  0  0  0  0  0  0  0  0  0
   29.9604  -28.6306  -20.2444 N   0  0  0  0  0  0  0  0  0  0  0  0
   31.1280  -28.9575  -19.4517 C   0  0  1  0  0  0  0  0  0  0  0  0
   30.8627  -28.5983  -18.0129 C   0  0  0  0  0  0  0  0  0  0  0  0
   29.9143  -29.4954  -17.3722 C   0  0  0  0  0  0  0  0  0  0  0  0
   30.2079  -30.8240  -17.0826 C   0  0  0  0  0  0  0  0  0  0  0  0
   29.1201  -31.3529  -16.5317 N   0  0  0  0  0  0  0  0  0  0  0  0
   28.1375  -30.4335  -16.4496 C   0  0  0  0  0  0  0  0  0  0  0  0
   26.8530  -30.5370  -15.9422 C   0  0  0  0  0  0  0  0  0  0  0  0
   26.0097  -29.4629  -15.9432 C   0  0  0  0  0  0  0  0  0  0  0  0
   26.5013  -28.2810  -16.4713 C   0  0  0  0  0  0  0  0  0  0  0  0
   27.7753  -28.1708  -16.9771 C   0  0  0  0  0  0  0  0  0  0  0  0
   28.6241  -29.2583  -16.9752 C   0  0  0  0  0  0  0  0  0  0  0  0
   31.5525  -30.3650  -19.5879 C   0  0  0  0  0  0  0  0  0  0  0  0
   32.7194  -30.8892  -19.0786 O   0  0  0  0  0  0  0  0  0  0  0  0
   30.7811  -31.1304  -20.2183 O   0  0  0  0  0  0  0  0  0  0  0  0
  2  1  1  6
  3  2  1  0
  4  2  1  0
  4  5  1  1
  6  7  2  0
  6  4  1  0
  9  8  1  0
 10  9  1  0
 10 12  1  0
 10 11  1  1
 12 13  1  6
 13  6  1  0
 14 12  1  0
 14 16  1  0
 15 14  2  0
 17 16  1  0
 17 28  1  0
 17 18  1  1
 18 19  1  0
 19 20  2  0
 19 27  1  0
 20 21  1  0
 21 22  1  0
 22 23  2  0
 23 24  1  0
 25 24  2  0
 26 25  1  0
 27 26  2  0
 27 22  1  0
 28 29  1  0
 30 28  2  0
M  END
$$$$
