TIW.pdb
     RDKit          3D

 30 31  0  0  1  0  0  0  0  0999 V2000
   22.1782  -16.8410  -13.8608 C   0  0  0  0  0  0  0  0  0  0  0  0
   22.9124  -18.0381  -13.2933 C   0  0  1  0  0  0  0  0  0  0  0  0
   21.9592  -18.9927  -12.9406 O   0  0  0  0  0  0  0  0  0  0  0  0
   23.8312  -18.5470  -14.3831 C   0  0  2  0  0  0  0  0  0  0  0  0
   23.0337  -18.8913  -15.5117 N   0  0  0  0  0  0  0  0  0  0  0  0
   24.6464  -19.7105  -13.9170 C   0  0  0  0  0  0  0  0  0  0  0  0
   24.0933  -20.8476  -13.8890 O   0  0  0  0  0  0  0  0  0  0  0  0
   29.4929  -20.3373  -15.7353 C   0  0  0  0  0  0  0  0  0  0  0  0
   28.1665  -20.5375  -15.0246 C   0  0  0  0  0  0  0  0  0  0  0  0
   28.2956  -20.3323  -13.5080 C   0  0  2  0  0  0  0  0  0  0  0  0
   29.2137  -21.3793  -12.9272 C   0  0  0  0  0  0  0  0  0  0  0  0
   26.8987  -20.4433  -12.9374 C   0  0  2  0  0  0  0  0  0  0  0  0
   25.9747  -19.4977  -13.5343 N   0  0  0  0  0  0  0  0  0  0  0  0
   26.7695  -20.3726  -11.4934 C   0  0  0  0  0  0  0  0  0  0  0  0
   27.5779  -19.5973  -10.8436 O   0  0  0  0  0  0  0  0  0  0  0  0
   25.8548  -21.0464  -10.6484 N   0  0  0  0  0  0  0  0  0  0  0  0
   25.8338  -20.8729   -9.2103 C   0  0  1  0  0  0  0  0  0  0  0  0
   25.7550  -19.4024   -8.8927 C   0  0  0  0  0  0  0  0  0  0  0  0
   26.7457  -18.9817   -7.9149 C   0  0  0  0  0  0  0  0  0  0  0  0
   27.3552  -17.7315   -7.9463 C   0  0  0  0  0  0  0  0  0  0  0  0
   28.2176  -17.6924   -6.9359 N   0  0  0  0  0  0  0  0  0  0  0  0
   28.1968  -18.8538   -6.2517 C   0  0  0  0  0  0  0  0  0  0  0  0
   28.9129  -19.2488   -5.1340 C   0  0  0  0  0  0  0  0  0  0  0  0
   28.7271  -20.4842   -4.5824 C   0  0  0  0  0  0  0  0  0  0  0  0
   27.7970  -21.3091   -5.1921 C   0  0  0  0  0  0  0  0  0  0  0  0
   27.0826  -20.9239   -6.3023 C   0  0  0  0  0  0  0  0  0  0  0  0
   27.2736  -19.6755   -6.8573 C   0  0  0  0  0  0  0  0  0  0  0  0
   24.7533  -21.6282   -8.5454 C   0  0  0  0  0  0  0  0  0  0  0  0
   24.6679  -21.8535   -7.1898 O   0  0  0  0  0  0  0  0  0  0  0  0
   23.8508  -22.0943   -9.2846 O   0  0  0  0  0  0  0  0  0  0  0  0
  2  1  1  6
  3  2  1  0
  4  2  1  0
  4  5  1  6
  6  7  2  0
  6  4  1  0
  9  8  1  0
 10  9  1  0
 10 12  1  0
 10 11  1  1
 12 13  1  6
 13  6  1  0
 14 12  1  0
 14 16  1  0
 15 14  2  0
 17 16  1  0
 17 28  1  0
 17 18  1  6
 18 19  1  0
 19 20  2  0
 19 27  1  0
 20 21  1  0
 21 22  1  0
 22 23  2  0
 23 24  1  0
 25 24  2  0
 26 25  1  0
 27 26  2  0
 27 22  1  0
 28 29  1  0
 30 28  2  0
M  END
$$$$
