TIW.pdb
     RDKit          3D

 30 31  0  0  1  0  0  0  0  0999 V2000
   28.0170  -23.1088  -16.2078 C   0  0  0  0  0  0  0  0  0  0  0  0
   28.3166  -21.8427  -15.4324 C   0  0  1  0  0  0  0  0  0  0  0  0
   29.3610  -21.1848  -16.0807 O   0  0  0  0  0  0  0  0  0  0  0  0
   27.0499  -21.0143  -15.4378 C   0  0  2  0  0  0  0  0  0  0  0  0
   27.3779  -19.6983  -15.0029 N   0  0  0  0  0  0  0  0  0  0  0  0
   25.9898  -21.6238  -14.5773 C   0  0  0  0  0  0  0  0  0  0  0  0
   25.5964  -22.7919  -14.8608 O   0  0  0  0  0  0  0  0  0  0  0  0
   26.4183  -20.8273   -9.3476 C   0  0  0  0  0  0  0  0  0  0  0  0
   25.9964  -21.3629  -10.7040 C   0  0  0  0  0  0  0  0  0  0  0  0
   24.6750  -20.7394  -11.1773 C   0  0  2  0  0  0  0  0  0  0  0  0
   23.5602  -21.1316  -10.2394 C   0  0  0  0  0  0  0  0  0  0  0  0
   24.4295  -21.2597  -12.5767 C   0  0  2  0  0  0  0  0  0  0  0  0
   25.4803  -20.8857  -13.5041 N   0  0  0  0  0  0  0  0  0  0  0  0
   23.1454  -20.9507  -13.1785 C   0  0  0  0  0  0  0  0  0  0  0  0
   22.7266  -19.7263  -13.1330 O   0  0  0  0  0  0  0  0  0  0  0  0
   22.2415  -21.8173  -13.8396 N   0  0  0  0  0  0  0  0  0  0  0  0
   20.9577  -21.3797  -14.3483 C   0  0  1  0  0  0  0  0  0  0  0  0
   20.6608  -22.1115  -15.6312 C   0  0  0  0  0  0  0  0  0  0  0  0
   19.3803  -21.7389  -16.2109 C   0  0  0  0  0  0  0  0  0  0  0  0
   19.1116  -20.4616  -16.6923 C   0  0  0  0  0  0  0  0  0  0  0  0
   17.8532  -20.4626  -17.1201 N   0  0  0  0  0  0  0  0  0  0  0  0
   17.2941  -21.6761  -16.9404 C   0  0  0  0  0  0  0  0  0  0  0  0
   16.0222  -22.1313  -17.2459 C   0  0  0  0  0  0  0  0  0  0  0  0
   15.6588  -23.4224  -16.9892 C   0  0  0  0  0  0  0  0  0  0  0  0
   16.6171  -24.2407  -16.4152 C   0  0  0  0  0  0  0  0  0  0  0  0
   17.8817  -23.7956  -16.1087 C   0  0  0  0  0  0  0  0  0  0  0  0
   18.2450  -22.4904  -16.3686 C   0  0  0  0  0  0  0  0  0  0  0  0
   19.8593  -21.5309  -13.3732 C   0  0  0  0  0  0  0  0  0  0  0  0
   18.7717  -20.6924  -13.2747 O   0  0  0  0  0  0  0  0  0  0  0  0
   19.9362  -22.5022  -12.5802 O   0  0  0  0  0  0  0  0  0  0  0  0
  2  1  1  6
  3  2  1  0
  4  2  1  0
  4  5  1  1
  6  7  2  0
  6  4  1  0
  9  8  1  0
 10  9  1  0
 10 12  1  0
 10 11  1  1
 12 13  1  6
 13  6  1  0
 14 12  1  0
 14 16  1  0
 15 14  2  0
 17 16  1  0
 17 28  1  0
 17 18  1  6
 18 19  1  0
 19 20  2  0
 19 27  1  0
 20 21  1  0
 21 22  1  0
 22 23  2  0
 23 24  1  0
 25 24  2  0
 26 25  1  0
 27 26  2  0
 27 22  1  0
 28 29  1  0
 30 28  2  0
M  END
$$$$
