TIW.pdb
     RDKit          3D

 30 31  0  0  1  0  0  0  0  0999 V2000
   33.0892  -27.2795  -18.6887 C   0  0  0  0  0  0  0  0  0  0  0  0
   31.6047  -27.5232  -18.8643 C   0  0  1  0  0  0  0  0  0  0  0  0
   31.2199  -26.9469  -20.0741 O   0  0  0  0  0  0  0  0  0  0  0  0
   31.4041  -29.0233  -18.8749 C   0  0  2  0  0  0  0  0  0  0  0  0
   32.0305  -29.5470  -20.0418 N   0  0  0  0  0  0  0  0  0  0  0  0
   29.9541  -29.3852  -18.8263 C   0  0  0  0  0  0  0  0  0  0  0  0
   29.3717  -29.6446  -19.9187 O   0  0  0  0  0  0  0  0  0  0  0  0
   28.1929  -33.2164  -16.0020 C   0  0  0  0  0  0  0  0  0  0  0  0
   28.1839  -32.0524  -16.9765 C   0  0  0  0  0  0  0  0  0  0  0  0
   27.6691  -30.7630  -16.3198 C   0  0  2  0  0  0  0  0  0  0  0  0
   26.2055  -30.9099  -15.9840 C   0  0  0  0  0  0  0  0  0  0  0  0
   27.8987  -29.6493  -17.3180 C   0  0  2  0  0  0  0  0  0  0  0  0
   29.3057  -29.4220  -17.5875 N   0  0  0  0  0  0  0  0  0  0  0  0
   27.2659  -28.3733  -17.0383 C   0  0  0  0  0  0  0  0  0  0  0  0
   27.8920  -27.5331  -16.2776 O   0  0  0  0  0  0  0  0  0  0  0  0
   26.0175  -27.8817  -17.4906 N   0  0  0  0  0  0  0  0  0  0  0  0
   25.5198  -26.5634  -17.1546 C   0  0  1  0  0  0  0  0  0  0  0  0
   26.5575  -25.5360  -17.5249 C   0  0  0  0  0  0  0  0  0  0  0  0
   26.1099  -24.1719  -17.2929 C   0  0  0  0  0  0  0  0  0  0  0  0
   26.2122  -23.5428  -16.0564 C   0  0  0  0  0  0  0  0  0  0  0  0
   25.6888  -22.3287  -16.1917 N   0  0  0  0  0  0  0  0  0  0  0  0
   25.2534  -22.1400  -17.4536 C   0  0  0  0  0  0  0  0  0  0  0  0
   24.6570  -21.0364  -18.0406 C   0  0  0  0  0  0  0  0  0  0  0  0
   24.2998  -21.0501  -19.3586 C   0  0  0  0  0  0  0  0  0  0  0  0
   24.5624  -22.2107  -20.0668 C   0  0  0  0  0  0  0  0  0  0  0  0
   25.1538  -23.3104  -19.4907 C   0  0  0  0  0  0  0  0  0  0  0  0
   25.5125  -23.2932  -18.1587 C   0  0  0  0  0  0  0  0  0  0  0  0
   24.2127  -26.2571  -17.7692 C   0  0  0  0  0  0  0  0  0  0  0  0
   23.2036  -25.5442  -17.1615 O   0  0  0  0  0  0  0  0  0  0  0  0
   24.0208  -26.6855  -18.9345 O   0  0  0  0  0  0  0  0  0  0  0  0
  2  1  1  6
  3  2  1  0
  4  2  1  0
  4  5  1  6
  6  7  2  0
  6  4  1  0
  9  8  1  0
 10  9  1  0
 10 12  1  0
 10 11  1  6
 12 13  1  1
 13  6  1  0
 14 12  1  0
 14 16  1  0
 15 14  2  0
 17 16  1  0
 17 28  1  0
 17 18  1  6
 18 19  1  0
 19 20  2  0
 19 27  1  0
 20 21  1  0
 21 22  1  0
 22 23  2  0
 23 24  1  0
 25 24  2  0
 26 25  1  0
 27 26  2  0
 27 22  1  0
 28 29  1  0
 30 28  2  0
M  END
$$$$
