TIW.pdb
     RDKit          3D

 30 31  0  0  1  0  0  0  0  0999 V2000
   26.8833  -18.6655  -15.8764 C   0  0  0  0  0  0  0  0  0  0  0  0
   27.5204  -19.7844  -16.6742 C   0  0  1  0  0  0  0  0  0  0  0  0
   28.3510  -19.2035  -17.6316 O   0  0  0  0  0  0  0  0  0  0  0  0
   28.3072  -20.6289  -15.6951 C   0  0  2  0  0  0  0  0  0  0  0  0
   28.9801  -21.6479  -16.4281 N   0  0  0  0  0  0  0  0  0  0  0  0
   27.4251  -21.2111  -14.6374 C   0  0  0  0  0  0  0  0  0  0  0  0
   26.6857  -22.1871  -14.9544 O   0  0  0  0  0  0  0  0  0  0  0  0
   29.5745  -21.1877   -9.8374 C   0  0  0  0  0  0  0  0  0  0  0  0
   28.6136  -21.5883  -10.9423 C   0  0  0  0  0  0  0  0  0  0  0  0
   27.3146  -20.7706  -10.8925 C   0  0  2  0  0  0  0  0  0  0  0  0
   26.4643  -21.2324   -9.7349 C   0  0  0  0  0  0  0  0  0  0  0  0
   26.6149  -20.9915  -12.2157 C   0  0  2  0  0  0  0  0  0  0  0  0
   27.4522  -20.6591  -13.3526 N   0  0  0  0  0  0  0  0  0  0  0  0
   25.3202  -20.3590  -12.3899 C   0  0  0  0  0  0  0  0  0  0  0  0
   25.2895  -19.1226  -12.7735 O   0  0  0  0  0  0  0  0  0  0  0  0
   24.0292  -20.9088  -12.2007 N   0  0  0  0  0  0  0  0  0  0  0  0
   22.8407  -20.3657  -12.8261 C   0  0  1  0  0  0  0  0  0  0  0  0
   23.0491  -20.3125  -14.3171 C   0  0  0  0  0  0  0  0  0  0  0  0
   21.9017  -19.7729  -15.0291 C   0  0  0  0  0  0  0  0  0  0  0  0
   21.4950  -18.4476  -14.9130 C   0  0  0  0  0  0  0  0  0  0  0  0
   20.4105  -18.3047  -15.6678 N   0  0  0  0  0  0  0  0  0  0  0  0
   20.0950  -19.4704  -16.2670 C   0  0  0  0  0  0  0  0  0  0  0  0
   19.0640  -19.7802  -17.1383 C   0  0  0  0  0  0  0  0  0  0  0  0
   18.9311  -21.0402  -17.6480 C   0  0  0  0  0  0  0  0  0  0  0  0
   19.8697  -21.9783  -17.2524 C   0  0  0  0  0  0  0  0  0  0  0  0
   20.8957  -21.6780  -16.3874 C   0  0  0  0  0  0  0  0  0  0  0  0
   21.0263  -20.4043  -15.8739 C   0  0  0  0  0  0  0  0  0  0  0  0
   21.6084  -21.1011  -12.4785 C   0  0  0  0  0  0  0  0  0  0  0  0
   20.3789  -20.5208  -12.2612 O   0  0  0  0  0  0  0  0  0  0  0  0
   21.7040  -22.3496  -12.3768 O   0  0  0  0  0  0  0  0  0  0  0  0
  2  1  1  1
  3  2  1  0
  4  2  1  0
  4  5  1  6
  6  7  2  0
  6  4  1  0
  9  8  1  0
 10  9  1  0
 10 12  1  0
 10 11  1  1
 12 13  1  6
 13  6  1  0
 14 12  1  0
 14 16  1  0
 15 14  2  0
 17 16  1  0
 17 28  1  0
 17 18  1  6
 18 19  1  0
 19 20  2  0
 19 27  1  0
 20 21  1  0
 21 22  1  0
 22 23  2  0
 23 24  1  0
 25 24  2  0
 26 25  1  0
 27 26  2  0
 27 22  1  0
 28 29  1  0
 30 28  2  0
M  END
$$$$
