TIW.pdb
     RDKit          3D

 30 31  0  0  1  0  0  0  0  0999 V2000
   26.8134  -26.0753  -17.3934 C   0  0  0  0  0  0  0  0  0  0  0  0
   28.0563  -26.6252  -16.7249 C   0  0  1  0  0  0  0  0  0  0  0  0
   28.1425  -27.9810  -17.0383 O   0  0  0  0  0  0  0  0  0  0  0  0
   29.2325  -25.8510  -17.2799 C   0  0  2  0  0  0  0  0  0  0  0  0
   30.4294  -26.4844  -16.8386 N   0  0  0  0  0  0  0  0  0  0  0  0
   29.1915  -24.4150  -16.8652 C   0  0  0  0  0  0  0  0  0  0  0  0
   29.8277  -24.0811  -15.8243 O   0  0  0  0  0  0  0  0  0  0  0  0
   30.1844  -20.8418  -20.5276 C   0  0  0  0  0  0  0  0  0  0  0  0
   29.9151  -21.5184  -19.1955 C   0  0  0  0  0  0  0  0  0  0  0  0
   28.4714  -21.2928  -18.7230 C   0  0  2  0  0  0  0  0  0  0  0  0
   28.2302  -19.8198  -18.5028 C   0  0  0  0  0  0  0  0  0  0  0  0
   28.3100  -22.0778  -17.4396 C   0  0  2  0  0  0  0  0  0  0  0  0
   28.4588  -23.5072  -17.6367 N   0  0  0  0  0  0  0  0  0  0  0  0
   27.1050  -21.8370  -16.6672 C   0  0  0  0  0  0  0  0  0  0  0  0
   26.2392  -22.7948  -16.5687 O   0  0  0  0  0  0  0  0  0  0  0  0
   26.7136  -20.6676  -15.9714 N   0  0  0  0  0  0  0  0  0  0  0  0
   25.6303  -20.6467  -15.0099 C   0  0  1  0  0  0  0  0  0  0  0  0
   25.9311  -21.6284  -13.9076 C   0  0  0  0  0  0  0  0  0  0  0  0
   24.9286  -21.6198  -12.8541 C   0  0  0  0  0  0  0  0  0  0  0  0
   23.6257  -22.0678  -13.0469 C   0  0  0  0  0  0  0  0  0  0  0  0
   22.9792  -21.8932  -11.8989 N   0  0  0  0  0  0  0  0  0  0  0  0
   23.7979  -21.3554  -10.9726 C   0  0  0  0  0  0  0  0  0  0  0  0
   23.5572  -21.0171   -9.6514 C   0  0  0  0  0  0  0  0  0  0  0  0
   24.5457  -20.4887   -8.8713 C   0  0  0  0  0  0  0  0  0  0  0  0
   25.7846  -20.3121   -9.4640 C   0  0  0  0  0  0  0  0  0  0  0  0
   26.0309  -20.6453  -10.7753 C   0  0  0  0  0  0  0  0  0  0  0  0
   25.0297  -21.1780  -11.5606 C   0  0  0  0  0  0  0  0  0  0  0  0
   25.3503  -19.3001  -14.4728 C   0  0  0  0  0  0  0  0  0  0  0  0
   24.1085  -18.8480  -14.0865 O   0  0  0  0  0  0  0  0  0  0  0  0
   26.3283  -18.5189  -14.3658 O   0  0  0  0  0  0  0  0  0  0  0  0
  2  1  1  6
  3  2  1  0
  4  2  1  0
  4  5  1  1
  6  7  2  0
  6  4  1  0
  9  8  1  0
 10  9  1  0
 10 12  1  0
 10 11  1  1
 12 13  1  6
 13  6  1  0
 14 12  1  0
 14 16  1  0
 15 14  2  0
 17 16  1  0
 17 28  1  0
 17 18  1  1
 18 19  1  0
 19 20  2  0
 19 27  1  0
 20 21  1  0
 21 22  1  0
 22 23  2  0
 23 24  1  0
 25 24  2  0
 26 25  1  0
 27 26  2  0
 27 22  1  0
 28 29  1  0
 30 28  2  0
M  END
$$$$
