TIW.pdb
     RDKit          3D

 30 31  0  0  1  0  0  0  0  0999 V2000
   26.6953  -23.8891  -16.8233 C   0  0  0  0  0  0  0  0  0  0  0  0
   28.1130  -24.0566  -17.3296 C   0  0  1  0  0  0  0  0  0  0  0  0
   28.0544  -24.7641  -18.5296 O   0  0  0  0  0  0  0  0  0  0  0  0
   28.6744  -22.6657  -17.5318 C   0  0  2  0  0  0  0  0  0  0  0  0
   30.0076  -22.7908  -18.0168 N   0  0  0  0  0  0  0  0  0  0  0  0
   28.6268  -21.8641  -16.2704 C   0  0  0  0  0  0  0  0  0  0  0  0
   29.5285  -22.0657  -15.4065 O   0  0  0  0  0  0  0  0  0  0  0  0
   28.1232  -16.8413  -16.9453 C   0  0  0  0  0  0  0  0  0  0  0  0
   28.3666  -18.1425  -16.2020 C   0  0  0  0  0  0  0  0  0  0  0  0
   27.1171  -18.6051  -15.4382 C   0  0  2  0  0  0  0  0  0  0  0  0
   26.8683  -17.6906  -14.2642 C   0  0  0  0  0  0  0  0  0  0  0  0
   27.3883  -20.0236  -14.9868 C   0  0  2  0  0  0  0  0  0  0  0  0
   27.5978  -20.9328  -16.0974 N   0  0  0  0  0  0  0  0  0  0  0  0
   26.4308  -20.6182  -14.0722 C   0  0  0  0  0  0  0  0  0  0  0  0
   25.2915  -21.0091  -14.5475 O   0  0  0  0  0  0  0  0  0  0  0  0
   26.5557  -20.8505  -12.6811 N   0  0  0  0  0  0  0  0  0  0  0  0
   25.5861  -21.6089  -11.9174 C   0  0  1  0  0  0  0  0  0  0  0  0
   26.2654  -22.2040  -10.7116 C   0  0  0  0  0  0  0  0  0  0  0  0
   26.4214  -21.2517   -9.6236 C   0  0  0  0  0  0  0  0  0  0  0  0
   25.4170  -20.3676   -9.2433 C   0  0  0  0  0  0  0  0  0  0  0  0
   25.9011  -19.6318   -8.2479 N   0  0  0  0  0  0  0  0  0  0  0  0
   27.1679  -19.9956   -7.9644 C   0  0  0  0  0  0  0  0  0  0  0  0
   28.0461  -19.5140   -7.0079 C   0  0  0  0  0  0  0  0  0  0  0  0
   29.2995  -20.0405   -6.8780 C   0  0  0  0  0  0  0  0  0  0  0  0
   29.6403  -21.0674   -7.7421 C   0  0  0  0  0  0  0  0  0  0  0  0
   28.7738  -21.5503   -8.6945 C   0  0  0  0  0  0  0  0  0  0  0  0
   27.5087  -21.0155   -8.8233 C   0  0  0  0  0  0  0  0  0  0  0  0
   24.3974  -20.8213  -11.5342 C   0  0  0  0  0  0  0  0  0  0  0  0
   23.1582  -21.3511  -11.2523 O   0  0  0  0  0  0  0  0  0  0  0  0
   24.5424  -19.5754  -11.4641 O   0  0  0  0  0  0  0  0  0  0  0  0
  2  1  1  6
  3  2  1  0
  4  2  1  0
  4  5  1  1
  6  7  2  0
  6  4  1  0
  9  8  1  0
 10  9  1  0
 10 12  1  0
 10 11  1  1
 12 13  1  6
 13  6  1  0
 14 12  1  0
 14 16  1  0
 15 14  2  0
 17 16  1  0
 17 28  1  0
 17 18  1  1
 18 19  1  0
 19 20  2  0
 19 27  1  0
 20 21  1  0
 21 22  1  0
 22 23  2  0
 23 24  1  0
 25 24  2  0
 26 25  1  0
 27 26  2  0
 27 22  1  0
 28 29  1  0
 30 28  2  0
M  END
$$$$
