TIW.pdb
     RDKit          3D

 30 31  0  0  1  0  0  0  0  0999 V2000
   28.6691  -18.1012  -15.6279 C   0  0  0  0  0  0  0  0  0  0  0  0
   27.4671  -18.8604  -15.1053 C   0  0  1  0  0  0  0  0  0  0  0  0
   26.6498  -19.1626  -16.1937 O   0  0  0  0  0  0  0  0  0  0  0  0
   27.9942  -20.1143  -14.4414 C   0  0  2  0  0  0  0  0  0  0  0  0
   28.5958  -20.9282  -15.4434 N   0  0  0  0  0  0  0  0  0  0  0  0
   26.9122  -20.8509  -13.7187 C   0  0  0  0  0  0  0  0  0  0  0  0
   26.4661  -21.9119  -14.2432 O   0  0  0  0  0  0  0  0  0  0  0  0
   26.9599  -20.4802   -8.3368 C   0  0  0  0  0  0  0  0  0  0  0  0
   26.6111  -21.0281   -9.7090 C   0  0  0  0  0  0  0  0  0  0  0  0
   25.3566  -20.3582  -10.2885 C   0  0  2  0  0  0  0  0  0  0  0  0
   24.1367  -20.8102   -9.5242 C   0  0  0  0  0  0  0  0  0  0  0  0
   25.2815  -20.7682  -11.7430 C   0  0  2  0  0  0  0  0  0  0  0  0
   26.4411  -20.3429  -12.5037 N   0  0  0  0  0  0  0  0  0  0  0  0
   24.0834  -20.3942  -12.4718 C   0  0  0  0  0  0  0  0  0  0  0  0
   23.7954  -19.1357  -12.5718 O   0  0  0  0  0  0  0  0  0  0  0  0
   23.1413  -21.2277  -13.1218 N   0  0  0  0  0  0  0  0  0  0  0  0
   21.9296  -20.7217  -13.7337 C   0  0  1  0  0  0  0  0  0  0  0  0
   22.0703  -20.7868  -15.2322 C   0  0  0  0  0  0  0  0  0  0  0  0
   20.9284  -20.2200  -15.9320 C   0  0  0  0  0  0  0  0  0  0  0  0
   20.7449  -18.8506  -16.0942 C   0  0  0  0  0  0  0  0  0  0  0  0
   19.5993  -18.6851  -16.7472 N   0  0  0  0  0  0  0  0  0  0  0  0
   19.0323  -19.8782  -17.0165 C   0  0  0  0  0  0  0  0  0  0  0  0
   17.8550  -20.1820  -17.6797 C   0  0  0  0  0  0  0  0  0  0  0  0
   17.4652  -21.4786  -17.8585 C   0  0  0  0  0  0  0  0  0  0  0  0
   18.2988  -22.4595  -17.3482 C   0  0  0  0  0  0  0  0  0  0  0  0
   19.4689  -22.1653  -16.6883 C   0  0  0  0  0  0  0  0  0  0  0  0
   19.8591  -20.8544  -16.5088 C   0  0  0  0  0  0  0  0  0  0  0  0
   20.7090  -21.4142  -13.2749 C   0  0  0  0  0  0  0  0  0  0  0  0
   19.4722  -20.8247  -13.1389 O   0  0  0  0  0  0  0  0  0  0  0  0
   20.8224  -22.6327  -12.9908 O   0  0  0  0  0  0  0  0  0  0  0  0
  2  1  1  6
  3  2  1  0
  4  2  1  0
  4  5  1  6
  6  7  2  0
  6  4  1  0
  9  8  1  0
 10  9  1  0
 10 12  1  0
 10 11  1  1
 12 13  1  6
 13  6  1  0
 14 12  1  0
 14 16  1  0
 15 14  2  0
 17 16  1  0
 17 28  1  0
 17 18  1  6
 18 19  1  0
 19 20  2  0
 19 27  1  0
 20 21  1  0
 21 22  1  0
 22 23  2  0
 23 24  1  0
 25 24  2  0
 26 25  1  0
 27 26  2  0
 27 22  1  0
 28 29  1  0
 30 28  2  0
M  END
$$$$
