TIW.pdb
     RDKit          3D

 30 31  0  0  1  0  0  0  0  0999 V2000
   28.6304  -19.0268  -16.0978 C   0  0  0  0  0  0  0  0  0  0  0  0
   27.3570  -19.4927  -15.4228 C   0  0  1  0  0  0  0  0  0  0  0  0
   26.3957  -19.6827  -16.4147 O   0  0  0  0  0  0  0  0  0  0  0  0
   27.6851  -20.7879  -14.7119 C   0  0  2  0  0  0  0  0  0  0  0  0
   28.0828  -21.7433  -15.6903 N   0  0  0  0  0  0  0  0  0  0  0  0
   26.5264  -21.2829  -13.9068 C   0  0  0  0  0  0  0  0  0  0  0  0
   25.8528  -22.2479  -14.3702 O   0  0  0  0  0  0  0  0  0  0  0  0
   27.1212  -20.6453   -8.5785 C   0  0  0  0  0  0  0  0  0  0  0  0
   26.6204  -21.1861   -9.9056 C   0  0  0  0  0  0  0  0  0  0  0  0
   25.3671  -20.4412  -10.3884 C   0  0  2  0  0  0  0  0  0  0  0  0
   24.2031  -20.7595   -9.4827 C   0  0  0  0  0  0  0  0  0  0  0  0
   25.1087  -20.9051  -11.8052 C   0  0  2  0  0  0  0  0  0  0  0  0
   26.2362  -20.6656  -12.6858 N   0  0  0  0  0  0  0  0  0  0  0  0
   23.9030  -20.4164  -12.4488 C   0  0  0  0  0  0  0  0  0  0  0  0
   23.8237  -19.1531  -12.7217 O   0  0  0  0  0  0  0  0  0  0  0  0
   22.7512  -21.1384  -12.8449 N   0  0  0  0  0  0  0  0  0  0  0  0
   21.7195  -20.5756  -13.6919 C   0  0  1  0  0  0  0  0  0  0  0  0
   22.3424  -20.1043  -14.9800 C   0  0  0  0  0  0  0  0  0  0  0  0
   21.3765  -19.5106  -15.8906 C   0  0  0  0  0  0  0  0  0  0  0  0
   20.7314  -18.3063  -15.6281 C   0  0  0  0  0  0  0  0  0  0  0  0
   19.9055  -18.0765  -16.6437 N   0  0  0  0  0  0  0  0  0  0  0  0
   19.9839  -19.0710  -17.5506 C   0  0  0  0  0  0  0  0  0  0  0  0
   19.3205  -19.2408  -18.7544 C   0  0  0  0  0  0  0  0  0  0  0  0
   19.5610  -20.3316  -19.5401 C   0  0  0  0  0  0  0  0  0  0  0  0
   20.4911  -21.2459  -19.0750 C   0  0  0  0  0  0  0  0  0  0  0  0
   21.1534  -21.0841  -17.8807 C   0  0  0  0  0  0  0  0  0  0  0  0
   20.9072  -19.9814  -17.0892 C   0  0  0  0  0  0  0  0  0  0  0  0
   20.5973  -21.5022  -13.9415 C   0  0  0  0  0  0  0  0  0  0  0  0
   20.7178  -22.8666  -14.0810 O   0  0  0  0  0  0  0  0  0  0  0  0
   19.4522  -20.9932  -14.0309 O   0  0  0  0  0  0  0  0  0  0  0  0
  2  1  1  6
  3  2  1  0
  4  2  1  0
  4  5  1  6
  6  7  2  0
  6  4  1  0
  9  8  1  0
 10  9  1  0
 10 12  1  0
 10 11  1  1
 12 13  1  6
 13  6  1  0
 14 12  1  0
 14 16  1  0
 15 14  2  0
 17 16  1  0
 17 28  1  0
 17 18  1  6
 18 19  1  0
 19 20  2  0
 19 27  1  0
 20 21  1  0
 21 22  1  0
 22 23  2  0
 23 24  1  0
 25 24  2  0
 26 25  1  0
 27 26  2  0
 27 22  1  0
 28 29  1  0
 30 28  2  0
M  END
$$$$
