TIW.pdb
     RDKit          3D

 30 31  0  0  1  0  0  0  0  0999 V2000
   26.5890  -24.9759  -18.6191 C   0  0  0  0  0  0  0  0  0  0  0  0
   26.9361  -24.2798  -17.3194 C   0  0  1  0  0  0  0  0  0  0  0  0
   27.5122  -25.2255  -16.4721 O   0  0  0  0  0  0  0  0  0  0  0  0
   27.9105  -23.1730  -17.6605 C   0  0  2  0  0  0  0  0  0  0  0  0
   29.1083  -23.7700  -18.1475 N   0  0  0  0  0  0  0  0  0  0  0  0
   28.1804  -22.2944  -16.4811 C   0  0  0  0  0  0  0  0  0  0  0  0
   29.2608  -22.4698  -15.8472 O   0  0  0  0  0  0  0  0  0  0  0  0
   28.2972  -17.3507  -17.1510 C   0  0  0  0  0  0  0  0  0  0  0  0
   28.4478  -18.6106  -16.3175 C   0  0  0  0  0  0  0  0  0  0  0  0
   27.1674  -18.9312  -15.5323 C   0  0  2  0  0  0  0  0  0  0  0  0
   27.0208  -17.9692  -14.3793 C   0  0  0  0  0  0  0  0  0  0  0  0
   27.3043  -20.3582  -15.0483 C   0  0  2  0  0  0  0  0  0  0  0  0
   27.2373  -21.3234  -16.1290 N   0  0  0  0  0  0  0  0  0  0  0  0
   26.4085  -20.7830  -13.9882 C   0  0  0  0  0  0  0  0  0  0  0  0
   25.1591  -20.9622  -14.2774 O   0  0  0  0  0  0  0  0  0  0  0  0
   26.7019  -21.0467  -12.6284 N   0  0  0  0  0  0  0  0  0  0  0  0
   25.6825  -21.3553  -11.6464 C   0  0  1  0  0  0  0  0  0  0  0  0
   26.3386  -21.9366  -10.4213 C   0  0  0  0  0  0  0  0  0  0  0  0
   26.4002  -20.9965   -9.3135 C   0  0  0  0  0  0  0  0  0  0  0  0
   25.3708  -20.1089   -9.0174 C   0  0  0  0  0  0  0  0  0  0  0  0
   25.7662  -19.3867   -7.9740 N   0  0  0  0  0  0  0  0  0  0  0  0
   26.9993  -19.7626   -7.5795 C   0  0  0  0  0  0  0  0  0  0  0  0
   27.7892  -19.2972   -6.5414 C   0  0  0  0  0  0  0  0  0  0  0  0
   29.0220  -19.8341   -6.3028 C   0  0  0  0  0  0  0  0  0  0  0  0
   29.4341  -20.8547   -7.1429 C   0  0  0  0  0  0  0  0  0  0  0  0
   28.6555  -21.3217   -8.1759 C   0  0  0  0  0  0  0  0  0  0  0  0
   27.4111  -20.7763   -8.4144 C   0  0  0  0  0  0  0  0  0  0  0  0
   24.8293  -20.1995  -11.3056 C   0  0  0  0  0  0  0  0  0  0  0  0
   23.5283  -20.2835  -10.8628 O   0  0  0  0  0  0  0  0  0  0  0  0
   25.3422  -19.0599  -11.4341 O   0  0  0  0  0  0  0  0  0  0  0  0
  2  1  1  6
  3  2  1  0
  4  2  1  0
  4  5  1  1
  6  7  2  0
  6  4  1  0
  9  8  1  0
 10  9  1  0
 10 12  1  0
 10 11  1  1
 12 13  1  6
 13  6  1  0
 14 12  1  0
 14 16  1  0
 15 14  2  0
 17 16  1  0
 17 28  1  0
 17 18  1  1
 18 19  1  0
 19 20  2  0
 19 27  1  0
 20 21  1  0
 21 22  1  0
 22 23  2  0
 23 24  1  0
 25 24  2  0
 26 25  1  0
 27 26  2  0
 27 22  1  0
 28 29  1  0
 30 28  2  0
M  END
$$$$
