TIW.pdb
     RDKit          3D

 30 31  0  0  1  0  0  0  0  0999 V2000
   32.9027  -30.2971  -21.5154 C   0  0  0  0  0  0  0  0  0  0  0  0
   32.3695  -29.2122  -20.6028 C   0  0  1  0  0  0  0  0  0  0  0  0
   31.0044  -29.4366  -20.4289 O   0  0  0  0  0  0  0  0  0  0  0  0
   33.1226  -29.3287  -19.2952 C   0  0  2  0  0  0  0  0  0  0  0  0
   32.7655  -30.5652  -18.6855 N   0  0  0  0  0  0  0  0  0  0  0  0
   32.8369  -28.1729  -18.3905 C   0  0  0  0  0  0  0  0  0  0  0  0
   32.0466  -28.3612  -17.4211 O   0  0  0  0  0  0  0  0  0  0  0  0
   37.0483  -25.1339  -17.2689 C   0  0  0  0  0  0  0  0  0  0  0  0
   35.6870  -25.8059  -17.2774 C   0  0  0  0  0  0  0  0  0  0  0  0
   34.6085  -24.9014  -17.8916 C   0  0  2  0  0  0  0  0  0  0  0  0
   34.4657  -23.6451  -17.0683 C   0  0  0  0  0  0  0  0  0  0  0  0
   33.3264  -25.7049  -17.9018 C   0  0  2  0  0  0  0  0  0  0  0  0
   33.4485  -26.9420  -18.6494 N   0  0  0  0  0  0  0  0  0  0  0  0
   32.1220  -25.0181  -18.3312 C   0  0  0  0  0  0  0  0  0  0  0  0
   31.9266  -24.8610  -19.6015 O   0  0  0  0  0  0  0  0  0  0  0  0
   31.0804  -24.4724  -17.5425 N   0  0  0  0  0  0  0  0  0  0  0  0
   29.9714  -23.7289  -18.1046 C   0  0  1  0  0  0  0  0  0  0  0  0
   29.3282  -24.5503  -19.1913 C   0  0  0  0  0  0  0  0  0  0  0  0
   28.2088  -23.8718  -19.8249 C   0  0  0  0  0  0  0  0  0  0  0  0
   28.3622  -22.7389  -20.6175 C   0  0  0  0  0  0  0  0  0  0  0  0
   27.1470  -22.3680  -21.0074 N   0  0  0  0  0  0  0  0  0  0  0  0
   26.2149  -23.2039  -20.5077 C   0  0  0  0  0  0  0  0  0  0  0  0
   24.8384  -23.2065  -20.6609 C   0  0  0  0  0  0  0  0  0  0  0  0
   24.0686  -24.1674  -20.0702 C   0  0  0  0  0  0  0  0  0  0  0  0
   24.7291  -25.1258  -19.3201 C   0  0  0  0  0  0  0  0  0  0  0  0
   26.0953  -25.1294  -19.1631 C   0  0  0  0  0  0  0  0  0  0  0  0
   26.8697  -24.1566  -19.7607 C   0  0  0  0  0  0  0  0  0  0  0  0
   28.9832  -23.2995  -17.0952 C   0  0  0  0  0  0  0  0  0  0  0  0
   28.1452  -22.2146  -17.2241 O   0  0  0  0  0  0  0  0  0  0  0  0
   28.9126  -23.9848  -16.0447 O   0  0  0  0  0  0  0  0  0  0  0  0
  2  1  1  6
  3  2  1  0
  4  2  1  0
  4  5  1  1
  6  7  2  0
  6  4  1  0
  9  8  1  0
 10  9  1  0
 10 12  1  0
 10 11  1  1
 12 13  1  6
 13  6  1  0
 14 12  1  0
 14 16  1  0
 15 14  2  0
 17 16  1  0
 17 28  1  0
 17 18  1  6
 18 19  1  0
 19 20  2  0
 19 27  1  0
 20 21  1  0
 21 22  1  0
 22 23  2  0
 23 24  1  0
 25 24  2  0
 26 25  1  0
 27 26  2  0
 27 22  1  0
 28 29  1  0
 30 28  2  0
M  END
$$$$
