TIW.pdb
     RDKit          3D

 30 31  0  0  1  0  0  0  0  0999 V2000
   22.5319  -17.6049  -14.4975 C   0  0  0  0  0  0  0  0  0  0  0  0
   23.3447  -18.7467  -13.9233 C   0  0  1  0  0  0  0  0  0  0  0  0
   22.4919  -19.8386  -13.7672 O   0  0  0  0  0  0  0  0  0  0  0  0
   24.4492  -19.0419  -14.9151 C   0  0  2  0  0  0  0  0  0  0  0  0
   23.8502  -19.3247  -16.1759 N   0  0  0  0  0  0  0  0  0  0  0  0
   25.3130  -20.1730  -14.4566 C   0  0  0  0  0  0  0  0  0  0  0  0
   25.1198  -21.3119  -14.9718 O   0  0  0  0  0  0  0  0  0  0  0  0
   30.4248  -19.0526  -13.9106 C   0  0  0  0  0  0  0  0  0  0  0  0
   29.1313  -19.8380  -14.0316 C   0  0  0  0  0  0  0  0  0  0  0  0
   28.5899  -20.2602  -12.6578 C   0  0  2  0  0  0  0  0  0  0  0  0
   29.5320  -21.2514  -12.0201 C   0  0  0  0  0  0  0  0  0  0  0  0
   27.2265  -20.8699  -12.9003 C   0  0  2  0  0  0  0  0  0  0  0  0
   26.2903  -19.9295  -13.4862 N   0  0  0  0  0  0  0  0  0  0  0  0
   26.5869  -21.5228  -11.7728 C   0  0  0  0  0  0  0  0  0  0  0  0
   27.0773  -22.6469  -11.3573 O   0  0  0  0  0  0  0  0  0  0  0  0
   25.4631  -21.1015  -11.0216 N   0  0  0  0  0  0  0  0  0  0  0  0
   25.4157  -21.1554   -9.5747 C   0  0  1  0  0  0  0  0  0  0  0  0
   26.6141  -20.4341   -9.0154 C   0  0  0  0  0  0  0  0  0  0  0  0
   26.6374  -20.4202   -7.5614 C   0  0  0  0  0  0  0  0  0  0  0  0
   25.5945  -20.9136   -6.7841 C   0  0  0  0  0  0  0  0  0  0  0  0
   25.9301  -20.7201   -5.5127 N   0  0  0  0  0  0  0  0  0  0  0  0
   27.1378  -20.1270   -5.4279 C   0  0  0  0  0  0  0  0  0  0  0  0
   27.8764  -19.7519   -4.3180 C   0  0  0  0  0  0  0  0  0  0  0  0
   29.1032  -19.1680   -4.4564 C   0  0  0  0  0  0  0  0  0  0  0  0
   29.5626  -18.9741   -5.7482 C   0  0  0  0  0  0  0  0  0  0  0  0
   28.8347  -19.3436   -6.8549 C   0  0  0  0  0  0  0  0  0  0  0  0
   27.5954  -19.9324   -6.7113 C   0  0  0  0  0  0  0  0  0  0  0  0
   24.1566  -20.6297   -9.0104 C   0  0  0  0  0  0  0  0  0  0  0  0
   23.4320  -21.2301   -8.0053 O   0  0  0  0  0  0  0  0  0  0  0  0
   23.7259  -19.5529   -9.4934 O   0  0  0  0  0  0  0  0  0  0  0  0
  2  1  1  6
  3  2  1  0
  4  2  1  0
  4  5  1  6
  6  7  2  0
  6  4  1  0
  9  8  1  0
 10  9  1  0
 10 12  1  0
 10 11  1  6
 12 13  1  1
 13  6  1  0
 14 12  1  0
 14 16  1  0
 15 14  2  0
 17 16  1  0
 17 28  1  0
 17 18  1  1
 18 19  1  0
 19 20  2  0
 19 27  1  0
 20 21  1  0
 21 22  1  0
 22 23  2  0
 23 24  1  0
 25 24  2  0
 26 25  1  0
 27 26  2  0
 27 22  1  0
 28 29  1  0
 30 28  2  0
M  END
$$$$
