EWP.pdb
     RDKit          3D

 31 33  0  0  1  0  0  0  0  0999 V2000
   24.1137  -16.2821  -17.8096 N   0  0  0  0  0  0  0  0  0  0  0  0
   24.9847  -17.0892  -18.5995 C   0  0  1  0  0  0  0  0  0  0  0  0
   25.7986  -16.2406  -19.5113 C   0  0  0  0  0  0  0  0  0  0  0  0
   26.0844  -14.8589  -19.0023 C   0  0  0  0  0  0  0  0  0  0  0  0
   24.9392  -13.9525  -18.9662 C   0  0  0  0  0  0  0  0  0  0  0  0
   24.2332  -13.8713  -17.9216 O   0  0  0  0  0  0  0  0  0  0  0  0
   25.8238  -18.0042  -17.7722 C   0  0  0  0  0  0  0  0  0  0  0  0
   26.6161  -18.8237  -18.3039 O   0  0  0  0  0  0  0  0  0  0  0  0
   24.5519  -13.1438  -20.0294 O   0  0  0  0  0  0  0  0  0  0  0  0
   25.7751  -18.0004  -16.3566 N   0  0  0  0  0  0  0  0  0  0  0  0
   26.1550  -19.1784  -15.5473 C   0  0  1  0  0  0  0  0  0  0  0  0
   26.5390  -18.5913  -14.2393 C   0  0  0  0  0  0  0  0  0  0  0  0
   27.0145  -19.4725  -13.1853 C   0  0  0  0  0  0  0  0  0  0  0  0
   28.2945  -20.0029  -13.0358 C   0  0  0  0  0  0  0  0  0  0  0  0
   28.2707  -20.7425  -11.9168 N   0  0  0  0  0  0  0  0  0  0  0  0
   27.0524  -20.7067  -11.3569 C   0  0  0  0  0  0  0  0  0  0  0  0
   26.5132  -21.2596  -10.2014 C   0  0  0  0  0  0  0  0  0  0  0  0
   25.1902  -21.0054   -9.8637 C   0  0  0  0  0  0  0  0  0  0  0  0
   24.3887  -20.2043  -10.6647 C   0  0  0  0  0  0  0  0  0  0  0  0
   24.9216  -19.6593  -11.8058 C   0  0  0  0  0  0  0  0  0  0  0  0
   26.2368  -19.9164  -12.1321 C   0  0  0  0  0  0  0  0  0  0  0  0
   25.1082  -20.1656  -15.4859 C   0  0  0  0  0  0  0  0  0  0  0  0
   23.9077  -19.7484  -15.6738 O   0  0  0  0  0  0  0  0  0  0  0  0
   25.3758  -21.5263  -15.2483 N   0  0  0  0  0  0  0  0  0  0  0  0
   26.6621  -22.1062  -15.0260 C   0  0  0  0  0  0  0  0  0  0  0  0
   26.6601  -23.2863  -15.9835 C   0  0  0  0  0  0  0  0  0  0  0  0
   25.2244  -23.5582  -16.2591 C   0  0  0  0  0  0  0  0  0  0  0  0
   24.4495  -22.6266  -15.2629 C   0  0  1  0  0  0  0  0  0  0  0  0
   24.2735  -23.3624  -14.0163 C   0  0  0  0  0  0  0  0  0  0  0  0
   25.1265  -23.1912  -13.1019 O   0  0  0  0  0  0  0  0  0  0  0  0
   23.2435  -24.2310  -13.7570 O   0  0  0  0  0  0  0  0  0  0  0  0
  2  1  1  1
  3  2  1  0
  3  4  1  0
  4  5  1  0
  5  9  1  0
  6  5  2  0
  7  8  2  0
  7  2  1  0
 10  7  1  0
 11 10  1  0
 11 12  1  1
 12 13  1  0
 13 21  1  0
 13 14  2  0
 14 15  1  0
 16 15  1  0
 16 17  2  0
 18 17  1  0
 19 18  2  0
 20 21  2  0
 20 19  1  0
 21 16  1  0
 22 23  2  0
 22 11  1  0
 24 22  1  0
 25 24  1  0
 26 27  1  0
 26 25  1  0
 27 28  1  0
 28 24  1  0
 28 29  1  1
 30 29  2  0
 31 29  1  0
M  END
$$$$
