EWP.pdb
     RDKit          3D

 31 33  0  0  1  0  0  0  0  0999 V2000
   27.6727  -18.5423  -17.0288 N   0  0  0  0  0  0  0  0  0  0  0  0
   27.9301  -19.9450  -17.0283 C   0  0  1  0  0  0  0  0  0  0  0  0
   29.3673  -20.2119  -17.3064 C   0  0  0  0  0  0  0  0  0  0  0  0
   30.2353  -18.9906  -17.3762 C   0  0  0  0  0  0  0  0  0  0  0  0
   30.0619  -18.1629  -18.5675 C   0  0  0  0  0  0  0  0  0  0  0  0
   29.8905  -16.9169  -18.4489 O   0  0  0  0  0  0  0  0  0  0  0  0
   27.4575  -20.6131  -15.7809 C   0  0  0  0  0  0  0  0  0  0  0  0
   27.6528  -21.8396  -15.5823 O   0  0  0  0  0  0  0  0  0  0  0  0
   30.0710  -18.6572  -19.8675 O   0  0  0  0  0  0  0  0  0  0  0  0
   26.7697  -19.9098  -14.7617 N   0  0  0  0  0  0  0  0  0  0  0  0
   26.0058  -20.5995  -13.6997 C   0  0  1  0  0  0  0  0  0  0  0  0
   26.4438  -19.9155  -12.4576 C   0  0  0  0  0  0  0  0  0  0  0  0
   27.4177  -20.5709  -11.5999 C   0  0  0  0  0  0  0  0  0  0  0  0
   28.6050  -21.1914  -11.9837 C   0  0  0  0  0  0  0  0  0  0  0  0
   29.1809  -21.6387  -10.8576 N   0  0  0  0  0  0  0  0  0  0  0  0
   28.4252  -21.3351   -9.7919 C   0  0  0  0  0  0  0  0  0  0  0  0
   28.5737  -21.5356   -8.4246 C   0  0  0  0  0  0  0  0  0  0  0  0
   27.6080  -21.0619   -7.5459 C   0  0  0  0  0  0  0  0  0  0  0  0
   26.4875  -20.3875   -8.0102 C   0  0  0  0  0  0  0  0  0  0  0  0
   26.3413  -20.1905   -9.3604 C   0  0  0  0  0  0  0  0  0  0  0  0
   27.3062  -20.6634  -10.2249 C   0  0  0  0  0  0  0  0  0  0  0  0
   24.5857  -20.5749  -13.9380 C   0  0  0  0  0  0  0  0  0  0  0  0
   24.1317  -19.5910  -14.6283 O   0  0  0  0  0  0  0  0  0  0  0  0
   23.7287  -21.5819  -13.4572 N   0  0  0  0  0  0  0  0  0  0  0  0
   24.1204  -22.7422  -12.7221 C   0  0  0  0  0  0  0  0  0  0  0  0
   23.4072  -23.8588  -13.4664 C   0  0  0  0  0  0  0  0  0  0  0  0
   22.3011  -23.1889  -14.2008 C   0  0  0  0  0  0  0  0  0  0  0  0
   22.3119  -21.7137  -13.6676 C   0  0  1  0  0  0  0  0  0  0  0  0
   21.4583  -21.6649  -12.4863 C   0  0  0  0  0  0  0  0  0  0  0  0
   22.0112  -21.7239  -11.3532 O   0  0  0  0  0  0  0  0  0  0  0  0
   20.0907  -21.5564  -12.5108 O   0  0  0  0  0  0  0  0  0  0  0  0
  2  1  1  1
  3  2  1  0
  3  4  1  0
  4  5  1  0
  5  9  1  0
  6  5  2  0
  7  8  2  0
  7  2  1  0
 10  7  1  0
 11 10  1  0
 11 12  1  1
 12 13  1  0
 13 21  1  0
 13 14  2  0
 14 15  1  0
 16 15  1  0
 16 17  2  0
 18 17  1  0
 19 18  2  0
 20 21  2  0
 20 19  1  0
 21 16  1  0
 22 23  2  0
 22 11  1  0
 24 22  1  0
 25 24  1  0
 26 27  1  0
 26 25  1  0
 27 28  1  0
 28 24  1  0
 28 29  1  1
 30 29  2  0
 31 29  1  0
M  END
$$$$
