EWP.pdb
     RDKit          3D

 31 33  0  0  1  0  0  0  0  0999 V2000
   27.5512  -18.9625  -19.2242 N   0  0  0  0  0  0  0  0  0  0  0  0
   26.8467  -18.3557  -18.1428 C   0  0  1  0  0  0  0  0  0  0  0  0
   25.6578  -17.6151  -18.6447 C   0  0  0  0  0  0  0  0  0  0  0  0
   25.9683  -16.3503  -19.3889 C   0  0  0  0  0  0  0  0  0  0  0  0
   26.5903  -15.2915  -18.5975 C   0  0  0  0  0  0  0  0  0  0  0  0
   25.8901  -14.6102  -17.7964 O   0  0  0  0  0  0  0  0  0  0  0  0
   26.4991  -19.3301  -17.0679 C   0  0  0  0  0  0  0  0  0  0  0  0
   25.9454  -20.4274  -17.3347 O   0  0  0  0  0  0  0  0  0  0  0  0
   27.9405  -14.9635  -18.6595 O   0  0  0  0  0  0  0  0  0  0  0  0
   26.7709  -19.0757  -15.7012 N   0  0  0  0  0  0  0  0  0  0  0  0
   26.3340  -19.9886  -14.6228 C   0  0  1  0  0  0  0  0  0  0  0  0
   27.3484  -19.7799  -13.5597 C   0  0  0  0  0  0  0  0  0  0  0  0
   27.3039  -20.6162  -12.3713 C   0  0  0  0  0  0  0  0  0  0  0  0
   27.7875  -21.9154  -12.2293 C   0  0  0  0  0  0  0  0  0  0  0  0
   27.5403  -22.2761  -10.9610 N   0  0  0  0  0  0  0  0  0  0  0  0
   26.9311  -21.2803  -10.3006 C   0  0  0  0  0  0  0  0  0  0  0  0
   26.4958  -21.1265   -8.9896 C   0  0  0  0  0  0  0  0  0  0  0  0
   25.9164  -19.9299   -8.5877 C   0  0  0  0  0  0  0  0  0  0  0  0
   25.7612  -18.8760   -9.4771 C   0  0  0  0  0  0  0  0  0  0  0  0
   26.1907  -19.0288  -10.7714 C   0  0  0  0  0  0  0  0  0  0  0  0
   26.7659  -20.2203  -11.1608 C   0  0  0  0  0  0  0  0  0  0  0  0
   24.9725  -19.7513  -14.2180 C   0  0  0  0  0  0  0  0  0  0  0  0
   24.5531  -18.5385  -14.2807 O   0  0  0  0  0  0  0  0  0  0  0  0
   24.1276  -20.7911  -13.7881 N   0  0  0  0  0  0  0  0  0  0  0  0
   24.4581  -22.1798  -13.7381 C   0  0  0  0  0  0  0  0  0  0  0  0
   23.2696  -22.8254  -14.4307 C   0  0  0  0  0  0  0  0  0  0  0  0
   22.1761  -21.8219  -14.3379 C   0  0  0  0  0  0  0  0  0  0  0  0
   22.7465  -20.7048  -13.3958 C   0  0  1  0  0  0  0  0  0  0  0  0
   22.4220  -21.0763  -12.0236 C   0  0  0  0  0  0  0  0  0  0  0  0
   21.2589  -20.8268  -11.6017 O   0  0  0  0  0  0  0  0  0  0  0  0
   23.2883  -21.6829  -11.1495 O   0  0  0  0  0  0  0  0  0  0  0  0
  2  1  1  6
  3  2  1  0
  3  4  1  0
  4  5  1  0
  5  9  1  0
  6  5  2  0
  7  8  2  0
  7  2  1  0
 10  7  1  0
 11 10  1  0
 11 12  1  1
 12 13  1  0
 13 21  1  0
 13 14  2  0
 14 15  1  0
 16 15  1  0
 16 17  2  0
 18 17  1  0
 19 18  2  0
 20 21  2  0
 20 19  1  0
 21 16  1  0
 22 23  2  0
 22 11  1  0
 24 22  1  0
 25 24  1  0
 26 27  1  0
 26 25  1  0
 27 28  1  0
 28 24  1  0
 28 29  1  1
 30 29  2  0
 31 29  1  0
M  END
$$$$
