EWP.pdb
     RDKit          3D

 31 33  0  0  1  0  0  0  0  0999 V2000
   28.1975  -20.0325  -19.4844 N   0  0  0  0  0  0  0  0  0  0  0  0
   26.8261  -20.0167  -19.0930 C   0  0  1  0  0  0  0  0  0  0  0  0
   25.9616  -20.5047  -20.2013 C   0  0  0  0  0  0  0  0  0  0  0  0
   25.7817  -19.5394  -21.3352 C   0  0  0  0  0  0  0  0  0  0  0  0
   24.9642  -18.3656  -21.0381 C   0  0  0  0  0  0  0  0  0  0  0  0
   25.5196  -17.2676  -20.7516 O   0  0  0  0  0  0  0  0  0  0  0  0
   26.5867  -20.7523  -17.8173 C   0  0  0  0  0  0  0  0  0  0  0  0
   26.6631  -22.0064  -17.7620 O   0  0  0  0  0  0  0  0  0  0  0  0
   23.5734  -18.3626  -21.0463 O   0  0  0  0  0  0  0  0  0  0  0  0
   26.2635  -20.0852  -16.6102 N   0  0  0  0  0  0  0  0  0  0  0  0
   25.8705  -20.8121  -15.3837 C   0  0  1  0  0  0  0  0  0  0  0  0
   26.3956  -19.9566  -14.2904 C   0  0  0  0  0  0  0  0  0  0  0  0
   26.3860  -20.4692  -12.9300 C   0  0  0  0  0  0  0  0  0  0  0  0
   27.3698  -21.2321  -12.3036 C   0  0  0  0  0  0  0  0  0  0  0  0
   26.9366  -21.4584  -11.0543 N   0  0  0  0  0  0  0  0  0  0  0  0
   25.7407  -20.8827  -10.8611 C   0  0  0  0  0  0  0  0  0  0  0  0
   24.8888  -20.7891   -9.7670 C   0  0  0  0  0  0  0  0  0  0  0  0
   23.7020  -20.0753   -9.8719 C   0  0  0  0  0  0  0  0  0  0  0  0
   23.3464  -19.4491  -11.0582 C   0  0  0  0  0  0  0  0  0  0  0  0
   24.1877  -19.5425  -12.1382 C   0  0  0  0  0  0  0  0  0  0  0  0
   25.3646  -20.2525  -12.0239 C   0  0  0  0  0  0  0  0  0  0  0  0
   24.4549  -21.0704  -15.3260 C   0  0  0  0  0  0  0  0  0  0  0  0
   23.6855  -20.2037  -15.8806 O   0  0  0  0  0  0  0  0  0  0  0  0
   23.9286  -22.2202  -14.7091 N   0  0  0  0  0  0  0  0  0  0  0  0
   24.6763  -23.2286  -14.0279 C   0  0  0  0  0  0  0  0  0  0  0  0
   24.1363  -24.5093  -14.6425 C   0  0  0  0  0  0  0  0  0  0  0  0
   22.8125  -24.1380  -15.2090 C   0  0  0  0  0  0  0  0  0  0  0  0
   22.5639  -22.6748  -14.7012 C   0  0  1  0  0  0  0  0  0  0  0  0
   21.9016  -22.7637  -13.4051 C   0  0  0  0  0  0  0  0  0  0  0  0
   20.6422  -22.8455  -13.3879 O   0  0  0  0  0  0  0  0  0  0  0  0
   22.5460  -22.7679  -12.1938 O   0  0  0  0  0  0  0  0  0  0  0  0
  2  1  1  6
  3  2  1  0
  3  4  1  0
  4  5  1  0
  5  9  1  0
  6  5  2  0
  7  8  2  0
  7  2  1  0
 10  7  1  0
 11 10  1  0
 11 12  1  1
 12 13  1  0
 13 21  1  0
 13 14  2  0
 14 15  1  0
 16 15  1  0
 16 17  2  0
 18 17  1  0
 19 18  2  0
 20 21  2  0
 20 19  1  0
 21 16  1  0
 22 23  2  0
 22 11  1  0
 24 22  1  0
 25 24  1  0
 26 27  1  0
 26 25  1  0
 27 28  1  0
 28 24  1  0
 28 29  1  1
 30 29  2  0
 31 29  1  0
M  END
$$$$
