EWP.pdb
     RDKit          3D

 31 33  0  0  1  0  0  0  0  0999 V2000
   21.9659  -16.9386  -18.3439 N   0  0  0  0  0  0  0  0  0  0  0  0
   23.3209  -17.0441  -18.7763 C   0  0  1  0  0  0  0  0  0  0  0  0
   23.8235  -15.7241  -19.2443 C   0  0  0  0  0  0  0  0  0  0  0  0
   23.0647  -14.5385  -18.7261 C   0  0  0  0  0  0  0  0  0  0  0  0
   22.2758  -13.8136  -19.7193 C   0  0  0  0  0  0  0  0  0  0  0  0
   21.0351  -14.0304  -19.8181 O   0  0  0  0  0  0  0  0  0  0  0  0
   24.2053  -17.6566  -17.7427 C   0  0  0  0  0  0  0  0  0  0  0  0
   25.4492  -17.7360  -17.9109 O   0  0  0  0  0  0  0  0  0  0  0  0
   22.8026  -12.8705  -20.5954 O   0  0  0  0  0  0  0  0  0  0  0  0
   23.6978  -18.1773  -16.5270 N   0  0  0  0  0  0  0  0  0  0  0  0
   24.5476  -18.9064  -15.5610 C   0  0  1  0  0  0  0  0  0  0  0  0
   24.0034  -18.4970  -14.2423 C   0  0  0  0  0  0  0  0  0  0  0  0
   23.7623  -19.5160  -13.2338 C   0  0  0  0  0  0  0  0  0  0  0  0
   22.6947  -20.4092  -13.1683 C   0  0  0  0  0  0  0  0  0  0  0  0
   22.8994  -21.1665  -12.0799 N   0  0  0  0  0  0  0  0  0  0  0  0
   24.0315  -20.8008  -11.4605 C   0  0  0  0  0  0  0  0  0  0  0  0
   24.7020  -21.2687  -10.3366 C   0  0  0  0  0  0  0  0  0  0  0  0
   25.9049  -20.6884   -9.9557 C   0  0  0  0  0  0  0  0  0  0  0  0
   26.4550  -19.6408  -10.6808 C   0  0  0  0  0  0  0  0  0  0  0  0
   25.7921  -19.1788  -11.7899 C   0  0  0  0  0  0  0  0  0  0  0  0
   24.5988  -19.7624  -12.1610 C   0  0  0  0  0  0  0  0  0  0  0  0
   24.5583  -20.3267  -15.7989 C   0  0  0  0  0  0  0  0  0  0  0  0
   23.5979  -20.8019  -16.5077 O   0  0  0  0  0  0  0  0  0  0  0  0
   25.5742  -21.1617  -15.2985 N   0  0  0  0  0  0  0  0  0  0  0  0
   26.6901  -20.7504  -14.5074 C   0  0  0  0  0  0  0  0  0  0  0  0
   27.8594  -21.4065  -15.2227 C   0  0  0  0  0  0  0  0  0  0  0  0
   27.2579  -22.5150  -16.0105 C   0  0  0  0  0  0  0  0  0  0  0  0
   25.7631  -22.5674  -15.5378 C   0  0  1  0  0  0  0  0  0  0  0  0
   25.6966  -23.4523  -14.3806 C   0  0  0  0  0  0  0  0  0  0  0  0
   25.8085  -24.6940  -14.5774 O   0  0  0  0  0  0  0  0  0  0  0  0
   25.5231  -23.0368  -13.0845 O   0  0  0  0  0  0  0  0  0  0  0  0
  2  1  1  1
  3  2  1  0
  3  4  1  0
  4  5  1  0
  5  9  1  0
  6  5  2  0
  7  8  2  0
  7  2  1  0
 10  7  1  0
 11 10  1  0
 11 12  1  1
 12 13  1  0
 13 21  1  0
 13 14  2  0
 14 15  1  0
 16 15  1  0
 16 17  2  0
 18 17  1  0
 19 18  2  0
 20 21  2  0
 20 19  1  0
 21 16  1  0
 22 23  2  0
 22 11  1  0
 24 22  1  0
 25 24  1  0
 26 27  1  0
 26 25  1  0
 27 28  1  0
 28 24  1  0
 28 29  1  1
 30 29  2  0
 31 29  1  0
M  END
$$$$
