EWP.pdb
     RDKit          3D

 31 33  0  0  1  0  0  0  0  0999 V2000
   25.7761  -36.2537  -15.0848 N   0  0  0  0  0  0  0  0  0  0  0  0
   24.5412  -36.0894  -14.3905 C   0  0  1  0  0  0  0  0  0  0  0  0
   24.0995  -37.3812  -13.7987 C   0  0  0  0  0  0  0  0  0  0  0  0
   22.8920  -37.9929  -14.4451 C   0  0  0  0  0  0  0  0  0  0  0  0
   21.6035  -37.5033  -13.9609 C   0  0  0  0  0  0  0  0  0  0  0  0
   20.8659  -36.8143  -14.7207 O   0  0  0  0  0  0  0  0  0  0  0  0
   24.5927  -34.9895  -13.3839 C   0  0  0  0  0  0  0  0  0  0  0  0
   25.6383  -34.7545  -12.7257 O   0  0  0  0  0  0  0  0  0  0  0  0
   21.1083  -37.7449  -12.6838 O   0  0  0  0  0  0  0  0  0  0  0  0
   23.4779  -34.1574  -13.1169 N   0  0  0  0  0  0  0  0  0  0  0  0
   23.4914  -33.1321  -12.0513 C   0  0  1  0  0  0  0  0  0  0  0  0
   22.3563  -32.2453  -12.4090 C   0  0  0  0  0  0  0  0  0  0  0  0
   22.1161  -31.0538  -11.6113 C   0  0  0  0  0  0  0  0  0  0  0  0
   22.7166  -29.8039  -11.7508 C   0  0  0  0  0  0  0  0  0  0  0  0
   22.1757  -29.0157  -10.8095 N   0  0  0  0  0  0  0  0  0  0  0  0
   21.2726  -29.6973  -10.0894 C   0  0  0  0  0  0  0  0  0  0  0  0
   20.4259  -29.3531   -9.0423 C   0  0  0  0  0  0  0  0  0  0  0  0
   19.5559  -30.2987   -8.5151 C   0  0  0  0  0  0  0  0  0  0  0  0
   19.5157  -31.5920   -9.0167 C   0  0  0  0  0  0  0  0  0  0  0  0
   20.3524  -31.9314  -10.0501 C   0  0  0  0  0  0  0  0  0  0  0  0
   21.2119  -30.9851  -10.5678 C   0  0  0  0  0  0  0  0  0  0  0  0
   23.4207  -33.7068  -10.7327 C   0  0  0  0  0  0  0  0  0  0  0  0
   22.8216  -34.8383  -10.6260 O   0  0  0  0  0  0  0  0  0  0  0  0
   23.9901  -33.0774   -9.6106 N   0  0  0  0  0  0  0  0  0  0  0  0
   24.6185  -31.7948   -9.5918 C   0  0  0  0  0  0  0  0  0  0  0  0
   25.9235  -32.0790   -8.8668 C   0  0  0  0  0  0  0  0  0  0  0  0
   25.6793  -33.3351   -8.1093 C   0  0  0  0  0  0  0  0  0  0  0  0
   24.1439  -33.6061   -8.2818 C   0  0  1  0  0  0  0  0  0  0  0  0
   23.4489  -32.9092   -7.2057 C   0  0  0  0  0  0  0  0  0  0  0  0
   23.5028  -33.4058   -6.0466 O   0  0  0  0  0  0  0  0  0  0  0  0
   22.7376  -31.7456   -7.3559 O   0  0  0  0  0  0  0  0  0  0  0  0
  2  1  1  1
  3  2  1  0
  3  4  1  0
  4  5  1  0
  5  9  1  0
  6  5  2  0
  7  8  2  0
  7  2  1  0
 10  7  1  0
 11 10  1  0
 11 12  1  6
 12 13  1  0
 13 21  1  0
 13 14  2  0
 14 15  1  0
 16 15  1  0
 16 17  2  0
 18 17  1  0
 19 18  2  0
 20 21  2  0
 20 19  1  0
 21 16  1  0
 22 23  2  0
 22 11  1  0
 24 22  1  0
 25 24  1  0
 26 27  1  0
 26 25  1  0
 27 28  1  0
 28 24  1  0
 28 29  1  1
 30 29  2  0
 31 29  1  0
M  END
$$$$
