EWP.pdb
     RDKit          3D

 31 33  0  0  1  0  0  0  0  0999 V2000
   29.1133  -24.1318  -16.5410 N   0  0  0  0  0  0  0  0  0  0  0  0
   28.8985  -22.7557  -16.2344 C   0  0  1  0  0  0  0  0  0  0  0  0
   28.6806  -21.9715  -17.4799 C   0  0  0  0  0  0  0  0  0  0  0  0
   28.2866  -20.5402  -17.2653 C   0  0  0  0  0  0  0  0  0  0  0  0
   28.1011  -19.7500  -18.4801 C   0  0  0  0  0  0  0  0  0  0  0  0
   26.9359  -19.5264  -18.9140 O   0  0  0  0  0  0  0  0  0  0  0  0
   27.8076  -22.5553  -15.2366 C   0  0  0  0  0  0  0  0  0  0  0  0
   26.6758  -23.0817  -15.3913 O   0  0  0  0  0  0  0  0  0  0  0  0
   29.1440  -19.2058  -19.2222 O   0  0  0  0  0  0  0  0  0  0  0  0
   27.9846  -21.7691  -14.0718 N   0  0  0  0  0  0  0  0  0  0  0  0
   26.9179  -21.5970  -13.0620 C   0  0  1  0  0  0  0  0  0  0  0  0
   27.6629  -21.2481  -11.8266 C   0  0  0  0  0  0  0  0  0  0  0  0
   26.9183  -20.8205  -10.6535 C   0  0  0  0  0  0  0  0  0  0  0  0
   25.5358  -20.7051  -10.5214 C   0  0  0  0  0  0  0  0  0  0  0  0
   25.3075  -20.2927   -9.2653 N   0  0  0  0  0  0  0  0  0  0  0  0
   26.4644  -20.1433   -8.6033 C   0  0  0  0  0  0  0  0  0  0  0  0
   26.7816  -19.7769   -7.3007 C   0  0  0  0  0  0  0  0  0  0  0  0
   28.1090  -19.7467   -6.8931 C   0  0  0  0  0  0  0  0  0  0  0  0
   29.1338  -20.0770   -7.7685 C   0  0  0  0  0  0  0  0  0  0  0  0
   28.8199  -20.4381   -9.0547 C   0  0  0  0  0  0  0  0  0  0  0  0
   27.4988  -20.4663   -9.4498 C   0  0  0  0  0  0  0  0  0  0  0  0
   25.9270  -20.6332  -13.4661 C   0  0  0  0  0  0  0  0  0  0  0  0
   26.3591  -19.4881  -13.8566 O   0  0  0  0  0  0  0  0  0  0  0  0
   24.5506  -20.9250  -13.4536 N   0  0  0  0  0  0  0  0  0  0  0  0
   23.9562  -22.1709  -13.0869 C   0  0  0  0  0  0  0  0  0  0  0  0
   22.9997  -22.4302  -14.2389 C   0  0  0  0  0  0  0  0  0  0  0  0
   22.7696  -21.0977  -14.8577 C   0  0  0  0  0  0  0  0  0  0  0  0
   23.4636  -20.0854  -13.8808 C   0  0  1  0  0  0  0  0  0  0  0  0
   22.4835  -19.7037  -12.8709 C   0  0  0  0  0  0  0  0  0  0  0  0
   21.6459  -18.8072  -13.1675 O   0  0  0  0  0  0  0  0  0  0  0  0
   22.3986  -20.2490  -11.6148 O   0  0  0  0  0  0  0  0  0  0  0  0
  2  1  1  6
  3  2  1  0
  3  4  1  0
  4  5  1  0
  5  9  1  0
  6  5  2  0
  7  8  2  0
  7  2  1  0
 10  7  1  0
 11 10  1  0
 11 12  1  1
 12 13  1  0
 13 21  1  0
 13 14  2  0
 14 15  1  0
 16 15  1  0
 16 17  2  0
 18 17  1  0
 19 18  2  0
 20 21  2  0
 20 19  1  0
 21 16  1  0
 22 23  2  0
 22 11  1  0
 24 22  1  0
 25 24  1  0
 26 27  1  0
 26 25  1  0
 27 28  1  0
 28 24  1  0
 28 29  1  1
 30 29  2  0
 31 29  1  0
M  END
$$$$
