EWP.pdb
     RDKit          3D

 31 33  0  0  1  0  0  0  0  0999 V2000
   29.2332  -22.0289  -17.0790 N   0  0  0  0  0  0  0  0  0  0  0  0
   28.9199  -20.9580  -16.1908 C   0  0  1  0  0  0  0  0  0  0  0  0
   28.4976  -19.7530  -16.9547 C   0  0  0  0  0  0  0  0  0  0  0  0
   27.4551  -20.0026  -18.0040 C   0  0  0  0  0  0  0  0  0  0  0  0
   26.1800  -19.3199  -17.7985 C   0  0  0  0  0  0  0  0  0  0  0  0
   26.1637  -18.1339  -17.3636 O   0  0  0  0  0  0  0  0  0  0  0  0
   27.9257  -21.3502  -15.1499 C   0  0  0  0  0  0  0  0  0  0  0  0
   27.0094  -22.1747  -15.3993 O   0  0  0  0  0  0  0  0  0  0  0  0
   24.9390  -19.8940  -18.0534 O   0  0  0  0  0  0  0  0  0  0  0  0
   27.9588  -20.8208  -13.8365 N   0  0  0  0  0  0  0  0  0  0  0  0
   26.9578  -21.1838  -12.8102 C   0  0  1  0  0  0  0  0  0  0  0  0
   27.5870  -20.7422  -11.5406 C   0  0  0  0  0  0  0  0  0  0  0  0
   26.7605  -20.6216  -10.3507 C   0  0  0  0  0  0  0  0  0  0  0  0
   25.3695  -20.5670  -10.2857 C   0  0  0  0  0  0  0  0  0  0  0  0
   25.0536  -20.4714   -8.9853 N   0  0  0  0  0  0  0  0  0  0  0  0
   26.1637  -20.4632   -8.2326 C   0  0  0  0  0  0  0  0  0  0  0  0
   26.3909  -20.4133   -6.8623 C   0  0  0  0  0  0  0  0  0  0  0  0
   27.6901  -20.4568   -6.3732 C   0  0  0  0  0  0  0  0  0  0  0  0
   28.7754  -20.5489   -7.2332 C   0  0  0  0  0  0  0  0  0  0  0  0
   28.5504  -20.5975   -8.5860 C   0  0  0  0  0  0  0  0  0  0  0  0
   27.2566  -20.5550   -9.0620 C   0  0  0  0  0  0  0  0  0  0  0  0
   25.6630  -20.6126  -13.0770 C   0  0  0  0  0  0  0  0  0  0  0  0
   25.6403  -19.3912  -13.4751 O   0  0  0  0  0  0  0  0  0  0  0  0
   24.4744  -21.3506  -12.9281 N   0  0  0  0  0  0  0  0  0  0  0  0
   24.3712  -22.6985  -12.4670 C   0  0  0  0  0  0  0  0  0  0  0  0
   23.4772  -23.3372  -13.5168 C   0  0  0  0  0  0  0  0  0  0  0  0
   22.7595  -22.2023  -14.1557 C   0  0  0  0  0  0  0  0  0  0  0  0
   23.1370  -20.9560  -13.2812 C   0  0  1  0  0  0  0  0  0  0  0  0
   22.1643  -20.8652  -12.1986 C   0  0  0  0  0  0  0  0  0  0  0  0
   21.1554  -20.1262  -12.3692 O   0  0  0  0  0  0  0  0  0  0  0  0
   22.2598  -21.5277  -11.0008 O   0  0  0  0  0  0  0  0  0  0  0  0
  2  1  1  6
  3  2  1  0
  3  4  1  0
  4  5  1  0
  5  9  1  0
  6  5  2  0
  7  8  2  0
  7  2  1  0
 10  7  1  0
 11 10  1  0
 11 12  1  1
 12 13  1  0
 13 21  1  0
 13 14  2  0
 14 15  1  0
 16 15  1  0
 16 17  2  0
 18 17  1  0
 19 18  2  0
 20 21  2  0
 20 19  1  0
 21 16  1  0
 22 23  2  0
 22 11  1  0
 24 22  1  0
 25 24  1  0
 26 27  1  0
 26 25  1  0
 27 28  1  0
 28 24  1  0
 28 29  1  1
 30 29  2  0
 31 29  1  0
M  END
$$$$
