EWP.pdb
     RDKit          3D

 31 33  0  0  1  0  0  0  0  0999 V2000
   28.7631  -20.2943  -15.6144 N   0  0  0  0  0  0  0  0  0  0  0  0
   28.6175  -19.5744  -14.3919 C   0  0  1  0  0  0  0  0  0  0  0  0
   28.0669  -18.2161  -14.6487 C   0  0  0  0  0  0  0  0  0  0  0  0
   27.8038  -17.9027  -16.0917 C   0  0  0  0  0  0  0  0  0  0  0  0
   28.9281  -17.3263  -16.8252 C   0  0  0  0  0  0  0  0  0  0  0  0
   29.1025  -17.6188  -18.0418 O   0  0  0  0  0  0  0  0  0  0  0  0
   27.8266  -20.3271  -13.3753 C   0  0  0  0  0  0  0  0  0  0  0  0
   26.9421  -21.1537  -13.7165 O   0  0  0  0  0  0  0  0  0  0  0  0
   29.8539  -16.4499  -16.2690 O   0  0  0  0  0  0  0  0  0  0  0  0
   28.0262  -20.1541  -11.9837 N   0  0  0  0  0  0  0  0  0  0  0  0
   27.0771  -20.6747  -10.9761 C   0  0  1  0  0  0  0  0  0  0  0  0
   27.7545  -20.3963   -9.6852 C   0  0  0  0  0  0  0  0  0  0  0  0
   26.9992  -20.5335   -8.4506 C   0  0  0  0  0  0  0  0  0  0  0  0
   25.7170  -21.0563   -8.2939 C   0  0  0  0  0  0  0  0  0  0  0  0
   25.4396  -20.9951   -6.9828 N   0  0  0  0  0  0  0  0  0  0  0  0
   26.4716  -20.4655   -6.3094 C   0  0  0  0  0  0  0  0  0  0  0  0
   26.7086  -20.2144   -4.9631 C   0  0  0  0  0  0  0  0  0  0  0  0
   27.9238  -19.6746   -4.5623 C   0  0  0  0  0  0  0  0  0  0  0  0
   28.9144  -19.3773   -5.4877 C   0  0  0  0  0  0  0  0  0  0  0  0
   28.6795  -19.6248   -6.8168 C   0  0  0  0  0  0  0  0  0  0  0  0
   27.4701  -20.1623   -7.2049 C   0  0  0  0  0  0  0  0  0  0  0  0
   25.7631  -20.1003  -11.1084 C   0  0  0  0  0  0  0  0  0  0  0  0
   25.6859  -18.8183  -11.0748 O   0  0  0  0  0  0  0  0  0  0  0  0
   24.6139  -20.8932  -11.2827 N   0  0  0  0  0  0  0  0  0  0  0  0
   24.5774  -22.3189  -11.3619 C   0  0  0  0  0  0  0  0  0  0  0  0
   23.7311  -22.5574  -12.6013 C   0  0  0  0  0  0  0  0  0  0  0  0
   22.9614  -21.2995  -12.7918 C   0  0  0  0  0  0  0  0  0  0  0  0
   23.2616  -20.4559  -11.5039 C   0  0  1  0  0  0  0  0  0  0  0  0
   22.2729  -20.8213  -10.4962 C   0  0  0  0  0  0  0  0  0  0  0  0
   21.3277  -21.5827  -10.8426 O   0  0  0  0  0  0  0  0  0  0  0  0
   22.2916  -20.4009   -9.1903 O   0  0  0  0  0  0  0  0  0  0  0  0
  2  1  1  6
  3  2  1  0
  3  4  1  0
  4  5  1  0
  5  9  1  0
  6  5  2  0
  7  8  2  0
  7  2  1  0
 10  7  1  0
 11 10  1  0
 11 12  1  1
 12 13  1  0
 13 21  1  0
 13 14  2  0
 14 15  1  0
 16 15  1  0
 16 17  2  0
 18 17  1  0
 19 18  2  0
 20 21  2  0
 20 19  1  0
 21 16  1  0
 22 23  2  0
 22 11  1  0
 24 22  1  0
 25 24  1  0
 26 27  1  0
 26 25  1  0
 27 28  1  0
 28 24  1  0
 28 29  1  1
 30 29  2  0
 31 29  1  0
M  END
$$$$
