EWP.pdb
     RDKit          3D

 31 33  0  0  1  0  0  0  0  0999 V2000
   25.4811  -19.6964  -13.3302 N   0  0  0  0  0  0  0  0  0  0  0  0
   24.4649  -19.3363  -12.3966 C   0  0  1  0  0  0  0  0  0  0  0  0
   23.1563  -19.1750  -13.0861 C   0  0  0  0  0  0  0  0  0  0  0  0
   22.9308  -20.1057  -14.2406 C   0  0  0  0  0  0  0  0  0  0  0  0
   23.8225  -19.9187  -15.3826 C   0  0  0  0  0  0  0  0  0  0  0  0
   23.5045  -19.1162  -16.3050 O   0  0  0  0  0  0  0  0  0  0  0  0
   24.3885  -20.2785  -11.2423 C   0  0  0  0  0  0  0  0  0  0  0  0
   23.4864  -21.1520  -11.1705 O   0  0  0  0  0  0  0  0  0  0  0  0
   25.0369  -20.5785  -15.5390 O   0  0  0  0  0  0  0  0  0  0  0  0
   25.3185  -20.2416  -10.1745 N   0  0  0  0  0  0  0  0  0  0  0  0
   25.2242  -21.1479   -9.0097 C   0  0  1  0  0  0  0  0  0  0  0  0
   26.6117  -21.1820   -8.4838 C   0  0  0  0  0  0  0  0  0  0  0  0
   27.0881  -20.0657   -7.6835 C   0  0  0  0  0  0  0  0  0  0  0  0
   26.9417  -18.7060   -7.9514 C   0  0  0  0  0  0  0  0  0  0  0  0
   27.5241  -18.0537   -6.9340 N   0  0  0  0  0  0  0  0  0  0  0  0
   28.0260  -18.9238   -6.0452 C   0  0  0  0  0  0  0  0  0  0  0  0
   28.6839  -18.7783   -4.8296 C   0  0  0  0  0  0  0  0  0  0  0  0
   29.0589  -19.9027   -4.1057 C   0  0  0  0  0  0  0  0  0  0  0  0
   28.7882  -21.1798   -4.5766 C   0  0  0  0  0  0  0  0  0  0  0  0
   28.1391  -21.3226   -5.7772 C   0  0  0  0  0  0  0  0  0  0  0  0
   27.7697  -20.2000   -6.4882 C   0  0  0  0  0  0  0  0  0  0  0  0
   24.2259  -20.7249   -8.0619 C   0  0  0  0  0  0  0  0  0  0  0  0
   23.7582  -19.5369   -8.2054 O   0  0  0  0  0  0  0  0  0  0  0  0
   23.7651  -21.5680   -7.0340 N   0  0  0  0  0  0  0  0  0  0  0  0
   24.1964  -22.9067   -6.7847 C   0  0  0  0  0  0  0  0  0  0  0  0
   22.8811  -23.6554   -6.6481 C   0  0  0  0  0  0  0  0  0  0  0  0
   21.8741  -22.6114   -6.3206 C   0  0  0  0  0  0  0  0  0  0  0  0
   22.7190  -21.3117   -6.0806 C   0  0  1  0  0  0  0  0  0  0  0  0
   23.0967  -21.2843   -4.6724 C   0  0  0  0  0  0  0  0  0  0  0  0
   24.2495  -21.6927   -4.3604 O   0  0  0  0  0  0  0  0  0  0  0  0
   22.2914  -20.8434   -3.6528 O   0  0  0  0  0  0  0  0  0  0  0  0
  2  1  1  6
  3  2  1  0
  3  4  1  0
  4  5  1  0
  5  9  1  0
  6  5  2  0
  7  8  2  0
  7  2  1  0
 10  7  1  0
 11 10  1  0
 11 12  1  1
 12 13  1  0
 13 21  1  0
 13 14  2  0
 14 15  1  0
 16 15  1  0
 16 17  2  0
 18 17  1  0
 19 18  2  0
 20 21  2  0
 20 19  1  0
 21 16  1  0
 22 23  2  0
 22 11  1  0
 24 22  1  0
 25 24  1  0
 26 27  1  0
 26 25  1  0
 27 28  1  0
 28 24  1  0
 28 29  1  1
 30 29  2  0
 31 29  1  0
M  END
$$$$
