EWP.pdb
     RDKit          3D

 31 33  0  0  1  0  0  0  0  0999 V2000
   20.8812  -19.8739  -11.9307 N   0  0  0  0  0  0  0  0  0  0  0  0
   21.6181  -20.6681  -12.8582 C   0  0  1  0  0  0  0  0  0  0  0  0
   20.9580  -20.6600  -14.1918 C   0  0  0  0  0  0  0  0  0  0  0  0
   20.1156  -21.8652  -14.4878 C   0  0  0  0  0  0  0  0  0  0  0  0
   20.8002  -23.1517  -14.3848 C   0  0  0  0  0  0  0  0  0  0  0  0
   21.8129  -23.3852  -15.1031 O   0  0  0  0  0  0  0  0  0  0  0  0
   23.0557  -20.2761  -12.9316 C   0  0  0  0  0  0  0  0  0  0  0  0
   23.3986  -19.1011  -13.2208 O   0  0  0  0  0  0  0  0  0  0  0  0
   20.4102  -24.1753  -13.5278 O   0  0  0  0  0  0  0  0  0  0  0  0
   24.1031  -21.1964  -12.6820 N   0  0  0  0  0  0  0  0  0  0  0  0
   25.5284  -20.8399  -12.8506 C   0  0  1  0  0  0  0  0  0  0  0  0
   26.1977  -21.5481  -11.7311 C   0  0  0  0  0  0  0  0  0  0  0  0
   26.1471  -20.9655  -10.4000 C   0  0  0  0  0  0  0  0  0  0  0  0
   25.0306  -20.4600   -9.7368 C   0  0  0  0  0  0  0  0  0  0  0  0
   25.4586  -20.0444   -8.5352 N   0  0  0  0  0  0  0  0  0  0  0  0
   26.7761  -20.2597   -8.4065 C   0  0  0  0  0  0  0  0  0  0  0  0
   27.6848  -20.0475   -7.3765 C   0  0  0  0  0  0  0  0  0  0  0  0
   29.0138  -20.4171   -7.5377 C   0  0  0  0  0  0  0  0  0  0  0  0
   29.4566  -20.9982   -8.7177 C   0  0  0  0  0  0  0  0  0  0  0  0
   28.5590  -21.2069   -9.7344 C   0  0  0  0  0  0  0  0  0  0  0  0
   27.2411  -20.8376   -9.5644 C   0  0  0  0  0  0  0  0  0  0  0  0
   26.0271  -21.1680  -14.1612 C   0  0  0  0  0  0  0  0  0  0  0  0
   25.3109  -21.9651  -14.8700 O   0  0  0  0  0  0  0  0  0  0  0  0
   27.2305  -20.6355  -14.6589 N   0  0  0  0  0  0  0  0  0  0  0  0
   28.2111  -19.9203  -13.9058 C   0  0  0  0  0  0  0  0  0  0  0  0
   28.4564  -18.6930  -14.7677 C   0  0  0  0  0  0  0  0  0  0  0  0
   27.9979  -19.0786  -16.1287 C   0  0  0  0  0  0  0  0  0  0  0  0
   27.6928  -20.6134  -16.0208 C   0  0  1  0  0  0  0  0  0  0  0  0
   28.9280  -21.3309  -16.3139 C   0  0  0  0  0  0  0  0  0  0  0  0
   29.5073  -21.9258  -15.3633 O   0  0  0  0  0  0  0  0  0  0  0  0
   29.5126  -21.4125  -17.5525 O   0  0  0  0  0  0  0  0  0  0  0  0
  2  1  1  1
  3  2  1  0
  3  4  1  0
  4  5  1  0
  5  9  1  0
  6  5  2  0
  7  8  2  0
  7  2  1  0
 10  7  1  0
 11 10  1  0
 11 12  1  1
 12 13  1  0
 13 21  1  0
 13 14  2  0
 14 15  1  0
 16 15  1  0
 16 17  2  0
 18 17  1  0
 19 18  2  0
 20 21  2  0
 20 19  1  0
 21 16  1  0
 22 23  2  0
 22 11  1  0
 24 22  1  0
 25 24  1  0
 26 27  1  0
 26 25  1  0
 27 28  1  0
 28 24  1  0
 28 29  1  1
 30 29  2  0
 31 29  1  0
M  END
$$$$
