EWP.pdb
     RDKit          3D

 31 33  0  0  1  0  0  0  0  0999 V2000
   29.6260  -22.0721  -18.1563 N   0  0  0  0  0  0  0  0  0  0  0  0
   28.4614  -22.6100  -17.5334 C   0  0  1  0  0  0  0  0  0  0  0  0
   28.6713  -24.0405  -17.1815 C   0  0  0  0  0  0  0  0  0  0  0  0
   27.9180  -25.0185  -18.0335 C   0  0  0  0  0  0  0  0  0  0  0  0
   28.3230  -25.0731  -19.4361 C   0  0  0  0  0  0  0  0  0  0  0  0
   27.7769  -25.9023  -20.2173 O   0  0  0  0  0  0  0  0  0  0  0  0
   28.0089  -21.7969  -16.3673 C   0  0  0  0  0  0  0  0  0  0  0  0
   28.7852  -21.5341  -15.4133 O   0  0  0  0  0  0  0  0  0  0  0  0
   29.2970  -24.2546  -19.9981 O   0  0  0  0  0  0  0  0  0  0  0  0
   26.6931  -21.2810  -16.2714 N   0  0  0  0  0  0  0  0  0  0  0  0
   26.2433  -20.4655  -15.1227 C   0  0  1  0  0  0  0  0  0  0  0  0
   25.4686  -19.3701  -15.7574 C   0  0  0  0  0  0  0  0  0  0  0  0
   25.8914  -17.9954  -15.5454 C   0  0  0  0  0  0  0  0  0  0  0  0
   25.2728  -17.0297  -14.7536 C   0  0  0  0  0  0  0  0  0  0  0  0
   26.0228  -15.9216  -14.8508 N   0  0  0  0  0  0  0  0  0  0  0  0
   27.0740  -16.1360  -15.6558 C   0  0  0  0  0  0  0  0  0  0  0  0
   28.1471  -15.3502  -16.0589 C   0  0  0  0  0  0  0  0  0  0  0  0
   29.1201  -15.8822  -16.8951 C   0  0  0  0  0  0  0  0  0  0  0  0
   29.0408  -17.1940  -17.3408 C   0  0  0  0  0  0  0  0  0  0  0  0
   27.9807  -17.9691  -16.9429 C   0  0  0  0  0  0  0  0  0  0  0  0
   27.0201  -17.4323  -16.1114 C   0  0  0  0  0  0  0  0  0  0  0  0
   25.5160  -21.2386  -14.1493 C   0  0  0  0  0  0  0  0  0  0  0  0
   25.1735  -22.4280  -14.4938 O   0  0  0  0  0  0  0  0  0  0  0  0
   25.2037  -20.7330  -12.8740 N   0  0  0  0  0  0  0  0  0  0  0  0
   25.6347  -19.4829  -12.3339 C   0  0  0  0  0  0  0  0  0  0  0  0
   26.1640  -19.8810  -10.9662 C   0  0  0  0  0  0  0  0  0  0  0  0
   25.5206  -21.1880  -10.6681 C   0  0  0  0  0  0  0  0  0  0  0  0
   24.4725  -21.3819  -11.8190 C   0  0  1  0  0  0  0  0  0  0  0  0
   23.2269  -20.7551  -11.3921 C   0  0  0  0  0  0  0  0  0  0  0  0
   22.5280  -21.3542  -10.5284 O   0  0  0  0  0  0  0  0  0  0  0  0
   22.7532  -19.5546  -11.8577 O   0  0  0  0  0  0  0  0  0  0  0  0
  2  1  1  1
  3  2  1  0
  3  4  1  0
  4  5  1  0
  5  9  1  0
  6  5  2  0
  7  8  2  0
  7  2  1  0
 10  7  1  0
 11 10  1  0
 11 12  1  6
 12 13  1  0
 13 21  1  0
 13 14  2  0
 14 15  1  0
 16 15  1  0
 16 17  2  0
 18 17  1  0
 19 18  2  0
 20 21  2  0
 20 19  1  0
 21 16  1  0
 22 23  2  0
 22 11  1  0
 24 22  1  0
 25 24  1  0
 26 27  1  0
 26 25  1  0
 27 28  1  0
 28 24  1  0
 28 29  1  1
 30 29  2  0
 31 29  1  0
M  END
$$$$
