EWP.pdb
     RDKit          3D

 31 33  0  0  1  0  0  0  0  0999 V2000
   21.1789  -20.5409  -11.4236 N   0  0  0  0  0  0  0  0  0  0  0  0
   21.9225  -21.0692  -12.5198 C   0  0  1  0  0  0  0  0  0  0  0  0
   21.1649  -20.9082  -13.7902 C   0  0  0  0  0  0  0  0  0  0  0  0
   20.0153  -21.8557  -13.9655 C   0  0  0  0  0  0  0  0  0  0  0  0
   20.3388  -23.2721  -13.8126 C   0  0  0  0  0  0  0  0  0  0  0  0
   19.8283  -23.9360  -12.8666 O   0  0  0  0  0  0  0  0  0  0  0  0
   23.3004  -20.5031  -12.6024 C   0  0  0  0  0  0  0  0  0  0  0  0
   23.4997  -19.3223  -12.9869 O   0  0  0  0  0  0  0  0  0  0  0  0
   21.1951  -23.9712  -14.6567 O   0  0  0  0  0  0  0  0  0  0  0  0
   24.4485  -21.2568  -12.2556 N   0  0  0  0  0  0  0  0  0  0  0  0
   25.8206  -20.7955  -12.5583 C   0  0  1  0  0  0  0  0  0  0  0  0
   26.6266  -21.3483  -11.4414 C   0  0  0  0  0  0  0  0  0  0  0  0
   26.5049  -20.7490  -10.1224 C   0  0  0  0  0  0  0  0  0  0  0  0
   25.3810  -20.1399   -9.5675 C   0  0  0  0  0  0  0  0  0  0  0  0
   25.7311  -19.7504   -8.3324 N   0  0  0  0  0  0  0  0  0  0  0  0
   27.0069  -20.0793   -8.0810 C   0  0  0  0  0  0  0  0  0  0  0  0
   27.8316  -19.9365   -6.9714 C   0  0  0  0  0  0  0  0  0  0  0  0
   29.1319  -20.4233   -7.0072 C   0  0  0  0  0  0  0  0  0  0  0  0
   29.6286  -21.0540   -8.1392 C   0  0  0  0  0  0  0  0  0  0  0  0
   28.8140  -21.1941   -9.2345 C   0  0  0  0  0  0  0  0  0  0  0  0
   27.5239  -20.7085   -9.1890 C   0  0  0  0  0  0  0  0  0  0  0  0
   26.2562  -21.1880  -13.8737 C   0  0  0  0  0  0  0  0  0  0  0  0
   25.6117  -22.1477  -14.4343 O   0  0  0  0  0  0  0  0  0  0  0  0
   27.3239  -20.5487  -14.5301 N   0  0  0  0  0  0  0  0  0  0  0  0
   28.3259  -19.7366  -13.9164 C   0  0  0  0  0  0  0  0  0  0  0  0
   28.3328  -18.5000  -14.7996 C   0  0  0  0  0  0  0  0  0  0  0  0
   27.7309  -18.9403  -16.0861 C   0  0  0  0  0  0  0  0  0  0  0  0
   27.5909  -20.4961  -15.9426 C   0  0  1  0  0  0  0  0  0  0  0  0
   28.8368  -21.0962  -16.4051 C   0  0  0  0  0  0  0  0  0  0  0  0
   29.1558  -20.9397  -17.6163 O   0  0  0  0  0  0  0  0  0  0  0  0
   29.6973  -21.8210  -15.6197 O   0  0  0  0  0  0  0  0  0  0  0  0
  2  1  1  1
  3  2  1  0
  3  4  1  0
  4  5  1  0
  5  9  1  0
  6  5  2  0
  7  8  2  0
  7  2  1  0
 10  7  1  0
 11 10  1  0
 11 12  1  1
 12 13  1  0
 13 21  1  0
 13 14  2  0
 14 15  1  0
 16 15  1  0
 16 17  2  0
 18 17  1  0
 19 18  2  0
 20 21  2  0
 20 19  1  0
 21 16  1  0
 22 23  2  0
 22 11  1  0
 24 22  1  0
 25 24  1  0
 26 27  1  0
 26 25  1  0
 27 28  1  0
 28 24  1  0
 28 29  1  1
 30 29  2  0
 31 29  1  0
M  END
$$$$
