GKH.pdb
     RDKit          3D

 24 24  0  0  1  0  0  0  0  0999 V2000
    7.6618  -13.0696   17.2490 N   0  0  0  0  0  0  0  0  0  0  0  0
    7.3731  -14.4617   17.4359 C   0  0  0  0  0  0  0  0  0  0  0  0
    7.2949  -14.8433   18.8631 C   0  0  0  0  0  0  0  0  0  0  0  0
    7.4761  -13.9995   19.8055 O   0  0  0  0  0  0  0  0  0  0  0  0
    7.0095  -16.1895   19.1788 N   0  0  0  0  0  0  0  0  0  0  0  0
    6.7721  -16.6492   20.5707 C   0  0  1  0  0  0  0  0  0  0  0  0
    5.8890  -17.8377   20.4101 C   0  0  0  0  0  0  0  0  0  0  0  0
    4.5576  -17.7988   21.0530 C   0  0  0  0  0  0  0  0  0  0  0  0
    3.7336  -19.0517   20.7617 C   0  0  0  0  0  0  0  0  0  0  0  0
    2.4013  -18.8624   21.4217 C   0  0  0  0  0  0  0  0  0  0  0  0
    1.4761  -19.9357   21.1729 N   0  0  0  0  0  0  0  0  0  0  0  0
    8.0881  -17.0371   21.0934 C   0  0  0  0  0  0  0  0  0  0  0  0
    8.9768  -17.4089   20.2618 O   0  0  0  0  0  0  0  0  0  0  0  0
    8.4987  -17.0419   22.4481 N   0  0  0  0  0  0  0  0  0  0  0  0
    9.8970  -16.6818   22.8029 C   0  0  1  0  0  0  0  0  0  0  0  0
   10.0925  -15.2156   22.6558 C   0  0  0  0  0  0  0  0  0  0  0  0
   10.5822  -14.8423   21.3126 C   0  0  0  0  0  0  0  0  0  0  0  0
   10.8447  -15.5796   20.1835 C   0  0  0  0  0  0  0  0  0  0  0  0
   11.2090  -14.7734   19.1429 N   0  0  0  0  0  0  0  0  0  0  0  0
   11.1693  -13.5323   19.6314 C   0  0  0  0  0  0  0  0  0  0  0  0
   10.8006  -13.5376   20.9164 N   0  0  0  0  0  0  0  0  0  0  0  0
   10.0948  -17.1222   24.2311 C   0  0  0  0  0  0  0  0  0  0  0  0
   10.9002  -18.2504   24.5197 O   0  0  0  0  0  0  0  0  0  0  0  0
    9.6081  -16.5824   25.2367 O   0  0  0  0  0  0  0  0  0  0  0  0
  1  2  1  0
  3  2  1  0
  3  4  2  0
  5  3  1  0
  6 12  1  0
  6  5  1  0
  6  7  1  6
  8  7  1  0
  9  8  1  0
 10  9  1  0
 11 10  1  0
 12 14  1  0
 13 12  2  0
 14 15  1  0
 15 16  1  1
 17 16  1  0
 17 18  2  0
 19 18  1  0
 20 19  1  0
 21 20  2  0
 21 17  1  0
 22 15  1  0
 23 22  1  0
 24 22  2  0
M  END
$$$$
