GKH.pdb
     RDKit          3D

 24 24  0  0  1  0  0  0  0  0999 V2000
    4.1074  -20.9278   22.7191 N   0  0  0  0  0  0  0  0  0  0  0  0
    4.0770  -19.4975   22.8178 C   0  0  0  0  0  0  0  0  0  0  0  0
    5.4287  -18.8966   22.8391 C   0  0  0  0  0  0  0  0  0  0  0  0
    6.4702  -19.5712   23.1442 O   0  0  0  0  0  0  0  0  0  0  0  0
    5.5561  -17.5299   22.5087 N   0  0  0  0  0  0  0  0  0  0  0  0
    6.8699  -16.8391   22.4647 C   0  0  1  0  0  0  0  0  0  0  0  0
    6.6551  -15.7206   21.5050 C   0  0  0  0  0  0  0  0  0  0  0  0
    7.8287  -14.9062   21.1220 C   0  0  0  0  0  0  0  0  0  0  0  0
    7.4885  -13.8546   20.0675 C   0  0  0  0  0  0  0  0  0  0  0  0
    8.7739  -13.1837   19.6880 C   0  0  0  0  0  0  0  0  0  0  0  0
    8.6238  -12.1871   18.6614 N   0  0  0  0  0  0  0  0  0  0  0  0
    7.1002  -16.3314   23.8229 C   0  0  0  0  0  0  0  0  0  0  0  0
    6.1114  -15.8354   24.4523 O   0  0  0  0  0  0  0  0  0  0  0  0
    8.3225  -16.3328   24.5368 N   0  0  0  0  0  0  0  0  0  0  0  0
    8.4016  -15.6955   25.8779 C   0  0  1  0  0  0  0  0  0  0  0  0
    9.7354  -15.9542   26.4808 C   0  0  0  0  0  0  0  0  0  0  0  0
    9.8954  -15.3063   27.7991 C   0  0  0  0  0  0  0  0  0  0  0  0
    9.6131  -14.0397   28.2501 C   0  0  0  0  0  0  0  0  0  0  0  0
    9.8607  -13.9272   29.5886 N   0  0  0  0  0  0  0  0  0  0  0  0
   10.2962  -15.1307   29.9662 C   0  0  0  0  0  0  0  0  0  0  0  0
   10.3284  -15.9729   28.9284 N   0  0  0  0  0  0  0  0  0  0  0  0
    8.1746  -14.2216   25.6567 C   0  0  0  0  0  0  0  0  0  0  0  0
    8.7020  -13.5883   24.5054 O   0  0  0  0  0  0  0  0  0  0  0  0
    7.5460  -13.4582   26.4062 O   0  0  0  0  0  0  0  0  0  0  0  0
  1  2  1  0
  3  2  1  0
  3  4  2  0
  5  3  1  0
  6 12  1  0
  6  5  1  0
  6  7  1  6
  8  7  1  0
  9  8  1  0
 10  9  1  0
 11 10  1  0
 12 14  1  0
 13 12  2  0
 14 15  1  0
 15 16  1  6
 17 16  1  0
 17 18  2  0
 19 18  1  0
 20 19  1  0
 21 20  2  0
 21 17  1  0
 22 15  1  0
 23 22  1  0
 24 22  2  0
M  END
$$$$
