GKH.pdb
     RDKit          3D

 24 24  0  0  1  0  0  0  0  0999 V2000
    8.9505  -14.7175   15.8893 N   0  0  0  0  0  0  0  0  0  0  0  0
    9.0021  -16.0050   16.5185 C   0  0  0  0  0  0  0  0  0  0  0  0
    8.7537  -15.9403   17.9755 C   0  0  0  0  0  0  0  0  0  0  0  0
    8.8973  -14.8610   18.6445 O   0  0  0  0  0  0  0  0  0  0  0  0
    8.3444  -17.1195   18.6352 N   0  0  0  0  0  0  0  0  0  0  0  0
    8.1615  -17.1874   20.1073 C   0  0  1  0  0  0  0  0  0  0  0  0
    7.4276  -18.4659   20.3190 C   0  0  0  0  0  0  0  0  0  0  0  0
    7.1470  -18.8770   21.7117 C   0  0  0  0  0  0  0  0  0  0  0  0
    6.5478  -20.2797   21.7952 C   0  0  0  0  0  0  0  0  0  0  0  0
    6.3842  -20.5997   23.2502 C   0  0  0  0  0  0  0  0  0  0  0  0
    5.8196  -21.9000   23.4955 N   0  0  0  0  0  0  0  0  0  0  0  0
    9.5137  -17.2554   20.6753 C   0  0  0  0  0  0  0  0  0  0  0  0
   10.3537  -18.0401   20.1290 O   0  0  0  0  0  0  0  0  0  0  0  0
   10.0090  -16.5289   21.7846 N   0  0  0  0  0  0  0  0  0  0  0  0
   11.4151  -16.7176   22.2297 C   0  0  1  0  0  0  0  0  0  0  0  0
   12.1748  -15.4527   22.0492 C   0  0  0  0  0  0  0  0  0  0  0  0
   12.7030  -15.3011   20.6776 C   0  0  0  0  0  0  0  0  0  0  0  0
   12.6036  -16.0850   19.5538 C   0  0  0  0  0  0  0  0  0  0  0  0
   13.1987  -15.4849   18.4809 N   0  0  0  0  0  0  0  0  0  0  0  0
   13.6663  -14.3241   18.9441 C   0  0  0  0  0  0  0  0  0  0  0  0
   13.3887  -14.1835   20.2442 N   0  0  0  0  0  0  0  0  0  0  0  0
   11.3463  -17.1152   23.6822 C   0  0  0  0  0  0  0  0  0  0  0  0
   10.0964  -17.1625   24.3456 O   0  0  0  0  0  0  0  0  0  0  0  0
   12.3089  -17.4221   24.4025 O   0  0  0  0  0  0  0  0  0  0  0  0
  1  2  1  0
  3  2  1  0
  3  4  2  0
  5  3  1  0
  6 12  1  0
  6  5  1  0
  6  7  1  6
  8  7  1  0
  9  8  1  0
 10  9  1  0
 11 10  1  0
 12 14  1  0
 13 12  2  0
 14 15  1  0
 15 16  1  1
 17 16  1  0
 17 18  2  0
 19 18  1  0
 20 19  1  0
 21 20  2  0
 21 17  1  0
 22 15  1  0
 23 22  1  0
 24 22  2  0
M  END
$$$$
