GKH.pdb
     RDKit          3D

 24 24  0  0  1  0  0  0  0  0999 V2000
    6.4391  -20.4006   20.5010 N   0  0  0  0  0  0  0  0  0  0  0  0
    6.2742  -18.9891   20.6927 C   0  0  0  0  0  0  0  0  0  0  0  0
    7.5636  -18.2691   20.7804 C   0  0  0  0  0  0  0  0  0  0  0  0
    8.6831  -18.8812   20.8495 O   0  0  0  0  0  0  0  0  0  0  0  0
    7.5399  -16.8574   20.7870 N   0  0  0  0  0  0  0  0  0  0  0  0
    8.7790  -16.0390   20.7909 C   0  0  1  0  0  0  0  0  0  0  0  0
    8.3851  -14.7886   20.0843 C   0  0  0  0  0  0  0  0  0  0  0  0
    8.2700  -14.8368   18.6106 C   0  0  0  0  0  0  0  0  0  0  0  0
    7.8213  -13.5025   18.0177 C   0  0  0  0  0  0  0  0  0  0  0  0
    7.6110  -13.7243   16.5504 C   0  0  0  0  0  0  0  0  0  0  0  0
    7.0229  -12.5985   15.8747 N   0  0  0  0  0  0  0  0  0  0  0  0
    9.0786  -15.7742   22.2036 C   0  0  0  0  0  0  0  0  0  0  0  0
    8.1015  -15.6444   23.0087 O   0  0  0  0  0  0  0  0  0  0  0  0
   10.3592  -15.6478   22.7934 N   0  0  0  0  0  0  0  0  0  0  0  0
   10.5977  -16.1567   24.1701 C   0  0  1  0  0  0  0  0  0  0  0  0
   10.2803  -17.6075   24.2330 C   0  0  0  0  0  0  0  0  0  0  0  0
    9.0199  -17.8799   24.9545 C   0  0  0  0  0  0  0  0  0  0  0  0
    8.0161  -17.0597   25.4095 C   0  0  0  0  0  0  0  0  0  0  0  0
    6.9966  -17.7860   25.9559 N   0  0  0  0  0  0  0  0  0  0  0  0
    7.3720  -19.0609   25.8360 C   0  0  0  0  0  0  0  0  0  0  0  0
    8.5679  -19.1519   25.2455 N   0  0  0  0  0  0  0  0  0  0  0  0
   12.0530  -15.8989   24.4670 C   0  0  0  0  0  0  0  0  0  0  0  0
   12.4950  -15.7948   25.8081 O   0  0  0  0  0  0  0  0  0  0  0  0
   12.9568  -15.7600   23.6283 O   0  0  0  0  0  0  0  0  0  0  0  0
  1  2  1  0
  3  2  1  0
  3  4  2  0
  5  3  1  0
  6 12  1  0
  6  5  1  0
  6  7  1  6
  8  7  1  0
  9  8  1  0
 10  9  1  0
 11 10  1  0
 12 14  1  0
 13 12  2  0
 14 15  1  0
 15 16  1  6
 17 16  1  0
 17 18  2  0
 19 18  1  0
 20 19  1  0
 21 20  2  0
 21 17  1  0
 22 15  1  0
 23 22  1  0
 24 22  2  0
M  END
$$$$
