GKH.pdb
     RDKit          3D

 24 24  0  0  1  0  0  0  0  0999 V2000
    6.8131  -19.9415   20.0759 N   0  0  0  0  0  0  0  0  0  0  0  0
    6.5442  -18.6801   20.7025 C   0  0  0  0  0  0  0  0  0  0  0  0
    7.7225  -17.7855   20.7167 C   0  0  0  0  0  0  0  0  0  0  0  0
    8.8748  -18.1693   20.3195 O   0  0  0  0  0  0  0  0  0  0  0  0
    7.5521  -16.4656   21.1882 N   0  0  0  0  0  0  0  0  0  0  0  0
    8.6425  -15.4583   21.1506 C   0  0  1  0  0  0  0  0  0  0  0  0
    7.9414  -14.1626   21.3687 C   0  0  0  0  0  0  0  0  0  0  0  0
    7.2164  -13.5701   20.2239 C   0  0  0  0  0  0  0  0  0  0  0  0
    8.0708  -13.5162   18.9587 C   0  0  0  0  0  0  0  0  0  0  0  0
    7.1898  -13.0093   17.8571 C   0  0  0  0  0  0  0  0  0  0  0  0
    7.8442  -12.9459   16.5775 N   0  0  0  0  0  0  0  0  0  0  0  0
    9.5218  -15.7789   22.2818 C   0  0  0  0  0  0  0  0  0  0  0  0
    8.9872  -15.9648   23.4217 O   0  0  0  0  0  0  0  0  0  0  0  0
   10.9305  -15.9145   22.2537 N   0  0  0  0  0  0  0  0  0  0  0  0
   11.6245  -16.6913   23.3148 C   0  0  1  0  0  0  0  0  0  0  0  0
   11.3243  -18.1387   23.1575 C   0  0  0  0  0  0  0  0  0  0  0  0
   12.0142  -18.9719   24.1640 C   0  0  0  0  0  0  0  0  0  0  0  0
   12.7384  -18.6582   25.2885 C   0  0  0  0  0  0  0  0  0  0  0  0
   13.1196  -19.7854   25.9589 N   0  0  0  0  0  0  0  0  0  0  0  0
   12.6269  -20.8000   25.2458 C   0  0  0  0  0  0  0  0  0  0  0  0
   11.9650  -20.3519   24.1742 N   0  0  0  0  0  0  0  0  0  0  0  0
   13.0964  -16.4134   23.1444 C   0  0  0  0  0  0  0  0  0  0  0  0
   14.0138  -16.8143   24.1455 O   0  0  0  0  0  0  0  0  0  0  0  0
   13.6257  -15.8438   22.1774 O   0  0  0  0  0  0  0  0  0  0  0  0
  1  2  1  0
  3  2  1  0
  3  4  2  0
  5  3  1  0
  6 12  1  0
  6  5  1  0
  6  7  1  1
  8  7  1  0
  9  8  1  0
 10  9  1  0
 11 10  1  0
 12 14  1  0
 13 12  2  0
 14 15  1  0
 15 16  1  6
 17 16  1  0
 17 18  2  0
 19 18  1  0
 20 19  1  0
 21 20  2  0
 21 17  1  0
 22 15  1  0
 23 22  1  0
 24 22  2  0
M  END
$$$$
