GKH.pdb
     RDKit          3D

 24 24  0  0  1  0  0  0  0  0999 V2000
    4.8831  -18.8685   22.6422 N   0  0  0  0  0  0  0  0  0  0  0  0
    5.1939  -17.4723   22.5401 C   0  0  0  0  0  0  0  0  0  0  0  0
    6.5253  -17.2246   21.9445 C   0  0  0  0  0  0  0  0  0  0  0  0
    7.3302  -18.1739   21.6549 O   0  0  0  0  0  0  0  0  0  0  0  0
    6.9053  -15.8882   21.6935 N   0  0  0  0  0  0  0  0  0  0  0  0
    8.2585  -15.5225   21.2033 C   0  0  1  0  0  0  0  0  0  0  0  0
    8.0030  -14.4219   20.2329 C   0  0  0  0  0  0  0  0  0  0  0  0
    7.8340  -14.7840   18.8090 C   0  0  0  0  0  0  0  0  0  0  0  0
    8.2230  -13.6449   17.8684 C   0  0  0  0  0  0  0  0  0  0  0  0
    7.9302  -14.1096   16.4739 C   0  0  0  0  0  0  0  0  0  0  0  0
    8.2747  -13.1482   15.4606 N   0  0  0  0  0  0  0  0  0  0  0  0
    8.9895  -15.0307   22.3777 C   0  0  0  0  0  0  0  0  0  0  0  0
    8.7082  -13.8690   22.8149 O   0  0  0  0  0  0  0  0  0  0  0  0
    9.9933  -15.7152   23.1042 N   0  0  0  0  0  0  0  0  0  0  0  0
    9.9996  -15.6673   24.5903 C   0  0  1  0  0  0  0  0  0  0  0  0
    8.6833  -16.1170   25.1145 C   0  0  0  0  0  0  0  0  0  0  0  0
    7.7786  -14.9881   25.4151 C   0  0  0  0  0  0  0  0  0  0  0  0
    7.8870  -13.6337   25.2123 C   0  0  0  0  0  0  0  0  0  0  0  0
    6.7438  -12.9868   25.5867 N   0  0  0  0  0  0  0  0  0  0  0  0
    5.9250  -13.9468   26.0212 C   0  0  0  0  0  0  0  0  0  0  0  0
    6.5081  -15.1465   25.9325 N   0  0  0  0  0  0  0  0  0  0  0  0
   11.1108  -16.5835   25.0355 C   0  0  0  0  0  0  0  0  0  0  0  0
   11.8641  -16.2732   26.1935 O   0  0  0  0  0  0  0  0  0  0  0  0
   11.4609  -17.6340   24.4754 O   0  0  0  0  0  0  0  0  0  0  0  0
  1  2  1  0
  3  2  1  0
  3  4  2  0
  5  3  1  0
  6 12  1  0
  6  5  1  0
  6  7  1  6
  8  7  1  0
  9  8  1  0
 10  9  1  0
 11 10  1  0
 12 14  1  0
 13 12  2  0
 14 15  1  0
 15 16  1  1
 17 16  1  0
 17 18  2  0
 19 18  1  0
 20 19  1  0
 21 20  2  0
 21 17  1  0
 22 15  1  0
 23 22  1  0
 24 22  2  0
M  END
$$$$
