GKH.pdb
     RDKit          3D

 24 24  0  0  1  0  0  0  0  0999 V2000
    4.3581  -19.6099   23.7233 N   0  0  0  0  0  0  0  0  0  0  0  0
    4.5999  -18.2060   23.5591 C   0  0  0  0  0  0  0  0  0  0  0  0
    5.8843  -17.9221   22.8819 C   0  0  0  0  0  0  0  0  0  0  0  0
    6.7268  -18.8418   22.6043 O   0  0  0  0  0  0  0  0  0  0  0  0
    6.1747  -16.5841   22.5369 N   0  0  0  0  0  0  0  0  0  0  0  0
    7.4522  -16.1858   21.8931 C   0  0  1  0  0  0  0  0  0  0  0  0
    7.1122  -14.9300   21.1683 C   0  0  0  0  0  0  0  0  0  0  0  0
    8.1025  -14.4001   20.2060 C   0  0  0  0  0  0  0  0  0  0  0  0
    7.4439  -13.7737   18.9783 C   0  0  0  0  0  0  0  0  0  0  0  0
    8.5457  -13.4001   18.0334 C   0  0  0  0  0  0  0  0  0  0  0  0
    8.0883  -12.7087   16.8576 N   0  0  0  0  0  0  0  0  0  0  0  0
    8.3888  -15.9227   22.9928 C   0  0  0  0  0  0  0  0  0  0  0  0
    7.9983  -15.1753   23.9459 O   0  0  0  0  0  0  0  0  0  0  0  0
    9.7079  -16.4189   23.1250 N   0  0  0  0  0  0  0  0  0  0  0  0
   10.5157  -16.0739   24.3247 C   0  0  1  0  0  0  0  0  0  0  0  0
   10.7310  -17.2889   25.1536 C   0  0  0  0  0  0  0  0  0  0  0  0
    9.4951  -17.7416   25.8252 C   0  0  0  0  0  0  0  0  0  0  0  0
    8.2115  -17.2521   25.8329 C   0  0  0  0  0  0  0  0  0  0  0  0
    7.3785  -18.0662   26.5462 N   0  0  0  0  0  0  0  0  0  0  0  0
    8.1513  -19.0642   26.9794 C   0  0  0  0  0  0  0  0  0  0  0  0
    9.4132  -18.9023   26.5688 N   0  0  0  0  0  0  0  0  0  0  0  0
   11.8203  -15.5223   23.8084 C   0  0  0  0  0  0  0  0  0  0  0  0
   12.8147  -15.0866   24.7173 O   0  0  0  0  0  0  0  0  0  0  0  0
   12.1412  -15.3992   22.6161 O   0  0  0  0  0  0  0  0  0  0  0  0
  1  2  1  0
  3  2  1  0
  3  4  2  0
  5  3  1  0
  6 12  1  0
  6  5  1  0
  6  7  1  1
  8  7  1  0
  9  8  1  0
 10  9  1  0
 11 10  1  0
 12 14  1  0
 13 12  2  0
 14 15  1  0
 15 16  1  1
 17 16  1  0
 17 18  2  0
 19 18  1  0
 20 19  1  0
 21 20  2  0
 21 17  1  0
 22 15  1  0
 23 22  1  0
 24 22  2  0
M  END
$$$$
