GKH.pdb
     RDKit          3D

 24 24  0  0  1  0  0  0  0  0999 V2000
    8.5259  -12.1867   18.4506 N   0  0  0  0  0  0  0  0  0  0  0  0
    9.4140  -13.2080   18.9246 C   0  0  0  0  0  0  0  0  0  0  0  0
    8.7578  -14.1479   19.8598 C   0  0  0  0  0  0  0  0  0  0  0  0
    7.5759  -13.9534   20.3049 O   0  0  0  0  0  0  0  0  0  0  0  0
    9.4748  -15.2946   20.2653 N   0  0  0  0  0  0  0  0  0  0  0  0
    8.8957  -16.3181   21.1721 C   0  0  1  0  0  0  0  0  0  0  0  0
    9.6208  -17.5681   20.8117 C   0  0  0  0  0  0  0  0  0  0  0  0
    9.3283  -18.7857   21.5986 C   0  0  0  0  0  0  0  0  0  0  0  0
   10.0756  -20.0107   21.0749 C   0  0  0  0  0  0  0  0  0  0  0  0
    9.7189  -21.1573   21.9719 C   0  0  0  0  0  0  0  0  0  0  0  0
   10.3910  -22.3841   21.6358 N   0  0  0  0  0  0  0  0  0  0  0  0
    9.2364  -15.8848   22.5330 C   0  0  0  0  0  0  0  0  0  0  0  0
   10.3209  -15.2407   22.7024 O   0  0  0  0  0  0  0  0  0  0  0  0
    8.4794  -16.0995   23.7096 N   0  0  0  0  0  0  0  0  0  0  0  0
    8.4114  -15.0429   24.7536 C   0  0  1  0  0  0  0  0  0  0  0  0
    7.0445  -14.4600   24.7922 C   0  0  0  0  0  0  0  0  0  0  0  0
    6.8948  -13.4388   25.8496 C   0  0  0  0  0  0  0  0  0  0  0  0
    7.7866  -12.8829   26.7345 C   0  0  0  0  0  0  0  0  0  0  0  0
    7.1944  -11.9037   27.4802 N   0  0  0  0  0  0  0  0  0  0  0  0
    5.9315  -11.8536   27.0523 C   0  0  0  0  0  0  0  0  0  0  0  0
    5.7204  -12.7514   26.0845 N   0  0  0  0  0  0  0  0  0  0  0  0
    8.7587  -15.7168   26.0567 C   0  0  0  0  0  0  0  0  0  0  0  0
    8.8016  -17.1298   26.1344 O   0  0  0  0  0  0  0  0  0  0  0  0
    9.0255  -15.1468   27.1261 O   0  0  0  0  0  0  0  0  0  0  0  0
  1  2  1  0
  3  2  1  0
  3  4  2  0
  5  3  1  0
  6 12  1  0
  6  5  1  0
  6  7  1  6
  8  7  1  0
  9  8  1  0
 10  9  1  0
 11 10  1  0
 12 14  1  0
 13 12  2  0
 14 15  1  0
 15 16  1  1
 17 16  1  0
 17 18  2  0
 19 18  1  0
 20 19  1  0
 21 20  2  0
 21 17  1  0
 22 15  1  0
 23 22  1  0
 24 22  2  0
M  END
$$$$
