GKH.pdb
     RDKit          3D

 24 24  0  0  1  0  0  0  0  0999 V2000
    7.6094  -20.6841   17.4515 N   0  0  0  0  0  0  0  0  0  0  0  0
    7.4952  -20.2107   18.8002 C   0  0  0  0  0  0  0  0  0  0  0  0
    8.1440  -18.8966   19.0024 C   0  0  0  0  0  0  0  0  0  0  0  0
    9.1427  -18.5144   18.3028 O   0  0  0  0  0  0  0  0  0  0  0  0
    7.6309  -18.0469   20.0064 N   0  0  0  0  0  0  0  0  0  0  0  0
    8.2027  -16.7050   20.2845 C   0  0  1  0  0  0  0  0  0  0  0  0
    7.1518  -16.0282   21.0942 C   0  0  0  0  0  0  0  0  0  0  0  0
    7.3530  -14.6022   21.4309 C   0  0  0  0  0  0  0  0  0  0  0  0
    7.7602  -13.7692   20.2169 C   0  0  0  0  0  0  0  0  0  0  0  0
    7.8473  -12.3442   20.6733 C   0  0  0  0  0  0  0  0  0  0  0  0
    8.2082  -11.4242   19.6278 N   0  0  0  0  0  0  0  0  0  0  0  0
    9.4115  -16.9434   21.0830 C   0  0  0  0  0  0  0  0  0  0  0  0
    9.3753  -17.8603   21.9650 O   0  0  0  0  0  0  0  0  0  0  0  0
   10.6470  -16.2600   20.9825 N   0  0  0  0  0  0  0  0  0  0  0  0
   11.7943  -16.6678   21.8360 C   0  0  1  0  0  0  0  0  0  0  0  0
   13.0230  -15.9509   21.4046 C   0  0  0  0  0  0  0  0  0  0  0  0
   14.2005  -16.3030   22.2248 C   0  0  0  0  0  0  0  0  0  0  0  0
   14.3942  -17.2316   23.2186 C   0  0  0  0  0  0  0  0  0  0  0  0
   15.6956  -17.2452   23.6328 N   0  0  0  0  0  0  0  0  0  0  0  0
   16.3088  -16.3217   22.8900 C   0  0  0  0  0  0  0  0  0  0  0  0
   15.4502  -15.7439   22.0437 N   0  0  0  0  0  0  0  0  0  0  0  0
   11.4152  -16.3072   23.2498 C   0  0  0  0  0  0  0  0  0  0  0  0
   11.9929  -17.0046   24.3382 O   0  0  0  0  0  0  0  0  0  0  0  0
   10.6130  -15.4233   23.5889 O   0  0  0  0  0  0  0  0  0  0  0  0
  1  2  1  0
  3  2  1  0
  3  4  2  0
  5  3  1  0
  6 12  1  0
  6  5  1  0
  6  7  1  1
  8  7  1  0
  9  8  1  0
 10  9  1  0
 11 10  1  0
 12 14  1  0
 13 12  2  0
 14 15  1  0
 15 16  1  6
 17 16  1  0
 17 18  2  0
 19 18  1  0
 20 19  1  0
 21 20  2  0
 21 17  1  0
 22 15  1  0
 23 22  1  0
 24 22  2  0
M  END
$$$$
