GKH.pdb
     RDKit          3D

 24 24  0  0  1  0  0  0  0  0999 V2000
    4.4283  -19.2962   22.4316 N   0  0  0  0  0  0  0  0  0  0  0  0
    4.6607  -17.9014   22.6695 C   0  0  0  0  0  0  0  0  0  0  0  0
    5.9199  -17.4190   22.0609 C   0  0  0  0  0  0  0  0  0  0  0  0
    6.8219  -18.2182   21.6362 O   0  0  0  0  0  0  0  0  0  0  0  0
    6.1171  -16.0251   21.9526 N   0  0  0  0  0  0  0  0  0  0  0  0
    7.3229  -15.4374   21.3158 C   0  0  1  0  0  0  0  0  0  0  0  0
    6.9076  -14.0483   20.9752 C   0  0  0  0  0  0  0  0  0  0  0  0
    7.7368  -13.2990   20.0066 C   0  0  0  0  0  0  0  0  0  0  0  0
    7.6651  -13.8895   18.5996 C   0  0  0  0  0  0  0  0  0  0  0  0
    8.4698  -12.9933   17.7074 C   0  0  0  0  0  0  0  0  0  0  0  0
    8.5134  -13.4306   16.3375 N   0  0  0  0  0  0  0  0  0  0  0  0
    8.3625  -15.4375   22.3525 C   0  0  0  0  0  0  0  0  0  0  0  0
    7.9949  -15.3715   23.5691 O   0  0  0  0  0  0  0  0  0  0  0  0
    9.7623  -15.5095   22.1548 N   0  0  0  0  0  0  0  0  0  0  0  0
   10.5876  -16.4122   23.0004 C   0  0  1  0  0  0  0  0  0  0  0  0
   10.0607  -17.7998   22.9195 C   0  0  0  0  0  0  0  0  0  0  0  0
   10.9014  -18.7677   23.6541 C   0  0  0  0  0  0  0  0  0  0  0  0
   11.5953  -18.6828   24.8367 C   0  0  0  0  0  0  0  0  0  0  0  0
   12.1697  -19.8798   25.1574 N   0  0  0  0  0  0  0  0  0  0  0  0
   11.8271  -20.7082   24.1689 C   0  0  0  0  0  0  0  0  0  0  0  0
   11.0739  -20.0800   23.2604 N   0  0  0  0  0  0  0  0  0  0  0  0
   11.9926  -16.3253   22.4607 C   0  0  0  0  0  0  0  0  0  0  0  0
   13.0968  -16.5356   23.3217 O   0  0  0  0  0  0  0  0  0  0  0  0
   12.3110  -16.0777   21.2872 O   0  0  0  0  0  0  0  0  0  0  0  0
  1  2  1  0
  3  2  1  0
  3  4  2  0
  5  3  1  0
  6 12  1  0
  6  5  1  0
  6  7  1  1
  8  7  1  0
  9  8  1  0
 10  9  1  0
 11 10  1  0
 12 14  1  0
 13 12  2  0
 14 15  1  0
 15 16  1  6
 17 16  1  0
 17 18  2  0
 19 18  1  0
 20 19  1  0
 21 20  2  0
 21 17  1  0
 22 15  1  0
 23 22  1  0
 24 22  2  0
M  END
$$$$
