PQY.pdb
     RDKit          3D

 29 30  0  0  1  0  0  0  0  0999 V2000
    9.5580  -14.5204   17.7067 N   0  0  0  0  0  0  0  0  0  0  0  0
    9.2104  -13.7456   16.5097 C   0  0  0  0  0  0  0  0  0  0  0  0
    7.6833  -13.6807   16.6062 C   0  0  0  0  0  0  0  0  0  0  0  0
    7.3779  -13.8855   18.0546 C   0  0  0  0  0  0  0  0  0  0  0  0
    8.7303  -13.9936   18.7742 C   0  0  1  0  0  0  0  0  0  0  0  0
    8.6171  -15.0438   19.8519 C   0  0  0  0  0  0  0  0  0  0  0  0
    7.7360  -14.8826   20.7674 O   0  0  0  0  0  0  0  0  0  0  0  0
   12.4030  -20.1496   20.5486 N   0  0  0  0  0  0  0  0  0  0  0  0
   11.6433  -20.1621   21.7627 C   0  0  0  0  0  0  0  0  0  0  0  0
   11.8095  -21.0524   22.6186 O   0  0  0  0  0  0  0  0  0  0  0  0
   10.6420  -19.0944   22.0039 C   0  0  0  0  0  0  0  0  0  0  0  0
   10.5513  -18.0775   20.9328 C   0  0  0  0  0  0  0  0  0  0  0  0
    9.4055  -17.0990   21.0257 C   0  0  2  0  0  0  0  0  0  0  0  0
    9.4314  -16.1858   19.8947 N   0  0  0  0  0  0  0  0  0  0  0  0
    9.5266  -16.3574   22.3054 C   0  0  0  0  0  0  0  0  0  0  0  0
   10.4417  -15.5297   22.4332 O   0  0  0  0  0  0  0  0  0  0  0  0
    6.5649  -10.8992   28.2937 O   0  0  0  0  0  0  0  0  0  0  0  0
    6.7027  -11.8451   27.2939 C   0  0  0  0  0  0  0  0  0  0  0  0
    5.9545  -12.9991   27.3161 C   0  0  0  0  0  0  0  0  0  0  0  0
    6.0906  -13.9437   26.3210 C   0  0  0  0  0  0  0  0  0  0  0  0
    6.9799  -13.7706   25.2653 C   0  0  0  0  0  0  0  0  0  0  0  0
    7.1667  -14.7802   24.2083 C   0  0  0  0  0  0  0  0  0  0  0  0
    8.4426  -15.5131   24.4001 C   0  0  2  0  0  0  0  0  0  0  0  0
    8.6393  -16.5542   23.3905 N   0  0  0  0  0  0  0  0  0  0  0  0
    8.5324  -16.0941   25.7526 C   0  0  0  0  0  0  0  0  0  0  0  0
    8.9934  -15.4271   26.8738 O   0  0  0  0  0  0  0  0  0  0  0  0
    7.7275  -12.6166   25.2434 C   0  0  0  0  0  0  0  0  0  0  0  0
    7.6001  -11.6656   26.2333 C   0  0  0  0  0  0  0  0  0  0  0  0
    8.1657  -17.2961   25.9159 O   0  0  0  0  0  0  0  0  0  0  0  0
  1  5  1  0
  2  1  1  0
  2  3  1  0
  3  4  1  0
  4  5  1  0
  5  6  1  1
  6  7  2  0
  8  9  1  0
  9 11  1  0
 10  9  2  0
 11 12  1  0
 13 12  1  6
 13 15  1  0
 13 14  1  0
 14  6  1  0
 15 24  1  0
 16 15  2  0
 18 17  1  0
 18 19  2  0
 20 19  1  0
 21 20  2  0
 22 21  1  0
 23 22  1  6
 23 25  1  0
 24 23  1  0
 25 29  2  0
 25 26  1  0
 27 28  2  0
 27 21  1  0
 28 18  1  0
M  END
$$$$
