PQY.pdb
     RDKit          3D

 29 30  0  0  1  0  0  0  0  0999 V2000
    9.2146  -13.8954   18.5511 N   0  0  0  0  0  0  0  0  0  0  0  0
    8.5815  -13.0415   17.5391 C   0  0  0  0  0  0  0  0  0  0  0  0
    7.0971  -13.3626   17.7365 C   0  0  0  0  0  0  0  0  0  0  0  0
    6.9939  -13.8696   19.1384 C   0  0  0  0  0  0  0  0  0  0  0  0
    8.4012  -13.7657   19.7444 C   0  0  1  0  0  0  0  0  0  0  0  0
    8.6380  -14.9743   20.6162 C   0  0  0  0  0  0  0  0  0  0  0  0
    7.9100  -15.1233   21.6593 O   0  0  0  0  0  0  0  0  0  0  0  0
   12.6669  -20.5643   19.8476 N   0  0  0  0  0  0  0  0  0  0  0  0
   12.4439  -19.8788   21.0852 C   0  0  0  0  0  0  0  0  0  0  0  0
   13.3435  -19.7859   21.9424 O   0  0  0  0  0  0  0  0  0  0  0  0
   11.1178  -19.2682   21.3485 C   0  0  0  0  0  0  0  0  0  0  0  0
   10.8571  -18.0124   20.6105 C   0  0  0  0  0  0  0  0  0  0  0  0
    9.8628  -17.0595   21.2289 C   0  0  2  0  0  0  0  0  0  0  0  0
    9.6171  -15.9395   20.3350 N   0  0  0  0  0  0  0  0  0  0  0  0
   10.4101  -16.5894   22.5257 C   0  0  0  0  0  0  0  0  0  0  0  0
   11.0991  -15.5581   22.5459 O   0  0  0  0  0  0  0  0  0  0  0  0
   10.7707  -13.8616   30.7049 O   0  0  0  0  0  0  0  0  0  0  0  0
   10.4036  -14.4188   29.4932 C   0  0  0  0  0  0  0  0  0  0  0  0
   10.2217  -15.7771   29.3755 C   0  0  0  0  0  0  0  0  0  0  0  0
    9.8564  -16.3349   28.1686 C   0  0  0  0  0  0  0  0  0  0  0  0
    9.6587  -15.5558   27.0332 C   0  0  0  0  0  0  0  0  0  0  0  0
    9.3003  -16.1320   25.7251 C   0  0  0  0  0  0  0  0  0  0  0  0
   10.5054  -16.6457   25.0283 C   0  0  2  0  0  0  0  0  0  0  0  0
   10.1785  -17.2692   23.7453 N   0  0  0  0  0  0  0  0  0  0  0  0
   11.2558  -17.5912   25.8756 C   0  0  0  0  0  0  0  0  0  0  0  0
   10.8125  -18.0976   27.0846 O   0  0  0  0  0  0  0  0  0  0  0  0
    9.8404  -14.1978   27.1515 C   0  0  0  0  0  0  0  0  0  0  0  0
   10.2061  -13.6294   28.3530 C   0  0  0  0  0  0  0  0  0  0  0  0
   12.3968  -17.9766   25.4811 O   0  0  0  0  0  0  0  0  0  0  0  0
  1  5  1  0
  2  1  1  0
  2  3  1  0
  3  4  1  0
  4  5  1  0
  5  6  1  1
  6  7  2  0
  8  9  1  0
  9 11  1  0
 10  9  2  0
 11 12  1  0
 13 12  1  6
 13 15  1  0
 13 14  1  0
 14  6  1  0
 15 24  1  0
 16 15  2  0
 18 17  1  0
 18 19  2  0
 20 19  1  0
 21 20  2  0
 22 21  1  0
 23 22  1  1
 23 25  1  0
 24 23  1  0
 25 29  2  0
 25 26  1  0
 27 28  2  0
 27 21  1  0
 28 18  1  0
M  END
$$$$
