PQY.pdb
     RDKit          3D

 29 30  0  0  1  0  0  0  0  0999 V2000
    8.3755  -15.0059   18.3050 N   0  0  0  0  0  0  0  0  0  0  0  0
    8.5237  -14.2617   17.0487 C   0  0  0  0  0  0  0  0  0  0  0  0
    7.7039  -12.9990   17.3293 C   0  0  0  0  0  0  0  0  0  0  0  0
    7.6746  -12.8794   18.8186 C   0  0  0  0  0  0  0  0  0  0  0  0
    8.5331  -14.0295   19.3652 C   0  0  1  0  0  0  0  0  0  0  0  0
    7.8746  -14.5687   20.6113 C   0  0  0  0  0  0  0  0  0  0  0  0
    7.7760  -13.7973   21.6290 O   0  0  0  0  0  0  0  0  0  0  0  0
    5.7628  -20.5484   21.5119 N   0  0  0  0  0  0  0  0  0  0  0  0
    5.4515  -19.9175   22.7595 C   0  0  0  0  0  0  0  0  0  0  0  0
    4.9104  -20.5515   23.6857 O   0  0  0  0  0  0  0  0  0  0  0  0
    5.7812  -18.4838   22.9506 C   0  0  0  0  0  0  0  0  0  0  0  0
    6.3913  -17.8267   21.7734 C   0  0  0  0  0  0  0  0  0  0  0  0
    6.7636  -16.3721   21.9292 C   0  0  2  0  0  0  0  0  0  0  0  0
    7.3667  -15.8736   20.7038 N   0  0  0  0  0  0  0  0  0  0  0  0
    7.7064  -16.2503   23.0687 C   0  0  0  0  0  0  0  0  0  0  0  0
    8.8902  -16.5825   22.9042 O   0  0  0  0  0  0  0  0  0  0  0  0
   11.4511  -14.5888   30.8507 O   0  0  0  0  0  0  0  0  0  0  0  0
   10.5325  -14.7177   29.8246 C   0  0  0  0  0  0  0  0  0  0  0  0
   10.3016  -13.6744   28.9585 C   0  0  0  0  0  0  0  0  0  0  0  0
    9.3859  -13.8003   27.9354 C   0  0  0  0  0  0  0  0  0  0  0  0
    8.6660  -14.9744   27.7389 C   0  0  0  0  0  0  0  0  0  0  0  0
    7.6589  -15.1216   26.6734 C   0  0  0  0  0  0  0  0  0  0  0  0
    8.2819  -15.6319   25.4271 C   0  0  2  0  0  0  0  0  0  0  0  0
    7.3118  -15.7692   24.3400 N   0  0  0  0  0  0  0  0  0  0  0  0
    8.9728  -16.9146   25.6559 C   0  0  0  0  0  0  0  0  0  0  0  0
    8.3452  -18.1392   25.8004 O   0  0  0  0  0  0  0  0  0  0  0  0
    8.8974  -16.0173   28.6050 C   0  0  0  0  0  0  0  0  0  0  0  0
    9.8102  -15.9024   29.6317 C   0  0  0  0  0  0  0  0  0  0  0  0
   10.2379  -16.9108   25.7312 O   0  0  0  0  0  0  0  0  0  0  0  0
  1  5  1  0
  2  1  1  0
  2  3  1  0
  3  4  1  0
  4  5  1  0
  5  6  1  1
  6  7  2  0
  8  9  1  0
  9 11  1  0
 10  9  2  0
 11 12  1  0
 13 12  1  6
 13 15  1  0
 13 14  1  0
 14  6  1  0
 15 24  1  0
 16 15  2  0
 18 17  1  0
 18 19  2  0
 20 19  1  0
 21 20  2  0
 22 21  1  0
 23 22  1  1
 23 25  1  0
 24 23  1  0
 25 29  2  0
 25 26  1  0
 27 28  2  0
 27 21  1  0
 28 18  1  0
M  END
$$$$
