PQY.pdb
     RDKit          3D

 29 30  0  0  1  0  0  0  0  0999 V2000
    8.4491  -15.0035   18.2358 N   0  0  0  0  0  0  0  0  0  0  0  0
    8.4337  -14.1385   17.0502 C   0  0  0  0  0  0  0  0  0  0  0  0
    7.5221  -12.9946   17.5039 C   0  0  0  0  0  0  0  0  0  0  0  0
    7.5919  -13.0127   18.9965 C   0  0  0  0  0  0  0  0  0  0  0  0
    8.5924  -14.1153   19.3728 C   0  0  1  0  0  0  0  0  0  0  0  0
    8.0813  -14.8274   20.6011 C   0  0  0  0  0  0  0  0  0  0  0  0
    8.0033  -14.1690   21.6970 O   0  0  0  0  0  0  0  0  0  0  0  0
    4.7851  -19.9699   21.0680 N   0  0  0  0  0  0  0  0  0  0  0  0
    5.2927  -19.9201   22.4063 C   0  0  0  0  0  0  0  0  0  0  0  0
    4.7509  -20.5628   23.3262 O   0  0  0  0  0  0  0  0  0  0  0  0
    6.4857  -19.0887   22.7001 C   0  0  0  0  0  0  0  0  0  0  0  0
    6.9834  -18.2939   21.5554 C   0  0  0  0  0  0  0  0  0  0  0  0
    7.1104  -16.8052   21.7711 C   0  0  2  0  0  0  0  0  0  0  0  0
    7.6882  -16.1745   20.5955 N   0  0  0  0  0  0  0  0  0  0  0  0
    7.9619  -16.5767   22.9648 C   0  0  0  0  0  0  0  0  0  0  0  0
    9.1805  -16.7926   22.8809 O   0  0  0  0  0  0  0  0  0  0  0  0
   10.9422  -14.5232   30.9823 O   0  0  0  0  0  0  0  0  0  0  0  0
   10.1420  -14.6657   29.8631 C   0  0  0  0  0  0  0  0  0  0  0  0
    9.9972  -13.6286   28.9713 C   0  0  0  0  0  0  0  0  0  0  0  0
    9.1996  -13.7680   27.8552 C   0  0  0  0  0  0  0  0  0  0  0  0
    8.5164  -14.9500   27.5880 C   0  0  0  0  0  0  0  0  0  0  0  0
    7.6327  -15.1117   26.4200 C   0  0  0  0  0  0  0  0  0  0  0  0
    8.3254  -15.8483   25.3339 C   0  0  2  0  0  0  0  0  0  0  0  0
    7.4417  -16.1207   24.1996 N   0  0  0  0  0  0  0  0  0  0  0  0
    8.9189  -17.1046   25.8282 C   0  0  0  0  0  0  0  0  0  0  0  0
   10.2331  -17.2558   26.2337 O   0  0  0  0  0  0  0  0  0  0  0  0
    8.6616  -15.9866   28.4798 C   0  0  0  0  0  0  0  0  0  0  0  0
    9.4560  -15.8582   29.5992 C   0  0  0  0  0  0  0  0  0  0  0  0
    8.1822  -18.1341   25.8894 O   0  0  0  0  0  0  0  0  0  0  0  0
  1  5  1  0
  2  1  1  0
  2  3  1  0
  3  4  1  0
  4  5  1  0
  5  6  1  1
  6  7  2  0
  8  9  1  0
  9 11  1  0
 10  9  2  0
 11 12  1  0
 13 12  1  6
 13 15  1  0
 13 14  1  0
 14  6  1  0
 15 24  1  0
 16 15  2  0
 18 17  1  0
 18 19  2  0
 20 19  1  0
 21 20  2  0
 22 21  1  0
 23 22  1  1
 23 25  1  0
 24 23  1  0
 25 29  2  0
 25 26  1  0
 27 28  2  0
 27 21  1  0
 28 18  1  0
M  END
$$$$
