PQY.pdb
     RDKit          3D

 29 30  0  0  1  0  0  0  0  0999 V2000
    9.1876  -14.0172   19.3310 N   0  0  0  0  0  0  0  0  0  0  0  0
    8.9287  -13.1090   18.2074 C   0  0  0  0  0  0  0  0  0  0  0  0
    7.4163  -12.8935   18.3156 C   0  0  0  0  0  0  0  0  0  0  0  0
    7.0840  -13.1906   19.7419 C   0  0  0  0  0  0  0  0  0  0  0  0
    8.4141  -13.5017   20.4438 C   0  0  1  0  0  0  0  0  0  0  0  0
    8.1864  -14.6240   21.4264 C   0  0  0  0  0  0  0  0  0  0  0  0
    7.3358  -14.4452   22.3671 O   0  0  0  0  0  0  0  0  0  0  0  0
   10.6959  -21.2869   23.0900 N   0  0  0  0  0  0  0  0  0  0  0  0
    9.7764  -20.6105   22.2250 C   0  0  0  0  0  0  0  0  0  0  0  0
    9.5410  -21.0331   21.0765 O   0  0  0  0  0  0  0  0  0  0  0  0
    9.0922  -19.3857   22.7072 C   0  0  0  0  0  0  0  0  0  0  0  0
    9.3086  -18.1853   21.8695 C   0  0  0  0  0  0  0  0  0  0  0  0
    8.5972  -16.9249   22.2987 C   0  0  2  0  0  0  0  0  0  0  0  0
    8.8629  -15.8515   21.3548 N   0  0  0  0  0  0  0  0  0  0  0  0
    9.0693  -16.5613   23.6578 C   0  0  0  0  0  0  0  0  0  0  0  0
   10.1377  -15.9419   23.7744 O   0  0  0  0  0  0  0  0  0  0  0  0
    6.1811  -10.7467   25.6873 O   0  0  0  0  0  0  0  0  0  0  0  0
    6.5608  -12.0331   26.0253 C   0  0  0  0  0  0  0  0  0  0  0  0
    7.8316  -12.2882   26.4857 C   0  0  0  0  0  0  0  0  0  0  0  0
    8.2127  -13.5698   26.8226 C   0  0  0  0  0  0  0  0  0  0  0  0
    7.3375  -14.6455   26.7123 C   0  0  0  0  0  0  0  0  0  0  0  0
    7.7314  -16.0283   27.0350 C   0  0  0  0  0  0  0  0  0  0  0  0
    8.8332  -16.4816   26.1505 C   0  0  2  0  0  0  0  0  0  0  0  0
    8.3501  -16.8916   24.8312 N   0  0  0  0  0  0  0  0  0  0  0  0
    9.6068  -17.5739   26.7697 C   0  0  0  0  0  0  0  0  0  0  0  0
    9.7781  -18.8336   26.2236 O   0  0  0  0  0  0  0  0  0  0  0  0
    6.0670  -14.3899   26.2522 C   0  0  0  0  0  0  0  0  0  0  0  0
    5.6754  -13.1127   25.9119 C   0  0  0  0  0  0  0  0  0  0  0  0
   10.1607  -17.3585   27.8890 O   0  0  0  0  0  0  0  0  0  0  0  0
  1  5  1  0
  2  1  1  0
  2  3  1  0
  3  4  1  0
  4  5  1  0
  5  6  1  1
  6  7  2  0
  8  9  1  0
  9 11  1  0
 10  9  2  0
 11 12  1  0
 13 12  1  6
 13 15  1  0
 13 14  1  0
 14  6  1  0
 15 24  1  0
 16 15  2  0
 18 17  1  0
 18 19  2  0
 20 19  1  0
 21 20  2  0
 22 21  1  0
 23 22  1  1
 23 25  1  0
 24 23  1  0
 25 29  2  0
 25 26  1  0
 27 28  2  0
 27 21  1  0
 28 18  1  0
M  END
$$$$
