PQY.pdb
     RDKit          3D

 29 30  0  0  1  0  0  0  0  0999 V2000
    8.4773  -15.0374   18.2762 N   0  0  0  0  0  0  0  0  0  0  0  0
    8.4842  -14.1758   17.0880 C   0  0  0  0  0  0  0  0  0  0  0  0
    7.5640  -13.0307   17.5211 C   0  0  0  0  0  0  0  0  0  0  0  0
    7.6055  -13.0446   19.0148 C   0  0  0  0  0  0  0  0  0  0  0  0
    8.5989  -14.1459   19.4132 C   0  0  1  0  0  0  0  0  0  0  0  0
    8.0647  -14.8545   20.6336 C   0  0  0  0  0  0  0  0  0  0  0  0
    7.9863  -14.1992   21.7313 O   0  0  0  0  0  0  0  0  0  0  0  0
    4.2437  -19.0039   21.2932 N   0  0  0  0  0  0  0  0  0  0  0  0
    4.8941  -19.3611   22.5182 C   0  0  0  0  0  0  0  0  0  0  0  0
    4.2614  -19.8840   23.4559 O   0  0  0  0  0  0  0  0  0  0  0  0
    6.3471  -19.1041   22.6710 C   0  0  0  0  0  0  0  0  0  0  0  0
    6.9559  -18.3205   21.5733 C   0  0  0  0  0  0  0  0  0  0  0  0
    7.0933  -16.8344   21.7998 C   0  0  2  0  0  0  0  0  0  0  0  0
    7.6506  -16.1953   20.6189 N   0  0  0  0  0  0  0  0  0  0  0  0
    7.9690  -16.6202   22.9786 C   0  0  0  0  0  0  0  0  0  0  0  0
    9.1898  -16.8044   22.8586 O   0  0  0  0  0  0  0  0  0  0  0  0
   11.2134  -14.3545   30.8270 O   0  0  0  0  0  0  0  0  0  0  0  0
   10.3611  -14.5727   29.7595 C   0  0  0  0  0  0  0  0  0  0  0  0
   10.0873  -13.5629   28.8665 C   0  0  0  0  0  0  0  0  0  0  0  0
    9.2377  -13.7778   27.8021 C   0  0  0  0  0  0  0  0  0  0  0  0
    8.6293  -15.0107   27.5896 C   0  0  0  0  0  0  0  0  0  0  0  0
    7.6925  -15.2551   26.4787 C   0  0  0  0  0  0  0  0  0  0  0  0
    8.3753  -15.9455   25.3567 C   0  0  2  0  0  0  0  0  0  0  0  0
    7.4695  -16.2127   24.2387 N   0  0  0  0  0  0  0  0  0  0  0  0
    9.0138  -17.1977   25.8030 C   0  0  0  0  0  0  0  0  0  0  0  0
   10.3356  -17.3192   26.1937 O   0  0  0  0  0  0  0  0  0  0  0  0
    8.9036  -16.0200   28.4825 C   0  0  0  0  0  0  0  0  0  0  0  0
    9.7511  -15.8163   29.5506 C   0  0  0  0  0  0  0  0  0  0  0  0
    8.3119  -18.2525   25.8340 O   0  0  0  0  0  0  0  0  0  0  0  0
  1  5  1  0
  2  1  1  0
  2  3  1  0
  3  4  1  0
  4  5  1  0
  5  6  1  1
  6  7  2  0
  8  9  1  0
  9 11  1  0
 10  9  2  0
 11 12  1  0
 13 12  1  6
 13 15  1  0
 13 14  1  0
 14  6  1  0
 15 24  1  0
 16 15  2  0
 18 17  1  0
 18 19  2  0
 20 19  1  0
 21 20  2  0
 22 21  1  0
 23 22  1  1
 23 25  1  0
 24 23  1  0
 25 29  2  0
 25 26  1  0
 27 28  2  0
 27 21  1  0
 28 18  1  0
M  END
$$$$
