PQY.pdb
     RDKit          3D

 29 30  0  0  1  0  0  0  0  0999 V2000
    7.9519  -15.1116   18.1824 N   0  0  0  0  0  0  0  0  0  0  0  0
    7.8158  -14.4769   16.8661 C   0  0  0  0  0  0  0  0  0  0  0  0
    7.2365  -13.1073   17.2326 C   0  0  0  0  0  0  0  0  0  0  0  0
    7.6371  -12.8857   18.6551 C   0  0  0  0  0  0  0  0  0  0  0  0
    8.4958  -14.0930   19.0594 C   0  0  1  0  0  0  0  0  0  0  0  0
    8.1621  -14.4629   20.4837 C   0  0  0  0  0  0  0  0  0  0  0  0
    8.4484  -13.6277   21.4116 O   0  0  0  0  0  0  0  0  0  0  0  0
    6.3646  -20.2423   22.5277 N   0  0  0  0  0  0  0  0  0  0  0  0
    6.4145  -19.4853   23.7425 C   0  0  0  0  0  0  0  0  0  0  0  0
    6.1391  -20.0075   24.8399 O   0  0  0  0  0  0  0  0  0  0  0  0
    6.8024  -18.0544   23.6912 C   0  0  0  0  0  0  0  0  0  0  0  0
    6.9839  -17.5108   22.3269 C   0  0  0  0  0  0  0  0  0  0  0  0
    7.3321  -16.0455   22.2244 C   0  0  2  0  0  0  0  0  0  0  0  0
    7.5533  -15.6774   20.8354 N   0  0  0  0  0  0  0  0  0  0  0  0
    8.5488  -15.7962   23.0366 C   0  0  0  0  0  0  0  0  0  0  0  0
    9.6595  -16.0390   22.5406 O   0  0  0  0  0  0  0  0  0  0  0  0
   10.4268  -16.6123   31.1490 O   0  0  0  0  0  0  0  0  0  0  0  0
   10.1837  -15.9745   29.9459 C   0  0  0  0  0  0  0  0  0  0  0  0
    9.0905  -16.3143   29.1835 C   0  0  0  0  0  0  0  0  0  0  0  0
    8.8464  -15.6804   27.9836 C   0  0  0  0  0  0  0  0  0  0  0  0
    9.6862  -14.6822   27.5001 C   0  0  0  0  0  0  0  0  0  0  0  0
    9.4645  -14.0135   26.2058 C   0  0  0  0  0  0  0  0  0  0  0  0
    9.7213  -14.9463   25.0807 C   0  0  2  0  0  0  0  0  0  0  0  0
    8.4964  -15.2909   24.3577 N   0  0  0  0  0  0  0  0  0  0  0  0
   10.4009  -16.1716   25.5408 C   0  0  0  0  0  0  0  0  0  0  0  0
    9.8170  -17.4241   25.6115 O   0  0  0  0  0  0  0  0  0  0  0  0
   10.7789  -14.3427   28.2628 C   0  0  0  0  0  0  0  0  0  0  0  0
   11.0329  -14.9701   29.4637 C   0  0  0  0  0  0  0  0  0  0  0  0
   11.6117  -16.0866   25.9054 O   0  0  0  0  0  0  0  0  0  0  0  0
  1  5  1  0
  2  1  1  0
  2  3  1  0
  3  4  1  0
  4  5  1  0
  5  6  1  1
  6  7  2  0
  8  9  1  0
  9 11  1  0
 10  9  2  0
 11 12  1  0
 13 12  1  6
 13 15  1  0
 13 14  1  0
 14  6  1  0
 15 24  1  0
 16 15  2  0
 18 17  1  0
 18 19  2  0
 20 19  1  0
 21 20  2  0
 22 21  1  0
 23 22  1  1
 23 25  1  0
 24 23  1  0
 25 29  2  0
 25 26  1  0
 27 28  2  0
 27 21  1  0
 28 18  1  0
M  END
$$$$
