PQY.pdb
     RDKit          3D

 29 30  0  0  1  0  0  0  0  0999 V2000
    8.4914  -15.1443   19.4614 N   0  0  0  0  0  0  0  0  0  0  0  0
    8.3764  -14.3639   18.2237 C   0  0  0  0  0  0  0  0  0  0  0  0
    7.2384  -13.3968   18.5631 C   0  0  0  0  0  0  0  0  0  0  0  0
    7.2271  -13.3207   20.0554 C   0  0  0  0  0  0  0  0  0  0  0  0
    8.3980  -14.1855   20.5449 C   0  0  1  0  0  0  0  0  0  0  0  0
    7.9654  -14.9164   21.7921 C   0  0  0  0  0  0  0  0  0  0  0  0
    7.6411  -14.2249   22.8203 O   0  0  0  0  0  0  0  0  0  0  0  0
    5.7087  -20.5957   22.2040 N   0  0  0  0  0  0  0  0  0  0  0  0
    5.9881  -20.3848   23.5928 C   0  0  0  0  0  0  0  0  0  0  0  0
    5.4557  -21.0891   24.4722 O   0  0  0  0  0  0  0  0  0  0  0  0
    6.9292  -19.3087   23.9891 C   0  0  0  0  0  0  0  0  0  0  0  0
    7.4343  -18.4846   22.8687 C   0  0  0  0  0  0  0  0  0  0  0  0
    7.4041  -16.9880   23.0638 C   0  0  2  0  0  0  0  0  0  0  0  0
    7.9021  -16.3159   21.8747 N   0  0  0  0  0  0  0  0  0  0  0  0
    8.2361  -16.6538   24.2463 C   0  0  0  0  0  0  0  0  0  0  0  0
    9.4627  -16.5381   24.1016 O   0  0  0  0  0  0  0  0  0  0  0  0
    6.2997  -10.2847   25.2684 O   0  0  0  0  0  0  0  0  0  0  0  0
    6.6686  -11.4902   25.8376 C   0  0  0  0  0  0  0  0  0  0  0  0
    5.7213  -12.4441   26.1286 C   0  0  0  0  0  0  0  0  0  0  0  0
    6.0864  -13.6463   26.6966 C   0  0  0  0  0  0  0  0  0  0  0  0
    7.4128  -13.9408   26.9953 C   0  0  0  0  0  0  0  0  0  0  0  0
    7.8234  -15.2046   27.6322 C   0  0  0  0  0  0  0  0  0  0  0  0
    8.5375  -16.0739   26.6646 C   0  0  2  0  0  0  0  0  0  0  0  0
    7.6884  -16.4600   25.5369 N   0  0  0  0  0  0  0  0  0  0  0  0
    9.0858  -17.2749   27.3217 C   0  0  0  0  0  0  0  0  0  0  0  0
   10.0373  -17.2653   28.3264 O   0  0  0  0  0  0  0  0  0  0  0  0
    8.3595  -12.9869   26.7040 C   0  0  0  0  0  0  0  0  0  0  0  0
    8.0058  -11.7813   26.1365 C   0  0  0  0  0  0  0  0  0  0  0  0
    8.6655  -18.4101   26.9467 O   0  0  0  0  0  0  0  0  0  0  0  0
  1  5  1  0
  2  1  1  0
  2  3  1  0
  3  4  1  0
  4  5  1  0
  5  6  1  1
  6  7  2  0
  8  9  1  0
  9 11  1  0
 10  9  2  0
 11 12  1  0
 13 12  1  6
 13 15  1  0
 13 14  1  0
 14  6  1  0
 15 24  1  0
 16 15  2  0
 18 17  1  0
 18 19  2  0
 20 19  1  0
 21 20  2  0
 22 21  1  0
 23 22  1  1
 23 25  1  0
 24 23  1  0
 25 29  2  0
 25 26  1  0
 27 28  2  0
 27 21  1  0
 28 18  1  0
M  END
$$$$
