PQY.pdb
     RDKit          3D

 29 30  0  0  1  0  0  0  0  0999 V2000
    9.2753  -14.0318   19.1002 N   0  0  0  0  0  0  0  0  0  0  0  0
    8.9764  -13.1134   17.9950 C   0  0  0  0  0  0  0  0  0  0  0  0
    7.4704  -12.8926   18.1643 C   0  0  0  0  0  0  0  0  0  0  0  0
    7.1932  -13.2000   19.6002 C   0  0  0  0  0  0  0  0  0  0  0  0
    8.5484  -13.5222   20.2467 C   0  0  1  0  0  0  0  0  0  0  0  0
    8.3546  -14.6517   21.2283 C   0  0  0  0  0  0  0  0  0  0  0  0
    7.5770  -14.4613   22.2281 O   0  0  0  0  0  0  0  0  0  0  0  0
   11.1241  -21.1417   23.0242 N   0  0  0  0  0  0  0  0  0  0  0  0
   10.2033  -20.5636   22.0919 C   0  0  0  0  0  0  0  0  0  0  0  0
   10.0726  -21.0271   20.9425 O   0  0  0  0  0  0  0  0  0  0  0  0
    9.3909  -19.3929   22.5042 C   0  0  0  0  0  0  0  0  0  0  0  0
    9.5585  -18.1930   21.6546 C   0  0  0  0  0  0  0  0  0  0  0  0
    8.7873  -16.9618   22.0647 C   0  0  2  0  0  0  0  0  0  0  0  0
    8.9862  -15.8976   21.0943 N   0  0  0  0  0  0  0  0  0  0  0  0
    9.2549  -16.5437   23.4096 C   0  0  0  0  0  0  0  0  0  0  0  0
   10.3622  -15.9947   23.5143 O   0  0  0  0  0  0  0  0  0  0  0  0
    6.1081  -10.6442   25.8316 O   0  0  0  0  0  0  0  0  0  0  0  0
    6.5387  -11.9384   26.0618 C   0  0  0  0  0  0  0  0  0  0  0  0
    5.6456  -12.9844   26.0494 C   0  0  0  0  0  0  0  0  0  0  0  0
    6.0724  -14.2752   26.2792 C   0  0  0  0  0  0  0  0  0  0  0  0
    7.4087  -14.5696   26.5300 C   0  0  0  0  0  0  0  0  0  0  0  0
    7.8835  -15.9361   26.8107 C   0  0  0  0  0  0  0  0  0  0  0  0
    8.9847  -16.3104   25.8892 C   0  0  2  0  0  0  0  0  0  0  0  0
    8.4886  -16.7447   24.5826 N   0  0  0  0  0  0  0  0  0  0  0  0
    9.8482  -17.3518   26.4761 C   0  0  0  0  0  0  0  0  0  0  0  0
   10.0550  -18.6087   25.9357 O   0  0  0  0  0  0  0  0  0  0  0  0
    8.3013  -13.5235   26.5420 C   0  0  0  0  0  0  0  0  0  0  0  0
    7.8857  -12.2290   26.3141 C   0  0  0  0  0  0  0  0  0  0  0  0
   10.4515  -17.0919   27.5599 O   0  0  0  0  0  0  0  0  0  0  0  0
  1  5  1  0
  2  1  1  0
  2  3  1  0
  3  4  1  0
  4  5  1  0
  5  6  1  1
  6  7  2  0
  8  9  1  0
  9 11  1  0
 10  9  2  0
 11 12  1  0
 13 12  1  6
 13 15  1  0
 13 14  1  0
 14  6  1  0
 15 24  1  0
 16 15  2  0
 18 17  1  0
 18 19  2  0
 20 19  1  0
 21 20  2  0
 22 21  1  0
 23 22  1  1
 23 25  1  0
 24 23  1  0
 25 29  2  0
 25 26  1  0
 27 28  2  0
 27 21  1  0
 28 18  1  0
M  END
$$$$
