PQY.pdb
     RDKit          3D

 29 30  0  0  1  0  0  0  0  0999 V2000
    9.0800  -14.3588   17.9269 N   0  0  0  0  0  0  0  0  0  0  0  0
    8.8515  -13.4903   16.7660 C   0  0  0  0  0  0  0  0  0  0  0  0
    7.4388  -12.9645   17.0364 C   0  0  0  0  0  0  0  0  0  0  0  0
    7.2527  -13.0963   18.5132 C   0  0  0  0  0  0  0  0  0  0  0  0
    8.5802  -13.6267   19.0743 C   0  0  1  0  0  0  0  0  0  0  0  0
    8.2753  -14.6142   20.1737 C   0  0  0  0  0  0  0  0  0  0  0  0
    7.5569  -14.2236   21.1596 O   0  0  0  0  0  0  0  0  0  0  0  0
    9.3543  -20.4851   18.0465 N   0  0  0  0  0  0  0  0  0  0  0  0
    8.7787  -20.2147   19.3298 C   0  0  0  0  0  0  0  0  0  0  0  0
    8.6652  -21.1113   20.1878 O   0  0  0  0  0  0  0  0  0  0  0  0
    8.3112  -18.8418   19.6415 C   0  0  0  0  0  0  0  0  0  0  0  0
    8.8838  -18.2580   20.8748 C   0  0  0  0  0  0  0  0  0  0  0  0
    8.4278  -16.8655   21.2378 C   0  0  2  0  0  0  0  0  0  0  0  0
    8.7420  -15.9376   20.1635 N   0  0  0  0  0  0  0  0  0  0  0  0
    9.1050  -16.4649   22.4960 C   0  0  0  0  0  0  0  0  0  0  0  0
   10.3195  -16.2141   22.4683 O   0  0  0  0  0  0  0  0  0  0  0  0
   10.8939  -14.5516   30.9015 O   0  0  0  0  0  0  0  0  0  0  0  0
   10.2488  -14.7611   29.6960 C   0  0  0  0  0  0  0  0  0  0  0  0
   10.0722  -13.7248   28.8089 C   0  0  0  0  0  0  0  0  0  0  0  0
    9.4290  -13.9310   27.6068 C   0  0  0  0  0  0  0  0  0  0  0  0
    8.9378  -15.1814   27.2456 C   0  0  0  0  0  0  0  0  0  0  0  0
    8.2184  -15.4191   25.9818 C   0  0  0  0  0  0  0  0  0  0  0  0
    9.1322  -15.9731   24.9522 C   0  0  2  0  0  0  0  0  0  0  0  0
    8.4222  -16.3556   23.7310 N   0  0  0  0  0  0  0  0  0  0  0  0
    9.8997  -17.1195   25.4734 C   0  0  0  0  0  0  0  0  0  0  0  0
   11.1709  -17.0433   26.0145 O   0  0  0  0  0  0  0  0  0  0  0  0
    9.1148  -16.2172   28.1327 C   0  0  0  0  0  0  0  0  0  0  0  0
    9.7559  -16.0224   29.3375 C   0  0  0  0  0  0  0  0  0  0  0  0
    9.3689  -18.2693   25.4265 O   0  0  0  0  0  0  0  0  0  0  0  0
  1  5  1  0
  2  1  1  0
  2  3  1  0
  3  4  1  0
  4  5  1  0
  5  6  1  1
  6  7  2  0
  8  9  1  0
  9 11  1  0
 10  9  2  0
 11 12  1  0
 13 12  1  6
 13 15  1  0
 13 14  1  0
 14  6  1  0
 15 24  1  0
 16 15  2  0
 18 17  1  0
 18 19  2  0
 20 19  1  0
 21 20  2  0
 22 21  1  0
 23 22  1  1
 23 25  1  0
 24 23  1  0
 25 29  2  0
 25 26  1  0
 27 28  2  0
 27 21  1  0
 28 18  1  0
M  END
$$$$
