PQY.pdb
     RDKit          3D

 29 30  0  0  1  0  0  0  0  0999 V2000
    8.7335  -15.1240   18.6217 N   0  0  0  0  0  0  0  0  0  0  0  0
    8.6945  -14.3577   17.3705 C   0  0  0  0  0  0  0  0  0  0  0  0
    7.8246  -13.1588   17.7597 C   0  0  0  0  0  0  0  0  0  0  0  0
    7.9471  -13.0577   19.2455 C   0  0  0  0  0  0  0  0  0  0  0  0
    8.9364  -14.1504   19.6768 C   0  0  1  0  0  0  0  0  0  0  0  0
    8.4541  -14.7479   20.9757 C   0  0  0  0  0  0  0  0  0  0  0  0
    8.4715  -14.0145   22.0257 O   0  0  0  0  0  0  0  0  0  0  0  0
    5.7059  -19.9301   23.6794 N   0  0  0  0  0  0  0  0  0  0  0  0
    5.0987  -19.3741   22.5075 C   0  0  0  0  0  0  0  0  0  0  0  0
    3.9446  -19.6955   22.1645 O   0  0  0  0  0  0  0  0  0  0  0  0
    5.8587  -18.3974   21.6894 C   0  0  0  0  0  0  0  0  0  0  0  0
    7.2116  -18.0826   22.1996 C   0  0  0  0  0  0  0  0  0  0  0  0
    7.5513  -16.6201   22.3554 C   0  0  2  0  0  0  0  0  0  0  0  0
    7.9881  -16.0672   21.0837 N   0  0  0  0  0  0  0  0  0  0  0  0
    8.6179  -16.4944   23.3796 C   0  0  0  0  0  0  0  0  0  0  0  0
    9.7827  -16.7872   23.0697 O   0  0  0  0  0  0  0  0  0  0  0  0
    4.6902  -12.0366   27.1143 O   0  0  0  0  0  0  0  0  0  0  0  0
    5.9029  -12.6663   26.8991 C   0  0  0  0  0  0  0  0  0  0  0  0
    7.0639  -12.1421   27.4179 C   0  0  0  0  0  0  0  0  0  0  0  0
    8.2740  -12.7676   27.2042 C   0  0  0  0  0  0  0  0  0  0  0  0
    8.3695  -13.9413   26.4636 C   0  0  0  0  0  0  0  0  0  0  0  0
    9.6547  -14.6099   26.1941 C   0  0  0  0  0  0  0  0  0  0  0  0
    9.4354  -15.9893   25.6931 C   0  0  2  0  0  0  0  0  0  0  0  0
    8.3624  -16.0528   24.6999 N   0  0  0  0  0  0  0  0  0  0  0  0
    9.1606  -16.9267   26.7978 C   0  0  0  0  0  0  0  0  0  0  0  0
   10.0168  -17.1808   27.8547 O   0  0  0  0  0  0  0  0  0  0  0  0
    7.2084  -14.4651   25.9453 C   0  0  0  0  0  0  0  0  0  0  0  0
    5.9932  -13.8480   26.1522 C   0  0  0  0  0  0  0  0  0  0  0  0
    8.0614  -17.5576   26.7915 O   0  0  0  0  0  0  0  0  0  0  0  0
  1  5  1  0
  2  1  1  0
  2  3  1  0
  3  4  1  0
  4  5  1  0
  5  6  1  1
  6  7  2  0
  8  9  1  0
  9 11  1  0
 10  9  2  0
 11 12  1  0
 13 12  1  6
 13 15  1  0
 13 14  1  0
 14  6  1  0
 15 24  1  0
 16 15  2  0
 18 17  1  0
 18 19  2  0
 20 19  1  0
 21 20  2  0
 22 21  1  0
 23 22  1  1
 23 25  1  0
 24 23  1  0
 25 29  2  0
 25 26  1  0
 27 28  2  0
 27 21  1  0
 28 18  1  0
M  END
$$$$
