GEQ.pdb
     RDKit          3D

 23 22  0  0  1  0  0  0  0  0999 V2000
    7.4442  -13.3030   18.4147 N   0  0  0  0  0  0  0  0  0  0  0  0
    8.2003  -12.9656   19.5916 C   0  0  0  0  0  0  0  0  0  0  0  0
    8.2030  -14.1318   20.5624 C   0  0  0  0  0  0  0  0  0  0  0  0
    7.1225  -14.5856   20.8497 O   0  0  0  0  0  0  0  0  0  0  0  0
    9.4046  -14.6395   21.0842 N   0  0  0  0  0  0  0  0  0  0  0  0
    9.7315  -15.6747   21.9559 C   0  0  1  0  0  0  0  0  0  0  0  0
   11.0998  -16.3427   21.7920 C   0  0  0  0  0  0  0  0  0  0  0  0
   11.3737  -17.5388   22.6260 C   0  0  0  0  0  0  0  0  0  0  0  0
   12.6845  -18.0802   22.2234 C   0  0  0  0  0  0  0  0  0  0  0  0
   13.7348  -17.4615   22.3932 O   0  0  0  0  0  0  0  0  0  0  0  0
    9.5948  -15.4487   23.3832 C   0  0  0  0  0  0  0  0  0  0  0  0
   10.4592  -14.5866   23.8489 O   0  0  0  0  0  0  0  0  0  0  0  0
   12.7000  -19.3607   21.6174 O   0  0  0  0  0  0  0  0  0  0  0  0
    6.7150  -12.1258   25.5235 N   0  0  0  0  0  0  0  0  0  0  0  0
    6.7918  -13.3599   26.2326 C   0  0  0  0  0  0  0  0  0  0  0  0
    7.2084  -13.2868   27.4342 O   0  0  0  0  0  0  0  0  0  0  0  0
    6.4072  -14.6476   25.5891 C   0  0  0  0  0  0  0  0  0  0  0  0
    7.1609  -15.8330   26.0533 C   0  0  0  0  0  0  0  0  0  0  0  0
    8.6289  -15.8561   25.6896 C   0  0  2  0  0  0  0  0  0  0  0  0
    8.6769  -16.0307   24.2182 N   0  0  0  0  0  0  0  0  0  0  0  0
    9.3743  -16.9275   26.3433 C   0  0  0  0  0  0  0  0  0  0  0  0
    9.6464  -16.8669   27.6935 O   0  0  0  0  0  0  0  0  0  0  0  0
    9.7759  -17.9332   25.7094 O   0  0  0  0  0  0  0  0  0  0  0  0
  1  2  1  0
  2  3  1  0
  3  5  1  0
  3  4  2  0
  5  6  1  0
  6 11  1  0
  6  7  1  1
  8  7  1  0
  9 13  1  0
  9  8  1  0
 10  9  2  0
 11 20  1  0
 11 12  2  0
 14 15  1  0
 15 17  1  0
 15 16  2  0
 17 18  1  0
 19 18  1  1
 19 21  1  0
 20 19  1  0
 21 22  1  0
 23 21  2  0
M  END
$$$$
