GEQ.pdb
     RDKit          3D

 23 22  0  0  1  0  0  0  0  0999 V2000
    4.5154  -18.3346   20.7483 N   0  0  0  0  0  0  0  0  0  0  0  0
    4.5833  -16.9203   21.0045 C   0  0  0  0  0  0  0  0  0  0  0  0
    6.0280  -16.4901   21.1789 C   0  0  0  0  0  0  0  0  0  0  0  0
    6.8123  -17.3644   21.4553 O   0  0  0  0  0  0  0  0  0  0  0  0
    6.4097  -15.1471   21.0223 N   0  0  0  0  0  0  0  0  0  0  0  0
    7.5970  -14.4416   21.1983 C   0  0  1  0  0  0  0  0  0  0  0  0
    7.7464  -13.1006   20.4737 C   0  0  0  0  0  0  0  0  0  0  0  0
    7.3801  -13.0631   19.0365 C   0  0  0  0  0  0  0  0  0  0  0  0
    8.2573  -14.0080   18.3215 C   0  0  0  0  0  0  0  0  0  0  0  0
    7.8521  -15.0861   17.8878 O   0  0  0  0  0  0  0  0  0  0  0  0
    8.0597  -14.1890   22.5507 C   0  0  0  0  0  0  0  0  0  0  0  0
    7.5903  -13.0772   23.0518 O   0  0  0  0  0  0  0  0  0  0  0  0
    9.6123  -13.6323   18.1483 O   0  0  0  0  0  0  0  0  0  0  0  0
    6.3620  -12.5479   26.3896 N   0  0  0  0  0  0  0  0  0  0  0  0
    7.1832  -13.2591   27.3125 C   0  0  0  0  0  0  0  0  0  0  0  0
    7.2146  -12.7983   28.4997 O   0  0  0  0  0  0  0  0  0  0  0  0
    7.9536  -14.4639   26.8942 C   0  0  0  0  0  0  0  0  0  0  0  0
    7.8898  -14.7819   25.4508 C   0  0  0  0  0  0  0  0  0  0  0  0
    9.2164  -14.7854   24.7243 C   0  0  2  0  0  0  0  0  0  0  0  0
    8.8912  -14.9873   23.2921 N   0  0  0  0  0  0  0  0  0  0  0  0
   10.1279  -15.8303   25.1806 C   0  0  0  0  0  0  0  0  0  0  0  0
   10.8906  -15.6465   26.3143 O   0  0  0  0  0  0  0  0  0  0  0  0
   10.2369  -16.9221   24.5719 O   0  0  0  0  0  0  0  0  0  0  0  0
  1  2  1  0
  2  3  1  0
  3  5  1  0
  3  4  2  0
  5  6  1  0
  6 11  1  0
  6  7  1  1
  8  7  1  0
  9 13  1  0
  9  8  1  0
 10  9  2  0
 11 20  1  0
 11 12  2  0
 14 15  1  0
 15 17  1  0
 15 16  2  0
 17 18  1  0
 19 18  1  1
 19 21  1  0
 20 19  1  0
 21 22  1  0
 23 21  2  0
M  END
$$$$
