GEQ.pdb
     RDKit          3D

 23 22  0  0  1  0  0  0  0  0999 V2000
   -1.6760  -25.9588   26.3094 N   0  0  0  0  0  0  0  0  0  0  0  0
   -1.6861  -25.4731   27.6639 C   0  0  0  0  0  0  0  0  0  0  0  0
   -2.9431  -25.9379   28.3757 C   0  0  0  0  0  0  0  0  0  0  0  0
   -3.9413  -26.0038   27.7011 O   0  0  0  0  0  0  0  0  0  0  0  0
   -2.9242  -26.2685   29.7410 N   0  0  0  0  0  0  0  0  0  0  0  0
   -3.8818  -26.6980   30.6559 C   0  0  1  0  0  0  0  0  0  0  0  0
   -3.3907  -27.3180   31.9674 C   0  0  0  0  0  0  0  0  0  0  0  0
   -2.5289  -28.5215   31.8664 C   0  0  0  0  0  0  0  0  0  0  0  0
   -2.1459  -28.9192   33.2335 C   0  0  0  0  0  0  0  0  0  0  0  0
   -2.6046  -29.9205   33.7828 O   0  0  0  0  0  0  0  0  0  0  0  0
   -4.9291  -25.7732   31.0493 C   0  0  0  0  0  0  0  0  0  0  0  0
   -4.4821  -24.5706   31.2969 O   0  0  0  0  0  0  0  0  0  0  0  0
   -1.2166  -28.0940   33.9137 O   0  0  0  0  0  0  0  0  0  0  0  0
   -6.6899  -21.5571   30.1924 N   0  0  0  0  0  0  0  0  0  0  0  0
   -8.0778  -21.8740   30.1195 C   0  0  0  0  0  0  0  0  0  0  0  0
   -8.8773  -20.8825   30.1412 O   0  0  0  0  0  0  0  0  0  0  0  0
   -8.5457  -23.2857   30.0277 C   0  0  0  0  0  0  0  0  0  0  0  0
   -7.4764  -24.3071   30.0701 C   0  0  0  0  0  0  0  0  0  0  0  0
   -7.3339  -25.0483   31.3808 C   0  0  2  0  0  0  0  0  0  0  0  0
   -6.2660  -26.0531   31.1617 N   0  0  0  0  0  0  0  0  0  0  0  0
   -8.5610  -25.7110   31.8119 C   0  0  0  0  0  0  0  0  0  0  0  0
   -9.5256  -25.0127   32.5067 O   0  0  0  0  0  0  0  0  0  0  0  0
   -8.7824  -26.9194   31.5566 O   0  0  0  0  0  0  0  0  0  0  0  0
  1  2  1  0
  2  3  1  0
  3  5  1  0
  3  4  2  0
  5  6  1  0
  6 11  1  0
  6  7  1  1
  8  7  1  0
  9 13  1  0
  9  8  1  0
 10  9  2  0
 11 20  1  0
 11 12  2  0
 14 15  1  0
 15 17  1  0
 15 16  2  0
 17 18  1  0
 19 18  1  6
 19 21  1  0
 20 19  1  0
 21 22  1  0
 23 21  2  0
M  END
$$$$
