GEQ.pdb
     RDKit          3D

 23 22  0  0  1  0  0  0  0  0999 V2000
    7.3531  -12.3251   19.3377 N   0  0  0  0  0  0  0  0  0  0  0  0
    8.5071  -13.1715   19.4865 C   0  0  0  0  0  0  0  0  0  0  0  0
    8.3137  -14.1167   20.6578 C   0  0  0  0  0  0  0  0  0  0  0  0
    7.4444  -13.8209   21.4404 O   0  0  0  0  0  0  0  0  0  0  0  0
    9.1103  -15.2648   20.8035 N   0  0  0  0  0  0  0  0  0  0  0  0
    9.2028  -16.2756   21.7565 C   0  0  1  0  0  0  0  0  0  0  0  0
    9.5113  -17.6937   21.2674 C   0  0  0  0  0  0  0  0  0  0  0  0
    8.5651  -18.2957   20.2961 C   0  0  0  0  0  0  0  0  0  0  0  0
    9.0768  -19.6302   19.9341 C   0  0  0  0  0  0  0  0  0  0  0  0
    8.3443  -20.5282   19.5198 O   0  0  0  0  0  0  0  0  0  0  0  0
   10.0780  -16.0754   22.8972 C   0  0  0  0  0  0  0  0  0  0  0  0
   11.2473  -15.5955   22.5658 O   0  0  0  0  0  0  0  0  0  0  0  0
   10.4674  -19.8553   20.0848 O   0  0  0  0  0  0  0  0  0  0  0  0
   10.0648  -13.9511   29.9038 N   0  0  0  0  0  0  0  0  0  0  0  0
    9.7632  -14.0042   28.5116 C   0  0  0  0  0  0  0  0  0  0  0  0
    8.7785  -13.2931   28.1276 O   0  0  0  0  0  0  0  0  0  0  0  0
   10.5604  -14.8492   27.5786 C   0  0  0  0  0  0  0  0  0  0  0  0
    9.8487  -15.2797   26.3552 C   0  0  0  0  0  0  0  0  0  0  0  0
   10.6774  -16.0594   25.3587 C   0  0  2  0  0  0  0  0  0  0  0  0
    9.7790  -16.3287   24.2105 N   0  0  0  0  0  0  0  0  0  0  0  0
   11.1977  -17.3155   25.8898 C   0  0  0  0  0  0  0  0  0  0  0  0
   12.3773  -17.3376   26.6031 O   0  0  0  0  0  0  0  0  0  0  0  0
   10.5902  -18.4015   25.7285 O   0  0  0  0  0  0  0  0  0  0  0  0
  1  2  1  0
  2  3  1  0
  3  5  1  0
  3  4  2  0
  5  6  1  0
  6 11  1  0
  6  7  1  6
  8  7  1  0
  9 13  1  0
  9  8  1  0
 10  9  2  0
 11 20  1  0
 11 12  2  0
 14 15  1  0
 15 17  1  0
 15 16  2  0
 17 18  1  0
 19 18  1  1
 19 21  1  0
 20 19  1  0
 21 22  1  0
 23 21  2  0
M  END
$$$$
