GEQ.pdb
     RDKit          3D

 23 22  0  0  1  0  0  0  0  0999 V2000
   15.3025  -17.3197   19.9414 N   0  0  0  0  0  0  0  0  0  0  0  0
   15.0970  -18.1439   21.1029 C   0  0  0  0  0  0  0  0  0  0  0  0
   13.7614  -17.8174   21.7450 C   0  0  0  0  0  0  0  0  0  0  0  0
   13.1388  -16.9133   21.2442 O   0  0  0  0  0  0  0  0  0  0  0  0
   13.2946  -18.5386   22.8567 N   0  0  0  0  0  0  0  0  0  0  0  0
   12.1164  -18.5363   23.5985 C   0  0  1  0  0  0  0  0  0  0  0  0
   11.2537  -19.8015   23.5745 C   0  0  0  0  0  0  0  0  0  0  0  0
   11.9569  -21.1028   23.6883 C   0  0  0  0  0  0  0  0  0  0  0  0
   10.9411  -22.1707   23.6480 C   0  0  0  0  0  0  0  0  0  0  0  0
   10.8337  -22.9442   22.6969 O   0  0  0  0  0  0  0  0  0  0  0  0
   12.1782  -18.1529   24.9972 C   0  0  0  0  0  0  0  0  0  0  0  0
   13.2975  -18.5026   25.5737 O   0  0  0  0  0  0  0  0  0  0  0  0
   10.0695  -22.2801   24.7595 O   0  0  0  0  0  0  0  0  0  0  0  0
    9.6412  -12.8421   29.3554 N   0  0  0  0  0  0  0  0  0  0  0  0
    9.5315  -13.8484   28.3517 C   0  0  0  0  0  0  0  0  0  0  0  0
    8.4506  -13.8472   27.6777 O   0  0  0  0  0  0  0  0  0  0  0  0
   10.6240  -14.8353   28.1225 C   0  0  0  0  0  0  0  0  0  0  0  0
   10.2437  -16.0211   27.3238 C   0  0  0  0  0  0  0  0  0  0  0  0
   11.3374  -17.0447   27.1146 C   0  0  2  0  0  0  0  0  0  0  0  0
   11.2125  -17.4856   25.7046 N   0  0  0  0  0  0  0  0  0  0  0  0
   11.2370  -18.1953   28.0073 C   0  0  0  0  0  0  0  0  0  0  0  0
   11.7861  -18.1494   29.2711 O   0  0  0  0  0  0  0  0  0  0  0  0
   10.6440  -19.2465   27.6641 O   0  0  0  0  0  0  0  0  0  0  0  0
  1  2  1  0
  2  3  1  0
  3  5  1  0
  3  4  2  0
  5  6  1  0
  6 11  1  0
  6  7  1  1
  8  7  1  0
  9 13  1  0
  9  8  1  0
 10  9  2  0
 11 20  1  0
 11 12  2  0
 14 15  1  0
 15 17  1  0
 15 16  2  0
 17 18  1  0
 19 18  1  1
 19 21  1  0
 20 19  1  0
 21 22  1  0
 23 21  2  0
M  END
$$$$
