GEQ.pdb
     RDKit          3D

 23 22  0  0  1  0  0  0  0  0999 V2000
    5.4338  -21.7266   20.7718 N   0  0  0  0  0  0  0  0  0  0  0  0
    6.0599  -22.6336   21.6969 C   0  0  0  0  0  0  0  0  0  0  0  0
    6.2530  -21.9571   23.0414 C   0  0  0  0  0  0  0  0  0  0  0  0
    6.5144  -20.7796   23.0103 O   0  0  0  0  0  0  0  0  0  0  0  0
    6.1292  -22.6776   24.2412 N   0  0  0  0  0  0  0  0  0  0  0  0
    6.3317  -22.3789   25.5859 C   0  0  1  0  0  0  0  0  0  0  0  0
    5.5005  -23.1423   26.6212 C   0  0  0  0  0  0  0  0  0  0  0  0
    5.5832  -22.6814   28.0290 C   0  0  0  0  0  0  0  0  0  0  0  0
    4.7355  -23.5691   28.8458 C   0  0  0  0  0  0  0  0  0  0  0  0
    3.5177  -23.6490   28.6869 O   0  0  0  0  0  0  0  0  0  0  0  0
    7.6871  -22.4017   26.1049 C   0  0  0  0  0  0  0  0  0  0  0  0
    8.2126  -23.5981   26.1086 O   0  0  0  0  0  0  0  0  0  0  0  0
    5.3776  -24.3417   29.8448 O   0  0  0  0  0  0  0  0  0  0  0  0
   12.2577  -20.9596   22.6619 N   0  0  0  0  0  0  0  0  0  0  0  0
   11.8339  -20.4361   23.9181 C   0  0  0  0  0  0  0  0  0  0  0  0
   12.2357  -19.2594   24.1952 O   0  0  0  0  0  0  0  0  0  0  0  0
   10.9763  -21.2335   24.8395 C   0  0  0  0  0  0  0  0  0  0  0  0
   10.6301  -20.5655   26.1133 C   0  0  0  0  0  0  0  0  0  0  0  0
    9.7955  -21.3839   27.0731 C   0  0  2  0  0  0  0  0  0  0  0  0
    8.4087  -21.3257   26.5520 N   0  0  0  0  0  0  0  0  0  0  0  0
    9.8333  -20.8892   28.4459 C   0  0  0  0  0  0  0  0  0  0  0  0
    8.7233  -20.2919   29.0045 O   0  0  0  0  0  0  0  0  0  0  0  0
   10.8596  -21.0012   29.1591 O   0  0  0  0  0  0  0  0  0  0  0  0
  1  2  1  0
  2  3  1  0
  3  5  1  0
  3  4  2  0
  5  6  1  0
  6 11  1  0
  6  7  1  1
  8  7  1  0
  9 13  1  0
  9  8  1  0
 10  9  2  0
 11 20  1  0
 11 12  2  0
 14 15  1  0
 15 17  1  0
 15 16  2  0
 17 18  1  0
 19 18  1  6
 19 21  1  0
 20 19  1  0
 21 22  1  0
 23 21  2  0
M  END
$$$$
