GEQ.pdb
     RDKit          3D

 23 22  0  0  1  0  0  0  0  0999 V2000
    7.8341  -12.9658   18.0976 N   0  0  0  0  0  0  0  0  0  0  0  0
    9.2424  -12.7482   18.2972 C   0  0  0  0  0  0  0  0  0  0  0  0
    9.8964  -14.0121   18.8240 C   0  0  0  0  0  0  0  0  0  0  0  0
    9.1473  -14.8823   19.1947 O   0  0  0  0  0  0  0  0  0  0  0  0
   11.2946  -14.1419   18.8682 N   0  0  0  0  0  0  0  0  0  0  0  0
   12.1706  -15.1516   19.2578 C   0  0  1  0  0  0  0  0  0  0  0  0
   13.3779  -15.4370   18.3597 C   0  0  0  0  0  0  0  0  0  0  0  0
   13.7674  -14.3810   17.3931 C   0  0  0  0  0  0  0  0  0  0  0  0
   14.6529  -14.9941   16.3863 C   0  0  0  0  0  0  0  0  0  0  0  0
   15.5911  -14.3846   15.8736 O   0  0  0  0  0  0  0  0  0  0  0  0
   12.7068  -15.1225   20.6063 C   0  0  0  0  0  0  0  0  0  0  0  0
   13.3150  -14.0014   20.8900 O   0  0  0  0  0  0  0  0  0  0  0  0
   14.3835  -16.3343   16.0144 O   0  0  0  0  0  0  0  0  0  0  0  0
   10.6336  -18.7924   25.2942 N   0  0  0  0  0  0  0  0  0  0  0  0
   11.6517  -18.0317   25.9398 C   0  0  0  0  0  0  0  0  0  0  0  0
   11.7815  -18.2248   27.1922 O   0  0  0  0  0  0  0  0  0  0  0  0
   12.4999  -17.0710   25.1796 C   0  0  0  0  0  0  0  0  0  0  0  0
   12.2087  -16.9835   23.7318 C   0  0  0  0  0  0  0  0  0  0  0  0
   13.0648  -16.0105   22.9519 C   0  0  2  0  0  0  0  0  0  0  0  0
   12.6167  -16.1191   21.5429 N   0  0  0  0  0  0  0  0  0  0  0  0
   14.4946  -16.2896   23.0431 C   0  0  0  0  0  0  0  0  0  0  0  0
   15.2360  -15.8024   24.0985 O   0  0  0  0  0  0  0  0  0  0  0  0
   15.0870  -16.9844   22.1824 O   0  0  0  0  0  0  0  0  0  0  0  0
  1  2  1  0
  2  3  1  0
  3  5  1  0
  3  4  2  0
  5  6  1  0
  6 11  1  0
  6  7  1  6
  8  7  1  0
  9 13  1  0
  9  8  1  0
 10  9  2  0
 11 20  1  0
 11 12  2  0
 14 15  1  0
 15 17  1  0
 15 16  2  0
 17 18  1  0
 19 18  1  1
 19 21  1  0
 20 19  1  0
 21 22  1  0
 23 21  2  0
M  END
$$$$
