GEQ.pdb
     RDKit          3D

 23 22  0  0  1  0  0  0  0  0999 V2000
   16.2239  -13.9467   16.0353 N   0  0  0  0  0  0  0  0  0  0  0  0
   14.9470  -14.5820   16.2265 C   0  0  0  0  0  0  0  0  0  0  0  0
   14.4438  -14.3286   17.6355 C   0  0  0  0  0  0  0  0  0  0  0  0
   15.2764  -14.0037   18.4460 O   0  0  0  0  0  0  0  0  0  0  0  0
   13.0832  -14.4688   17.9568 N   0  0  0  0  0  0  0  0  0  0  0  0
   12.3588  -14.5101   19.1450 C   0  0  1  0  0  0  0  0  0  0  0  0
   10.8315  -14.5716   19.0499 C   0  0  0  0  0  0  0  0  0  0  0  0
   10.1625  -13.5384   18.2217 C   0  0  0  0  0  0  0  0  0  0  0  0
    8.7478  -13.9253   18.0718 C   0  0  0  0  0  0  0  0  0  0  0  0
    8.2881  -14.9529   18.5691 O   0  0  0  0  0  0  0  0  0  0  0  0
   12.7116  -15.5084   20.1380 C   0  0  0  0  0  0  0  0  0  0  0  0
   12.8487  -16.7055   19.6325 O   0  0  0  0  0  0  0  0  0  0  0  0
    7.9149  -13.0625   17.3175 O   0  0  0  0  0  0  0  0  0  0  0  0
   18.1891  -14.9338   24.3815 N   0  0  0  0  0  0  0  0  0  0  0  0
   17.4965  -15.2003   23.1644 C   0  0  0  0  0  0  0  0  0  0  0  0
   18.0442  -14.7568   22.1034 O   0  0  0  0  0  0  0  0  0  0  0  0
   16.2091  -15.9504   23.1548 C   0  0  0  0  0  0  0  0  0  0  0  0
   15.1425  -15.3593   22.3172 C   0  0  0  0  0  0  0  0  0  0  0  0
   13.8147  -16.0831   22.3452 C   0  0  2  0  0  0  0  0  0  0  0  0
   12.9074  -15.2944   21.4775 N   0  0  0  0  0  0  0  0  0  0  0  0
   13.2447  -16.2034   23.6836 C   0  0  0  0  0  0  0  0  0  0  0  0
   12.1006  -15.5120   24.0209 O   0  0  0  0  0  0  0  0  0  0  0  0
   13.7625  -16.9407   24.5570 O   0  0  0  0  0  0  0  0  0  0  0  0
  1  2  1  0
  2  3  1  0
  3  5  1  0
  3  4  2  0
  5  6  1  0
  6 11  1  0
  6  7  1  6
  8  7  1  0
  9 13  1  0
  9  8  1  0
 10  9  2  0
 11 20  1  0
 11 12  2  0
 14 15  1  0
 15 17  1  0
 15 16  2  0
 17 18  1  0
 19 18  1  1
 19 21  1  0
 20 19  1  0
 21 22  1  0
 23 21  2  0
M  END
$$$$
