GEQ.pdb
     RDKit          3D

 23 22  0  0  1  0  0  0  0  0999 V2000
   12.6943  -17.9296   19.6762 N   0  0  0  0  0  0  0  0  0  0  0  0
   13.2109  -18.6003   20.8397 C   0  0  0  0  0  0  0  0  0  0  0  0
   12.1615  -18.6277   21.9354 C   0  0  0  0  0  0  0  0  0  0  0  0
   11.2622  -17.8304   21.8290 O   0  0  0  0  0  0  0  0  0  0  0  0
   12.2496  -19.5373   23.0027 N   0  0  0  0  0  0  0  0  0  0  0  0
   11.4811  -19.7924   24.1353 C   0  0  1  0  0  0  0  0  0  0  0  0
   11.1834  -21.2538   24.4832 C   0  0  0  0  0  0  0  0  0  0  0  0
   10.2924  -21.5059   25.6424 C   0  0  0  0  0  0  0  0  0  0  0  0
   10.0884  -22.9622   25.7476 C   0  0  0  0  0  0  0  0  0  0  0  0
    9.4951  -23.4792   26.6938 O   0  0  0  0  0  0  0  0  0  0  0  0
   11.8743  -19.1819   25.3921 C   0  0  0  0  0  0  0  0  0  0  0  0
   13.0926  -19.4895   25.7503 O   0  0  0  0  0  0  0  0  0  0  0  0
   10.6111  -23.7681   24.7062 O   0  0  0  0  0  0  0  0  0  0  0  0
    9.2329  -14.0438   27.9189 N   0  0  0  0  0  0  0  0  0  0  0  0
   10.1774  -14.4166   28.9193 C   0  0  0  0  0  0  0  0  0  0  0  0
   10.2575  -13.6405   29.9263 O   0  0  0  0  0  0  0  0  0  0  0  0
   11.0139  -15.6413   28.7761 C   0  0  0  0  0  0  0  0  0  0  0  0
   10.7570  -16.4400   27.5577 C   0  0  0  0  0  0  0  0  0  0  0  0
   11.5555  -17.7188   27.4357 C   0  0  2  0  0  0  0  0  0  0  0  0
   11.1104  -18.3528   26.1716 N   0  0  0  0  0  0  0  0  0  0  0  0
   11.3566  -18.6386   28.5516 C   0  0  0  0  0  0  0  0  0  0  0  0
   12.1866  -18.5931   29.6515 O   0  0  0  0  0  0  0  0  0  0  0  0
   10.4275  -19.4819   28.5534 O   0  0  0  0  0  0  0  0  0  0  0  0
  1  2  1  0
  2  3  1  0
  3  5  1  0
  3  4  2  0
  5  6  1  0
  6 11  1  0
  6  7  1  1
  8  7  1  0
  9 13  1  0
  9  8  1  0
 10  9  2  0
 11 20  1  0
 11 12  2  0
 14 15  1  0
 15 17  1  0
 15 16  2  0
 17 18  1  0
 19 18  1  1
 19 21  1  0
 20 19  1  0
 21 22  1  0
 23 21  2  0
M  END
$$$$
