GEQ.pdb
     RDKit          3D

 23 22  0  0  1  0  0  0  0  0999 V2000
    4.8320  -21.0474   22.6360 N   0  0  0  0  0  0  0  0  0  0  0  0
    5.8140  -19.9977   22.7030 C   0  0  0  0  0  0  0  0  0  0  0  0
    7.0748  -20.5047   23.3782 C   0  0  0  0  0  0  0  0  0  0  0  0
    7.0111  -21.6089   23.8605 O   0  0  0  0  0  0  0  0  0  0  0  0
    8.2384  -19.7189   23.4273 N   0  0  0  0  0  0  0  0  0  0  0  0
    9.4877  -19.8588   24.0258 C   0  0  1  0  0  0  0  0  0  0  0  0
   10.6750  -19.1388   23.3797 C   0  0  0  0  0  0  0  0  0  0  0  0
   10.7663  -19.1775   21.8994 C   0  0  0  0  0  0  0  0  0  0  0  0
   11.9865  -18.4513   21.5026 C   0  0  0  0  0  0  0  0  0  0  0  0
   12.0819  -17.2270   21.5834 O   0  0  0  0  0  0  0  0  0  0  0  0
    9.6113  -19.5830   25.4456 C   0  0  0  0  0  0  0  0  0  0  0  0
    9.1396  -18.4116   25.7813 O   0  0  0  0  0  0  0  0  0  0  0  0
   13.0692  -19.2211   21.0101 O   0  0  0  0  0  0  0  0  0  0  0  0
    9.8555  -22.8395   32.0749 N   0  0  0  0  0  0  0  0  0  0  0  0
    9.4450  -22.5469   30.7416 C   0  0  0  0  0  0  0  0  0  0  0  0
    8.6618  -23.3940   30.2015 O   0  0  0  0  0  0  0  0  0  0  0  0
    9.9171  -21.3215   30.0376 C   0  0  0  0  0  0  0  0  0  0  0  0
    9.8068  -21.3609   28.5629 C   0  0  0  0  0  0  0  0  0  0  0  0
   10.2450  -20.1053   27.8422 C   0  0  2  0  0  0  0  0  0  0  0  0
   10.1439  -20.4146   26.3958 N   0  0  0  0  0  0  0  0  0  0  0  0
   11.6058  -19.6906   28.1693 C   0  0  0  0  0  0  0  0  0  0  0  0
   11.8889  -19.1254   29.3945 O   0  0  0  0  0  0  0  0  0  0  0  0
   12.5540  -19.8444   27.3620 O   0  0  0  0  0  0  0  0  0  0  0  0
  1  2  1  0
  2  3  1  0
  3  5  1  0
  3  4  2  0
  5  6  1  0
  6 11  1  0
  6  7  1  6
  8  7  1  0
  9 13  1  0
  9  8  1  0
 10  9  2  0
 11 20  1  0
 11 12  2  0
 14 15  1  0
 15 17  1  0
 15 16  2  0
 17 18  1  0
 19 18  1  1
 19 21  1  0
 20 19  1  0
 21 22  1  0
 23 21  2  0
M  END
$$$$
