GEQ.pdb
     RDKit          3D

 23 22  0  0  1  0  0  0  0  0999 V2000
    5.3316  -18.9603   18.2836 N   0  0  0  0  0  0  0  0  0  0  0  0
    6.0915  -17.7698   18.5587 C   0  0  0  0  0  0  0  0  0  0  0  0
    7.4215  -18.1342   19.1920 C   0  0  0  0  0  0  0  0  0  0  0  0
    7.3649  -18.7517   20.2271 O   0  0  0  0  0  0  0  0  0  0  0  0
    8.6370  -17.7655   18.5915 N   0  0  0  0  0  0  0  0  0  0  0  0
    9.9777  -17.8777   18.9497 C   0  0  1  0  0  0  0  0  0  0  0  0
   11.0218  -17.8532   17.8296 C   0  0  0  0  0  0  0  0  0  0  0  0
   10.9190  -18.9018   16.7851 C   0  0  0  0  0  0  0  0  0  0  0  0
   11.9481  -18.6270   15.7658 C   0  0  0  0  0  0  0  0  0  0  0  0
   11.7416  -17.8924   14.8002 O   0  0  0  0  0  0  0  0  0  0  0  0
   10.5007  -16.9845   19.9674 C   0  0  0  0  0  0  0  0  0  0  0  0
   10.1295  -15.7433   19.7973 O   0  0  0  0  0  0  0  0  0  0  0  0
   13.2092  -19.2511   15.9314 O   0  0  0  0  0  0  0  0  0  0  0  0
    7.8210  -15.5064   24.5478 N   0  0  0  0  0  0  0  0  0  0  0  0
    9.0789  -15.8442   25.1270 C   0  0  0  0  0  0  0  0  0  0  0  0
    9.0546  -16.1761   26.3566 O   0  0  0  0  0  0  0  0  0  0  0  0
   10.3356  -15.8019   24.3276 C   0  0  0  0  0  0  0  0  0  0  0  0
   10.2977  -16.5556   23.0551 C   0  0  0  0  0  0  0  0  0  0  0  0
   11.5541  -16.4828   22.2162 C   0  0  2  0  0  0  0  0  0  0  0  0
   11.2956  -17.3317   21.0286 N   0  0  0  0  0  0  0  0  0  0  0  0
   12.7481  -16.9510   22.9132 C   0  0  0  0  0  0  0  0  0  0  0  0
   13.5227  -16.0725   23.6405 O   0  0  0  0  0  0  0  0  0  0  0  0
   13.0981  -18.1557   22.8853 O   0  0  0  0  0  0  0  0  0  0  0  0
  1  2  1  0
  2  3  1  0
  3  5  1  0
  3  4  2  0
  5  6  1  0
  6 11  1  0
  6  7  1  6
  8  7  1  0
  9 13  1  0
  9  8  1  0
 10  9  2  0
 11 20  1  0
 11 12  2  0
 14 15  1  0
 15 17  1  0
 15 16  2  0
 17 18  1  0
 19 18  1  1
 19 21  1  0
 20 19  1  0
 21 22  1  0
 23 21  2  0
M  END
$$$$
