GEQ.pdb
     RDKit          3D

 23 22  0  0  1  0  0  0  0  0999 V2000
    8.0482  -11.9844   19.2682 N   0  0  0  0  0  0  0  0  0  0  0  0
    8.8766  -13.1609   19.2725 C   0  0  0  0  0  0  0  0  0  0  0  0
    8.6131  -13.9803   20.5223 C   0  0  0  0  0  0  0  0  0  0  0  0
    7.9557  -13.4435   21.3799 O   0  0  0  0  0  0  0  0  0  0  0  0
    9.1136  -15.2866   20.6530 N   0  0  0  0  0  0  0  0  0  0  0  0
    9.0541  -16.2612   21.6455 C   0  0  1  0  0  0  0  0  0  0  0  0
    9.1579  -17.7274   21.2153 C   0  0  0  0  0  0  0  0  0  0  0  0
    8.2010  -18.2000   20.1848 C   0  0  0  0  0  0  0  0  0  0  0  0
    8.5280  -19.6037   19.8741 C   0  0  0  0  0  0  0  0  0  0  0  0
    9.4689  -20.1950   20.4028 O   0  0  0  0  0  0  0  0  0  0  0  0
    9.9424  -16.1432   22.7874 C   0  0  0  0  0  0  0  0  0  0  0  0
   11.1916  -15.9674   22.4468 O   0  0  0  0  0  0  0  0  0  0  0  0
    7.7116  -20.2657   18.9241 O   0  0  0  0  0  0  0  0  0  0  0  0
   10.1496  -13.7246   29.7709 N   0  0  0  0  0  0  0  0  0  0  0  0
    9.7673  -13.8565   28.4040 C   0  0  0  0  0  0  0  0  0  0  0  0
    8.8025  -13.1177   28.0219 O   0  0  0  0  0  0  0  0  0  0  0  0
   10.4635  -14.8090   27.4939 C   0  0  0  0  0  0  0  0  0  0  0  0
    9.7673  -15.0831   26.2177 C   0  0  0  0  0  0  0  0  0  0  0  0
   10.5052  -15.9838   25.2524 C   0  0  2  0  0  0  0  0  0  0  0  0
    9.5840  -16.1905   24.1094 N   0  0  0  0  0  0  0  0  0  0  0  0
   10.8815  -17.2712   25.8285 C   0  0  0  0  0  0  0  0  0  0  0  0
   12.0661  -17.4080   26.5204 O   0  0  0  0  0  0  0  0  0  0  0  0
   10.1430  -18.2805   25.7261 O   0  0  0  0  0  0  0  0  0  0  0  0
  1  2  1  0
  2  3  1  0
  3  5  1  0
  3  4  2  0
  5  6  1  0
  6 11  1  0
  6  7  1  6
  8  7  1  0
  9 13  1  0
  9  8  1  0
 10  9  2  0
 11 20  1  0
 11 12  2  0
 14 15  1  0
 15 17  1  0
 15 16  2  0
 17 18  1  0
 19 18  1  1
 19 21  1  0
 20 19  1  0
 21 22  1  0
 23 21  2  0
M  END
$$$$
