LAQ.pdb
     RDKit          3D

 23 22  0  0  1  0  0  0  0  0999 V2000
   27.8218  -16.0710  -15.1070 C   0  0  0  0  0  0  0  0  0  0  0  0
   26.6385  -16.3544  -16.0319 C   0  0  2  0  0  0  0  0  0  0  0  0
   25.7044  -15.1643  -16.0585 C   0  0  0  0  0  0  0  0  0  0  0  0
   25.9318  -17.5793  -15.4874 C   0  0  0  0  0  0  0  0  0  0  0  0
   26.9341  -18.7187  -15.4458 C   0  0  2  0  0  0  0  0  0  0  0  0
   27.3276  -19.0615  -16.7800 N   0  0  0  0  0  0  0  0  0  0  0  0
   26.2817  -19.8395  -14.7283 C   0  0  0  0  0  0  0  0  0  0  0  0
   25.4920  -20.5598  -15.4003 O   0  0  0  0  0  0  0  0  0  0  0  0
   26.1313  -21.2605  -11.2733 C   0  0  0  0  0  0  0  0  0  0  0  0
   25.6557  -21.0826  -12.7121 C   0  0  2  0  0  0  0  0  0  0  0  0
   26.5029  -20.1276  -13.3538 N   0  0  0  0  0  0  0  0  0  0  0  0
   24.2361  -20.6109  -12.6232 C   0  0  0  0  0  0  0  0  0  0  0  0
   24.0296  -19.4224  -12.2911 O   0  0  0  0  0  0  0  0  0  0  0  0
   21.6707  -18.1812  -16.1562 N   0  0  0  0  0  0  0  0  0  0  0  0
   20.4103  -18.5412  -15.6128 C   0  0  0  0  0  0  0  0  0  0  0  0
   19.3797  -18.0304  -16.0693 O   0  0  0  0  0  0  0  0  0  0  0  0
   20.3644  -19.5169  -14.5143 C   0  0  0  0  0  0  0  0  0  0  0  0
   21.7053  -20.0201  -14.1356 C   0  0  0  0  0  0  0  0  0  0  0  0
   21.7788  -21.0655  -13.0945 C   0  0  2  0  0  0  0  0  0  0  0  0
   23.1442  -21.4745  -12.9043 N   0  0  0  0  0  0  0  0  0  0  0  0
   20.8541  -22.2145  -13.2858 C   0  0  0  0  0  0  0  0  0  0  0  0
   19.4990  -21.9898  -13.1536 O   0  0  0  0  0  0  0  0  0  0  0  0
   21.2355  -23.3628  -13.5602 O   0  0  0  0  0  0  0  0  0  0  0  0
  2  1  1  1
  2  3  1  0
  4  2  1  0
  5  4  1  0
  5  6  1  6
  7  8  2  0
  7  5  1  0
 10  9  1  1
 10 12  1  0
 10 11  1  0
 11  7  1  0
 12 20  1  0
 13 12  2  0
 15 14  1  0
 16 15  2  0
 17 15  1  0
 18 17  1  0
 19 18  1  6
 20 19  1  0
 21 22  1  0
 21 19  1  0
 23 21  2  0
M  END
$$$$
