LAQ.pdb
     RDKit          3D

 23 22  0  0  1  0  0  0  0  0999 V2000
   26.5438  -11.5060  -15.1385 C   0  0  0  0  0  0  0  0  0  0  0  0
   26.3398  -11.0027  -16.5671 C   0  0  2  0  0  0  0  0  0  0  0  0
   27.6029  -10.3369  -17.0678 C   0  0  0  0  0  0  0  0  0  0  0  0
   25.1907  -10.0153  -16.5309 C   0  0  0  0  0  0  0  0  0  0  0  0
   23.9245  -10.7821  -16.1944 C   0  0  2  0  0  0  0  0  0  0  0  0
   23.7025  -11.7990  -17.1788 N   0  0  0  0  0  0  0  0  0  0  0  0
   22.8255   -9.7899  -16.1286 C   0  0  0  0  0  0  0  0  0  0  0  0
   22.5466   -9.1810  -17.1988 O   0  0  0  0  0  0  0  0  0  0  0  0
   20.3805   -8.4524  -13.6371 C   0  0  0  0  0  0  0  0  0  0  0  0
   21.0739   -8.5057  -14.9952 C   0  0  2  0  0  0  0  0  0  0  0  0
   22.0942   -9.5045  -14.9433 N   0  0  0  0  0  0  0  0  0  0  0  0
   21.6340   -7.1354  -15.2278 C   0  0  0  0  0  0  0  0  0  0  0  0
   22.8756   -7.0147  -15.3248 O   0  0  0  0  0  0  0  0  0  0  0  0
   22.3845   -6.1429  -19.9297 N   0  0  0  0  0  0  0  0  0  0  0  0
   22.1349   -4.7504  -19.8196 C   0  0  0  0  0  0  0  0  0  0  0  0
   22.3237   -4.0167  -20.7981 O   0  0  0  0  0  0  0  0  0  0  0  0
   21.6569   -4.2149  -18.5368 C   0  0  0  0  0  0  0  0  0  0  0  0
   21.4328   -5.2697  -17.5211 C   0  0  0  0  0  0  0  0  0  0  0  0
   21.0475   -4.8432  -16.1602 C   0  0  2  0  0  0  0  0  0  0  0  0
   20.7944   -5.9952  -15.3375 N   0  0  0  0  0  0  0  0  0  0  0  0
   19.9522   -3.8389  -16.0988 C   0  0  0  0  0  0  0  0  0  0  0  0
   18.6507   -4.2870  -16.1961 O   0  0  0  0  0  0  0  0  0  0  0  0
   20.1461   -2.6211  -15.9623 O   0  0  0  0  0  0  0  0  0  0  0  0
  2  1  1  1
  2  3  1  0
  4  2  1  0
  5  4  1  0
  5  6  1  6
  7  8  2  0
  7  5  1  0
 10  9  1  1
 10 12  1  0
 10 11  1  0
 11  7  1  0
 12 20  1  0
 13 12  2  0
 15 14  1  0
 16 15  2  0
 17 15  1  0
 18 17  1  0
 19 18  1  6
 20 19  1  0
 21 22  1  0
 21 19  1  0
 23 21  2  0
M  END
$$$$
