LAQ.pdb
     RDKit          3D

 23 22  0  0  1  0  0  0  0  0999 V2000
   26.6377  -14.5629  -15.4248 C   0  0  0  0  0  0  0  0  0  0  0  0
   26.8855  -13.4662  -16.4600 C   0  0  2  0  0  0  0  0  0  0  0  0
   28.2003  -12.7730  -16.1766 C   0  0  0  0  0  0  0  0  0  0  0  0
   25.7312  -12.4897  -16.3585 C   0  0  0  0  0  0  0  0  0  0  0  0
   24.4814  -13.1874  -16.8643 C   0  0  2  0  0  0  0  0  0  0  0  0
   24.6985  -13.6523  -18.2018 N   0  0  0  0  0  0  0  0  0  0  0  0
   23.3723  -12.2094  -16.7637 C   0  0  0  0  0  0  0  0  0  0  0  0
   23.4162  -11.2200  -17.5467 O   0  0  0  0  0  0  0  0  0  0  0  0
   20.1396  -11.7999  -14.9387 C   0  0  0  0  0  0  0  0  0  0  0  0
   21.2666  -11.3427  -15.8601 C   0  0  2  0  0  0  0  0  0  0  0  0
   22.2925  -12.3371  -15.8478 N   0  0  0  0  0  0  0  0  0  0  0  0
   21.7422  -10.0313  -15.3125 C   0  0  0  0  0  0  0  0  0  0  0  0
   22.8957   -9.9772  -14.8308 O   0  0  0  0  0  0  0  0  0  0  0  0
   24.4107   -6.9024  -18.0754 N   0  0  0  0  0  0  0  0  0  0  0  0
   24.1657   -5.8117  -17.2014 C   0  0  0  0  0  0  0  0  0  0  0  0
   24.8599   -4.7909  -17.2887 O   0  0  0  0  0  0  0  0  0  0  0  0
   23.0872   -5.9265  -16.2092 C   0  0  0  0  0  0  0  0  0  0  0  0
   22.4213   -7.2496  -16.2341 C   0  0  0  0  0  0  0  0  0  0  0  0
   21.3818   -7.5157  -15.2187 C   0  0  2  0  0  0  0  0  0  0  0  0
   20.9206   -8.8730  -15.3316 N   0  0  0  0  0  0  0  0  0  0  0  0
   20.2688   -6.5299  -15.1800 C   0  0  0  0  0  0  0  0  0  0  0  0
   20.3924   -5.4398  -14.3430 O   0  0  0  0  0  0  0  0  0  0  0  0
   19.2372   -6.6340  -15.8614 O   0  0  0  0  0  0  0  0  0  0  0  0
  2  1  1  1
  2  3  1  0
  4  2  1  0
  5  4  1  0
  5  6  1  6
  7  8  2  0
  7  5  1  0
 10  9  1  1
 10 12  1  0
 10 11  1  0
 11  7  1  0
 12 20  1  0
 13 12  2  0
 15 14  1  0
 16 15  2  0
 17 15  1  0
 18 17  1  0
 19 18  1  6
 20 19  1  0
 21 22  1  0
 21 19  1  0
 23 21  2  0
M  END
$$$$
