LAQ.pdb
     RDKit          3D

 23 22  0  0  1  0  0  0  0  0999 V2000
   27.6059  -21.0564   -5.6996 C   0  0  0  0  0  0  0  0  0  0  0  0
   28.3977  -20.0410   -6.5230 C   0  0  2  0  0  0  0  0  0  0  0  0
   28.7936  -18.8659   -5.6559 C   0  0  0  0  0  0  0  0  0  0  0  0
   27.4998  -19.5919   -7.6582 C   0  0  0  0  0  0  0  0  0  0  0  0
   27.2547  -20.7865   -8.5623 C   0  0  2  0  0  0  0  0  0  0  0  0
   28.5089  -21.3442   -8.9725 N   0  0  0  0  0  0  0  0  0  0  0  0
   26.4354  -20.3043   -9.6994 C   0  0  0  0  0  0  0  0  0  0  0  0
   26.2773  -19.0554   -9.7948 O   0  0  0  0  0  0  0  0  0  0  0  0
   26.1739  -20.9836  -13.0262 C   0  0  0  0  0  0  0  0  0  0  0  0
   25.2902  -20.5903  -11.8461 C   0  0  2  0  0  0  0  0  0  0  0  0
   25.8380  -21.1665  -10.6590 N   0  0  0  0  0  0  0  0  0  0  0  0
   23.9244  -21.1233  -12.1564 C   0  0  0  0  0  0  0  0  0  0  0  0
   23.7182  -22.3467  -11.9941 O   0  0  0  0  0  0  0  0  0  0  0  0
   18.3610  -21.4478  -12.2462 N   0  0  0  0  0  0  0  0  0  0  0  0
   18.9207  -20.9979  -11.0223 C   0  0  0  0  0  0  0  0  0  0  0  0
   18.4193  -21.3616   -9.9509 O   0  0  0  0  0  0  0  0  0  0  0  0
   20.0879  -20.1052  -11.0620 C   0  0  0  0  0  0  0  0  0  0  0  0
   20.5460  -19.8186  -12.4414 C   0  0  0  0  0  0  0  0  0  0  0  0
   21.5704  -20.7088  -13.0248 C   0  0  2  0  0  0  0  0  0  0  0  0
   22.8822  -20.2785  -12.6222 N   0  0  0  0  0  0  0  0  0  0  0  0
   21.4593  -20.9242  -14.4922 C   0  0  0  0  0  0  0  0  0  0  0  0
   20.5747  -21.8814  -14.9454 O   0  0  0  0  0  0  0  0  0  0  0  0
   22.1171  -20.2879  -15.3299 O   0  0  0  0  0  0  0  0  0  0  0  0
  2  1  1  1
  2  3  1  0
  4  2  1  0
  5  4  1  0
  5  6  1  6
  7  8  2  0
  7  5  1  0
 10  9  1  6
 10 12  1  0
 10 11  1  0
 11  7  1  0
 12 20  1  0
 13 12  2  0
 15 14  1  0
 16 15  2  0
 17 15  1  0
 18 17  1  0
 19 18  1  6
 20 19  1  0
 21 22  1  0
 21 19  1  0
 23 21  2  0
M  END
$$$$
