LAQ.pdb
     RDKit          3D

 23 22  0  0  1  0  0  0  0  0999 V2000
   22.6227  -14.4443  -14.5309 C   0  0  0  0  0  0  0  0  0  0  0  0
   23.1695  -13.7821  -15.7952 C   0  0  2  0  0  0  0  0  0  0  0  0
   24.6822  -13.8177  -15.7867 C   0  0  0  0  0  0  0  0  0  0  0  0
   22.6663  -12.3527  -15.8017 C   0  0  0  0  0  0  0  0  0  0  0  0
   21.1488  -12.3902  -15.8193 C   0  0  2  0  0  0  0  0  0  0  0  0
   20.6956  -12.9140  -17.0733 N   0  0  0  0  0  0  0  0  0  0  0  0
   20.6814  -11.0066  -15.5665 C   0  0  0  0  0  0  0  0  0  0  0  0
   20.8822  -10.1637  -16.4848 O   0  0  0  0  0  0  0  0  0  0  0  0
   18.7725   -9.1091  -12.9786 C   0  0  0  0  0  0  0  0  0  0  0  0
   19.6188   -9.2412  -14.2414 C   0  0  2  0  0  0  0  0  0  0  0  0
   20.0350  -10.6023  -14.3666 N   0  0  0  0  0  0  0  0  0  0  0  0
   20.7779   -8.3086  -14.0619 C   0  0  0  0  0  0  0  0  0  0  0  0
   21.7819   -8.7282  -13.4440 O   0  0  0  0  0  0  0  0  0  0  0  0
   24.1931   -2.8438  -17.5661 N   0  0  0  0  0  0  0  0  0  0  0  0
   23.2358   -3.8606  -17.3148 C   0  0  0  0  0  0  0  0  0  0  0  0
   22.5155   -4.2629  -18.2372 O   0  0  0  0  0  0  0  0  0  0  0  0
   23.1251   -4.4103  -15.9560 C   0  0  0  0  0  0  0  0  0  0  0  0
   22.0620   -5.4348  -15.8349 C   0  0  0  0  0  0  0  0  0  0  0  0
   21.8386   -6.0404  -14.5061 C   0  0  2  0  0  0  0  0  0  0  0  0
   20.7549   -6.9833  -14.5718 N   0  0  0  0  0  0  0  0  0  0  0  0
   21.6935   -5.0723  -13.3864 C   0  0  0  0  0  0  0  0  0  0  0  0
   20.4605   -4.9603  -12.7771 O   0  0  0  0  0  0  0  0  0  0  0  0
   22.6218   -4.3624  -12.9697 O   0  0  0  0  0  0  0  0  0  0  0  0
  2  1  1  1
  2  3  1  0
  4  2  1  0
  5  4  1  0
  5  6  1  6
  7  8  2  0
  7  5  1  0
 10  9  1  1
 10 12  1  0
 10 11  1  0
 11  7  1  0
 12 20  1  0
 13 12  2  0
 15 14  1  0
 16 15  2  0
 17 15  1  0
 18 17  1  0
 19 18  1  6
 20 19  1  0
 21 22  1  0
 21 19  1  0
 23 21  2  0
M  END
$$$$
