LAQ.pdb
     RDKit          3D

 23 22  0  0  1  0  0  0  0  0999 V2000
   26.5004  -12.7476  -16.0027 C   0  0  0  0  0  0  0  0  0  0  0  0
   27.4211  -12.0374  -16.9945 C   0  0  2  0  0  0  0  0  0  0  0  0
   28.8648  -12.2042  -16.5731 C   0  0  0  0  0  0  0  0  0  0  0  0
   27.0283  -10.5738  -16.9965 C   0  0  0  0  0  0  0  0  0  0  0  0
   25.5901  -10.4754  -17.4723 C   0  0  2  0  0  0  0  0  0  0  0  0
   25.4268  -11.2427  -18.6709 N   0  0  0  0  0  0  0  0  0  0  0  0
   25.2975   -9.0349  -17.6622 C   0  0  0  0  0  0  0  0  0  0  0  0
   25.2871   -8.3168  -16.6239 O   0  0  0  0  0  0  0  0  0  0  0  0
   24.5238   -6.6596  -20.4446 C   0  0  0  0  0  0  0  0  0  0  0  0
   24.7525   -7.0472  -18.9866 C   0  0  2  0  0  0  0  0  0  0  0  0
   25.0358   -8.4465  -18.9297 N   0  0  0  0  0  0  0  0  0  0  0  0
   23.4890   -6.6951  -18.2619 C   0  0  0  0  0  0  0  0  0  0  0  0
   22.6767   -7.6137  -18.0130 O   0  0  0  0  0  0  0  0  0  0  0  0
   21.7527   -7.4187  -13.7004 N   0  0  0  0  0  0  0  0  0  0  0  0
   20.8427   -6.3310  -13.7486 C   0  0  0  0  0  0  0  0  0  0  0  0
   20.0001   -6.1991  -12.8518 O   0  0  0  0  0  0  0  0  0  0  0  0
   20.9265   -5.3855  -14.8711 C   0  0  0  0  0  0  0  0  0  0  0  0
   21.9629   -5.7591  -15.8615 C   0  0  0  0  0  0  0  0  0  0  0  0
   22.0679   -4.9429  -17.0883 C   0  0  2  0  0  0  0  0  0  0  0  0
   23.2054   -5.3623  -17.8616 N   0  0  0  0  0  0  0  0  0  0  0  0
   22.0270   -3.4717  -16.8742 C   0  0  0  0  0  0  0  0  0  0  0  0
   23.2042   -2.7621  -16.9968 O   0  0  0  0  0  0  0  0  0  0  0  0
   20.9915   -2.8485  -16.5938 O   0  0  0  0  0  0  0  0  0  0  0  0
  2  1  1  1
  2  3  1  0
  4  2  1  0
  5  4  1  0
  5  6  1  6
  7  8  2  0
  7  5  1  0
 10  9  1  6
 10 12  1  0
 10 11  1  0
 11  7  1  0
 12 20  1  0
 13 12  2  0
 15 14  1  0
 16 15  2  0
 17 15  1  0
 18 17  1  0
 19 18  1  1
 20 19  1  0
 21 22  1  0
 21 19  1  0
 23 21  2  0
M  END
$$$$
