LAQ.pdb
     RDKit          3D

 23 22  0  0  1  0  0  0  0  0999 V2000
   19.9667  -27.9492  -17.3010 C   0  0  0  0  0  0  0  0  0  0  0  0
   21.4760  -27.7291  -17.2034 C   0  0  2  0  0  0  0  0  0  0  0  0
   22.1881  -28.5413  -18.2631 C   0  0  0  0  0  0  0  0  0  0  0  0
   21.9006  -28.1670  -15.8161 C   0  0  0  0  0  0  0  0  0  0  0  0
   21.2235  -27.2547  -14.8092 C   0  0  2  0  0  0  0  0  0  0  0  0
   21.6415  -25.9021  -15.0291 N   0  0  0  0  0  0  0  0  0  0  0  0
   21.5812  -27.7599  -13.4626 C   0  0  0  0  0  0  0  0  0  0  0  0
   22.7640  -28.1735  -13.3079 O   0  0  0  0  0  0  0  0  0  0  0  0
   20.2318  -27.7819  -10.0129 C   0  0  0  0  0  0  0  0  0  0  0  0
   21.1261  -28.3262  -11.1229 C   0  0  2  0  0  0  0  0  0  0  0  0
   20.6724  -27.7964  -12.3699 N   0  0  0  0  0  0  0  0  0  0  0  0
   20.9995  -29.8181  -11.0618 C   0  0  0  0  0  0  0  0  0  0  0  0
   20.1962  -30.3742  -11.8435 O   0  0  0  0  0  0  0  0  0  0  0  0
   23.8208  -35.2144   -9.3169 N   0  0  0  0  0  0  0  0  0  0  0  0
   22.5049  -34.8121   -9.6634 C   0  0  0  0  0  0  0  0  0  0  0  0
   21.5856  -34.9623   -8.8486 O   0  0  0  0  0  0  0  0  0  0  0  0
   22.2691  -34.2253  -10.9903 C   0  0  0  0  0  0  0  0  0  0  0  0
   22.3631  -32.7468  -10.9902 C   0  0  0  0  0  0  0  0  0  0  0  0
   21.6306  -32.0111   -9.9393 C   0  0  2  0  0  0  0  0  0  0  0  0
   21.7618  -30.5945  -10.1490 N   0  0  0  0  0  0  0  0  0  0  0  0
   21.9467  -32.4193   -8.5446 C   0  0  0  0  0  0  0  0  0  0  0  0
   23.0166  -31.8163   -7.9154 O   0  0  0  0  0  0  0  0  0  0  0  0
   21.2988  -33.2706   -7.9162 O   0  0  0  0  0  0  0  0  0  0  0  0
  2  1  1  1
  2  3  1  0
  4  2  1  0
  5  4  1  0
  5  6  1  1
  7  8  2  0
  7  5  1  0
 10  9  1  1
 10 12  1  0
 10 11  1  0
 11  7  1  0
 12 20  1  0
 13 12  2  0
 15 14  1  0
 16 15  2  0
 17 15  1  0
 18 17  1  0
 19 18  1  6
 20 19  1  0
 21 22  1  0
 21 19  1  0
 23 21  2  0
M  END
$$$$
