LAQ.pdb
     RDKit          3D

 23 22  0  0  1  0  0  0  0  0999 V2000
   29.2871  -18.9224  -16.3345 C   0  0  0  0  0  0  0  0  0  0  0  0
   27.7636  -18.9760  -16.2252 C   0  0  2  0  0  0  0  0  0  0  0  0
   27.1585  -17.7067  -16.7841 C   0  0  0  0  0  0  0  0  0  0  0  0
   27.4283  -19.1284  -14.7553 C   0  0  0  0  0  0  0  0  0  0  0  0
   27.8126  -20.5343  -14.3304 C   0  0  2  0  0  0  0  0  0  0  0  0
   28.0557  -21.3376  -15.4914 N   0  0  0  0  0  0  0  0  0  0  0  0
   26.7039  -21.0484  -13.4919 C   0  0  0  0  0  0  0  0  0  0  0  0
   25.8195  -21.7323  -14.0786 O   0  0  0  0  0  0  0  0  0  0  0  0
   25.4788  -20.6912   -9.9777 C   0  0  0  0  0  0  0  0  0  0  0  0
   25.3573  -21.0889  -11.4457 C   0  0  2  0  0  0  0  0  0  0  0  0
   26.5993  -20.8093  -12.0944 N   0  0  0  0  0  0  0  0  0  0  0  0
   24.2308  -20.2730  -12.0034 C   0  0  0  0  0  0  0  0  0  0  0  0
   24.5147  -19.2385  -12.6475 O   0  0  0  0  0  0  0  0  0  0  0  0
   24.1569  -21.9591  -15.9370 N   0  0  0  0  0  0  0  0  0  0  0  0
   23.2538  -20.9216  -16.2856 C   0  0  0  0  0  0  0  0  0  0  0  0
   23.3597  -20.3632  -17.3849 O   0  0  0  0  0  0  0  0  0  0  0  0
   22.2114  -20.5359  -15.3235 C   0  0  0  0  0  0  0  0  0  0  0  0
   22.3033  -21.2811  -14.0465 C   0  0  0  0  0  0  0  0  0  0  0  0
   21.8442  -20.6004  -12.8184 C   0  0  2  0  0  0  0  0  0  0  0  0
   22.8739  -20.6483  -11.8159 N   0  0  0  0  0  0  0  0  0  0  0  0
   20.5202  -21.0445  -12.3068 C   0  0  0  0  0  0  0  0  0  0  0  0
   19.4222  -20.2488  -12.5627 O   0  0  0  0  0  0  0  0  0  0  0  0
   20.3500  -22.0925  -11.6648 O   0  0  0  0  0  0  0  0  0  0  0  0
  2  1  1  1
  2  3  1  0
  4  2  1  0
  5  4  1  0
  5  6  1  6
  7  8  2  0
  7  5  1  0
 10  9  1  1
 10 12  1  0
 10 11  1  0
 11  7  1  0
 12 20  1  0
 13 12  2  0
 15 14  1  0
 16 15  2  0
 17 15  1  0
 18 17  1  0
 19 18  1  6
 20 19  1  0
 21 22  1  0
 21 19  1  0
 23 21  2  0
M  END
$$$$
