LAQ.pdb
     RDKit          3D

 23 22  0  0  1  0  0  0  0  0999 V2000
   22.5680  -33.8340  -12.5226 C   0  0  0  0  0  0  0  0  0  0  0  0
   23.3744  -35.1320  -12.5480 C   0  0  2  0  0  0  0  0  0  0  0  0
   22.4540  -36.3183  -12.3608 C   0  0  0  0  0  0  0  0  0  0  0  0
   24.3824  -35.0514  -11.4193 C   0  0  0  0  0  0  0  0  0  0  0  0
   25.1861  -33.7761  -11.5991 C   0  0  2  0  0  0  0  0  0  0  0  0
   26.2099  -33.9873  -12.5786 N   0  0  0  0  0  0  0  0  0  0  0  0
   25.7250  -33.4159  -10.2662 C   0  0  0  0  0  0  0  0  0  0  0  0
   26.8029  -33.9750   -9.9205 O   0  0  0  0  0  0  0  0  0  0  0  0
   25.1160  -30.9443   -7.5565 C   0  0  0  0  0  0  0  0  0  0  0  0
   25.7024  -32.2355   -8.1196 C   0  0  2  0  0  0  0  0  0  0  0  0
   25.0952  -32.4931   -9.3870 N   0  0  0  0  0  0  0  0  0  0  0  0
   25.3917  -33.3033   -7.1151 C   0  0  0  0  0  0  0  0  0  0  0  0
   24.7975  -34.3306   -7.5116 O   0  0  0  0  0  0  0  0  0  0  0  0
   29.3037  -36.4863   -5.2676 N   0  0  0  0  0  0  0  0  0  0  0  0
   28.2106  -37.2032   -4.7156 C   0  0  0  0  0  0  0  0  0  0  0  0
   28.4025  -38.3169   -4.2115 O   0  0  0  0  0  0  0  0  0  0  0  0
   26.8714  -36.5986   -4.7597 C   0  0  0  0  0  0  0  0  0  0  0  0
   26.8714  -35.2439   -5.3590 C   0  0  0  0  0  0  0  0  0  0  0  0
   25.9216  -34.2514   -4.8157 C   0  0  2  0  0  0  0  0  0  0  0  0
   25.7540  -33.1699   -5.7484 N   0  0  0  0  0  0  0  0  0  0  0  0
   26.2180  -33.7821   -3.4358 C   0  0  0  0  0  0  0  0  0  0  0  0
   25.5849  -34.4111   -2.3833 O   0  0  0  0  0  0  0  0  0  0  0  0
   27.0052  -32.8577   -3.1807 O   0  0  0  0  0  0  0  0  0  0  0  0
  2  1  1  1
  2  3  1  0
  4  2  1  0
  5  4  1  0
  5  6  1  6
  7  8  2  0
  7  5  1  0
 10  9  1  1
 10 12  1  0
 10 11  1  0
 11  7  1  0
 12 20  1  0
 13 12  2  0
 15 14  1  0
 16 15  2  0
 17 15  1  0
 18 17  1  0
 19 18  1  6
 20 19  1  0
 21 22  1  0
 21 19  1  0
 23 21  2  0
M  END
$$$$
