LAQ.pdb
     RDKit          3D

 23 22  0  0  1  0  0  0  0  0999 V2000
   26.5199  -21.0729   -6.9369 C   0  0  0  0  0  0  0  0  0  0  0  0
   27.7867  -20.3347   -7.3682 C   0  0  2  0  0  0  0  0  0  0  0  0
   27.9877  -19.1045   -6.5104 C   0  0  0  0  0  0  0  0  0  0  0  0
   27.6043  -19.9507   -8.8228 C   0  0  0  0  0  0  0  0  0  0  0  0
   27.5278  -21.2286   -9.6386 C   0  0  2  0  0  0  0  0  0  0  0  0
   28.8442  -21.7656   -9.8151 N   0  0  0  0  0  0  0  0  0  0  0  0
   26.8669  -20.8824  -10.9193 C   0  0  0  0  0  0  0  0  0  0  0  0
   27.4165  -19.9845  -11.6163 O   0  0  0  0  0  0  0  0  0  0  0  0
   25.1701  -22.4229  -13.5370 C   0  0  0  0  0  0  0  0  0  0  0  0
   25.1860  -21.1609  -12.6795 C   0  0  2  0  0  0  0  0  0  0  0  0
   25.6738  -21.5026  -11.3808 N   0  0  0  0  0  0  0  0  0  0  0  0
   23.7711  -20.6687  -12.6417 C   0  0  0  0  0  0  0  0  0  0  0  0
   23.1314  -20.7949  -11.5738 O   0  0  0  0  0  0  0  0  0  0  0  0
   22.0559  -17.7596  -17.5681 N   0  0  0  0  0  0  0  0  0  0  0  0
   22.0408  -16.8605  -16.4704 C   0  0  0  0  0  0  0  0  0  0  0  0
   22.2279  -15.6531  -16.6670 O   0  0  0  0  0  0  0  0  0  0  0  0
   21.8027  -17.3928  -15.1210 C   0  0  0  0  0  0  0  0  0  0  0  0
   21.5932  -18.8593  -15.1100 C   0  0  0  0  0  0  0  0  0  0  0  0
   21.8102  -19.5755  -13.8363 C   0  0  2  0  0  0  0  0  0  0  0  0
   23.1578  -20.0736  -13.7761 N   0  0  0  0  0  0  0  0  0  0  0  0
   20.7963  -20.6151  -13.5149 C   0  0  0  0  0  0  0  0  0  0  0  0
   20.9922  -21.8902  -14.0047 O   0  0  0  0  0  0  0  0  0  0  0  0
   19.7859  -20.3978  -12.8285 O   0  0  0  0  0  0  0  0  0  0  0  0
  2  1  1  1
  2  3  1  0
  4  2  1  0
  5  4  1  0
  5  6  1  6
  7  8  2  0
  7  5  1  0
 10  9  1  6
 10 12  1  0
 10 11  1  0
 11  7  1  0
 12 20  1  0
 13 12  2  0
 15 14  1  0
 16 15  2  0
 17 15  1  0
 18 17  1  0
 19 18  1  6
 20 19  1  0
 21 22  1  0
 21 19  1  0
 23 21  2  0
M  END
$$$$
