LAQ.pdb
     RDKit          3D

 23 22  0  0  1  0  0  0  0  0999 V2000
   27.9132  -17.1753  -16.6940 C   0  0  0  0  0  0  0  0  0  0  0  0
   28.0538  -18.6181  -17.1781 C   0  0  2  0  0  0  0  0  0  0  0  0
   27.7456  -18.7014  -18.6572 C   0  0  0  0  0  0  0  0  0  0  0  0
   27.0744  -19.4531  -16.3780 C   0  0  0  0  0  0  0  0  0  0  0  0
   27.3842  -19.2553  -14.9051 C   0  0  2  0  0  0  0  0  0  0  0  0
   28.7751  -19.5041  -14.6688 N   0  0  0  0  0  0  0  0  0  0  0  0
   26.4956  -20.1717  -14.1519 C   0  0  0  0  0  0  0  0  0  0  0  0
   25.5727  -20.7319  -14.8066 O   0  0  0  0  0  0  0  0  0  0  0  0
   25.9745  -21.3104  -10.6294 C   0  0  0  0  0  0  0  0  0  0  0  0
   25.6473  -21.2424  -12.1182 C   0  0  2  0  0  0  0  0  0  0  0  0
   26.6366  -20.4375  -12.7624 N   0  0  0  0  0  0  0  0  0  0  0  0
   24.2779  -20.6412  -12.2137 C   0  0  0  0  0  0  0  0  0  0  0  0
   24.1401  -19.4366  -11.9044 O   0  0  0  0  0  0  0  0  0  0  0  0
   21.8069  -17.6484  -15.5657 N   0  0  0  0  0  0  0  0  0  0  0  0
   21.8494  -18.9344  -16.1639 C   0  0  0  0  0  0  0  0  0  0  0  0
   21.8555  -19.0345  -17.3974 O   0  0  0  0  0  0  0  0  0  0  0  0
   21.8841  -20.1198  -15.2953 C   0  0  0  0  0  0  0  0  0  0  0  0
   21.8975  -19.7766  -13.8543 C   0  0  0  0  0  0  0  0  0  0  0  0
   21.8366  -20.8872  -12.8821 C   0  0  2  0  0  0  0  0  0  0  0  0
   23.1574  -21.4021  -12.6410 N   0  0  0  0  0  0  0  0  0  0  0  0
   20.8513  -21.9542  -13.2022 C   0  0  0  0  0  0  0  0  0  0  0  0
   19.5084  -21.6467  -13.1227 O   0  0  0  0  0  0  0  0  0  0  0  0
   21.1720  -23.1045  -13.5390 O   0  0  0  0  0  0  0  0  0  0  0  0
  2  1  1  1
  2  3  1  0
  4  2  1  0
  5  4  1  0
  5  6  1  6
  7  8  2  0
  7  5  1  0
 10  9  1  1
 10 12  1  0
 10 11  1  0
 11  7  1  0
 12 20  1  0
 13 12  2  0
 15 14  1  0
 16 15  2  0
 17 15  1  0
 18 17  1  0
 19 18  1  6
 20 19  1  0
 21 22  1  0
 21 19  1  0
 23 21  2  0
M  END
$$$$
