KCQ.pdb
     RDKit          3D

 25 24  0  0  1  0  0  0  0  0999 V2000
   23.8238  -15.5118  -16.9925 N   0  0  0  0  0  0  0  0  0  0  0  0
   23.9295  -14.3997  -16.0938 C   0  0  1  0  0  0  0  0  0  0  0  0
   25.3223  -14.0023  -15.8137 C   0  0  0  0  0  0  0  0  0  0  0  0
   26.1708  -15.0977  -15.2800 C   0  0  0  0  0  0  0  0  0  0  0  0
   26.0397  -16.3704  -16.0252 C   0  0  0  0  0  0  0  0  0  0  0  0
   27.0451  -17.3995  -15.4540 C   0  0  0  0  0  0  0  0  0  0  0  0
   26.9379  -18.6033  -16.2616 N   0  0  0  0  0  0  0  0  0  0  0  0
   23.0904  -13.2419  -16.5580 C   0  0  0  0  0  0  0  0  0  0  0  0
   22.5641  -13.2564  -17.6995 O   0  0  0  0  0  0  0  0  0  0  0  0
   22.8568  -12.1014  -15.7479 N   0  0  0  0  0  0  0  0  0  0  0  0
   21.9301  -11.0796  -16.0995 C   0  0  1  0  0  0  0  0  0  0  0  0
   20.5353  -11.6969  -16.1941 C   0  0  0  0  0  0  0  0  0  0  0  0
   19.3131  -10.3993  -16.4921 S   0  0  0  0  0  0  0  0  0  0  0  0
   21.9314   -9.9184  -15.2153 C   0  0  0  0  0  0  0  0  0  0  0  0
   21.8191   -9.9968  -13.9702 O   0  0  0  0  0  0  0  0  0  0  0  0
   22.6648   -3.8302  -17.1271 N   0  0  0  0  0  0  0  0  0  0  0  0
   22.4584   -3.7139  -15.7288 C   0  0  0  0  0  0  0  0  0  0  0  0
   22.4204   -2.5617  -15.2279 O   0  0  0  0  0  0  0  0  0  0  0  0
   22.2977   -4.9417  -14.9238 C   0  0  0  0  0  0  0  0  0  0  0  0
   22.2957   -6.1852  -15.7850 C   0  0  0  0  0  0  0  0  0  0  0  0
   22.1245   -7.4373  -14.9583 C   0  0  2  0  0  0  0  0  0  0  0  0
   22.0663   -8.6249  -15.7801 N   0  0  0  0  0  0  0  0  0  0  0  0
   20.8650   -7.3504  -14.1903 C   0  0  0  0  0  0  0  0  0  0  0  0
   19.7683   -7.5810  -14.7457 O   0  0  0  0  0  0  0  0  0  0  0  0
   20.8699   -7.0151  -12.8516 O   0  0  0  0  0  0  0  0  0  0  0  0
  2  8  1  0
  2  1  1  6
  3  2  1  0
  4  3  1  0
  5  4  1  0
  6  5  1  0
  6  7  1  0
  8  9  2  0
 10 11  1  0
 10  8  1  0
 11 12  1  1
 12 13  1  0
 14 11  1  0
 15 14  2  0
 16 17  1  0
 17 19  1  0
 17 18  2  0
 19 20  1  0
 21 20  1  6
 21 22  1  0
 21 23  1  0
 22 14  1  0
 23 25  1  0
 24 23  2  0
M  END
$$$$
