KCQ.pdb
     RDKit          3D

 25 24  0  0  1  0  0  0  0  0999 V2000
   21.7618  -22.5424  -13.2584 N   0  0  0  0  0  0  0  0  0  0  0  0
   21.6492  -21.2379  -12.6741 C   0  0  1  0  0  0  0  0  0  0  0  0
   20.9305  -21.2323  -11.3860 C   0  0  0  0  0  0  0  0  0  0  0  0
   19.6442  -21.9738  -11.4049 C   0  0  0  0  0  0  0  0  0  0  0  0
   18.6475  -21.4147  -12.3464 C   0  0  0  0  0  0  0  0  0  0  0  0
   17.3363  -22.2307  -12.2419 C   0  0  0  0  0  0  0  0  0  0  0  0
   16.3695  -21.6119  -13.1337 N   0  0  0  0  0  0  0  0  0  0  0  0
   22.9905  -20.5653  -12.5797 C   0  0  0  0  0  0  0  0  0  0  0  0
   23.0890  -19.4106  -12.0926 O   0  0  0  0  0  0  0  0  0  0  0  0
   24.1842  -21.1875  -13.0261 N   0  0  0  0  0  0  0  0  0  0  0  0
   25.4144  -20.4862  -13.1714 C   0  0  1  0  0  0  0  0  0  0  0  0
   26.5515  -21.3918  -12.6997 C   0  0  0  0  0  0  0  0  0  0  0  0
   26.3680  -21.7318  -10.9342 S   0  0  0  0  0  0  0  0  0  0  0  0
   25.6742  -19.9728  -14.5128 C   0  0  0  0  0  0  0  0  0  0  0  0
   25.2758  -20.5361  -15.5582 O   0  0  0  0  0  0  0  0  0  0  0  0
   27.5305  -14.5211  -17.3364 N   0  0  0  0  0  0  0  0  0  0  0  0
   28.6216  -15.3235  -16.9158 C   0  0  0  0  0  0  0  0  0  0  0  0
   29.7750  -15.0082  -17.3036 O   0  0  0  0  0  0  0  0  0  0  0  0
   28.3609  -16.4882  -16.0458 C   0  0  0  0  0  0  0  0  0  0  0  0
   26.9010  -16.5921  -15.6640 C   0  0  0  0  0  0  0  0  0  0  0  0
   26.3673  -17.9896  -15.8712 C   0  0  2  0  0  0  0  0  0  0  0  0
   26.4158  -18.7731  -14.6576 N   0  0  0  0  0  0  0  0  0  0  0  0
   27.1809  -18.6795  -16.8939 C   0  0  0  0  0  0  0  0  0  0  0  0
   28.0259  -19.5377  -16.5566 O   0  0  0  0  0  0  0  0  0  0  0  0
   27.0281  -18.3945  -18.2355 O   0  0  0  0  0  0  0  0  0  0  0  0
  2  8  1  0
  2  1  1  1
  3  2  1  0
  4  3  1  0
  5  4  1  0
  6  5  1  0
  6  7  1  0
  8  9  2  0
 10 11  1  0
 10  8  1  0
 11 12  1  6
 12 13  1  0
 14 11  1  0
 15 14  2  0
 16 17  1  0
 17 19  1  0
 17 18  2  0
 19 20  1  0
 21 20  1  1
 21 22  1  0
 21 23  1  0
 22 14  1  0
 23 25  1  0
 24 23  2  0
M  END
$$$$
