KCQ.pdb
     RDKit          3D

 25 24  0  0  1  0  0  0  0  0999 V2000
   24.5389  -17.8085  -18.2033 N   0  0  0  0  0  0  0  0  0  0  0  0
   24.7816  -16.4661  -18.6446 C   0  0  1  0  0  0  0  0  0  0  0  0
   24.1392  -16.1471  -19.9337 C   0  0  0  0  0  0  0  0  0  0  0  0
   24.5260  -17.0522  -21.0453 C   0  0  0  0  0  0  0  0  0  0  0  0
   23.4779  -18.0332  -21.4076 C   0  0  0  0  0  0  0  0  0  0  0  0
   23.9632  -18.8734  -22.6138 C   0  0  0  0  0  0  0  0  0  0  0  0
   22.9519  -19.8852  -22.8712 N   0  0  0  0  0  0  0  0  0  0  0  0
   24.4340  -15.4692  -17.5742 C   0  0  0  0  0  0  0  0  0  0  0  0
   23.3182  -15.5197  -16.9974 O   0  0  0  0  0  0  0  0  0  0  0  0
   25.3291  -14.4452  -17.1719 N   0  0  0  0  0  0  0  0  0  0  0  0
   25.0336  -13.5270  -16.1250 C   0  0  1  0  0  0  0  0  0  0  0  0
   26.2641  -13.3962  -15.2282 C   0  0  0  0  0  0  0  0  0  0  0  0
   26.5646  -14.9599  -14.3733 S   0  0  0  0  0  0  0  0  0  0  0  0
   24.5668  -12.2176  -16.5700 C   0  0  0  0  0  0  0  0  0  0  0  0
   25.0428  -11.6125  -17.5580 O   0  0  0  0  0  0  0  0  0  0  0  0
   19.5554   -9.0713  -14.0874 N   0  0  0  0  0  0  0  0  0  0  0  0
   20.0102   -8.2048  -15.1139 C   0  0  0  0  0  0  0  0  0  0  0  0
   19.3614   -7.1505  -15.3319 O   0  0  0  0  0  0  0  0  0  0  0  0
   21.2184   -8.5731  -15.8794 C   0  0  0  0  0  0  0  0  0  0  0  0
   21.7400   -9.9381  -15.4885 C   0  0  0  0  0  0  0  0  0  0  0  0
   22.9750  -10.3104  -16.2739 C   0  0  2  0  0  0  0  0  0  0  0  0
   23.5189  -11.5827  -15.8564 N   0  0  0  0  0  0  0  0  0  0  0  0
   24.0147   -9.2800  -16.0716 C   0  0  0  0  0  0  0  0  0  0  0  0
   24.8592   -9.4044  -15.1574 O   0  0  0  0  0  0  0  0  0  0  0  0
   24.0775   -8.1642  -16.8813 O   0  0  0  0  0  0  0  0  0  0  0  0
  2  8  1  0
  2  1  1  1
  3  2  1  0
  4  3  1  0
  5  4  1  0
  6  5  1  0
  6  7  1  0
  8  9  2  0
 10 11  1  0
 10  8  1  0
 11 12  1  6
 12 13  1  0
 14 11  1  0
 15 14  2  0
 16 17  1  0
 17 19  1  0
 17 18  2  0
 19 20  1  0
 21 20  1  1
 21 22  1  0
 21 23  1  0
 22 14  1  0
 23 25  1  0
 24 23  2  0
M  END
$$$$
