KCQ.pdb
     RDKit          3D

 25 24  0  0  1  0  0  0  0  0999 V2000
   24.3437  -15.1364  -17.8052 N   0  0  0  0  0  0  0  0  0  0  0  0
   23.1512  -14.6288  -17.1920 C   0  0  1  0  0  0  0  0  0  0  0  0
   22.4896  -15.6016  -16.3020 C   0  0  0  0  0  0  0  0  0  0  0  0
   22.7238  -17.0203  -16.6720 C   0  0  0  0  0  0  0  0  0  0  0  0
   22.0074  -17.9875  -15.8095 C   0  0  0  0  0  0  0  0  0  0  0  0
   22.3703  -19.4266  -16.2495 C   0  0  0  0  0  0  0  0  0  0  0  0
   21.5951  -20.3392  -15.4255 N   0  0  0  0  0  0  0  0  0  0  0  0
   23.4068  -13.3147  -16.5079 C   0  0  0  0  0  0  0  0  0  0  0  0
   22.4853  -12.7371  -15.8774 O   0  0  0  0  0  0  0  0  0  0  0  0
   24.6729  -12.6766  -16.5399 N   0  0  0  0  0  0  0  0  0  0  0  0
   24.9122  -11.4027  -15.9513 C   0  0  1  0  0  0  0  0  0  0  0  0
   26.4101  -11.1071  -16.0189 C   0  0  0  0  0  0  0  0  0  0  0  0
   27.3214  -12.3587  -15.0867 S   0  0  0  0  0  0  0  0  0  0  0  0
   24.1346  -10.3069  -16.5211 C   0  0  0  0  0  0  0  0  0  0  0  0
   23.9865  -10.1308  -17.7524 O   0  0  0  0  0  0  0  0  0  0  0  0
   18.9095  -10.4739  -17.3049 N   0  0  0  0  0  0  0  0  0  0  0  0
   18.8839   -9.0559  -17.3031 C   0  0  0  0  0  0  0  0  0  0  0  0
   17.8095   -8.4808  -17.6113 O   0  0  0  0  0  0  0  0  0  0  0  0
   20.1111   -8.3177  -16.9420 C   0  0  0  0  0  0  0  0  0  0  0  0
   21.2479   -9.2509  -16.5889 C   0  0  0  0  0  0  0  0  0  0  0  0
   22.4613   -8.4947  -16.1026 C   0  0  2  0  0  0  0  0  0  0  0  0
   23.5066   -9.3832  -15.6477 N   0  0  0  0  0  0  0  0  0  0  0  0
   22.0769   -7.6242  -14.9720 C   0  0  0  0  0  0  0  0  0  0  0  0
   22.3711   -7.9438  -13.7991 O   0  0  0  0  0  0  0  0  0  0  0  0
   21.3890   -6.4466  -15.1829 O   0  0  0  0  0  0  0  0  0  0  0  0
  2  8  1  0
  2  1  1  1
  3  2  1  0
  4  3  1  0
  5  4  1  0
  6  5  1  0
  6  7  1  0
  8  9  2  0
 10 11  1  0
 10  8  1  0
 11 12  1  6
 12 13  1  0
 14 11  1  0
 15 14  2  0
 16 17  1  0
 17 19  1  0
 17 18  2  0
 19 20  1  0
 21 20  1  1
 21 22  1  0
 21 23  1  0
 22 14  1  0
 23 25  1  0
 24 23  2  0
M  END
$$$$
