KCQ.pdb
     RDKit          3D

 25 24  0  0  1  0  0  0  0  0999 V2000
   30.9267  -24.2448  -17.5258 N   0  0  0  0  0  0  0  0  0  0  0  0
   30.5489  -25.4172  -16.7919 C   0  0  1  0  0  0  0  0  0  0  0  0
   29.1164  -25.4538  -16.4418 C   0  0  0  0  0  0  0  0  0  0  0  0
   28.2961  -24.4265  -17.1320 C   0  0  0  0  0  0  0  0  0  0  0  0
   26.8711  -24.4325  -16.7299 C   0  0  0  0  0  0  0  0  0  0  0  0
   26.1372  -23.2705  -17.4422 C   0  0  0  0  0  0  0  0  0  0  0  0
   24.7599  -23.2794  -16.9777 N   0  0  0  0  0  0  0  0  0  0  0  0
   30.9941  -26.6684  -17.4965 C   0  0  0  0  0  0  0  0  0  0  0  0
   31.3676  -26.6231  -18.6960 O   0  0  0  0  0  0  0  0  0  0  0  0
   31.0140  -27.9335  -16.8558 N   0  0  0  0  0  0  0  0  0  0  0  0
   31.4929  -29.1144  -17.4903 C   0  0  1  0  0  0  0  0  0  0  0  0
   32.9389  -28.8820  -17.9270 C   0  0  0  0  0  0  0  0  0  0  0  0
   33.5933  -30.3826  -18.6926 S   0  0  0  0  0  0  0  0  0  0  0  0
   31.3744  -30.3313  -16.6931 C   0  0  0  0  0  0  0  0  0  0  0  0
   31.8284  -30.4441  -15.5312 O   0  0  0  0  0  0  0  0  0  0  0  0
   26.1445  -31.9274  -15.2431 N   0  0  0  0  0  0  0  0  0  0  0  0
   26.8144  -33.0529  -14.6993 C   0  0  0  0  0  0  0  0  0  0  0  0
   26.1829  -33.7924  -13.9029 O   0  0  0  0  0  0  0  0  0  0  0  0
   28.2163  -33.3087  -15.0874 C   0  0  0  0  0  0  0  0  0  0  0  0
   28.7319  -32.2695  -16.0581 C   0  0  0  0  0  0  0  0  0  0  0  0
   30.1780  -32.5114  -16.4199 C   0  0  2  0  0  0  0  0  0  0  0  0
   30.7126  -31.4552  -17.2491 N   0  0  0  0  0  0  0  0  0  0  0  0
   30.2915  -33.7813  -17.1671 C   0  0  0  0  0  0  0  0  0  0  0  0
   30.3917  -33.7748  -18.4138 O   0  0  0  0  0  0  0  0  0  0  0  0
   30.2895  -34.9953  -16.5109 O   0  0  0  0  0  0  0  0  0  0  0  0
  2  8  1  0
  2  1  1  6
  3  2  1  0
  4  3  1  0
  5  4  1  0
  6  5  1  0
  6  7  1  0
  8  9  2  0
 10 11  1  0
 10  8  1  0
 11 12  1  1
 12 13  1  0
 14 11  1  0
 15 14  2  0
 16 17  1  0
 17 19  1  0
 17 18  2  0
 19 20  1  0
 21 20  1  6
 21 22  1  0
 21 23  1  0
 22 14  1  0
 23 25  1  0
 24 23  2  0
M  END
$$$$
