KCQ.pdb
     RDKit          3D

 25 24  0  0  1  0  0  0  0  0999 V2000
   25.1708  -21.1539  -15.0030 N   0  0  0  0  0  0  0  0  0  0  0  0
   25.6187  -20.0105  -15.7432 C   0  0  1  0  0  0  0  0  0  0  0  0
   26.7843  -20.2886  -16.6036 C   0  0  0  0  0  0  0  0  0  0  0  0
   27.4696  -21.5707  -16.3021 C   0  0  0  0  0  0  0  0  0  0  0  0
   28.6072  -21.8650  -17.2030 C   0  0  0  0  0  0  0  0  0  0  0  0
   29.2001  -23.2475  -16.8380 C   0  0  0  0  0  0  0  0  0  0  0  0
   30.3939  -23.4333  -17.6462 N   0  0  0  0  0  0  0  0  0  0  0  0
   24.4880  -19.3771  -16.5050 C   0  0  0  0  0  0  0  0  0  0  0  0
   24.7234  -18.6480  -17.5016 O   0  0  0  0  0  0  0  0  0  0  0  0
   23.1297  -19.5674  -16.1440 N   0  0  0  0  0  0  0  0  0  0  0  0
   22.0494  -18.9769  -16.8587 C   0  0  1  0  0  0  0  0  0  0  0  0
   21.0291  -20.0658  -17.1887 C   0  0  0  0  0  0  0  0  0  0  0  0
   19.5839  -19.3266  -17.9833 S   0  0  0  0  0  0  0  0  0  0  0  0
   21.4134  -17.8475  -16.1877 C   0  0  0  0  0  0  0  0  0  0  0  0
   21.0366  -17.8752  -14.9935 O   0  0  0  0  0  0  0  0  0  0  0  0
   19.8452  -10.5777  -16.7688 N   0  0  0  0  0  0  0  0  0  0  0  0
   20.3990  -11.7969  -17.2362 C   0  0  0  0  0  0  0  0  0  0  0  0
   21.0268  -11.7851  -18.3252 O   0  0  0  0  0  0  0  0  0  0  0  0
   20.2173  -13.0215  -16.4310 C   0  0  0  0  0  0  0  0  0  0  0  0
   20.8156  -14.2354  -17.1066 C   0  0  0  0  0  0  0  0  0  0  0  0
   20.5695  -15.4956  -16.3118 C   0  0  2  0  0  0  0  0  0  0  0  0
   21.2034  -16.6472  -16.9126 N   0  0  0  0  0  0  0  0  0  0  0  0
   19.1166  -15.7571  -16.2432 C   0  0  0  0  0  0  0  0  0  0  0  0
   18.4567  -15.4028  -15.2416 O   0  0  0  0  0  0  0  0  0  0  0  0
   18.4590  -16.3940  -17.2759 O   0  0  0  0  0  0  0  0  0  0  0  0
  2  8  1  0
  2  1  1  6
  3  2  1  0
  4  3  1  0
  5  4  1  0
  6  5  1  0
  6  7  1  0
  8  9  2  0
 10 11  1  0
 10  8  1  0
 11 12  1  1
 12 13  1  0
 14 11  1  0
 15 14  2  0
 16 17  1  0
 17 19  1  0
 17 18  2  0
 19 20  1  0
 21 20  1  6
 21 22  1  0
 21 23  1  0
 22 14  1  0
 23 25  1  0
 24 23  2  0
M  END
$$$$
