KCQ.pdb
     RDKit          3D

 25 24  0  0  1  0  0  0  0  0999 V2000
   28.6601  -21.4828  -15.0943 N   0  0  0  0  0  0  0  0  0  0  0  0
   27.3857  -20.8807  -15.3572 C   0  0  1  0  0  0  0  0  0  0  0  0
   26.9350  -21.0470  -16.7519 C   0  0  0  0  0  0  0  0  0  0  0  0
   28.0166  -21.4160  -17.6998 C   0  0  0  0  0  0  0  0  0  0  0  0
   28.3720  -22.8531  -17.6687 C   0  0  0  0  0  0  0  0  0  0  0  0
   29.4938  -23.1216  -18.7010 C   0  0  0  0  0  0  0  0  0  0  0  0
   29.8782  -24.5171  -18.5690 N   0  0  0  0  0  0  0  0  0  0  0  0
   26.3515  -21.3394  -14.3671 C   0  0  0  0  0  0  0  0  0  0  0  0
   25.6784  -22.3780  -14.5869 O   0  0  0  0  0  0  0  0  0  0  0  0
   26.0907  -20.6374  -13.1627 N   0  0  0  0  0  0  0  0  0  0  0  0
   25.0682  -21.0212  -12.2496 C   0  0  1  0  0  0  0  0  0  0  0  0
   25.5043  -20.6338  -10.8370 C   0  0  0  0  0  0  0  0  0  0  0  0
   24.2255  -21.1096   -9.6519 S   0  0  0  0  0  0  0  0  0  0  0  0
   23.7426  -20.4914  -12.5535 C   0  0  0  0  0  0  0  0  0  0  0  0
   23.5044  -19.2718  -12.7109 O   0  0  0  0  0  0  0  0  0  0  0  0
   23.2600  -21.1737  -16.0497 N   0  0  0  0  0  0  0  0  0  0  0  0
   22.4262  -22.3149  -15.9315 C   0  0  0  0  0  0  0  0  0  0  0  0
   22.7689  -23.3654  -16.5306 O   0  0  0  0  0  0  0  0  0  0  0  0
   21.1985  -22.2237  -15.1157 C   0  0  0  0  0  0  0  0  0  0  0  0
   21.0550  -20.8676  -14.4611 C   0  0  0  0  0  0  0  0  0  0  0  0
   21.3166  -20.9337  -12.9752 C   0  0  2  0  0  0  0  0  0  0  0  0
   22.6553  -21.3924  -12.6810 N   0  0  0  0  0  0  0  0  0  0  0  0
   20.3632  -21.8739  -12.3501 C   0  0  0  0  0  0  0  0  0  0  0  0
   20.7784  -22.8869  -11.7452 O   0  0  0  0  0  0  0  0  0  0  0  0
   19.0020  -21.6574  -12.4189 O   0  0  0  0  0  0  0  0  0  0  0  0
  2  8  1  0
  2  1  1  6
  3  2  1  0
  4  3  1  0
  5  4  1  0
  6  5  1  0
  6  7  1  0
  8  9  2  0
 10 11  1  0
 10  8  1  0
 11 12  1  1
 12 13  1  0
 14 11  1  0
 15 14  2  0
 16 17  1  0
 17 19  1  0
 17 18  2  0
 19 20  1  0
 21 20  1  6
 21 22  1  0
 21 23  1  0
 22 14  1  0
 23 25  1  0
 24 23  2  0
M  END
$$$$
