KCQ.pdb
     RDKit          3D

 25 24  0  0  1  0  0  0  0  0999 V2000
   21.7330  -12.2591  -18.5304 N   0  0  0  0  0  0  0  0  0  0  0  0
   20.6628  -11.7018  -17.7559 C   0  0  1  0  0  0  0  0  0  0  0  0
   19.7734  -12.7203  -17.1663 C   0  0  0  0  0  0  0  0  0  0  0  0
   19.3174  -13.7575  -18.1260 C   0  0  0  0  0  0  0  0  0  0  0  0
   19.1406  -15.0959  -17.5180 C   0  0  0  0  0  0  0  0  0  0  0  0
   18.7281  -16.1034  -18.6184 C   0  0  0  0  0  0  0  0  0  0  0  0
   18.4847  -17.3798  -17.9671 N   0  0  0  0  0  0  0  0  0  0  0  0
   21.1802  -10.7349  -16.7276 C   0  0  0  0  0  0  0  0  0  0  0  0
   20.4321  -10.3330  -15.8007 O   0  0  0  0  0  0  0  0  0  0  0  0
   22.5090  -10.2398  -16.7527 N   0  0  0  0  0  0  0  0  0  0  0  0
   23.0082   -9.3152  -15.7924 C   0  0  1  0  0  0  0  0  0  0  0  0
   24.5197   -9.5054  -15.6712 C   0  0  0  0  0  0  0  0  0  0  0  0
   24.8720  -11.0389  -14.7822 S   0  0  0  0  0  0  0  0  0  0  0  0
   22.6741   -7.9184  -16.0530 C   0  0  0  0  0  0  0  0  0  0  0  0
   22.9557   -7.3274  -17.1208 O   0  0  0  0  0  0  0  0  0  0  0  0
   17.4724   -5.1822  -15.7438 N   0  0  0  0  0  0  0  0  0  0  0  0
   18.2644   -4.0206  -15.5572 C   0  0  0  0  0  0  0  0  0  0  0  0
   17.7156   -2.8986  -15.6983 O   0  0  0  0  0  0  0  0  0  0  0  0
   19.6910   -4.1749  -15.2073 C   0  0  0  0  0  0  0  0  0  0  0  0
   20.0948   -5.6294  -15.1123 C   0  0  0  0  0  0  0  0  0  0  0  0
   21.5865   -5.8067  -15.2679 C   0  0  2  0  0  0  0  0  0  0  0  0
   21.9942   -7.1767  -15.0541 N   0  0  0  0  0  0  0  0  0  0  0  0
   22.2873   -4.9613  -14.2788 C   0  0  0  0  0  0  0  0  0  0  0  0
   22.5718   -3.7740  -14.5502 O   0  0  0  0  0  0  0  0  0  0  0  0
   22.6413   -5.4592  -13.0414 O   0  0  0  0  0  0  0  0  0  0  0  0
  2  8  1  0
  2  1  1  1
  3  2  1  0
  4  3  1  0
  5  4  1  0
  6  5  1  0
  6  7  1  0
  8  9  2  0
 10 11  1  0
 10  8  1  0
 11 12  1  6
 12 13  1  0
 14 11  1  0
 15 14  2  0
 16 17  1  0
 17 19  1  0
 17 18  2  0
 19 20  1  0
 21 20  1  1
 21 22  1  0
 21 23  1  0
 22 14  1  0
 23 25  1  0
 24 23  2  0
M  END
$$$$
