KCQ.pdb
     RDKit          3D

 25 24  0  0  1  0  0  0  0  0999 V2000
   19.9593  -16.4809  -17.4275 N   0  0  0  0  0  0  0  0  0  0  0  0
   20.7090  -15.5018  -16.6961 C   0  0  1  0  0  0  0  0  0  0  0  0
   22.1691  -15.6470  -16.8485 C   0  0  0  0  0  0  0  0  0  0  0  0
   22.7263  -16.8721  -16.2215 C   0  0  0  0  0  0  0  0  0  0  0  0
   22.7358  -18.0497  -17.1191 C   0  0  0  0  0  0  0  0  0  0  0  0
   23.3408  -19.2586  -16.3649 C   0  0  0  0  0  0  0  0  0  0  0  0
   23.2619  -20.4063  -17.2533 N   0  0  0  0  0  0  0  0  0  0  0  0
   20.2402  -14.1087  -17.0119 C   0  0  0  0  0  0  0  0  0  0  0  0
   20.2716  -13.6806  -18.1934 O   0  0  0  0  0  0  0  0  0  0  0  0
   19.7502  -13.2287  -16.0134 N   0  0  0  0  0  0  0  0  0  0  0  0
   19.2266  -11.9384  -16.3090 C   0  0  1  0  0  0  0  0  0  0  0  0
   17.7352  -12.0745  -16.6137 C   0  0  0  0  0  0  0  0  0  0  0  0
   16.9410  -10.4545  -16.5090 S   0  0  0  0  0  0  0  0  0  0  0  0
   19.4624  -10.9295  -15.2809 C   0  0  0  0  0  0  0  0  0  0  0  0
   19.2500  -11.1217  -14.0615 O   0  0  0  0  0  0  0  0  0  0  0  0
   22.7021   -5.4981  -16.0930 N   0  0  0  0  0  0  0  0  0  0  0  0
   22.1282   -5.3278  -14.8073 C   0  0  0  0  0  0  0  0  0  0  0  0
   22.3845   -4.2704  -14.1778 O   0  0  0  0  0  0  0  0  0  0  0  0
   21.2593   -6.3914  -14.2640 C   0  0  0  0  0  0  0  0  0  0  0  0
   21.1581   -7.5724  -15.2035 C   0  0  0  0  0  0  0  0  0  0  0  0
   20.1696   -8.5998  -14.7054 C   0  0  2  0  0  0  0  0  0  0  0  0
   19.9584   -9.6585  -15.6665 N   0  0  0  0  0  0  0  0  0  0  0  0
   18.8686   -7.9466  -14.4513 C   0  0  0  0  0  0  0  0  0  0  0  0
   18.0877   -7.7028  -15.3975 O   0  0  0  0  0  0  0  0  0  0  0  0
   18.4879   -7.5930  -13.1728 O   0  0  0  0  0  0  0  0  0  0  0  0
  2  8  1  0
  2  1  1  6
  3  2  1  0
  4  3  1  0
  5  4  1  0
  6  5  1  0
  6  7  1  0
  8  9  2  0
 10 11  1  0
 10  8  1  0
 11 12  1  1
 12 13  1  0
 14 11  1  0
 15 14  2  0
 16 17  1  0
 17 19  1  0
 17 18  2  0
 19 20  1  0
 21 20  1  6
 21 22  1  0
 21 23  1  0
 22 14  1  0
 23 25  1  0
 24 23  2  0
M  END
$$$$
