KCQ.pdb
     RDKit          3D

 25 24  0  0  1  0  0  0  0  0999 V2000
   25.3541  -14.1511  -18.6483 N   0  0  0  0  0  0  0  0  0  0  0  0
   25.0969  -12.7787  -18.9740 C   0  0  1  0  0  0  0  0  0  0  0  0
   24.7270  -12.5705  -20.3868 C   0  0  0  0  0  0  0  0  0  0  0  0
   25.7615  -11.8693  -21.1885 C   0  0  0  0  0  0  0  0  0  0  0  0
   26.9072  -12.7280  -21.5655 C   0  0  0  0  0  0  0  0  0  0  0  0
   27.9240  -11.8907  -22.3785 C   0  0  0  0  0  0  0  0  0  0  0  0
   29.0198  -12.7740  -22.7415 N   0  0  0  0  0  0  0  0  0  0  0  0
   24.0970  -12.1723  -18.0292 C   0  0  0  0  0  0  0  0  0  0  0  0
   22.9307  -11.9125  -18.4197 O   0  0  0  0  0  0  0  0  0  0  0  0
   24.4143  -11.8704  -16.6803 N   0  0  0  0  0  0  0  0  0  0  0  0
   23.4707  -11.3178  -15.7688 C   0  0  1  0  0  0  0  0  0  0  0  0
   23.8167  -11.7947  -14.3587 C   0  0  0  0  0  0  0  0  0  0  0  0
   22.8042  -13.2305  -13.9350 S   0  0  0  0  0  0  0  0  0  0  0  0
   23.3495   -9.8640  -15.8163 C   0  0  0  0  0  0  0  0  0  0  0  0
   24.2814   -9.1032  -16.1649 O   0  0  0  0  0  0  0  0  0  0  0  0
   20.7100   -6.6752  -19.5108 N   0  0  0  0  0  0  0  0  0  0  0  0
   20.6648   -5.6790  -18.5023 C   0  0  0  0  0  0  0  0  0  0  0  0
   20.2822   -4.5256  -18.8236 O   0  0  0  0  0  0  0  0  0  0  0  0
   21.0659   -6.0342  -17.1260 C   0  0  0  0  0  0  0  0  0  0  0  0
   21.3946   -7.5048  -16.9956 C   0  0  0  0  0  0  0  0  0  0  0  0
   21.8836   -7.8474  -15.6084 C   0  0  2  0  0  0  0  0  0  0  0  0
   22.1173   -9.2650  -15.4514 N   0  0  0  0  0  0  0  0  0  0  0  0
   20.8689   -7.4383  -14.6150 C   0  0  0  0  0  0  0  0  0  0  0  0
   19.9573   -8.2267  -14.2807 O   0  0  0  0  0  0  0  0  0  0  0  0
   20.9037   -6.1855  -14.0373 O   0  0  0  0  0  0  0  0  0  0  0  0
  2  8  1  0
  2  1  1  1
  3  2  1  0
  4  3  1  0
  5  4  1  0
  6  5  1  0
  6  7  1  0
  8  9  2  0
 10 11  1  0
 10  8  1  0
 11 12  1  1
 12 13  1  0
 14 11  1  0
 15 14  2  0
 16 17  1  0
 17 19  1  0
 17 18  2  0
 19 20  1  0
 21 20  1  6
 21 22  1  0
 21 23  1  0
 22 14  1  0
 23 25  1  0
 24 23  2  0
M  END
$$$$
