KCQ.pdb
     RDKit          3D

 25 24  0  0  1  0  0  0  0  0999 V2000
   20.1541  -16.4741  -17.1989 N   0  0  0  0  0  0  0  0  0  0  0  0
   19.7785  -16.2449  -15.8343 C   0  0  1  0  0  0  0  0  0  0  0  0
   20.4631  -17.1372  -14.8798 C   0  0  0  0  0  0  0  0  0  0  0  0
   20.1989  -18.5814  -15.1017 C   0  0  0  0  0  0  0  0  0  0  0  0
   21.1642  -19.2301  -16.0181 C   0  0  0  0  0  0  0  0  0  0  0  0
   20.7875  -20.7228  -16.1793 C   0  0  0  0  0  0  0  0  0  0  0  0
   21.6611  -21.2820  -17.1975 N   0  0  0  0  0  0  0  0  0  0  0  0
   19.9268  -14.7953  -15.4641 C   0  0  0  0  0  0  0  0  0  0  0  0
   19.8008  -14.4292  -14.2682 O   0  0  0  0  0  0  0  0  0  0  0  0
   20.2100  -13.7921  -16.4258 N   0  0  0  0  0  0  0  0  0  0  0  0
   20.3951  -12.4228  -16.0834 C   0  0  1  0  0  0  0  0  0  0  0  0
   21.6742  -11.9207  -16.7524 C   0  0  0  0  0  0  0  0  0  0  0  0
   21.4946  -12.0009  -18.5489 S   0  0  0  0  0  0  0  0  0  0  0  0
   19.2644  -11.5537  -16.3939 C   0  0  0  0  0  0  0  0  0  0  0  0
   18.5056  -11.7295  -17.3749 O   0  0  0  0  0  0  0  0  0  0  0  0
   13.3802  -10.9872  -14.9302 N   0  0  0  0  0  0  0  0  0  0  0  0
   14.7203  -11.1143  -14.4837 C   0  0  0  0  0  0  0  0  0  0  0  0
   14.9189  -11.4705  -13.2947 O   0  0  0  0  0  0  0  0  0  0  0  0
   15.8199  -10.8253  -15.4264 C   0  0  0  0  0  0  0  0  0  0  0  0
   16.7393   -9.7425  -14.9064 C   0  0  0  0  0  0  0  0  0  0  0  0
   17.9190   -9.5231  -15.8233 C   0  0  2  0  0  0  0  0  0  0  0  0
   18.9966  -10.4465  -15.5496 N   0  0  0  0  0  0  0  0  0  0  0  0
   18.4350   -8.1506  -15.6397 C   0  0  0  0  0  0  0  0  0  0  0  0
   19.5508   -7.9603  -15.1074 O   0  0  0  0  0  0  0  0  0  0  0  0
   17.7027   -7.0546  -16.0485 O   0  0  0  0  0  0  0  0  0  0  0  0
  2  8  1  0
  2  1  1  6
  3  2  1  0
  4  3  1  0
  5  4  1  0
  6  5  1  0
  6  7  1  0
  8  9  2  0
 10 11  1  0
 10  8  1  0
 11 12  1  6
 12 13  1  0
 14 11  1  0
 15 14  2  0
 16 17  1  0
 17 19  1  0
 17 18  2  0
 19 20  1  0
 21 20  1  1
 21 22  1  0
 21 23  1  0
 22 14  1  0
 23 25  1  0
 24 23  2  0
M  END
$$$$
