KCQ.pdb
     RDKit          3D

 25 24  0  0  1  0  0  0  0  0999 V2000
   19.4050  -11.4795  -17.4393 N   0  0  0  0  0  0  0  0  0  0  0  0
   18.3898  -10.5004  -17.1815 C   0  0  1  0  0  0  0  0  0  0  0  0
   17.0818  -11.0886  -16.8363 C   0  0  0  0  0  0  0  0  0  0  0  0
   16.5931  -12.0968  -17.8107 C   0  0  0  0  0  0  0  0  0  0  0  0
   15.8062  -13.1892  -17.1943 C   0  0  0  0  0  0  0  0  0  0  0  0
   15.3300  -14.1599  -18.3021 C   0  0  0  0  0  0  0  0  0  0  0  0
   14.4604  -15.1404  -17.6735 N   0  0  0  0  0  0  0  0  0  0  0  0
   18.8481   -9.4954  -16.1616 C   0  0  0  0  0  0  0  0  0  0  0  0
   18.0580   -8.6136  -15.7393 O   0  0  0  0  0  0  0  0  0  0  0  0
   20.1660   -9.4935  -15.6376 N   0  0  0  0  0  0  0  0  0  0  0  0
   20.6200   -8.5336  -14.6894 C   0  0  1  0  0  0  0  0  0  0  0  0
   21.5528   -9.2292  -13.6986 C   0  0  0  0  0  0  0  0  0  0  0  0
   22.0351   -8.0703  -12.3985 S   0  0  0  0  0  0  0  0  0  0  0  0
   21.2540   -7.3524  -15.2666 C   0  0  0  0  0  0  0  0  0  0  0  0
   22.1705   -7.4058  -16.1187 O   0  0  0  0  0  0  0  0  0  0  0  0
   17.2690   -2.3020  -14.3700 N   0  0  0  0  0  0  0  0  0  0  0  0
   18.1633   -2.9025  -15.2925 C   0  0  0  0  0  0  0  0  0  0  0  0
   17.7766   -3.0596  -16.4782 O   0  0  0  0  0  0  0  0  0  0  0  0
   19.5025   -3.3158  -14.8266 C   0  0  0  0  0  0  0  0  0  0  0  0
   20.3228   -3.9295  -15.9394 C   0  0  0  0  0  0  0  0  0  0  0  0
   21.3864   -4.8578  -15.4032 C   0  0  2  0  0  0  0  0  0  0  0  0
   20.8206   -6.0679  -14.8512 N   0  0  0  0  0  0  0  0  0  0  0  0
   22.1395   -4.1745  -14.3310 C   0  0  0  0  0  0  0  0  0  0  0  0
   22.0249   -4.5459  -13.1421 O   0  0  0  0  0  0  0  0  0  0  0  0
   22.9808   -3.1181  -14.6148 O   0  0  0  0  0  0  0  0  0  0  0  0
  2  8  1  0
  2  1  1  1
  3  2  1  0
  4  3  1  0
  5  4  1  0
  6  5  1  0
  6  7  1  0
  8  9  2  0
 10 11  1  0
 10  8  1  0
 11 12  1  1
 12 13  1  0
 14 11  1  0
 15 14  2  0
 16 17  1  0
 17 19  1  0
 17 18  2  0
 19 20  1  0
 21 20  1  1
 21 22  1  0
 21 23  1  0
 22 14  1  0
 23 25  1  0
 24 23  2  0
M  END
$$$$
