KCQ.pdb
     RDKit          3D

 25 24  0  0  1  0  0  0  0  0999 V2000
   29.0179  -21.3469  -15.9538 N   0  0  0  0  0  0  0  0  0  0  0  0
   28.2322  -20.3707  -15.2571 C   0  0  1  0  0  0  0  0  0  0  0  0
   27.3530  -19.5845  -16.1431 C   0  0  0  0  0  0  0  0  0  0  0  0
   28.0729  -18.8351  -17.2036 C   0  0  0  0  0  0  0  0  0  0  0  0
   28.5389  -19.6852  -18.3228 C   0  0  0  0  0  0  0  0  0  0  0  0
   29.1981  -18.7905  -19.4003 C   0  0  0  0  0  0  0  0  0  0  0  0
   29.6058  -19.6581  -20.4929 N   0  0  0  0  0  0  0  0  0  0  0  0
   27.4786  -20.9921  -14.1142 C   0  0  0  0  0  0  0  0  0  0  0  0
   27.8843  -22.0615  -13.5928 O   0  0  0  0  0  0  0  0  0  0  0  0
   26.2986  -20.4142  -13.5803 N   0  0  0  0  0  0  0  0  0  0  0  0
   25.5809  -20.9866  -12.4923 C   0  0  1  0  0  0  0  0  0  0  0  0
   26.2949  -20.6226  -11.1910 C   0  0  0  0  0  0  0  0  0  0  0  0
   25.3100  -21.1752   -9.7800 S   0  0  0  0  0  0  0  0  0  0  0  0
   24.1671  -20.6290  -12.4331 C   0  0  0  0  0  0  0  0  0  0  0  0
   23.7540  -19.4480  -12.3744 O   0  0  0  0  0  0  0  0  0  0  0  0
   19.9614  -24.6011  -14.8483 N   0  0  0  0  0  0  0  0  0  0  0  0
   19.1503  -23.4779  -14.5453 C   0  0  0  0  0  0  0  0  0  0  0  0
   17.9929  -23.4321  -15.0335 O   0  0  0  0  0  0  0  0  0  0  0  0
   19.6939  -22.4156  -13.6751 C   0  0  0  0  0  0  0  0  0  0  0  0
   21.1373  -22.6736  -13.3036 C   0  0  0  0  0  0  0  0  0  0  0  0
   21.8255  -21.4161  -12.8284 C   0  0  2  0  0  0  0  0  0  0  0  0
   23.1962  -21.6623  -12.4416 N   0  0  0  0  0  0  0  0  0  0  0  0
   21.1084  -20.8779  -11.6537 C   0  0  0  0  0  0  0  0  0  0  0  0
   20.1955  -20.0357  -11.8012 O   0  0  0  0  0  0  0  0  0  0  0  0
   21.4273  -21.2893  -10.3756 O   0  0  0  0  0  0  0  0  0  0  0  0
  2  8  1  0
  2  1  1  6
  3  2  1  0
  4  3  1  0
  5  4  1  0
  6  5  1  0
  6  7  1  0
  8  9  2  0
 10 11  1  0
 10  8  1  0
 11 12  1  1
 12 13  1  0
 14 11  1  0
 15 14  2  0
 16 17  1  0
 17 19  1  0
 17 18  2  0
 19 20  1  0
 21 20  1  1
 21 22  1  0
 21 23  1  0
 22 14  1  0
 23 25  1  0
 24 23  2  0
M  END
$$$$
