ENL.pdb
     RDKit          3D

 26 25  0  0  1  0  0  0  0  0999 V2000
   11.3924  -19.2122   23.0076 N   0  0  0  0  0  0  0  0  0  0  0  0
   11.8970  -17.9002   22.6472 C   0  0  1  0  0  0  0  0  0  0  0  0
   12.8966  -17.9368   21.5309 C   0  0  0  0  0  0  0  0  0  0  0  0
   12.5462  -18.8253   20.3888 C   0  0  0  0  0  0  0  0  0  0  0  0
   13.4955  -18.7848   19.2556 C   0  0  0  0  0  0  0  0  0  0  0  0
   13.3617  -19.4473   18.1931 O   0  0  0  0  0  0  0  0  0  0  0  0
   10.7587  -17.0053   22.3543 C   0  0  0  0  0  0  0  0  0  0  0  0
   10.9753  -15.8167   22.0157 O   0  0  0  0  0  0  0  0  0  0  0  0
   14.6450  -17.9737   19.3013 O   0  0  0  0  0  0  0  0  0  0  0  0
    5.7403  -17.3905   24.4287 N   0  0  0  0  0  0  0  0  0  0  0  0
    6.7446  -17.8710   23.5470 C   0  0  0  0  0  0  0  0  0  0  0  0
    7.4243  -18.8684   23.9216 O   0  0  0  0  0  0  0  0  0  0  0  0
    6.9956  -17.2442   22.2468 C   0  0  0  0  0  0  0  0  0  0  0  0
    8.3077  -16.5034   22.1525 C   0  0  2  0  0  0  0  0  0  0  0  0
    9.3939  -17.4150   22.4333 N   0  0  0  0  0  0  0  0  0  0  0  0
    8.2556  -15.4061   23.1541 C   0  0  0  0  0  0  0  0  0  0  0  0
    7.8581  -14.2495   22.8841 O   0  0  0  0  0  0  0  0  0  0  0  0
    7.7607  -11.7743   26.2450 C   0  0  0  0  0  0  0  0  0  0  0  0
    6.9115  -12.9983   26.6246 C   0  0  1  0  0  0  0  0  0  0  0  0
    5.5146  -12.5451   26.8348 C   0  0  0  0  0  0  0  0  0  0  0  0
    7.1647  -14.0246   25.6019 C   0  0  0  0  0  0  0  0  0  0  0  0
    8.5063  -14.6558   25.5449 C   0  0  2  0  0  0  0  0  0  0  0  0
    8.6717  -15.6462   24.5002 N   0  0  0  0  0  0  0  0  0  0  0  0
    8.9782  -15.1684   26.8570 C   0  0  0  0  0  0  0  0  0  0  0  0
    9.6239  -14.3589   27.7765 O   0  0  0  0  0  0  0  0  0  0  0  0
    8.7952  -16.3732   27.1619 O   0  0  0  0  0  0  0  0  0  0  0  0
  2  1  1  6
  3  2  1  0
  4  3  1  0
  5  4  1  0
  5  6  2  0
  7  2  1  0
  7  8  2  0
  9  5  1  0
 10 11  1  0
 11 12  2  0
 14 13  1  1
 13 11  1  0
 14 15  1  0
 15  7  1  0
 16 14  1  0
 17 16  2  0
 19 18  1  6
 19 21  1  0
 20 19  1  0
 22 21  1  1
 22 24  1  0
 22 23  1  0
 23 16  1  0
 24 25  1  0
 26 24  2  0
M  END
$$$$
