ENL.pdb
     RDKit          3D

 26 25  0  0  1  0  0  0  0  0999 V2000
    8.0567  -18.6106   21.2344 N   0  0  0  0  0  0  0  0  0  0  0  0
    9.1840  -18.3593   20.3556 C   0  0  1  0  0  0  0  0  0  0  0  0
    8.9131  -18.7229   18.9270 C   0  0  0  0  0  0  0  0  0  0  0  0
    7.7718  -19.6540   18.7104 C   0  0  0  0  0  0  0  0  0  0  0  0
    7.4531  -19.9275   17.2924 C   0  0  0  0  0  0  0  0  0  0  0  0
    8.1432  -19.5249   16.3190 O   0  0  0  0  0  0  0  0  0  0  0  0
    9.6144  -16.9543   20.5070 C   0  0  0  0  0  0  0  0  0  0  0  0
   10.5010  -16.4921   19.7489 O   0  0  0  0  0  0  0  0  0  0  0  0
    6.3187  -20.6810   16.9365 O   0  0  0  0  0  0  0  0  0  0  0  0
    6.7279  -14.6282   21.0953 N   0  0  0  0  0  0  0  0  0  0  0  0
    7.5897  -13.8887   20.2426 C   0  0  0  0  0  0  0  0  0  0  0  0
    7.0578  -13.2063   19.3214 O   0  0  0  0  0  0  0  0  0  0  0  0
    9.0449  -13.9057   20.4118 C   0  0  0  0  0  0  0  0  0  0  0  0
    9.5268  -14.6980   21.6032 C   0  0  2  0  0  0  0  0  0  0  0  0
    9.0738  -16.0656   21.4841 N   0  0  0  0  0  0  0  0  0  0  0  0
    8.9567  -14.0473   22.8122 C   0  0  0  0  0  0  0  0  0  0  0  0
    9.0583  -12.8204   23.0429 O   0  0  0  0  0  0  0  0  0  0  0  0
    8.0679  -12.0837   27.0881 C   0  0  0  0  0  0  0  0  0  0  0  0
    6.8786  -13.0312   26.8618 C   0  0  1  0  0  0  0  0  0  0  0  0
    5.6353  -12.3084   27.2261 C   0  0  0  0  0  0  0  0  0  0  0  0
    7.0056  -13.5529   25.4925 C   0  0  0  0  0  0  0  0  0  0  0  0
    8.1583  -14.4297   25.1697 C   0  0  2  0  0  0  0  0  0  0  0  0
    8.2522  -14.8284   23.7797 N   0  0  0  0  0  0  0  0  0  0  0  0
    8.2893  -15.5977   26.0783 C   0  0  0  0  0  0  0  0  0  0  0  0
    8.4657  -16.8863   25.6028 O   0  0  0  0  0  0  0  0  0  0  0  0
    8.2412  -15.4325   27.3226 O   0  0  0  0  0  0  0  0  0  0  0  0
  2  1  1  1
  3  2  1  0
  4  3  1  0
  5  4  1  0
  5  6  2  0
  7  2  1  0
  7  8  2  0
  9  5  1  0
 10 11  1  0
 11 12  2  0
 14 13  1  6
 13 11  1  0
 14 15  1  0
 15  7  1  0
 16 14  1  0
 17 16  2  0
 19 18  1  6
 19 21  1  0
 20 19  1  0
 22 21  1  6
 22 24  1  0
 22 23  1  0
 23 16  1  0
 24 25  1  0
 26 24  2  0
M  END
$$$$
