ENL.pdb
     RDKit          3D

 26 25  0  0  1  0  0  0  0  0999 V2000
    9.3860  -14.3422   18.1910 N   0  0  0  0  0  0  0  0  0  0  0  0
   10.0865  -15.1252   19.1920 C   0  0  1  0  0  0  0  0  0  0  0  0
   11.4125  -14.5423   19.5777 C   0  0  0  0  0  0  0  0  0  0  0  0
   12.4644  -14.5971   18.5258 C   0  0  0  0  0  0  0  0  0  0  0  0
   13.8304  -14.2799   18.9954 C   0  0  0  0  0  0  0  0  0  0  0  0
   14.8411  -14.2136   18.2472 O   0  0  0  0  0  0  0  0  0  0  0  0
    9.2010  -15.3291   20.3567 C   0  0  0  0  0  0  0  0  0  0  0  0
    8.2027  -14.5854   20.5145 O   0  0  0  0  0  0  0  0  0  0  0  0
   14.0886  -14.0245   20.3554 O   0  0  0  0  0  0  0  0  0  0  0  0
    8.2415  -19.5328   20.5567 N   0  0  0  0  0  0  0  0  0  0  0  0
    7.5714  -18.7432   21.5285 C   0  0  0  0  0  0  0  0  0  0  0  0
    6.3151  -18.6417   21.4356 O   0  0  0  0  0  0  0  0  0  0  0  0
    8.2960  -18.0647   22.6059 C   0  0  0  0  0  0  0  0  0  0  0  0
    8.4655  -16.5778   22.4060 C   0  0  2  0  0  0  0  0  0  0  0  0
    9.4120  -16.3426   21.3391 N   0  0  0  0  0  0  0  0  0  0  0  0
    8.9600  -16.0239   23.6939 C   0  0  0  0  0  0  0  0  0  0  0  0
   10.1622  -16.0682   24.0428 O   0  0  0  0  0  0  0  0  0  0  0  0
    5.7989  -12.3000   26.7313 C   0  0  0  0  0  0  0  0  0  0  0  0
    6.9178  -12.8782   25.8496 C   0  0  1  0  0  0  0  0  0  0  0  0
    7.8287  -11.7698   25.4719 C   0  0  0  0  0  0  0  0  0  0  0  0
    7.4810  -14.0262   26.5765 C   0  0  0  0  0  0  0  0  0  0  0  0
    8.4745  -14.8861   25.8874 C   0  0  2  0  0  0  0  0  0  0  0  0
    8.0481  -15.4036   24.6028 N   0  0  0  0  0  0  0  0  0  0  0  0
    9.0274  -15.9629   26.7487 C   0  0  0  0  0  0  0  0  0  0  0  0
    9.9636  -15.7095   27.7372 O   0  0  0  0  0  0  0  0  0  0  0  0
    8.6462  -17.1494   26.5915 O   0  0  0  0  0  0  0  0  0  0  0  0
  2  1  1  6
  3  2  1  0
  4  3  1  0
  5  4  1  0
  5  6  2  0
  7  2  1  0
  7  8  2  0
  9  5  1  0
 10 11  1  0
 11 12  2  0
 14 13  1  1
 13 11  1  0
 14 15  1  0
 15  7  1  0
 16 14  1  0
 17 16  2  0
 19 18  1  1
 19 21  1  0
 20 19  1  0
 22 21  1  1
 22 24  1  0
 22 23  1  0
 23 16  1  0
 24 25  1  0
 26 24  2  0
M  END
$$$$
