ENL.pdb
     RDKit          3D

 26 25  0  0  1  0  0  0  0  0999 V2000
    6.8422  -18.1141   20.9388 N   0  0  0  0  0  0  0  0  0  0  0  0
    8.2653  -18.3699   20.8148 C   0  0  1  0  0  0  0  0  0  0  0  0
    8.6485  -18.9515   19.4876 C   0  0  0  0  0  0  0  0  0  0  0  0
    7.5652  -18.9816   18.4668 C   0  0  0  0  0  0  0  0  0  0  0  0
    7.9665  -18.5190   17.1207 C   0  0  0  0  0  0  0  0  0  0  0  0
    9.1249  -18.1268   16.8205 O   0  0  0  0  0  0  0  0  0  0  0  0
    9.0101  -17.1320   21.1232 C   0  0  0  0  0  0  0  0  0  0  0  0
   10.2603  -17.1179   21.0179 O   0  0  0  0  0  0  0  0  0  0  0  0
    7.0429  -18.4896   16.0589 O   0  0  0  0  0  0  0  0  0  0  0  0
    6.8711  -13.4333   19.3884 N   0  0  0  0  0  0  0  0  0  0  0  0
    8.1779  -13.4555   19.9440 C   0  0  0  0  0  0  0  0  0  0  0  0
    9.1553  -13.4233   19.1435 O   0  0  0  0  0  0  0  0  0  0  0  0
    8.4015  -13.5133   21.3908 C   0  0  0  0  0  0  0  0  0  0  0  0
    9.1522  -14.7365   21.8593 C   0  0  2  0  0  0  0  0  0  0  0  0
    8.3845  -15.9200   21.5435 N   0  0  0  0  0  0  0  0  0  0  0  0
    9.3366  -14.5925   23.3274 C   0  0  0  0  0  0  0  0  0  0  0  0
   10.2596  -13.9183   23.8396 O   0  0  0  0  0  0  0  0  0  0  0  0
    5.7602  -12.7708   26.4677 C   0  0  0  0  0  0  0  0  0  0  0  0
    7.2051  -13.0540   26.0257 C   0  0  1  0  0  0  0  0  0  0  0  0
    8.0784  -11.9982   26.5946 C   0  0  0  0  0  0  0  0  0  0  0  0
    7.4887  -14.4548   26.3728 C   0  0  0  0  0  0  0  0  0  0  0  0
    8.5909  -15.1533   25.6664 C   0  0  2  0  0  0  0  0  0  0  0  0
    8.4362  -15.2408   24.2283 N   0  0  0  0  0  0  0  0  0  0  0  0
    8.9319  -16.4737   26.2558 C   0  0  0  0  0  0  0  0  0  0  0  0
    9.0633  -17.6151   25.4827 O   0  0  0  0  0  0  0  0  0  0  0  0
    9.1112  -16.5798   27.4946 O   0  0  0  0  0  0  0  0  0  0  0  0
  2  1  1  6
  3  2  1  0
  4  3  1  0
  5  4  1  0
  5  6  2  0
  7  2  1  0
  7  8  2  0
  9  5  1  0
 10 11  1  0
 11 12  2  0
 14 13  1  1
 13 11  1  0
 14 15  1  0
 15  7  1  0
 16 14  1  0
 17 16  2  0
 19 18  1  1
 19 21  1  0
 20 19  1  0
 22 21  1  1
 22 24  1  0
 22 23  1  0
 23 16  1  0
 24 25  1  0
 26 24  2  0
M  END
$$$$
