ENL.pdb
     RDKit          3D

 26 25  0  0  1  0  0  0  0  0999 V2000
   10.3997  -16.5634   19.0511 N   0  0  0  0  0  0  0  0  0  0  0  0
    9.2392  -15.6940   18.9934 C   0  0  1  0  0  0  0  0  0  0  0  0
    8.3280  -15.9991   17.8430 C   0  0  0  0  0  0  0  0  0  0  0  0
    9.0060  -16.2645   16.5444 C   0  0  0  0  0  0  0  0  0  0  0  0
    8.0999  -16.6231   15.4320 C   0  0  0  0  0  0  0  0  0  0  0  0
    7.5696  -17.7559   15.2850 O   0  0  0  0  0  0  0  0  0  0  0  0
    8.5377  -15.7332   20.2928 C   0  0  0  0  0  0  0  0  0  0  0  0
    7.4486  -15.1250   20.4283 O   0  0  0  0  0  0  0  0  0  0  0  0
    7.7660  -15.6847   14.4374 O   0  0  0  0  0  0  0  0  0  0  0  0
   10.1125  -19.1881   24.1722 N   0  0  0  0  0  0  0  0  0  0  0  0
    9.4299  -18.6621   23.0434 C   0  0  0  0  0  0  0  0  0  0  0  0
    9.9199  -18.8947   21.9019 O   0  0  0  0  0  0  0  0  0  0  0  0
    8.2010  -17.8764   23.1806 C   0  0  0  0  0  0  0  0  0  0  0  0
    8.3096  -16.4540   22.6863 C   0  0  2  0  0  0  0  0  0  0  0  0
    9.0302  -16.4357   21.4333 N   0  0  0  0  0  0  0  0  0  0  0  0
    9.0354  -15.6884   23.7338 C   0  0  0  0  0  0  0  0  0  0  0  0
   10.2270  -15.9144   24.0465 O   0  0  0  0  0  0  0  0  0  0  0  0
    5.8001  -11.9869   26.8164 C   0  0  0  0  0  0  0  0  0  0  0  0
    6.8241  -12.5777   25.8337 C   0  0  1  0  0  0  0  0  0  0  0  0
    7.6356  -11.4633   25.2855 C   0  0  0  0  0  0  0  0  0  0  0  0
    7.5189  -13.6616   26.5448 C   0  0  0  0  0  0  0  0  0  0  0  0
    8.6095  -14.3856   25.8464 C   0  0  2  0  0  0  0  0  0  0  0  0
    8.3729  -14.6366   24.4390 N   0  0  0  0  0  0  0  0  0  0  0  0
    9.0504  -15.6177   26.5497 C   0  0  0  0  0  0  0  0  0  0  0  0
    9.9617  -15.5863   27.5921 O   0  0  0  0  0  0  0  0  0  0  0  0
    8.5935  -16.7352   26.2029 O   0  0  0  0  0  0  0  0  0  0  0  0
  2  1  1  1
  3  2  1  0
  4  3  1  0
  5  4  1  0
  5  6  2  0
  7  2  1  0
  7  8  2  0
  9  5  1  0
 10 11  1  0
 11 12  2  0
 14 13  1  1
 13 11  1  0
 14 15  1  0
 15  7  1  0
 16 14  1  0
 17 16  2  0
 19 18  1  1
 19 21  1  0
 20 19  1  0
 22 21  1  1
 22 24  1  0
 22 23  1  0
 23 16  1  0
 24 25  1  0
 26 24  2  0
M  END
$$$$
