ENL.pdb
     RDKit          3D

 26 25  0  0  1  0  0  0  0  0999 V2000
   11.4541  -18.9572   22.5799 N   0  0  0  0  0  0  0  0  0  0  0  0
   11.4066  -17.5728   22.1473 C   0  0  1  0  0  0  0  0  0  0  0  0
   11.4946  -17.4145   20.6594 C   0  0  0  0  0  0  0  0  0  0  0  0
   11.2912  -18.6611   19.8715 C   0  0  0  0  0  0  0  0  0  0  0  0
   11.4656  -18.5088   18.4109 C   0  0  0  0  0  0  0  0  0  0  0  0
   10.5319  -18.6003   17.5708 O   0  0  0  0  0  0  0  0  0  0  0  0
   10.2032  -16.9283   22.7118 C   0  0  0  0  0  0  0  0  0  0  0  0
   10.0072  -15.7040   22.5193 O   0  0  0  0  0  0  0  0  0  0  0  0
   12.7315  -18.2430   17.8556 O   0  0  0  0  0  0  0  0  0  0  0  0
    7.9422  -19.8065   24.1163 N   0  0  0  0  0  0  0  0  0  0  0  0
    6.8727  -19.1119   23.4912 C   0  0  0  0  0  0  0  0  0  0  0  0
    5.9625  -19.8023   22.9509 O   0  0  0  0  0  0  0  0  0  0  0  0
    6.8124  -17.6483   23.4654 C   0  0  0  0  0  0  0  0  0  0  0  0
    8.0475  -16.9619   23.9971 C   0  0  2  0  0  0  0  0  0  0  0  0
    9.2238  -17.6251   23.4814 N   0  0  0  0  0  0  0  0  0  0  0  0
    7.9865  -17.0536   25.4797 C   0  0  0  0  0  0  0  0  0  0  0  0
    6.9864  -16.7037   26.1478 O   0  0  0  0  0  0  0  0  0  0  0  0
   11.0669  -13.7350   27.4674 C   0  0  0  0  0  0  0  0  0  0  0  0
   10.0471  -14.5115   28.3160 C   0  0  1  0  0  0  0  0  0  0  0  0
    9.2656  -13.5326   29.1109 C   0  0  0  0  0  0  0  0  0  0  0  0
    9.3207  -15.4019   27.3979 C   0  0  0  0  0  0  0  0  0  0  0  0
    9.9283  -16.7089   27.0456 C   0  0  2  0  0  0  0  0  0  0  0  0
    9.1045  -17.5606   26.2114 N   0  0  0  0  0  0  0  0  0  0  0  0
   10.4624  -17.4508   28.2166 C   0  0  0  0  0  0  0  0  0  0  0  0
    9.6369  -18.1146   29.1088 O   0  0  0  0  0  0  0  0  0  0  0  0
   11.7010  -17.4898   28.4224 O   0  0  0  0  0  0  0  0  0  0  0  0
  2  1  1  6
  3  2  1  0
  4  3  1  0
  5  4  1  0
  5  6  2  0
  7  2  1  0
  7  8  2  0
  9  5  1  0
 10 11  1  0
 11 12  2  0
 14 13  1  6
 13 11  1  0
 14 15  1  0
 15  7  1  0
 16 14  1  0
 17 16  2  0
 19 18  1  6
 19 21  1  0
 20 19  1  0
 22 21  1  1
 22 24  1  0
 22 23  1  0
 23 16  1  0
 24 25  1  0
 26 24  2  0
M  END
$$$$
