ENL.pdb
     RDKit          3D

 26 25  0  0  1  0  0  0  0  0999 V2000
    6.6380  -17.7729   20.8090 N   0  0  0  0  0  0  0  0  0  0  0  0
    8.0370  -18.0452   20.5357 C   0  0  1  0  0  0  0  0  0  0  0  0
    8.2908  -18.4766   19.1228 C   0  0  0  0  0  0  0  0  0  0  0  0
    7.7656  -17.5623   18.0718 C   0  0  0  0  0  0  0  0  0  0  0  0
    8.1117  -17.9446   16.6858 C   0  0  0  0  0  0  0  0  0  0  0  0
    9.2788  -17.9221   16.2132 O   0  0  0  0  0  0  0  0  0  0  0  0
    8.8448  -16.8693   20.9189 C   0  0  0  0  0  0  0  0  0  0  0  0
   10.0911  -16.9000   20.7769 O   0  0  0  0  0  0  0  0  0  0  0  0
    7.1202  -18.3711   15.7822 O   0  0  0  0  0  0  0  0  0  0  0  0
    6.8462  -13.3366   19.3637 N   0  0  0  0  0  0  0  0  0  0  0  0
    8.1797  -13.2930   19.8501 C   0  0  0  0  0  0  0  0  0  0  0  0
    9.1133  -13.2725   18.9986 O   0  0  0  0  0  0  0  0  0  0  0  0
    8.4787  -13.2719   21.2842 C   0  0  0  0  0  0  0  0  0  0  0  0
    9.1113  -14.5379   21.8099 C   0  0  2  0  0  0  0  0  0  0  0  0
    8.2859  -15.6698   21.4535 N   0  0  0  0  0  0  0  0  0  0  0  0
    9.2099  -14.3892   23.2858 C   0  0  0  0  0  0  0  0  0  0  0  0
    9.9426  -13.5391   23.8419 O   0  0  0  0  0  0  0  0  0  0  0  0
    5.9357  -12.6934   26.7050 C   0  0  0  0  0  0  0  0  0  0  0  0
    7.2969  -13.0648   26.0947 C   0  0  1  0  0  0  0  0  0  0  0  0
    8.3205  -12.1483   26.6544 C   0  0  0  0  0  0  0  0  0  0  0  0
    7.4722  -14.5112   26.2955 C   0  0  0  0  0  0  0  0  0  0  0  0
    8.5786  -15.1989   25.5852 C   0  0  2  0  0  0  0  0  0  0  0  0
    8.4462  -15.2405   24.1429 N   0  0  0  0  0  0  0  0  0  0  0  0
    8.8974  -16.5401   26.1389 C   0  0  0  0  0  0  0  0  0  0  0  0
    9.2100  -16.7318   27.4743 O   0  0  0  0  0  0  0  0  0  0  0  0
    8.8885  -17.5468   25.3876 O   0  0  0  0  0  0  0  0  0  0  0  0
  2  1  1  6
  3  2  1  0
  4  3  1  0
  5  4  1  0
  5  6  2  0
  7  2  1  0
  7  8  2  0
  9  5  1  0
 10 11  1  0
 11 12  2  0
 14 13  1  6
 13 11  1  0
 14 15  1  0
 15  7  1  0
 16 14  1  0
 17 16  2  0
 19 18  1  1
 19 21  1  0
 20 19  1  0
 22 21  1  1
 22 24  1  0
 22 23  1  0
 23 16  1  0
 24 25  1  0
 26 24  2  0
M  END
$$$$
