ENL.pdb
     RDKit          3D

 26 25  0  0  1  0  0  0  0  0999 V2000
   11.4861  -17.1710   19.3242 N   0  0  0  0  0  0  0  0  0  0  0  0
   10.5117  -16.1139   19.5224 C   0  0  1  0  0  0  0  0  0  0  0  0
    9.7422  -15.7782   18.2807 C   0  0  0  0  0  0  0  0  0  0  0  0
    8.9205  -14.5390   18.3541 C   0  0  0  0  0  0  0  0  0  0  0  0
    8.1208  -14.2506   17.1440 C   0  0  0  0  0  0  0  0  0  0  0  0
    7.3814  -15.0895   16.5648 O   0  0  0  0  0  0  0  0  0  0  0  0
    9.6294  -16.4719   20.6518 C   0  0  0  0  0  0  0  0  0  0  0  0
    8.5240  -17.0207   20.4256 O   0  0  0  0  0  0  0  0  0  0  0  0
    8.1410  -12.9754   16.5483 O   0  0  0  0  0  0  0  0  0  0  0  0
    9.2509  -19.7766   25.3094 N   0  0  0  0  0  0  0  0  0  0  0  0
    8.7092  -18.8166   24.4139 C   0  0  0  0  0  0  0  0  0  0  0  0
    7.4814  -18.5387   24.5258 O   0  0  0  0  0  0  0  0  0  0  0  0
    9.5308  -18.1632   23.3920 C   0  0  0  0  0  0  0  0  0  0  0  0
    9.1465  -16.7325   23.1011 C   0  0  2  0  0  0  0  0  0  0  0  0
    9.9608  -16.2282   22.0184 N   0  0  0  0  0  0  0  0  0  0  0  0
    9.3785  -15.9617   24.3510 C   0  0  0  0  0  0  0  0  0  0  0  0
   10.5065  -15.8391   24.8816 O   0  0  0  0  0  0  0  0  0  0  0  0
    5.8260  -11.8085   26.2915 C   0  0  0  0  0  0  0  0  0  0  0  0
    7.0513  -12.5295   25.7066 C   0  0  1  0  0  0  0  0  0  0  0  0
    8.1217  -11.5246   25.4937 C   0  0  0  0  0  0  0  0  0  0  0  0
    7.3334  -13.6718   26.5893 C   0  0  0  0  0  0  0  0  0  0  0  0
    8.4553  -14.5786   26.2421 C   0  0  2  0  0  0  0  0  0  0  0  0
    8.2848  -15.3162   25.0065 N   0  0  0  0  0  0  0  0  0  0  0  0
    8.8623  -15.4738   27.3557 C   0  0  0  0  0  0  0  0  0  0  0  0
    9.6161  -15.0235   28.4266 O   0  0  0  0  0  0  0  0  0  0  0  0
    8.5215  -16.6828   27.3448 O   0  0  0  0  0  0  0  0  0  0  0  0
  2  1  1  6
  3  2  1  0
  4  3  1  0
  5  4  1  0
  5  6  2  0
  7  2  1  0
  7  8  2  0
  9  5  1  0
 10 11  1  0
 11 12  2  0
 14 13  1  1
 13 11  1  0
 14 15  1  0
 15  7  1  0
 16 14  1  0
 17 16  2  0
 19 18  1  1
 19 21  1  0
 20 19  1  0
 22 21  1  1
 22 24  1  0
 22 23  1  0
 23 16  1  0
 24 25  1  0
 26 24  2  0
M  END
$$$$
