ENL.pdb
     RDKit          3D

 26 25  0  0  1  0  0  0  0  0999 V2000
    7.9266  -19.0523   18.8615 N   0  0  0  0  0  0  0  0  0  0  0  0
    8.8997  -18.6525   19.8611 C   0  0  1  0  0  0  0  0  0  0  0  0
    9.9827  -17.7726   19.3137 C   0  0  0  0  0  0  0  0  0  0  0  0
    9.8660  -17.4410   17.8671 C   0  0  0  0  0  0  0  0  0  0  0  0
   10.9817  -16.6382   17.3213 C   0  0  0  0  0  0  0  0  0  0  0  0
   12.0114  -16.3186   17.9720 O   0  0  0  0  0  0  0  0  0  0  0  0
    8.1966  -18.0349   21.0041 C   0  0  0  0  0  0  0  0  0  0  0  0
    7.1368  -17.3928   20.8068 O   0  0  0  0  0  0  0  0  0  0  0  0
   10.9558  -16.1683   15.9947 O   0  0  0  0  0  0  0  0  0  0  0  0
    5.5578  -20.1852   25.2944 N   0  0  0  0  0  0  0  0  0  0  0  0
    6.0604  -19.0709   24.5714 C   0  0  0  0  0  0  0  0  0  0  0  0
    5.2249  -18.2233   24.1465 O   0  0  0  0  0  0  0  0  0  0  0  0
    7.4929  -18.8962   24.3190 C   0  0  0  0  0  0  0  0  0  0  0  0
    7.8362  -17.6992   23.4653 C   0  0  2  0  0  0  0  0  0  0  0  0
    8.6556  -18.1234   22.3525 N   0  0  0  0  0  0  0  0  0  0  0  0
    8.5688  -16.7440   24.3376 C   0  0  0  0  0  0  0  0  0  0  0  0
    9.8048  -16.8020   24.5317 O   0  0  0  0  0  0  0  0  0  0  0  0
    7.7106  -12.8085   24.4673 C   0  0  0  0  0  0  0  0  0  0  0  0
    7.5824  -12.5467   25.9768 C   0  0  1  0  0  0  0  0  0  0  0  0
    6.4153  -11.6571   26.1947 C   0  0  0  0  0  0  0  0  0  0  0  0
    7.5903  -13.8605   26.6380 C   0  0  0  0  0  0  0  0  0  0  0  0
    8.4539  -14.9313   26.0818 C   0  0  2  0  0  0  0  0  0  0  0  0
    7.8609  -15.6960   25.0033 N   0  0  0  0  0  0  0  0  0  0  0  0
    9.0397  -15.8203   27.1179 C   0  0  0  0  0  0  0  0  0  0  0  0
   10.1735  -15.4726   27.8332 O   0  0  0  0  0  0  0  0  0  0  0  0
    8.5042  -16.9285   27.3687 O   0  0  0  0  0  0  0  0  0  0  0  0
  2  1  1  6
  3  2  1  0
  4  3  1  0
  5  4  1  0
  5  6  2  0
  7  2  1  0
  7  8  2  0
  9  5  1  0
 10 11  1  0
 11 12  2  0
 14 13  1  1
 13 11  1  0
 14 15  1  0
 15  7  1  0
 16 14  1  0
 17 16  2  0
 19 18  1  6
 19 21  1  0
 20 19  1  0
 22 21  1  1
 22 24  1  0
 22 23  1  0
 23 16  1  0
 24 25  1  0
 26 24  2  0
M  END
$$$$
