ENL.pdb
     RDKit          3D

 26 25  0  0  1  0  0  0  0  0999 V2000
   10.6330  -19.4158   20.8597 N   0  0  0  0  0  0  0  0  0  0  0  0
   11.3775  -18.1724   20.7851 C   0  0  1  0  0  0  0  0  0  0  0  0
   12.0957  -17.9900   19.4822 C   0  0  0  0  0  0  0  0  0  0  0  0
   13.4559  -18.5913   19.4131 C   0  0  0  0  0  0  0  0  0  0  0  0
   14.3051  -18.0832   18.3142 C   0  0  0  0  0  0  0  0  0  0  0  0
   15.4639  -18.5051   18.0589 O   0  0  0  0  0  0  0  0  0  0  0  0
   10.4731  -17.0454   21.0919 C   0  0  0  0  0  0  0  0  0  0  0  0
   10.8487  -15.8696   20.8663 O   0  0  0  0  0  0  0  0  0  0  0  0
   13.8504  -17.0616   17.4593 O   0  0  0  0  0  0  0  0  0  0  0  0
    6.8428  -17.0745   19.7315 N   0  0  0  0  0  0  0  0  0  0  0  0
    6.2159  -17.0480   21.0056 C   0  0  0  0  0  0  0  0  0  0  0  0
    5.0242  -17.4620   21.0806 O   0  0  0  0  0  0  0  0  0  0  0  0
    6.9120  -16.5612   22.1993 C   0  0  0  0  0  0  0  0  0  0  0  0
    8.3207  -16.0795   21.9489 C   0  0  2  0  0  0  0  0  0  0  0  0
    9.1666  -17.2108   21.6420 N   0  0  0  0  0  0  0  0  0  0  0  0
    8.7689  -15.3956   23.1905 C   0  0  0  0  0  0  0  0  0  0  0  0
    9.4410  -14.3387   23.1868 O   0  0  0  0  0  0  0  0  0  0  0  0
    8.4024  -12.3636   26.9167 C   0  0  0  0  0  0  0  0  0  0  0  0
    7.0791  -13.0890   26.6231 C   0  0  1  0  0  0  0  0  0  0  0  0
    6.0082  -12.0690   26.5063 C   0  0  0  0  0  0  0  0  0  0  0  0
    7.3259  -13.9750   25.4753 C   0  0  0  0  0  0  0  0  0  0  0  0
    8.2686  -15.1086   25.6418 C   0  0  2  0  0  0  0  0  0  0  0  0
    8.4353  -15.9421   24.4682 N   0  0  0  0  0  0  0  0  0  0  0  0
    8.0065  -15.9263   26.8541 C   0  0  0  0  0  0  0  0  0  0  0  0
    8.6522  -15.6911   28.0565 O   0  0  0  0  0  0  0  0  0  0  0  0
    7.1753  -16.8669   26.8083 O   0  0  0  0  0  0  0  0  0  0  0  0
  2  1  1  6
  3  2  1  0
  4  3  1  0
  5  4  1  0
  5  6  2  0
  7  2  1  0
  7  8  2  0
  9  5  1  0
 10 11  1  0
 11 12  2  0
 14 13  1  1
 13 11  1  0
 14 15  1  0
 15  7  1  0
 16 14  1  0
 17 16  2  0
 19 18  1  6
 19 21  1  0
 20 19  1  0
 22 21  1  6
 22 24  1  0
 22 23  1  0
 23 16  1  0
 24 25  1  0
 26 24  2  0
M  END
$$$$
