ENL.pdb
     RDKit          3D

 26 25  0  0  1  0  0  0  0  0999 V2000
   10.0921  -17.7313   18.9689 N   0  0  0  0  0  0  0  0  0  0  0  0
    9.2527  -17.0869   19.9619 C   0  0  1  0  0  0  0  0  0  0  0  0
    7.8032  -17.4466   19.8346 C   0  0  0  0  0  0  0  0  0  0  0  0
    7.3754  -17.9058   18.4846 C   0  0  0  0  0  0  0  0  0  0  0  0
    5.9418  -18.2505   18.3706 C   0  0  0  0  0  0  0  0  0  0  0  0
    5.1341  -18.2580   19.3368 O   0  0  0  0  0  0  0  0  0  0  0  0
    9.7872  -17.3725   21.3091 C   0  0  0  0  0  0  0  0  0  0  0  0
    9.4798  -18.4445   21.8840 O   0  0  0  0  0  0  0  0  0  0  0  0
    5.3771  -18.6028   17.1303 O   0  0  0  0  0  0  0  0  0  0  0  0
   13.5078  -18.9876   23.0031 N   0  0  0  0  0  0  0  0  0  0  0  0
   13.3297  -17.6434   22.5806 C   0  0  0  0  0  0  0  0  0  0  0  0
   13.8092  -17.3138   21.4588 O   0  0  0  0  0  0  0  0  0  0  0  0
   12.6181  -16.6626   23.4039 C   0  0  0  0  0  0  0  0  0  0  0  0
   11.1137  -16.7794   23.3558 C   0  0  2  0  0  0  0  0  0  0  0  0
   10.6529  -16.4860   22.0175 N   0  0  0  0  0  0  0  0  0  0  0  0
   10.5742  -15.8002   24.3358 C   0  0  0  0  0  0  0  0  0  0  0  0
   11.0408  -14.6468   24.4804 O   0  0  0  0  0  0  0  0  0  0  0  0
    6.2337  -12.9382   25.6044 C   0  0  0  0  0  0  0  0  0  0  0  0
    7.7184  -13.3319   25.6703 C   0  0  1  0  0  0  0  0  0  0  0  0
    8.4504  -12.2586   26.3866 C   0  0  0  0  0  0  0  0  0  0  0  0
    7.7721  -14.6965   26.2167 C   0  0  0  0  0  0  0  0  0  0  0  0
    9.0908  -15.3679   26.3243 C   0  0  2  0  0  0  0  0  0  0  0  0
    9.4703  -16.1576   25.1701 N   0  0  0  0  0  0  0  0  0  0  0  0
    9.2671  -16.1328   27.5856 C   0  0  0  0  0  0  0  0  0  0  0  0
    9.7418  -15.5436   28.7456 O   0  0  0  0  0  0  0  0  0  0  0  0
    8.9819  -17.3556   27.6225 O   0  0  0  0  0  0  0  0  0  0  0  0
  2  1  1  6
  3  2  1  0
  4  3  1  0
  5  4  1  0
  5  6  2  0
  7  2  1  0
  7  8  2  0
  9  5  1  0
 10 11  1  0
 11 12  2  0
 14 13  1  6
 13 11  1  0
 14 15  1  0
 15  7  1  0
 16 14  1  0
 17 16  2  0
 19 18  1  1
 19 21  1  0
 20 19  1  0
 22 21  1  6
 22 24  1  0
 22 23  1  0
 23 16  1  0
 24 25  1  0
 26 24  2  0
M  END
$$$$
