TPG.pdb
     RDKit          3D

 19 19  0  0  1  0  0  0  0  0999 V2000
   21.4932  -13.7528  -19.4533 C   0  0  0  0  0  0  0  0  0  0  0  0
   21.3381  -12.3677  -18.7888 C   0  0  1  0  0  0  0  0  0  0  0  0
   20.1450  -11.8747  -19.3206 O   0  0  0  0  0  0  0  0  0  0  0  0
   21.2227  -12.6688  -17.3218 C   0  0  2  0  0  0  0  0  0  0  0  0
   20.0759  -13.5943  -17.2181 N   0  0  0  0  0  0  0  0  0  0  0  0
   20.9807  -11.5349  -16.4390 C   0  0  0  0  0  0  0  0  0  0  0  0
   19.7640  -11.1122  -16.3902 O   0  0  0  0  0  0  0  0  0  0  0  0
   21.8900  -10.8363  -15.6301 N   0  0  0  0  0  0  0  0  0  0  0  0
   23.2936  -11.1474  -15.4792 C   0  0  0  0  0  0  0  0  0  0  0  0
   23.9075  -10.0703  -14.6498 C   0  0  0  0  0  0  0  0  0  0  0  0
   22.7630   -9.4757  -13.9029 C   0  0  0  0  0  0  0  0  0  0  0  0
   21.5686   -9.6814  -14.8244 C   0  0  1  0  0  0  0  0  0  0  0  0
   21.3605   -8.4666  -15.6383 C   0  0  0  0  0  0  0  0  0  0  0  0
   21.9175   -8.3214  -16.7465 O   0  0  0  0  0  0  0  0  0  0  0  0
   20.5136   -7.4404  -15.1596 N   0  0  0  0  0  0  0  0  0  0  0  0
   20.1108   -6.3047  -15.9458 C   0  0  0  0  0  0  0  0  0  0  0  0
   19.1814   -5.4240  -15.1962 C   0  0  0  0  0  0  0  0  0  0  0  0
   17.9432   -5.6134  -15.2643 O   0  0  0  0  0  0  0  0  0  0  0  0
   19.6192   -4.3759  -14.4041 O   0  0  0  0  0  0  0  0  0  0  0  0
  2  1  1  6
  2  3  1  0
  4  2  1  0
  4  5  1  6
  6  4  1  0
  7  6  2  0
  8  9  1  0
  8  6  1  0
 10 11  1  0
 10  9  1  0
 11 12  1  0
 12  8  1  0
 12 13  1  6
 13 15  1  0
 14 13  2  0
 15 16  1  0
 16 17  1  0
 17 19  1  0
 18 17  2  0
M  END
$$$$
