TPG.pdb
     RDKit          3D

 19 19  0  0  1  0  0  0  0  0999 V2000
   25.1914  -11.5914  -15.8766 C   0  0  0  0  0  0  0  0  0  0  0  0
   24.8611  -12.0077  -17.3263 C   0  0  1  0  0  0  0  0  0  0  0  0
   25.4234  -13.2803  -17.4439 O   0  0  0  0  0  0  0  0  0  0  0  0
   23.3602  -12.0453  -17.3708 C   0  0  2  0  0  0  0  0  0  0  0  0
   23.0382  -12.5916  -18.7051 N   0  0  0  0  0  0  0  0  0  0  0  0
   22.6697  -10.7714  -17.2158 C   0  0  0  0  0  0  0  0  0  0  0  0
   23.0700   -9.8194  -17.9871 O   0  0  0  0  0  0  0  0  0  0  0  0
   21.6248  -10.4344  -16.3419 N   0  0  0  0  0  0  0  0  0  0  0  0
   20.9534  -11.3451  -15.4422 C   0  0  0  0  0  0  0  0  0  0  0  0
   20.0189  -10.5417  -14.6019 C   0  0  0  0  0  0  0  0  0  0  0  0
   19.7774   -9.3017  -15.3928 C   0  0  0  0  0  0  0  0  0  0  0  0
   21.0590   -9.1138  -16.1930 C   0  0  1  0  0  0  0  0  0  0  0  0
   21.9596   -8.1931  -15.4700 C   0  0  0  0  0  0  0  0  0  0  0  0
   22.7479   -8.6065  -14.5942 O   0  0  0  0  0  0  0  0  0  0  0  0
   21.9350   -6.8114  -15.7699 N   0  0  0  0  0  0  0  0  0  0  0  0
   22.8445   -5.8534  -15.1997 C   0  0  0  0  0  0  0  0  0  0  0  0
   22.2815   -5.2257  -13.9790 C   0  0  0  0  0  0  0  0  0  0  0  0
   22.3039   -3.9786  -13.8457 O   0  0  0  0  0  0  0  0  0  0  0  0
   21.7173   -5.9624  -12.9512 O   0  0  0  0  0  0  0  0  0  0  0  0
  2  1  1  1
  2  3  1  0
  4  2  1  0
  4  5  1  6
  6  4  1  0
  7  6  2  0
  8  9  1  0
  8  6  1  0
 10 11  1  0
 10  9  1  0
 11 12  1  0
 12  8  1  0
 12 13  1  1
 13 15  1  0
 14 13  2  0
 15 16  1  0
 16 17  1  0
 17 19  1  0
 18 17  2  0
M  END
$$$$
