TPG.pdb
     RDKit          3D

 19 19  0  0  1  0  0  0  0  0999 V2000
   23.2329  -10.2127  -20.0302 C   0  0  0  0  0  0  0  0  0  0  0  0
   22.2317  -11.1747  -19.3547 C   0  0  1  0  0  0  0  0  0  0  0  0
   21.9676  -12.1272  -20.3409 O   0  0  0  0  0  0  0  0  0  0  0  0
   22.9941  -11.7540  -18.1974 C   0  0  2  0  0  0  0  0  0  0  0  0
   22.1409  -12.8521  -17.6985 N   0  0  0  0  0  0  0  0  0  0  0  0
   23.2816  -10.8539  -17.0881 C   0  0  0  0  0  0  0  0  0  0  0  0
   22.2545  -10.3691  -16.4788 O   0  0  0  0  0  0  0  0  0  0  0  0
   24.5254  -10.4398  -16.5870 N   0  0  0  0  0  0  0  0  0  0  0  0
   25.8154  -10.8801  -17.0683 C   0  0  0  0  0  0  0  0  0  0  0  0
   26.8574  -10.0832  -16.3584 C   0  0  0  0  0  0  0  0  0  0  0  0
   26.1818   -9.6044  -15.1191 C   0  0  0  0  0  0  0  0  0  0  0  0
   24.7152   -9.4934  -15.5126 C   0  0  1  0  0  0  0  0  0  0  0  0
   24.4204   -8.1061  -15.9249 C   0  0  0  0  0  0  0  0  0  0  0  0
   24.5290   -7.7427  -17.1146 O   0  0  0  0  0  0  0  0  0  0  0  0
   24.0053   -7.1621  -14.9573 N   0  0  0  0  0  0  0  0  0  0  0  0
   23.4819   -5.8618  -15.2823 C   0  0  0  0  0  0  0  0  0  0  0  0
   22.0281   -5.9159  -15.5737 C   0  0  0  0  0  0  0  0  0  0  0  0
   21.2037   -5.4563  -14.7475 O   0  0  0  0  0  0  0  0  0  0  0  0
   21.5188   -6.4613  -16.7402 O   0  0  0  0  0  0  0  0  0  0  0  0
  2  1  1  6
  2  3  1  0
  4  2  1  0
  4  5  1  1
  6  4  1  0
  7  6  2  0
  8  9  1  0
  8  6  1  0
 10 11  1  0
 10  9  1  0
 11 12  1  0
 12  8  1  0
 12 13  1  6
 13 15  1  0
 14 13  2  0
 15 16  1  0
 16 17  1  0
 17 19  1  0
 18 17  2  0
M  END
$$$$
