TPG.pdb
     RDKit          3D

 19 19  0  0  1  0  0  0  0  0999 V2000
   22.7730  -21.6957  -13.0468 C   0  0  0  0  0  0  0  0  0  0  0  0
   22.7311  -21.0206  -11.6588 C   0  0  1  0  0  0  0  0  0  0  0  0
   21.9710  -21.8988  -10.8838 O   0  0  0  0  0  0  0  0  0  0  0  0
   24.1675  -20.9776  -11.2216 C   0  0  2  0  0  0  0  0  0  0  0  0
   24.1133  -20.6124   -9.7911 N   0  0  0  0  0  0  0  0  0  0  0  0
   25.0311  -20.0251  -11.9075 C   0  0  0  0  0  0  0  0  0  0  0  0
   24.7738  -18.7803  -11.6939 O   0  0  0  0  0  0  0  0  0  0  0  0
   26.1091  -20.2739  -12.7709 N   0  0  0  0  0  0  0  0  0  0  0  0
   26.6029  -21.5797  -13.1459 C   0  0  0  0  0  0  0  0  0  0  0  0
   27.6533  -21.3827  -14.1865 C   0  0  0  0  0  0  0  0  0  0  0  0
   28.1144  -19.9789  -13.9909 C   0  0  0  0  0  0  0  0  0  0  0  0
   26.8934  -19.2590  -13.4350 C   0  0  1  0  0  0  0  0  0  0  0  0
   26.1581  -18.6123  -14.5408 C   0  0  0  0  0  0  0  0  0  0  0  0
   25.1690  -19.1582  -15.0727 O   0  0  0  0  0  0  0  0  0  0  0  0
   26.5768  -17.3471  -15.0136 N   0  0  0  0  0  0  0  0  0  0  0  0
   25.7814  -16.1525  -14.9118 C   0  0  0  0  0  0  0  0  0  0  0  0
   24.5914  -16.2120  -15.7959 C   0  0  0  0  0  0  0  0  0  0  0  0
   24.5927  -15.6049  -16.8936 O   0  0  0  0  0  0  0  0  0  0  0  0
   23.4488  -16.9209  -15.4655 O   0  0  0  0  0  0  0  0  0  0  0  0
  2  1  1  6
  2  3  1  0
  4  2  1  0
  4  5  1  1
  6  4  1  0
  7  6  2  0
  8  9  1  0
  8  6  1  0
 10 11  1  0
 10  9  1  0
 11 12  1  0
 12  8  1  0
 12 13  1  6
 13 15  1  0
 14 13  2  0
 15 16  1  0
 16 17  1  0
 17 19  1  0
 18 17  2  0
M  END
$$$$
