TPG.pdb
     RDKit          3D

 19 19  0  0  1  0  0  0  0  0999 V2000
   27.9130  -17.3094  -16.4328 C   0  0  0  0  0  0  0  0  0  0  0  0
   26.7852  -17.9683  -15.6095 C   0  0  1  0  0  0  0  0  0  0  0  0
   25.6316  -17.6978  -16.3481 O   0  0  0  0  0  0  0  0  0  0  0  0
   27.1284  -19.4306  -15.6103 C   0  0  2  0  0  0  0  0  0  0  0  0
   27.1386  -19.8125  -17.0374 N   0  0  0  0  0  0  0  0  0  0  0  0
   26.2133  -20.3170  -14.9029 C   0  0  0  0  0  0  0  0  0  0  0  0
   25.2392  -20.7904  -15.6016 O   0  0  0  0  0  0  0  0  0  0  0  0
   26.2446  -20.7304  -13.5622 N   0  0  0  0  0  0  0  0  0  0  0  0
   27.3178  -20.4758  -12.6279 C   0  0  0  0  0  0  0  0  0  0  0  0
   26.8737  -20.9592  -11.2885 C   0  0  0  0  0  0  0  0  0  0  0  0
   25.8045  -21.9541  -11.5860 C   0  0  0  0  0  0  0  0  0  0  0  0
   25.1979  -21.4698  -12.8958 C   0  0  1  0  0  0  0  0  0  0  0  0
   24.0128  -20.6358  -12.6103 C   0  0  0  0  0  0  0  0  0  0  0  0
   24.1073  -19.4003  -12.4554 O   0  0  0  0  0  0  0  0  0  0  0  0
   22.7392  -21.2417  -12.5083 N   0  0  0  0  0  0  0  0  0  0  0  0
   21.5086  -20.5033  -12.4064 C   0  0  0  0  0  0  0  0  0  0  0  0
   20.8927  -20.2824  -13.7380 C   0  0  0  0  0  0  0  0  0  0  0  0
   19.7575  -20.7522  -13.9914 O   0  0  0  0  0  0  0  0  0  0  0  0
   21.5207  -19.5663  -14.7431 O   0  0  0  0  0  0  0  0  0  0  0  0
  2  1  1  6
  2  3  1  0
  4  2  1  0
  4  5  1  6
  6  4  1  0
  7  6  2  0
  8  9  1  0
  8  6  1  0
 10 11  1  0
 10  9  1  0
 11 12  1  0
 12  8  1  0
 12 13  1  1
 13 15  1  0
 14 13  2  0
 15 16  1  0
 16 17  1  0
 17 19  1  0
 18 17  2  0
M  END
$$$$
