TPG.pdb
     RDKit          3D

 19 19  0  0  1  0  0  0  0  0999 V2000
   23.3048  -21.3111  -13.2881 C   0  0  0  0  0  0  0  0  0  0  0  0
   22.5639  -20.8555  -14.5639 C   0  0  1  0  0  0  0  0  0  0  0  0
   21.2869  -20.5239  -14.1072 O   0  0  0  0  0  0  0  0  0  0  0  0
   23.3297  -19.6501  -15.0294 C   0  0  2  0  0  0  0  0  0  0  0  0
   22.4915  -19.0617  -16.0942 N   0  0  0  0  0  0  0  0  0  0  0  0
   24.6609  -19.8908  -15.5715 C   0  0  0  0  0  0  0  0  0  0  0  0
   24.7041  -20.5406  -16.6838 O   0  0  0  0  0  0  0  0  0  0  0  0
   25.9077  -19.5118  -15.0508 N   0  0  0  0  0  0  0  0  0  0  0  0
   26.1161  -18.6934  -13.8776 C   0  0  0  0  0  0  0  0  0  0  0  0
   27.5819  -18.6643  -13.6028 C   0  0  0  0  0  0  0  0  0  0  0  0
   28.2138  -19.0035  -14.9094 C   0  0  0  0  0  0  0  0  0  0  0  0
   27.1882  -19.8913  -15.6007 C   0  0  1  0  0  0  0  0  0  0  0  0
   27.5134  -21.3092  -15.3451 C   0  0  0  0  0  0  0  0  0  0  0  0
   27.0621  -21.9120  -14.3490 O   0  0  0  0  0  0  0  0  0  0  0  0
   28.3536  -22.0071  -16.2433 N   0  0  0  0  0  0  0  0  0  0  0  0
   28.6138  -23.4198  -16.1608 C   0  0  0  0  0  0  0  0  0  0  0  0
   27.7290  -24.1916  -17.0678 C   0  0  0  0  0  0  0  0  0  0  0  0
   27.8034  -25.4432  -17.1037 O   0  0  0  0  0  0  0  0  0  0  0  0
   26.8006  -23.5880  -17.8993 O   0  0  0  0  0  0  0  0  0  0  0  0
  2  1  1  1
  2  3  1  0
  4  2  1  0
  4  5  1  6
  6  4  1  0
  7  6  2  0
  8  9  1  0
  8  6  1  0
 10 11  1  0
 10  9  1  0
 11 12  1  0
 12  8  1  0
 12 13  1  1
 13 15  1  0
 14 13  2  0
 15 16  1  0
 16 17  1  0
 17 19  1  0
 18 17  2  0
M  END
$$$$
