TPG.pdb
     RDKit          3D

 19 19  0  0  1  0  0  0  0  0999 V2000
   20.5048  -11.4928  -15.7880 C   0  0  0  0  0  0  0  0  0  0  0  0
   21.7503  -11.7737  -14.9197 C   0  0  1  0  0  0  0  0  0  0  0  0
   21.8533  -13.1661  -14.9252 O   0  0  0  0  0  0  0  0  0  0  0  0
   22.8790  -11.1193  -15.6640 C   0  0  2  0  0  0  0  0  0  0  0  0
   24.1007  -11.5789  -14.9719 N   0  0  0  0  0  0  0  0  0  0  0  0
   22.8859   -9.6623  -15.6915 C   0  0  0  0  0  0  0  0  0  0  0  0
   23.1526   -9.0818  -14.5720 O   0  0  0  0  0  0  0  0  0  0  0  0
   22.6430   -8.7987  -16.7706 N   0  0  0  0  0  0  0  0  0  0  0  0
   22.2911   -9.2066  -18.1121 C   0  0  0  0  0  0  0  0  0  0  0  0
   21.9820   -7.9731  -18.8918 C   0  0  0  0  0  0  0  0  0  0  0  0
   22.6792   -6.8809  -18.1552 C   0  0  0  0  0  0  0  0  0  0  0  0
   22.6946   -7.3567  -16.7090 C   0  0  1  0  0  0  0  0  0  0  0  0
   21.5397   -6.7816  -15.9899 C   0  0  0  0  0  0  0  0  0  0  0  0
   20.5124   -7.4543  -15.7632 O   0  0  0  0  0  0  0  0  0  0  0  0
   21.5901   -5.4403  -15.5449 N   0  0  0  0  0  0  0  0  0  0  0  0
   20.6439   -4.8673  -14.6248 C   0  0  0  0  0  0  0  0  0  0  0  0
   20.9569   -3.4464  -14.3343 C   0  0  0  0  0  0  0  0  0  0  0  0
   20.1633   -2.7545  -13.6523 O   0  0  0  0  0  0  0  0  0  0  0  0
   22.1090   -2.8264  -14.7878 O   0  0  0  0  0  0  0  0  0  0  0  0
  2  1  1  6
  2  3  1  0
  4  2  1  0
  4  5  1  1
  6  4  1  0
  7  6  2  0
  8  9  1  0
  8  6  1  0
 10 11  1  0
 10  9  1  0
 11 12  1  0
 12  8  1  0
 12 13  1  1
 13 15  1  0
 14 13  2  0
 15 16  1  0
 16 17  1  0
 17 19  1  0
 18 17  2  0
M  END
$$$$
