TPG.pdb
     RDKit          3D

 19 19  0  0  1  0  0  0  0  0999 V2000
   17.1282   -9.5358  -15.5334 C   0  0  0  0  0  0  0  0  0  0  0  0
   17.9585  -10.7802  -15.1511 C   0  0  1  0  0  0  0  0  0  0  0  0
   17.0511  -11.8350  -15.2682 O   0  0  0  0  0  0  0  0  0  0  0  0
   19.0378  -10.8431  -16.1939 C   0  0  2  0  0  0  0  0  0  0  0  0
   19.6977  -12.1461  -15.9722 N   0  0  0  0  0  0  0  0  0  0  0  0
   20.0531   -9.7989  -16.1473 C   0  0  0  0  0  0  0  0  0  0  0  0
   20.7972   -9.7870  -15.0949 O   0  0  0  0  0  0  0  0  0  0  0  0
   20.3366   -8.8006  -17.0920 N   0  0  0  0  0  0  0  0  0  0  0  0
   19.6806   -8.6410  -18.3702 C   0  0  0  0  0  0  0  0  0  0  0  0
   20.1848   -7.3770  -18.9809 C   0  0  0  0  0  0  0  0  0  0  0  0
   21.4919   -7.1322  -18.3078 C   0  0  0  0  0  0  0  0  0  0  0  0
   21.3263   -7.7611  -16.9311 C   0  0  1  0  0  0  0  0  0  0  0  0
   20.9048   -6.7262  -15.9653 C   0  0  0  0  0  0  0  0  0  0  0  0
   19.6981   -6.4762  -15.7632 O   0  0  0  0  0  0  0  0  0  0  0  0
   21.8827   -5.9976  -15.2494 N   0  0  0  0  0  0  0  0  0  0  0  0
   21.5768   -5.0935  -14.1728 C   0  0  0  0  0  0  0  0  0  0  0  0
   21.7774   -5.7331  -12.8492 C   0  0  0  0  0  0  0  0  0  0  0  0
   20.8862   -6.4723  -12.3665 O   0  0  0  0  0  0  0  0  0  0  0  0
   22.9265   -5.5531  -12.0978 O   0  0  0  0  0  0  0  0  0  0  0  0
  2  1  1  6
  2  3  1  0
  4  2  1  0
  4  5  1  1
  6  4  1  0
  7  6  2  0
  8  9  1  0
  8  6  1  0
 10 11  1  0
 10  9  1  0
 11 12  1  0
 12  8  1  0
 12 13  1  1
 13 15  1  0
 14 13  2  0
 15 16  1  0
 16 17  1  0
 17 19  1  0
 18 17  2  0
M  END
$$$$
