TPG.pdb
     RDKit          3D

 19 19  0  0  1  0  0  0  0  0999 V2000
   22.4154   -9.5889  -20.0391 C   0  0  0  0  0  0  0  0  0  0  0  0
   21.8261  -10.9281  -19.5456 C   0  0  1  0  0  0  0  0  0  0  0  0
   21.6416  -11.6633  -20.7181 O   0  0  0  0  0  0  0  0  0  0  0  0
   22.9026  -11.5109  -18.6750 C   0  0  2  0  0  0  0  0  0  0  0  0
   22.4519  -12.8894  -18.3938 N   0  0  0  0  0  0  0  0  0  0  0  0
   23.1513  -10.8397  -17.4057 C   0  0  0  0  0  0  0  0  0  0  0  0
   22.1936  -10.8957  -16.5449 O   0  0  0  0  0  0  0  0  0  0  0  0
   24.2926  -10.1389  -16.9866 N   0  0  0  0  0  0  0  0  0  0  0  0
   25.5286  -10.0237  -17.7273 C   0  0  0  0  0  0  0  0  0  0  0  0
   26.4114   -9.0765  -16.9868 C   0  0  0  0  0  0  0  0  0  0  0  0
   25.8921   -9.0963  -15.5898 C   0  0  0  0  0  0  0  0  0  0  0  0
   24.4100   -9.4072  -15.7469 C   0  0  1  0  0  0  0  0  0  0  0  0
   23.6419   -8.1457  -15.7621 C   0  0  0  0  0  0  0  0  0  0  0  0
   23.3699   -7.5612  -16.8315 O   0  0  0  0  0  0  0  0  0  0  0  0
   23.2010   -7.5804  -14.5432 N   0  0  0  0  0  0  0  0  0  0  0  0
   22.2082   -6.5427  -14.4562 C   0  0  0  0  0  0  0  0  0  0  0  0
   22.8141   -5.1950  -14.5893 C   0  0  0  0  0  0  0  0  0  0  0  0
   22.1002   -4.1702  -14.4718 O   0  0  0  0  0  0  0  0  0  0  0  0
   24.1617   -5.0024  -14.8431 O   0  0  0  0  0  0  0  0  0  0  0  0
  2  1  1  6
  2  3  1  0
  4  2  1  0
  4  5  1  1
  6  4  1  0
  7  6  2  0
  8  9  1  0
  8  6  1  0
 10 11  1  0
 10  9  1  0
 11 12  1  0
 12  8  1  0
 12 13  1  6
 13 15  1  0
 14 13  2  0
 15 16  1  0
 16 17  1  0
 17 19  1  0
 18 17  2  0
M  END
$$$$
