TPG.pdb
     RDKit          3D

 19 19  0  0  1  0  0  0  0  0999 V2000
   15.5947   -7.1567  -13.0647 C   0  0  0  0  0  0  0  0  0  0  0  0
   15.5197   -7.7336  -11.6344 C   0  0  1  0  0  0  0  0  0  0  0  0
   14.1929   -8.1510  -11.5125 O   0  0  0  0  0  0  0  0  0  0  0  0
   16.4783   -8.8900  -11.6481 C   0  0  2  0  0  0  0  0  0  0  0  0
   16.3488   -9.5002  -10.3089 N   0  0  0  0  0  0  0  0  0  0  0  0
   17.8823   -8.5723  -11.8755 C   0  0  0  0  0  0  0  0  0  0  0  0
   18.4861   -7.9753  -10.9059 O   0  0  0  0  0  0  0  0  0  0  0  0
   18.6729   -8.8274  -13.0065 N   0  0  0  0  0  0  0  0  0  0  0  0
   18.2152   -9.4427  -14.2318 C   0  0  0  0  0  0  0  0  0  0  0  0
   19.3380   -9.3851  -15.2120 C   0  0  0  0  0  0  0  0  0  0  0  0
   20.5604   -9.2394  -14.3717 C   0  0  0  0  0  0  0  0  0  0  0  0
   20.0748   -8.5028  -13.1309 C   0  0  1  0  0  0  0  0  0  0  0  0
   20.3051   -7.0535  -13.2977 C   0  0  0  0  0  0  0  0  0  0  0  0
   19.3986   -6.2908  -13.6926 O   0  0  0  0  0  0  0  0  0  0  0  0
   21.5772   -6.5092  -13.0061 N   0  0  0  0  0  0  0  0  0  0  0  0
   21.8333   -5.0990  -12.8792 C   0  0  0  0  0  0  0  0  0  0  0  0
   21.7881   -4.4154  -14.1952 C   0  0  0  0  0  0  0  0  0  0  0  0
   22.0439   -5.0537  -15.2444 O   0  0  0  0  0  0  0  0  0  0  0  0
   21.4702   -3.0746  -14.3311 O   0  0  0  0  0  0  0  0  0  0  0  0
  2  1  1  6
  2  3  1  0
  4  2  1  0
  4  5  1  1
  6  4  1  0
  7  6  2  0
  8  9  1  0
  8  6  1  0
 10 11  1  0
 10  9  1  0
 11 12  1  0
 12  8  1  0
 12 13  1  6
 13 15  1  0
 14 13  2  0
 15 16  1  0
 16 17  1  0
 17 19  1  0
 18 17  2  0
M  END
$$$$
