TPG.pdb
     RDKit          3D

 19 19  0  0  1  0  0  0  0  0999 V2000
   19.6038  -10.7977  -18.5791 C   0  0  0  0  0  0  0  0  0  0  0  0
   18.5126  -11.3670  -17.6467 C   0  0  1  0  0  0  0  0  0  0  0  0
   17.8305  -12.2816  -18.4515 O   0  0  0  0  0  0  0  0  0  0  0  0
   19.2785  -12.0427  -16.5454 C   0  0  2  0  0  0  0  0  0  0  0  0
   18.2483  -12.7278  -15.7379 N   0  0  0  0  0  0  0  0  0  0  0  0
   20.0551  -11.1796  -15.6647 C   0  0  0  0  0  0  0  0  0  0  0  0
   19.3885  -10.2697  -15.0410 O   0  0  0  0  0  0  0  0  0  0  0  0
   21.4327  -11.2008  -15.3982 N   0  0  0  0  0  0  0  0  0  0  0  0
   22.3699  -12.1853  -15.8902 C   0  0  0  0  0  0  0  0  0  0  0  0
   23.7377  -11.7452  -15.4900 C   0  0  0  0  0  0  0  0  0  0  0  0
   23.5130  -10.8317  -14.3339 C   0  0  0  0  0  0  0  0  0  0  0  0
   22.1390  -10.2300  -14.5952 C   0  0  1  0  0  0  0  0  0  0  0  0
   22.2932   -8.9331  -15.2851 C   0  0  0  0  0  0  0  0  0  0  0  0
   22.3226   -8.8573  -16.5312 O   0  0  0  0  0  0  0  0  0  0  0  0
   22.4109   -7.7463  -14.5254 N   0  0  0  0  0  0  0  0  0  0  0  0
   22.1894   -6.4293  -15.0607 C   0  0  0  0  0  0  0  0  0  0  0  0
   22.3879   -5.3807  -14.0300 C   0  0  0  0  0  0  0  0  0  0  0  0
   21.6642   -5.3610  -13.0056 O   0  0  0  0  0  0  0  0  0  0  0  0
   23.3553   -4.3962  -14.1411 O   0  0  0  0  0  0  0  0  0  0  0  0
  2  1  1  6
  2  3  1  0
  4  2  1  0
  4  5  1  1
  6  4  1  0
  7  6  2  0
  8  9  1  0
  8  6  1  0
 10 11  1  0
 10  9  1  0
 11 12  1  0
 12  8  1  0
 12 13  1  6
 13 15  1  0
 14 13  2  0
 15 16  1  0
 16 17  1  0
 17 19  1  0
 18 17  2  0
M  END
$$$$
