TPG.pdb
     RDKit          3D

 19 19  0  0  1  0  0  0  0  0999 V2000
   22.7047  -11.8562  -20.9104 C   0  0  0  0  0  0  0  0  0  0  0  0
   23.1735  -10.8156  -19.8705 C   0  0  1  0  0  0  0  0  0  0  0  0
   22.1111   -9.9124  -19.8005 O   0  0  0  0  0  0  0  0  0  0  0  0
   23.3324  -11.6026  -18.6010 C   0  0  2  0  0  0  0  0  0  0  0  0
   22.0567  -12.3321  -18.4499 N   0  0  0  0  0  0  0  0  0  0  0  0
   23.5726  -10.8381  -17.3839 C   0  0  0  0  0  0  0  0  0  0  0  0
   22.5203  -10.4418  -16.7540 O   0  0  0  0  0  0  0  0  0  0  0  0
   24.7942  -10.4720  -16.7981 N   0  0  0  0  0  0  0  0  0  0  0  0
   26.0988  -10.9368  -17.2123 C   0  0  0  0  0  0  0  0  0  0  0  0
   27.1167  -10.1876  -16.4202 C   0  0  0  0  0  0  0  0  0  0  0  0
   26.3800   -9.7206  -15.2116 C   0  0  0  0  0  0  0  0  0  0  0  0
   24.9436   -9.5583  -15.6896 C   0  0  1  0  0  0  0  0  0  0  0  0
   24.7118   -8.1534  -16.0820 C   0  0  0  0  0  0  0  0  0  0  0  0
   24.9158   -7.7608  -17.2498 O   0  0  0  0  0  0  0  0  0  0  0  0
   24.2485   -7.2258  -15.1205 N   0  0  0  0  0  0  0  0  0  0  0  0
   23.7033   -5.9362  -15.4517 C   0  0  0  0  0  0  0  0  0  0  0  0
   22.2364   -5.8913  -15.2334 C   0  0  0  0  0  0  0  0  0  0  0  0
   21.4521   -6.1584  -16.1753 O   0  0  0  0  0  0  0  0  0  0  0  0
   21.6716   -5.5616  -14.0129 O   0  0  0  0  0  0  0  0  0  0  0  0
  2  1  1  6
  2  3  1  0
  4  2  1  0
  4  5  1  1
  6  4  1  0
  7  6  2  0
  8  9  1  0
  8  6  1  0
 10 11  1  0
 10  9  1  0
 11 12  1  0
 12  8  1  0
 12 13  1  6
 13 15  1  0
 14 13  2  0
 15 16  1  0
 16 17  1  0
 17 19  1  0
 18 17  2  0
M  END
$$$$
