TPG.pdb
     RDKit          3D

 19 19  0  0  1  0  0  0  0  0999 V2000
   17.0064   -8.0412  -16.9801 C   0  0  0  0  0  0  0  0  0  0  0  0
   16.5107   -9.1224  -15.9956 C   0  0  1  0  0  0  0  0  0  0  0  0
   15.4148   -9.6904  -16.6483 O   0  0  0  0  0  0  0  0  0  0  0  0
   17.6621  -10.0806  -15.8834 C   0  0  2  0  0  0  0  0  0  0  0  0
   17.1227  -11.2276  -15.1244 N   0  0  0  0  0  0  0  0  0  0  0  0
   18.8527   -9.5941  -15.1983 C   0  0  0  0  0  0  0  0  0  0  0  0
   18.6948   -9.2714  -13.9605 O   0  0  0  0  0  0  0  0  0  0  0  0
   20.1531   -9.4278  -15.6989 N   0  0  0  0  0  0  0  0  0  0  0  0
   20.5745   -9.7019  -17.0543 C   0  0  0  0  0  0  0  0  0  0  0  0
   21.9894   -9.2489  -17.1868 C   0  0  0  0  0  0  0  0  0  0  0  0
   22.5090   -9.2328  -15.7899 C   0  0  0  0  0  0  0  0  0  0  0  0
   21.2808   -8.9424  -14.9382 C   0  0  1  0  0  0  0  0  0  0  0  0
   21.1988   -7.4919  -14.6721 C   0  0  0  0  0  0  0  0  0  0  0  0
   20.4892   -6.7399  -15.3725 O   0  0  0  0  0  0  0  0  0  0  0  0
   21.9368   -6.9340  -13.6026 N   0  0  0  0  0  0  0  0  0  0  0  0
   21.7356   -5.5999  -13.1029 C   0  0  0  0  0  0  0  0  0  0  0  0
   22.2691   -4.5801  -14.0393 C   0  0  0  0  0  0  0  0  0  0  0  0
   21.9885   -3.3684  -13.8757 O   0  0  0  0  0  0  0  0  0  0  0  0
   23.0818   -4.9028  -15.1129 O   0  0  0  0  0  0  0  0  0  0  0  0
  2  1  1  6
  2  3  1  0
  4  2  1  0
  4  5  1  1
  6  4  1  0
  7  6  2  0
  8  9  1  0
  8  6  1  0
 10 11  1  0
 10  9  1  0
 11 12  1  0
 12  8  1  0
 12 13  1  6
 13 15  1  0
 14 13  2  0
 15 16  1  0
 16 17  1  0
 17 19  1  0
 18 17  2  0
M  END
$$$$
