TPG.pdb
     RDKit          3D

 19 19  0  0  1  0  0  0  0  0999 V2000
   17.2297   -7.9802  -17.1608 C   0  0  0  0  0  0  0  0  0  0  0  0
   16.6631   -9.0484  -16.2006 C   0  0  1  0  0  0  0  0  0  0  0  0
   15.6565   -9.6659  -16.9455 O   0  0  0  0  0  0  0  0  0  0  0  0
   17.8215   -9.9688  -15.9414 C   0  0  2  0  0  0  0  0  0  0  0  0
   17.2403  -11.1007  -15.1907 N   0  0  0  0  0  0  0  0  0  0  0  0
   18.9292   -9.4232  -15.1674 C   0  0  0  0  0  0  0  0  0  0  0  0
   18.6390   -9.0275  -13.9756 O   0  0  0  0  0  0  0  0  0  0  0  0
   20.2737   -9.2686  -15.5387 N   0  0  0  0  0  0  0  0  0  0  0  0
   20.8245   -9.5550  -16.8441 C   0  0  0  0  0  0  0  0  0  0  0  0
   22.2487   -9.1117  -16.8397 C   0  0  0  0  0  0  0  0  0  0  0  0
   22.6283   -9.0887  -15.3986 C   0  0  0  0  0  0  0  0  0  0  0  0
   21.3243   -8.7847  -14.6738 C   0  0  1  0  0  0  0  0  0  0  0  0
   21.2264   -7.3318  -14.4266 C   0  0  0  0  0  0  0  0  0  0  0  0
   20.5339   -6.5918  -15.1562 O   0  0  0  0  0  0  0  0  0  0  0  0
   21.9290   -6.7578  -13.3420 N   0  0  0  0  0  0  0  0  0  0  0  0
   21.7354   -5.4057  -12.8899 C   0  0  0  0  0  0  0  0  0  0  0  0
   22.1233   -4.4215  -13.9303 C   0  0  0  0  0  0  0  0  0  0  0  0
   23.2407   -4.5095  -14.4935 O   0  0  0  0  0  0  0  0  0  0  0  0
   21.2957   -3.3832  -14.3234 O   0  0  0  0  0  0  0  0  0  0  0  0
  2  1  1  6
  2  3  1  0
  4  2  1  0
  4  5  1  1
  6  4  1  0
  7  6  2  0
  8  9  1  0
  8  6  1  0
 10 11  1  0
 10  9  1  0
 11 12  1  0
 12  8  1  0
 12 13  1  6
 13 15  1  0
 14 13  2  0
 15 16  1  0
 16 17  1  0
 17 19  1  0
 18 17  2  0
M  END
$$$$
