CFN.pdb
     RDKit          3D

 26 26  0  0  1  0  0  0  0  0999 V2000
   15.4241  -20.6120    1.6622 N   0  0  0  0  0  0  0  0  0  0  0  0
   15.2251  -19.6973    2.7481 C   0  0  1  0  0  0  0  0  0  0  0  0
   13.9675  -20.0022    3.5003 C   0  0  0  0  0  0  0  0  0  0  0  0
   12.5702  -19.6968    2.3508 S   0  0  0  0  0  0  0  0  0  0  0  0
   16.4219  -19.5744    3.6055 C   0  0  0  0  0  0  0  0  0  0  0  0
   17.1505  -20.5943    3.7339 O   0  0  0  0  0  0  0  0  0  0  0  0
   16.8026  -18.4053    4.2842 N   0  0  0  0  0  0  0  0  0  0  0  0
   17.9771  -18.3296    5.1140 C   0  0  1  0  0  0  0  0  0  0  0  0
   18.5855  -16.9398    5.1021 C   0  0  0  0  0  0  0  0  0  0  0  0
   19.8061  -16.8457    5.9113 C   0  0  0  0  0  0  0  0  0  0  0  0
   20.8587  -17.7267    5.6583 C   0  0  0  0  0  0  0  0  0  0  0  0
   22.0239  -17.6721    6.3945 C   0  0  0  0  0  0  0  0  0  0  0  0
   22.1984  -16.7510    7.4059 C   0  0  0  0  0  0  0  0  0  0  0  0
   21.1727  -15.8770    7.6676 C   0  0  0  0  0  0  0  0  0  0  0  0
   19.9957  -15.9348    6.9214 C   0  0  0  0  0  0  0  0  0  0  0  0
   17.7614  -18.8520    6.4807 C   0  0  0  0  0  0  0  0  0  0  0  0
   16.7379  -18.4627    7.1373 O   0  0  0  0  0  0  0  0  0  0  0  0
   17.0769  -21.7468   10.3119 N   0  0  0  0  0  0  0  0  0  0  0  0
   18.0077  -22.4646    9.5014 C   0  0  0  0  0  0  0  0  0  0  0  0
   18.1314  -23.6807    9.7323 O   0  0  0  0  0  0  0  0  0  0  0  0
   18.7563  -21.7642    8.4636 C   0  0  0  0  0  0  0  0  0  0  0  0
   18.3899  -20.2736    8.4782 C   0  0  2  0  0  0  0  0  0  0  0  0
   18.6328  -19.7645    7.0967 N   0  0  0  0  0  0  0  0  0  0  0  0
   19.3868  -19.5948    9.3188 C   0  0  0  0  0  0  0  0  0  0  0  0
   20.6084  -19.7298    9.1376 O   0  0  0  0  0  0  0  0  0  0  0  0
   18.9793  -18.7726   10.3510 O   0  0  0  0  0  0  0  0  0  0  0  0
  2  5  1  0
  2  1  1  6
  3  2  1  0
  4  3  1  0
  5  6  2  0
  7  8  1  0
  7  5  1  0
  8  9  1  1
  9 10  1  0
 10 15  2  0
 11 12  2  0
 11 10  1  0
 12 13  1  0
 13 14  2  0
 15 14  1  0
 16  8  1  0
 17 16  2  0
 18 19  1  0
 19 20  2  0
 21 19  1  0
 22 21  1  6
 22 23  1  0
 23 16  1  0
 24 26  1  0
 24 22  1  0
 25 24  2  0
M  END
$$$$
