CFN.pdb
     RDKit          3D

 26 26  0  0  1  0  0  0  0  0999 V2000
   28.0813  -21.7240  -18.2036 N   0  0  0  0  0  0  0  0  0  0  0  0
   27.9154  -20.5965  -17.3337 C   0  0  1  0  0  0  0  0  0  0  0  0
   27.3139  -19.4303  -18.0537 C   0  0  0  0  0  0  0  0  0  0  0  0
   28.7061  -18.4397  -18.7226 S   0  0  0  0  0  0  0  0  0  0  0  0
   27.2186  -20.9518  -16.0803 C   0  0  0  0  0  0  0  0  0  0  0  0
   26.2270  -21.7244  -16.1671 O   0  0  0  0  0  0  0  0  0  0  0  0
   27.5827  -20.4908  -14.8047 N   0  0  0  0  0  0  0  0  0  0  0  0
   26.7649  -20.6932  -13.6368 C   0  0  1  0  0  0  0  0  0  0  0  0
   27.5053  -20.3330  -12.3625 C   0  0  0  0  0  0  0  0  0  0  0  0
   26.6784  -20.4886  -11.1601 C   0  0  0  0  0  0  0  0  0  0  0  0
   26.1631  -19.3505  -10.5379 C   0  0  0  0  0  0  0  0  0  0  0  0
   25.3807  -19.4516   -9.4064 C   0  0  0  0  0  0  0  0  0  0  0  0
   25.0757  -20.6734   -8.8444 C   0  0  0  0  0  0  0  0  0  0  0  0
   25.5747  -21.8029   -9.4441 C   0  0  0  0  0  0  0  0  0  0  0  0
   26.3655  -21.6972  -10.5882 C   0  0  0  0  0  0  0  0  0  0  0  0
   25.4380  -20.0473  -13.7338 C   0  0  0  0  0  0  0  0  0  0  0  0
   25.3623  -18.8535  -14.1799 O   0  0  0  0  0  0  0  0  0  0  0  0
   20.8825  -18.5844  -16.0050 N   0  0  0  0  0  0  0  0  0  0  0  0
   21.1022  -19.6072  -15.0332 C   0  0  0  0  0  0  0  0  0  0  0  0
   20.1223  -19.9488  -14.3471 O   0  0  0  0  0  0  0  0  0  0  0  0
   22.4292  -20.1951  -14.8867 C   0  0  0  0  0  0  0  0  0  0  0  0
   22.9237  -20.0033  -13.4463 C   0  0  2  0  0  0  0  0  0  0  0  0
   24.2465  -20.6884  -13.3582 N   0  0  0  0  0  0  0  0  0  0  0  0
   22.0290  -20.7822  -12.5780 C   0  0  0  0  0  0  0  0  0  0  0  0
   21.2264  -20.2419  -11.7987 O   0  0  0  0  0  0  0  0  0  0  0  0
   22.0600  -22.1626  -12.6102 O   0  0  0  0  0  0  0  0  0  0  0  0
  2  5  1  0
  2  1  1  6
  3  2  1  0
  4  3  1  0
  5  6  2  0
  7  8  1  0
  7  5  1  0
  8  9  1  1
  9 10  1  0
 10 15  2  0
 11 12  2  0
 11 10  1  0
 12 13  1  0
 13 14  2  0
 15 14  1  0
 16  8  1  0
 17 16  2  0
 18 19  1  0
 19 20  2  0
 21 19  1  0
 22 21  1  6
 22 23  1  0
 23 16  1  0
 24 26  1  0
 24 22  1  0
 25 24  2  0
M  END
$$$$
