CFN.pdb
     RDKit          3D

 26 26  0  0  1  0  0  0  0  0999 V2000
   28.0991  -22.2428  -13.9861 N   0  0  0  0  0  0  0  0  0  0  0  0
   28.0425  -20.9927  -13.2864 C   0  0  1  0  0  0  0  0  0  0  0  0
   27.2157  -19.9866  -14.0242 C   0  0  0  0  0  0  0  0  0  0  0  0
   27.3966  -18.3915  -13.1355 S   0  0  0  0  0  0  0  0  0  0  0  0
   27.6608  -21.1592  -11.8689 C   0  0  0  0  0  0  0  0  0  0  0  0
   26.6055  -21.8028  -11.6243 O   0  0  0  0  0  0  0  0  0  0  0  0
   28.3888  -20.6526  -10.7800 N   0  0  0  0  0  0  0  0  0  0  0  0
   27.8962  -20.6837   -9.4272 C   0  0  1  0  0  0  0  0  0  0  0  0
   28.9140  -20.1346   -8.4453 C   0  0  0  0  0  0  0  0  0  0  0  0
   28.4036  -20.0729   -7.0708 C   0  0  0  0  0  0  0  0  0  0  0  0
   28.6822  -21.1231   -6.1947 C   0  0  0  0  0  0  0  0  0  0  0  0
   28.2225  -21.1050   -4.8943 C   0  0  0  0  0  0  0  0  0  0  0  0
   27.4726  -20.0556   -4.4064 C   0  0  0  0  0  0  0  0  0  0  0  0
   27.1896  -19.0144   -5.2552 C   0  0  0  0  0  0  0  0  0  0  0  0
   27.6559  -19.0358   -6.5696 C   0  0  0  0  0  0  0  0  0  0  0  0
   26.5606  -20.0664   -9.2774 C   0  0  0  0  0  0  0  0  0  0  0  0
   26.3665  -18.8923   -9.7398 O   0  0  0  0  0  0  0  0  0  0  0  0
   21.8601  -19.4550  -11.2132 N   0  0  0  0  0  0  0  0  0  0  0  0
   22.2922  -20.6467  -10.5562 C   0  0  0  0  0  0  0  0  0  0  0  0
   21.4088  -21.4608  -10.2328 O   0  0  0  0  0  0  0  0  0  0  0  0
   23.7122  -20.8575  -10.2970 C   0  0  0  0  0  0  0  0  0  0  0  0
   24.0697  -20.3177   -8.9052 C   0  0  2  0  0  0  0  0  0  0  0  0
   25.4853  -20.7141   -8.6483 N   0  0  0  0  0  0  0  0  0  0  0  0
   23.2744  -21.0802   -7.9319 C   0  0  0  0  0  0  0  0  0  0  0  0
   22.0375  -20.9845   -7.8669 O   0  0  0  0  0  0  0  0  0  0  0  0
   23.8977  -21.9400   -7.0488 O   0  0  0  0  0  0  0  0  0  0  0  0
  2  5  1  0
  2  1  1  6
  3  2  1  0
  4  3  1  0
  5  6  2  0
  7  8  1  0
  7  5  1  0
  8  9  1  1
  9 10  1  0
 10 15  2  0
 11 12  2  0
 11 10  1  0
 12 13  1  0
 13 14  2  0
 15 14  1  0
 16  8  1  0
 17 16  2  0
 18 19  1  0
 19 20  2  0
 21 19  1  0
 22 21  1  6
 22 23  1  0
 23 16  1  0
 24 26  1  0
 24 22  1  0
 25 24  2  0
M  END
$$$$
