CFN.pdb
     RDKit          3D

 26 26  0  0  1  0  0  0  0  0999 V2000
   27.4326  -22.2242  -17.9558 N   0  0  0  0  0  0  0  0  0  0  0  0
   26.9132  -21.0437  -17.3296 C   0  0  1  0  0  0  0  0  0  0  0  0
   25.9781  -20.3064  -18.2364 C   0  0  0  0  0  0  0  0  0  0  0  0
   26.9685  -19.0230  -19.0959 S   0  0  0  0  0  0  0  0  0  0  0  0
   26.3569  -21.3177  -15.9887 C   0  0  0  0  0  0  0  0  0  0  0  0
   25.6183  -22.3308  -15.8632 O   0  0  0  0  0  0  0  0  0  0  0  0
   26.5929  -20.5314  -14.8492 N   0  0  0  0  0  0  0  0  0  0  0  0
   25.9089  -20.7402  -13.5992 C   0  0  1  0  0  0  0  0  0  0  0  0
   26.6931  -20.1782  -12.4283 C   0  0  0  0  0  0  0  0  0  0  0  0
   26.0168  -20.3784  -11.1414 C   0  0  0  0  0  0  0  0  0  0  0  0
   26.4046  -21.4448  -10.3287 C   0  0  0  0  0  0  0  0  0  0  0  0
   25.7959  -21.6687   -9.1113 C   0  0  0  0  0  0  0  0  0  0  0  0
   24.7845  -20.8542   -8.6473 C   0  0  0  0  0  0  0  0  0  0  0  0
   24.3910  -19.8007   -9.4345 C   0  0  0  0  0  0  0  0  0  0  0  0
   25.0085  -19.5770  -10.6651 C   0  0  0  0  0  0  0  0  0  0  0  0
   24.5015  -20.2862  -13.6205 C   0  0  0  0  0  0  0  0  0  0  0  0
   24.1866  -19.2813  -14.3423 O   0  0  0  0  0  0  0  0  0  0  0  0
   19.6649  -22.7052  -15.2581 N   0  0  0  0  0  0  0  0  0  0  0  0
   20.3687  -21.5430  -14.8194 C   0  0  0  0  0  0  0  0  0  0  0  0
   19.7285  -20.4766  -14.7919 O   0  0  0  0  0  0  0  0  0  0  0  0
   21.7710  -21.6479  -14.4315 C   0  0  0  0  0  0  0  0  0  0  0  0
   22.0431  -20.7395  -13.2244 C   0  0  2  0  0  0  0  0  0  0  0  0
   23.4851  -20.9123  -12.8813 N   0  0  0  0  0  0  0  0  0  0  0  0
   21.3064  -21.3068  -12.0857 C   0  0  0  0  0  0  0  0  0  0  0  0
   20.7055  -20.5944  -11.2643 O   0  0  0  0  0  0  0  0  0  0  0  0
   21.2637  -22.6746  -11.8994 O   0  0  0  0  0  0  0  0  0  0  0  0
  2  5  1  0
  2  1  1  6
  3  2  1  0
  4  3  1  0
  5  6  2  0
  7  8  1  0
  7  5  1  0
  8  9  1  1
  9 10  1  0
 10 15  2  0
 11 12  2  0
 11 10  1  0
 12 13  1  0
 13 14  2  0
 15 14  1  0
 16  8  1  0
 17 16  2  0
 18 19  1  0
 19 20  2  0
 21 19  1  0
 22 21  1  6
 22 23  1  0
 23 16  1  0
 24 26  1  0
 24 22  1  0
 25 24  2  0
M  END
$$$$
