CFN.pdb
     RDKit          3D

 26 26  0  0  1  0  0  0  0  0999 V2000
   18.4220  -10.7018  -16.0125 N   0  0  0  0  0  0  0  0  0  0  0  0
   18.0810   -9.3180  -15.8565 C   0  0  1  0  0  0  0  0  0  0  0  0
   16.6694   -9.0490  -16.2751 C   0  0  0  0  0  0  0  0  0  0  0  0
   16.6179   -9.1931  -18.1036 S   0  0  0  0  0  0  0  0  0  0  0  0
   18.4160   -8.8051  -14.5121 C   0  0  0  0  0  0  0  0  0  0  0  0
   18.1565   -9.5468  -13.5272 O   0  0  0  0  0  0  0  0  0  0  0  0
   19.0009   -7.5541  -14.2565 N   0  0  0  0  0  0  0  0  0  0  0  0
   19.3768   -7.1216  -12.9354 C   0  0  1  0  0  0  0  0  0  0  0  0
   20.8569   -6.7995  -12.8489 C   0  0  0  0  0  0  0  0  0  0  0  0
   21.7084   -7.9798  -13.0373 C   0  0  0  0  0  0  0  0  0  0  0  0
   22.3042   -8.1963  -14.2808 C   0  0  0  0  0  0  0  0  0  0  0  0
   23.1123   -9.2924  -14.5006 C   0  0  0  0  0  0  0  0  0  0  0  0
   23.3650  -10.2158  -13.5081 C   0  0  0  0  0  0  0  0  0  0  0  0
   22.7867  -10.0177  -12.2790 C   0  0  0  0  0  0  0  0  0  0  0  0
   21.9700   -8.9083  -12.0600 C   0  0  0  0  0  0  0  0  0  0  0  0
   18.5200   -6.0366  -12.4100 C   0  0  0  0  0  0  0  0  0  0  0  0
   18.1844   -5.0817  -13.1883 O   0  0  0  0  0  0  0  0  0  0  0  0
   15.0041   -3.3965   -9.9204 N   0  0  0  0  0  0  0  0  0  0  0  0
   14.7143   -4.3602  -10.9332 C   0  0  0  0  0  0  0  0  0  0  0  0
   13.5671   -4.3409  -11.4141 O   0  0  0  0  0  0  0  0  0  0  0  0
   15.7451   -5.3032  -11.3530 C   0  0  0  0  0  0  0  0  0  0  0  0
   17.0606   -4.9882  -10.6275 C   0  0  2  0  0  0  0  0  0  0  0  0
   18.0513   -6.0054  -11.0868 N   0  0  0  0  0  0  0  0  0  0  0  0
   16.8450   -5.2781   -9.2025 C   0  0  0  0  0  0  0  0  0  0  0  0
   16.1382   -4.5564   -8.4792 O   0  0  0  0  0  0  0  0  0  0  0  0
   17.4351   -6.3840   -8.6226 O   0  0  0  0  0  0  0  0  0  0  0  0
  2  5  1  0
  2  1  1  1
  3  2  1  0
  4  3  1  0
  5  6  2  0
  7  8  1  0
  7  5  1  0
  8  9  1  6
  9 10  1  0
 10 15  2  0
 11 12  2  0
 11 10  1  0
 12 13  1  0
 13 14  2  0
 15 14  1  0
 16  8  1  0
 17 16  2  0
 18 19  1  0
 19 20  2  0
 21 19  1  0
 22 21  1  6
 22 23  1  0
 23 16  1  0
 24 26  1  0
 24 22  1  0
 25 24  2  0
M  END
$$$$
