CFN.pdb
     RDKit          3D

 26 26  0  0  1  0  0  0  0  0999 V2000
   28.6054  -23.8971  -17.3894 N   0  0  0  0  0  0  0  0  0  0  0  0
   28.3231  -22.5417  -17.0172 C   0  0  1  0  0  0  0  0  0  0  0  0
   27.8999  -21.7242  -18.1975 C   0  0  0  0  0  0  0  0  0  0  0  0
   26.2024  -22.2630  -18.6393 S   0  0  0  0  0  0  0  0  0  0  0  0
   27.4010  -22.4556  -15.8663 C   0  0  0  0  0  0  0  0  0  0  0  0
   26.6782  -23.4593  -15.6259 O   0  0  0  0  0  0  0  0  0  0  0  0
   27.2743  -21.3382  -15.0250 N   0  0  0  0  0  0  0  0  0  0  0  0
   26.3843  -21.3078  -13.8933 C   0  0  1  0  0  0  0  0  0  0  0  0
   26.8301  -20.2960  -12.8543 C   0  0  0  0  0  0  0  0  0  0  0  0
   25.9820  -20.2984  -11.6567 C   0  0  0  0  0  0  0  0  0  0  0  0
   26.4290  -20.9545  -10.5088 C   0  0  0  0  0  0  0  0  0  0  0  0
   25.6638  -20.9804   -9.3613 C   0  0  0  0  0  0  0  0  0  0  0  0
   24.4322  -20.3633   -9.2987 C   0  0  0  0  0  0  0  0  0  0  0  0
   23.9777  -19.7134  -10.4192 C   0  0  0  0  0  0  0  0  0  0  0  0
   24.7538  -19.6891  -11.5780 C   0  0  0  0  0  0  0  0  0  0  0  0
   24.9628  -21.1559  -14.2720 C   0  0  0  0  0  0  0  0  0  0  0  0
   24.6575  -20.3598  -15.2223 O   0  0  0  0  0  0  0  0  0  0  0  0
   20.0899  -23.6212  -15.4754 N   0  0  0  0  0  0  0  0  0  0  0  0
   20.4833  -23.1639  -14.1814 C   0  0  0  0  0  0  0  0  0  0  0  0
   19.5759  -22.7768  -13.4234 O   0  0  0  0  0  0  0  0  0  0  0  0
   21.8937  -23.1678  -13.8087 C   0  0  0  0  0  0  0  0  0  0  0  0
   22.5203  -21.8065  -14.1408 C   0  0  2  0  0  0  0  0  0  0  0  0
   23.9232  -21.8514  -13.6340 N   0  0  0  0  0  0  0  0  0  0  0  0
   21.8414  -20.8060  -13.3044 C   0  0  0  0  0  0  0  0  0  0  0  0
   22.1579  -20.6084  -12.1195 O   0  0  0  0  0  0  0  0  0  0  0  0
   20.8146  -20.0455  -13.8286 O   0  0  0  0  0  0  0  0  0  0  0  0
  2  5  1  0
  2  1  1  6
  3  2  1  0
  4  3  1  0
  5  6  2  0
  7  8  1  0
  7  5  1  0
  8  9  1  1
  9 10  1  0
 10 15  2  0
 11 12  2  0
 11 10  1  0
 12 13  1  0
 13 14  2  0
 15 14  1  0
 16  8  1  0
 17 16  2  0
 18 19  1  0
 19 20  2  0
 21 19  1  0
 22 21  1  1
 22 23  1  0
 23 16  1  0
 24 26  1  0
 24 22  1  0
 25 24  2  0
M  END
$$$$
