CFN.pdb
     RDKit          3D

 26 26  0  0  1  0  0  0  0  0999 V2000
   18.5874  -12.9554  -18.2156 N   0  0  0  0  0  0  0  0  0  0  0  0
   18.7579  -11.5864  -18.6056 C   0  0  1  0  0  0  0  0  0  0  0  0
   17.6608  -11.1339  -19.5179 C   0  0  0  0  0  0  0  0  0  0  0  0
   17.8350  -12.0868  -21.0763 S   0  0  0  0  0  0  0  0  0  0  0  0
   18.9808  -10.6960  -17.4480 C   0  0  0  0  0  0  0  0  0  0  0  0
   18.1880  -10.8013  -16.4743 O   0  0  0  0  0  0  0  0  0  0  0  0
   20.0100   -9.7447  -17.3574 N   0  0  0  0  0  0  0  0  0  0  0  0
   20.1176   -8.8100  -16.2673 C   0  0  1  0  0  0  0  0  0  0  0  0
   21.5365   -8.7256  -15.7368 C   0  0  0  0  0  0  0  0  0  0  0  0
   21.6747   -7.7726  -14.6294 C   0  0  0  0  0  0  0  0  0  0  0  0
   21.4235   -8.2043  -13.3261 C   0  0  0  0  0  0  0  0  0  0  0  0
   21.5423   -7.3418  -12.2563 C   0  0  0  0  0  0  0  0  0  0  0  0
   21.9120   -6.0242  -12.4265 C   0  0  0  0  0  0  0  0  0  0  0  0
   22.1628   -5.5834  -13.7022 C   0  0  0  0  0  0  0  0  0  0  0  0
   22.0417   -6.4581  -14.7819 C   0  0  0  0  0  0  0  0  0  0  0  0
   19.5382   -7.4845  -16.5749 C   0  0  0  0  0  0  0  0  0  0  0  0
   19.8875   -6.8914  -17.6503 O   0  0  0  0  0  0  0  0  0  0  0  0
   14.9368   -3.7747  -15.9915 N   0  0  0  0  0  0  0  0  0  0  0  0
   16.2068   -4.0332  -15.3926 C   0  0  0  0  0  0  0  0  0  0  0  0
   16.8323   -3.0499  -14.9571 O   0  0  0  0  0  0  0  0  0  0  0  0
   16.7076   -5.4012  -15.3166 C   0  0  0  0  0  0  0  0  0  0  0  0
   18.0345   -5.5095  -16.0807 C   0  0  2  0  0  0  0  0  0  0  0  0
   18.6134   -6.8412  -15.7368 N   0  0  0  0  0  0  0  0  0  0  0  0
   18.9528   -4.5265  -15.4876 C   0  0  0  0  0  0  0  0  0  0  0  0
   19.5499   -4.7383  -14.4190 O   0  0  0  0  0  0  0  0  0  0  0  0
   19.1784   -3.3192  -16.1191 O   0  0  0  0  0  0  0  0  0  0  0  0
  2  5  1  0
  2  1  1  1
  3  2  1  0
  4  3  1  0
  5  6  2  0
  7  8  1  0
  7  5  1  0
  8  9  1  6
  9 10  1  0
 10 15  2  0
 11 12  2  0
 11 10  1  0
 12 13  1  0
 13 14  2  0
 15 14  1  0
 16  8  1  0
 17 16  2  0
 18 19  1  0
 19 20  2  0
 21 19  1  0
 22 21  1  1
 22 23  1  0
 23 16  1  0
 24 26  1  0
 24 22  1  0
 25 24  2  0
M  END
$$$$
