CFN.pdb
     RDKit          3D

 26 26  0  0  1  0  0  0  0  0999 V2000
   27.9304  -22.1402  -18.0650 N   0  0  0  0  0  0  0  0  0  0  0  0
   28.1246  -21.0829  -17.1165 C   0  0  1  0  0  0  0  0  0  0  0  0
   27.9604  -19.7375  -17.7516 C   0  0  0  0  0  0  0  0  0  0  0  0
   26.1570  -19.4389  -17.9116 S   0  0  0  0  0  0  0  0  0  0  0  0
   27.3184  -21.2709  -15.8929 C   0  0  0  0  0  0  0  0  0  0  0  0
   26.4226  -22.1566  -15.9189 O   0  0  0  0  0  0  0  0  0  0  0  0
   27.4802  -20.5347  -14.7079 N   0  0  0  0  0  0  0  0  0  0  0  0
   26.6702  -20.7494  -13.5367 C   0  0  1  0  0  0  0  0  0  0  0  0
   27.3676  -20.2744  -12.2758 C   0  0  0  0  0  0  0  0  0  0  0  0
   26.5415  -20.4345  -11.0735 C   0  0  0  0  0  0  0  0  0  0  0  0
   25.8022  -19.3463  -10.6072 C   0  0  0  0  0  0  0  0  0  0  0  0
   25.0123  -19.4536   -9.4815 C   0  0  0  0  0  0  0  0  0  0  0  0
   24.9192  -20.6327   -8.7725 C   0  0  0  0  0  0  0  0  0  0  0  0
   25.6400  -21.7128   -9.2177 C   0  0  0  0  0  0  0  0  0  0  0  0
   26.4379  -21.6010  -10.3563 C   0  0  0  0  0  0  0  0  0  0  0  0
   25.2970  -20.2169  -13.6705 C   0  0  0  0  0  0  0  0  0  0  0  0
   25.1114  -19.1459  -14.3403 O   0  0  0  0  0  0  0  0  0  0  0  0
   20.7036  -20.3253  -16.0403 N   0  0  0  0  0  0  0  0  0  0  0  0
   21.0288  -21.2799  -15.0296 C   0  0  0  0  0  0  0  0  0  0  0  0
   20.0806  -21.9073  -14.5246 O   0  0  0  0  0  0  0  0  0  0  0  0
   22.4205  -21.4770  -14.6394 C   0  0  0  0  0  0  0  0  0  0  0  0
   22.7863  -20.4976  -13.5155 C   0  0  2  0  0  0  0  0  0  0  0  0
   24.1770  -20.8373  -13.0940 N   0  0  0  0  0  0  0  0  0  0  0  0
   21.9415  -20.8348  -12.3605 C   0  0  0  0  0  0  0  0  0  0  0  0
   20.8823  -20.2333  -12.1165 O   0  0  0  0  0  0  0  0  0  0  0  0
   22.3137  -21.8507  -11.5022 O   0  0  0  0  0  0  0  0  0  0  0  0
  2  5  1  0
  2  1  1  6
  3  2  1  0
  4  3  1  0
  5  6  2  0
  7  8  1  0
  7  5  1  0
  8  9  1  1
  9 10  1  0
 10 15  2  0
 11 12  2  0
 11 10  1  0
 12 13  1  0
 13 14  2  0
 15 14  1  0
 16  8  1  0
 17 16  2  0
 18 19  1  0
 19 20  2  0
 21 19  1  0
 22 21  1  6
 22 23  1  0
 23 16  1  0
 24 26  1  0
 24 22  1  0
 25 24  2  0
M  END
$$$$
