CFN.pdb
     RDKit          3D

 26 26  0  0  1  0  0  0  0  0999 V2000
   27.2085  -21.6522  -13.5971 N   0  0  0  0  0  0  0  0  0  0  0  0
   26.4181  -20.6665  -12.9195 C   0  0  1  0  0  0  0  0  0  0  0  0
   25.0850  -20.4850  -13.5755 C   0  0  0  0  0  0  0  0  0  0  0  0
   25.2190  -19.0097  -14.6583 S   0  0  0  0  0  0  0  0  0  0  0  0
   26.3423  -20.9105  -11.4644 C   0  0  0  0  0  0  0  0  0  0  0  0
   26.1650  -22.0986  -11.0841 O   0  0  0  0  0  0  0  0  0  0  0  0
   26.4536  -19.9151  -10.4799 N   0  0  0  0  0  0  0  0  0  0  0  0
   26.3908  -20.1992   -9.0696 C   0  0  1  0  0  0  0  0  0  0  0  0
   27.1777  -19.1884   -8.2566 C   0  0  0  0  0  0  0  0  0  0  0  0
   27.3923  -19.6165   -6.8694 C   0  0  0  0  0  0  0  0  0  0  0  0
   26.4384  -19.2930   -5.9032 C   0  0  0  0  0  0  0  0  0  0  0  0
   26.6005  -19.6763   -4.5881 C   0  0  0  0  0  0  0  0  0  0  0  0
   27.7045  -20.3911   -4.1734 C   0  0  0  0  0  0  0  0  0  0  0  0
   28.6523  -20.7175   -5.1114 C   0  0  0  0  0  0  0  0  0  0  0  0
   28.4855  -20.3283   -6.4404 C   0  0  0  0  0  0  0  0  0  0  0  0
   25.0107  -20.3885   -8.5727 C   0  0  0  0  0  0  0  0  0  0  0  0
   24.0936  -19.5981   -8.9781 O   0  0  0  0  0  0  0  0  0  0  0  0
   21.2746  -24.2549   -6.0713 N   0  0  0  0  0  0  0  0  0  0  0  0
   21.9011  -23.0128   -5.7500 C   0  0  0  0  0  0  0  0  0  0  0  0
   21.2346  -22.2059   -5.0773 O   0  0  0  0  0  0  0  0  0  0  0  0
   23.2594  -22.7455   -6.2097 C   0  0  0  0  0  0  0  0  0  0  0  0
   23.2341  -21.6600   -7.2947 C   0  0  2  0  0  0  0  0  0  0  0  0
   24.6554  -21.4045   -7.6711 N   0  0  0  0  0  0  0  0  0  0  0  0
   22.7784  -20.4197   -6.6503 C   0  0  0  0  0  0  0  0  0  0  0  0
   21.7120  -19.8641   -6.9625 O   0  0  0  0  0  0  0  0  0  0  0  0
   23.5414  -19.8314   -5.6607 O   0  0  0  0  0  0  0  0  0  0  0  0
  2  5  1  0
  2  1  1  6
  3  2  1  0
  4  3  1  0
  5  6  2  0
  7  8  1  0
  7  5  1  0
  8  9  1  1
  9 10  1  0
 10 15  2  0
 11 12  2  0
 11 10  1  0
 12 13  1  0
 13 14  2  0
 15 14  1  0
 16  8  1  0
 17 16  2  0
 18 19  1  0
 19 20  2  0
 21 19  1  0
 22 21  1  1
 22 23  1  0
 23 16  1  0
 24 26  1  0
 24 22  1  0
 25 24  2  0
M  END
$$$$
