FRW.pdb
     RDKit          3D

 37 39  0  0  1  0  0  0  0  0999 V2000
    8.4477  -16.8637   16.9634 N   0  0  0  0  0  0  0  0  0  0  0  0
    8.5468  -15.9146   18.0535 C   0  0  1  0  0  0  0  0  0  0  0  0
    7.6669  -14.7414   17.7900 C   0  0  0  0  0  0  0  0  0  0  0  0
    7.8078  -13.8136   18.9454 C   0  0  0  0  0  0  0  0  0  0  0  0
    7.0989  -13.9626   20.1197 C   0  0  0  0  0  0  0  0  0  0  0  0
    7.2348  -13.1061   21.1853 C   0  0  0  0  0  0  0  0  0  0  0  0
    8.0984  -12.0524   21.1130 C   0  0  0  0  0  0  0  0  0  0  0  0
    8.8271  -11.8762   19.9421 C   0  0  0  0  0  0  0  0  0  0  0  0
    8.6801  -12.7405   18.8877 C   0  0  0  0  0  0  0  0  0  0  0  0
    8.2244  -16.6395   19.3099 C   0  0  0  0  0  0  0  0  0  0  0  0
    7.1320  -17.2236   19.5187 O   0  0  0  0  0  0  0  0  0  0  0  0
   12.1447  -21.3031   18.6938 N   0  0  0  0  0  0  0  0  0  0  0  0
   10.9035  -21.0832   18.0240 C   0  0  0  0  0  0  0  0  0  0  0  0
   10.8715  -20.7120   16.8085 N   0  0  0  0  0  0  0  0  0  0  0  0
    9.6744  -21.2896   18.7370 N   0  0  0  0  0  0  0  0  0  0  0  0
    9.5168  -20.8692   20.1103 C   0  0  0  0  0  0  0  0  0  0  0  0
    9.3476  -19.3921   20.1633 C   0  0  0  0  0  0  0  0  0  0  0  0
    9.1211  -18.9337   21.5856 C   0  0  0  0  0  0  0  0  0  0  0  0
    8.9380  -17.4646   21.6044 C   0  0  2  0  0  0  0  0  0  0  0  0
    9.1403  -16.7389   20.4090 N   0  0  0  0  0  0  0  0  0  0  0  0
    9.5801  -16.7430   22.7223 C   0  0  0  0  0  0  0  0  0  0  0  0
   10.2405  -15.7050   22.4709 O   0  0  0  0  0  0  0  0  0  0  0  0
    9.9877  -20.4526   16.3398 N   0  0  0  0  0  0  0  0  0  0  0  0
    9.5077  -17.1339   24.0726 C   0  0  1  0  0  0  0  0  0  0  0  0
   10.1525  -16.4057   25.1723 C   0  0  0  0  0  0  0  0  0  0  0  0
    9.6800  -14.9876   25.2151 C   0  0  0  0  0  0  0  0  0  0  0  0
    8.3292  -14.8660   25.7876 C   0  0  0  0  0  0  0  0  0  0  0  0
    7.4578  -15.9540   25.9074 N   0  0  0  0  0  0  0  0  0  0  0  0
    6.3344  -15.5234   26.5134 C   0  0  0  0  0  0  0  0  0  0  0  0
    6.4091  -14.2040   26.8035 C   0  0  0  0  0  0  0  0  0  0  0  0
    5.5290  -13.3278   27.4051 C   0  0  0  0  0  0  0  0  0  0  0  0
    5.8892  -12.0151   27.5592 C   0  0  0  0  0  0  0  0  0  0  0  0
    7.1189  -11.6209   27.1061 C   0  0  0  0  0  0  0  0  0  0  0  0
    8.0267  -12.4828   26.4959 C   0  0  0  0  0  0  0  0  0  0  0  0
    7.6624  -13.8056   26.3424 C   0  0  0  0  0  0  0  0  0  0  0  0
   10.1307  -17.1507   26.4183 O   0  0  0  0  0  0  0  0  0  0  0  0
    9.5343  -18.3623   26.6774 O   0  0  0  0  0  0  0  0  0  0  0  0
  2  1  1  6
  2  3  1  0
  3  4  1  0
  4  9  2  0
  5  6  2  0
  5  4  1  0
  6  7  1  0
  7  8  2  0
  9  8  1  0
 10 11  2  0
 10  2  1  0
 12 13  1  0
 13 14  2  0
 13 15  1  0
 15 16  1  0
 16 17  1  0
 17 18  1  0
 19 18  1  6
 19 20  1  0
 20 10  1  0
 21 19  1  0
 21 23  1  0
 22 21  2  0
 24 23  1  0
 24 35  1  0
 24 25  1  6
 26 25  1  0
 27 26  2  0
 28 29  1  0
 28 27  1  0
 29 34  2  0
 30 29  1  0
 30 31  2  0
 31 32  1  0
 32 33  2  0
 34 26  1  0
 34 33  1  0
 35 36  1  0
 37 35  2  0
M  END
$$$$
