FRW.pdb
     RDKit          3D

 37 39  0  0  1  0  0  0  0  0999 V2000
    5.6015  -18.0500   20.5092 N   0  0  0  0  0  0  0  0  0  0  0  0
    6.6023  -17.0064   20.5995 C   0  0  1  0  0  0  0  0  0  0  0  0
    5.9817  -15.7460   21.0957 C   0  0  0  0  0  0  0  0  0  0  0  0
    6.9384  -14.6407   20.8153 C   0  0  0  0  0  0  0  0  0  0  0  0
    7.2571  -14.2287   19.5376 C   0  0  0  0  0  0  0  0  0  0  0  0
    8.1379  -13.2053   19.2832 C   0  0  0  0  0  0  0  0  0  0  0  0
    8.7415  -12.5472   20.3146 C   0  0  0  0  0  0  0  0  0  0  0  0
    8.4401  -12.9398   21.6138 C   0  0  0  0  0  0  0  0  0  0  0  0
    7.5584  -13.9630   21.8507 C   0  0  0  0  0  0  0  0  0  0  0  0
    7.7037  -17.5143   21.4578 C   0  0  0  0  0  0  0  0  0  0  0  0
    7.5226  -18.0792   22.5651 O   0  0  0  0  0  0  0  0  0  0  0  0
   11.9457  -16.4890   16.5204 N   0  0  0  0  0  0  0  0  0  0  0  0
   12.5191  -17.3189   17.5304 C   0  0  0  0  0  0  0  0  0  0  0  0
   13.4097  -16.8707   18.3192 N   0  0  0  0  0  0  0  0  0  0  0  0
   12.0772  -18.6792   17.6562 N   0  0  0  0  0  0  0  0  0  0  0  0
   12.0857  -19.3626   18.9293 C   0  0  0  0  0  0  0  0  0  0  0  0
   10.9141  -18.9277   19.7365 C   0  0  0  0  0  0  0  0  0  0  0  0
   11.3588  -18.4251   21.0907 C   0  0  0  0  0  0  0  0  0  0  0  0
   10.1865  -17.9042   21.8300 C   0  0  2  0  0  0  0  0  0  0  0  0
    9.0872  -17.4045   21.0963 N   0  0  0  0  0  0  0  0  0  0  0  0
   10.4787  -16.9848   22.9490 C   0  0  0  0  0  0  0  0  0  0  0  0
   11.0055  -15.8735   22.6954 O   0  0  0  0  0  0  0  0  0  0  0  0
   13.8204  -17.4541   19.0669 N   0  0  0  0  0  0  0  0  0  0  0  0
   10.2071  -17.2610   24.3022 C   0  0  1  0  0  0  0  0  0  0  0  0
   10.5834  -16.3753   25.4109 C   0  0  0  0  0  0  0  0  0  0  0  0
   10.1436  -14.9723   25.1385 C   0  0  0  0  0  0  0  0  0  0  0  0
    8.7211  -14.7617   25.4540 C   0  0  0  0  0  0  0  0  0  0  0  0
    7.7771  -15.7937   25.4154 N   0  0  0  0  0  0  0  0  0  0  0  0
    6.5907  -15.2878   25.8045 C   0  0  0  0  0  0  0  0  0  0  0  0
    6.6924  -13.9714   26.0998 C   0  0  0  0  0  0  0  0  0  0  0  0
    5.7731  -13.0356   26.5278 C   0  0  0  0  0  0  0  0  0  0  0  0
    6.1794  -11.7449   26.7416 C   0  0  0  0  0  0  0  0  0  0  0  0
    7.4931  -11.4317   26.5199 C   0  0  0  0  0  0  0  0  0  0  0  0
    8.4419  -12.3550   26.0884 C   0  0  0  0  0  0  0  0  0  0  0  0
    8.0310  -13.6556   25.8746 C   0  0  0  0  0  0  0  0  0  0  0  0
   10.2477  -16.9366   26.7072 O   0  0  0  0  0  0  0  0  0  0  0  0
    9.5865  -18.1103   26.9832 O   0  0  0  0  0  0  0  0  0  0  0  0
  2  1  1  1
  2  3  1  0
  3  4  1  0
  4  9  2  0
  5  6  2  0
  5  4  1  0
  6  7  1  0
  7  8  2  0
  9  8  1  0
 10 11  2  0
 10  2  1  0
 12 13  1  0
 13 14  2  0
 13 15  1  0
 15 16  1  0
 16 17  1  0
 17 18  1  0
 19 18  1  6
 19 20  1  0
 20 10  1  0
 21 19  1  0
 21 23  1  0
 22 21  2  0
 24 23  1  0
 24 35  1  0
 24 25  1  1
 26 25  1  0
 27 26  2  0
 28 29  1  0
 28 27  1  0
 29 34  2  0
 30 29  1  0
 30 31  2  0
 31 32  1  0
 32 33  2  0
 34 26  1  0
 34 33  1  0
 35 36  1  0
 37 35  2  0
M  END
$$$$
