FRW.pdb
     RDKit          3D

 37 39  0  0  1  0  0  0  0  0999 V2000
    7.0941  -18.4527   27.2310 N   0  0  0  0  0  0  0  0  0  0  0  0
    7.9179  -17.6835   26.3207 C   0  0  1  0  0  0  0  0  0  0  0  0
    9.1053  -17.1428   27.0403 C   0  0  0  0  0  0  0  0  0  0  0  0
    8.8979  -15.6774   27.1987 C   0  0  0  0  0  0  0  0  0  0  0  0
    7.6503  -15.0885   27.1800 C   0  0  0  0  0  0  0  0  0  0  0  0
    7.4629  -13.7357   27.3305 C   0  0  0  0  0  0  0  0  0  0  0  0
    8.5346  -12.9102   27.5075 C   0  0  0  0  0  0  0  0  0  0  0  0
    9.8050  -13.4745   27.5309 C   0  0  0  0  0  0  0  0  0  0  0  0
    9.9747  -14.8268   27.3797 C   0  0  0  0  0  0  0  0  0  0  0  0
    8.2581  -18.5625   25.1721 C   0  0  0  0  0  0  0  0  0  0  0  0
    9.3249  -19.2205   25.0880 O   0  0  0  0  0  0  0  0  0  0  0  0
    9.0882  -20.1983   18.5101 N   0  0  0  0  0  0  0  0  0  0  0  0
    8.4597  -19.1604   17.7583 C   0  0  0  0  0  0  0  0  0  0  0  0
    9.0703  -18.5783   16.8072 N   0  0  0  0  0  0  0  0  0  0  0  0
    7.1154  -18.7737   18.0823 N   0  0  0  0  0  0  0  0  0  0  0  0
    6.5746  -18.9573   19.4096 C   0  0  0  0  0  0  0  0  0  0  0  0
    7.2357  -18.0151   20.3521 C   0  0  0  0  0  0  0  0  0  0  0  0
    6.6521  -18.1540   21.7394 C   0  0  0  0  0  0  0  0  0  0  0  0
    7.7257  -18.5278   22.6881 C   0  0  2  0  0  0  0  0  0  0  0  0
    7.3907  -18.7413   24.0441 N   0  0  0  0  0  0  0  0  0  0  0  0
    8.9651  -17.7268   22.6169 C   0  0  0  0  0  0  0  0  0  0  0  0
    9.8528  -18.0601   21.7937 O   0  0  0  0  0  0  0  0  0  0  0  0
    8.6620  -17.7692   16.3104 N   0  0  0  0  0  0  0  0  0  0  0  0
    9.2339  -16.5975   23.4130 C   0  0  1  0  0  0  0  0  0  0  0  0
   10.4519  -15.7858   23.2992 C   0  0  0  0  0  0  0  0  0  0  0  0
   10.1112  -14.3328   23.2053 C   0  0  0  0  0  0  0  0  0  0  0  0
    8.8081  -14.1053   22.5592 C   0  0  0  0  0  0  0  0  0  0  0  0
    7.6080  -14.0490   23.2763 N   0  0  0  0  0  0  0  0  0  0  0  0
    6.6156  -13.7769   22.4069 C   0  0  0  0  0  0  0  0  0  0  0  0
    7.0897  -13.6497   21.1462 C   0  0  0  0  0  0  0  0  0  0  0  0
    6.4763  -13.3834   19.9391 C   0  0  0  0  0  0  0  0  0  0  0  0
    7.2351  -13.3212   18.8002 C   0  0  0  0  0  0  0  0  0  0  0  0
    8.5839  -13.5277   18.9055 C   0  0  0  0  0  0  0  0  0  0  0  0
    9.2292  -13.7978   20.1096 C   0  0  0  0  0  0  0  0  0  0  0  0
    8.4631  -13.8590   21.2565 C   0  0  0  0  0  0  0  0  0  0  0  0
   11.4656  -16.1691   24.2654 O   0  0  0  0  0  0  0  0  0  0  0  0
   11.4145  -17.1745   25.2021 O   0  0  0  0  0  0  0  0  0  0  0  0
  2  1  1  1
  2  3  1  0
  3  4  1  0
  4  9  2  0
  5  6  2  0
  5  4  1  0
  6  7  1  0
  7  8  2  0
  9  8  1  0
 10 11  2  0
 10  2  1  0
 12 13  1  0
 13 14  2  0
 13 15  1  0
 15 16  1  0
 16 17  1  0
 17 18  1  0
 19 18  1  6
 19 20  1  0
 20 10  1  0
 21 19  1  0
 21 23  1  0
 22 21  2  0
 24 23  1  0
 24 35  1  0
 24 25  1  6
 26 25  1  0
 27 26  2  0
 28 29  1  0
 28 27  1  0
 29 34  2  0
 30 29  1  0
 30 31  2  0
 31 32  1  0
 32 33  2  0
 34 26  1  0
 34 33  1  0
 35 36  1  0
 37 35  2  0
M  END
$$$$
