FRW.pdb
     RDKit          3D

 37 39  0  0  1  0  0  0  0  0999 V2000
    7.7344  -20.7228   22.4175 N   0  0  0  0  0  0  0  0  0  0  0  0
    7.1354  -19.4617   22.8046 C   0  0  1  0  0  0  0  0  0  0  0  0
    6.8603  -19.4560   24.2689 C   0  0  0  0  0  0  0  0  0  0  0  0
    5.7891  -20.4580   24.5224 C   0  0  0  0  0  0  0  0  0  0  0  0
    5.9379  -21.5112   25.4012 C   0  0  0  0  0  0  0  0  0  0  0  0
    4.9452  -22.4318   25.6351 C   0  0  0  0  0  0  0  0  0  0  0  0
    3.7488  -22.3303   24.9875 C   0  0  0  0  0  0  0  0  0  0  0  0
    3.5688  -21.2790   24.0956 C   0  0  0  0  0  0  0  0  0  0  0  0
    4.5697  -20.3683   23.8737 C   0  0  0  0  0  0  0  0  0  0  0  0
    8.0471  -18.3766   22.3585 C   0  0  0  0  0  0  0  0  0  0  0  0
    9.2999  -18.4699   22.3653 O   0  0  0  0  0  0  0  0  0  0  0  0
    8.8228  -12.6673   17.2163 N   0  0  0  0  0  0  0  0  0  0  0  0
    7.9853  -13.7894   16.9383 C   0  0  0  0  0  0  0  0  0  0  0  0
    8.1814  -14.5155   15.9133 N   0  0  0  0  0  0  0  0  0  0  0  0
    6.9084  -14.1014   17.8353 N   0  0  0  0  0  0  0  0  0  0  0  0
    6.9807  -13.7846   19.2432 C   0  0  0  0  0  0  0  0  0  0  0  0
    7.5987  -14.9206   19.9787 C   0  0  0  0  0  0  0  0  0  0  0  0
    7.5954  -14.6551   21.4666 C   0  0  0  0  0  0  0  0  0  0  0  0
    8.1188  -15.8434   22.1782 C   0  0  2  0  0  0  0  0  0  0  0  0
    7.5749  -17.1117   21.8750 N   0  0  0  0  0  0  0  0  0  0  0  0
    8.2587  -15.7152   23.6434 C   0  0  0  0  0  0  0  0  0  0  0  0
    7.4667  -14.9623   24.2619 O   0  0  0  0  0  0  0  0  0  0  0  0
    7.6325  -15.3736   15.7390 N   0  0  0  0  0  0  0  0  0  0  0  0
    9.2272  -16.3840   24.4154 C   0  0  1  0  0  0  0  0  0  0  0  0
   10.0577  -15.7299   25.4342 C   0  0  0  0  0  0  0  0  0  0  0  0
    9.2957  -15.5650   26.7103 C   0  0  0  0  0  0  0  0  0  0  0  0
    8.0519  -14.7999   26.5232 C   0  0  0  0  0  0  0  0  0  0  0  0
    6.8053  -15.4123   26.3555 N   0  0  0  0  0  0  0  0  0  0  0  0
    5.8739  -14.4433   26.2643 C   0  0  0  0  0  0  0  0  0  0  0  0
    6.4334  -13.2153   26.3610 C   0  0  0  0  0  0  0  0  0  0  0  0
    5.9046  -11.9413   26.3213 C   0  0  0  0  0  0  0  0  0  0  0  0
    6.7416  -10.8634   26.4420 C   0  0  0  0  0  0  0  0  0  0  0  0
    8.0813  -11.0949   26.5984 C   0  0  0  0  0  0  0  0  0  0  0  0
    8.6421  -12.3688   26.6421 C   0  0  0  0  0  0  0  0  0  0  0  0
    7.7970  -13.4539   26.5215 C   0  0  0  0  0  0  0  0  0  0  0  0
   11.3852  -16.3112   25.5238 O   0  0  0  0  0  0  0  0  0  0  0  0
   11.9181  -17.3393   24.7825 O   0  0  0  0  0  0  0  0  0  0  0  0
  2  1  1  1
  2  3  1  0
  3  4  1  0
  4  9  2  0
  5  6  2  0
  5  4  1  0
  6  7  1  0
  7  8  2  0
  9  8  1  0
 10 11  2  0
 10  2  1  0
 12 13  1  0
 13 14  2  0
 13 15  1  0
 15 16  1  0
 16 17  1  0
 17 18  1  0
 19 18  1  1
 19 20  1  0
 20 10  1  0
 21 19  1  0
 21 23  1  0
 22 21  2  0
 24 23  1  0
 24 35  1  0
 24 25  1  6
 26 25  1  0
 27 26  2  0
 28 29  1  0
 28 27  1  0
 29 34  2  0
 30 29  1  0
 30 31  2  0
 31 32  1  0
 32 33  2  0
 34 26  1  0
 34 33  1  0
 35 36  1  0
 37 35  2  0
M  END
$$$$
