FRW.pdb
     RDKit          3D

 37 39  0  0  1  0  0  0  0  0999 V2000
    5.8570  -18.9010   24.9318 N   0  0  0  0  0  0  0  0  0  0  0  0
    6.4327  -17.6011   24.6529 C   0  0  1  0  0  0  0  0  0  0  0  0
    6.6052  -16.8371   25.9204 C   0  0  0  0  0  0  0  0  0  0  0  0
    6.7841  -15.4056   25.5540 C   0  0  0  0  0  0  0  0  0  0  0  0
    5.7759  -14.4701   25.6635 C   0  0  0  0  0  0  0  0  0  0  0  0
    5.9464  -13.1487   25.3278 C   0  0  0  0  0  0  0  0  0  0  0  0
    7.1511  -12.7089   24.8625 C   0  0  0  0  0  0  0  0  0  0  0  0
    8.1868  -13.6285   24.7413 C   0  0  0  0  0  0  0  0  0  0  0  0
    8.0003  -14.9438   25.0811 C   0  0  0  0  0  0  0  0  0  0  0  0
    7.6977  -17.8220   23.9055 C   0  0  0  0  0  0  0  0  0  0  0  0
    8.5853  -18.6372   24.2600 O   0  0  0  0  0  0  0  0  0  0  0  0
    6.9031  -13.8186   17.2970 N   0  0  0  0  0  0  0  0  0  0  0  0
    7.8117  -13.1199   18.1478 C   0  0  0  0  0  0  0  0  0  0  0  0
    7.5794  -11.9247   18.5137 N   0  0  0  0  0  0  0  0  0  0  0  0
    9.0032  -13.7825   18.5981 N   0  0  0  0  0  0  0  0  0  0  0  0
    9.0478  -15.2147   18.7842 C   0  0  0  0  0  0  0  0  0  0  0  0
    8.9878  -15.5308   20.2367 C   0  0  0  0  0  0  0  0  0  0  0  0
    9.1128  -17.0201   20.4622 C   0  0  0  0  0  0  0  0  0  0  0  0
    9.1860  -17.2918   21.9159 C   0  0  2  0  0  0  0  0  0  0  0  0
    8.0233  -17.1174   22.6995 N   0  0  0  0  0  0  0  0  0  0  0  0
   10.3415  -16.7099   22.6293 C   0  0  0  0  0  0  0  0  0  0  0  0
   10.6726  -15.5252   22.3770 O   0  0  0  0  0  0  0  0  0  0  0  0
    8.2521  -11.3885   19.0865 N   0  0  0  0  0  0  0  0  0  0  0  0
   11.1144  -17.3911   23.5884 C   0  0  1  0  0  0  0  0  0  0  0  0
   12.1558  -16.7543   24.4041 C   0  0  0  0  0  0  0  0  0  0  0  0
   11.6014  -15.5796   25.1449 C   0  0  0  0  0  0  0  0  0  0  0  0
   11.1003  -15.9468   26.4796 C   0  0  0  0  0  0  0  0  0  0  0  0
   10.6793  -17.2422   26.7993 N   0  0  0  0  0  0  0  0  0  0  0  0
   10.3338  -17.2586   28.1013 C   0  0  0  0  0  0  0  0  0  0  0  0
   10.5007  -16.0414   28.6679 C   0  0  0  0  0  0  0  0  0  0  0  0
   10.2838  -15.5673   29.9456 C   0  0  0  0  0  0  0  0  0  0  0  0
   10.5443  -14.2520   30.2263 C   0  0  0  0  0  0  0  0  0  0  0  0
   11.0135  -13.4528   29.2194 C   0  0  0  0  0  0  0  0  0  0  0  0
   11.2417  -13.9041   27.9219 C   0  0  0  0  0  0  0  0  0  0  0  0
   10.9797  -15.2302   27.6409 C   0  0  0  0  0  0  0  0  0  0  0  0
   12.9273  -17.7177   25.1687 O   0  0  0  0  0  0  0  0  0  0  0  0
   12.6865  -19.0607   25.3392 O   0  0  0  0  0  0  0  0  0  0  0  0
  2  1  1  1
  2  3  1  0
  3  4  1  0
  4  9  2  0
  5  6  2  0
  5  4  1  0
  6  7  1  0
  7  8  2  0
  9  8  1  0
 10 11  2  0
 10  2  1  0
 12 13  1  0
 13 14  2  0
 13 15  1  0
 15 16  1  0
 16 17  1  0
 17 18  1  0
 19 18  1  6
 19 20  1  0
 20 10  1  0
 21 19  1  0
 21 23  1  0
 22 21  2  0
 24 23  1  0
 24 35  1  0
 24 25  1  6
 26 25  1  0
 27 26  2  0
 28 29  1  0
 28 27  1  0
 29 34  2  0
 30 29  1  0
 30 31  2  0
 31 32  1  0
 32 33  2  0
 34 26  1  0
 34 33  1  0
 35 36  1  0
 37 35  2  0
M  END
$$$$
