FRW.pdb
     RDKit          3D

 37 39  0  0  1  0  0  0  0  0999 V2000
    8.2653  -16.7933   16.9893 N   0  0  0  0  0  0  0  0  0  0  0  0
    8.3699  -15.9889   18.1897 C   0  0  1  0  0  0  0  0  0  0  0  0
    7.2328  -15.0287   18.2609 C   0  0  0  0  0  0  0  0  0  0  0  0
    7.1996  -14.4834   19.6455 C   0  0  0  0  0  0  0  0  0  0  0  0
    6.5582  -15.1193   20.6885 C   0  0  0  0  0  0  0  0  0  0  0  0
    6.5331  -14.6144   21.9661 C   0  0  0  0  0  0  0  0  0  0  0  0
    7.1588  -13.4358   22.2505 C   0  0  0  0  0  0  0  0  0  0  0  0
    7.8141  -12.7716   21.2197 C   0  0  0  0  0  0  0  0  0  0  0  0
    7.8299  -13.2893   19.9501 C   0  0  0  0  0  0  0  0  0  0  0  0
    8.4475  -16.9179   19.3467 C   0  0  0  0  0  0  0  0  0  0  0  0
    7.7210  -17.9346   19.4761 O   0  0  0  0  0  0  0  0  0  0  0  0
   13.3966  -18.2807   18.1239 N   0  0  0  0  0  0  0  0  0  0  0  0
   14.2930  -18.9060   19.0421 C   0  0  0  0  0  0  0  0  0  0  0  0
   15.5501  -18.7434   18.9444 N   0  0  0  0  0  0  0  0  0  0  0  0
   13.7618  -19.7272   20.0934 N   0  0  0  0  0  0  0  0  0  0  0  0
   12.3421  -19.9605   20.2269 C   0  0  0  0  0  0  0  0  0  0  0  0
   11.6552  -18.6820   20.5536 C   0  0  0  0  0  0  0  0  0  0  0  0
   10.2809  -18.9475   21.1237 C   0  0  0  0  0  0  0  0  0  0  0  0
    9.6348  -17.6602   21.4666 C   0  0  2  0  0  0  0  0  0  0  0  0
    9.3680  -16.7363   20.4314 N   0  0  0  0  0  0  0  0  0  0  0  0
   10.1981  -16.9378   22.6258 C   0  0  0  0  0  0  0  0  0  0  0  0
   11.3873  -16.5385   22.5685 O   0  0  0  0  0  0  0  0  0  0  0  0
   16.2037  -19.0958   19.6631 N   0  0  0  0  0  0  0  0  0  0  0  0
    9.4935  -16.6554   23.8111 C   0  0  1  0  0  0  0  0  0  0  0  0
   10.1352  -16.4325   25.1126 C   0  0  0  0  0  0  0  0  0  0  0  0
   10.0555  -14.9905   25.5004 C   0  0  0  0  0  0  0  0  0  0  0  0
    8.6768  -14.4761   25.4580 C   0  0  0  0  0  0  0  0  0  0  0  0
    7.5713  -15.2956   25.2052 N   0  0  0  0  0  0  0  0  0  0  0  0
    6.4619  -14.5358   25.2877 C   0  0  0  0  0  0  0  0  0  0  0  0
    6.7686  -13.2511   25.5811 C   0  0  0  0  0  0  0  0  0  0  0  0
    5.9946  -12.1228   25.7604 C   0  0  0  0  0  0  0  0  0  0  0  0
    6.6039  -10.9302   26.0492 C   0  0  0  0  0  0  0  0  0  0  0  0
    7.9685  -10.9048   26.1491 C   0  0  0  0  0  0  0  0  0  0  0  0
    8.7740  -12.0271   25.9734 C   0  0  0  0  0  0  0  0  0  0  0  0
    8.1582  -13.2283   25.6836 C   0  0  0  0  0  0  0  0  0  0  0  0
    9.7289  -17.4107   26.1056 O   0  0  0  0  0  0  0  0  0  0  0  0
    8.7902  -18.4083   25.9861 O   0  0  0  0  0  0  0  0  0  0  0  0
  2  1  1  6
  2  3  1  0
  3  4  1  0
  4  9  2  0
  5  6  2  0
  5  4  1  0
  6  7  1  0
  7  8  2  0
  9  8  1  0
 10 11  2  0
 10  2  1  0
 12 13  1  0
 13 14  2  0
 13 15  1  0
 15 16  1  0
 16 17  1  0
 17 18  1  0
 19 18  1  6
 19 20  1  0
 20 10  1  0
 21 19  1  0
 21 23  1  0
 22 21  2  0
 24 23  1  0
 24 35  1  0
 24 25  1  1
 26 25  1  0
 27 26  2  0
 28 29  1  0
 28 27  1  0
 29 34  2  0
 30 29  1  0
 30 31  2  0
 31 32  1  0
 32 33  2  0
 34 26  1  0
 34 33  1  0
 35 36  1  0
 37 35  2  0
M  END
$$$$
