FRW.pdb
     RDKit          3D

 37 39  0  0  1  0  0  0  0  0999 V2000
    5.6185  -19.6440   20.9695 N   0  0  0  0  0  0  0  0  0  0  0  0
    5.3791  -18.2930   21.4347 C   0  0  1  0  0  0  0  0  0  0  0  0
    4.5940  -18.3210   22.7006 C   0  0  0  0  0  0  0  0  0  0  0  0
    3.2746  -18.9363   22.3902 C   0  0  0  0  0  0  0  0  0  0  0  0
    2.4867  -18.5311   21.3325 C   0  0  0  0  0  0  0  0  0  0  0  0
    1.2711  -19.1043   21.0470 C   0  0  0  0  0  0  0  0  0  0  0  0
    0.7923  -20.1198   21.8223 C   0  0  0  0  0  0  0  0  0  0  0  0
    1.5641  -20.5502   22.8957 C   0  0  0  0  0  0  0  0  0  0  0  0
    2.7755  -19.9676   23.1668 C   0  0  0  0  0  0  0  0  0  0  0  0
    6.6985  -17.6210   21.5586 C   0  0  0  0  0  0  0  0  0  0  0  0
    7.7348  -18.1897   21.9838 O   0  0  0  0  0  0  0  0  0  0  0  0
    9.6959  -14.9483   17.0867 N   0  0  0  0  0  0  0  0  0  0  0  0
    8.7143  -14.1286   16.4527 C   0  0  0  0  0  0  0  0  0  0  0  0
    8.4283  -14.2808   15.2234 N   0  0  0  0  0  0  0  0  0  0  0  0
    8.0389  -13.1205   17.2203 N   0  0  0  0  0  0  0  0  0  0  0  0
    8.2615  -12.9755   18.6406 C   0  0  0  0  0  0  0  0  0  0  0  0
    8.1642  -14.3060   19.2989 C   0  0  0  0  0  0  0  0  0  0  0  0
    8.2065  -14.1594   20.8026 C   0  0  0  0  0  0  0  0  0  0  0  0
    8.0838  -15.4952   21.4295 C   0  0  2  0  0  0  0  0  0  0  0  0
    6.9106  -16.2485   21.2006 N   0  0  0  0  0  0  0  0  0  0  0  0
    8.4393  -15.5773   22.8612 C   0  0  0  0  0  0  0  0  0  0  0  0
    7.5592  -15.3153   23.7177 O   0  0  0  0  0  0  0  0  0  0  0  0
    7.7302  -13.6856   14.7474 N   0  0  0  0  0  0  0  0  0  0  0  0
    9.7101  -15.9338   23.3502 C   0  0  1  0  0  0  0  0  0  0  0  0
   10.1199  -15.7857   24.7521 C   0  0  0  0  0  0  0  0  0  0  0  0
    9.1305  -16.4390   25.6633 C   0  0  0  0  0  0  0  0  0  0  0  0
    7.9082  -15.6354   25.8288 C   0  0  0  0  0  0  0  0  0  0  0  0
    6.6419  -16.0991   25.4559 N   0  0  0  0  0  0  0  0  0  0  0  0
    5.7389  -15.1549   25.7845 C   0  0  0  0  0  0  0  0  0  0  0  0
    6.3360  -14.0839   26.3563 C   0  0  0  0  0  0  0  0  0  0  0  0
    5.8452  -12.8908   26.8462 C   0  0  0  0  0  0  0  0  0  0  0  0
    6.7153  -11.9732   27.3731 C   0  0  0  0  0  0  0  0  0  0  0  0
    8.0491  -12.2786   27.3928 C   0  0  0  0  0  0  0  0  0  0  0  0
    8.5720  -13.4740   26.9059 C   0  0  0  0  0  0  0  0  0  0  0  0
    7.6936  -14.3981   26.3763 C   0  0  0  0  0  0  0  0  0  0  0  0
   11.5217  -16.1040   24.9563 O   0  0  0  0  0  0  0  0  0  0  0  0
   12.2336  -16.1057   26.1327 O   0  0  0  0  0  0  0  0  0  0  0  0
  2  1  1  1
  2  3  1  0
  3  4  1  0
  4  9  2  0
  5  6  2  0
  5  4  1  0
  6  7  1  0
  7  8  2  0
  9  8  1  0
 10 11  2  0
 10  2  1  0
 12 13  1  0
 13 14  2  0
 13 15  1  0
 15 16  1  0
 16 17  1  0
 17 18  1  0
 19 18  1  1
 19 20  1  0
 20 10  1  0
 21 19  1  0
 21 23  1  0
 22 21  2  0
 24 23  1  0
 24 35  1  0
 24 25  1  1
 26 25  1  0
 27 26  2  0
 28 29  1  0
 28 27  1  0
 29 34  2  0
 30 29  1  0
 30 31  2  0
 31 32  1  0
 32 33  2  0
 34 26  1  0
 34 33  1  0
 35 36  1  0
 37 35  2  0
M  END
$$$$
