FRW.pdb
     RDKit          3D

 37 39  0  0  1  0  0  0  0  0999 V2000
    5.0667  -18.1728   24.1661 N   0  0  0  0  0  0  0  0  0  0  0  0
    6.3183  -17.4586   24.3156 C   0  0  1  0  0  0  0  0  0  0  0  0
    6.5036  -17.0457   25.7351 C   0  0  0  0  0  0  0  0  0  0  0  0
    6.9897  -15.6389   25.7274 C   0  0  0  0  0  0  0  0  0  0  0  0
    7.0571  -14.8733   24.5815 C   0  0  0  0  0  0  0  0  0  0  0  0
    7.5029  -13.5737   24.5794 C   0  0  0  0  0  0  0  0  0  0  0  0
    7.9040  -12.9839   25.7424 C   0  0  0  0  0  0  0  0  0  0  0  0
    7.8473  -13.7303   26.9140 C   0  0  0  0  0  0  0  0  0  0  0  0
    7.3995  -15.0263   26.8990 C   0  0  0  0  0  0  0  0  0  0  0  0
    7.3997  -18.3357   23.7970 C   0  0  0  0  0  0  0  0  0  0  0  0
    7.2699  -19.5720   23.6157 O   0  0  0  0  0  0  0  0  0  0  0  0
    8.1086  -11.7714   19.1682 N   0  0  0  0  0  0  0  0  0  0  0  0
    8.3859  -13.1520   18.9348 C   0  0  0  0  0  0  0  0  0  0  0  0
    9.3983  -13.5113   18.2548 N   0  0  0  0  0  0  0  0  0  0  0  0
    7.5074  -14.1472   19.4820 N   0  0  0  0  0  0  0  0  0  0  0  0
    7.7035  -15.5549   19.2217 C   0  0  0  0  0  0  0  0  0  0  0  0
    8.7591  -16.0866   20.1252 C   0  0  0  0  0  0  0  0  0  0  0  0
    8.1812  -16.4144   21.4827 C   0  0  0  0  0  0  0  0  0  0  0  0
    9.0991  -17.3293   22.1988 C   0  0  2  0  0  0  0  0  0  0  0  0
    8.7028  -17.8454   23.4530 N   0  0  0  0  0  0  0  0  0  0  0  0
   10.5122  -16.9049   22.2754 C   0  0  0  0  0  0  0  0  0  0  0  0
   10.9803  -16.1952   21.3513 O   0  0  0  0  0  0  0  0  0  0  0  0
    9.5677  -14.5006   18.0089 N   0  0  0  0  0  0  0  0  0  0  0  0
   11.3914  -17.2386   23.3227 C   0  0  1  0  0  0  0  0  0  0  0  0
   11.9672  -16.2594   24.2526 C   0  0  0  0  0  0  0  0  0  0  0  0
   10.9041  -15.3601   24.7976 C   0  0  0  0  0  0  0  0  0  0  0  0
   10.4780  -15.7549   26.1504 C   0  0  0  0  0  0  0  0  0  0  0  0
   10.4085  -17.0903   26.5618 N   0  0  0  0  0  0  0  0  0  0  0  0
   10.0396  -17.1085   27.8574 C   0  0  0  0  0  0  0  0  0  0  0  0
    9.8578  -15.8550   28.3327 C   0  0  0  0  0  0  0  0  0  0  0  0
    9.4824  -15.3691   29.5685 C   0  0  0  0  0  0  0  0  0  0  0  0
    9.3733  -14.0159   29.7525 C   0  0  0  0  0  0  0  0  0  0  0  0
    9.6431  -13.1920   28.6936 C   0  0  0  0  0  0  0  0  0  0  0  0
   10.0238  -13.6543   27.4364 C   0  0  0  0  0  0  0  0  0  0  0  0
   10.1344  -15.0182   27.2531 C   0  0  0  0  0  0  0  0  0  0  0  0
   12.8749  -16.8694   25.2077 O   0  0  0  0  0  0  0  0  0  0  0  0
   13.0377  -18.2035   25.4977 O   0  0  0  0  0  0  0  0  0  0  0  0
  2  1  1  1
  2  3  1  0
  3  4  1  0
  4  9  2  0
  5  6  2  0
  5  4  1  0
  6  7  1  0
  7  8  2  0
  9  8  1  0
 10 11  2  0
 10  2  1  0
 12 13  1  0
 13 14  2  0
 13 15  1  0
 15 16  1  0
 16 17  1  0
 17 18  1  0
 19 18  1  1
 19 20  1  0
 20 10  1  0
 21 19  1  0
 21 23  1  0
 22 21  2  0
 24 23  1  0
 24 35  1  0
 24 25  1  6
 26 25  1  0
 27 26  2  0
 28 29  1  0
 28 27  1  0
 29 34  2  0
 30 29  1  0
 30 31  2  0
 31 32  1  0
 32 33  2  0
 34 26  1  0
 34 33  1  0
 35 36  1  0
 37 35  2  0
M  END
$$$$
