FRW.pdb
     RDKit          3D

 37 39  0  0  1  0  0  0  0  0999 V2000
    5.6172  -17.9853   26.0826 N   0  0  0  0  0  0  0  0  0  0  0  0
    6.2750  -16.7764   25.6302 C   0  0  1  0  0  0  0  0  0  0  0  0
    6.8999  -16.0728   26.7854 C   0  0  0  0  0  0  0  0  0  0  0  0
    6.8696  -14.6152   26.4855 C   0  0  0  0  0  0  0  0  0  0  0  0
    5.7754  -13.8166   26.7477 C   0  0  0  0  0  0  0  0  0  0  0  0
    5.7529  -12.4706   26.4728 C   0  0  0  0  0  0  0  0  0  0  0  0
    6.8419  -11.8656   25.9164 C   0  0  0  0  0  0  0  0  0  0  0  0
    7.9600  -12.6445   25.6408 C   0  0  0  0  0  0  0  0  0  0  0  0
    7.9664  -13.9867   25.9217 C   0  0  0  0  0  0  0  0  0  0  0  0
    7.2383  -17.1613   24.5664 C   0  0  0  0  0  0  0  0  0  0  0  0
    8.2257  -17.9142   24.7572 O   0  0  0  0  0  0  0  0  0  0  0  0
    7.1039  -13.6378   18.3840 N   0  0  0  0  0  0  0  0  0  0  0  0
    8.4315  -13.6554   17.8598 C   0  0  0  0  0  0  0  0  0  0  0  0
    8.9265  -12.6300   17.2945 N   0  0  0  0  0  0  0  0  0  0  0  0
    9.2179  -14.8509   17.9788 N   0  0  0  0  0  0  0  0  0  0  0  0
    8.7412  -15.9998   18.7142 C   0  0  0  0  0  0  0  0  0  0  0  0
    9.1353  -15.8756   20.1433 C   0  0  0  0  0  0  0  0  0  0  0  0
    7.9119  -15.8007   21.0276 C   0  0  0  0  0  0  0  0  0  0  0  0
    8.1948  -16.4751   22.3149 C   0  0  2  0  0  0  0  0  0  0  0  0
    7.1271  -16.7036   23.2118 N   0  0  0  0  0  0  0  0  0  0  0  0
    9.3613  -15.9732   23.0700 C   0  0  0  0  0  0  0  0  0  0  0  0
    9.3474  -14.7882   23.4850 O   0  0  0  0  0  0  0  0  0  0  0  0
    9.8565  -12.6502   16.8442 N   0  0  0  0  0  0  0  0  0  0  0  0
   10.5081  -16.7332   23.3675 C   0  0  1  0  0  0  0  0  0  0  0  0
   11.7853  -16.1538   23.8016 C   0  0  0  0  0  0  0  0  0  0  0  0
   12.1896  -16.7039   25.1320 C   0  0  0  0  0  0  0  0  0  0  0  0
   11.1110  -16.6037   26.1290 C   0  0  0  0  0  0  0  0  0  0  0  0
   10.3827  -17.7142   26.5695 N   0  0  0  0  0  0  0  0  0  0  0  0
    9.5152  -17.2965   27.5117 C   0  0  0  0  0  0  0  0  0  0  0  0
    9.6248  -15.9646   27.7227 C   0  0  0  0  0  0  0  0  0  0  0  0
    8.9641  -15.0941   28.5653 C   0  0  0  0  0  0  0  0  0  0  0  0
    9.2958  -13.7650   28.5511 C   0  0  0  0  0  0  0  0  0  0  0  0
   10.2782  -13.3492   27.6937 C   0  0  0  0  0  0  0  0  0  0  0  0
   10.9612  -14.2049   26.8331 C   0  0  0  0  0  0  0  0  0  0  0  0
   10.6264  -15.5442   26.8497 C   0  0  0  0  0  0  0  0  0  0  0  0
   12.7843  -16.1624   22.7481 O   0  0  0  0  0  0  0  0  0  0  0  0
   12.6758  -16.6672   21.4737 O   0  0  0  0  0  0  0  0  0  0  0  0
  2  1  1  1
  2  3  1  0
  3  4  1  0
  4  9  2  0
  5  6  2  0
  5  4  1  0
  6  7  1  0
  7  8  2  0
  9  8  1  0
 10 11  2  0
 10  2  1  0
 12 13  1  0
 13 14  2  0
 13 15  1  0
 15 16  1  0
 16 17  1  0
 17 18  1  0
 19 18  1  6
 19 20  1  0
 20 10  1  0
 21 19  1  0
 21 23  1  0
 22 21  2  0
 24 23  1  0
 24 35  1  0
 24 25  1  6
 26 25  1  0
 27 26  2  0
 28 29  1  0
 28 27  1  0
 29 34  2  0
 30 29  1  0
 30 31  2  0
 31 32  1  0
 32 33  2  0
 34 26  1  0
 34 33  1  0
 35 36  1  0
 37 35  2  0
M  END
$$$$
