FRW.pdb
     RDKit          3D

 37 39  0  0  1  0  0  0  0  0999 V2000
    6.1339  -16.4101   21.7386 N   0  0  0  0  0  0  0  0  0  0  0  0
    7.5742  -16.4808   21.8781 C   0  0  1  0  0  0  0  0  0  0  0  0
    8.0746  -15.2856   22.6137 C   0  0  0  0  0  0  0  0  0  0  0  0
    7.7386  -14.0887   21.7950 C   0  0  0  0  0  0  0  0  0  0  0  0
    7.1298  -14.1701   20.5596 C   0  0  0  0  0  0  0  0  0  0  0  0
    6.8179  -13.0626   19.8087 C   0  0  0  0  0  0  0  0  0  0  0  0
    7.1089  -11.8137   20.2744 C   0  0  0  0  0  0  0  0  0  0  0  0
    7.7226  -11.6995   21.5167 C   0  0  0  0  0  0  0  0  0  0  0  0
    8.0269  -12.8151   22.2538 C   0  0  0  0  0  0  0  0  0  0  0  0
    7.8980  -17.7728   22.5365 C   0  0  0  0  0  0  0  0  0  0  0  0
    7.0558  -18.6815   22.7439 O   0  0  0  0  0  0  0  0  0  0  0  0
   12.3894  -14.3862   18.6862 N   0  0  0  0  0  0  0  0  0  0  0  0
   12.5694  -15.6221   17.9951 C   0  0  0  0  0  0  0  0  0  0  0  0
   13.3655  -15.7110   17.0079 N   0  0  0  0  0  0  0  0  0  0  0  0
   11.8408  -16.7814   18.4276 N   0  0  0  0  0  0  0  0  0  0  0  0
   10.8088  -16.6938   19.4351 C   0  0  0  0  0  0  0  0  0  0  0  0
   11.4331  -16.6261   20.7838 C   0  0  0  0  0  0  0  0  0  0  0  0
   10.4047  -16.2556   21.8276 C   0  0  0  0  0  0  0  0  0  0  0  0
   10.3712  -17.3007   22.8759 C   0  0  2  0  0  0  0  0  0  0  0  0
    9.2147  -18.1029   22.9994 N   0  0  0  0  0  0  0  0  0  0  0  0
   10.8184  -16.8869   24.2219 C   0  0  0  0  0  0  0  0  0  0  0  0
   12.0036  -16.5002   24.3719 O   0  0  0  0  0  0  0  0  0  0  0  0
   13.5249  -16.6046   16.5138 N   0  0  0  0  0  0  0  0  0  0  0  0
   10.0051  -16.8908   25.3707 C   0  0  1  0  0  0  0  0  0  0  0  0
   10.5041  -16.6423   26.7289 C   0  0  0  0  0  0  0  0  0  0  0  0
    9.8873  -15.4056   27.2999 C   0  0  0  0  0  0  0  0  0  0  0  0
    8.5817  -15.1006   26.6919 C   0  0  0  0  0  0  0  0  0  0  0  0
    7.6654  -16.0941   26.3299 N   0  0  0  0  0  0  0  0  0  0  0  0
    6.5596  -15.4882   25.8557 C   0  0  0  0  0  0  0  0  0  0  0  0
    6.6897  -14.1418   25.8806 C   0  0  0  0  0  0  0  0  0  0  0  0
    5.8496  -13.1142   25.5029 C   0  0  0  0  0  0  0  0  0  0  0  0
    6.2701  -11.8179   25.6430 C   0  0  0  0  0  0  0  0  0  0  0  0
    7.5181  -11.5912   26.1566 C   0  0  0  0  0  0  0  0  0  0  0  0
    8.3864  -12.6080   26.5459 C   0  0  0  0  0  0  0  0  0  0  0  0
    7.9606  -13.9137   26.4051 C   0  0  0  0  0  0  0  0  0  0  0  0
   10.4831  -17.8367   27.5542 O   0  0  0  0  0  0  0  0  0  0  0  0
   10.9883  -18.0068   28.8216 O   0  0  0  0  0  0  0  0  0  0  0  0
  2  1  1  1
  2  3  1  0
  3  4  1  0
  4  9  2  0
  5  6  2  0
  5  4  1  0
  6  7  1  0
  7  8  2  0
  9  8  1  0
 10 11  2  0
 10  2  1  0
 12 13  1  0
 13 14  2  0
 13 15  1  0
 15 16  1  0
 16 17  1  0
 17 18  1  0
 19 18  1  6
 19 20  1  0
 20 10  1  0
 21 19  1  0
 21 23  1  0
 22 21  2  0
 24 23  1  0
 24 35  1  0
 24 25  1  1
 26 25  1  0
 27 26  2  0
 28 29  1  0
 28 27  1  0
 29 34  2  0
 30 29  1  0
 30 31  2  0
 31 32  1  0
 32 33  2  0
 34 26  1  0
 34 33  1  0
 35 36  1  0
 37 35  2  0
M  END
$$$$
