FRW.pdb
     RDKit          3D

 37 39  0  0  1  0  0  0  0  0999 V2000
    9.8983  -15.8140   20.3699 N   0  0  0  0  0  0  0  0  0  0  0  0
    8.9350  -15.9153   21.4472 C   0  0  1  0  0  0  0  0  0  0  0  0
    7.5508  -15.9122   20.8957 C   0  0  0  0  0  0  0  0  0  0  0  0
    7.3816  -14.6467   20.1306 C   0  0  0  0  0  0  0  0  0  0  0  0
    7.2986  -14.6061   18.7540 C   0  0  0  0  0  0  0  0  0  0  0  0
    7.1385  -13.4360   18.0517 C   0  0  0  0  0  0  0  0  0  0  0  0
    7.0548  -12.2453   18.7124 C   0  0  0  0  0  0  0  0  0  0  0  0
    7.1350  -12.2541   20.1004 C   0  0  0  0  0  0  0  0  0  0  0  0
    7.2945  -13.4308   20.7862 C   0  0  0  0  0  0  0  0  0  0  0  0
    9.2676  -17.1314   22.2334 C   0  0  0  0  0  0  0  0  0  0  0  0
    8.4214  -17.7997   22.8779 O   0  0  0  0  0  0  0  0  0  0  0  0
   15.0488  -18.6732   18.5047 N   0  0  0  0  0  0  0  0  0  0  0  0
   13.6885  -18.6561   18.0723 C   0  0  0  0  0  0  0  0  0  0  0  0
   13.3822  -18.3167   16.8861 N   0  0  0  0  0  0  0  0  0  0  0  0
   12.6538  -19.0328   18.9938 N   0  0  0  0  0  0  0  0  0  0  0  0
   12.9619  -19.6014   20.2859 C   0  0  0  0  0  0  0  0  0  0  0  0
   11.7013  -19.8397   21.0391 C   0  0  0  0  0  0  0  0  0  0  0  0
   11.9450  -19.7431   22.5276 C   0  0  0  0  0  0  0  0  0  0  0  0
   11.0094  -18.7573   23.1151 C   0  0  2  0  0  0  0  0  0  0  0  0
   10.5983  -17.6577   22.3288 N   0  0  0  0  0  0  0  0  0  0  0  0
   11.3334  -18.2837   24.4765 C   0  0  0  0  0  0  0  0  0  0  0  0
   11.6279  -19.1301   25.3561 O   0  0  0  0  0  0  0  0  0  0  0  0
   12.4043  -18.3225   16.5518 N   0  0  0  0  0  0  0  0  0  0  0  0
   11.3394  -16.9330   24.8727 C   0  0  2  0  0  0  0  0  0  0  0  0
   10.2536  -16.2958   25.6279 C   0  0  0  0  0  0  0  0  0  0  0  0
    9.2669  -15.6615   24.7006 C   0  0  0  0  0  0  0  0  0  0  0  0
    8.1434  -15.0398   25.4208 C   0  0  0  0  0  0  0  0  0  0  0  0
    7.0560  -15.7750   25.9052 N   0  0  0  0  0  0  0  0  0  0  0  0
    6.2362  -14.9268   26.5558 C   0  0  0  0  0  0  0  0  0  0  0  0
    6.7184  -13.6630   26.5302 C   0  0  0  0  0  0  0  0  0  0  0  0
    6.2459  -12.4717   27.0419 C   0  0  0  0  0  0  0  0  0  0  0  0
    6.9677  -11.3239   26.8454 C   0  0  0  0  0  0  0  0  0  0  0  0
    8.1392  -11.4049   26.1428 C   0  0  0  0  0  0  0  0  0  0  0  0
    8.6397  -12.5927   25.6156 C   0  0  0  0  0  0  0  0  0  0  0  0
    7.9117  -13.7486   25.8155 C   0  0  0  0  0  0  0  0  0  0  0  0
    9.7259  -17.1557   26.6721 O   0  0  0  0  0  0  0  0  0  0  0  0
    9.6015  -16.8890   28.0152 O   0  0  0  0  0  0  0  0  0  0  0  0
  2  1  1  6
  2  3  1  0
  3  4  1  0
  4  9  2  0
  5  6  2  0
  5  4  1  0
  6  7  1  0
  7  8  2  0
  9  8  1  0
 10 11  2  0
 10  2  1  0
 12 13  1  0
 13 14  2  0
 13 15  1  0
 15 16  1  0
 16 17  1  0
 17 18  1  0
 19 18  1  6
 19 20  1  0
 20 10  1  0
 21 19  1  0
 21 23  1  0
 22 21  2  0
 24 23  1  0
 24 35  1  0
 24 25  1  6
 26 25  1  0
 27 26  2  0
 28 29  1  0
 28 27  1  0
 29 34  2  0
 30 29  1  0
 30 31  2  0
 31 32  1  0
 32 33  2  0
 34 26  1  0
 34 33  1  0
 35 36  1  0
 37 35  2  0
M  END
$$$$
