FRW.pdb
     RDKit          3D

 37 39  0  0  1  0  0  0  0  0999 V2000
    6.8476  -17.2011   18.9124 N   0  0  0  0  0  0  0  0  0  0  0  0
    7.4131  -16.5645   20.0845 C   0  0  1  0  0  0  0  0  0  0  0  0
    6.3710  -15.7577   20.7795 C   0  0  0  0  0  0  0  0  0  0  0  0
    6.7973  -14.3330   20.7145 C   0  0  0  0  0  0  0  0  0  0  0  0
    7.2453  -13.6318   21.8151 C   0  0  0  0  0  0  0  0  0  0  0  0
    7.6416  -12.3178   21.7501 C   0  0  0  0  0  0  0  0  0  0  0  0
    7.6029  -11.6474   20.5625 C   0  0  0  0  0  0  0  0  0  0  0  0
    7.1560  -12.3278   19.4354 C   0  0  0  0  0  0  0  0  0  0  0  0
    6.7644  -13.6394   19.5172 C   0  0  0  0  0  0  0  0  0  0  0  0
    8.0123  -17.6305   20.9286 C   0  0  0  0  0  0  0  0  0  0  0  0
    7.9452  -18.8555   20.6587 O   0  0  0  0  0  0  0  0  0  0  0  0
   14.7891  -21.6441   24.2366 N   0  0  0  0  0  0  0  0  0  0  0  0
   13.5707  -21.7811   23.5057 C   0  0  0  0  0  0  0  0  0  0  0  0
   12.5850  -22.4221   23.9892 N   0  0  0  0  0  0  0  0  0  0  0  0
   13.4598  -21.1805   22.2062 N   0  0  0  0  0  0  0  0  0  0  0  0
   12.2044  -20.6559   21.7200 C   0  0  0  0  0  0  0  0  0  0  0  0
   11.8815  -19.3922   22.4357 C   0  0  0  0  0  0  0  0  0  0  0  0
   10.8313  -18.6083   21.6827 C   0  0  0  0  0  0  0  0  0  0  0  0
    9.8359  -18.0756   22.6406 C   0  0  2  0  0  0  0  0  0  0  0  0
    8.7287  -17.3546   22.1400 N   0  0  0  0  0  0  0  0  0  0  0  0
   10.3797  -17.3695   23.8190 C   0  0  0  0  0  0  0  0  0  0  0  0
   11.4631  -16.7455   23.7020 O   0  0  0  0  0  0  0  0  0  0  0  0
   11.7000  -22.5373   23.4680 N   0  0  0  0  0  0  0  0  0  0  0  0
    9.7671  -17.3394   25.0859 C   0  0  2  0  0  0  0  0  0  0  0  0
   10.4475  -16.9139   26.3152 C   0  0  0  0  0  0  0  0  0  0  0  0
   10.1768  -15.4703   26.5960 C   0  0  0  0  0  0  0  0  0  0  0  0
    8.8372  -15.0558   26.1477 C   0  0  0  0  0  0  0  0  0  0  0  0
    7.8276  -15.9721   25.8337 N   0  0  0  0  0  0  0  0  0  0  0  0
    6.7191  -15.2771   25.5128 C   0  0  0  0  0  0  0  0  0  0  0  0
    6.9357  -13.9441   25.5948 C   0  0  0  0  0  0  0  0  0  0  0  0
    6.1276  -12.8497   25.3637 C   0  0  0  0  0  0  0  0  0  0  0  0
    6.6411  -11.5901   25.5264 C   0  0  0  0  0  0  0  0  0  0  0  0
    7.9474  -11.4658   25.9151 C   0  0  0  0  0  0  0  0  0  0  0  0
    8.7854  -12.5518   26.1553 C   0  0  0  0  0  0  0  0  0  0  0  0
    8.2658  -13.8205   25.9919 C   0  0  0  0  0  0  0  0  0  0  0  0
   10.2547  -17.8504   27.4079 O   0  0  0  0  0  0  0  0  0  0  0  0
    9.4401  -18.9573   27.4489 O   0  0  0  0  0  0  0  0  0  0  0  0
  2  1  1  6
  2  3  1  0
  3  4  1  0
  4  9  2  0
  5  6  2  0
  5  4  1  0
  6  7  1  0
  7  8  2  0
  9  8  1  0
 10 11  2  0
 10  2  1  0
 12 13  1  0
 13 14  2  0
 13 15  1  0
 15 16  1  0
 16 17  1  0
 17 18  1  0
 19 18  1  6
 19 20  1  0
 20 10  1  0
 21 19  1  0
 21 23  1  0
 22 21  2  0
 24 23  1  0
 24 35  1  0
 24 25  1  6
 26 25  1  0
 27 26  2  0
 28 29  1  0
 28 27  1  0
 29 34  2  0
 30 29  1  0
 30 31  2  0
 31 32  1  0
 32 33  2  0
 34 26  1  0
 34 33  1  0
 35 36  1  0
 37 35  2  0
M  END
$$$$
