FRW.pdb
     RDKit          3D

 37 39  0  0  1  0  0  0  0  0999 V2000
    8.9751  -14.2531   24.4308 N   0  0  0  0  0  0  0  0  0  0  0  0
    8.0277  -15.3349   24.6068 C   0  0  1  0  0  0  0  0  0  0  0  0
    6.6352  -14.8154   24.5026 C   0  0  0  0  0  0  0  0  0  0  0  0
    6.5294  -13.6451   25.4162 C   0  0  0  0  0  0  0  0  0  0  0  0
    7.2193  -12.4677   25.2123 C   0  0  0  0  0  0  0  0  0  0  0  0
    7.1159  -11.3883   26.0561 C   0  0  0  0  0  0  0  0  0  0  0  0
    6.3057  -11.4492   27.1520 C   0  0  0  0  0  0  0  0  0  0  0  0
    5.5972  -12.6228   27.3840 C   0  0  0  0  0  0  0  0  0  0  0  0
    5.7113  -13.6910   26.5318 C   0  0  0  0  0  0  0  0  0  0  0  0
    8.3555  -16.3850   23.6080 C   0  0  0  0  0  0  0  0  0  0  0  0
    7.8214  -17.5219   23.5889 O   0  0  0  0  0  0  0  0  0  0  0  0
    7.1174  -13.1090   17.5048 N   0  0  0  0  0  0  0  0  0  0  0  0
    8.2739  -13.8793   17.1779 C   0  0  0  0  0  0  0  0  0  0  0  0
    8.4204  -14.3821   16.0195 N   0  0  0  0  0  0  0  0  0  0  0  0
    9.2868  -14.0833   18.1749 N   0  0  0  0  0  0  0  0  0  0  0  0
    9.7630  -15.4058   18.5098 C   0  0  0  0  0  0  0  0  0  0  0  0
    9.5986  -15.6400   19.9697 C   0  0  0  0  0  0  0  0  0  0  0  0
   10.1380  -16.9985   20.3542 C   0  0  0  0  0  0  0  0  0  0  0  0
    9.9470  -17.2090   21.8073 C   0  0  2  0  0  0  0  0  0  0  0  0
    9.3208  -16.1939   22.5648 N   0  0  0  0  0  0  0  0  0  0  0  0
   11.1194  -17.7138   22.5513 C   0  0  0  0  0  0  0  0  0  0  0  0
   11.8681  -18.5568   21.9986 O   0  0  0  0  0  0  0  0  0  0  0  0
    9.2450  -14.9541   15.7728 N   0  0  0  0  0  0  0  0  0  0  0  0
   11.4706  -17.3160   23.8550 C   0  0  1  0  0  0  0  0  0  0  0  0
   12.7007  -17.7372   24.5369 C   0  0  0  0  0  0  0  0  0  0  0  0
   13.0941  -16.7403   25.5797 C   0  0  0  0  0  0  0  0  0  0  0  0
   12.1476  -16.7079   26.7068 C   0  0  0  0  0  0  0  0  0  0  0  0
   11.9302  -17.8078   27.5437 N   0  0  0  0  0  0  0  0  0  0  0  0
   11.0545  -17.4384   28.4985 C   0  0  0  0  0  0  0  0  0  0  0  0
   10.6746  -16.1493   28.3425 C   0  0  0  0  0  0  0  0  0  0  0  0
    9.8115  -15.3370   29.0492 C   0  0  0  0  0  0  0  0  0  0  0  0
    9.6179  -14.0448   28.6376 C   0  0  0  0  0  0  0  0  0  0  0  0
   10.2942  -13.6065   27.5315 C   0  0  0  0  0  0  0  0  0  0  0  0
   11.1708  -14.4036   26.7997 C   0  0  0  0  0  0  0  0  0  0  0  0
   11.3655  -15.7052   27.2166 C   0  0  0  0  0  0  0  0  0  0  0  0
   12.6642  -19.1335   24.9333 O   0  0  0  0  0  0  0  0  0  0  0  0
   11.5912  -19.9934   24.9302 O   0  0  0  0  0  0  0  0  0  0  0  0
  2  1  1  6
  2  3  1  0
  3  4  1  0
  4  9  2  0
  5  6  2  0
  5  4  1  0
  6  7  1  0
  7  8  2  0
  9  8  1  0
 10 11  2  0
 10  2  1  0
 12 13  1  0
 13 14  2  0
 13 15  1  0
 15 16  1  0
 16 17  1  0
 17 18  1  0
 19 18  1  6
 19 20  1  0
 20 10  1  0
 21 19  1  0
 21 23  1  0
 22 21  2  0
 24 23  1  0
 24 35  1  0
 24 25  1  6
 26 25  1  0
 27 26  2  0
 28 29  1  0
 28 27  1  0
 29 34  2  0
 30 29  1  0
 30 31  2  0
 31 32  1  0
 32 33  2  0
 34 26  1  0
 34 33  1  0
 35 36  1  0
 37 35  2  0
M  END
$$$$
