FRW.pdb
     RDKit          3D

 37 39  0  0  1  0  0  0  0  0999 V2000
    6.9709  -18.0208   18.5202 N   0  0  0  0  0  0  0  0  0  0  0  0
    7.4451  -16.8351   19.2043 C   0  0  1  0  0  0  0  0  0  0  0  0
    6.3016  -15.9292   19.5072 C   0  0  0  0  0  0  0  0  0  0  0  0
    6.8553  -14.7320   20.1969 C   0  0  0  0  0  0  0  0  0  0  0  0
    6.8970  -14.6082   21.5704 C   0  0  0  0  0  0  0  0  0  0  0  0
    7.4126  -13.5030   22.2032 C   0  0  0  0  0  0  0  0  0  0  0  0
    7.9127  -12.4650   21.4725 C   0  0  0  0  0  0  0  0  0  0  0  0
    7.8847  -12.5608   20.0858 C   0  0  0  0  0  0  0  0  0  0  0  0
    7.3669  -13.6711   19.4698 C   0  0  0  0  0  0  0  0  0  0  0  0
    8.1954  -17.2810   20.4068 C   0  0  0  0  0  0  0  0  0  0  0  0
    7.7104  -18.0221   21.2977 O   0  0  0  0  0  0  0  0  0  0  0  0
   14.2141  -20.4297   17.7745 N   0  0  0  0  0  0  0  0  0  0  0  0
   14.1557  -19.0099   17.9097 C   0  0  0  0  0  0  0  0  0  0  0  0
   14.5199  -18.2458   16.9611 N   0  0  0  0  0  0  0  0  0  0  0  0
   13.6736  -18.4403   19.1363 N   0  0  0  0  0  0  0  0  0  0  0  0
   13.2391  -19.2703   20.2364 C   0  0  0  0  0  0  0  0  0  0  0  0
   11.8319  -18.9377   20.5864 C   0  0  0  0  0  0  0  0  0  0  0  0
   11.7778  -17.6999   21.4520 C   0  0  0  0  0  0  0  0  0  0  0  0
   10.3645  -17.3552   21.7276 C   0  0  2  0  0  0  0  0  0  0  0  0
    9.5549  -16.9022   20.6618 N   0  0  0  0  0  0  0  0  0  0  0  0
   10.1204  -16.5085   22.9135 C   0  0  0  0  0  0  0  0  0  0  0  0
    9.4718  -15.4428   22.7713 O   0  0  0  0  0  0  0  0  0  0  0  0
   14.5061  -17.2166   17.0531 N   0  0  0  0  0  0  0  0  0  0  0  0
   10.5650  -16.8085   24.2149 C   0  0  1  0  0  0  0  0  0  0  0  0
    9.8280  -16.4552   25.4344 C   0  0  0  0  0  0  0  0  0  0  0  0
    8.3662  -16.7191   25.2630 C   0  0  0  0  0  0  0  0  0  0  0  0
    7.5466  -15.5302   25.5496 C   0  0  0  0  0  0  0  0  0  0  0  0
    6.1679  -15.4876   25.3153 N   0  0  0  0  0  0  0  0  0  0  0  0
    5.7117  -14.2895   25.7294 C   0  0  0  0  0  0  0  0  0  0  0  0
    6.7139  -13.5290   26.2270 C   0  0  0  0  0  0  0  0  0  0  0  0
    6.7463  -12.2550   26.7563 C   0  0  0  0  0  0  0  0  0  0  0  0
    7.9403  -11.7353   27.1817 C   0  0  0  0  0  0  0  0  0  0  0  0
    9.0642  -12.5073   27.0637 C   0  0  0  0  0  0  0  0  0  0  0  0
    9.0609  -13.7952   26.5341 C   0  0  0  0  0  0  0  0  0  0  0  0
    7.8566  -14.3177   26.1069 C   0  0  0  0  0  0  0  0  0  0  0  0
   10.4603  -16.9743   26.6340 O   0  0  0  0  0  0  0  0  0  0  0  0
   10.1787  -16.6724   27.9456 O   0  0  0  0  0  0  0  0  0  0  0  0
  2  1  1  1
  2  3  1  0
  3  4  1  0
  4  9  2  0
  5  6  2  0
  5  4  1  0
  6  7  1  0
  7  8  2  0
  9  8  1  0
 10 11  2  0
 10  2  1  0
 12 13  1  0
 13 14  2  0
 13 15  1  0
 15 16  1  0
 16 17  1  0
 17 18  1  0
 19 18  1  6
 19 20  1  0
 20 10  1  0
 21 19  1  0
 21 23  1  0
 22 21  2  0
 24 23  1  0
 24 35  1  0
 24 25  1  1
 26 25  1  0
 27 26  2  0
 28 29  1  0
 28 27  1  0
 29 34  2  0
 30 29  1  0
 30 31  2  0
 31 32  1  0
 32 33  2  0
 34 26  1  0
 34 33  1  0
 35 36  1  0
 37 35  2  0
M  END
$$$$
