HKF.pdb
     RDKit          3D

 31 32  0  0  1  0  0  0  0  0999 V2000
   24.2075  -17.8397  -18.0859 N   0  0  0  0  0  0  0  0  0  0  0  0
   25.2662  -17.4521  -17.1019 C   0  0  1  0  0  0  0  0  0  0  0  0
   24.4931  -16.7065  -16.0391 C   0  0  0  0  0  0  0  0  0  0  0  0
   24.0321  -15.3620  -16.4056 C   0  0  0  0  0  0  0  0  0  0  0  0
   24.2161  -14.7375  -17.6416 C   0  0  0  0  0  0  0  0  0  0  0  0
   23.6554  -13.5255  -17.5842 N   0  0  0  0  0  0  0  0  0  0  0  0
   23.1183  -13.3542  -16.3511 C   0  0  0  0  0  0  0  0  0  0  0  0
   23.3603  -14.4780  -15.6606 N   0  0  0  0  0  0  0  0  0  0  0  0
   25.7182  -18.7363  -16.5448 C   0  0  0  0  0  0  0  0  0  0  0  0
   24.8117  -19.5505  -16.1514 O   0  0  0  0  0  0  0  0  0  0  0  0
   27.0892  -19.1445  -16.4136 N   0  0  0  0  0  0  0  0  0  0  0  0
   27.3773  -20.3697  -15.7248 C   0  0  1  0  0  0  0  0  0  0  0  0
   28.4705  -21.1820  -16.2850 C   0  0  0  0  0  0  0  0  0  0  0  0
   28.8013  -22.5138  -15.7923 C   0  0  0  0  0  0  0  0  0  0  0  0
   30.0710  -23.1580  -16.2722 C   0  0  0  0  0  0  0  0  0  0  0  0
   29.7559  -24.0413  -17.5112 C   0  0  0  0  0  0  0  0  0  0  0  0
   30.9651  -24.5616  -18.0868 N   0  0  0  0  0  0  0  0  0  0  0  0
   27.4784  -20.1641  -14.2495 C   0  0  0  0  0  0  0  0  0  0  0  0
   28.3004  -19.3605  -13.7548 O   0  0  0  0  0  0  0  0  0  0  0  0
   26.6472  -20.8717  -13.3576 N   0  0  0  0  0  0  0  0  0  0  0  0
   26.8661  -20.7285  -11.9090 C   0  0  1  0  0  0  0  0  0  0  0  0
   26.1769  -19.4915  -11.4051 C   0  0  0  0  0  0  0  0  0  0  0  0
   24.7603  -19.4980  -11.7900 C   0  0  0  0  0  0  0  0  0  0  0  0
   24.3605  -18.9772  -13.0284 C   0  0  0  0  0  0  0  0  0  0  0  0
   23.0522  -18.9860  -13.4347 C   0  0  0  0  0  0  0  0  0  0  0  0
   22.0634  -19.5115  -12.6376 C   0  0  0  0  0  0  0  0  0  0  0  0
   22.4169  -20.0310  -11.4177 C   0  0  0  0  0  0  0  0  0  0  0  0
   23.7305  -20.0189  -11.0172 C   0  0  0  0  0  0  0  0  0  0  0  0
   26.2876  -21.9157  -11.2693 C   0  0  0  0  0  0  0  0  0  0  0  0
   26.4035  -22.1091   -9.9084 O   0  0  0  0  0  0  0  0  0  0  0  0
   25.6806  -22.7719  -11.9446 O   0  0  0  0  0  0  0  0  0  0  0  0
  2  1  1  6
  3  4  1  0
  3  2  1  0
  4  5  2  0
  5  6  1  0
  7  6  1  0
  8  4  1  0
  8  7  2  0
  9  2  1  0
  9 10  2  0
 11  9  1  0
 12 11  1  0
 12 13  1  6
 14 13  1  0
 14 15  1  0
 15 16  1  0
 17 16  1  0
 18 12  1  0
 19 18  2  0
 20 18  1  0
 21 29  1  0
 21 20  1  0
 22 23  1  0
 21 22  1  1
 23 28  1  0
 24 23  2  0
 24 25  1  0
 25 26  2  0
 26 27  1  0
 28 27  2  0
 29 30  1  0
 31 29  2  0
M  END
$$$$
