HKF.pdb
     RDKit          3D

 31 32  0  0  1  0  0  0  0  0999 V2000
   19.3633  -16.5873  -19.3858 N   0  0  0  0  0  0  0  0  0  0  0  0
   20.4824  -16.0333  -18.5612 C   0  0  1  0  0  0  0  0  0  0  0  0
   19.7670  -15.1959  -17.5267 C   0  0  0  0  0  0  0  0  0  0  0  0
   19.3031  -13.8782  -17.9772 C   0  0  0  0  0  0  0  0  0  0  0  0
   17.9830  -13.5260  -18.2687 C   0  0  0  0  0  0  0  0  0  0  0  0
   17.9669  -12.2434  -18.6448 N   0  0  0  0  0  0  0  0  0  0  0  0
   19.2342  -11.7633  -18.6033 C   0  0  0  0  0  0  0  0  0  0  0  0
   20.0201  -12.7712  -18.1972 N   0  0  0  0  0  0  0  0  0  0  0  0
   21.0533  -17.2166  -17.8996 C   0  0  0  0  0  0  0  0  0  0  0  0
   20.2323  -18.1222  -17.5185 O   0  0  0  0  0  0  0  0  0  0  0  0
   22.4521  -17.4330  -17.6542 N   0  0  0  0  0  0  0  0  0  0  0  0
   22.8499  -18.6197  -16.9525 C   0  0  1  0  0  0  0  0  0  0  0  0
   24.2460  -19.0458  -17.1475 C   0  0  0  0  0  0  0  0  0  0  0  0
   24.8549  -20.1352  -16.3935 C   0  0  0  0  0  0  0  0  0  0  0  0
   24.9201  -21.4949  -17.0293 C   0  0  0  0  0  0  0  0  0  0  0  0
   25.7203  -22.4515  -16.1023 C   0  0  0  0  0  0  0  0  0  0  0  0
   25.8249  -23.7592  -16.6880 N   0  0  0  0  0  0  0  0  0  0  0  0
   22.4287  -18.5827  -15.5206 C   0  0  0  0  0  0  0  0  0  0  0  0
   22.6825  -17.6001  -14.7882 O   0  0  0  0  0  0  0  0  0  0  0  0
   21.7268  -19.6588  -14.9406 N   0  0  0  0  0  0  0  0  0  0  0  0
   21.4363  -19.6292  -13.4978 C   0  0  1  0  0  0  0  0  0  0  0  0
   20.0002  -20.0001  -13.2552 C   0  0  0  0  0  0  0  0  0  0  0  0
   19.7106  -20.0249  -11.8162 C   0  0  0  0  0  0  0  0  0  0  0  0
   19.4943  -21.2434  -11.1582 C   0  0  0  0  0  0  0  0  0  0  0  0
   19.2448  -21.3111   -9.8129 C   0  0  0  0  0  0  0  0  0  0  0  0
   19.1949  -20.1751   -9.0408 C   0  0  0  0  0  0  0  0  0  0  0  0
   19.4021  -18.9632   -9.6502 C   0  0  0  0  0  0  0  0  0  0  0  0
   19.6520  -18.9032  -10.9993 C   0  0  0  0  0  0  0  0  0  0  0  0
   22.3188  -20.6151  -12.8633 C   0  0  0  0  0  0  0  0  0  0  0  0
   22.7841  -20.4201  -11.5795 O   0  0  0  0  0  0  0  0  0  0  0  0
   22.6644  -21.6475  -13.4734 O   0  0  0  0  0  0  0  0  0  0  0  0
  2  1  1  6
  3  4  1  0
  3  2  1  0
  4  5  2  0
  5  6  1  0
  7  6  1  0
  8  4  1  0
  8  7  2  0
  9  2  1  0
  9 10  2  0
 11  9  1  0
 12 11  1  0
 12 13  1  1
 14 13  1  0
 14 15  1  0
 15 16  1  0
 17 16  1  0
 18 12  1  0
 19 18  2  0
 20 18  1  0
 21 29  1  0
 21 20  1  0
 22 23  1  0
 21 22  1  6
 23 28  1  0
 24 23  2  0
 24 25  1  0
 25 26  2  0
 26 27  1  0
 28 27  2  0
 29 30  1  0
 31 29  2  0
M  END
$$$$
