HKF.pdb
     RDKit          3D

 31 32  0  0  1  0  0  0  0  0999 V2000
   25.5061  -19.5016  -16.4479 N   0  0  0  0  0  0  0  0  0  0  0  0
   25.6089  -18.8135  -15.1230 C   0  0  1  0  0  0  0  0  0  0  0  0
   24.1712  -18.7284  -14.6659 C   0  0  0  0  0  0  0  0  0  0  0  0
   23.3305  -17.7535  -15.3712 C   0  0  0  0  0  0  0  0  0  0  0  0
   23.7343  -16.9271  -16.4226 C   0  0  0  0  0  0  0  0  0  0  0  0
   22.6872  -16.1843  -16.7951 N   0  0  0  0  0  0  0  0  0  0  0  0
   21.6262  -16.5088  -16.0157 C   0  0  0  0  0  0  0  0  0  0  0  0
   22.0428  -17.4583  -15.1653 N   0  0  0  0  0  0  0  0  0  0  0  0
   26.3183  -19.7838  -14.2749 C   0  0  0  0  0  0  0  0  0  0  0  0
   25.8019  -20.9507  -14.1698 O   0  0  0  0  0  0  0  0  0  0  0  0
   27.5395  -19.5242  -13.5644 N   0  0  0  0  0  0  0  0  0  0  0  0
   27.9699  -20.4675  -12.5726 C   0  0  1  0  0  0  0  0  0  0  0  0
   29.4260  -20.6434  -12.4399 C   0  0  0  0  0  0  0  0  0  0  0  0
   30.0270  -21.6553  -11.5792 C   0  0  0  0  0  0  0  0  0  0  0  0
   31.5255  -21.7220  -11.4939 C   0  0  0  0  0  0  0  0  0  0  0  0
   31.9282  -22.8318  -10.4835 C   0  0  0  0  0  0  0  0  0  0  0  0
   33.3501  -23.0369  -10.4918 N   0  0  0  0  0  0  0  0  0  0  0  0
   27.2701  -20.2587  -11.2704 C   0  0  0  0  0  0  0  0  0  0  0  0
   27.9042  -20.1296  -10.1991 O   0  0  0  0  0  0  0  0  0  0  0  0
   25.8634  -20.1993  -11.2017 N   0  0  0  0  0  0  0  0  0  0  0  0
   25.1821  -20.7298  -10.0095 C   0  0  1  0  0  0  0  0  0  0  0  0
   25.1776  -19.6965   -8.9180 C   0  0  0  0  0  0  0  0  0  0  0  0
   26.3692  -19.8357   -8.0719 C   0  0  0  0  0  0  0  0  0  0  0  0
   26.9052  -18.7198   -7.4146 C   0  0  0  0  0  0  0  0  0  0  0  0
   28.0012  -18.8119   -6.5979 C   0  0  0  0  0  0  0  0  0  0  0  0
   28.6303  -20.0152   -6.3848 C   0  0  0  0  0  0  0  0  0  0  0  0
   28.1336  -21.1303   -7.0116 C   0  0  0  0  0  0  0  0  0  0  0  0
   27.0344  -21.0304   -7.8287 C   0  0  0  0  0  0  0  0  0  0  0  0
   23.8040  -21.0399  -10.4067 C   0  0  0  0  0  0  0  0  0  0  0  0
   22.9174  -21.5880   -9.5032 O   0  0  0  0  0  0  0  0  0  0  0  0
   23.4090  -20.8137  -11.5687 O   0  0  0  0  0  0  0  0  0  0  0  0
  2  1  1  6
  3  4  1  0
  3  2  1  0
  4  5  2  0
  5  6  1  0
  7  6  1  0
  8  4  1  0
  8  7  2  0
  9  2  1  0
  9 10  2  0
 11  9  1  0
 12 11  1  0
 12 13  1  1
 14 13  1  0
 14 15  1  0
 15 16  1  0
 17 16  1  0
 18 12  1  0
 19 18  2  0
 20 18  1  0
 21 29  1  0
 21 20  1  0
 22 23  1  0
 21 22  1  1
 23 28  1  0
 24 23  2  0
 24 25  1  0
 25 26  2  0
 26 27  1  0
 28 27  2  0
 29 30  1  0
 31 29  2  0
M  END
$$$$
