HKF.pdb
     RDKit          3D

 31 32  0  0  1  0  0  0  0  0999 V2000
   21.9052  -21.5431  -14.1212 N   0  0  0  0  0  0  0  0  0  0  0  0
   22.0452  -20.5379  -13.0215 C   0  0  1  0  0  0  0  0  0  0  0  0
   20.9216  -20.8997  -12.0782 C   0  0  0  0  0  0  0  0  0  0  0  0
   19.5760  -20.4873  -12.4953 C   0  0  0  0  0  0  0  0  0  0  0  0
   18.4409  -21.3007  -12.5335 C   0  0  0  0  0  0  0  0  0  0  0  0
   17.4135  -20.5631  -12.9661 N   0  0  0  0  0  0  0  0  0  0  0  0
   17.8546  -19.3036  -13.2060 C   0  0  0  0  0  0  0  0  0  0  0  0
   19.1632  -19.2862  -12.9135 N   0  0  0  0  0  0  0  0  0  0  0  0
   23.3261  -20.8846  -12.3866 C   0  0  0  0  0  0  0  0  0  0  0  0
   23.3571  -21.9576  -11.6886 O   0  0  0  0  0  0  0  0  0  0  0  0
   24.5364  -20.1182  -12.4930 N   0  0  0  0  0  0  0  0  0  0  0  0
   25.7334  -20.6403  -11.8985 C   0  0  1  0  0  0  0  0  0  0  0  0
   26.9782  -20.4149  -12.6525 C   0  0  0  0  0  0  0  0  0  0  0  0
   27.1541  -20.8377  -14.0367 C   0  0  0  0  0  0  0  0  0  0  0  0
   28.4086  -20.4280  -14.7549 C   0  0  0  0  0  0  0  0  0  0  0  0
   28.3638  -20.9751  -16.2086 C   0  0  0  0  0  0  0  0  0  0  0  0
   29.5929  -20.6935  -16.8971 N   0  0  0  0  0  0  0  0  0  0  0  0
   25.8347  -20.2817  -10.4528 C   0  0  0  0  0  0  0  0  0  0  0  0
   25.2242  -19.2981   -9.9774 O   0  0  0  0  0  0  0  0  0  0  0  0
   26.6256  -21.0426   -9.5682 N   0  0  0  0  0  0  0  0  0  0  0  0
   26.8865  -20.5242   -8.2153 C   0  0  1  0  0  0  0  0  0  0  0  0
   27.7917  -21.4649   -7.4704 C   0  0  0  0  0  0  0  0  0  0  0  0
   28.2211  -20.8685   -6.1996 C   0  0  0  0  0  0  0  0  0  0  0  0
   29.4226  -20.1507   -6.1244 C   0  0  0  0  0  0  0  0  0  0  0  0
   29.8469  -19.5592   -4.9639 C   0  0  0  0  0  0  0  0  0  0  0  0
   29.1053  -19.6444   -3.8098 C   0  0  0  0  0  0  0  0  0  0  0  0
   27.9224  -20.3391   -3.8450 C   0  0  0  0  0  0  0  0  0  0  0  0
   27.5035  -20.9293   -5.0121 C   0  0  0  0  0  0  0  0  0  0  0  0
   27.5449  -19.2226   -8.3754 C   0  0  0  0  0  0  0  0  0  0  0  0
   27.1661  -18.1427   -7.6052 O   0  0  0  0  0  0  0  0  0  0  0  0
   28.4591  -19.0689   -9.2108 O   0  0  0  0  0  0  0  0  0  0  0  0
  2  1  1  6
  3  4  1  0
  3  2  1  0
  4  5  2  0
  5  6  1  0
  7  6  1  0
  8  4  1  0
  8  7  2  0
  9  2  1  0
  9 10  2  0
 11  9  1  0
 12 11  1  0
 12 13  1  6
 14 13  1  0
 14 15  1  0
 15 16  1  0
 17 16  1  0
 18 12  1  0
 19 18  2  0
 20 18  1  0
 21 29  1  0
 21 20  1  0
 22 23  1  0
 21 22  1  1
 23 28  1  0
 24 23  2  0
 24 25  1  0
 25 26  2  0
 26 27  1  0
 28 27  2  0
 29 30  1  0
 31 29  2  0
M  END
$$$$
