HKF.pdb
     RDKit          3D

 31 32  0  0  1  0  0  0  0  0999 V2000
   14.4930  -13.2937  -14.4667 N   0  0  0  0  0  0  0  0  0  0  0  0
   14.5578  -11.9702  -15.1619 C   0  0  1  0  0  0  0  0  0  0  0  0
   13.8063  -11.0518  -14.2265 C   0  0  0  0  0  0  0  0  0  0  0  0
   12.3436  -11.1728  -14.2466 C   0  0  0  0  0  0  0  0  0  0  0  0
   11.5153  -11.3280  -13.1324 C   0  0  0  0  0  0  0  0  0  0  0  0
   10.2508  -11.4009  -13.5596 N   0  0  0  0  0  0  0  0  0  0  0  0
   10.2431  -11.2974  -14.9115 C   0  0  0  0  0  0  0  0  0  0  0  0
   11.5195  -11.1607  -15.2995 N   0  0  0  0  0  0  0  0  0  0  0  0
   15.9860  -11.6199  -15.1227 C   0  0  0  0  0  0  0  0  0  0  0  0
   16.6448  -11.9813  -14.0860 O   0  0  0  0  0  0  0  0  0  0  0  0
   16.6927  -10.9117  -16.1535 N   0  0  0  0  0  0  0  0  0  0  0  0
   18.1112  -10.7416  -16.0201 C   0  0  1  0  0  0  0  0  0  0  0  0
   18.9422  -11.4807  -16.9855 C   0  0  0  0  0  0  0  0  0  0  0  0
   18.8901  -12.9307  -17.1294 C   0  0  0  0  0  0  0  0  0  0  0  0
   19.8382  -13.7640  -16.3144 C   0  0  0  0  0  0  0  0  0  0  0  0
   19.5445  -15.2677  -16.5732 C   0  0  0  0  0  0  0  0  0  0  0  0
   20.4446  -16.0991  -15.8231 N   0  0  0  0  0  0  0  0  0  0  0  0
   18.4853   -9.3026  -15.8851 C   0  0  0  0  0  0  0  0  0  0  0  0
   17.8475   -8.4017  -16.4748 O   0  0  0  0  0  0  0  0  0  0  0  0
   19.5757   -8.9064  -15.0844 N   0  0  0  0  0  0  0  0  0  0  0  0
   20.0060   -7.4988  -15.1071 C   0  0  1  0  0  0  0  0  0  0  0  0
   20.8676   -7.2056  -13.9110 C   0  0  0  0  0  0  0  0  0  0  0  0
   21.3889   -5.8348  -13.9752 C   0  0  0  0  0  0  0  0  0  0  0  0
   22.6973   -5.5946  -14.4167 C   0  0  0  0  0  0  0  0  0  0  0  0
   23.2132   -4.3292  -14.5135 C   0  0  0  0  0  0  0  0  0  0  0  0
   22.4626   -3.2276  -14.1785 C   0  0  0  0  0  0  0  0  0  0  0  0
   21.1764   -3.4234  -13.7421 C   0  0  0  0  0  0  0  0  0  0  0  0
   20.6660   -4.6949  -13.6479 C   0  0  0  0  0  0  0  0  0  0  0  0
   20.7820   -7.3083  -16.3379 C   0  0  0  0  0  0  0  0  0  0  0  0
   20.6754   -6.1402  -17.0637 O   0  0  0  0  0  0  0  0  0  0  0  0
   21.5523   -8.1994  -16.7504 O   0  0  0  0  0  0  0  0  0  0  0  0
  2  1  1  1
  3  4  1  0
  3  2  1  0
  4  5  2  0
  5  6  1  0
  7  6  1  0
  8  4  1  0
  8  7  2  0
  9  2  1  0
  9 10  2  0
 11  9  1  0
 12 11  1  0
 12 13  1  6
 14 13  1  0
 14 15  1  0
 15 16  1  0
 17 16  1  0
 18 12  1  0
 19 18  2  0
 20 18  1  0
 21 29  1  0
 21 20  1  0
 22 23  1  0
 21 22  1  1
 23 28  1  0
 24 23  2  0
 24 25  1  0
 25 26  2  0
 26 27  1  0
 28 27  2  0
 29 30  1  0
 31 29  2  0
M  END
$$$$
