HKF.pdb
     RDKit          3D

 31 32  0  0  1  0  0  0  0  0999 V2000
   23.6652  -19.0262  -15.6345 N   0  0  0  0  0  0  0  0  0  0  0  0
   24.7174  -18.4187  -14.7608 C   0  0  1  0  0  0  0  0  0  0  0  0
   24.1220  -17.0826  -14.3819 C   0  0  0  0  0  0  0  0  0  0  0  0
   24.0947  -16.0684  -15.4426 C   0  0  0  0  0  0  0  0  0  0  0  0
   22.9507  -15.5154  -16.0232 C   0  0  0  0  0  0  0  0  0  0  0  0
   23.3380  -14.6308  -16.9475 N   0  0  0  0  0  0  0  0  0  0  0  0
   24.6932  -14.5998  -16.9771 C   0  0  0  0  0  0  0  0  0  0  0  0
   25.1237  -15.4772  -16.0588 N   0  0  0  0  0  0  0  0  0  0  0  0
   24.7323  -19.2843  -13.5715 C   0  0  0  0  0  0  0  0  0  0  0  0
   23.7335  -19.1956  -12.7755 O   0  0  0  0  0  0  0  0  0  0  0  0
   25.7732  -20.2174  -13.2406 N   0  0  0  0  0  0  0  0  0  0  0  0
   25.6213  -21.0260  -12.0650 C   0  0  1  0  0  0  0  0  0  0  0  0
   25.7365  -22.4805  -12.2644 C   0  0  0  0  0  0  0  0  0  0  0  0
   24.6684  -23.2887  -12.8405 C   0  0  0  0  0  0  0  0  0  0  0  0
   24.6811  -23.5381  -14.3221 C   0  0  0  0  0  0  0  0  0  0  0  0
   23.4731  -24.4411  -14.6958 C   0  0  0  0  0  0  0  0  0  0  0  0
   23.7339  -25.8106  -14.3484 N   0  0  0  0  0  0  0  0  0  0  0  0
   26.4410  -20.5097  -10.9290 C   0  0  0  0  0  0  0  0  0  0  0  0
   27.6722  -20.3170  -11.0439 O   0  0  0  0  0  0  0  0  0  0  0  0
   25.8537  -20.2196   -9.6808 N   0  0  0  0  0  0  0  0  0  0  0  0
   26.6505  -20.3987   -8.4561 C   0  0  1  0  0  0  0  0  0  0  0  0
   27.2283  -19.0809   -8.0219 C   0  0  0  0  0  0  0  0  0  0  0  0
   27.9478  -19.2277   -6.7507 C   0  0  0  0  0  0  0  0  0  0  0  0
   29.1017  -20.0199   -6.6773 C   0  0  0  0  0  0  0  0  0  0  0  0
   29.8147  -20.1636   -5.5164 C   0  0  0  0  0  0  0  0  0  0  0  0
   29.4259  -19.5304   -4.3600 C   0  0  0  0  0  0  0  0  0  0  0  0
   28.3007  -18.7457   -4.3933 C   0  0  0  0  0  0  0  0  0  0  0  0
   27.5911  -18.6063   -5.5609 C   0  0  0  0  0  0  0  0  0  0  0  0
   25.7400  -20.9070   -7.4237 C   0  0  0  0  0  0  0  0  0  0  0  0
   26.2326  -21.5222   -6.2915 O   0  0  0  0  0  0  0  0  0  0  0  0
   24.5039  -20.7922   -7.5509 O   0  0  0  0  0  0  0  0  0  0  0  0
  2  1  1  6
  3  4  1  0
  3  2  1  0
  4  5  2  0
  5  6  1  0
  7  6  1  0
  8  4  1  0
  8  7  2  0
  9  2  1  0
  9 10  2  0
 11  9  1  0
 12 11  1  0
 12 13  1  6
 14 13  1  0
 14 15  1  0
 15 16  1  0
 17 16  1  0
 18 12  1  0
 19 18  2  0
 20 18  1  0
 21 29  1  0
 21 20  1  0
 22 23  1  0
 21 22  1  1
 23 28  1  0
 24 23  2  0
 24 25  1  0
 25 26  2  0
 26 27  1  0
 28 27  2  0
 29 30  1  0
 31 29  2  0
M  END
$$$$
