HKF.pdb
     RDKit          3D

 31 32  0  0  1  0  0  0  0  0999 V2000
   32.9332  -30.0670  -18.5671 N   0  0  0  0  0  0  0  0  0  0  0  0
   32.0419  -29.6455  -19.6928 C   0  0  1  0  0  0  0  0  0  0  0  0
   31.1476  -30.8469  -19.8933 C   0  0  0  0  0  0  0  0  0  0  0  0
   31.7024  -31.9297  -20.7145 C   0  0  0  0  0  0  0  0  0  0  0  0
   31.1898  -32.3847  -21.9317 C   0  0  0  0  0  0  0  0  0  0  0  0
   31.9705  -33.3782  -22.3678 N   0  0  0  0  0  0  0  0  0  0  0  0
   32.9664  -33.5737  -21.4688 C   0  0  0  0  0  0  0  0  0  0  0  0
   32.7802  -32.6859  -20.4811 N   0  0  0  0  0  0  0  0  0  0  0  0
   31.2428  -28.5511  -19.1204 C   0  0  0  0  0  0  0  0  0  0  0  0
   30.8642  -28.6825  -17.9044 O   0  0  0  0  0  0  0  0  0  0  0  0
   30.8616  -27.3536  -19.8161 N   0  0  0  0  0  0  0  0  0  0  0  0
   30.1075  -26.3593  -19.1079 C   0  0  1  0  0  0  0  0  0  0  0  0
   30.0891  -25.0153  -19.7094 C   0  0  0  0  0  0  0  0  0  0  0  0
   29.3181  -23.9090  -19.1545 C   0  0  0  0  0  0  0  0  0  0  0  0
   29.7591  -23.3163  -17.8462 C   0  0  0  0  0  0  0  0  0  0  0  0
   28.7200  -22.2532  -17.3940 C   0  0  0  0  0  0  0  0  0  0  0  0
   29.1362  -21.6212  -16.1727 N   0  0  0  0  0  0  0  0  0  0  0  0
   28.7558  -26.8618  -18.7214 C   0  0  0  0  0  0  0  0  0  0  0  0
   28.0505  -27.5227  -19.5165 O   0  0  0  0  0  0  0  0  0  0  0  0
   28.2240  -26.6082  -17.4408 N   0  0  0  0  0  0  0  0  0  0  0  0
   26.8676  -27.0832  -17.1223 C   0  0  1  0  0  0  0  0  0  0  0  0
   26.6402  -27.0302  -15.6375 C   0  0  0  0  0  0  0  0  0  0  0  0
   25.2825  -27.4809  -15.3079 C   0  0  0  0  0  0  0  0  0  0  0  0
   24.3140  -26.5604  -14.8846 C   0  0  0  0  0  0  0  0  0  0  0  0
   23.0300  -26.9367  -14.5903 C   0  0  0  0  0  0  0  0  0  0  0  0
   22.6306  -28.2474  -14.6984 C   0  0  0  0  0  0  0  0  0  0  0  0
   23.5516  -29.1776  -15.1103 C   0  0  0  0  0  0  0  0  0  0  0  0
   24.8368  -28.7928  -15.4038 C   0  0  0  0  0  0  0  0  0  0  0  0
   25.9285  -26.1835  -17.8018 C   0  0  0  0  0  0  0  0  0  0  0  0
   26.2012  -24.8360  -17.9147 O   0  0  0  0  0  0  0  0  0  0  0  0
   24.8663  -26.6207  -18.2897 O   0  0  0  0  0  0  0  0  0  0  0  0
  2  1  1  1
  3  4  1  0
  3  2  1  0
  4  5  2  0
  5  6  1  0
  7  6  1  0
  8  4  1  0
  8  7  2  0
  9  2  1  0
  9 10  2  0
 11  9  1  0
 12 11  1  0
 12 13  1  6
 14 13  1  0
 14 15  1  0
 15 16  1  0
 17 16  1  0
 18 12  1  0
 19 18  2  0
 20 18  1  0
 21 29  1  0
 21 20  1  0
 22 23  1  0
 21 22  1  1
 23 28  1  0
 24 23  2  0
 24 25  1  0
 25 26  2  0
 26 27  1  0
 28 27  2  0
 29 30  1  0
 31 29  2  0
M  END
$$$$
