HKF.pdb
     RDKit          3D

 31 32  0  0  1  0  0  0  0  0999 V2000
   34.3993  -35.5103   -4.8873 N   0  0  0  0  0  0  0  0  0  0  0  0
   33.3337  -36.3751   -5.4836 C   0  0  1  0  0  0  0  0  0  0  0  0
   33.3768  -37.6176   -4.6247 C   0  0  0  0  0  0  0  0  0  0  0  0
   34.3068  -38.6665   -5.0601 C   0  0  0  0  0  0  0  0  0  0  0  0
   35.0481  -38.6692   -6.2441 C   0  0  0  0  0  0  0  0  0  0  0  0
   35.7740  -39.7911   -6.2792 N   0  0  0  0  0  0  0  0  0  0  0  0
   35.5211  -40.5065   -5.1554 C   0  0  0  0  0  0  0  0  0  0  0  0
   34.6322  -39.8043   -4.4378 N   0  0  0  0  0  0  0  0  0  0  0  0
   32.0874  -35.6469   -5.1999 C   0  0  0  0  0  0  0  0  0  0  0  0
   32.0240  -35.0145   -4.0885 O   0  0  0  0  0  0  0  0  0  0  0  0
   30.9466  -35.5888   -6.0709 N   0  0  0  0  0  0  0  0  0  0  0  0
   29.7971  -34.8421   -5.6468 C   0  0  1  0  0  0  0  0  0  0  0  0
   28.9277  -34.3329   -6.7208 C   0  0  0  0  0  0  0  0  0  0  0  0
   27.7523  -33.5086   -6.4655 C   0  0  0  0  0  0  0  0  0  0  0  0
   26.8981  -33.1015   -7.6324 C   0  0  0  0  0  0  0  0  0  0  0  0
   25.6416  -32.3539   -7.1062 C   0  0  0  0  0  0  0  0  0  0  0  0
   24.8542  -31.8502   -8.1972 N   0  0  0  0  0  0  0  0  0  0  0  0
   29.0554  -35.5409   -4.5557 C   0  0  0  0  0  0  0  0  0  0  0  0
   28.5912  -36.6926   -4.7123 O   0  0  0  0  0  0  0  0  0  0  0  0
   28.8511  -34.9248   -3.3044 N   0  0  0  0  0  0  0  0  0  0  0  0
   28.0646  -35.6301   -2.2793 C   0  0  1  0  0  0  0  0  0  0  0  0
   28.8122  -35.6411   -0.9755 C   0  0  0  0  0  0  0  0  0  0  0  0
   29.8743  -36.6542   -0.9991 C   0  0  0  0  0  0  0  0  0  0  0  0
   29.5633  -38.0009   -1.2318 C   0  0  0  0  0  0  0  0  0  0  0  0
   30.5273  -38.9729   -1.2851 C   0  0  0  0  0  0  0  0  0  0  0  0
   31.8559  -38.6672   -1.1108 C   0  0  0  0  0  0  0  0  0  0  0  0
   32.1989  -37.3585   -0.8810 C   0  0  0  0  0  0  0  0  0  0  0  0
   31.2271  -36.3896   -0.8292 C   0  0  0  0  0  0  0  0  0  0  0  0
   26.8050  -34.8935   -2.1244 C   0  0  0  0  0  0  0  0  0  0  0  0
   26.5302  -33.7951   -2.9124 O   0  0  0  0  0  0  0  0  0  0  0  0
   25.9596  -35.2470   -1.2771 O   0  0  0  0  0  0  0  0  0  0  0  0
  2  1  1  1
  3  4  1  0
  3  2  1  0
  4  5  2  0
  5  6  1  0
  7  6  1  0
  8  4  1  0
  8  7  2  0
  9  2  1  0
  9 10  2  0
 11  9  1  0
 12 11  1  0
 12 13  1  6
 14 13  1  0
 14 15  1  0
 15 16  1  0
 17 16  1  0
 18 12  1  0
 19 18  2  0
 20 18  1  0
 21 29  1  0
 21 20  1  0
 22 23  1  0
 21 22  1  1
 23 28  1  0
 24 23  2  0
 24 25  1  0
 25 26  2  0
 26 27  1  0
 28 27  2  0
 29 30  1  0
 31 29  2  0
M  END
$$$$
