HKF.pdb
     RDKit          3D

 31 32  0  0  1  0  0  0  0  0999 V2000
   21.5011  -21.5766  -13.9391 N   0  0  0  0  0  0  0  0  0  0  0  0
   22.1020  -20.3793  -13.2719 C   0  0  1  0  0  0  0  0  0  0  0  0
   21.0555  -19.9903  -12.2537 C   0  0  0  0  0  0  0  0  0  0  0  0
   19.9742  -19.1266  -12.7429 C   0  0  0  0  0  0  0  0  0  0  0  0
   18.6077  -19.3127  -12.5201 C   0  0  0  0  0  0  0  0  0  0  0  0
   17.9475  -18.3202  -13.1249 N   0  0  0  0  0  0  0  0  0  0  0  0
   18.8476  -17.5047  -13.7276 C   0  0  0  0  0  0  0  0  0  0  0  0
   20.0629  -18.0151  -13.4809 N   0  0  0  0  0  0  0  0  0  0  0  0
   23.2730  -20.9195  -12.5643 C   0  0  0  0  0  0  0  0  0  0  0  0
   23.1124  -22.0205  -11.9307 O   0  0  0  0  0  0  0  0  0  0  0  0
   24.5742  -20.3117  -12.5339 N   0  0  0  0  0  0  0  0  0  0  0  0
   25.6255  -20.9767  -11.8188 C   0  0  1  0  0  0  0  0  0  0  0  0
   26.8627  -21.2264  -12.5774 C   0  0  0  0  0  0  0  0  0  0  0  0
   27.1333  -20.6187  -13.8748 C   0  0  0  0  0  0  0  0  0  0  0  0
   28.3796  -19.7944  -14.0317 C   0  0  0  0  0  0  0  0  0  0  0  0
   28.4658  -19.2766  -15.4941 C   0  0  0  0  0  0  0  0  0  0  0  0
   28.2993  -20.3560  -16.4275 N   0  0  0  0  0  0  0  0  0  0  0  0
   25.8577  -20.3613  -10.4785 C   0  0  0  0  0  0  0  0  0  0  0  0
   25.6048  -19.1555  -10.2585 O   0  0  0  0  0  0  0  0  0  0  0  0
   26.3727  -21.1208   -9.4085 N   0  0  0  0  0  0  0  0  0  0  0  0
   26.8061  -20.4292   -8.1834 C   0  0  1  0  0  0  0  0  0  0  0  0
   27.3491  -21.4243   -7.1965 C   0  0  0  0  0  0  0  0  0  0  0  0
   27.8613  -20.7394   -6.0033 C   0  0  0  0  0  0  0  0  0  0  0  0
   27.0303  -20.5334   -4.8935 C   0  0  0  0  0  0  0  0  0  0  0  0
   27.4765  -19.9200   -3.7527 C   0  0  0  0  0  0  0  0  0  0  0  0
   28.7724  -19.4748   -3.6448 C   0  0  0  0  0  0  0  0  0  0  0  0
   29.6158  -19.6593   -4.7114 C   0  0  0  0  0  0  0  0  0  0  0  0
   29.1615  -20.2752   -5.8517 C   0  0  0  0  0  0  0  0  0  0  0  0
   27.8626  -19.4887   -8.5739 C   0  0  0  0  0  0  0  0  0  0  0  0
   27.9072  -18.2182   -8.0385 O   0  0  0  0  0  0  0  0  0  0  0  0
   28.7397  -19.8208   -9.3973 O   0  0  0  0  0  0  0  0  0  0  0  0
  2  1  1  6
  3  4  1  0
  3  2  1  0
  4  5  2  0
  5  6  1  0
  7  6  1  0
  8  4  1  0
  8  7  2  0
  9  2  1  0
  9 10  2  0
 11  9  1  0
 12 11  1  0
 12 13  1  6
 14 13  1  0
 14 15  1  0
 15 16  1  0
 17 16  1  0
 18 12  1  0
 19 18  2  0
 20 18  1  0
 21 29  1  0
 21 20  1  0
 22 23  1  0
 21 22  1  1
 23 28  1  0
 24 23  2  0
 24 25  1  0
 25 26  2  0
 26 27  1  0
 28 27  2  0
 29 30  1  0
 31 29  2  0
M  END
$$$$
