HKF.pdb
     RDKit          3D

 31 32  0  0  1  0  0  0  0  0999 V2000
   26.7143  -23.0580  -16.7990 N   0  0  0  0  0  0  0  0  0  0  0  0
   26.0056  -23.5492  -15.5759 C   0  0  1  0  0  0  0  0  0  0  0  0
   26.8592  -24.7120  -15.1261 C   0  0  0  0  0  0  0  0  0  0  0  0
   26.5602  -26.0066  -15.7500 C   0  0  0  0  0  0  0  0  0  0  0  0
   27.4678  -27.0471  -15.9620 C   0  0  0  0  0  0  0  0  0  0  0  0
   26.8172  -28.0544  -16.5527 N   0  0  0  0  0  0  0  0  0  0  0  0
   25.5222  -27.6918  -16.7257 C   0  0  0  0  0  0  0  0  0  0  0  0
   25.3951  -26.4514  -16.2323 N   0  0  0  0  0  0  0  0  0  0  0  0
   26.1596  -22.4486  -14.6122 C   0  0  0  0  0  0  0  0  0  0  0  0
   27.2481  -21.7768  -14.6662 O   0  0  0  0  0  0  0  0  0  0  0  0
   25.1865  -22.0710  -13.6252 N   0  0  0  0  0  0  0  0  0  0  0  0
   25.3831  -20.8482  -12.9007 C   0  0  1  0  0  0  0  0  0  0  0  0
   24.3728  -19.7996  -13.1207 C   0  0  0  0  0  0  0  0  0  0  0  0
   24.3355  -18.9744  -14.3223 C   0  0  0  0  0  0  0  0  0  0  0  0
   25.2612  -17.7941  -14.4072 C   0  0  0  0  0  0  0  0  0  0  0  0
   25.8588  -17.7190  -15.8396 C   0  0  0  0  0  0  0  0  0  0  0  0
   26.7744  -16.6176  -15.9526 N   0  0  0  0  0  0  0  0  0  0  0  0
   25.6810  -21.1009  -11.4598 C   0  0  0  0  0  0  0  0  0  0  0  0
   25.1408  -22.0406  -10.8341 O   0  0  0  0  0  0  0  0  0  0  0  0
   26.5858  -20.2857  -10.7500 N   0  0  0  0  0  0  0  0  0  0  0  0
   26.8106  -20.5442   -9.3184 C   0  0  1  0  0  0  0  0  0  0  0  0
   27.9208  -19.6698   -8.8066 C   0  0  0  0  0  0  0  0  0  0  0  0
   28.1573  -19.9199   -7.3795 C   0  0  0  0  0  0  0  0  0  0  0  0
   27.5694  -19.0967   -6.4093 C   0  0  0  0  0  0  0  0  0  0  0  0
   27.7459  -19.3105   -5.0677 C   0  0  0  0  0  0  0  0  0  0  0  0
   28.5155  -20.3529   -4.6090 C   0  0  0  0  0  0  0  0  0  0  0  0
   29.1072  -21.1807   -5.5296 C   0  0  0  0  0  0  0  0  0  0  0  0
   28.9255  -20.9602   -6.8729 C   0  0  0  0  0  0  0  0  0  0  0  0
   25.5601  -20.2185   -8.6231 C   0  0  0  0  0  0  0  0  0  0  0  0
   25.1465  -20.9581   -7.5347 O   0  0  0  0  0  0  0  0  0  0  0  0
   24.8482  -19.2667   -9.0037 O   0  0  0  0  0  0  0  0  0  0  0  0
  2  1  1  6
  3  4  1  0
  3  2  1  0
  4  5  2  0
  5  6  1  0
  7  6  1  0
  8  4  1  0
  8  7  2  0
  9  2  1  0
  9 10  2  0
 11  9  1  0
 12 11  1  0
 12 13  1  1
 14 13  1  0
 14 15  1  0
 15 16  1  0
 17 16  1  0
 18 12  1  0
 19 18  2  0
 20 18  1  0
 21 29  1  0
 21 20  1  0
 22 23  1  0
 21 22  1  1
 23 28  1  0
 24 23  2  0
 24 25  1  0
 25 26  2  0
 26 27  1  0
 28 27  2  0
 29 30  1  0
 31 29  2  0
M  END
$$$$
