HKF.pdb
     RDKit          3D

 31 32  0  0  1  0  0  0  0  0999 V2000
   27.8016  -25.2289  -17.7422 N   0  0  0  0  0  0  0  0  0  0  0  0
   26.6230  -25.4583  -16.8491 C   0  0  1  0  0  0  0  0  0  0  0  0
   27.1782  -26.3580  -15.7694 C   0  0  0  0  0  0  0  0  0  0  0  0
   27.0732  -27.8005  -16.0197 C   0  0  0  0  0  0  0  0  0  0  0  0
   28.1274  -28.7171  -16.0046 C   0  0  0  0  0  0  0  0  0  0  0  0
   27.6313  -29.9279  -16.2779 N   0  0  0  0  0  0  0  0  0  0  0  0
   26.2934  -29.8157  -16.4674 C   0  0  0  0  0  0  0  0  0  0  0  0
   25.9837  -28.5210  -16.3056 N   0  0  0  0  0  0  0  0  0  0  0  0
   26.3555  -24.1331  -16.2694 C   0  0  0  0  0  0  0  0  0  0  0  0
   27.3581  -23.3510  -16.1198 O   0  0  0  0  0  0  0  0  0  0  0  0
   25.0635  -23.6524  -15.8653 N   0  0  0  0  0  0  0  0  0  0  0  0
   24.9200  -22.2625  -15.5390 C   0  0  1  0  0  0  0  0  0  0  0  0
   24.0230  -21.4855  -16.4110 C   0  0  0  0  0  0  0  0  0  0  0  0
   23.7169  -20.0786  -16.1811 C   0  0  0  0  0  0  0  0  0  0  0  0
   22.7134  -19.4101  -17.0774 C   0  0  0  0  0  0  0  0  0  0  0  0
   22.6138  -17.9068  -16.6967 C   0  0  0  0  0  0  0  0  0  0  0  0
   21.6316  -17.2402  -17.5061 N   0  0  0  0  0  0  0  0  0  0  0  0
   24.6635  -22.0601  -14.0823 C   0  0  0  0  0  0  0  0  0  0  0  0
   23.8076  -22.7354  -13.4677 O   0  0  0  0  0  0  0  0  0  0  0  0
   25.3802  -21.0964  -13.3443 N   0  0  0  0  0  0  0  0  0  0  0  0
   24.8820  -20.6941  -12.0188 C   0  0  1  0  0  0  0  0  0  0  0  0
   25.8527  -19.7472  -11.3708 C   0  0  0  0  0  0  0  0  0  0  0  0
   26.1048  -20.1404   -9.9790 C   0  0  0  0  0  0  0  0  0  0  0  0
   25.0462  -20.2247   -9.0642 C   0  0  0  0  0  0  0  0  0  0  0  0
   25.2360  -20.6104   -7.7634 C   0  0  0  0  0  0  0  0  0  0  0  0
   26.4860  -20.9352   -7.2930 C   0  0  0  0  0  0  0  0  0  0  0  0
   27.5473  -20.8646   -8.1601 C   0  0  0  0  0  0  0  0  0  0  0  0
   27.3493  -20.4773   -9.4627 C   0  0  0  0  0  0  0  0  0  0  0  0
   23.5962  -20.0199  -12.2316 C   0  0  0  0  0  0  0  0  0  0  0  0
   22.5883  -20.1141  -11.2944 O   0  0  0  0  0  0  0  0  0  0  0  0
   23.3909  -19.3492  -13.2638 O   0  0  0  0  0  0  0  0  0  0  0  0
  2  1  1  6
  3  4  1  0
  3  2  1  0
  4  5  2  0
  5  6  1  0
  7  6  1  0
  8  4  1  0
  8  7  2  0
  9  2  1  0
  9 10  2  0
 11  9  1  0
 12 11  1  0
 12 13  1  6
 14 13  1  0
 14 15  1  0
 15 16  1  0
 17 16  1  0
 18 12  1  0
 19 18  2  0
 20 18  1  0
 21 29  1  0
 21 20  1  0
 22 23  1  0
 21 22  1  6
 23 28  1  0
 24 23  2  0
 24 25  1  0
 25 26  2  0
 26 27  1  0
 28 27  2  0
 29 30  1  0
 31 29  2  0
M  END
$$$$
