TKS.pdb
     RDKit          3D

 23 22  0  0  1  0  0  0  0  0999 V2000
   25.0507  -12.7587  -15.0962 C   0  0  0  0  0  0  0  0  0  0  0  0
   24.2359  -11.5184  -15.3069 C   0  0  1  0  0  0  0  0  0  0  0  0
   24.9695  -10.7142  -16.2028 O   0  0  0  0  0  0  0  0  0  0  0  0
   22.8816  -11.8368  -15.9385 C   0  0  2  0  0  0  0  0  0  0  0  0
   23.1383  -12.4978  -17.2294 N   0  0  0  0  0  0  0  0  0  0  0  0
   22.0608  -10.6309  -16.1456 C   0  0  0  0  0  0  0  0  0  0  0  0
   22.0783  -10.0840  -17.2960 O   0  0  0  0  0  0  0  0  0  0  0  0
   21.2564  -10.0424  -15.1635 N   0  0  0  0  0  0  0  0  0  0  0  0
   20.4373   -8.8561  -15.4237 C   0  0  1  0  0  0  0  0  0  0  0  0
   19.0968   -9.1322  -14.7603 C   0  0  0  0  0  0  0  0  0  0  0  0
   18.2354  -10.0184  -15.6310 C   0  0  0  0  0  0  0  0  0  0  0  0
   16.8934  -10.2841  -14.9913 C   0  0  0  0  0  0  0  0  0  0  0  0
   16.0309  -11.2176  -15.8113 C   0  0  0  0  0  0  0  0  0  0  0  0
   14.8193  -11.5404  -15.0699 N   0  0  0  0  0  0  0  0  0  0  0  0
   21.1079   -7.6961  -14.7962 C   0  0  0  0  0  0  0  0  0  0  0  0
   21.7231   -7.7352  -13.7025 O   0  0  0  0  0  0  0  0  0  0  0  0
   23.3627   -5.3635  -16.7358 O   0  0  0  0  0  0  0  0  0  0  0  0
   22.4759   -4.5274  -16.0600 C   0  0  0  0  0  0  0  0  0  0  0  0
   21.8482   -5.2926  -14.9021 C   0  0  2  0  0  0  0  0  0  0  0  0
   21.0970   -6.3965  -15.4254 N   0  0  0  0  0  0  0  0  0  0  0  0
   21.0261   -4.4014  -14.0493 C   0  0  0  0  0  0  0  0  0  0  0  0
   21.6722   -3.4536  -13.2731 O   0  0  0  0  0  0  0  0  0  0  0  0
   19.7752   -4.4490  -13.9834 O   0  0  0  0  0  0  0  0  0  0  0  0
  2  1  1  6
  2  4  1  0
  3  2  1  0
  4  5  1  6
  6  4  1  0
  6  7  2  0
  8  6  1  0
  9  8  1  0
 10 11  1  0
  9 10  1  1
 11 12  1  0
 12 13  1  0
 13 14  1  0
 15  9  1  0
 16 15  2  0
 17 18  1  0
 19 18  1  6
 19 20  1  0
 19 21  1  0
 20 15  1  0
 21 22  1  0
 23 21  2  0
M  END
$$$$
