TKS.pdb
     RDKit          3D

 23 22  0  0  1  0  0  0  0  0999 V2000
   22.8303  -12.2163  -15.1213 C   0  0  0  0  0  0  0  0  0  0  0  0
   21.8565  -11.3126  -15.8154 C   0  0  1  0  0  0  0  0  0  0  0  0
   22.3341  -11.1586  -17.1328 O   0  0  0  0  0  0  0  0  0  0  0  0
   20.4607  -11.9309  -15.8748 C   0  0  2  0  0  0  0  0  0  0  0  0
   20.5342  -13.1090  -16.7556 N   0  0  0  0  0  0  0  0  0  0  0  0
   19.4490  -10.9870  -16.3811 C   0  0  0  0  0  0  0  0  0  0  0  0
   19.2825  -10.9056  -17.6414 O   0  0  0  0  0  0  0  0  0  0  0  0
   18.6514  -10.1714  -15.5708 N   0  0  0  0  0  0  0  0  0  0  0  0
   17.7477   -9.1583  -16.1209 C   0  0  1  0  0  0  0  0  0  0  0  0
   16.4207   -9.3640  -15.4068 C   0  0  0  0  0  0  0  0  0  0  0  0
   15.3745   -8.4025  -15.9230 C   0  0  0  0  0  0  0  0  0  0  0  0
   14.0724   -8.5481  -15.1719 C   0  0  0  0  0  0  0  0  0  0  0  0
   12.9982   -7.6122  -15.6798 C   0  0  0  0  0  0  0  0  0  0  0  0
   11.8556   -7.6447  -14.7769 N   0  0  0  0  0  0  0  0  0  0  0  0
   18.3145   -7.8279  -15.8084 C   0  0  0  0  0  0  0  0  0  0  0  0
   18.8455   -7.5195  -14.7133 O   0  0  0  0  0  0  0  0  0  0  0  0
   19.9274   -3.6156  -17.5398 O   0  0  0  0  0  0  0  0  0  0  0  0
   19.3643   -4.8625  -17.8043 C   0  0  0  0  0  0  0  0  0  0  0  0
   18.8558   -5.4698  -16.5032 C   0  0  2  0  0  0  0  0  0  0  0  0
   18.2924   -6.7594  -16.7794 N   0  0  0  0  0  0  0  0  0  0  0  0
   17.8966   -4.5659  -15.8248 C   0  0  0  0  0  0  0  0  0  0  0  0
   18.3945   -3.4595  -15.1570 O   0  0  0  0  0  0  0  0  0  0  0  0
   16.6549   -4.7379  -15.8154 O   0  0  0  0  0  0  0  0  0  0  0  0
  2  1  1  1
  2  4  1  0
  3  2  1  0
  4  5  1  6
  6  4  1  0
  6  7  2  0
  8  6  1  0
  9  8  1  0
 10 11  1  0
  9 10  1  1
 11 12  1  0
 12 13  1  0
 13 14  1  0
 15  9  1  0
 16 15  2  0
 17 18  1  0
 19 18  1  6
 19 20  1  0
 19 21  1  0
 20 15  1  0
 21 22  1  0
 23 21  2  0
M  END
$$$$
