TKS.pdb
     RDKit          3D

 23 22  0  0  1  0  0  0  0  0999 V2000
   25.8100  -15.8289  -18.1326 C   0  0  0  0  0  0  0  0  0  0  0  0
   27.1417  -16.3043  -18.6299 C   0  0  1  0  0  0  0  0  0  0  0  0
   27.7808  -15.1751  -19.1813 O   0  0  0  0  0  0  0  0  0  0  0  0
   28.0064  -16.8432  -17.4915 C   0  0  2  0  0  0  0  0  0  0  0  0
   29.3048  -17.2337  -18.0668 N   0  0  0  0  0  0  0  0  0  0  0  0
   27.3890  -17.9972  -16.8147 C   0  0  0  0  0  0  0  0  0  0  0  0
   27.3361  -19.1035  -17.4440 O   0  0  0  0  0  0  0  0  0  0  0  0
   26.8563  -17.9646  -15.5212 N   0  0  0  0  0  0  0  0  0  0  0  0
   26.2494  -19.1388  -14.8899 C   0  0  1  0  0  0  0  0  0  0  0  0
   26.3533  -18.8965  -13.3921 C   0  0  0  0  0  0  0  0  0  0  0  0
   25.6784  -20.0054  -12.6172 C   0  0  0  0  0  0  0  0  0  0  0  0
   25.6912  -19.7285  -11.1326 C   0  0  0  0  0  0  0  0  0  0  0  0
   25.0953  -20.8587  -10.3232 C   0  0  0  0  0  0  0  0  0  0  0  0
   25.0901  -20.4986   -8.9118 N   0  0  0  0  0  0  0  0  0  0  0  0
   24.8345  -19.2025  -15.3175 C   0  0  0  0  0  0  0  0  0  0  0  0
   24.0406  -18.2300  -15.2991 O   0  0  0  0  0  0  0  0  0  0  0  0
   21.3336  -21.8740  -17.3908 O   0  0  0  0  0  0  0  0  0  0  0  0
   22.6757  -21.7733  -17.0297 C   0  0  0  0  0  0  0  0  0  0  0  0
   22.8738  -20.5268  -16.1768 C   0  0  2  0  0  0  0  0  0  0  0  0
   24.2548  -20.4332  -15.8015 N   0  0  0  0  0  0  0  0  0  0  0  0
   21.9667  -20.5255  -15.0045 C   0  0  0  0  0  0  0  0  0  0  0  0
   20.7747  -19.8264  -15.0956 O   0  0  0  0  0  0  0  0  0  0  0  0
   22.2088  -21.1199  -13.9277 O   0  0  0  0  0  0  0  0  0  0  0  0
  2  1  1  1
  2  4  1  0
  3  2  1  0
  4  5  1  6
  6  4  1  0
  6  7  2  0
  8  6  1  0
  9  8  1  0
 10 11  1  0
  9 10  1  1
 11 12  1  0
 12 13  1  0
 13 14  1  0
 15  9  1  0
 16 15  2  0
 17 18  1  0
 19 18  1  1
 19 20  1  0
 19 21  1  0
 20 15  1  0
 21 22  1  0
 23 21  2  0
M  END
$$$$
