TKS.pdb
     RDKit          3D

 23 22  0  0  1  0  0  0  0  0999 V2000
   20.0249   -7.2756  -11.4024 C   0  0  0  0  0  0  0  0  0  0  0  0
   19.5035   -8.1253  -12.5217 C   0  0  1  0  0  0  0  0  0  0  0  0
   20.6008   -8.8781  -12.9872 O   0  0  0  0  0  0  0  0  0  0  0  0
   18.4233   -9.0911  -12.0373 C   0  0  2  0  0  0  0  0  0  0  0  0
   18.1207  -10.0113  -13.1466 N   0  0  0  0  0  0  0  0  0  0  0  0
   17.1963   -8.3947  -11.6128 C   0  0  0  0  0  0  0  0  0  0  0  0
   16.4886   -7.8278  -12.5075 O   0  0  0  0  0  0  0  0  0  0  0  0
   16.7490   -8.3141  -10.2894 N   0  0  0  0  0  0  0  0  0  0  0  0
   15.5504   -7.5635   -9.9079 C   0  0  1  0  0  0  0  0  0  0  0  0
   14.7593   -8.4920   -8.9994 C   0  0  0  0  0  0  0  0  0  0  0  0
   13.4622   -7.8477   -8.5658 C   0  0  0  0  0  0  0  0  0  0  0  0
   12.5877   -8.8208   -7.8112 C   0  0  0  0  0  0  0  0  0  0  0  0
   11.2712   -8.2113   -7.3835 C   0  0  0  0  0  0  0  0  0  0  0  0
   10.4328   -9.2364   -6.7768 N   0  0  0  0  0  0  0  0  0  0  0  0
   15.9870   -6.3544   -9.1757 C   0  0  0  0  0  0  0  0  0  0  0  0
   16.7507   -6.3623   -8.1792 O   0  0  0  0  0  0  0  0  0  0  0  0
   15.7868   -2.6324  -10.9107 O   0  0  0  0  0  0  0  0  0  0  0  0
   16.6508   -2.9177   -9.8553 C   0  0  0  0  0  0  0  0  0  0  0  0
   15.9552   -3.8552   -8.8766 C   0  0  2  0  0  0  0  0  0  0  0  0
   15.5460   -5.0388   -9.5754 N   0  0  0  0  0  0  0  0  0  0  0  0
   14.8252   -3.1808   -8.1943 C   0  0  0  0  0  0  0  0  0  0  0  0
   15.0951   -2.0634   -7.4220 O   0  0  0  0  0  0  0  0  0  0  0  0
   13.6320   -3.5577   -8.2706 O   0  0  0  0  0  0  0  0  0  0  0  0
  2  1  1  1
  2  4  1  0
  3  2  1  0
  4  5  1  6
  6  4  1  0
  6  7  2  0
  8  6  1  0
  9  8  1  0
 10 11  1  0
  9 10  1  1
 11 12  1  0
 12 13  1  0
 13 14  1  0
 15  9  1  0
 16 15  2  0
 17 18  1  0
 19 18  1  6
 19 20  1  0
 19 21  1  0
 20 15  1  0
 21 22  1  0
 23 21  2  0
M  END
$$$$
