TKS.pdb
     RDKit          3D

 23 22  0  0  1  0  0  0  0  0999 V2000
   22.5648  -13.4048  -19.0367 C   0  0  0  0  0  0  0  0  0  0  0  0
   21.6111  -14.5610  -19.0202 C   0  0  1  0  0  0  0  0  0  0  0  0
   22.4058  -15.7253  -18.9999 O   0  0  0  0  0  0  0  0  0  0  0  0
   20.7361  -14.5492  -17.7677 C   0  0  2  0  0  0  0  0  0  0  0  0
   20.0813  -15.8650  -17.6713 N   0  0  0  0  0  0  0  0  0  0  0  0
   19.7197  -13.4832  -17.8024 C   0  0  0  0  0  0  0  0  0  0  0  0
   19.1947  -13.1917  -18.9258 O   0  0  0  0  0  0  0  0  0  0  0  0
   19.2854  -12.7664  -16.6818 N   0  0  0  0  0  0  0  0  0  0  0  0
   18.2763  -11.7081  -16.7669 C   0  0  1  0  0  0  0  0  0  0  0  0
   17.3281  -11.9537  -15.6034 C   0  0  0  0  0  0  0  0  0  0  0  0
   16.3458  -13.0555  -15.9302 C   0  0  0  0  0  0  0  0  0  0  0  0
   15.3749  -13.2838  -14.7961 C   0  0  0  0  0  0  0  0  0  0  0  0
   14.5130  -14.5092  -15.0038 C   0  0  0  0  0  0  0  0  0  0  0  0
   13.7341  -14.7680  -13.8005 N   0  0  0  0  0  0  0  0  0  0  0  0
   18.9686  -10.4090  -16.6185 C   0  0  0  0  0  0  0  0  0  0  0  0
   19.9507  -10.2078  -15.8626 O   0  0  0  0  0  0  0  0  0  0  0  0
   19.3038   -5.7837  -18.1139 O   0  0  0  0  0  0  0  0  0  0  0  0
   18.7093   -7.0315  -18.2913 C   0  0  0  0  0  0  0  0  0  0  0  0
   19.1344   -7.9558  -17.1575 C   0  0  2  0  0  0  0  0  0  0  0  0
   18.5428   -9.2462  -17.3612 N   0  0  0  0  0  0  0  0  0  0  0  0
   18.7945   -7.3789  -15.8351 C   0  0  0  0  0  0  0  0  0  0  0  0
   19.6596   -6.4508  -15.2799 O   0  0  0  0  0  0  0  0  0  0  0  0
   17.7679   -7.6777  -15.1807 O   0  0  0  0  0  0  0  0  0  0  0  0
  2  1  1  1
  2  4  1  0
  3  2  1  0
  4  5  1  6
  6  4  1  0
  6  7  2  0
  8  6  1  0
  9  8  1  0
 10 11  1  0
  9 10  1  1
 11 12  1  0
 12 13  1  0
 13 14  1  0
 15  9  1  0
 16 15  2  0
 17 18  1  0
 19 18  1  6
 19 20  1  0
 19 21  1  0
 20 15  1  0
 21 22  1  0
 23 21  2  0
M  END
$$$$
