TKS.pdb
     RDKit          3D

 23 22  0  0  1  0  0  0  0  0999 V2000
   12.3841   -9.1157  -12.7451 C   0  0  0  0  0  0  0  0  0  0  0  0
   12.4360  -10.0063  -11.5405 C   0  0  1  0  0  0  0  0  0  0  0  0
   11.0971  -10.3005  -11.2118 O   0  0  0  0  0  0  0  0  0  0  0  0
   13.1606  -11.3171  -11.8422 C   0  0  2  0  0  0  0  0  0  0  0  0
   13.1235  -12.1366  -10.6190 N   0  0  0  0  0  0  0  0  0  0  0  0
   14.5566  -11.1036  -12.2622 C   0  0  0  0  0  0  0  0  0  0  0  0
   15.4051  -10.7664  -11.3739 O   0  0  0  0  0  0  0  0  0  0  0  0
   15.0198  -11.2491  -13.5746 N   0  0  0  0  0  0  0  0  0  0  0  0
   16.3826  -10.8889  -13.9729 C   0  0  1  0  0  0  0  0  0  0  0  0
   16.7814  -11.9068  -15.0301 C   0  0  0  0  0  0  0  0  0  0  0  0
   18.1688  -11.6216  -15.5587 C   0  0  0  0  0  0  0  0  0  0  0  0
   18.5786  -12.6297  -16.6059 C   0  0  0  0  0  0  0  0  0  0  0  0
   19.9624  -12.3680  -17.1576 C   0  0  0  0  0  0  0  0  0  0  0  0
   20.2018  -13.2321  -18.3055 N   0  0  0  0  0  0  0  0  0  0  0  0
   16.3422   -9.5241  -14.5427 C   0  0  0  0  0  0  0  0  0  0  0  0
   15.4945   -9.1265  -15.3790 O   0  0  0  0  0  0  0  0  0  0  0  0
   16.6863   -4.9615  -14.3413 O   0  0  0  0  0  0  0  0  0  0  0  0
   16.5831   -6.2538  -13.8301 C   0  0  0  0  0  0  0  0  0  0  0  0
   17.3277   -7.2167  -14.7459 C   0  0  2  0  0  0  0  0  0  0  0  0
   17.3116   -8.5251  -14.1588 N   0  0  0  0  0  0  0  0  0  0  0  0
   18.7023   -6.7390  -15.0277 C   0  0  0  0  0  0  0  0  0  0  0  0
   19.7671   -7.5474  -14.6660 O   0  0  0  0  0  0  0  0  0  0  0  0
   18.9671   -5.6433  -15.5760 O   0  0  0  0  0  0  0  0  0  0  0  0
  2  1  1  6
  2  4  1  0
  3  2  1  0
  4  5  1  1
  6  4  1  0
  6  7  2  0
  8  6  1  0
  9  8  1  0
 10 11  1  0
  9 10  1  6
 11 12  1  0
 12 13  1  0
 13 14  1  0
 15  9  1  0
 16 15  2  0
 17 18  1  0
 19 18  1  1
 19 20  1  0
 19 21  1  0
 20 15  1  0
 21 22  1  0
 23 21  2  0
M  END
$$$$
