TKS.pdb
     RDKit          3D

 23 22  0  0  1  0  0  0  0  0999 V2000
   28.5968  -11.9796  -15.9751 C   0  0  0  0  0  0  0  0  0  0  0  0
   27.3767  -11.1117  -16.0444 C   0  0  1  0  0  0  0  0  0  0  0  0
   27.7833   -9.9112  -16.6616 O   0  0  0  0  0  0  0  0  0  0  0  0
   26.2818  -11.7493  -16.8982 C   0  0  2  0  0  0  0  0  0  0  0  0
   26.8282  -11.9370  -18.2530 N   0  0  0  0  0  0  0  0  0  0  0  0
   25.0631  -10.9235  -16.9576 C   0  0  0  0  0  0  0  0  0  0  0  0
   24.9330  -10.1160  -17.9342 O   0  0  0  0  0  0  0  0  0  0  0  0
   24.0311  -10.9660  -16.0136 N   0  0  0  0  0  0  0  0  0  0  0  0
   22.8124  -10.1636  -16.1430 C   0  0  1  0  0  0  0  0  0  0  0  0
   21.6818  -11.0571  -15.6567 C   0  0  0  0  0  0  0  0  0  0  0  0
   20.3543  -10.3377  -15.7314 C   0  0  0  0  0  0  0  0  0  0  0  0
   19.2097  -11.2513  -15.3622 C   0  0  0  0  0  0  0  0  0  0  0  0
   17.8610  -10.5800  -15.4960 C   0  0  0  0  0  0  0  0  0  0  0  0
   16.8119  -11.5082  -15.0965 N   0  0  0  0  0  0  0  0  0  0  0  0
   22.9578   -8.9755  -15.2734 C   0  0  0  0  0  0  0  0  0  0  0  0
   23.4056   -9.0020  -14.1008 O   0  0  0  0  0  0  0  0  0  0  0  0
   22.7735   -5.0938  -16.8353 O   0  0  0  0  0  0  0  0  0  0  0  0
   23.4934   -5.4334  -15.6916 C   0  0  0  0  0  0  0  0  0  0  0  0
   22.7272   -6.4950  -14.9129 C   0  0  2  0  0  0  0  0  0  0  0  0
   22.5797   -7.6607  -15.7351 N   0  0  0  0  0  0  0  0  0  0  0  0
   21.4263   -5.9748  -14.4287 C   0  0  0  0  0  0  0  0  0  0  0  0
   21.4330   -4.9591  -13.4872 O   0  0  0  0  0  0  0  0  0  0  0  0
   20.3118   -6.3965  -14.8178 O   0  0  0  0  0  0  0  0  0  0  0  0
  2  1  1  6
  2  4  1  0
  3  2  1  0
  4  5  1  6
  6  4  1  0
  6  7  2  0
  8  6  1  0
  9  8  1  0
 10 11  1  0
  9 10  1  1
 11 12  1  0
 12 13  1  0
 13 14  1  0
 15  9  1  0
 16 15  2  0
 17 18  1  0
 19 18  1  6
 19 20  1  0
 19 21  1  0
 20 15  1  0
 21 22  1  0
 23 21  2  0
M  END
$$$$
