TKS.pdb
     RDKit          3D

 23 22  0  0  1  0  0  0  0  0999 V2000
   19.3254  -11.6200  -13.9599 C   0  0  0  0  0  0  0  0  0  0  0  0
   18.2822  -10.6435  -13.5073 C   0  0  1  0  0  0  0  0  0  0  0  0
   17.9643   -9.8582  -14.6340 O   0  0  0  0  0  0  0  0  0  0  0  0
   17.0138  -11.3542  -13.0379 C   0  0  2  0  0  0  0  0  0  0  0  0
   16.4510  -12.0689  -14.1962 N   0  0  0  0  0  0  0  0  0  0  0  0
   16.0155  -10.4189  -12.4907 C   0  0  0  0  0  0  0  0  0  0  0  0
   15.2542   -9.8080  -13.3093 O   0  0  0  0  0  0  0  0  0  0  0  0
   15.8412  -10.1551  -11.1276 N   0  0  0  0  0  0  0  0  0  0  0  0
   14.9376   -9.1118  -10.6370 C   0  0  1  0  0  0  0  0  0  0  0  0
   13.9606   -9.8202   -9.7114 C   0  0  0  0  0  0  0  0  0  0  0  0
   12.9496   -8.8483   -9.1468 C   0  0  0  0  0  0  0  0  0  0  0  0
   11.8822   -9.5618   -8.3515 C   0  0  0  0  0  0  0  0  0  0  0  0
   10.8865   -8.6103   -7.7264 C   0  0  0  0  0  0  0  0  0  0  0  0
    9.8363   -9.3699   -7.0616 N   0  0  0  0  0  0  0  0  0  0  0  0
   15.7485   -8.1236   -9.8921 C   0  0  0  0  0  0  0  0  0  0  0  0
   16.5562   -8.4115   -8.9751 O   0  0  0  0  0  0  0  0  0  0  0  0
   16.6735   -4.4849  -11.4583 O   0  0  0  0  0  0  0  0  0  0  0  0
   17.3851   -5.0472  -10.4003 C   0  0  0  0  0  0  0  0  0  0  0  0
   16.4129   -5.7360   -9.4513 C   0  0  2  0  0  0  0  0  0  0  0  0
   15.6593   -6.7122  -10.1834 N   0  0  0  0  0  0  0  0  0  0  0  0
   15.5457   -4.7524   -8.7601 C   0  0  0  0  0  0  0  0  0  0  0  0
   16.1407   -3.8272   -7.9187 O   0  0  0  0  0  0  0  0  0  0  0  0
   14.2996   -4.7021   -8.8876 O   0  0  0  0  0  0  0  0  0  0  0  0
  2  1  1  6
  2  4  1  0
  3  2  1  0
  4  5  1  6
  6  4  1  0
  6  7  2  0
  8  6  1  0
  9  8  1  0
 10 11  1  0
  9 10  1  1
 11 12  1  0
 12 13  1  0
 13 14  1  0
 15  9  1  0
 16 15  2  0
 17 18  1  0
 19 18  1  6
 19 20  1  0
 19 21  1  0
 20 15  1  0
 21 22  1  0
 23 21  2  0
M  END
$$$$
