TKS.pdb
     RDKit          3D

 23 22  0  0  1  0  0  0  0  0999 V2000
   20.0986  -16.8267  -19.0669 C   0  0  0  0  0  0  0  0  0  0  0  0
   21.2386  -17.3330  -18.2358 C   0  0  1  0  0  0  0  0  0  0  0  0
   22.3607  -16.5592  -18.5955 O   0  0  0  0  0  0  0  0  0  0  0  0
   20.9746  -17.1400  -16.7434 C   0  0  2  0  0  0  0  0  0  0  0  0
   20.8585  -15.6926  -16.4967 N   0  0  0  0  0  0  0  0  0  0  0  0
   22.0447  -17.7086  -15.9053 C   0  0  0  0  0  0  0  0  0  0  0  0
   22.9389  -16.9195  -15.4576 O   0  0  0  0  0  0  0  0  0  0  0  0
   22.1471  -19.0612  -15.5618 N   0  0  0  0  0  0  0  0  0  0  0  0
   23.2826  -19.5982  -14.8083 C   0  0  1  0  0  0  0  0  0  0  0  0
   22.7061  -20.6970  -13.9288 C   0  0  0  0  0  0  0  0  0  0  0  0
   23.8040  -21.4365  -13.1986 C   0  0  0  0  0  0  0  0  0  0  0  0
   24.1194  -20.7870  -11.8721 C   0  0  0  0  0  0  0  0  0  0  0  0
   25.2379  -21.4858  -11.1317 C   0  0  0  0  0  0  0  0  0  0  0  0
   25.4125  -20.8746   -9.8211 N   0  0  0  0  0  0  0  0  0  0  0  0
   24.2498  -20.1532  -15.7806 C   0  0  0  0  0  0  0  0  0  0  0  0
   23.9548  -20.9582  -16.6979 O   0  0  0  0  0  0  0  0  0  0  0  0
   28.9584  -20.5166  -17.0156 O   0  0  0  0  0  0  0  0  0  0  0  0
   28.0107  -19.9540  -16.1629 C   0  0  0  0  0  0  0  0  0  0  0  0
   26.6203  -20.4084  -16.5880 C   0  0  2  0  0  0  0  0  0  0  0  0
   25.6467  -19.7909  -15.7350 N   0  0  0  0  0  0  0  0  0  0  0  0
   26.5138  -21.8869  -16.5920 C   0  0  0  0  0  0  0  0  0  0  0  0
   26.6922  -22.5563  -17.7912 O   0  0  0  0  0  0  0  0  0  0  0  0
   26.2711  -22.5769  -15.5740 O   0  0  0  0  0  0  0  0  0  0  0  0
  2  1  1  6
  2  4  1  0
  3  2  1  0
  4  5  1  6
  6  4  1  0
  6  7  2  0
  8  6  1  0
  9  8  1  0
 10 11  1  0
  9 10  1  1
 11 12  1  0
 12 13  1  0
 13 14  1  0
 15  9  1  0
 16 15  2  0
 17 18  1  0
 19 18  1  1
 19 20  1  0
 19 21  1  0
 20 15  1  0
 21 22  1  0
 23 21  2  0
M  END
$$$$
