TKS.pdb
     RDKit          3D

 23 22  0  0  1  0  0  0  0  0999 V2000
   18.0967  -12.2283  -14.1035 C   0  0  0  0  0  0  0  0  0  0  0  0
   16.8330  -13.0076  -14.3099 C   0  0  1  0  0  0  0  0  0  0  0  0
   17.2171  -14.3607  -14.4043 O   0  0  0  0  0  0  0  0  0  0  0  0
   15.8798  -12.8555  -13.1256 C   0  0  2  0  0  0  0  0  0  0  0  0
   14.7463  -13.7692  -13.3480 N   0  0  0  0  0  0  0  0  0  0  0  0
   15.3898  -11.4744  -12.9726 C   0  0  0  0  0  0  0  0  0  0  0  0
   14.6759  -10.9845  -13.9069 O   0  0  0  0  0  0  0  0  0  0  0  0
   15.6518  -10.6594  -11.8657 N   0  0  0  0  0  0  0  0  0  0  0  0
   15.2391   -9.2552  -11.8069 C   0  0  1  0  0  0  0  0  0  0  0  0
   14.7160   -9.0423  -10.3948 C   0  0  0  0  0  0  0  0  0  0  0  0
   13.2076   -9.1367  -10.3573 C   0  0  0  0  0  0  0  0  0  0  0  0
   12.6887   -9.1223   -8.9391 C   0  0  0  0  0  0  0  0  0  0  0  0
   11.1868   -9.2857   -8.8658 C   0  0  0  0  0  0  0  0  0  0  0  0
   10.7769   -9.4131   -7.4738 N   0  0  0  0  0  0  0  0  0  0  0  0
   16.4347   -8.4207  -12.0584 C   0  0  0  0  0  0  0  0  0  0  0  0
   17.6069   -8.7435  -11.7457 O   0  0  0  0  0  0  0  0  0  0  0  0
   19.3893   -6.5368  -14.5406 O   0  0  0  0  0  0  0  0  0  0  0  0
   18.3338   -7.2851  -14.0230 C   0  0  0  0  0  0  0  0  0  0  0  0
   17.4794   -6.3960  -13.1286 C   0  0  2  0  0  0  0  0  0  0  0  0
   16.3253   -7.1336  -12.7037 N   0  0  0  0  0  0  0  0  0  0  0  0
   17.1227   -5.1290  -13.8103 C   0  0  0  0  0  0  0  0  0  0  0  0
   18.0727   -4.1228  -13.8682 O   0  0  0  0  0  0  0  0  0  0  0  0
   16.0097   -4.9059  -14.3420 O   0  0  0  0  0  0  0  0  0  0  0  0
  2  1  1  1
  2  4  1  0
  3  2  1  0
  4  5  1  6
  6  4  1  0
  6  7  2  0
  8  6  1  0
  9  8  1  0
 10 11  1  0
  9 10  1  1
 11 12  1  0
 12 13  1  0
 13 14  1  0
 15  9  1  0
 16 15  2  0
 17 18  1  0
 19 18  1  6
 19 20  1  0
 19 21  1  0
 20 15  1  0
 21 22  1  0
 23 21  2  0
M  END
$$$$
