TKS.pdb
     RDKit          3D

 23 22  0  0  1  0  0  0  0  0999 V2000
   23.7232  -21.6110  -17.2631 C   0  0  0  0  0  0  0  0  0  0  0  0
   24.7425  -21.7110  -16.1687 C   0  0  1  0  0  0  0  0  0  0  0  0
   25.9569  -22.0599  -16.7938 O   0  0  0  0  0  0  0  0  0  0  0  0
   24.9316  -20.3740  -15.4538 C   0  0  2  0  0  0  0  0  0  0  0  0
   26.0009  -20.5512  -14.4566 N   0  0  0  0  0  0  0  0  0  0  0  0
   23.6991  -19.9112  -14.7924 C   0  0  0  0  0  0  0  0  0  0  0  0
   23.4444  -20.3503  -13.6241 O   0  0  0  0  0  0  0  0  0  0  0  0
   22.7849  -19.0158  -15.3587 N   0  0  0  0  0  0  0  0  0  0  0  0
   21.5063  -18.6890  -14.7230 C   0  0  1  0  0  0  0  0  0  0  0  0
   21.1429  -17.3008  -15.2271 C   0  0  0  0  0  0  0  0  0  0  0  0
   19.8171  -16.8493  -14.6580 C   0  0  0  0  0  0  0  0  0  0  0  0
   19.3859  -15.5265  -15.2455 C   0  0  0  0  0  0  0  0  0  0  0  0
   17.9954  -15.1204  -14.8103 C   0  0  0  0  0  0  0  0  0  0  0  0
   17.6673  -13.8190  -15.3763 N   0  0  0  0  0  0  0  0  0  0  0  0
   20.5108  -19.6893  -15.1672 C   0  0  0  0  0  0  0  0  0  0  0  0
   20.6896  -20.5034  -16.1061 O   0  0  0  0  0  0  0  0  0  0  0  0
   19.0895  -23.0357  -12.9040 O   0  0  0  0  0  0  0  0  0  0  0  0
   19.6309  -21.8000  -13.2531 C   0  0  0  0  0  0  0  0  0  0  0  0
   18.6564  -21.0643  -14.1639 C   0  0  2  0  0  0  0  0  0  0  0  0
   19.2220  -19.7969  -14.5252 N   0  0  0  0  0  0  0  0  0  0  0  0
   17.3229  -20.9299  -13.5307 C   0  0  0  0  0  0  0  0  0  0  0  0
   17.0063  -19.7325  -12.9110 O   0  0  0  0  0  0  0  0  0  0  0  0
   16.4559  -21.8352  -13.5187 O   0  0  0  0  0  0  0  0  0  0  0  0
  2  1  1  6
  2  4  1  0
  3  2  1  0
  4  5  1  1
  6  4  1  0
  6  7  2  0
  8  6  1  0
  9  8  1  0
 10 11  1  0
  9 10  1  6
 11 12  1  0
 12 13  1  0
 13 14  1  0
 15  9  1  0
 16 15  2  0
 17 18  1  0
 19 18  1  1
 19 20  1  0
 19 21  1  0
 20 15  1  0
 21 22  1  0
 23 21  2  0
M  END
$$$$
