WAA.pdb
     RDKit          3D

 25 26  0  0  1  0  0  0  0  0999 V2000
   15.3231   -9.4983  -10.4234 N   0  0  0  0  0  0  0  0  0  0  0  0
   16.0678   -8.2387  -10.2692 C   0  0  1  0  0  0  0  0  0  0  0  0
   16.4851   -7.8431  -11.6604 C   0  0  0  0  0  0  0  0  0  0  0  0
   17.3952   -8.8003  -12.3125 C   0  0  0  0  0  0  0  0  0  0  0  0
   18.3362   -9.5841  -11.6509 C   0  0  0  0  0  0  0  0  0  0  0  0
   18.9853  -10.3340  -12.5520 N   0  0  0  0  0  0  0  0  0  0  0  0
   18.5250  -10.0931  -13.8027 C   0  0  0  0  0  0  0  0  0  0  0  0
   18.8611  -10.5993  -15.0367 C   0  0  0  0  0  0  0  0  0  0  0  0
   18.1998  -10.1491  -16.1572 C   0  0  0  0  0  0  0  0  0  0  0  0
   17.2130   -9.1973  -16.0121 C   0  0  0  0  0  0  0  0  0  0  0  0
   16.8778   -8.6899  -14.7645 C   0  0  0  0  0  0  0  0  0  0  0  0
   17.5302   -9.1321  -13.6433 C   0  0  0  0  0  0  0  0  0  0  0  0
   15.1409   -7.2514   -9.6595 C   0  0  0  0  0  0  0  0  0  0  0  0
   14.0978   -6.8876  -10.2653 O   0  0  0  0  0  0  0  0  0  0  0  0
   14.5950   -5.6303   -6.3688 C   0  0  0  0  0  0  0  0  0  0  0  0
   14.4478   -5.6695   -7.8625 C   0  0  2  0  0  0  0  0  0  0  0  0
   15.3787   -6.6724   -8.3768 N   0  0  0  0  0  0  0  0  0  0  0  0
   14.7523   -4.3471   -8.4829 C   0  0  0  0  0  0  0  0  0  0  0  0
   15.9312   -4.0273   -8.7764 O   0  0  0  0  0  0  0  0  0  0  0  0
   12.7201   -1.6199  -10.0018 C   0  0  0  0  0  0  0  0  0  0  0  0
   14.0380   -2.1732   -9.4619 C   0  0  2  0  0  0  0  0  0  0  0  0
   13.7283   -3.3999   -8.7666 N   0  0  0  0  0  0  0  0  0  0  0  0
   14.6521   -1.1619   -8.5826 C   0  0  0  0  0  0  0  0  0  0  0  0
   14.5386   -1.2613   -7.3462 O   0  0  0  0  0  0  0  0  0  0  0  0
   15.3501   -0.1095   -9.1332 O   0  0  0  0  0  0  0  0  0  0  0  0
  2  1  1  6
  2  3  1  0
  2 13  1  0
  4  3  1  0
  4  5  2  0
  6  5  1  0
  7  6  1  0
  8  7  2  0
  9  8  1  0
 10  9  2  0
 10 11  1  0
 11 12  2  0
 12  7  1  0
 12  4  1  0
 13 14  2  0
 16 15  1  1
 17 13  1  0
 17 16  1  0
 18 16  1  0
 18 19  2  0
 21 20  1  1
 21 23  1  0
 21 22  1  0
 22 18  1  0
 23 25  1  0
 24 23  2  0
M  END
$$$$
