WAA.pdb
     RDKit          3D

 25 26  0  0  1  0  0  0  0  0999 V2000
   26.3701  -22.5989  -12.7071 N   0  0  0  0  0  0  0  0  0  0  0  0
   25.6458  -21.7021  -11.7927 C   0  0  1  0  0  0  0  0  0  0  0  0
   26.5113  -20.4780  -11.6574 C   0  0  0  0  0  0  0  0  0  0  0  0
   27.6257  -20.6290  -10.7061 C   0  0  0  0  0  0  0  0  0  0  0  0
   28.9403  -20.9223  -11.0572 C   0  0  0  0  0  0  0  0  0  0  0  0
   29.6822  -20.9851   -9.9431 N   0  0  0  0  0  0  0  0  0  0  0  0
   28.9261  -20.7465   -8.8450 C   0  0  0  0  0  0  0  0  0  0  0  0
   29.2167  -20.7003   -7.5014 C   0  0  0  0  0  0  0  0  0  0  0  0
   28.2129  -20.4269   -6.5996 C   0  0  0  0  0  0  0  0  0  0  0  0
   26.9359  -20.2058   -7.0697 C   0  0  0  0  0  0  0  0  0  0  0  0
   26.6481  -20.2536   -8.4267 C   0  0  0  0  0  0  0  0  0  0  0  0
   27.6408  -20.5246   -9.3319 C   0  0  0  0  0  0  0  0  0  0  0  0
   24.3359  -21.3961  -12.4223 C   0  0  0  0  0  0  0  0  0  0  0  0
   24.1750  -21.5175  -13.6660 O   0  0  0  0  0  0  0  0  0  0  0  0
   20.8856  -20.5417  -11.2631 C   0  0  0  0  0  0  0  0  0  0  0  0
   21.9080  -20.8421  -12.3208 C   0  0  2  0  0  0  0  0  0  0  0  0
   23.2093  -20.9561  -11.6646 N   0  0  0  0  0  0  0  0  0  0  0  0
   21.9671  -19.7671  -13.3538 C   0  0  0  0  0  0  0  0  0  0  0  0
   22.4007  -18.6224  -13.0711 O   0  0  0  0  0  0  0  0  0  0  0  0
   21.5554  -19.5796  -17.0466 C   0  0  0  0  0  0  0  0  0  0  0  0
   21.5902  -18.9261  -15.6659 C   0  0  2  0  0  0  0  0  0  0  0  0
   21.5385  -19.9912  -14.6927 N   0  0  0  0  0  0  0  0  0  0  0  0
   20.4511  -17.9975  -15.5521 C   0  0  0  0  0  0  0  0  0  0  0  0
   20.5171  -16.8658  -16.0684 O   0  0  0  0  0  0  0  0  0  0  0  0
   19.3165  -18.3859  -14.8740 O   0  0  0  0  0  0  0  0  0  0  0  0
  2  1  1  6
  2  3  1  0
  2 13  1  0
  4  3  1  0
  4  5  2  0
  6  5  1  0
  7  6  1  0
  8  7  2  0
  9  8  1  0
 10  9  2  0
 10 11  1  0
 11 12  2  0
 12  7  1  0
 12  4  1  0
 13 14  2  0
 16 15  1  1
 17 13  1  0
 17 16  1  0
 18 16  1  0
 18 19  2  0
 21 20  1  6
 21 23  1  0
 21 22  1  0
 22 18  1  0
 23 25  1  0
 24 23  2  0
M  END
$$$$
