WAA.pdb
     RDKit          3D

 25 26  0  0  1  0  0  0  0  0999 V2000
   28.3762  -20.6290   -9.8467 N   0  0  0  0  0  0  0  0  0  0  0  0
   26.9978  -21.1344   -9.7493 C   0  0  1  0  0  0  0  0  0  0  0  0
   26.3000  -20.2205   -8.7779 C   0  0  0  0  0  0  0  0  0  0  0  0
   27.1489  -19.7611   -7.6652 C   0  0  0  0  0  0  0  0  0  0  0  0
   27.7747  -18.5195   -7.5990 C   0  0  0  0  0  0  0  0  0  0  0  0
   28.4623  -18.4419   -6.4515 N   0  0  0  0  0  0  0  0  0  0  0  0
   28.3309  -19.5816   -5.7315 C   0  0  0  0  0  0  0  0  0  0  0  0
   28.8317  -19.9820   -4.5146 C   0  0  0  0  0  0  0  0  0  0  0  0
   28.5155  -21.2310   -4.0292 C   0  0  0  0  0  0  0  0  0  0  0  0
   27.7012  -22.0520   -4.7799 C   0  0  0  0  0  0  0  0  0  0  0  0
   27.1985  -21.6429   -6.0073 C   0  0  0  0  0  0  0  0  0  0  0  0
   27.5075  -20.4013   -6.4986 C   0  0  0  0  0  0  0  0  0  0  0  0
   26.4063  -21.0640  -11.1098 C   0  0  0  0  0  0  0  0  0  0  0  0
   26.7662  -20.1718  -11.9233 O   0  0  0  0  0  0  0  0  0  0  0  0
   24.7318  -23.3484  -13.4074 C   0  0  0  0  0  0  0  0  0  0  0  0
   24.9736  -21.9381  -12.9524 C   0  0  2  0  0  0  0  0  0  0  0  0
   25.4157  -21.9877  -11.5599 N   0  0  0  0  0  0  0  0  0  0  0  0
   23.7388  -21.1063  -13.0504 C   0  0  0  0  0  0  0  0  0  0  0  0
   23.1413  -20.9634  -14.1462 O   0  0  0  0  0  0  0  0  0  0  0  0
   22.0417  -18.8598  -13.2865 C   0  0  0  0  0  0  0  0  0  0  0  0
   21.9493  -19.7143  -12.0233 C   0  0  2  0  0  0  0  0  0  0  0  0
   23.1897  -20.4451  -11.9156 N   0  0  0  0  0  0  0  0  0  0  0  0
   20.7764  -20.6002  -12.1348 C   0  0  0  0  0  0  0  0  0  0  0  0
   19.6278  -20.1206  -12.0864 O   0  0  0  0  0  0  0  0  0  0  0  0
   20.9560  -21.9569  -12.2925 O   0  0  0  0  0  0  0  0  0  0  0  0
  2  1  1  6
  2  3  1  0
  2 13  1  0
  4  3  1  0
  4  5  2  0
  6  5  1  0
  7  6  1  0
  8  7  2  0
  9  8  1  0
 10  9  2  0
 10 11  1  0
 11 12  2  0
 12  7  1  0
 12  4  1  0
 13 14  2  0
 16 15  1  1
 17 13  1  0
 17 16  1  0
 18 16  1  0
 18 19  2  0
 21 20  1  6
 21 23  1  0
 21 22  1  0
 22 18  1  0
 23 25  1  0
 24 23  2  0
M  END
$$$$
