WAA.pdb
     RDKit          3D

 25 26  0  0  1  0  0  0  0  0999 V2000
   27.2369  -22.5188  -14.1023 N   0  0  0  0  0  0  0  0  0  0  0  0
   26.2287  -21.8027  -13.3049 C   0  0  1  0  0  0  0  0  0  0  0  0
   26.9136  -20.5556  -12.8134 C   0  0  0  0  0  0  0  0  0  0  0  0
   27.7953  -20.7688  -11.6528 C   0  0  0  0  0  0  0  0  0  0  0  0
   29.1363  -21.1348  -11.7262 C   0  0  0  0  0  0  0  0  0  0  0  0
   29.6251  -21.2392  -10.4829 N   0  0  0  0  0  0  0  0  0  0  0  0
   28.6708  -20.9594   -9.5634 C   0  0  0  0  0  0  0  0  0  0  0  0
   28.6770  -20.9300   -8.1883 C   0  0  0  0  0  0  0  0  0  0  0  0
   27.5237  -20.6016   -7.5119 C   0  0  0  0  0  0  0  0  0  0  0  0
   26.3866  -20.3095   -8.2348 C   0  0  0  0  0  0  0  0  0  0  0  0
   26.3859  -20.3406   -9.6224 C   0  0  0  0  0  0  0  0  0  0  0  0
   27.5292  -20.6661  -10.3044 C   0  0  0  0  0  0  0  0  0  0  0  0
   25.0891  -21.4983  -14.2073 C   0  0  0  0  0  0  0  0  0  0  0  0
   25.2637  -21.3854  -15.4500 O   0  0  0  0  0  0  0  0  0  0  0  0
   22.7586  -22.8663  -15.2536 C   0  0  0  0  0  0  0  0  0  0  0  0
   22.6345  -21.5017  -14.6398 C   0  0  2  0  0  0  0  0  0  0  0  0
   23.7584  -21.3206  -13.7227 N   0  0  0  0  0  0  0  0  0  0  0  0
   21.3539  -21.3472  -13.8898 C   0  0  0  0  0  0  0  0  0  0  0  0
   20.2492  -21.5704  -14.4448 O   0  0  0  0  0  0  0  0  0  0  0  0
   20.4026  -20.3131  -10.4147 C   0  0  0  0  0  0  0  0  0  0  0  0
   20.0747  -20.6865  -11.8595 C   0  0  2  0  0  0  0  0  0  0  0  0
   21.3298  -20.9441  -12.5248 N   0  0  0  0  0  0  0  0  0  0  0  0
   19.3221  -19.5793  -12.4763 C   0  0  0  0  0  0  0  0  0  0  0  0
   19.9218  -18.7155  -13.1441 O   0  0  0  0  0  0  0  0  0  0  0  0
   17.9564  -19.5044  -12.3112 O   0  0  0  0  0  0  0  0  0  0  0  0
  2  1  1  6
  2  3  1  0
  2 13  1  0
  4  3  1  0
  4  5  2  0
  6  5  1  0
  7  6  1  0
  8  7  2  0
  9  8  1  0
 10  9  2  0
 10 11  1  0
 11 12  2  0
 12  7  1  0
 12  4  1  0
 13 14  2  0
 16 15  1  1
 17 13  1  0
 17 16  1  0
 18 16  1  0
 18 19  2  0
 21 20  1  1
 21 23  1  0
 21 22  1  0
 22 18  1  0
 23 25  1  0
 24 23  2  0
M  END
$$$$
