WAA.pdb
     RDKit          3D

 25 26  0  0  1  0  0  0  0  0999 V2000
   28.2651  -21.7375  -10.3305 N   0  0  0  0  0  0  0  0  0  0  0  0
   27.0138  -21.0758   -9.9286 C   0  0  1  0  0  0  0  0  0  0  0  0
   27.4253  -19.7436   -9.3614 C   0  0  0  0  0  0  0  0  0  0  0  0
   28.2332  -19.8343   -8.1330 C   0  0  0  0  0  0  0  0  0  0  0  0
   29.5995  -19.5794   -8.0561 C   0  0  0  0  0  0  0  0  0  0  0  0
   30.0025  -19.7578   -6.7907 N   0  0  0  0  0  0  0  0  0  0  0  0
   28.9655  -20.1247   -6.0005 C   0  0  0  0  0  0  0  0  0  0  0  0
   28.8691  -20.4176   -4.6600 C   0  0  0  0  0  0  0  0  0  0  0  0
   27.6482  -20.7681   -4.1287 C   0  0  0  0  0  0  0  0  0  0  0  0
   26.5486  -20.8168   -4.9590 C   0  0  0  0  0  0  0  0  0  0  0  0
   26.6516  -20.5202   -6.3109 C   0  0  0  0  0  0  0  0  0  0  0  0
   27.8625  -20.1700   -6.8488 C   0  0  0  0  0  0  0  0  0  0  0  0
   26.1803  -20.9323  -11.1495 C   0  0  0  0  0  0  0  0  0  0  0  0
   26.4181  -20.0230  -11.9887 O   0  0  0  0  0  0  0  0  0  0  0  0
   23.9779  -23.0275  -13.1657 C   0  0  0  0  0  0  0  0  0  0  0  0
   24.3632  -21.6548  -12.6948 C   0  0  2  0  0  0  0  0  0  0  0  0
   25.0846  -21.8021  -11.4319 N   0  0  0  0  0  0  0  0  0  0  0  0
   23.1680  -20.7869  -12.4839 C   0  0  0  0  0  0  0  0  0  0  0  0
   22.5696  -20.7687  -11.3795 O   0  0  0  0  0  0  0  0  0  0  0  0
   21.2985  -18.2630  -14.5236 C   0  0  0  0  0  0  0  0  0  0  0  0
   21.4647  -19.1677  -13.3036 C   0  0  2  0  0  0  0  0  0  0  0  0
   22.6597  -19.9493  -13.5166 N   0  0  0  0  0  0  0  0  0  0  0  0
   20.2578  -20.0024  -13.1642 C   0  0  0  0  0  0  0  0  0  0  0  0
   20.2156  -21.1285  -13.6951 O   0  0  0  0  0  0  0  0  0  0  0  0
   19.1799  -19.5327  -12.4464 O   0  0  0  0  0  0  0  0  0  0  0  0
  2  1  1  6
  2  3  1  0
  2 13  1  0
  4  3  1  0
  4  5  2  0
  6  5  1  0
  7  6  1  0
  8  7  2  0
  9  8  1  0
 10  9  2  0
 10 11  1  0
 11 12  2  0
 12  7  1  0
 12  4  1  0
 13 14  2  0
 16 15  1  1
 17 13  1  0
 17 16  1  0
 18 16  1  0
 18 19  2  0
 21 20  1  6
 21 23  1  0
 21 22  1  0
 22 18  1  0
 23 25  1  0
 24 23  2  0
M  END
$$$$
