WAA.pdb
     RDKit          3D

 25 26  0  0  1  0  0  0  0  0999 V2000
   25.4040  -12.9961  -18.2377 N   0  0  0  0  0  0  0  0  0  0  0  0
   25.0315  -13.1238  -16.8200 C   0  0  1  0  0  0  0  0  0  0  0  0
   26.3278  -13.3026  -16.0761 C   0  0  0  0  0  0  0  0  0  0  0  0
   27.0669  -14.5246  -16.4367 C   0  0  0  0  0  0  0  0  0  0  0  0
   27.9780  -14.6262  -17.4842 C   0  0  0  0  0  0  0  0  0  0  0  0
   28.4573  -15.8770  -17.5212 N   0  0  0  0  0  0  0  0  0  0  0  0
   27.9094  -16.6336  -16.5406 C   0  0  0  0  0  0  0  0  0  0  0  0
   28.0729  -17.9488  -16.1722 C   0  0  0  0  0  0  0  0  0  0  0  0
   27.3603  -18.4476  -15.1050 C   0  0  0  0  0  0  0  0  0  0  0  0
   26.4966  -17.6112  -14.4302 C   0  0  0  0  0  0  0  0  0  0  0  0
   26.3354  -16.2849  -14.8062 C   0  0  0  0  0  0  0  0  0  0  0  0
   27.0407  -15.7793  -15.8669 C   0  0  0  0  0  0  0  0  0  0  0  0
   24.3317  -11.8718  -16.4345 C   0  0  0  0  0  0  0  0  0  0  0  0
   24.9723  -10.8945  -15.9634 O   0  0  0  0  0  0  0  0  0  0  0  0
   23.5388   -9.9425  -18.0647 C   0  0  0  0  0  0  0  0  0  0  0  0
   22.4015  -10.5510  -17.2961 C   0  0  2  0  0  0  0  0  0  0  0  0
   22.9204  -11.7122  -16.5753 N   0  0  0  0  0  0  0  0  0  0  0  0
   21.2934  -10.9824  -18.1974 C   0  0  0  0  0  0  0  0  0  0  0  0
   20.6912  -10.1529  -18.9237 O   0  0  0  0  0  0  0  0  0  0  0  0
   19.9597  -14.0763  -19.6364 C   0  0  0  0  0  0  0  0  0  0  0  0
   19.6947  -12.7037  -19.0196 C   0  0  2  0  0  0  0  0  0  0  0  0
   20.8754  -12.3412  -18.2721 N   0  0  0  0  0  0  0  0  0  0  0  0
   18.4908  -12.7887  -18.1731 C   0  0  0  0  0  0  0  0  0  0  0  0
   18.5783  -12.5940  -16.9459 O   0  0  0  0  0  0  0  0  0  0  0  0
   17.2723  -13.0836  -18.7440 O   0  0  0  0  0  0  0  0  0  0  0  0
  2  1  1  6
  2  3  1  0
  2 13  1  0
  4  3  1  0
  4  5  2  0
  6  5  1  0
  7  6  1  0
  8  7  2  0
  9  8  1  0
 10  9  2  0
 10 11  1  0
 11 12  2  0
 12  7  1  0
 12  4  1  0
 13 14  2  0
 16 15  1  6
 17 13  1  0
 17 16  1  0
 18 16  1  0
 18 19  2  0
 21 20  1  1
 21 23  1  0
 21 22  1  0
 22 18  1  0
 23 25  1  0
 24 23  2  0
M  END
$$$$
