WAA.pdb
     RDKit          3D

 25 26  0  0  1  0  0  0  0  0999 V2000
   27.3896  -21.1091  -10.8019 N   0  0  0  0  0  0  0  0  0  0  0  0
   26.2906  -20.8777   -9.8513 C   0  0  1  0  0  0  0  0  0  0  0  0
   26.7952  -19.8277   -8.8981 C   0  0  0  0  0  0  0  0  0  0  0  0
   27.9586  -20.2478   -8.0981 C   0  0  0  0  0  0  0  0  0  0  0  0
   29.0669  -20.9262   -8.5971 C   0  0  0  0  0  0  0  0  0  0  0  0
   29.9276  -21.1461   -7.5940 N   0  0  0  0  0  0  0  0  0  0  0  0
   29.4507  -20.6450   -6.4296 C   0  0  0  0  0  0  0  0  0  0  0  0
   29.9504  -20.6188   -5.1483 C   0  0  0  0  0  0  0  0  0  0  0  0
   29.2176  -20.0225   -4.1468 C   0  0  0  0  0  0  0  0  0  0  0  0
   27.9954  -19.4645   -4.4563 C   0  0  0  0  0  0  0  0  0  0  0  0
   27.4959  -19.4937   -5.7509 C   0  0  0  0  0  0  0  0  0  0  0  0
   28.2182  -20.0848   -6.7545 C   0  0  0  0  0  0  0  0  0  0  0  0
   25.1213  -20.4069  -10.6367 C   0  0  0  0  0  0  0  0  0  0  0  0
   25.1639  -19.3150  -11.2638 O   0  0  0  0  0  0  0  0  0  0  0  0
   23.3181  -20.5064  -12.9494 C   0  0  0  0  0  0  0  0  0  0  0  0
   22.8116  -20.6444  -11.5427 C   0  0  2  0  0  0  0  0  0  0  0  0
   23.9081  -21.1541  -10.7212 N   0  0  0  0  0  0  0  0  0  0  0  0
   21.6545  -21.5829  -11.4613 C   0  0  0  0  0  0  0  0  0  0  0  0
   21.7999  -22.8093  -11.6916 O   0  0  0  0  0  0  0  0  0  0  0  0
   18.0378  -21.2854  -10.5288 C   0  0  0  0  0  0  0  0  0  0  0  0
   19.2525  -22.0679  -11.0255 C   0  0  2  0  0  0  0  0  0  0  0  0
   20.3477  -21.1322  -11.1216 N   0  0  0  0  0  0  0  0  0  0  0  0
   18.9200  -22.6876  -12.3210 C   0  0  0  0  0  0  0  0  0  0  0  0
   19.2274  -22.1129  -13.3825 O   0  0  0  0  0  0  0  0  0  0  0  0
   18.2698  -23.9017  -12.3521 O   0  0  0  0  0  0  0  0  0  0  0  0
  2  1  1  6
  2  3  1  0
  2 13  1  0
  4  3  1  0
  4  5  2  0
  6  5  1  0
  7  6  1  0
  8  7  2  0
  9  8  1  0
 10  9  2  0
 10 11  1  0
 11 12  2  0
 12  7  1  0
 12  4  1  0
 13 14  2  0
 16 15  1  6
 17 13  1  0
 17 16  1  0
 18 16  1  0
 18 19  2  0
 21 20  1  6
 21 23  1  0
 21 22  1  0
 22 18  1  0
 23 25  1  0
 24 23  2  0
M  END
$$$$
