WAA.pdb
     RDKit          3D

 25 26  0  0  1  0  0  0  0  0999 V2000
   25.6444  -19.4323  -12.5093 N   0  0  0  0  0  0  0  0  0  0  0  0
   26.6534  -20.4953  -12.6398 C   0  0  1  0  0  0  0  0  0  0  0  0
   26.2417  -21.5653  -11.6644 C   0  0  0  0  0  0  0  0  0  0  0  0
   26.2185  -21.1242  -10.2591 C   0  0  0  0  0  0  0  0  0  0  0  0
   25.0674  -20.9536   -9.4954 C   0  0  0  0  0  0  0  0  0  0  0  0
   25.4186  -20.5459   -8.2682 N   0  0  0  0  0  0  0  0  0  0  0  0
   26.7640  -20.4311   -8.1638 C   0  0  0  0  0  0  0  0  0  0  0  0
   27.5935  -20.0559   -7.1327 C   0  0  0  0  0  0  0  0  0  0  0  0
   28.9557  -20.0355   -7.3315 C   0  0  0  0  0  0  0  0  0  0  0  0
   29.4552  -20.3933   -8.5657 C   0  0  0  0  0  0  0  0  0  0  0  0
   28.6136  -20.7712   -9.6027 C   0  0  0  0  0  0  0  0  0  0  0  0
   27.2564  -20.7949   -9.4142 C   0  0  0  0  0  0  0  0  0  0  0  0
   26.6110  -20.9717  -14.0459 C   0  0  0  0  0  0  0  0  0  0  0  0
   25.5451  -20.9109  -14.7148 O   0  0  0  0  0  0  0  0  0  0  0  0
   29.0820  -22.1729  -16.5843 C   0  0  0  0  0  0  0  0  0  0  0  0
   27.7161  -21.7275  -16.1482 C   0  0  2  0  0  0  0  0  0  0  0  0
   27.7562  -21.5144  -14.7025 N   0  0  0  0  0  0  0  0  0  0  0  0
   26.6738  -22.7457  -16.4697 C   0  0  0  0  0  0  0  0  0  0  0  0
   26.5364  -23.7751  -15.7628 O   0  0  0  0  0  0  0  0  0  0  0  0
   23.6771  -22.8743  -18.6470 C   0  0  0  0  0  0  0  0  0  0  0  0
   24.7711  -23.5754  -17.8430 C   0  0  2  0  0  0  0  0  0  0  0  0
   25.7978  -22.5947  -17.5816 N   0  0  0  0  0  0  0  0  0  0  0  0
   25.2685  -24.7245  -18.6209 C   0  0  0  0  0  0  0  0  0  0  0  0
   26.3215  -24.6215  -19.2784 O   0  0  0  0  0  0  0  0  0  0  0  0
   24.5655  -25.9092  -18.6172 O   0  0  0  0  0  0  0  0  0  0  0  0
  2  1  1  6
  2  3  1  0
  2 13  1  0
  4  3  1  0
  4  5  2  0
  6  5  1  0
  7  6  1  0
  8  7  2  0
  9  8  1  0
 10  9  2  0
 10 11  1  0
 11 12  2  0
 12  7  1  0
 12  4  1  0
 13 14  2  0
 16 15  1  1
 17 13  1  0
 17 16  1  0
 18 16  1  0
 18 19  2  0
 21 20  1  6
 21 23  1  0
 21 22  1  0
 22 18  1  0
 23 25  1  0
 24 23  2  0
M  END
$$$$
