WAA.pdb
     RDKit          3D

 25 26  0  0  1  0  0  0  0  0999 V2000
   25.6912  -19.8176   -9.9818 N   0  0  0  0  0  0  0  0  0  0  0  0
   26.9974  -20.4949   -9.9795 C   0  0  1  0  0  0  0  0  0  0  0  0
   26.9935  -21.3759   -8.7590 C   0  0  0  0  0  0  0  0  0  0  0  0
   27.1326  -20.6458   -7.4872 C   0  0  0  0  0  0  0  0  0  0  0  0
   26.1472  -19.8470   -6.9140 C   0  0  0  0  0  0  0  0  0  0  0  0
   26.6147  -19.3407   -5.7648 N   0  0  0  0  0  0  0  0  0  0  0  0
   27.8805  -19.7619   -5.5307 C   0  0  0  0  0  0  0  0  0  0  0  0
   28.7713  -19.5248   -4.5099 C   0  0  0  0  0  0  0  0  0  0  0  0
   30.0181  -20.1076   -4.5490 C   0  0  0  0  0  0  0  0  0  0  0  0
   30.3426  -20.9177   -5.6164 C   0  0  0  0  0  0  0  0  0  0  0  0
   29.4398  -21.1535   -6.6439 C   0  0  0  0  0  0  0  0  0  0  0  0
   28.1963  -20.5780   -6.6135 C   0  0  0  0  0  0  0  0  0  0  0  0
   27.0885  -21.2794  -11.2373 C   0  0  0  0  0  0  0  0  0  0  0  0
   27.3657  -22.5081  -11.2115 O   0  0  0  0  0  0  0  0  0  0  0  0
   24.9050  -21.9520  -13.0532 C   0  0  0  0  0  0  0  0  0  0  0  0
   26.2360  -21.4876  -13.5701 C   0  0  2  0  0  0  0  0  0  0  0  0
   26.8703  -20.6927  -12.5199 N   0  0  0  0  0  0  0  0  0  0  0  0
   26.0918  -20.6568  -14.8010 C   0  0  0  0  0  0  0  0  0  0  0  0
   25.5637  -21.1267  -15.8395 O   0  0  0  0  0  0  0  0  0  0  0  0
   26.9115  -17.1314  -15.7666 C   0  0  0  0  0  0  0  0  0  0  0  0
   26.5107  -18.5698  -16.0909 C   0  0  2  0  0  0  0  0  0  0  0  0
   26.5422  -19.3073  -14.8502 N   0  0  0  0  0  0  0  0  0  0  0  0
   27.4461  -19.1078  -17.0950 C   0  0  0  0  0  0  0  0  0  0  0  0
   28.4364  -19.7699  -16.7309 O   0  0  0  0  0  0  0  0  0  0  0  0
   27.2208  -18.8755  -18.4341 O   0  0  0  0  0  0  0  0  0  0  0  0
  2  1  1  6
  2  3  1  0
  2 13  1  0
  4  3  1  0
  4  5  2  0
  6  5  1  0
  7  6  1  0
  8  7  2  0
  9  8  1  0
 10  9  2  0
 10 11  1  0
 11 12  2  0
 12  7  1  0
 12  4  1  0
 13 14  2  0
 16 15  1  1
 17 13  1  0
 17 16  1  0
 18 16  1  0
 18 19  2  0
 21 20  1  1
 21 23  1  0
 21 22  1  0
 22 18  1  0
 23 25  1  0
 24 23  2  0
M  END
$$$$
