WAA.pdb
     RDKit          3D

 25 26  0  0  1  0  0  0  0  0999 V2000
   24.6089  -19.5891  -10.2678 N   0  0  0  0  0  0  0  0  0  0  0  0
   26.0430  -19.8215  -10.5007 C   0  0  1  0  0  0  0  0  0  0  0  0
   26.3756  -21.0819   -9.7479 C   0  0  0  0  0  0  0  0  0  0  0  0
   26.3158  -20.9432   -8.2826 C   0  0  0  0  0  0  0  0  0  0  0  0
   25.1698  -21.1140   -7.5112 C   0  0  0  0  0  0  0  0  0  0  0  0
   25.4808  -20.9126   -6.2234 N   0  0  0  0  0  0  0  0  0  0  0  0
   26.7939  -20.6109   -6.0850 C   0  0  0  0  0  0  0  0  0  0  0  0
   27.5778  -20.3259   -4.9913 C   0  0  0  0  0  0  0  0  0  0  0  0
   28.9153  -20.0515   -5.1688 C   0  0  0  0  0  0  0  0  0  0  0  0
   29.4363  -20.0693   -6.4451 C   0  0  0  0  0  0  0  0  0  0  0  0
   28.6407  -20.3575   -7.5453 C   0  0  0  0  0  0  0  0  0  0  0  0
   27.3084  -20.6323   -7.3785 C   0  0  0  0  0  0  0  0  0  0  0  0
   26.2313  -19.9770  -11.9657 C   0  0  0  0  0  0  0  0  0  0  0  0
   25.2487  -20.2042  -12.7209 O   0  0  0  0  0  0  0  0  0  0  0  0
   28.9791  -18.5498  -13.9333 C   0  0  0  0  0  0  0  0  0  0  0  0
   27.6317  -19.2100  -13.8795 C   0  0  2  0  0  0  0  0  0  0  0  0
   27.5134  -19.8787  -12.5849 N   0  0  0  0  0  0  0  0  0  0  0  0
   27.4632  -20.2125  -14.9717 C   0  0  0  0  0  0  0  0  0  0  0  0
   27.5868  -19.8814  -16.1772 O   0  0  0  0  0  0  0  0  0  0  0  0
   27.1005  -23.9228  -15.1397 C   0  0  0  0  0  0  0  0  0  0  0  0
   27.0477  -22.5326  -15.7713 C   0  0  2  0  0  0  0  0  0  0  0  0
   27.1584  -21.5754  -14.6962 N   0  0  0  0  0  0  0  0  0  0  0  0
   25.7856  -22.4002  -16.5214 C   0  0  0  0  0  0  0  0  0  0  0  0
   24.8005  -21.8536  -15.9900 O   0  0  0  0  0  0  0  0  0  0  0  0
   25.7010  -22.8824  -17.8091 O   0  0  0  0  0  0  0  0  0  0  0  0
  2  1  1  6
  2  3  1  0
  2 13  1  0
  4  3  1  0
  4  5  2  0
  6  5  1  0
  7  6  1  0
  8  7  2  0
  9  8  1  0
 10  9  2  0
 10 11  1  0
 11 12  2  0
 12  7  1  0
 12  4  1  0
 13 14  2  0
 16 15  1  1
 17 13  1  0
 17 16  1  0
 18 16  1  0
 18 19  2  0
 21 20  1  1
 21 23  1  0
 21 22  1  0
 22 18  1  0
 23 25  1  0
 24 23  2  0
M  END
$$$$
