WAA.pdb
     RDKit          3D

 25 26  0  0  1  0  0  0  0  0999 V2000
   22.1354  -10.6355  -19.3215 N   0  0  0  0  0  0  0  0  0  0  0  0
   20.7061  -10.6264  -18.9724 C   0  0  1  0  0  0  0  0  0  0  0  0
   20.6163  -11.2810  -17.6199 C   0  0  0  0  0  0  0  0  0  0  0  0
   20.6063  -12.7534  -17.6615 C   0  0  0  0  0  0  0  0  0  0  0  0
   21.6290  -13.5438  -18.1782 C   0  0  0  0  0  0  0  0  0  0  0  0
   21.2849  -14.8328  -18.0532 N   0  0  0  0  0  0  0  0  0  0  0  0
   20.0677  -14.9539  -17.4718 C   0  0  0  0  0  0  0  0  0  0  0  0
   19.2960  -16.0416  -17.1351 C   0  0  0  0  0  0  0  0  0  0  0  0
   18.0703  -15.8451  -16.5397 C   0  0  0  0  0  0  0  0  0  0  0  0
   17.6462  -14.5561  -16.2956 C   0  0  0  0  0  0  0  0  0  0  0  0
   18.4290  -13.4621  -16.6374 C   0  0  0  0  0  0  0  0  0  0  0  0
   19.6506  -13.6478  -17.2301 C   0  0  0  0  0  0  0  0  0  0  0  0
   20.2705   -9.2069  -18.9386 C   0  0  0  0  0  0  0  0  0  0  0  0
   21.0687   -8.2963  -18.5908 O   0  0  0  0  0  0  0  0  0  0  0  0
   17.6111   -7.0751  -20.2676 C   0  0  0  0  0  0  0  0  0  0  0  0
   18.5659   -7.4016  -19.1557 C   0  0  2  0  0  0  0  0  0  0  0  0
   18.9471   -8.8062  -19.2925 N   0  0  0  0  0  0  0  0  0  0  0  0
   17.9481   -7.1847  -17.8150 C   0  0  0  0  0  0  0  0  0  0  0  0
   17.6042   -6.0359  -17.4403 O   0  0  0  0  0  0  0  0  0  0  0  0
   16.3732   -9.3449  -15.2641 C   0  0  0  0  0  0  0  0  0  0  0  0
   17.0538   -8.0333  -15.6528 C   0  0  2  0  0  0  0  0  0  0  0  0
   17.7236   -8.2614  -16.9112 N   0  0  0  0  0  0  0  0  0  0  0  0
   17.9838   -7.6447  -14.5771 C   0  0  0  0  0  0  0  0  0  0  0  0
   17.5400   -7.3041  -13.4641 O   0  0  0  0  0  0  0  0  0  0  0  0
   19.3418   -7.6599  -14.8078 O   0  0  0  0  0  0  0  0  0  0  0  0
  2  1  1  1
  2  3  1  0
  2 13  1  0
  4  3  1  0
  4  5  2  0
  6  5  1  0
  7  6  1  0
  8  7  2  0
  9  8  1  0
 10  9  2  0
 10 11  1  0
 11 12  2  0
 12  7  1  0
 12  4  1  0
 13 14  2  0
 16 15  1  6
 17 13  1  0
 17 16  1  0
 18 16  1  0
 18 19  2  0
 21 20  1  1
 21 23  1  0
 21 22  1  0
 22 18  1  0
 23 25  1  0
 24 23  2  0
M  END
$$$$
