WAA.pdb
     RDKit          3D

 25 26  0  0  1  0  0  0  0  0999 V2000
   25.7660  -21.8659   -9.6534 N   0  0  0  0  0  0  0  0  0  0  0  0
   25.8526  -20.4479  -10.0367 C   0  0  1  0  0  0  0  0  0  0  0  0
   27.1453  -19.9487   -9.4489 C   0  0  0  0  0  0  0  0  0  0  0  0
   27.0914  -19.6969   -7.9986 C   0  0  0  0  0  0  0  0  0  0  0  0
   25.9537  -19.3053   -7.2986 C   0  0  0  0  0  0  0  0  0  0  0  0
   26.2682  -19.1686   -6.0032 N   0  0  0  0  0  0  0  0  0  0  0  0
   27.5757  -19.4510   -5.7910 C   0  0  0  0  0  0  0  0  0  0  0  0
   28.3602  -19.4555   -4.6612 C   0  0  0  0  0  0  0  0  0  0  0  0
   29.6908  -19.7948   -4.7610 C   0  0  0  0  0  0  0  0  0  0  0  0
   30.2047  -20.1227   -5.9976 C   0  0  0  0  0  0  0  0  0  0  0  0
   29.4085  -20.1167   -7.1345 C   0  0  0  0  0  0  0  0  0  0  0  0
   28.0829  -19.7806   -7.0450 C   0  0  0  0  0  0  0  0  0  0  0  0
   25.8528  -20.3927  -11.5208 C   0  0  0  0  0  0  0  0  0  0  0  0
   26.2484  -19.3614  -12.1270 O   0  0  0  0  0  0  0  0  0  0  0  0
   25.9017  -22.5848  -14.3956 C   0  0  0  0  0  0  0  0  0  0  0  0
   25.3594  -21.3285  -13.7775 C   0  0  2  0  0  0  0  0  0  0  0  0
   25.4125  -21.4864  -12.3252 N   0  0  0  0  0  0  0  0  0  0  0  0
   23.9508  -21.0699  -14.1961 C   0  0  0  0  0  0  0  0  0  0  0  0
   22.9900  -21.6304  -13.6121 O   0  0  0  0  0  0  0  0  0  0  0  0
   22.2445  -18.7927  -16.6191 C   0  0  0  0  0  0  0  0  0  0  0  0
   22.2718  -20.0114  -15.6980 C   0  0  2  0  0  0  0  0  0  0  0  0
   23.6384  -20.1841  -15.2658 N   0  0  0  0  0  0  0  0  0  0  0  0
   21.7593  -21.1778  -16.4395 C   0  0  0  0  0  0  0  0  0  0  0  0
   22.5494  -21.9246  -17.0475 O   0  0  0  0  0  0  0  0  0  0  0  0
   20.4064  -21.4373  -16.4569 O   0  0  0  0  0  0  0  0  0  0  0  0
  2  1  1  6
  2  3  1  0
  2 13  1  0
  4  3  1  0
  4  5  2  0
  6  5  1  0
  7  6  1  0
  8  7  2  0
  9  8  1  0
 10  9  2  0
 10 11  1  0
 11 12  2  0
 12  7  1  0
 12  4  1  0
 13 14  2  0
 16 15  1  6
 17 13  1  0
 17 16  1  0
 18 16  1  0
 18 19  2  0
 21 20  1  6
 21 23  1  0
 21 22  1  0
 22 18  1  0
 23 25  1  0
 24 23  2  0
M  END
$$$$
