WAA.pdb
     RDKit          3D

 25 26  0  0  1  0  0  0  0  0999 V2000
   27.5097  -21.4273  -10.6026 N   0  0  0  0  0  0  0  0  0  0  0  0
   26.1272  -21.2200  -10.1435 C   0  0  1  0  0  0  0  0  0  0  0  0
   26.2376  -20.3986   -8.8869 C   0  0  0  0  0  0  0  0  0  0  0  0
   27.5431  -20.5000   -8.2124 C   0  0  0  0  0  0  0  0  0  0  0  0
   28.7375  -20.8517   -8.8348 C   0  0  0  0  0  0  0  0  0  0  0  0
   29.7195  -20.8434   -7.9231 N   0  0  0  0  0  0  0  0  0  0  0  0
   29.2429  -20.5002   -6.7027 C   0  0  0  0  0  0  0  0  0  0  0  0
   29.8404  -20.3543   -5.4724 C   0  0  0  0  0  0  0  0  0  0  0  0
   29.0771  -19.9862   -4.3873 C   0  0  0  0  0  0  0  0  0  0  0  0
   27.7265  -19.7727   -4.5634 C   0  0  0  0  0  0  0  0  0  0  0  0
   27.1286  -19.9214   -5.8071 C   0  0  0  0  0  0  0  0  0  0  0  0
   27.8803  -20.2871   -6.8931 C   0  0  0  0  0  0  0  0  0  0  0  0
   25.4084  -20.4980  -11.2243 C   0  0  0  0  0  0  0  0  0  0  0  0
   25.7710  -19.3452  -11.5806 O   0  0  0  0  0  0  0  0  0  0  0  0
   25.0117  -20.7240  -14.1618 C   0  0  0  0  0  0  0  0  0  0  0  0
   23.8831  -20.5081  -13.1954 C   0  0  2  0  0  0  0  0  0  0  0  0
   24.2880  -21.0625  -11.9048 N   0  0  0  0  0  0  0  0  0  0  0  0
   22.6298  -21.1777  -13.6505 C   0  0  0  0  0  0  0  0  0  0  0  0
   22.1368  -20.9278  -14.7787 O   0  0  0  0  0  0  0  0  0  0  0  0
   20.1240  -23.4352  -12.0175 C   0  0  0  0  0  0  0  0  0  0  0  0
   20.5159  -22.2866  -12.9457 C   0  0  2  0  0  0  0  0  0  0  0  0
   21.9456  -22.1208  -12.8326 N   0  0  0  0  0  0  0  0  0  0  0  0
   19.7711  -21.0789  -12.5461 C   0  0  0  0  0  0  0  0  0  0  0  0
   18.6028  -20.9087  -12.9434 O   0  0  0  0  0  0  0  0  0  0  0  0
   20.3714  -20.1421  -11.7338 O   0  0  0  0  0  0  0  0  0  0  0  0
  2  1  1  6
  2  3  1  0
  2 13  1  0
  4  3  1  0
  4  5  2  0
  6  5  1  0
  7  6  1  0
  8  7  2  0
  9  8  1  0
 10  9  2  0
 10 11  1  0
 11 12  2  0
 12  7  1  0
 12  4  1  0
 13 14  2  0
 16 15  1  6
 17 13  1  0
 17 16  1  0
 18 16  1  0
 18 19  2  0
 21 20  1  1
 21 23  1  0
 21 22  1  0
 22 18  1  0
 23 25  1  0
 24 23  2  0
M  END
$$$$
