WAA.pdb
     RDKit          3D

 25 26  0  0  1  0  0  0  0  0999 V2000
   25.3588  -19.9768   -9.9774 N   0  0  0  0  0  0  0  0  0  0  0  0
   26.6947  -20.4662  -10.3526 C   0  0  1  0  0  0  0  0  0  0  0  0
   27.1626  -21.2970   -9.1878 C   0  0  0  0  0  0  0  0  0  0  0  0
   27.3137  -20.5434   -7.9312 C   0  0  0  0  0  0  0  0  0  0  0  0
   26.3673  -19.6673   -7.4076 C   0  0  0  0  0  0  0  0  0  0  0  0
   26.8348  -19.1615   -6.2582 N   0  0  0  0  0  0  0  0  0  0  0  0
   28.0632  -19.6574   -5.9763 C   0  0  0  0  0  0  0  0  0  0  0  0
   28.9389  -19.4512   -4.9358 C   0  0  0  0  0  0  0  0  0  0  0  0
   30.1453  -20.1145   -4.9234 C   0  0  0  0  0  0  0  0  0  0  0  0
   30.4456  -20.9723   -5.9601 C   0  0  0  0  0  0  0  0  0  0  0  0
   29.5583  -21.1767   -7.0076 C   0  0  0  0  0  0  0  0  0  0  0  0
   28.3549  -20.5212   -7.0285 C   0  0  0  0  0  0  0  0  0  0  0  0
   26.5363  -21.2732  -11.5894 C   0  0  0  0  0  0  0  0  0  0  0  0
   25.4227  -21.7805  -11.8893 O   0  0  0  0  0  0  0  0  0  0  0  0
   27.4745  -19.3938  -13.5944 C   0  0  0  0  0  0  0  0  0  0  0  0
   27.6089  -20.8745  -13.8036 C   0  0  2  0  0  0  0  0  0  0  0  0
   27.6188  -21.5124  -12.4883 N   0  0  0  0  0  0  0  0  0  0  0  0
   28.8660  -21.2183  -14.5300 C   0  0  0  0  0  0  0  0  0  0  0  0
   29.1470  -20.6757  -15.6277 O   0  0  0  0  0  0  0  0  0  0  0  0
   32.0222  -22.9659  -13.6930 C   0  0  0  0  0  0  0  0  0  0  0  0
   31.0161  -22.4570  -14.7242 C   0  0  2  0  0  0  0  0  0  0  0  0
   29.7928  -22.1677  -14.0141 N   0  0  0  0  0  0  0  0  0  0  0  0
   30.8392  -23.4879  -15.7629 C   0  0  0  0  0  0  0  0  0  0  0  0
   29.7140  -23.9838  -15.9619 O   0  0  0  0  0  0  0  0  0  0  0  0
   31.9210  -23.8991  -16.5102 O   0  0  0  0  0  0  0  0  0  0  0  0
  2  1  1  1
  2  3  1  0
  2 13  1  0
  4  3  1  0
  4  5  2  0
  6  5  1  0
  7  6  1  0
  8  7  2  0
  9  8  1  0
 10  9  2  0
 10 11  1  0
 11 12  2  0
 12  7  1  0
 12  4  1  0
 13 14  2  0
 16 15  1  1
 17 13  1  0
 17 16  1  0
 18 16  1  0
 18 19  2  0
 21 20  1  1
 21 23  1  0
 21 22  1  0
 22 18  1  0
 23 25  1  0
 24 23  2  0
M  END
$$$$
