WAA.pdb
     RDKit          3D

 25 26  0  0  1  0  0  0  0  0999 V2000
   28.0924  -21.1026  -15.2968 N   0  0  0  0  0  0  0  0  0  0  0  0
   26.9201  -21.8218  -14.7739 C   0  0  1  0  0  0  0  0  0  0  0  0
   25.8748  -20.7667  -14.5289 C   0  0  0  0  0  0  0  0  0  0  0  0
   26.1664  -19.8817  -13.3881 C   0  0  0  0  0  0  0  0  0  0  0  0
   26.6523  -18.5813  -13.4910 C   0  0  0  0  0  0  0  0  0  0  0  0
   26.8001  -18.0758  -12.2589 N   0  0  0  0  0  0  0  0  0  0  0  0
   26.4346  -18.9796  -11.3187 C   0  0  0  0  0  0  0  0  0  0  0  0
   26.4054  -18.9394   -9.9441 C   0  0  0  0  0  0  0  0  0  0  0  0
   25.9737  -20.0426   -9.2425 C   0  0  0  0  0  0  0  0  0  0  0  0
   25.5802  -21.1647   -9.9402 C   0  0  0  0  0  0  0  0  0  0  0  0
   25.6116  -21.1999  -11.3274 C   0  0  0  0  0  0  0  0  0  0  0  0
   26.0395  -20.1066  -12.0343 C   0  0  0  0  0  0  0  0  0  0  0  0
   26.5013  -22.7955  -15.8143 C   0  0  0  0  0  0  0  0  0  0  0  0
   26.6085  -22.5164  -17.0382 O   0  0  0  0  0  0  0  0  0  0  0  0
   25.7280  -26.3871  -16.0715 C   0  0  0  0  0  0  0  0  0  0  0  0
   25.5643  -24.9791  -16.5666 C   0  0  2  0  0  0  0  0  0  0  0  0
   25.9644  -24.0771  -15.4880 N   0  0  0  0  0  0  0  0  0  0  0  0
   24.1530  -24.6904  -16.9554 C   0  0  0  0  0  0  0  0  0  0  0  0
   23.6089  -25.2979  -17.9110 O   0  0  0  0  0  0  0  0  0  0  0  0
   21.2325  -22.9509  -15.5251 C   0  0  0  0  0  0  0  0  0  0  0  0
   22.0537  -23.3702  -16.7434 C   0  0  2  0  0  0  0  0  0  0  0  0
   23.3695  -23.7226  -16.2654 N   0  0  0  0  0  0  0  0  0  0  0  0
   22.0795  -22.2532  -17.7051 C   0  0  0  0  0  0  0  0  0  0  0  0
   23.0037  -21.4191  -17.6650 O   0  0  0  0  0  0  0  0  0  0  0  0
   21.0795  -22.1366  -18.6454 O   0  0  0  0  0  0  0  0  0  0  0  0
  2  1  1  6
  2  3  1  0
  2 13  1  0
  4  3  1  0
  4  5  2  0
  6  5  1  0
  7  6  1  0
  8  7  2  0
  9  8  1  0
 10  9  2  0
 10 11  1  0
 11 12  2  0
 12  7  1  0
 12  4  1  0
 13 14  2  0
 16 15  1  1
 17 13  1  0
 17 16  1  0
 18 16  1  0
 18 19  2  0
 21 20  1  1
 21 23  1  0
 21 22  1  0
 22 18  1  0
 23 25  1  0
 24 23  2  0
M  END
$$$$
