GIT.pdb
     RDKit          3D

 20 19  0  0  1  0  0  0  0  0999 V2000
   25.9606  -18.7360  -16.9151 N   0  0  0  0  0  0  0  0  0  0  0  0
   26.0620  -18.2189  -15.5698 C   0  0  0  0  0  0  0  0  0  0  0  0
   26.1583  -19.3466  -14.5868 C   0  0  0  0  0  0  0  0  0  0  0  0
   25.3575  -20.3121  -14.6922 O   0  0  0  0  0  0  0  0  0  0  0  0
   30.9755  -20.9826  -12.5460 C   0  0  0  0  0  0  0  0  0  0  0  0
   29.5577  -20.9530  -13.0358 C   0  0  0  0  0  0  0  0  0  0  0  0
   28.5685  -20.5320  -11.9717 C   0  0  2  0  0  0  0  0  0  0  0  0
   28.5063  -21.6529  -10.9387 C   0  0  0  0  0  0  0  0  0  0  0  0
   27.1904  -20.3258  -12.5073 C   0  0  2  0  0  0  0  0  0  0  0  0
   27.1293  -19.3375  -13.5526 N   0  0  0  0  0  0  0  0  0  0  0  0
   26.3261  -19.9107  -11.3405 C   0  0  0  0  0  0  0  0  0  0  0  0
   26.4503  -18.7844  -10.8361 O   0  0  0  0  0  0  0  0  0  0  0  0
   22.5392  -20.7160   -8.2649 C   0  0  0  0  0  0  0  0  0  0  0  0
   23.2917  -21.1231   -9.5172 C   0  0  1  0  0  0  0  0  0  0  0  0
   22.4586  -20.9706  -10.6000 O   0  0  0  0  0  0  0  0  0  0  0  0
   24.5874  -20.3535   -9.6647 C   0  0  2  0  0  0  0  0  0  0  0  0
   25.3580  -20.7945  -10.7981 N   0  0  0  0  0  0  0  0  0  0  0  0
   25.3717  -20.6110   -8.4328 C   0  0  0  0  0  0  0  0  0  0  0  0
   26.0952  -21.6333   -8.3854 O   0  0  0  0  0  0  0  0  0  0  0  0
   25.3037  -19.7327   -7.3517 O   0  0  0  0  0  0  0  0  0  0  0  0
  2  1  1  0
  3 10  1  0
  3  2  1  0
  4  3  2  0
  5  6  1  0
  7  6  1  0
  7  8  1  1
  9  7  1  0
  9 10  1  6
 11  9  1  0
 11 17  1  0
 12 11  2  0
 14 13  1  1
 14 15  1  0
 16 17  1  6
 16 14  1  0
 18 16  1  0
 19 18  2  0
 20 18  1  0
M  END
$$$$
