GIT.pdb
     RDKit          3D

 20 19  0  0  1  0  0  0  0  0999 V2000
   14.2333  -11.3113    4.8194 N   0  0  0  0  0  0  0  0  0  0  0  0
   15.5346  -11.8515    5.1397 C   0  0  0  0  0  0  0  0  0  0  0  0
   15.5481  -13.3347    4.9221 C   0  0  0  0  0  0  0  0  0  0  0  0
   14.4515  -13.9515    4.8852 O   0  0  0  0  0  0  0  0  0  0  0  0
   19.1752  -15.3048    1.4857 C   0  0  0  0  0  0  0  0  0  0  0  0
   17.9447  -15.0806    2.3144 C   0  0  0  0  0  0  0  0  0  0  0  0
   17.9536  -15.8526    3.6152 C   0  0  2  0  0  0  0  0  0  0  0  0
   17.7779  -17.3282    3.2702 C   0  0  0  0  0  0  0  0  0  0  0  0
   16.8423  -15.4610    4.5317 C   0  0  2  0  0  0  0  0  0  0  0  0
   16.7675  -14.0412    4.7594 N   0  0  0  0  0  0  0  0  0  0  0  0
   17.0726  -16.1906    5.8338 C   0  0  0  0  0  0  0  0  0  0  0  0
   17.9771  -15.8323    6.6032 O   0  0  0  0  0  0  0  0  0  0  0  0
   15.5229  -19.2943    9.3394 C   0  0  0  0  0  0  0  0  0  0  0  0
   15.2991  -18.7186    7.9543 C   0  0  1  0  0  0  0  0  0  0  0  0
   14.1346  -17.9879    7.9647 O   0  0  0  0  0  0  0  0  0  0  0  0
   16.4911  -17.9105    7.4865 C   0  0  2  0  0  0  0  0  0  0  0  0
   16.2643  -17.2960    6.2043 N   0  0  0  0  0  0  0  0  0  0  0  0
   17.6206  -18.8627    7.3593 C   0  0  0  0  0  0  0  0  0  0  0  0
   17.6654  -19.6091    6.3534 O   0  0  0  0  0  0  0  0  0  0  0  0
   18.6106  -18.9244    8.3395 O   0  0  0  0  0  0  0  0  0  0  0  0
  2  1  1  0
  3 10  1  0
  3  2  1  0
  4  3  2  0
  5  6  1  0
  7  6  1  0
  7  8  1  6
  9  7  1  0
  9 10  1  1
 11  9  1  0
 11 17  1  0
 12 11  2  0
 14 13  1  1
 14 15  1  0
 16 17  1  6
 16 14  1  0
 18 16  1  0
 19 18  2  0
 20 18  1  0
M  END
$$$$
