GIT.pdb
     RDKit          3D

 20 19  0  0  1  0  0  0  0  0999 V2000
   28.5192  -21.9047  -15.7623 N   0  0  0  0  0  0  0  0  0  0  0  0
   28.0312  -20.8605  -14.8911 C   0  0  0  0  0  0  0  0  0  0  0  0
   26.7728  -21.3025  -14.2066 C   0  0  0  0  0  0  0  0  0  0  0  0
   26.2145  -22.3631  -14.5912 O   0  0  0  0  0  0  0  0  0  0  0  0
   26.3572  -20.5297   -8.8612 C   0  0  0  0  0  0  0  0  0  0  0  0
   26.2196  -21.0913  -10.2456 C   0  0  0  0  0  0  0  0  0  0  0  0
   25.0313  -20.5354  -10.9986 C   0  0  2  0  0  0  0  0  0  0  0  0
   23.7736  -21.1001  -10.3453 C   0  0  0  0  0  0  0  0  0  0  0  0
   25.0172  -20.9317  -12.4377 C   0  0  2  0  0  0  0  0  0  0  0  0
   26.2118  -20.5482  -13.1441 N   0  0  0  0  0  0  0  0  0  0  0  0
   23.8063  -20.2772  -13.0590 C   0  0  0  0  0  0  0  0  0  0  0  0
   23.6511  -19.0486  -12.9892 O   0  0  0  0  0  0  0  0  0  0  0  0
   22.8380  -20.1297  -16.6841 C   0  0  0  0  0  0  0  0  0  0  0  0
   21.6990  -20.7406  -15.8908 C   0  0  1  0  0  0  0  0  0  0  0  0
   21.7095  -22.1018  -16.0832 O   0  0  0  0  0  0  0  0  0  0  0  0
   21.7695  -20.3574  -14.4275 C   0  0  2  0  0  0  0  0  0  0  0  0
   22.8245  -21.0483  -13.7328 N   0  0  0  0  0  0  0  0  0  0  0  0
   20.4725  -20.7521  -13.8268 C   0  0  0  0  0  0  0  0  0  0  0  0
   20.4491  -21.7241  -13.0359 O   0  0  0  0  0  0  0  0  0  0  0  0
   19.3054  -20.0548  -14.1369 O   0  0  0  0  0  0  0  0  0  0  0  0
  2  1  1  0
  3 10  1  0
  3  2  1  0
  4  3  2  0
  5  6  1  0
  7  6  1  0
  7  8  1  1
  9  7  1  0
  9 10  1  6
 11  9  1  0
 11 17  1  0
 12 11  2  0
 14 13  1  6
 14 15  1  0
 16 17  1  1
 16 14  1  0
 18 16  1  0
 19 18  2  0
 20 18  1  0
M  END
$$$$
