GIT.pdb
     RDKit          3D

 20 19  0  0  1  0  0  0  0  0999 V2000
   32.1580  -23.0337   -8.8701 N   0  0  0  0  0  0  0  0  0  0  0  0
   31.7797  -21.7153   -8.4161 C   0  0  0  0  0  0  0  0  0  0  0  0
   30.3343  -21.6988   -8.0186 C   0  0  0  0  0  0  0  0  0  0  0  0
   29.6429  -22.7340   -8.2053 O   0  0  0  0  0  0  0  0  0  0  0  0
   30.1231  -19.5813   -4.3488 C   0  0  0  0  0  0  0  0  0  0  0  0
   28.7243  -20.0646   -4.5951 C   0  0  0  0  0  0  0  0  0  0  0  0
   28.1347  -19.5483   -5.8889 C   0  0  2  0  0  0  0  0  0  0  0  0
   26.6283  -19.4212   -5.6841 C   0  0  0  0  0  0  0  0  0  0  0  0
   28.3642  -20.4692   -7.0412 C   0  0  2  0  0  0  0  0  0  0  0  0
   29.7451  -20.5443   -7.4420 N   0  0  0  0  0  0  0  0  0  0  0  0
   27.5129  -19.9627   -8.1812 C   0  0  0  0  0  0  0  0  0  0  0  0
   27.6340  -18.7965   -8.5857 O   0  0  0  0  0  0  0  0  0  0  0  0
   27.8894  -20.9525  -11.5565 C   0  0  0  0  0  0  0  0  0  0  0  0
   26.4292  -21.1991  -11.2292 C   0  0  1  0  0  0  0  0  0  0  0  0
   26.2451  -22.5466  -11.0283 O   0  0  0  0  0  0  0  0  0  0  0  0
   25.9730  -20.3655  -10.0504 C   0  0  2  0  0  0  0  0  0  0  0  0
   26.5608  -20.8046   -8.8116 N   0  0  0  0  0  0  0  0  0  0  0  0
   24.5025  -20.5347   -9.9601 C   0  0  0  0  0  0  0  0  0  0  0  0
   23.7889  -20.0818  -10.8855 O   0  0  0  0  0  0  0  0  0  0  0  0
   23.9287  -21.1843   -8.8676 O   0  0  0  0  0  0  0  0  0  0  0  0
  2  1  1  0
  3 10  1  0
  3  2  1  0
  4  3  2  0
  5  6  1  0
  7  6  1  0
  7  8  1  1
  9  7  1  0
  9 10  1  6
 11  9  1  0
 11 17  1  0
 12 11  2  0
 14 13  1  1
 14 15  1  0
 16 17  1  1
 16 14  1  0
 18 16  1  0
 19 18  2  0
 20 18  1  0
M  END
$$$$
