GIT.pdb
     RDKit          3D

 20 19  0  0  1  0  0  0  0  0999 V2000
   12.7544  -10.3216  -15.1394 N   0  0  0  0  0  0  0  0  0  0  0  0
   13.3974   -9.0700  -14.8116 C   0  0  0  0  0  0  0  0  0  0  0  0
   13.8339   -9.0715  -13.3774 C   0  0  0  0  0  0  0  0  0  0  0  0
   13.0301   -9.4820  -12.5000 O   0  0  0  0  0  0  0  0  0  0  0  0
   18.1815  -10.4918  -13.2843 C   0  0  0  0  0  0  0  0  0  0  0  0
   17.2333  -10.4832  -12.1216 C   0  0  0  0  0  0  0  0  0  0  0  0
   17.0242   -9.1053  -11.5336 C   0  0  2  0  0  0  0  0  0  0  0  0
   17.3718   -9.1857  -10.0503 C   0  0  0  0  0  0  0  0  0  0  0  0
   15.6132   -8.6318  -11.6484 C   0  0  2  0  0  0  0  0  0  0  0  0
   15.1262   -8.6212  -13.0034 N   0  0  0  0  0  0  0  0  0  0  0  0
   15.5708   -7.2399  -11.0639 C   0  0  0  0  0  0  0  0  0  0  0  0
   16.1667   -6.3059  -11.6217 O   0  0  0  0  0  0  0  0  0  0  0  0
   12.3528   -5.2308   -9.5268 C   0  0  0  0  0  0  0  0  0  0  0  0
   13.5575   -5.3124   -8.6091 C   0  0  1  0  0  0  0  0  0  0  0  0
   13.2990   -6.2370   -7.6251 O   0  0  0  0  0  0  0  0  0  0  0  0
   14.8255   -5.6179   -9.3784 C   0  0  2  0  0  0  0  0  0  0  0  0
   14.8527   -6.9706   -9.8705 N   0  0  0  0  0  0  0  0  0  0  0  0
   15.9480   -5.4404   -8.4259 C   0  0  0  0  0  0  0  0  0  0  0  0
   16.5822   -6.4543   -8.0508 O   0  0  0  0  0  0  0  0  0  0  0  0
   16.2886   -4.1713   -7.9589 O   0  0  0  0  0  0  0  0  0  0  0  0
  2  1  1  0
  3 10  1  0
  3  2  1  0
  4  3  2  0
  5  6  1  0
  7  6  1  0
  7  8  1  1
  9  7  1  0
  9 10  1  6
 11  9  1  0
 11 17  1  0
 12 11  2  0
 14 13  1  6
 14 15  1  0
 16 17  1  1
 16 14  1  0
 18 16  1  0
 19 18  2  0
 20 18  1  0
M  END
$$$$
