GIT.pdb
     RDKit          3D

 20 19  0  0  1  0  0  0  0  0999 V2000
   20.5469  -11.7615  -19.1125 N   0  0  0  0  0  0  0  0  0  0  0  0
   21.9548  -11.4375  -19.1342 C   0  0  0  0  0  0  0  0  0  0  0  0
   22.4080  -11.0040  -17.7725 C   0  0  0  0  0  0  0  0  0  0  0  0
   21.8277  -11.4786  -16.7613 O   0  0  0  0  0  0  0  0  0  0  0  0
   27.2057  -11.6819  -16.1274 C   0  0  0  0  0  0  0  0  0  0  0  0
   25.7452  -11.3878  -16.3052 C   0  0  0  0  0  0  0  0  0  0  0  0
   25.4051   -9.9255  -16.1205 C   0  0  2  0  0  0  0  0  0  0  0  0
   25.7509   -9.5559  -14.6813 C   0  0  0  0  0  0  0  0  0  0  0  0
   23.9567   -9.6338  -16.3329 C   0  0  2  0  0  0  0  0  0  0  0  0
   23.4699  -10.0768  -17.6135 N   0  0  0  0  0  0  0  0  0  0  0  0
   23.7874   -8.1394  -16.1947 C   0  0  0  0  0  0  0  0  0  0  0  0
   24.5802   -7.3635  -16.7495 O   0  0  0  0  0  0  0  0  0  0  0  0
   21.3308   -5.9063  -17.5484 C   0  0  0  0  0  0  0  0  0  0  0  0
   21.2970   -5.6943  -16.0471 C   0  0  1  0  0  0  0  0  0  0  0  0
   20.1824   -6.3191  -15.5398 O   0  0  0  0  0  0  0  0  0  0  0  0
   22.5782   -6.1607  -15.3885 C   0  0  2  0  0  0  0  0  0  0  0  0
   22.7240   -7.5924  -15.4316 N   0  0  0  0  0  0  0  0  0  0  0  0
   22.4994   -5.7377  -13.9695 C   0  0  0  0  0  0  0  0  0  0  0  0
   22.3722   -6.6188  -13.0873 O   0  0  0  0  0  0  0  0  0  0  0  0
   22.5657   -4.3876  -13.6267 O   0  0  0  0  0  0  0  0  0  0  0  0
  2  1  1  0
  3 10  1  0
  3  2  1  0
  4  3  2  0
  5  6  1  0
  7  6  1  0
  7  8  1  1
  9  7  1  0
  9 10  1  6
 11  9  1  0
 11 17  1  0
 12 11  2  0
 14 13  1  6
 14 15  1  0
 16 17  1  1
 16 14  1  0
 18 16  1  0
 19 18  2  0
 20 18  1  0
M  END
$$$$
