GIT.pdb
     RDKit          3D

 20 19  0  0  1  0  0  0  0  0999 V2000
   18.0879  -11.2302  -18.8711 N   0  0  0  0  0  0  0  0  0  0  0  0
   18.6128   -9.8848  -18.9142 C   0  0  0  0  0  0  0  0  0  0  0  0
   18.9629   -9.4204  -17.5324 C   0  0  0  0  0  0  0  0  0  0  0  0
   18.0327   -9.2023  -16.7128 O   0  0  0  0  0  0  0  0  0  0  0  0
   23.3018  -10.3566  -13.3446 C   0  0  0  0  0  0  0  0  0  0  0  0
   22.2484   -9.4356  -13.8861 C   0  0  0  0  0  0  0  0  0  0  0  0
   21.8056   -9.7952  -15.2871 C   0  0  2  0  0  0  0  0  0  0  0  0
   23.0144   -9.6301  -16.2031 C   0  0  0  0  0  0  0  0  0  0  0  0
   20.7186   -8.9094  -15.7990 C   0  0  2  0  0  0  0  0  0  0  0  0
   20.3134   -9.2266  -17.1437 N   0  0  0  0  0  0  0  0  0  0  0  0
   21.2391   -7.4935  -15.7273 C   0  0  0  0  0  0  0  0  0  0  0  0
   22.1287   -7.1112  -16.5024 O   0  0  0  0  0  0  0  0  0  0  0  0
   20.5647   -2.7862  -14.7175 C   0  0  0  0  0  0  0  0  0  0  0  0
   20.0553   -4.2146  -14.7179 C   0  0  1  0  0  0  0  0  0  0  0  0
   19.1340   -4.3527  -15.7290 O   0  0  0  0  0  0  0  0  0  0  0  0
   21.1899   -5.2119  -14.8220 C   0  0  2  0  0  0  0  0  0  0  0  0
   20.7252   -6.5738  -14.7771 N   0  0  0  0  0  0  0  0  0  0  0  0
   22.0669   -4.9745  -13.6501 C   0  0  0  0  0  0  0  0  0  0  0  0
   21.8706   -5.6439  -12.6089 O   0  0  0  0  0  0  0  0  0  0  0  0
   23.0875   -4.0260  -13.7081 O   0  0  0  0  0  0  0  0  0  0  0  0
  2  1  1  0
  3 10  1  0
  3  2  1  0
  4  3  2  0
  5  6  1  0
  7  6  1  0
  7  8  1  6
  9  7  1  0
  9 10  1  6
 11  9  1  0
 11 17  1  0
 12 11  2  0
 14 13  1  6
 14 15  1  0
 16 17  1  1
 16 14  1  0
 18 16  1  0
 19 18  2  0
 20 18  1  0
M  END
$$$$
