GIT.pdb
     RDKit          3D

 20 19  0  0  1  0  0  0  0  0999 V2000
   19.8923  -12.8805  -18.2927 N   0  0  0  0  0  0  0  0  0  0  0  0
   19.6720  -11.4546  -18.2163 C   0  0  0  0  0  0  0  0  0  0  0  0
   20.3741  -10.8850  -17.0204 C   0  0  0  0  0  0  0  0  0  0  0  0
   19.7510  -10.8144  -15.9289 O   0  0  0  0  0  0  0  0  0  0  0  0
   26.0760  -10.0829  -14.7593 C   0  0  0  0  0  0  0  0  0  0  0  0
   24.6417   -9.6470  -14.8203 C   0  0  0  0  0  0  0  0  0  0  0  0
   23.8675  -10.3010  -15.9432 C   0  0  2  0  0  0  0  0  0  0  0  0
   24.5274   -9.8844  -17.2541 C   0  0  0  0  0  0  0  0  0  0  0  0
   22.4390   -9.8709  -15.9926 C   0  0  2  0  0  0  0  0  0  0  0  0
   21.7153  -10.4306  -17.1044 N   0  0  0  0  0  0  0  0  0  0  0  0
   22.4396   -8.3627  -16.0717 C   0  0  0  0  0  0  0  0  0  0  0  0
   22.8740   -7.7868  -17.0807 O   0  0  0  0  0  0  0  0  0  0  0  0
   20.3694   -4.1288  -15.0834 C   0  0  0  0  0  0  0  0  0  0  0  0
   20.4379   -5.6403  -14.9795 C   0  0  1  0  0  0  0  0  0  0  0  0
   19.5423   -6.1833  -15.8701 O   0  0  0  0  0  0  0  0  0  0  0  0
   21.8484   -6.1507  -15.1858 C   0  0  2  0  0  0  0  0  0  0  0  0
   21.9460   -7.5750  -15.0001 N   0  0  0  0  0  0  0  0  0  0  0  0
   22.6904   -5.4835  -14.1637 C   0  0  0  0  0  0  0  0  0  0  0  0
   23.2408   -4.3963  -14.4567 O   0  0  0  0  0  0  0  0  0  0  0  0
   22.8645   -6.0559  -12.9040 O   0  0  0  0  0  0  0  0  0  0  0  0
  2  1  1  0
  3 10  1  0
  3  2  1  0
  4  3  2  0
  5  6  1  0
  7  6  1  0
  7  8  1  6
  9  7  1  0
  9 10  1  6
 11  9  1  0
 11 17  1  0
 12 11  2  0
 14 13  1  6
 14 15  1  0
 16 17  1  1
 16 14  1  0
 18 16  1  0
 19 18  2  0
 20 18  1  0
M  END
$$$$
