GIT.pdb
     RDKit          3D

 20 19  0  0  1  0  0  0  0  0999 V2000
   18.3556  -13.9073  -17.5071 N   0  0  0  0  0  0  0  0  0  0  0  0
   18.8074  -12.6564  -18.0716 C   0  0  0  0  0  0  0  0  0  0  0  0
   19.2934  -11.7433  -16.9864 C   0  0  0  0  0  0  0  0  0  0  0  0
   18.5401  -11.5155  -16.0040 O   0  0  0  0  0  0  0  0  0  0  0  0
   24.5069  -10.0807  -14.2152 C   0  0  0  0  0  0  0  0  0  0  0  0
   23.0794   -9.7682  -14.5550 C   0  0  0  0  0  0  0  0  0  0  0  0
   22.5408  -10.6063  -15.6933 C   0  0  2  0  0  0  0  0  0  0  0  0
   23.3818  -10.2932  -16.9269 C   0  0  0  0  0  0  0  0  0  0  0  0
   21.1170  -10.2984  -16.0194 C   0  0  2  0  0  0  0  0  0  0  0  0
   20.5761  -11.1413  -17.0539 N   0  0  0  0  0  0  0  0  0  0  0  0
   21.0697   -8.8497  -16.4436 C   0  0  0  0  0  0  0  0  0  0  0  0
   21.6998   -8.4663  -17.4409 O   0  0  0  0  0  0  0  0  0  0  0  0
   18.1253   -6.7844  -17.6177 C   0  0  0  0  0  0  0  0  0  0  0  0
   18.7664   -6.1236  -16.4125 C   0  0  1  0  0  0  0  0  0  0  0  0
   17.9933   -6.3831  -15.3056 O   0  0  0  0  0  0  0  0  0  0  0  0
   20.2050   -6.5614  -16.2353 C   0  0  2  0  0  0  0  0  0  0  0  0
   20.3079   -7.9001  -15.7154 N   0  0  0  0  0  0  0  0  0  0  0  0
   20.8108   -5.6277  -15.2555 C   0  0  0  0  0  0  0  0  0  0  0  0
   21.1225   -6.0657  -14.1233 O   0  0  0  0  0  0  0  0  0  0  0  0
   21.0279   -4.2912  -15.5894 O   0  0  0  0  0  0  0  0  0  0  0  0
  2  1  1  0
  3 10  1  0
  3  2  1  0
  4  3  2  0
  5  6  1  0
  7  6  1  0
  7  8  1  6
  9  7  1  0
  9 10  1  6
 11  9  1  0
 11 17  1  0
 12 11  2  0
 14 13  1  6
 14 15  1  0
 16 17  1  1
 16 14  1  0
 18 16  1  0
 19 18  2  0
 20 18  1  0
M  END
$$$$
