GIT.pdb
     RDKit          3D

 20 19  0  0  1  0  0  0  0  0999 V2000
   28.4240  -22.3719  -15.6247 N   0  0  0  0  0  0  0  0  0  0  0  0
   27.8746  -21.2129  -14.9595 C   0  0  0  0  0  0  0  0  0  0  0  0
   26.6162  -21.5805  -14.2323 C   0  0  0  0  0  0  0  0  0  0  0  0
   25.9923  -22.6150  -14.5860 O   0  0  0  0  0  0  0  0  0  0  0  0
   27.4263  -20.9171  -10.4142 C   0  0  0  0  0  0  0  0  0  0  0  0
   26.0250  -21.4024  -10.1861 C   0  0  0  0  0  0  0  0  0  0  0  0
   24.9942  -20.6489  -10.9972 C   0  0  2  0  0  0  0  0  0  0  0  0
   23.6322  -20.9170  -10.3644 C   0  0  0  0  0  0  0  0  0  0  0  0
   24.9339  -21.0954  -12.4203 C   0  0  2  0  0  0  0  0  0  0  0  0
   26.1273  -20.7854  -13.1639 N   0  0  0  0  0  0  0  0  0  0  0  0
   23.7367  -20.4155  -13.0409 C   0  0  0  0  0  0  0  0  0  0  0  0
   23.6671  -19.1777  -13.0791 O   0  0  0  0  0  0  0  0  0  0  0  0
   22.5711  -20.5087  -16.5989 C   0  0  0  0  0  0  0  0  0  0  0  0
   21.4367  -20.9638  -15.7010 C   0  0  1  0  0  0  0  0  0  0  0  0
   21.3356  -22.3326  -15.7797 O   0  0  0  0  0  0  0  0  0  0  0  0
   21.6181  -20.4726  -14.2802 C   0  0  2  0  0  0  0  0  0  0  0  0
   22.6706  -21.1727  -13.5910 N   0  0  0  0  0  0  0  0  0  0  0  0
   20.3389  -20.7360  -13.5780 C   0  0  0  0  0  0  0  0  0  0  0  0
   20.3157  -21.6128  -12.6827 O   0  0  0  0  0  0  0  0  0  0  0  0
   19.1877  -20.0217  -13.9088 O   0  0  0  0  0  0  0  0  0  0  0  0
  2  1  1  0
  3 10  1  0
  3  2  1  0
  4  3  2  0
  5  6  1  0
  7  6  1  0
  7  8  1  1
  9  7  1  0
  9 10  1  6
 11  9  1  0
 11 17  1  0
 12 11  2  0
 14 13  1  6
 14 15  1  0
 16 17  1  1
 16 14  1  0
 18 16  1  0
 19 18  2  0
 20 18  1  0
M  END
$$$$
