GIT.pdb
     RDKit          3D

 20 19  0  0  1  0  0  0  0  0999 V2000
   27.3478  -18.0483  -17.4084 N   0  0  0  0  0  0  0  0  0  0  0  0
   26.4582  -17.6760  -16.3326 C   0  0  0  0  0  0  0  0  0  0  0  0
   25.9775  -18.8989  -15.6107 C   0  0  0  0  0  0  0  0  0  0  0  0
   25.4159  -19.8111  -16.2718 O   0  0  0  0  0  0  0  0  0  0  0  0
   28.8043  -20.6456  -11.2884 C   0  0  0  0  0  0  0  0  0  0  0  0
   27.9633  -20.5561  -12.5277 C   0  0  0  0  0  0  0  0  0  0  0  0
   26.4828  -20.4492  -12.2365 C   0  0  2  0  0  0  0  0  0  0  0  0
   26.0315  -21.7929  -11.6724 C   0  0  0  0  0  0  0  0  0  0  0  0
   25.6690  -20.1677  -13.4559 C   0  0  2  0  0  0  0  0  0  0  0  0
   26.1465  -19.0373  -14.2090 N   0  0  0  0  0  0  0  0  0  0  0  0
   24.2526  -19.9281  -12.9897 C   0  0  0  0  0  0  0  0  0  0  0  0
   24.0169  -19.1016  -12.0954 O   0  0  0  0  0  0  0  0  0  0  0  0
   21.4235  -18.2639  -14.4928 C   0  0  0  0  0  0  0  0  0  0  0  0
   20.9992  -19.6935  -14.2169 C   0  0  1  0  0  0  0  0  0  0  0  0
   21.0516  -20.4027  -15.3936 O   0  0  0  0  0  0  0  0  0  0  0  0
   21.8327  -20.3212  -13.1196 C   0  0  2  0  0  0  0  0  0  0  0  0
   23.1658  -20.6389  -13.5609 N   0  0  0  0  0  0  0  0  0  0  0  0
   21.1489  -21.5814  -12.7412 C   0  0  0  0  0  0  0  0  0  0  0  0
   21.6911  -22.6711  -13.0405 O   0  0  0  0  0  0  0  0  0  0  0  0
   19.9286  -21.5519  -12.0669 O   0  0  0  0  0  0  0  0  0  0  0  0
  2  1  1  0
  3 10  1  0
  3  2  1  0
  4  3  2  0
  5  6  1  0
  7  6  1  0
  7  8  1  6
  9  7  1  0
  9 10  1  1
 11  9  1  0
 11 17  1  0
 12 11  2  0
 14 13  1  6
 14 15  1  0
 16 17  1  6
 16 14  1  0
 18 16  1  0
 19 18  2  0
 20 18  1  0
M  END
$$$$
