GIT.pdb
     RDKit          3D

 20 19  0  0  1  0  0  0  0  0999 V2000
   19.5097  -14.3079  -17.8051 N   0  0  0  0  0  0  0  0  0  0  0  0
   19.3817  -12.8960  -18.0836 C   0  0  0  0  0  0  0  0  0  0  0  0
   19.8132  -12.0918  -16.8942 C   0  0  0  0  0  0  0  0  0  0  0  0
   19.1164  -12.1376  -15.8469 O   0  0  0  0  0  0  0  0  0  0  0  0
   24.8525  -11.9542  -15.1534 C   0  0  0  0  0  0  0  0  0  0  0  0
   23.3636  -11.8803  -15.3232 C   0  0  0  0  0  0  0  0  0  0  0  0
   22.8637  -10.4785  -15.5938 C   0  0  2  0  0  0  0  0  0  0  0  0
   23.1425   -9.6468  -14.3456 C   0  0  0  0  0  0  0  0  0  0  0  0
   21.3960  -10.4258  -15.8610 C   0  0  2  0  0  0  0  0  0  0  0  0
   20.9830  -11.2903  -16.9358 N   0  0  0  0  0  0  0  0  0  0  0  0
   21.0626   -8.9888  -16.1847 C   0  0  0  0  0  0  0  0  0  0  0  0
   21.6610   -8.3946  -17.0943 O   0  0  0  0  0  0  0  0  0  0  0  0
   17.5449   -7.4398  -17.0427 C   0  0  0  0  0  0  0  0  0  0  0  0
   18.2185   -6.7293  -15.8845 C   0  0  1  0  0  0  0  0  0  0  0  0
   17.6200   -7.1314  -14.7140 O   0  0  0  0  0  0  0  0  0  0  0  0
   19.7153   -6.9587  -15.8835 C   0  0  2  0  0  0  0  0  0  0  0  0
   20.0630   -8.2901  -15.4600 N   0  0  0  0  0  0  0  0  0  0  0  0
   20.2879   -5.9919  -14.9158 C   0  0  0  0  0  0  0  0  0  0  0  0
   20.7648   -6.4291  -13.8424 O   0  0  0  0  0  0  0  0  0  0  0  0
   20.2943   -4.6260  -15.1968 O   0  0  0  0  0  0  0  0  0  0  0  0
  2  1  1  0
  3 10  1  0
  3  2  1  0
  4  3  2  0
  5  6  1  0
  7  6  1  0
  7  8  1  1
  9  7  1  0
  9 10  1  6
 11  9  1  0
 11 17  1  0
 12 11  2  0
 14 13  1  6
 14 15  1  0
 16 17  1  1
 16 14  1  0
 18 16  1  0
 19 18  2  0
 20 18  1  0
M  END
$$$$
