GIT.pdb
     RDKit          3D

 20 19  0  0  1  0  0  0  0  0999 V2000
   38.1927  -10.9090  -13.9327 N   0  0  0  0  0  0  0  0  0  0  0  0
   38.8394  -11.2586  -12.6889 C   0  0  0  0  0  0  0  0  0  0  0  0
   38.1752  -10.5552  -11.5436 C   0  0  0  0  0  0  0  0  0  0  0  0
   37.2945   -9.6910  -11.7924 O   0  0  0  0  0  0  0  0  0  0  0  0
   36.6680  -13.2263   -7.0705 C   0  0  0  0  0  0  0  0  0  0  0  0
   36.7891  -12.2452   -8.1991 C   0  0  0  0  0  0  0  0  0  0  0  0
   37.7332  -11.1027   -7.8966 C   0  0  2  0  0  0  0  0  0  0  0  0
   37.1129  -10.2862   -6.7671 C   0  0  0  0  0  0  0  0  0  0  0  0
   37.9367  -10.1921   -9.0618 C   0  0  2  0  0  0  0  0  0  0  0  0
   38.5241  -10.8492  -10.2004 N   0  0  0  0  0  0  0  0  0  0  0  0
   38.8264   -9.0678   -8.5871 C   0  0  0  0  0  0  0  0  0  0  0  0
   39.9895   -9.2981   -8.2230 O   0  0  0  0  0  0  0  0  0  0  0  0
   39.4704   -5.5478  -10.4776 C   0  0  0  0  0  0  0  0  0  0  0  0
   39.0156   -5.4193   -9.0365 C   0  0  1  0  0  0  0  0  0  0  0  0
   37.6859   -5.0702   -9.0245 O   0  0  0  0  0  0  0  0  0  0  0  0
   39.2947   -6.6817   -8.2484 C   0  0  2  0  0  0  0  0  0  0  0  0
   38.3547   -7.7305   -8.5472 N   0  0  0  0  0  0  0  0  0  0  0  0
   39.1595   -6.3217   -6.8163 C   0  0  0  0  0  0  0  0  0  0  0  0
   38.1229   -6.6723   -6.2052 O   0  0  0  0  0  0  0  0  0  0  0  0
   40.1657   -5.6081   -6.1659 O   0  0  0  0  0  0  0  0  0  0  0  0
  2  1  1  0
  3 10  1  0
  3  2  1  0
  4  3  2  0
  5  6  1  0
  7  6  1  0
  7  8  1  1
  9  7  1  0
  9 10  1  6
 11  9  1  0
 11 17  1  0
 12 11  2  0
 14 13  1  6
 14 15  1  0
 16 17  1  6
 16 14  1  0
 18 16  1  0
 19 18  2  0
 20 18  1  0
M  END
$$$$
