GIT.pdb
     RDKit          3D

 20 19  0  0  1  0  0  0  0  0999 V2000
   17.3087  -11.1321  -18.2549 N   0  0  0  0  0  0  0  0  0  0  0  0
   17.8520   -9.7934  -18.2600 C   0  0  0  0  0  0  0  0  0  0  0  0
   18.4981   -9.4910  -16.9414 C   0  0  0  0  0  0  0  0  0  0  0  0
   17.7897   -9.5104  -15.9011 O   0  0  0  0  0  0  0  0  0  0  0  0
   23.6078  -10.1207  -13.7113 C   0  0  0  0  0  0  0  0  0  0  0  0
   22.4756   -9.2110  -14.0874 C   0  0  0  0  0  0  0  0  0  0  0  0
   21.7223   -9.6736  -15.3149 C   0  0  2  0  0  0  0  0  0  0  0  0
   22.6848   -9.5960  -16.4959 C   0  0  0  0  0  0  0  0  0  0  0  0
   20.5410   -8.8170  -15.6297 C   0  0  2  0  0  0  0  0  0  0  0  0
   19.8811   -9.1873  -16.8546 N   0  0  0  0  0  0  0  0  0  0  0  0
   21.0425   -7.3948  -15.7122 C   0  0  0  0  0  0  0  0  0  0  0  0
   21.7523   -7.0332  -16.6629 O   0  0  0  0  0  0  0  0  0  0  0  0
   20.4200   -2.6673  -14.8180 C   0  0  0  0  0  0  0  0  0  0  0  0
   19.9744   -4.1077  -14.6544 C   0  0  1  0  0  0  0  0  0  0  0  0
   18.8946   -4.3299  -15.4756 O   0  0  0  0  0  0  0  0  0  0  0  0
   21.1105   -5.0758  -14.9091 C   0  0  2  0  0  0  0  0  0  0  0  0
   20.7151   -6.4457  -14.7099 N   0  0  0  0  0  0  0  0  0  0  0  0
   22.1726   -4.7447  -13.9287 C   0  0  0  0  0  0  0  0  0  0  0  0
   22.0841   -5.2105  -12.7685 O   0  0  0  0  0  0  0  0  0  0  0  0
   23.2459   -3.9321  -14.2925 O   0  0  0  0  0  0  0  0  0  0  0  0
  2  1  1  0
  3 10  1  0
  3  2  1  0
  4  3  2  0
  5  6  1  0
  7  6  1  0
  7  8  1  6
  9  7  1  0
  9 10  1  6
 11  9  1  0
 11 17  1  0
 12 11  2  0
 14 13  1  6
 14 15  1  0
 16 17  1  1
 16 14  1  0
 18 16  1  0
 19 18  2  0
 20 18  1  0
M  END
$$$$
