MHC.pdb
     RDKit          3D

 25 25  0  0  1  0  0  0  0  0999 V2000
    8.3171  -12.0133   20.3281 C   0  0  0  0  0  0  0  0  0  0  0  0
    7.4665  -12.2836   18.7656 S   0  0  0  0  0  0  0  0  0  0  0  0
    7.9140  -13.8839   18.0643 C   0  0  0  0  0  0  0  0  0  0  0  0
    7.9947  -14.9559   19.1344 C   0  0  0  0  0  0  0  0  0  0  0  0
    9.4468  -15.3956   19.3115 C   0  0  2  0  0  0  0  0  0  0  0  0
    9.9209  -15.9614   18.0625 N   0  0  0  0  0  0  0  0  0  0  0  0
    9.5327  -16.3848   20.4222 C   0  0  0  0  0  0  0  0  0  0  0  0
    8.8390  -16.1443   21.4617 O   0  0  0  0  0  0  0  0  0  0  0  0
   10.3507  -17.5284   20.3081 N   0  0  0  0  0  0  0  0  0  0  0  0
   10.3779  -18.4754   21.4089 C   0  0  1  0  0  0  0  0  0  0  0  0
   10.9667  -19.7832   20.9943 C   0  0  0  0  0  0  0  0  0  0  0  0
   10.1399  -20.5299   20.0298 C   0  0  0  0  0  0  0  0  0  0  0  0
    8.7546  -20.5159   19.8881 C   0  0  0  0  0  0  0  0  0  0  0  0
    8.4164  -21.3510   18.9136 N   0  0  0  0  0  0  0  0  0  0  0  0
    9.5144  -21.9179   18.4032 C   0  0  0  0  0  0  0  0  0  0  0  0
   10.5603  -21.4187   19.0815 N   0  0  0  0  0  0  0  0  0  0  0  0
   11.0993  -17.9305   22.5769 C   0  0  0  0  0  0  0  0  0  0  0  0
   11.8912  -16.9771   22.4238 O   0  0  0  0  0  0  0  0  0  0  0  0
   10.9300  -18.4487   23.8844 N   0  0  0  0  0  0  0  0  0  0  0  0
   11.5035  -17.7495   24.9985 C   0  0  1  0  0  0  0  0  0  0  0  0
   10.9944  -16.3326   25.1302 C   0  0  0  0  0  0  0  0  0  0  0  0
    9.2370  -16.4227   25.5751 S   0  0  0  0  0  0  0  0  0  0  0  0
   11.3176  -18.5185   26.2520 C   0  0  0  0  0  0  0  0  0  0  0  0
   11.9172  -18.1432   27.4296 O   0  0  0  0  0  0  0  0  0  0  0  0
   10.5938  -19.5430   26.2479 O   0  0  0  0  0  0  0  0  0  0  0  0
  2  1  1  0
  2  3  1  0
  3  4  1  0
  4  5  1  0
  5  7  1  0
  5  6  1  6
  7  9  1  0
  8  7  2  0
  9 10  1  0
 10 11  1  6
 11 12  1  0
 12 13  2  0
 12 16  1  0
 13 14  1  0
 14 15  1  0
 16 15  2  0
 17 19  1  0
 17 10  1  0
 18 17  2  0
 20 19  1  0
 20 23  1  0
 20 21  1  1
 22 21  1  0
 23 24  1  0
 25 23  2  0
M  END
$$$$
