MHC.pdb
     RDKit          3D

 25 25  0  0  1  0  0  0  0  0999 V2000
    7.3405  -12.2394   27.5606 C   0  0  0  0  0  0  0  0  0  0  0  0
    6.8862  -12.8118   25.9162 S   0  0  0  0  0  0  0  0  0  0  0  0
    7.1558  -14.5885   25.7622 C   0  0  0  0  0  0  0  0  0  0  0  0
    6.8005  -15.0856   24.3739 C   0  0  0  0  0  0  0  0  0  0  0  0
    6.9599  -16.6037   24.3163 C   0  0  2  0  0  0  0  0  0  0  0  0
    6.1106  -17.2029   25.3285 N   0  0  0  0  0  0  0  0  0  0  0  0
    8.3909  -16.9597   24.5288 C   0  0  0  0  0  0  0  0  0  0  0  0
    8.6421  -17.8154   25.4367 O   0  0  0  0  0  0  0  0  0  0  0  0
    9.4056  -16.3649   23.7499 N   0  0  0  0  0  0  0  0  0  0  0  0
   10.7566  -16.8881   23.8527 C   0  0  1  0  0  0  0  0  0  0  0  0
   11.5428  -16.6273   22.6108 C   0  0  0  0  0  0  0  0  0  0  0  0
   10.9343  -17.1881   21.3914 C   0  0  0  0  0  0  0  0  0  0  0  0
   10.3167  -16.5087   20.3444 C   0  0  0  0  0  0  0  0  0  0  0  0
    9.8850  -17.3949   19.4558 N   0  0  0  0  0  0  0  0  0  0  0  0
   10.1882  -18.6306   19.8663 C   0  0  0  0  0  0  0  0  0  0  0  0
   10.8253  -18.5040   21.0416 N   0  0  0  0  0  0  0  0  0  0  0  0
   11.4603  -16.3476   25.0335 C   0  0  0  0  0  0  0  0  0  0  0  0
   11.8708  -15.1682   25.0214 O   0  0  0  0  0  0  0  0  0  0  0  0
   11.6938  -17.1193   26.1983 N   0  0  0  0  0  0  0  0  0  0  0  0
   11.8042  -16.4609   27.4685 C   0  0  1  0  0  0  0  0  0  0  0  0
   10.6468  -15.5314   27.7528 C   0  0  0  0  0  0  0  0  0  0  0  0
   10.9713  -14.7268   29.3471 S   0  0  0  0  0  0  0  0  0  0  0  0
   11.9948  -17.4493   28.5565 C   0  0  0  0  0  0  0  0  0  0  0  0
   11.1305  -18.5008   28.7417 O   0  0  0  0  0  0  0  0  0  0  0  0
   12.9706  -17.3313   29.3359 O   0  0  0  0  0  0  0  0  0  0  0  0
  2  1  1  0
  2  3  1  0
  3  4  1  0
  4  5  1  0
  5  7  1  0
  5  6  1  1
  7  9  1  0
  8  7  2  0
  9 10  1  0
 10 11  1  6
 11 12  1  0
 12 13  2  0
 12 16  1  0
 13 14  1  0
 14 15  1  0
 16 15  2  0
 17 19  1  0
 17 10  1  0
 18 17  2  0
 20 19  1  0
 20 23  1  0
 20 21  1  1
 22 21  1  0
 23 24  1  0
 25 23  2  0
M  END
$$$$
