MHC.pdb
     RDKit          3D

 25 25  0  0  1  0  0  0  0  0999 V2000
    6.8147  -11.9023   26.8964 C   0  0  0  0  0  0  0  0  0  0  0  0
    6.9545  -13.6453   27.3215 S   0  0  0  0  0  0  0  0  0  0  0  0
    7.4171  -14.6193   25.8757 C   0  0  0  0  0  0  0  0  0  0  0  0
    6.3292  -15.6079   25.5011 C   0  0  0  0  0  0  0  0  0  0  0  0
    6.7156  -16.3319   24.2128 C   0  0  2  0  0  0  0  0  0  0  0  0
    5.8152  -17.4525   24.0167 N   0  0  0  0  0  0  0  0  0  0  0  0
    8.1322  -16.7842   24.3048 C   0  0  0  0  0  0  0  0  0  0  0  0
    8.3497  -17.8704   24.9313 O   0  0  0  0  0  0  0  0  0  0  0  0
    9.1700  -16.0297   23.7185 N   0  0  0  0  0  0  0  0  0  0  0  0
   10.5270  -16.5422   23.7900 C   0  0  1  0  0  0  0  0  0  0  0  0
   11.3226  -16.1608   22.5858 C   0  0  0  0  0  0  0  0  0  0  0  0
   10.7964  -16.7120   21.3247 C   0  0  0  0  0  0  0  0  0  0  0  0
   10.6559  -18.0485   20.9593 C   0  0  0  0  0  0  0  0  0  0  0  0
   10.1635  -18.1053   19.7281 N   0  0  0  0  0  0  0  0  0  0  0  0
    9.9714  -16.8674   19.2610 C   0  0  0  0  0  0  0  0  0  0  0  0
   10.3559  -16.0223   20.2310 N   0  0  0  0  0  0  0  0  0  0  0  0
   11.2104  -16.1005   25.0228 C   0  0  0  0  0  0  0  0  0  0  0  0
   11.7999  -14.9997   25.0414 O   0  0  0  0  0  0  0  0  0  0  0  0
   11.2271  -16.8819   26.2042 N   0  0  0  0  0  0  0  0  0  0  0  0
   11.1567  -16.2299   27.4805 C   0  0  1  0  0  0  0  0  0  0  0  0
    9.9751  -15.2953   27.6002 C   0  0  0  0  0  0  0  0  0  0  0  0
   10.6130  -13.6683   28.0907 S   0  0  0  0  0  0  0  0  0  0  0  0
   11.1838  -17.2244   28.5793 C   0  0  0  0  0  0  0  0  0  0  0  0
   10.9797  -18.5636   28.3517 O   0  0  0  0  0  0  0  0  0  0  0  0
   11.3988  -16.8423   29.7547 O   0  0  0  0  0  0  0  0  0  0  0  0
  2  1  1  0
  2  3  1  0
  3  4  1  0
  4  5  1  0
  5  7  1  0
  5  6  1  1
  7  9  1  0
  8  7  2  0
  9 10  1  0
 10 11  1  6
 11 12  1  0
 12 13  2  0
 12 16  1  0
 13 14  1  0
 14 15  1  0
 16 15  2  0
 17 19  1  0
 17 10  1  0
 18 17  2  0
 20 19  1  0
 20 23  1  0
 20 21  1  6
 22 21  1  0
 23 24  1  0
 25 23  2  0
M  END
$$$$
