MHC.pdb
     RDKit          3D

 25 25  0  0  1  0  0  0  0  0999 V2000
    7.6863  -11.8098   27.2054 C   0  0  0  0  0  0  0  0  0  0  0  0
    6.0817  -12.6198   27.1196 S   0  0  0  0  0  0  0  0  0  0  0  0
    6.2419  -14.2819   26.4378 C   0  0  0  0  0  0  0  0  0  0  0  0
    6.3016  -14.2569   24.9223 C   0  0  0  0  0  0  0  0  0  0  0  0
    6.2929  -15.6867   24.3850 C   0  0  2  0  0  0  0  0  0  0  0  0
    5.7949  -16.5733   25.4199 N   0  0  0  0  0  0  0  0  0  0  0  0
    7.6706  -16.0655   23.9631 C   0  0  0  0  0  0  0  0  0  0  0  0
    8.0892  -17.2110   24.3270 O   0  0  0  0  0  0  0  0  0  0  0  0
    8.4589  -15.1819   23.1965 N   0  0  0  0  0  0  0  0  0  0  0  0
    9.7316  -15.6556   22.6813 C   0  0  1  0  0  0  0  0  0  0  0  0
   10.2090  -14.8181   21.5414 C   0  0  0  0  0  0  0  0  0  0  0  0
    9.1732  -14.5413   20.5305 C   0  0  0  0  0  0  0  0  0  0  0  0
    8.6373  -13.3109   20.1587 C   0  0  0  0  0  0  0  0  0  0  0  0
    7.7124  -13.5114   19.2282 N   0  0  0  0  0  0  0  0  0  0  0  0
    7.6109  -14.8186   18.9666 C   0  0  0  0  0  0  0  0  0  0  0  0
    8.4982  -15.4430   19.7577 N   0  0  0  0  0  0  0  0  0  0  0  0
   10.7576  -15.7188   23.7420 C   0  0  0  0  0  0  0  0  0  0  0  0
   11.9671  -15.6699   23.4348 O   0  0  0  0  0  0  0  0  0  0  0  0
   10.4259  -15.8338   25.1144 N   0  0  0  0  0  0  0  0  0  0  0  0
   11.4764  -15.8858   26.0905 C   0  0  1  0  0  0  0  0  0  0  0  0
   11.5062  -14.6712   26.9894 C   0  0  0  0  0  0  0  0  0  0  0  0
    9.8843  -14.5479   27.7949 S   0  0  0  0  0  0  0  0  0  0  0  0
   11.4055  -17.1444   26.8702 C   0  0  0  0  0  0  0  0  0  0  0  0
   12.3768  -17.4921   27.7774 O   0  0  0  0  0  0  0  0  0  0  0  0
   10.4347  -17.9214   26.7044 O   0  0  0  0  0  0  0  0  0  0  0  0
  2  1  1  0
  2  3  1  0
  3  4  1  0
  4  5  1  0
  5  7  1  0
  5  6  1  1
  7  9  1  0
  8  7  2  0
  9 10  1  0
 10 11  1  6
 11 12  1  0
 12 13  2  0
 12 16  1  0
 13 14  1  0
 14 15  1  0
 16 15  2  0
 17 19  1  0
 17 10  1  0
 18 17  2  0
 20 19  1  0
 20 23  1  0
 20 21  1  1
 22 21  1  0
 23 24  1  0
 25 23  2  0
M  END
$$$$
