MHC.pdb
     RDKit          3D

 25 25  0  0  1  0  0  0  0  0999 V2000
    7.6273  -11.1409   27.0900 C   0  0  0  0  0  0  0  0  0  0  0  0
    6.0261  -11.8512   27.5022 S   0  0  0  0  0  0  0  0  0  0  0  0
    5.6188  -13.2016   26.3782 C   0  0  0  0  0  0  0  0  0  0  0  0
    6.8638  -13.9375   25.9205 C   0  0  0  0  0  0  0  0  0  0  0  0
    6.4886  -14.9682   24.8575 C   0  0  2  0  0  0  0  0  0  0  0  0
    5.5913  -15.9441   25.4468 N   0  0  0  0  0  0  0  0  0  0  0  0
    7.7257  -15.6144   24.3360 C   0  0  0  0  0  0  0  0  0  0  0  0
    7.9579  -16.8055   24.7193 O   0  0  0  0  0  0  0  0  0  0  0  0
    8.5868  -14.9217   23.4592 N   0  0  0  0  0  0  0  0  0  0  0  0
    9.7034  -15.6403   22.8709 C   0  0  1  0  0  0  0  0  0  0  0  0
   10.1569  -15.0046   21.5986 C   0  0  0  0  0  0  0  0  0  0  0  0
    9.1080  -14.9218   20.5669 C   0  0  0  0  0  0  0  0  0  0  0  0
    7.8087  -15.4207   20.6153 C   0  0  0  0  0  0  0  0  0  0  0  0
    7.2039  -15.1495   19.4656 N   0  0  0  0  0  0  0  0  0  0  0  0
    8.0430  -14.4938   18.6574 C   0  0  0  0  0  0  0  0  0  0  0  0
    9.1988  -14.3560   19.3269 N   0  0  0  0  0  0  0  0  0  0  0  0
   10.8302  -15.7631   23.8181 C   0  0  0  0  0  0  0  0  0  0  0  0
   11.5471  -14.7688   24.0571 O   0  0  0  0  0  0  0  0  0  0  0  0
   11.1389  -16.9776   24.4786 N   0  0  0  0  0  0  0  0  0  0  0  0
   11.5314  -16.9484   25.8585 C   0  0  1  0  0  0  0  0  0  0  0  0
   10.5418  -16.2185   26.7373 C   0  0  0  0  0  0  0  0  0  0  0  0
   11.4618  -14.9611   27.6683 S   0  0  0  0  0  0  0  0  0  0  0  0
   11.8013  -18.3184   26.3558 C   0  0  0  0  0  0  0  0  0  0  0  0
   12.7133  -18.5619   27.3538 O   0  0  0  0  0  0  0  0  0  0  0  0
   11.1842  -19.2904   25.8577 O   0  0  0  0  0  0  0  0  0  0  0  0
  2  1  1  0
  2  3  1  0
  3  4  1  0
  4  5  1  0
  5  7  1  0
  5  6  1  1
  7  9  1  0
  8  7  2  0
  9 10  1  0
 10 11  1  6
 11 12  1  0
 12 13  2  0
 12 16  1  0
 13 14  1  0
 14 15  1  0
 16 15  2  0
 17 19  1  0
 17 10  1  0
 18 17  2  0
 20 19  1  0
 20 23  1  0
 20 21  1  1
 22 21  1  0
 23 24  1  0
 25 23  2  0
M  END
$$$$
