MHC.pdb
     RDKit          3D

 25 25  0  0  1  0  0  0  0  0999 V2000
    6.2710  -11.8355   27.0747 C   0  0  0  0  0  0  0  0  0  0  0  0
    6.9291  -13.0575   25.9293 S   0  0  0  0  0  0  0  0  0  0  0  0
    6.7889  -14.7182   26.6185 C   0  0  0  0  0  0  0  0  0  0  0  0
    7.4097  -15.7543   25.7009 C   0  0  0  0  0  0  0  0  0  0  0  0
    6.8343  -15.6039   24.2939 C   0  0  2  0  0  0  0  0  0  0  0  0
    5.6224  -16.3954   24.1960 N   0  0  0  0  0  0  0  0  0  0  0  0
    7.8494  -16.0404   23.2945 C   0  0  0  0  0  0  0  0  0  0  0  0
    7.8201  -17.2627   22.9411 O   0  0  0  0  0  0  0  0  0  0  0  0
    8.7908  -15.1267   22.7761 N   0  0  0  0  0  0  0  0  0  0  0  0
    9.8068  -15.6196   21.8627 C   0  0  1  0  0  0  0  0  0  0  0  0
   10.1381  -14.6109   20.8132 C   0  0  0  0  0  0  0  0  0  0  0  0
    9.0238  -14.3191   19.8942 C   0  0  0  0  0  0  0  0  0  0  0  0
    8.2681  -13.1534   19.7970 C   0  0  0  0  0  0  0  0  0  0  0  0
    7.3485  -13.3178   18.8543 N   0  0  0  0  0  0  0  0  0  0  0  0
    7.4601  -14.5393   18.3225 C   0  0  0  0  0  0  0  0  0  0  0  0
    8.4775  -15.1465   18.9545 N   0  0  0  0  0  0  0  0  0  0  0  0
   11.0273  -16.0378   22.5819 C   0  0  0  0  0  0  0  0  0  0  0  0
   11.9745  -15.2340   22.7098 O   0  0  0  0  0  0  0  0  0  0  0  0
   11.1738  -17.3303   23.1426 N   0  0  0  0  0  0  0  0  0  0  0  0
   12.3830  -17.6620   23.8404 C   0  0  1  0  0  0  0  0  0  0  0  0
   12.1343  -18.1666   25.2431 C   0  0  0  0  0  0  0  0  0  0  0  0
   10.8689  -17.1014   25.9905 S   0  0  0  0  0  0  0  0  0  0  0  0
   13.1994  -18.6145   23.0508 C   0  0  0  0  0  0  0  0  0  0  0  0
   12.7349  -19.1779   21.8872 O   0  0  0  0  0  0  0  0  0  0  0  0
   14.3491  -18.9214   23.4479 O   0  0  0  0  0  0  0  0  0  0  0  0
  2  1  1  0
  2  3  1  0
  3  4  1  0
  4  5  1  0
  5  7  1  0
  5  6  1  1
  7  9  1  0
  8  7  2  0
  9 10  1  0
 10 11  1  6
 11 12  1  0
 12 13  2  0
 12 16  1  0
 13 14  1  0
 14 15  1  0
 16 15  2  0
 17 19  1  0
 17 10  1  0
 18 17  2  0
 20 19  1  0
 20 23  1  0
 20 21  1  1
 22 21  1  0
 23 24  1  0
 25 23  2  0
M  END
$$$$
