MHC.pdb
     RDKit          3D

 25 25  0  0  1  0  0  0  0  0999 V2000
    5.4328  -11.2370   26.6101 C   0  0  0  0  0  0  0  0  0  0  0  0
    6.5717  -12.5711   26.2084 S   0  0  0  0  0  0  0  0  0  0  0  0
    5.7663  -14.1743   26.3923 C   0  0  0  0  0  0  0  0  0  0  0  0
    6.7130  -15.3124   26.0613 C   0  0  0  0  0  0  0  0  0  0  0  0
    6.4797  -15.7719   24.6234 C   0  0  2  0  0  0  0  0  0  0  0  0
    5.5047  -16.8463   24.6269 N   0  0  0  0  0  0  0  0  0  0  0  0
    7.7722  -16.2145   24.0291 C   0  0  0  0  0  0  0  0  0  0  0  0
    8.0433  -17.4559   24.1012 O   0  0  0  0  0  0  0  0  0  0  0  0
    8.6416  -15.2858   23.4196 N   0  0  0  0  0  0  0  0  0  0  0  0
    9.8931  -15.7681   22.8624 C   0  0  1  0  0  0  0  0  0  0  0  0
   10.3774  -14.8892   21.7572 C   0  0  0  0  0  0  0  0  0  0  0  0
    9.3320  -14.5225   20.7856 C   0  0  0  0  0  0  0  0  0  0  0  0
    8.0078  -14.9513   20.7399 C   0  0  0  0  0  0  0  0  0  0  0  0
    7.4156  -14.3977   19.6891 N   0  0  0  0  0  0  0  0  0  0  0  0
    8.2869  -13.6217   19.0364 C   0  0  0  0  0  0  0  0  0  0  0  0
    9.4501  -13.6981   19.7028 N   0  0  0  0  0  0  0  0  0  0  0  0
   10.9319  -15.9112   23.9026 C   0  0  0  0  0  0  0  0  0  0  0  0
   12.0254  -15.3231   23.7682 O   0  0  0  0  0  0  0  0  0  0  0  0
   10.7402  -16.6976   25.0651 N   0  0  0  0  0  0  0  0  0  0  0  0
   11.6218  -16.5262   26.1842 C   0  0  1  0  0  0  0  0  0  0  0  0
   11.5420  -15.1443   26.7909 C   0  0  0  0  0  0  0  0  0  0  0  0
   10.0894  -15.1083   27.8787 S   0  0  0  0  0  0  0  0  0  0  0  0
   11.3951  -17.5845   27.1970 C   0  0  0  0  0  0  0  0  0  0  0  0
   12.2394  -17.7587   28.2665 O   0  0  0  0  0  0  0  0  0  0  0  0
   10.4064  -18.3483   27.0835 O   0  0  0  0  0  0  0  0  0  0  0  0
  2  1  1  0
  2  3  1  0
  3  4  1  0
  4  5  1  0
  5  7  1  0
  5  6  1  1
  7  9  1  0
  8  7  2  0
  9 10  1  0
 10 11  1  6
 11 12  1  0
 12 13  2  0
 12 16  1  0
 13 14  1  0
 14 15  1  0
 16 15  2  0
 17 19  1  0
 17 10  1  0
 18 17  2  0
 20 19  1  0
 20 23  1  0
 20 21  1  1
 22 21  1  0
 23 24  1  0
 25 23  2  0
M  END
$$$$
