MHC.pdb
     RDKit          3D

 25 25  0  0  1  0  0  0  0  0999 V2000
    6.7348  -11.4767   26.8595 C   0  0  0  0  0  0  0  0  0  0  0  0
    6.6642  -13.0393   27.7492 S   0  0  0  0  0  0  0  0  0  0  0  0
    6.2799  -14.3965   26.6252 C   0  0  0  0  0  0  0  0  0  0  0  0
    6.6762  -14.0652   25.1990 C   0  0  0  0  0  0  0  0  0  0  0  0
    6.3616  -15.2521   24.2904 C   0  0  2  0  0  0  0  0  0  0  0  0
    5.7096  -16.2835   25.0754 N   0  0  0  0  0  0  0  0  0  0  0  0
    7.6230  -15.7539   23.6766 C   0  0  0  0  0  0  0  0  0  0  0  0
    7.9902  -16.9298   23.9961 O   0  0  0  0  0  0  0  0  0  0  0  0
    8.3620  -14.9480   22.7852 N   0  0  0  0  0  0  0  0  0  0  0  0
    9.5440  -15.5112   22.1569 C   0  0  1  0  0  0  0  0  0  0  0  0
    9.9911  -14.6909   20.9925 C   0  0  0  0  0  0  0  0  0  0  0  0
    8.9489  -14.4889   19.9705 C   0  0  0  0  0  0  0  0  0  0  0  0
    8.2007  -13.3422   19.7159 C   0  0  0  0  0  0  0  0  0  0  0  0
    7.3552  -13.5952   18.7247 N   0  0  0  0  0  0  0  0  0  0  0  0
    7.5089  -14.8572   18.3109 C   0  0  0  0  0  0  0  0  0  0  0  0
    8.4767  -15.3989   19.0678 N   0  0  0  0  0  0  0  0  0  0  0  0
   10.6466  -15.6790   23.1253 C   0  0  0  0  0  0  0  0  0  0  0  0
   11.1527  -14.6730   23.6651 O   0  0  0  0  0  0  0  0  0  0  0  0
   11.1639  -16.9504   23.4754 N   0  0  0  0  0  0  0  0  0  0  0  0
   11.5304  -17.2104   24.8381 C   0  0  1  0  0  0  0  0  0  0  0  0
   10.4297  -16.8759   25.8184 C   0  0  0  0  0  0  0  0  0  0  0  0
   11.2171  -16.2825   27.3423 S   0  0  0  0  0  0  0  0  0  0  0  0
   12.0016  -18.6068   24.9970 C   0  0  0  0  0  0  0  0  0  0  0  0
   13.0148  -18.9369   25.8639 O   0  0  0  0  0  0  0  0  0  0  0  0
   11.4661  -19.5209   24.3251 O   0  0  0  0  0  0  0  0  0  0  0  0
  2  1  1  0
  2  3  1  0
  3  4  1  0
  4  5  1  0
  5  7  1  0
  5  6  1  1
  7  9  1  0
  8  7  2  0
  9 10  1  0
 10 11  1  6
 11 12  1  0
 12 13  2  0
 12 16  1  0
 13 14  1  0
 14 15  1  0
 16 15  2  0
 17 19  1  0
 17 10  1  0
 18 17  2  0
 20 19  1  0
 20 23  1  0
 20 21  1  1
 22 21  1  0
 23 24  1  0
 25 23  2  0
M  END
$$$$
