MHC.pdb
     RDKit          3D

 25 25  0  0  1  0  0  0  0  0999 V2000
    8.1827  -11.7948   21.0038 C   0  0  0  0  0  0  0  0  0  0  0  0
    7.2925  -12.3720   19.5504 S   0  0  0  0  0  0  0  0  0  0  0  0
    7.9291  -13.9690   19.0050 C   0  0  0  0  0  0  0  0  0  0  0  0
    8.3812  -14.8166   20.1789 C   0  0  0  0  0  0  0  0  0  0  0  0
    9.1417  -16.0383   19.6666 C   0  0  2  0  0  0  0  0  0  0  0  0
    8.2546  -16.8267   18.8321 N   0  0  0  0  0  0  0  0  0  0  0  0
    9.6435  -16.8305   20.8244 C   0  0  0  0  0  0  0  0  0  0  0  0
    8.8496  -17.6942   21.3178 O   0  0  0  0  0  0  0  0  0  0  0  0
   10.9410  -16.6182   21.3356 N   0  0  0  0  0  0  0  0  0  0  0  0
   11.4088  -17.4671   22.4172 C   0  0  1  0  0  0  0  0  0  0  0  0
   12.8781  -17.7145   22.3255 C   0  0  0  0  0  0  0  0  0  0  0  0
   13.2558  -18.6794   21.2777 C   0  0  0  0  0  0  0  0  0  0  0  0
   13.4325  -18.4491   19.9157 C   0  0  0  0  0  0  0  0  0  0  0  0
   13.7477  -19.5955   19.3260 N   0  0  0  0  0  0  0  0  0  0  0  0
   13.7878  -20.5750   20.2350 C   0  0  0  0  0  0  0  0  0  0  0  0
   13.4890  -20.0179   21.4196 N   0  0  0  0  0  0  0  0  0  0  0  0
   11.0602  -16.9058   23.7382 C   0  0  0  0  0  0  0  0  0  0  0  0
   11.3054  -15.7060   23.9835 O   0  0  0  0  0  0  0  0  0  0  0  0
   10.4498  -17.6795   24.7558 N   0  0  0  0  0  0  0  0  0  0  0  0
   10.1324  -17.0646   26.0128 C   0  0  1  0  0  0  0  0  0  0  0  0
    8.7530  -16.4472   26.0351 C   0  0  0  0  0  0  0  0  0  0  0  0
    7.5618  -17.7571   25.6356 S   0  0  0  0  0  0  0  0  0  0  0  0
   10.3234  -18.0224   27.1279 C   0  0  0  0  0  0  0  0  0  0  0  0
   10.2492  -17.6303   28.4424 O   0  0  0  0  0  0  0  0  0  0  0  0
   10.5598  -19.2280   26.8746 O   0  0  0  0  0  0  0  0  0  0  0  0
  2  1  1  0
  2  3  1  0
  3  4  1  0
  4  5  1  0
  5  7  1  0
  5  6  1  1
  7  9  1  0
  8  7  2  0
  9 10  1  0
 10 11  1  1
 11 12  1  0
 12 13  2  0
 12 16  1  0
 13 14  1  0
 14 15  1  0
 16 15  2  0
 17 19  1  0
 17 10  1  0
 18 17  2  0
 20 19  1  0
 20 23  1  0
 20 21  1  6
 22 21  1  0
 23 24  1  0
 25 23  2  0
M  END
$$$$
