MHC.pdb
     RDKit          3D

 25 25  0  0  1  0  0  0  0  0999 V2000
    7.0289  -12.4052   21.5399 C   0  0  0  0  0  0  0  0  0  0  0  0
    8.3339  -12.5128   20.3056 S   0  0  0  0  0  0  0  0  0  0  0  0
    7.7852  -13.4704   18.8791 C   0  0  0  0  0  0  0  0  0  0  0  0
    7.3437  -14.8643   19.2828 C   0  0  0  0  0  0  0  0  0  0  0  0
    8.3497  -15.8909   18.7658 C   0  0  2  0  0  0  0  0  0  0  0  0
    7.7382  -16.6445   17.6873 N   0  0  0  0  0  0  0  0  0  0  0  0
    8.7650  -16.7838   19.8838 C   0  0  0  0  0  0  0  0  0  0  0  0
    7.9317  -17.6736   20.2492 O   0  0  0  0  0  0  0  0  0  0  0  0
   10.0270  -16.6341   20.4960 N   0  0  0  0  0  0  0  0  0  0  0  0
   10.3761  -17.5194   21.5931 C   0  0  1  0  0  0  0  0  0  0  0  0
   11.7957  -17.9725   21.5033 C   0  0  0  0  0  0  0  0  0  0  0  0
   12.1847  -18.9264   22.5569 C   0  0  0  0  0  0  0  0  0  0  0  0
   11.4148  -19.4062   23.6136 C   0  0  0  0  0  0  0  0  0  0  0  0
   12.1570  -20.2295   24.3434 N   0  0  0  0  0  0  0  0  0  0  0  0
   13.3835  -20.3170   23.8188 C   0  0  0  0  0  0  0  0  0  0  0  0
   13.3994  -19.5256   22.7342 N   0  0  0  0  0  0  0  0  0  0  0  0
   10.1160  -16.8895   22.9036 C   0  0  0  0  0  0  0  0  0  0  0  0
   10.5914  -15.7617   23.1517 O   0  0  0  0  0  0  0  0  0  0  0  0
    9.3385  -17.5171   23.9077 N   0  0  0  0  0  0  0  0  0  0  0  0
    9.1403  -16.8515   25.1633 C   0  0  1  0  0  0  0  0  0  0  0  0
    7.7419  -16.3011   25.3241 C   0  0  0  0  0  0  0  0  0  0  0  0
    6.5804  -17.6588   25.0044 S   0  0  0  0  0  0  0  0  0  0  0  0
    9.5148  -17.7374   26.2911 C   0  0  0  0  0  0  0  0  0  0  0  0
    9.6028  -17.2729   27.5809 O   0  0  0  0  0  0  0  0  0  0  0  0
    9.7603  -18.9479   26.0721 O   0  0  0  0  0  0  0  0  0  0  0  0
  2  1  1  0
  2  3  1  0
  3  4  1  0
  4  5  1  0
  5  7  1  0
  5  6  1  6
  7  9  1  0
  8  7  2  0
  9 10  1  0
 10 11  1  1
 11 12  1  0
 12 13  2  0
 12 16  1  0
 13 14  1  0
 14 15  1  0
 16 15  2  0
 17 19  1  0
 17 10  1  0
 18 17  2  0
 20 19  1  0
 20 23  1  0
 20 21  1  1
 22 21  1  0
 23 24  1  0
 25 23  2  0
M  END
$$$$
