MHC.pdb
     RDKit          3D

 25 25  0  0  1  0  0  0  0  0999 V2000
    7.7753  -12.0660   26.9541 C   0  0  0  0  0  0  0  0  0  0  0  0
    6.1940  -12.2498   26.1152 S   0  0  0  0  0  0  0  0  0  0  0  0
    6.4066  -13.0795   24.5279 C   0  0  0  0  0  0  0  0  0  0  0  0
    7.3116  -14.2906   24.6514 C   0  0  0  0  0  0  0  0  0  0  0  0
    7.5350  -14.9067   23.2717 C   0  0  2  0  0  0  0  0  0  0  0  0
    6.2556  -15.3314   22.7353 N   0  0  0  0  0  0  0  0  0  0  0  0
    8.4812  -16.0517   23.3880 C   0  0  0  0  0  0  0  0  0  0  0  0
    7.9982  -17.1586   23.7893 O   0  0  0  0  0  0  0  0  0  0  0  0
    9.8453  -15.8961   23.0640 N   0  0  0  0  0  0  0  0  0  0  0  0
   10.7361  -17.0285   23.2468 C   0  0  1  0  0  0  0  0  0  0  0  0
   11.8274  -17.0392   22.2282 C   0  0  0  0  0  0  0  0  0  0  0  0
   11.3554  -17.2695   20.8514 C   0  0  0  0  0  0  0  0  0  0  0  0
   10.8487  -18.4426   20.2979 C   0  0  0  0  0  0  0  0  0  0  0  0
   10.5637  -18.2238   19.0203 N   0  0  0  0  0  0  0  0  0  0  0  0
   10.8587  -16.9593   18.7018 C   0  0  0  0  0  0  0  0  0  0  0  0
   11.3393  -16.3807   19.8142 N   0  0  0  0  0  0  0  0  0  0  0  0
   11.3014  -17.0607   24.6110 C   0  0  0  0  0  0  0  0  0  0  0  0
   12.2415  -16.2942   24.9080 O   0  0  0  0  0  0  0  0  0  0  0  0
   10.8168  -17.9356   25.6141 N   0  0  0  0  0  0  0  0  0  0  0  0
   11.4751  -17.9790   26.8884 C   0  0  1  0  0  0  0  0  0  0  0  0
   10.5768  -17.5621   28.0301 C   0  0  0  0  0  0  0  0  0  0  0  0
    9.7297  -16.0368   27.5298 S   0  0  0  0  0  0  0  0  0  0  0  0
   12.0772  -19.3131   27.1222 C   0  0  0  0  0  0  0  0  0  0  0  0
   11.9824  -20.3246   26.1975 O   0  0  0  0  0  0  0  0  0  0  0  0
   12.6932  -19.5352   28.1922 O   0  0  0  0  0  0  0  0  0  0  0  0
  2  1  1  0
  2  3  1  0
  3  4  1  0
  4  5  1  0
  5  7  1  0
  5  6  1  1
  7  9  1  0
  8  7  2  0
  9 10  1  0
 10 11  1  6
 11 12  1  0
 12 13  2  0
 12 16  1  0
 13 14  1  0
 14 15  1  0
 16 15  2  0
 17 19  1  0
 17 10  1  0
 18 17  2  0
 20 19  1  0
 20 23  1  0
 20 21  1  1
 22 21  1  0
 23 24  1  0
 25 23  2  0
M  END
$$$$
