MHC.pdb
     RDKit          3D

 25 25  0  0  1  0  0  0  0  0999 V2000
    8.2424  -11.5723   20.0197 C   0  0  0  0  0  0  0  0  0  0  0  0
    7.6994  -12.3796   18.5060 S   0  0  0  0  0  0  0  0  0  0  0  0
    7.7158  -14.1729   18.6982 C   0  0  0  0  0  0  0  0  0  0  0  0
    7.7602  -14.5741   20.1604 C   0  0  0  0  0  0  0  0  0  0  0  0
    7.8342  -16.0956   20.2727 C   0  0  2  0  0  0  0  0  0  0  0  0
    6.6316  -16.6672   19.6965 N   0  0  0  0  0  0  0  0  0  0  0  0
    7.9851  -16.4797   21.7043 C   0  0  0  0  0  0  0  0  0  0  0  0
    6.9142  -16.6381   22.3733 O   0  0  0  0  0  0  0  0  0  0  0  0
    9.2640  -16.6546   22.2733 N   0  0  0  0  0  0  0  0  0  0  0  0
    9.3554  -17.1011   23.6523 C   0  0  1  0  0  0  0  0  0  0  0  0
   10.3425  -18.2104   23.8065 C   0  0  0  0  0  0  0  0  0  0  0  0
   10.4868  -18.6915   25.1918 C   0  0  0  0  0  0  0  0  0  0  0  0
   11.6520  -18.8206   25.9435 C   0  0  0  0  0  0  0  0  0  0  0  0
   11.3390  -19.3135   27.1353 N   0  0  0  0  0  0  0  0  0  0  0  0
   10.0197  -19.5171   27.2077 C   0  0  0  0  0  0  0  0  0  0  0  0
    9.5031  -19.1392   26.0273 N   0  0  0  0  0  0  0  0  0  0  0  0
    9.6836  -15.9862   24.5639 C   0  0  0  0  0  0  0  0  0  0  0  0
   10.6638  -15.2535   24.3153 O   0  0  0  0  0  0  0  0  0  0  0  0
    8.9237  -15.7059   25.7261 N   0  0  0  0  0  0  0  0  0  0  0  0
    9.2574  -14.5626   26.5264 C   0  0  1  0  0  0  0  0  0  0  0  0
    8.0432  -13.7803   26.9715 C   0  0  0  0  0  0  0  0  0  0  0  0
    7.1248  -13.3023   25.4807 S   0  0  0  0  0  0  0  0  0  0  0  0
   10.1079  -14.9566   27.6746 C   0  0  0  0  0  0  0  0  0  0  0  0
   10.5765  -14.0364   28.5806 O   0  0  0  0  0  0  0  0  0  0  0  0
   10.4144  -16.1627   27.8326 O   0  0  0  0  0  0  0  0  0  0  0  0
  2  1  1  0
  2  3  1  0
  3  4  1  0
  4  5  1  0
  5  7  1  0
  5  6  1  1
  7  9  1  0
  8  7  2  0
  9 10  1  0
 10 11  1  6
 11 12  1  0
 12 13  2  0
 12 16  1  0
 13 14  1  0
 14 15  1  0
 16 15  2  0
 17 19  1  0
 17 10  1  0
 18 17  2  0
 20 19  1  0
 20 23  1  0
 20 21  1  1
 22 21  1  0
 23 24  1  0
 25 23  2  0
M  END
$$$$
