MHC.pdb
     RDKit          3D

 25 25  0  0  1  0  0  0  0  0999 V2000
    6.5066  -11.9798   27.2035 C   0  0  0  0  0  0  0  0  0  0  0  0
    6.5206  -11.4547   25.4824 S   0  0  0  0  0  0  0  0  0  0  0  0
    6.4310  -12.8794   24.3801 C   0  0  0  0  0  0  0  0  0  0  0  0
    7.4717  -13.9237   24.7371 C   0  0  0  0  0  0  0  0  0  0  0  0
    7.4515  -15.0437   23.6986 C   0  0  2  0  0  0  0  0  0  0  0  0
    6.1678  -15.7169   23.7601 N   0  0  0  0  0  0  0  0  0  0  0  0
    8.5723  -15.9879   23.9669 C   0  0  0  0  0  0  0  0  0  0  0  0
    8.3260  -16.9685   24.7399 O   0  0  0  0  0  0  0  0  0  0  0  0
    9.8403  -15.7873   23.3822 N   0  0  0  0  0  0  0  0  0  0  0  0
   10.8768  -16.7778   23.6145 C   0  0  1  0  0  0  0  0  0  0  0  0
   11.8246  -16.8616   22.4642 C   0  0  0  0  0  0  0  0  0  0  0  0
   11.2238  -17.4108   21.2358 C   0  0  0  0  0  0  0  0  0  0  0  0
   10.5808  -18.6337   21.0619 C   0  0  0  0  0  0  0  0  0  0  0  0
   10.2101  -18.7447   19.7924 N   0  0  0  0  0  0  0  0  0  0  0  0
   10.5782  -17.6512   19.1171 C   0  0  0  0  0  0  0  0  0  0  0  0
   11.1936  -16.8419   19.9942 N   0  0  0  0  0  0  0  0  0  0  0  0
   11.6090  -16.5140   24.8699 C   0  0  0  0  0  0  0  0  0  0  0  0
   11.9682  -15.3493   25.1422 O   0  0  0  0  0  0  0  0  0  0  0  0
   11.9269  -17.5393   25.7942 N   0  0  0  0  0  0  0  0  0  0  0  0
   11.9206  -17.2472   27.1991 C   0  0  1  0  0  0  0  0  0  0  0  0
   10.6282  -16.6165   27.6641 C   0  0  0  0  0  0  0  0  0  0  0  0
   10.8051  -16.2489   29.4327 S   0  0  0  0  0  0  0  0  0  0  0  0
   12.2561  -18.4568   27.9875 C   0  0  0  0  0  0  0  0  0  0  0  0
   13.2457  -18.4510   28.9402 O   0  0  0  0  0  0  0  0  0  0  0  0
   11.6240  -19.5216   27.7865 O   0  0  0  0  0  0  0  0  0  0  0  0
  2  1  1  0
  2  3  1  0
  3  4  1  0
  4  5  1  0
  5  7  1  0
  5  6  1  1
  7  9  1  0
  8  7  2  0
  9 10  1  0
 10 11  1  6
 11 12  1  0
 12 13  2  0
 12 16  1  0
 13 14  1  0
 14 15  1  0
 16 15  2  0
 17 19  1  0
 17 10  1  0
 18 17  2  0
 20 19  1  0
 20 23  1  0
 20 21  1  1
 22 21  1  0
 23 24  1  0
 25 23  2  0
M  END
$$$$
