MHC.pdb
     RDKit          3D

 25 25  0  0  1  0  0  0  0  0999 V2000
    7.0649  -12.2199   19.4194 C   0  0  0  0  0  0  0  0  0  0  0  0
    8.1759  -13.2361   20.4049 S   0  0  0  0  0  0  0  0  0  0  0  0
    7.2826  -14.6079   21.1620 C   0  0  0  0  0  0  0  0  0  0  0  0
    6.8802  -15.6449   20.1307 C   0  0  0  0  0  0  0  0  0  0  0  0
    8.1278  -16.1924   19.4401 C   0  0  2  0  0  0  0  0  0  0  0  0
    7.7248  -17.1871   18.4638 N   0  0  0  0  0  0  0  0  0  0  0  0
    9.0437  -16.7745   20.4609 C   0  0  0  0  0  0  0  0  0  0  0  0
    8.5513  -17.6484   21.2440 O   0  0  0  0  0  0  0  0  0  0  0  0
   10.3907  -16.3629   20.5400 N   0  0  0  0  0  0  0  0  0  0  0  0
   11.2433  -16.9667   21.5489 C   0  0  1  0  0  0  0  0  0  0  0  0
   12.6838  -16.8991   21.1630 C   0  0  0  0  0  0  0  0  0  0  0  0
   13.1354  -18.0377   20.3438 C   0  0  0  0  0  0  0  0  0  0  0  0
   12.4161  -19.1695   19.9682 C   0  0  0  0  0  0  0  0  0  0  0  0
   13.2056  -19.9588   19.2505 N   0  0  0  0  0  0  0  0  0  0  0  0
   14.4154  -19.4018   19.1336 C   0  0  0  0  0  0  0  0  0  0  0  0
   14.3717  -18.2355   19.7977 N   0  0  0  0  0  0  0  0  0  0  0  0
   11.0338  -16.3524   22.8757 C   0  0  0  0  0  0  0  0  0  0  0  0
   10.9706  -15.1093   22.9777 O   0  0  0  0  0  0  0  0  0  0  0  0
   10.8986  -17.1225   24.0570 N   0  0  0  0  0  0  0  0  0  0  0  0
   10.6532  -16.4591   25.3055 C   0  0  1  0  0  0  0  0  0  0  0  0
    9.4449  -15.5522   25.2634 C   0  0  0  0  0  0  0  0  0  0  0  0
    7.9717  -16.6088   25.1753 S   0  0  0  0  0  0  0  0  0  0  0  0
   10.5645  -17.4412   26.4123 C   0  0  0  0  0  0  0  0  0  0  0  0
   10.6205  -17.0570   27.7300 O   0  0  0  0  0  0  0  0  0  0  0  0
   10.4342  -18.6606   26.1487 O   0  0  0  0  0  0  0  0  0  0  0  0
  2  1  1  0
  2  3  1  0
  3  4  1  0
  4  5  1  0
  5  7  1  0
  5  6  1  6
  7  9  1  0
  8  7  2  0
  9 10  1  0
 10 11  1  6
 11 12  1  0
 12 13  2  0
 12 16  1  0
 13 14  1  0
 14 15  1  0
 16 15  2  0
 17 19  1  0
 17 10  1  0
 18 17  2  0
 20 19  1  0
 20 23  1  0
 20 21  1  6
 22 21  1  0
 23 24  1  0
 25 23  2  0
M  END
$$$$
