MHC.pdb
     RDKit          3D

 25 25  0  0  1  0  0  0  0  0999 V2000
    7.3215  -11.0259   26.7293 C   0  0  0  0  0  0  0  0  0  0  0  0
    6.1265  -12.1296   27.4988 S   0  0  0  0  0  0  0  0  0  0  0  0
    5.7352  -13.5089   26.4045 C   0  0  0  0  0  0  0  0  0  0  0  0
    6.9903  -14.2264   25.9453 C   0  0  0  0  0  0  0  0  0  0  0  0
    6.6276  -15.2697   24.8902 C   0  0  2  0  0  0  0  0  0  0  0  0
    5.7306  -16.2438   25.4830 N   0  0  0  0  0  0  0  0  0  0  0  0
    7.8714  -15.9153   24.3842 C   0  0  0  0  0  0  0  0  0  0  0  0
    8.0904  -17.1125   24.7563 O   0  0  0  0  0  0  0  0  0  0  0  0
    8.7527  -15.2157   23.5334 N   0  0  0  0  0  0  0  0  0  0  0  0
    9.9597  -15.8853   23.0816 C   0  0  1  0  0  0  0  0  0  0  0  0
   10.4884  -15.2764   21.8253 C   0  0  0  0  0  0  0  0  0  0  0  0
    9.4515  -14.9967   20.8163 C   0  0  0  0  0  0  0  0  0  0  0  0
    8.5123  -15.8730   20.2783 C   0  0  0  0  0  0  0  0  0  0  0  0
    7.7823  -15.2198   19.3829 N   0  0  0  0  0  0  0  0  0  0  0  0
    8.1950  -13.9507   19.3028 C   0  0  0  0  0  0  0  0  0  0  0  0
    9.2084  -13.8162   20.1735 N   0  0  0  0  0  0  0  0  0  0  0  0
   11.0005  -15.8951   24.1296 C   0  0  0  0  0  0  0  0  0  0  0  0
   11.8267  -14.9604   24.1880 O   0  0  0  0  0  0  0  0  0  0  0  0
   11.1051  -16.9335   25.0873 N   0  0  0  0  0  0  0  0  0  0  0  0
   11.2941  -16.5995   26.4700 C   0  0  1  0  0  0  0  0  0  0  0  0
   10.2178  -15.6847   27.0076 C   0  0  0  0  0  0  0  0  0  0  0  0
   11.0328  -14.4209   28.0240 S   0  0  0  0  0  0  0  0  0  0  0  0
   11.4332  -17.8257   27.2912 C   0  0  0  0  0  0  0  0  0  0  0  0
   11.0378  -19.0575   26.8292 O   0  0  0  0  0  0  0  0  0  0  0  0
   11.9252  -17.7471   28.4424 O   0  0  0  0  0  0  0  0  0  0  0  0
  2  1  1  0
  2  3  1  0
  3  4  1  0
  4  5  1  0
  5  7  1  0
  5  6  1  1
  7  9  1  0
  8  7  2  0
  9 10  1  0
 10 11  1  6
 11 12  1  0
 12 13  2  0
 12 16  1  0
 13 14  1  0
 14 15  1  0
 16 15  2  0
 17 19  1  0
 17 10  1  0
 18 17  2  0
 20 19  1  0
 20 23  1  0
 20 21  1  1
 22 21  1  0
 23 24  1  0
 25 23  2  0
M  END
$$$$
