MPR.pdb
     RDKit          3D

 27 27  0  0  1  0  0  0  0  0999 V2000
    7.9572   -9.9964   25.4625 C   0  0  0  0  0  0  0  0  0  0  0  0
    7.5950  -11.1882   26.7790 S   0  0  0  0  0  0  0  0  0  0  0  0
    6.5214  -12.5340   26.1685 C   0  0  0  0  0  0  0  0  0  0  0  0
    7.2635  -13.4022   25.2104 C   0  0  0  0  0  0  0  0  0  0  0  0
    6.4937  -14.6026   24.7185 C   0  0  2  0  0  0  0  0  0  0  0  0
    6.0395  -15.4608   25.7601 N   0  0  0  0  0  0  0  0  0  0  0  0
    7.2424  -15.3171   23.6859 C   0  0  0  0  0  0  0  0  0  0  0  0
    7.9430  -16.3040   24.1171 O   0  0  0  0  0  0  0  0  0  0  0  0
    7.2816  -15.0564   22.3253 N   0  0  0  0  0  0  0  0  0  0  0  0
    6.2264  -14.4490   21.4809 C   0  0  0  0  0  0  0  0  0  0  0  0
    7.0411  -13.2702   20.8906 C   0  0  0  0  0  0  0  0  0  0  0  0
    8.4500  -13.8556   20.7969 C   0  0  0  0  0  0  0  0  0  0  0  0
    8.3038  -15.2674   21.3072 C   0  0  1  0  0  0  0  0  0  0  0  0
    9.5087  -15.9550   21.6415 C   0  0  0  0  0  0  0  0  0  0  0  0
   10.3866  -15.3093   22.3285 O   0  0  0  0  0  0  0  0  0  0  0  0
    7.3455  -23.4072   23.0640 N   0  0  0  0  0  0  0  0  0  0  0  0
    7.7099  -22.0546   23.3486 C   0  0  0  0  0  0  0  0  0  0  0  0
    6.8862  -21.0843   23.0630 N   0  0  0  0  0  0  0  0  0  0  0  0
    8.9526  -21.7307   23.9337 N   0  0  0  0  0  0  0  0  0  0  0  0
   10.0897  -21.4107   23.0243 C   0  0  0  0  0  0  0  0  0  0  0  0
    9.9359  -20.0600   22.4653 C   0  0  0  0  0  0  0  0  0  0  0  0
   10.9652  -19.3664   21.7108 C   0  0  0  0  0  0  0  0  0  0  0  0
   11.1371  -17.9032   21.8851 C   0  0  2  0  0  0  0  0  0  0  0  0
    9.8784  -17.2630   21.3115 N   0  0  0  0  0  0  0  0  0  0  0  0
   12.1562  -17.3742   20.9564 C   0  0  0  0  0  0  0  0  0  0  0  0
   13.3566  -16.8510   21.4691 O   0  0  0  0  0  0  0  0  0  0  0  0
   12.0366  -17.3524   19.7396 O   0  0  0  0  0  0  0  0  0  0  0  0
  2  1  1  0
  3  2  1  0
  4  3  1  0
  4  5  1  0
  5  6  1  1
  7  8  2  0
  7  5  1  0
  9  7  1  0
 10  9  1  0
 11 10  1  0
 12 11  1  0
 12 13  1  0
 13 14  1  1
 13  9  1  0
 14 15  2  0
 17 18  2  0
 17 16  1  0
 19 17  1  0
 20 19  1  0
 21 20  1  0
 22 21  1  0
 23 22  1  6
 24 23  1  0
 24 14  1  0
 25 26  1  0
 25 23  1  0
 27 25  2  0
M  END
$$$$
