MPR.pdb
     RDKit          3D

 27 27  0  0  1  0  0  0  0  0999 V2000
    7.2225  -10.1707   25.6391 C   0  0  0  0  0  0  0  0  0  0  0  0
    6.6375  -11.3659   26.8695 S   0  0  0  0  0  0  0  0  0  0  0  0
    5.8404  -12.7990   26.0649 C   0  0  0  0  0  0  0  0  0  0  0  0
    6.8472  -13.6088   25.3211 C   0  0  0  0  0  0  0  0  0  0  0  0
    6.3009  -14.8570   24.6739 C   0  0  2  0  0  0  0  0  0  0  0  0
    5.6801  -15.7546   25.5886 N   0  0  0  0  0  0  0  0  0  0  0  0
    7.3182  -15.5070   23.8492 C   0  0  0  0  0  0  0  0  0  0  0  0
    8.0150  -16.3973   24.4594 O   0  0  0  0  0  0  0  0  0  0  0  0
    7.6097  -15.2767   22.5140 N   0  0  0  0  0  0  0  0  0  0  0  0
    6.6851  -14.8507   21.4375 C   0  0  0  0  0  0  0  0  0  0  0  0
    7.4367  -13.5804   20.9651 C   0  0  0  0  0  0  0  0  0  0  0  0
    8.9001  -13.9559   21.1974 C   0  0  0  0  0  0  0  0  0  0  0  0
    8.8443  -15.3610   21.7428 C   0  0  1  0  0  0  0  0  0  0  0  0
   10.0333  -15.8569   22.3566 C   0  0  0  0  0  0  0  0  0  0  0  0
   10.7900  -15.0030   22.9547 O   0  0  0  0  0  0  0  0  0  0  0  0
    7.7445  -20.7918   25.1389 N   0  0  0  0  0  0  0  0  0  0  0  0
    8.4380  -20.6505   26.3808 C   0  0  0  0  0  0  0  0  0  0  0  0
    7.7676  -20.5919   27.4982 N   0  0  0  0  0  0  0  0  0  0  0  0
    9.8457  -20.5671   26.4367 N   0  0  0  0  0  0  0  0  0  0  0  0
   10.5988  -20.6091   25.1508 C   0  0  0  0  0  0  0  0  0  0  0  0
   10.9831  -19.2524   24.7360 C   0  0  0  0  0  0  0  0  0  0  0  0
   11.6861  -18.9439   23.5030 C   0  0  0  0  0  0  0  0  0  0  0  0
   11.8201  -17.5302   23.0732 C   0  0  2  0  0  0  0  0  0  0  0  0
   10.5039  -17.1735   22.3923 N   0  0  0  0  0  0  0  0  0  0  0  0
   12.7542  -17.4075   21.9361 C   0  0  0  0  0  0  0  0  0  0  0  0
   12.3280  -17.7712   20.6463 O   0  0  0  0  0  0  0  0  0  0  0  0
   13.9049  -17.0039   22.0281 O   0  0  0  0  0  0  0  0  0  0  0  0
  2  1  1  0
  3  2  1  0
  4  3  1  0
  4  5  1  0
  5  6  1  1
  7  8  2  0
  7  5  1  0
  9  7  1  0
 10  9  1  0
 11 10  1  0
 12 11  1  0
 12 13  1  0
 13 14  1  1
 13  9  1  0
 14 15  2  0
 17 18  2  0
 17 16  1  0
 19 17  1  0
 20 19  1  0
 21 20  1  0
 22 21  1  0
 23 22  1  6
 24 23  1  0
 24 14  1  0
 25 26  1  0
 25 23  1  0
 27 25  2  0
M  END
$$$$
