MPR.pdb
     RDKit          3D

 27 27  0  0  1  0  0  0  0  0999 V2000
    6.0821  -11.1985   19.9699 C   0  0  0  0  0  0  0  0  0  0  0  0
    5.7324  -12.9767   19.9840 S   0  0  0  0  0  0  0  0  0  0  0  0
    7.2166  -13.9335   20.4512 C   0  0  0  0  0  0  0  0  0  0  0  0
    7.8438  -13.3620   21.6769 C   0  0  0  0  0  0  0  0  0  0  0  0
    9.0643  -14.1014   22.1659 C   0  0  2  0  0  0  0  0  0  0  0  0
    9.4846  -15.1522   21.3017 N   0  0  0  0  0  0  0  0  0  0  0  0
    8.8888  -14.5445   23.5480 C   0  0  0  0  0  0  0  0  0  0  0  0
    9.3904  -15.6981   23.8093 O   0  0  0  0  0  0  0  0  0  0  0  0
    8.2567  -13.8766   24.5849 N   0  0  0  0  0  0  0  0  0  0  0  0
    7.7834  -12.4729   24.6130 C   0  0  0  0  0  0  0  0  0  0  0  0
    6.2980  -12.7282   24.9737 C   0  0  0  0  0  0  0  0  0  0  0  0
    6.3809  -13.9739   25.8557 C   0  0  0  0  0  0  0  0  0  0  0  0
    7.8549  -14.2862   25.9253 C   0  0  1  0  0  0  0  0  0  0  0  0
    8.2127  -15.5796   26.4105 C   0  0  0  0  0  0  0  0  0  0  0  0
    7.3880  -16.5437   26.1871 O   0  0  0  0  0  0  0  0  0  0  0  0
   14.4390  -20.6659   23.8234 N   0  0  0  0  0  0  0  0  0  0  0  0
   13.2004  -21.3623   23.9788 C   0  0  0  0  0  0  0  0  0  0  0  0
   13.0741  -22.5769   23.5201 N   0  0  0  0  0  0  0  0  0  0  0  0
   12.0922  -20.7670   24.6186 N   0  0  0  0  0  0  0  0  0  0  0  0
   12.2387  -19.3668   25.1086 C   0  0  0  0  0  0  0  0  0  0  0  0
   11.0841  -18.9886   25.9360 C   0  0  0  0  0  0  0  0  0  0  0  0
   10.9211  -17.6900   26.5658 C   0  0  0  0  0  0  0  0  0  0  0  0
    9.7033  -17.4151   27.3673 C   0  0  2  0  0  0  0  0  0  0  0  0
    9.3605  -15.9509   27.1183 N   0  0  0  0  0  0  0  0  0  0  0  0
   10.0150  -17.3777   28.8103 C   0  0  0  0  0  0  0  0  0  0  0  0
   10.1486  -18.5831   29.5222 O   0  0  0  0  0  0  0  0  0  0  0  0
   10.1699  -16.3514   29.4569 O   0  0  0  0  0  0  0  0  0  0  0  0
  2  1  1  0
  3  2  1  0
  4  3  1  0
  4  5  1  0
  5  6  1  6
  7  8  2  0
  7  5  1  0
  9  7  1  0
 10  9  1  0
 11 10  1  0
 12 11  1  0
 12 13  1  0
 13 14  1  6
 13  9  1  0
 14 15  2  0
 17 18  2  0
 17 16  1  0
 19 17  1  0
 20 19  1  0
 21 20  1  0
 22 21  1  0
 23 22  1  6
 24 23  1  0
 24 14  1  0
 25 26  1  0
 25 23  1  0
 27 25  2  0
M  END
$$$$
