MPR.pdb
     RDKit          3D

 27 27  0  0  1  0  0  0  0  0999 V2000
   13.8159  -14.7574   20.3923 C   0  0  0  0  0  0  0  0  0  0  0  0
   13.7060  -14.0898   18.7110 S   0  0  0  0  0  0  0  0  0  0  0  0
   11.9859  -13.6365   18.2962 C   0  0  0  0  0  0  0  0  0  0  0  0
   11.0638  -14.7756   18.5692 C   0  0  0  0  0  0  0  0  0  0  0  0
    9.5969  -14.4423   18.4565 C   0  0  2  0  0  0  0  0  0  0  0  0
    9.3390  -13.0715   18.1701 N   0  0  0  0  0  0  0  0  0  0  0  0
    8.8601  -14.9222   19.6245 C   0  0  0  0  0  0  0  0  0  0  0  0
    8.7508  -14.0681   20.5781 O   0  0  0  0  0  0  0  0  0  0  0  0
    8.2794  -16.1661   19.8157 N   0  0  0  0  0  0  0  0  0  0  0  0
    7.4301  -16.9320   18.8738 C   0  0  0  0  0  0  0  0  0  0  0  0
    8.2542  -18.2434   18.8204 C   0  0  0  0  0  0  0  0  0  0  0  0
    8.8395  -18.3242   20.2302 C   0  0  0  0  0  0  0  0  0  0  0  0
    8.2967  -17.1042   20.9317 C   0  0  1  0  0  0  0  0  0  0  0  0
    8.9269  -16.7380   22.1584 C   0  0  0  0  0  0  0  0  0  0  0  0
   10.2142  -16.6872   22.1695 O   0  0  0  0  0  0  0  0  0  0  0  0
    5.5568  -12.5024   27.9488 N   0  0  0  0  0  0  0  0  0  0  0  0
    6.0267  -11.6627   26.8917 C   0  0  0  0  0  0  0  0  0  0  0  0
    6.0744  -10.3699   27.0590 N   0  0  0  0  0  0  0  0  0  0  0  0
    6.4430  -12.1957   25.6530 N   0  0  0  0  0  0  0  0  0  0  0  0
    6.4660  -13.6788   25.5039 C   0  0  0  0  0  0  0  0  0  0  0  0
    7.8347  -14.1900   25.6639 C   0  0  0  0  0  0  0  0  0  0  0  0
    8.1896  -15.5981   25.6312 C   0  0  0  0  0  0  0  0  0  0  0  0
    9.1535  -16.0846   24.6137 C   0  0  2  0  0  0  0  0  0  0  0  0
    8.3240  -16.4261   23.3813 N   0  0  0  0  0  0  0  0  0  0  0  0
    9.6713  -17.4210   24.9693 C   0  0  0  0  0  0  0  0  0  0  0  0
   10.8254  -17.5281   25.7656 O   0  0  0  0  0  0  0  0  0  0  0  0
    9.1626  -18.4753   24.6155 O   0  0  0  0  0  0  0  0  0  0  0  0
  2  1  1  0
  3  2  1  0
  4  3  1  0
  4  5  1  0
  5  6  1  1
  7  8  2  0
  7  5  1  0
  9  7  1  0
 10  9  1  0
 11 10  1  0
 12 11  1  0
 12 13  1  0
 13 14  1  1
 13  9  1  0
 14 15  2  0
 17 18  2  0
 17 16  1  0
 19 17  1  0
 20 19  1  0
 21 20  1  0
 22 21  1  0
 23 22  1  1
 24 23  1  0
 24 14  1  0
 25 26  1  0
 25 23  1  0
 27 25  2  0
M  END
$$$$
