MPR.pdb
     RDKit          3D

 27 27  0  0  1  0  0  0  0  0999 V2000
    5.4431  -19.5919   17.8647 C   0  0  0  0  0  0  0  0  0  0  0  0
    7.0180  -19.6572   16.9702 S   0  0  0  0  0  0  0  0  0  0  0  0
    7.4411  -18.0255   16.2667 C   0  0  0  0  0  0  0  0  0  0  0  0
    7.4021  -16.9739   17.3226 C   0  0  0  0  0  0  0  0  0  0  0  0
    8.2382  -15.7530   17.0299 C   0  0  2  0  0  0  0  0  0  0  0  0
    9.1389  -15.9207   15.9397 N   0  0  0  0  0  0  0  0  0  0  0  0
    8.9019  -15.2709   18.2401 C   0  0  0  0  0  0  0  0  0  0  0  0
    9.9446  -15.9389   18.5826 O   0  0  0  0  0  0  0  0  0  0  0  0
    8.5419  -14.1993   19.0419 N   0  0  0  0  0  0  0  0  0  0  0  0
    8.1430  -12.8362   18.6198 C   0  0  0  0  0  0  0  0  0  0  0  0
    6.7651  -12.7607   19.3251 C   0  0  0  0  0  0  0  0  0  0  0  0
    6.9910  -13.5984   20.5836 C   0  0  0  0  0  0  0  0  0  0  0  0
    8.4302  -14.0392   20.4868 C   0  0  1  0  0  0  0  0  0  0  0  0
    8.8345  -15.0990   21.3527 C   0  0  0  0  0  0  0  0  0  0  0  0
    8.0333  -16.1004   21.4752 O   0  0  0  0  0  0  0  0  0  0  0  0
   15.4479  -17.3413   18.8981 N   0  0  0  0  0  0  0  0  0  0  0  0
   15.6309  -16.2626   19.8180 C   0  0  0  0  0  0  0  0  0  0  0  0
   16.5413  -15.3573   19.5874 N   0  0  0  0  0  0  0  0  0  0  0  0
   14.8489  -16.1465   20.9870 N   0  0  0  0  0  0  0  0  0  0  0  0
   13.7433  -17.1263   21.1870 C   0  0  0  0  0  0  0  0  0  0  0  0
   12.6155  -16.4928   21.8850 C   0  0  0  0  0  0  0  0  0  0  0  0
   11.3727  -17.1701   22.2113 C   0  0  0  0  0  0  0  0  0  0  0  0
   10.3122  -16.4363   22.9447 C   0  0  2  0  0  0  0  0  0  0  0  0
   10.0063  -15.1983   22.1098 N   0  0  0  0  0  0  0  0  0  0  0  0
   10.8499  -15.8100   24.1692 C   0  0  0  0  0  0  0  0  0  0  0  0
   10.9447  -14.4091   24.2472 O   0  0  0  0  0  0  0  0  0  0  0  0
   11.2326  -16.4303   25.1511 O   0  0  0  0  0  0  0  0  0  0  0  0
  2  1  1  0
  3  2  1  0
  4  3  1  0
  4  5  1  0
  5  6  1  6
  7  8  2  0
  7  5  1  0
  9  7  1  0
 10  9  1  0
 11 10  1  0
 12 11  1  0
 12 13  1  0
 13 14  1  1
 13  9  1  0
 14 15  2  0
 17 18  2  0
 17 16  1  0
 19 17  1  0
 20 19  1  0
 21 20  1  0
 22 21  1  0
 23 22  1  6
 24 23  1  0
 24 14  1  0
 25 26  1  0
 25 23  1  0
 27 25  2  0
M  END
$$$$
