MPR.pdb
     RDKit          3D

 27 27  0  0  1  0  0  0  0  0999 V2000
    7.9934  -12.3979   27.7758 C   0  0  0  0  0  0  0  0  0  0  0  0
    6.3584  -12.0039   27.1003 S   0  0  0  0  0  0  0  0  0  0  0  0
    5.6548  -13.4343   26.2086 C   0  0  0  0  0  0  0  0  0  0  0  0
    6.6820  -14.0587   25.3269 C   0  0  0  0  0  0  0  0  0  0  0  0
    6.1943  -15.2412   24.5274 C   0  0  2  0  0  0  0  0  0  0  0  0
    5.5722  -16.2510   25.3156 N   0  0  0  0  0  0  0  0  0  0  0  0
    7.2563  -15.7684   23.6721 C   0  0  0  0  0  0  0  0  0  0  0  0
    8.0255  -16.6271   24.2393 O   0  0  0  0  0  0  0  0  0  0  0  0
    7.5216  -15.4539   22.3486 N   0  0  0  0  0  0  0  0  0  0  0  0
    6.5518  -15.1667   21.2660 C   0  0  0  0  0  0  0  0  0  0  0  0
    7.0755  -13.7719   20.8392 C   0  0  0  0  0  0  0  0  0  0  0  0
    8.5787  -13.8920   21.0893 C   0  0  0  0  0  0  0  0  0  0  0  0
    8.7625  -15.2997   21.5988 C   0  0  1  0  0  0  0  0  0  0  0  0
   10.0113  -15.5968   22.2221 C   0  0  0  0  0  0  0  0  0  0  0  0
   10.3622  -14.8636   23.2216 O   0  0  0  0  0  0  0  0  0  0  0  0
   12.9060  -18.7718   29.1260 N   0  0  0  0  0  0  0  0  0  0  0  0
   12.4087  -17.4847   28.7528 C   0  0  0  0  0  0  0  0  0  0  0  0
   12.2266  -16.5679   29.6627 N   0  0  0  0  0  0  0  0  0  0  0  0
   12.1001  -17.1712   27.4119 N   0  0  0  0  0  0  0  0  0  0  0  0
   11.9081  -18.3003   26.4577 C   0  0  0  0  0  0  0  0  0  0  0  0
   12.3745  -17.9237   25.1157 C   0  0  0  0  0  0  0  0  0  0  0  0
   11.5060  -17.4492   24.0525 C   0  0  0  0  0  0  0  0  0  0  0  0
   12.1041  -16.9379   22.7948 C   0  0  2  0  0  0  0  0  0  0  0  0
   10.9314  -16.5943   21.8836 N   0  0  0  0  0  0  0  0  0  0  0  0
   12.7337  -18.0292   22.0245 C   0  0  0  0  0  0  0  0  0  0  0  0
   14.1199  -18.2412   22.1286 O   0  0  0  0  0  0  0  0  0  0  0  0
   12.1285  -18.7865   21.2790 O   0  0  0  0  0  0  0  0  0  0  0  0
  2  1  1  0
  3  2  1  0
  4  3  1  0
  4  5  1  0
  5  6  1  1
  7  8  2  0
  7  5  1  0
  9  7  1  0
 10  9  1  0
 11 10  1  0
 12 11  1  0
 12 13  1  0
 13 14  1  1
 13  9  1  0
 14 15  2  0
 17 18  2  0
 17 16  1  0
 19 17  1  0
 20 19  1  0
 21 20  1  0
 22 21  1  0
 23 22  1  1
 24 23  1  0
 24 14  1  0
 25 26  1  0
 25 23  1  0
 27 25  2  0
M  END
$$$$
