MPR.pdb
     RDKit          3D

 27 27  0  0  1  0  0  0  0  0999 V2000
    5.9376  -10.5867   26.5607 C   0  0  0  0  0  0  0  0  0  0  0  0
    6.8674  -12.0889   26.9651 S   0  0  0  0  0  0  0  0  0  0  0  0
    6.1377  -13.5515   26.1499 C   0  0  0  0  0  0  0  0  0  0  0  0
    7.1578  -14.2503   25.3172 C   0  0  0  0  0  0  0  0  0  0  0  0
    6.6473  -15.4610   24.5761 C   0  0  2  0  0  0  0  0  0  0  0  0
    6.0512  -16.4419   25.4188 N   0  0  0  0  0  0  0  0  0  0  0  0
    7.6831  -16.0183   23.7079 C   0  0  0  0  0  0  0  0  0  0  0  0
    8.4664  -16.8610   24.2798 O   0  0  0  0  0  0  0  0  0  0  0  0
    7.9111  -15.7467   22.3681 N   0  0  0  0  0  0  0  0  0  0  0  0
    6.9108  -15.5099   21.3011 C   0  0  0  0  0  0  0  0  0  0  0  0
    7.4044  -14.1242   20.8133 C   0  0  0  0  0  0  0  0  0  0  0  0
    8.9148  -14.2161   21.0292 C   0  0  0  0  0  0  0  0  0  0  0  0
    9.1306  -15.6028   21.5821 C   0  0  1  0  0  0  0  0  0  0  0  0
   10.3985  -15.8618   22.1834 C   0  0  0  0  0  0  0  0  0  0  0  0
   10.8523  -14.9823   23.0082 O   0  0  0  0  0  0  0  0  0  0  0  0
   11.1651  -18.7845   28.9184 N   0  0  0  0  0  0  0  0  0  0  0  0
   11.0722  -19.7264   27.8472 C   0  0  0  0  0  0  0  0  0  0  0  0
   11.3196  -20.9883   28.0662 N   0  0  0  0  0  0  0  0  0  0  0  0
   10.7201  -19.3276   26.5400 N   0  0  0  0  0  0  0  0  0  0  0  0
   11.7168  -19.5430   25.4525 C   0  0  0  0  0  0  0  0  0  0  0  0
   11.7815  -18.3660   24.5746 C   0  0  0  0  0  0  0  0  0  0  0  0
   12.6668  -18.2494   23.4290 C   0  0  0  0  0  0  0  0  0  0  0  0
   12.6335  -17.0175   22.6029 C   0  0  2  0  0  0  0  0  0  0  0  0
   11.2391  -16.9629   21.9897 N   0  0  0  0  0  0  0  0  0  0  0  0
   13.4572  -17.1714   21.3870 C   0  0  0  0  0  0  0  0  0  0  0  0
   14.8172  -16.8153   21.4212 O   0  0  0  0  0  0  0  0  0  0  0  0
   13.0392  -17.5955   20.3189 O   0  0  0  0  0  0  0  0  0  0  0  0
  2  1  1  0
  3  2  1  0
  4  3  1  0
  4  5  1  0
  5  6  1  1
  7  8  2  0
  7  5  1  0
  9  7  1  0
 10  9  1  0
 11 10  1  0
 12 11  1  0
 12 13  1  0
 13 14  1  1
 13  9  1  0
 14 15  2  0
 17 18  2  0
 17 16  1  0
 19 17  1  0
 20 19  1  0
 21 20  1  0
 22 21  1  0
 23 22  1  1
 24 23  1  0
 24 14  1  0
 25 26  1  0
 25 23  1  0
 27 25  2  0
M  END
$$$$
