MPR.pdb
     RDKit          3D

 27 27  0  0  1  0  0  0  0  0999 V2000
    8.2578  -11.0632   26.1818 C   0  0  0  0  0  0  0  0  0  0  0  0
    6.6069  -11.3608   26.8677 S   0  0  0  0  0  0  0  0  0  0  0  0
    5.8611  -12.8671   26.1527 C   0  0  0  0  0  0  0  0  0  0  0  0
    6.8689  -13.6225   25.3551 C   0  0  0  0  0  0  0  0  0  0  0  0
    6.3531  -14.8919   24.7243 C   0  0  2  0  0  0  0  0  0  0  0  0
    5.8109  -15.8194   25.6590 N   0  0  0  0  0  0  0  0  0  0  0  0
    7.3640  -15.4929   23.8558 C   0  0  0  0  0  0  0  0  0  0  0  0
    8.2140  -16.2426   24.4608 O   0  0  0  0  0  0  0  0  0  0  0  0
    7.5063  -15.3486   22.4847 N   0  0  0  0  0  0  0  0  0  0  0  0
    6.4552  -15.0523   21.4835 C   0  0  0  0  0  0  0  0  0  0  0  0
    7.0800  -13.7841   20.8485 C   0  0  0  0  0  0  0  0  0  0  0  0
    8.5788  -14.0659   20.9526 C   0  0  0  0  0  0  0  0  0  0  0  0
    8.6602  -15.4273   21.5969 C   0  0  1  0  0  0  0  0  0  0  0  0
    9.9317  -15.8144   22.1163 C   0  0  0  0  0  0  0  0  0  0  0  0
   10.5841  -14.9368   22.7972 O   0  0  0  0  0  0  0  0  0  0  0  0
    7.7410  -20.7383   22.5416 N   0  0  0  0  0  0  0  0  0  0  0  0
    8.1320  -21.0050   23.8904 C   0  0  0  0  0  0  0  0  0  0  0  0
    7.2331  -21.0358   24.8352 N   0  0  0  0  0  0  0  0  0  0  0  0
    9.4803  -21.2354   24.2380 N   0  0  0  0  0  0  0  0  0  0  0  0
   10.5306  -20.8486   23.2534 C   0  0  0  0  0  0  0  0  0  0  0  0
   11.1083  -19.5435   23.6047 C   0  0  0  0  0  0  0  0  0  0  0  0
   12.0240  -18.8008   22.7563 C   0  0  0  0  0  0  0  0  0  0  0  0
   11.9102  -17.3237   22.6767 C   0  0  2  0  0  0  0  0  0  0  0  0
   10.5848  -17.0435   21.9779 N   0  0  0  0  0  0  0  0  0  0  0  0
   12.8584  -16.7708   21.6889 C   0  0  0  0  0  0  0  0  0  0  0  0
   14.1852  -16.5077   22.0732 O   0  0  0  0  0  0  0  0  0  0  0  0
   12.5740  -16.5140   20.5275 O   0  0  0  0  0  0  0  0  0  0  0  0
  2  1  1  0
  3  2  1  0
  4  3  1  0
  4  5  1  0
  5  6  1  1
  7  8  2  0
  7  5  1  0
  9  7  1  0
 10  9  1  0
 11 10  1  0
 12 11  1  0
 12 13  1  0
 13 14  1  1
 13  9  1  0
 14 15  2  0
 17 18  2  0
 17 16  1  0
 19 17  1  0
 20 19  1  0
 21 20  1  0
 22 21  1  0
 23 22  1  6
 24 23  1  0
 24 14  1  0
 25 26  1  0
 25 23  1  0
 27 25  2  0
M  END
$$$$
