MPR.pdb
     RDKit          3D

 27 27  0  0  1  0  0  0  0  0999 V2000
    9.0289  -11.7435   20.2698 C   0  0  0  0  0  0  0  0  0  0  0  0
    7.7360  -12.0901   19.0479 S   0  0  0  0  0  0  0  0  0  0  0  0
    7.5857  -13.8847   18.7429 C   0  0  0  0  0  0  0  0  0  0  0  0
    8.3748  -14.6544   19.7465 C   0  0  0  0  0  0  0  0  0  0  0  0
    8.3381  -16.1516   19.5661 C   0  0  2  0  0  0  0  0  0  0  0  0
    7.0331  -16.6706   19.3305 N   0  0  0  0  0  0  0  0  0  0  0  0
    9.0235  -16.8282   20.6660 C   0  0  0  0  0  0  0  0  0  0  0  0
    8.8380  -16.2975   21.8212 O   0  0  0  0  0  0  0  0  0  0  0  0
    9.8327  -17.9518   20.6052 N   0  0  0  0  0  0  0  0  0  0  0  0
    9.6442  -19.1697   19.7829 C   0  0  0  0  0  0  0  0  0  0  0  0
   11.0027  -19.1678   19.0371 C   0  0  0  0  0  0  0  0  0  0  0  0
   11.9500  -18.5685   20.0762 C   0  0  0  0  0  0  0  0  0  0  0  0
   11.0748  -18.3131   21.2779 C   0  0  1  0  0  0  0  0  0  0  0  0
   11.6095  -17.4603   22.2893 C   0  0  0  0  0  0  0  0  0  0  0  0
   12.2944  -16.4405   21.9013 O   0  0  0  0  0  0  0  0  0  0  0  0
    9.2516  -15.9822   28.5187 N   0  0  0  0  0  0  0  0  0  0  0  0
   10.0643  -14.8063   28.5109 C   0  0  0  0  0  0  0  0  0  0  0  0
    9.5217  -13.6411   28.2882 N   0  0  0  0  0  0  0  0  0  0  0  0
   11.4562  -14.8674   28.7357 N   0  0  0  0  0  0  0  0  0  0  0  0
   12.3482  -15.0210   27.5511 C   0  0  0  0  0  0  0  0  0  0  0  0
   12.4243  -16.4316   27.1449 C   0  0  0  0  0  0  0  0  0  0  0  0
   11.7418  -16.9865   25.9891 C   0  0  0  0  0  0  0  0  0  0  0  0
   12.2061  -16.6293   24.6260 C   0  0  2  0  0  0  0  0  0  0  0  0
   11.4947  -17.5872   23.6775 N   0  0  0  0  0  0  0  0  0  0  0  0
   13.6100  -17.0380   24.4195 C   0  0  0  0  0  0  0  0  0  0  0  0
   13.9115  -18.3926   24.1916 O   0  0  0  0  0  0  0  0  0  0  0  0
   14.5617  -16.2702   24.4322 O   0  0  0  0  0  0  0  0  0  0  0  0
  2  1  1  0
  3  2  1  0
  4  3  1  0
  4  5  1  0
  5  6  1  1
  7  8  2  0
  7  5  1  0
  9  7  1  0
 10  9  1  0
 11 10  1  0
 12 11  1  0
 12 13  1  0
 13 14  1  6
 13  9  1  0
 14 15  2  0
 17 18  2  0
 17 16  1  0
 19 17  1  0
 20 19  1  0
 21 20  1  0
 22 21  1  0
 23 22  1  1
 24 23  1  0
 24 14  1  0
 25 26  1  0
 25 23  1  0
 27 25  2  0
M  END
$$$$
