MPR.pdb
     RDKit          3D

 27 27  0  0  1  0  0  0  0  0999 V2000
    7.7063  -11.8720   28.0240 C   0  0  0  0  0  0  0  0  0  0  0  0
    6.6727  -11.2338   26.6790 S   0  0  0  0  0  0  0  0  0  0  0  0
    5.7953  -12.5896   25.8257 C   0  0  0  0  0  0  0  0  0  0  0  0
    6.7541  -13.4280   25.0510 C   0  0  0  0  0  0  0  0  0  0  0  0
    6.1438  -14.6388   24.3898 C   0  0  2  0  0  0  0  0  0  0  0  0
    5.3983  -15.4647   25.2785 N   0  0  0  0  0  0  0  0  0  0  0  0
    7.1494  -15.3860   23.6361 C   0  0  0  0  0  0  0  0  0  0  0  0
    7.7811  -16.2731   24.3177 O   0  0  0  0  0  0  0  0  0  0  0  0
    7.4909  -15.2488   22.2999 N   0  0  0  0  0  0  0  0  0  0  0  0
    6.6184  -14.8515   21.1703 C   0  0  0  0  0  0  0  0  0  0  0  0
    7.4371  -13.6436   20.6486 C   0  0  0  0  0  0  0  0  0  0  0  0
    8.8755  -14.0634   20.9507 C   0  0  0  0  0  0  0  0  0  0  0  0
    8.7436  -15.4296   21.5761 C   0  0  1  0  0  0  0  0  0  0  0  0
    9.8913  -15.9353   22.2569 C   0  0  0  0  0  0  0  0  0  0  0  0
   10.5719  -15.1031   22.9666 O   0  0  0  0  0  0  0  0  0  0  0  0
    7.5036  -21.3254   24.9647 N   0  0  0  0  0  0  0  0  0  0  0  0
    8.0950  -20.9098   26.1979 C   0  0  0  0  0  0  0  0  0  0  0  0
    7.3625  -20.8187   27.2734 N   0  0  0  0  0  0  0  0  0  0  0  0
    9.4657  -20.5863   26.2891 N   0  0  0  0  0  0  0  0  0  0  0  0
   10.2824  -20.6519   25.0437 C   0  0  0  0  0  0  0  0  0  0  0  0
   10.5781  -19.2988   24.5514 C   0  0  0  0  0  0  0  0  0  0  0  0
   11.4860  -19.0088   23.4554 C   0  0  0  0  0  0  0  0  0  0  0  0
   11.6664  -17.6056   23.0087 C   0  0  2  0  0  0  0  0  0  0  0  0
   10.3940  -17.2405   22.2531 N   0  0  0  0  0  0  0  0  0  0  0  0
   12.6609  -17.5189   21.9205 C   0  0  0  0  0  0  0  0  0  0  0  0
   14.0128  -17.2909   22.2332 O   0  0  0  0  0  0  0  0  0  0  0  0
   12.3955  -17.6314   20.7320 O   0  0  0  0  0  0  0  0  0  0  0  0
  2  1  1  0
  3  2  1  0
  4  3  1  0
  4  5  1  0
  5  6  1  1
  7  8  2  0
  7  5  1  0
  9  7  1  0
 10  9  1  0
 11 10  1  0
 12 11  1  0
 12 13  1  0
 13 14  1  1
 13  9  1  0
 14 15  2  0
 17 18  2  0
 17 16  1  0
 19 17  1  0
 20 19  1  0
 21 20  1  0
 22 21  1  0
 23 22  1  6
 24 23  1  0
 24 14  1  0
 25 26  1  0
 25 23  1  0
 27 25  2  0
M  END
$$$$
