MPR.pdb
     RDKit          3D

 27 27  0  0  1  0  0  0  0  0999 V2000
    5.7528  -11.2411   26.7542 C   0  0  0  0  0  0  0  0  0  0  0  0
    7.1005  -12.4104   27.0716 S   0  0  0  0  0  0  0  0  0  0  0  0
    6.6402  -14.0993   26.5500 C   0  0  0  0  0  0  0  0  0  0  0  0
    6.5184  -14.1742   25.0661 C   0  0  0  0  0  0  0  0  0  0  0  0
    6.2917  -15.5619   24.5197 C   0  0  2  0  0  0  0  0  0  0  0  0
    5.9943  -16.5318   25.5190 N   0  0  0  0  0  0  0  0  0  0  0  0
    7.3944  -15.9685   23.6502 C   0  0  0  0  0  0  0  0  0  0  0  0
    8.1909  -16.8359   24.1638 O   0  0  0  0  0  0  0  0  0  0  0  0
    7.6719  -15.5339   22.3637 N   0  0  0  0  0  0  0  0  0  0  0  0
    6.7125  -15.1337   21.3080 C   0  0  0  0  0  0  0  0  0  0  0  0
    7.2557  -13.7116   21.0174 C   0  0  0  0  0  0  0  0  0  0  0  0
    8.7557  -13.8737   21.2629 C   0  0  0  0  0  0  0  0  0  0  0  0
    8.9192  -15.3254   21.6381 C   0  0  1  0  0  0  0  0  0  0  0  0
   10.1604  -15.6956   22.2371 C   0  0  0  0  0  0  0  0  0  0  0  0
   10.5613  -15.0000   23.2445 O   0  0  0  0  0  0  0  0  0  0  0  0
   13.4178  -21.1783   26.9452 N   0  0  0  0  0  0  0  0  0  0  0  0
   12.0795  -21.4301   26.5107 C   0  0  0  0  0  0  0  0  0  0  0  0
   11.5878  -22.6362   26.5814 N   0  0  0  0  0  0  0  0  0  0  0  0
   11.2627  -20.4005   25.9964 N   0  0  0  0  0  0  0  0  0  0  0  0
   11.1535  -20.2706   24.5154 C   0  0  0  0  0  0  0  0  0  0  0  0
   11.3552  -18.8733   24.1061 C   0  0  0  0  0  0  0  0  0  0  0  0
   12.2282  -18.4577   23.0222 C   0  0  0  0  0  0  0  0  0  0  0  0
   12.2989  -17.0231   22.6509 C   0  0  2  0  0  0  0  0  0  0  0  0
   11.0250  -16.7308   21.8666 N   0  0  0  0  0  0  0  0  0  0  0  0
   13.3173  -16.7948   21.6062 C   0  0  0  0  0  0  0  0  0  0  0  0
   14.6097  -16.3821   21.9762 O   0  0  0  0  0  0  0  0  0  0  0  0
   13.1215  -16.9390   20.4077 O   0  0  0  0  0  0  0  0  0  0  0  0
  2  1  1  0
  3  2  1  0
  4  3  1  0
  4  5  1  0
  5  6  1  1
  7  8  2  0
  7  5  1  0
  9  7  1  0
 10  9  1  0
 11 10  1  0
 12 11  1  0
 12 13  1  0
 13 14  1  1
 13  9  1  0
 14 15  2  0
 17 18  2  0
 17 16  1  0
 19 17  1  0
 20 19  1  0
 21 20  1  0
 22 21  1  0
 23 22  1  6
 24 23  1  0
 24 14  1  0
 25 26  1  0
 25 23  1  0
 27 25  2  0
M  END
$$$$
