FCS.pdb
     RDKit          3D

 24 24  0  0  1  0  0  0  0  0999 V2000
    5.8940  -18.0405   18.5447 N   0  0  0  0  0  0  0  0  0  0  0  0
    6.7232  -16.9761   19.0778 C   0  0  1  0  0  0  0  0  0  0  0  0
    5.8795  -15.8802   19.7032 C   0  0  0  0  0  0  0  0  0  0  0  0
    6.7123  -14.8382   20.3349 C   0  0  0  0  0  0  0  0  0  0  0  0
    6.8890  -14.8104   21.7208 C   0  0  0  0  0  0  0  0  0  0  0  0
    7.6764  -13.8166   22.2626 C   0  0  0  0  0  0  0  0  0  0  0  0
    8.3016  -12.8469   21.5231 C   0  0  0  0  0  0  0  0  0  0  0  0
    8.1200  -12.8827   20.1449 C   0  0  0  0  0  0  0  0  0  0  0  0
    7.3320  -13.8709   19.5617 C   0  0  0  0  0  0  0  0  0  0  0  0
    7.6522  -17.5371   20.0927 C   0  0  0  0  0  0  0  0  0  0  0  0
    7.2154  -18.2733   21.0193 O   0  0  0  0  0  0  0  0  0  0  0  0
    9.0422  -17.2792   20.0711 N   0  0  0  0  0  0  0  0  0  0  0  0
    9.9946  -17.8478   20.9974 C   0  0  1  0  0  0  0  0  0  0  0  0
   10.8095  -18.8666   20.2304 C   0  0  0  0  0  0  0  0  0  0  0  0
   11.3455  -18.1082   18.6735 S   0  0  0  0  0  0  0  0  0  0  0  0
   10.8155  -16.8438   21.6716 C   0  0  0  0  0  0  0  0  0  0  0  0
   11.2768  -15.8599   21.0390 O   0  0  0  0  0  0  0  0  0  0  0  0
   11.3454  -17.2864   25.6231 O   0  0  0  0  0  0  0  0  0  0  0  0
   11.5777  -15.9649   25.2065 C   0  0  0  0  0  0  0  0  0  0  0  0
   11.8983  -16.0264   23.7284 C   0  0  2  0  0  0  0  0  0  0  0  0
   11.0817  -17.0029   23.0581 N   0  0  0  0  0  0  0  0  0  0  0  0
   13.3166  -16.3943   23.5759 C   0  0  0  0  0  0  0  0  0  0  0  0
   13.6583  -17.6154   23.0018 O   0  0  0  0  0  0  0  0  0  0  0  0
   14.2146  -15.6070   23.9634 O   0  0  0  0  0  0  0  0  0  0  0  0
  2  1  1  1
  2 10  1  0
  3  2  1  0
  4  9  2  0
  4  3  1  0
  5  4  1  0
  6  7  1  0
  6  5  2  0
  7  8  2  0
  8  9  1  0
 10 11  2  0
 12 10  1  0
 12 13  1  0
 13 16  1  0
 13 14  1  6
 14 15  1  0
 16 17  2  0
 18 19  1  0
 20 19  1  1
 20 22  1  0
 21 16  1  0
 21 20  1  0
 22 24  2  0
 22 23  1  0
M  END
$$$$
