FCS.pdb
     RDKit          3D

 24 24  0  0  1  0  0  0  0  0999 V2000
    5.9697  -18.0446   25.8767 N   0  0  0  0  0  0  0  0  0  0  0  0
    6.3358  -16.6608   25.6407 C   0  0  1  0  0  0  0  0  0  0  0  0
    7.1175  -16.0898   26.8097 C   0  0  0  0  0  0  0  0  0  0  0  0
    7.2785  -14.6267   26.7013 C   0  0  0  0  0  0  0  0  0  0  0  0
    8.5455  -14.0593   26.5418 C   0  0  0  0  0  0  0  0  0  0  0  0
    8.6430  -12.6872   26.4453 C   0  0  0  0  0  0  0  0  0  0  0  0
    7.5686  -11.8380   26.4963 C   0  0  0  0  0  0  0  0  0  0  0  0
    6.3120  -12.4120   26.6553 C   0  0  0  0  0  0  0  0  0  0  0  0
    6.1740  -13.7934   26.7563 C   0  0  0  0  0  0  0  0  0  0  0  0
    7.1487  -16.5713   24.4001 C   0  0  0  0  0  0  0  0  0  0  0  0
    8.0850  -17.3904   24.1907 O   0  0  0  0  0  0  0  0  0  0  0  0
    6.9183  -15.5849   23.4136 N   0  0  0  0  0  0  0  0  0  0  0  0
    7.6959  -15.4397   22.2042 C   0  0  1  0  0  0  0  0  0  0  0  0
    7.1603  -14.2282   21.4722 C   0  0  0  0  0  0  0  0  0  0  0  0
    8.1484  -13.9902   19.9710 S   0  0  0  0  0  0  0  0  0  0  0  0
    9.1358  -15.3756   22.4467 C   0  0  0  0  0  0  0  0  0  0  0  0
    9.6267  -14.4709   23.1688 O   0  0  0  0  0  0  0  0  0  0  0  0
   11.2602  -18.5522   22.2737 O   0  0  0  0  0  0  0  0  0  0  0  0
   11.9898  -17.4279   22.6951 C   0  0  0  0  0  0  0  0  0  0  0  0
   11.3976  -16.2334   21.9782 C   0  0  2  0  0  0  0  0  0  0  0  0
    9.9702  -16.3579   21.8490 N   0  0  0  0  0  0  0  0  0  0  0  0
   11.9999  -16.1517   20.6363 C   0  0  0  0  0  0  0  0  0  0  0  0
   13.3722  -15.9608   20.5027 O   0  0  0  0  0  0  0  0  0  0  0  0
   11.2757  -16.2544   19.6158 O   0  0  0  0  0  0  0  0  0  0  0  0
  2  1  1  1
  2 10  1  0
  3  2  1  0
  4  9  2  0
  4  3  1  0
  5  4  1  0
  6  7  1  0
  6  5  2  0
  7  8  2  0
  8  9  1  0
 10 11  2  0
 12 10  1  0
 12 13  1  0
 13 16  1  0
 13 14  1  1
 14 15  1  0
 16 17  2  0
 18 19  1  0
 20 19  1  6
 20 22  1  0
 21 16  1  0
 21 20  1  0
 22 24  2  0
 22 23  1  0
M  END
$$$$
