FCS.pdb
     RDKit          3D

 24 24  0  0  1  0  0  0  0  0999 V2000
    9.5005  -17.7106   21.1499 N   0  0  0  0  0  0  0  0  0  0  0  0
    8.9766  -16.4454   21.6291 C   0  0  1  0  0  0  0  0  0  0  0  0
    7.6785  -16.0853   20.9296 C   0  0  0  0  0  0  0  0  0  0  0  0
    7.6174  -14.6506   20.5887 C   0  0  0  0  0  0  0  0  0  0  0  0
    6.9817  -13.7427   21.4397 C   0  0  0  0  0  0  0  0  0  0  0  0
    6.9514  -12.4128   21.0764 C   0  0  0  0  0  0  0  0  0  0  0  0
    7.5093  -11.9209   19.9254 C   0  0  0  0  0  0  0  0  0  0  0  0
    8.1397  -12.8320   19.0849 C   0  0  0  0  0  0  0  0  0  0  0  0
    8.1903  -14.1826   19.4182 C   0  0  0  0  0  0  0  0  0  0  0  0
    8.7514  -16.5296   23.0955 C   0  0  0  0  0  0  0  0  0  0  0  0
    8.0914  -15.6350   23.6917 O   0  0  0  0  0  0  0  0  0  0  0  0
    9.2548  -17.5936   23.8788 N   0  0  0  0  0  0  0  0  0  0  0  0
    8.8342  -17.8853   25.2302 C   0  0  1  0  0  0  0  0  0  0  0  0
    7.3281  -18.0313   25.2071 C   0  0  0  0  0  0  0  0  0  0  0  0
    6.7744  -18.4608   26.8790 S   0  0  0  0  0  0  0  0  0  0  0  0
    9.5156  -19.0405   25.8112 C   0  0  0  0  0  0  0  0  0  0  0  0
    9.3916  -20.1835   25.3020 O   0  0  0  0  0  0  0  0  0  0  0  0
   11.3686  -18.5620   29.3680 O   0  0  0  0  0  0  0  0  0  0  0  0
   12.0114  -19.5322   28.5809 C   0  0  0  0  0  0  0  0  0  0  0  0
   11.0113  -19.9724   27.5332 C   0  0  2  0  0  0  0  0  0  0  0  0
   10.3218  -18.8451   26.9645 N   0  0  0  0  0  0  0  0  0  0  0  0
   10.0314  -20.8667   28.1735 C   0  0  0  0  0  0  0  0  0  0  0  0
   10.4547  -22.0624   28.7468 O   0  0  0  0  0  0  0  0  0  0  0  0
    8.8168  -20.5499   28.2015 O   0  0  0  0  0  0  0  0  0  0  0  0
  2  1  1  6
  2 10  1  0
  3  2  1  0
  4  9  2  0
  4  3  1  0
  5  4  1  0
  6  7  1  0
  6  5  2  0
  7  8  2  0
  8  9  1  0
 10 11  2  0
 12 10  1  0
 12 13  1  0
 13 16  1  0
 13 14  1  6
 14 15  1  0
 16 17  2  0
 18 19  1  0
 20 19  1  1
 20 22  1  0
 21 16  1  0
 21 20  1  0
 22 24  2  0
 22 23  1  0
M  END
$$$$
