FCS.pdb
     RDKit          3D

 24 24  0  0  1  0  0  0  0  0999 V2000
    5.9735  -16.4033   22.2672 N   0  0  0  0  0  0  0  0  0  0  0  0
    6.8283  -15.7475   23.2389 C   0  0  1  0  0  0  0  0  0  0  0  0
    6.0607  -15.3954   24.5001 C   0  0  0  0  0  0  0  0  0  0  0  0
    6.8903  -14.6335   25.4539 C   0  0  0  0  0  0  0  0  0  0  0  0
    7.5675  -15.2852   26.4879 C   0  0  0  0  0  0  0  0  0  0  0  0
    8.3297  -14.5288   27.3529 C   0  0  0  0  0  0  0  0  0  0  0  0
    8.4665  -13.1682   27.2625 C   0  0  0  0  0  0  0  0  0  0  0  0
    7.7889  -12.5285   26.2304 C   0  0  0  0  0  0  0  0  0  0  0  0
    7.0097  -13.2589   25.3376 C   0  0  0  0  0  0  0  0  0  0  0  0
    7.9667  -16.6411   23.5756 C   0  0  0  0  0  0  0  0  0  0  0  0
    7.9491  -17.8542   23.2300 O   0  0  0  0  0  0  0  0  0  0  0  0
    9.1021  -16.1861   24.2848 N   0  0  0  0  0  0  0  0  0  0  0  0
   10.2980  -16.9674   24.5032 C   0  0  1  0  0  0  0  0  0  0  0  0
   11.0485  -17.0111   23.1897 C   0  0  0  0  0  0  0  0  0  0  0  0
   10.8854  -15.3927   22.3894 S   0  0  0  0  0  0  0  0  0  0  0  0
   11.1119  -16.4803   25.6152 C   0  0  0  0  0  0  0  0  0  0  0  0
   11.8123  -15.4432   25.4936 O   0  0  0  0  0  0  0  0  0  0  0  0
   10.1455  -17.5494   29.2681 O   0  0  0  0  0  0  0  0  0  0  0  0
   11.0369  -16.4688   29.1606 C   0  0  0  0  0  0  0  0  0  0  0  0
   11.8914  -16.7315   27.9391 C   0  0  2  0  0  0  0  0  0  0  0  0
   11.0952  -17.2038   26.8378 N   0  0  0  0  0  0  0  0  0  0  0  0
   12.8942  -17.7537   28.2850 C   0  0  0  0  0  0  0  0  0  0  0  0
   12.9466  -18.9447   27.5667 O   0  0  0  0  0  0  0  0  0  0  0  0
   13.6996  -17.5497   29.2264 O   0  0  0  0  0  0  0  0  0  0  0  0
  2  1  1  6
  2 10  1  0
  3  2  1  0
  4  9  2  0
  4  3  1  0
  5  4  1  0
  6  7  1  0
  6  5  2  0
  7  8  2  0
  8  9  1  0
 10 11  2  0
 12 10  1  0
 12 13  1  0
 13 16  1  0
 13 14  1  6
 14 15  1  0
 16 17  2  0
 18 19  1  0
 20 19  1  1
 20 22  1  0
 21 16  1  0
 21 20  1  0
 22 24  2  0
 22 23  1  0
M  END
$$$$
