FCS.pdb
     RDKit          3D

 24 24  0  0  1  0  0  0  0  0999 V2000
    5.9292  -18.0903   25.3005 N   0  0  0  0  0  0  0  0  0  0  0  0
    6.3374  -16.6986   25.2670 C   0  0  1  0  0  0  0  0  0  0  0  0
    6.6956  -16.1952   26.6535 C   0  0  0  0  0  0  0  0  0  0  0  0
    6.8022  -14.7237   26.6936 C   0  0  0  0  0  0  0  0  0  0  0  0
    8.0492  -14.1024   26.8005 C   0  0  0  0  0  0  0  0  0  0  0  0
    8.0957  -12.7247   26.8340 C   0  0  0  0  0  0  0  0  0  0  0  0
    6.9886  -11.9197   26.7687 C   0  0  0  0  0  0  0  0  0  0  0  0
    5.7521  -12.5471   26.6624 C   0  0  0  0  0  0  0  0  0  0  0  0
    5.6655  -13.9358   26.6256 C   0  0  0  0  0  0  0  0  0  0  0  0
    7.5053  -16.5498   24.3604 C   0  0  0  0  0  0  0  0  0  0  0  0
    8.4610  -17.3717   24.4114 O   0  0  0  0  0  0  0  0  0  0  0  0
    7.6016  -15.5022   23.4157 N   0  0  0  0  0  0  0  0  0  0  0  0
    8.6823  -15.3512   22.4684 C   0  0  1  0  0  0  0  0  0  0  0  0
    8.3738  -14.1293   21.6305 C   0  0  0  0  0  0  0  0  0  0  0  0
    6.6027  -14.1392   21.2441 S   0  0  0  0  0  0  0  0  0  0  0  0
   10.0003  -15.2994   23.0982 C   0  0  0  0  0  0  0  0  0  0  0  0
   10.2903  -14.3827   23.9084 O   0  0  0  0  0  0  0  0  0  0  0  0
   11.6351  -17.8340   24.9985 O   0  0  0  0  0  0  0  0  0  0  0  0
   12.6111  -17.5826   24.0197 C   0  0  0  0  0  0  0  0  0  0  0  0
   12.2525  -16.2582   23.3802 C   0  0  2  0  0  0  0  0  0  0  0  0
   10.9480  -16.3076   22.7757 N   0  0  0  0  0  0  0  0  0  0  0  0
   13.2552  -15.9562   22.3442 C   0  0  0  0  0  0  0  0  0  0  0  0
   14.5836  -15.7490   22.7044 O   0  0  0  0  0  0  0  0  0  0  0  0
   12.9109  -15.8860   21.1388 O   0  0  0  0  0  0  0  0  0  0  0  0
  2  1  1  1
  2 10  1  0
  3  2  1  0
  4  9  2  0
  4  3  1  0
  5  4  1  0
  6  7  1  0
  6  5  2  0
  7  8  2  0
  8  9  1  0
 10 11  2  0
 12 10  1  0
 12 13  1  0
 13 16  1  0
 13 14  1  1
 14 15  1  0
 16 17  2  0
 18 19  1  0
 20 19  1  6
 20 22  1  0
 21 16  1  0
 21 20  1  0
 22 24  2  0
 22 23  1  0
M  END
$$$$
