FCS.pdb
     RDKit          3D

 24 24  0  0  1  0  0  0  0  0999 V2000
    5.3279  -18.1163   25.0972 N   0  0  0  0  0  0  0  0  0  0  0  0
    5.9823  -16.8255   24.9959 C   0  0  1  0  0  0  0  0  0  0  0  0
    6.5707  -16.3993   26.3286 C   0  0  0  0  0  0  0  0  0  0  0  0
    6.8440  -14.9494   26.3703 C   0  0  0  0  0  0  0  0  0  0  0  0
    5.7946  -14.0274   26.4059 C   0  0  0  0  0  0  0  0  0  0  0  0
    6.1021  -12.6838   26.4442 C   0  0  0  0  0  0  0  0  0  0  0  0
    7.3809  -12.1911   26.4496 C   0  0  0  0  0  0  0  0  0  0  0  0
    8.4185  -13.1163   26.4140 C   0  0  0  0  0  0  0  0  0  0  0  0
    8.1470  -14.4810   26.3748 C   0  0  0  0  0  0  0  0  0  0  0  0
    7.0562  -16.8971   23.9715 C   0  0  0  0  0  0  0  0  0  0  0  0
    7.3189  -17.9896   23.3981 O   0  0  0  0  0  0  0  0  0  0  0  0
    7.8209  -15.7685   23.5964 N   0  0  0  0  0  0  0  0  0  0  0  0
    8.8158  -15.7656   22.5483 C   0  0  1  0  0  0  0  0  0  0  0  0
    8.2507  -14.9596   21.3988 C   0  0  0  0  0  0  0  0  0  0  0  0
    7.6227  -13.3927   22.0597 S   0  0  0  0  0  0  0  0  0  0  0  0
   10.1245  -15.2920   22.9947 C   0  0  0  0  0  0  0  0  0  0  0  0
   10.4066  -14.0668   22.9740 O   0  0  0  0  0  0  0  0  0  0  0  0
   12.3258  -17.8714   24.9701 O   0  0  0  0  0  0  0  0  0  0  0  0
   12.8306  -16.5677   25.1099 C   0  0  0  0  0  0  0  0  0  0  0  0
   12.3619  -15.7894   23.8991 C   0  0  2  0  0  0  0  0  0  0  0  0
   11.0726  -16.2458   23.4531 N   0  0  0  0  0  0  0  0  0  0  0  0
   13.3434  -15.9786   22.8170 C   0  0  0  0  0  0  0  0  0  0  0  0
   14.6775  -15.6399   23.0239 O   0  0  0  0  0  0  0  0  0  0  0  0
   12.9760  -16.4447   21.7105 O   0  0  0  0  0  0  0  0  0  0  0  0
  2  1  1  1
  2 10  1  0
  3  2  1  0
  4  9  2  0
  4  3  1  0
  5  4  1  0
  6  7  1  0
  6  5  2  0
  7  8  2  0
  8  9  1  0
 10 11  2  0
 12 10  1  0
 12 13  1  0
 13 16  1  0
 13 14  1  6
 14 15  1  0
 16 17  2  0
 18 19  1  0
 20 19  1  1
 20 22  1  0
 21 16  1  0
 21 20  1  0
 22 24  2  0
 22 23  1  0
M  END
$$$$
