FCS.pdb
     RDKit          3D

 24 24  0  0  1  0  0  0  0  0999 V2000
    5.3977  -17.3161   24.9349 N   0  0  0  0  0  0  0  0  0  0  0  0
    6.3243  -16.2457   24.6178 C   0  0  1  0  0  0  0  0  0  0  0  0
    7.2061  -15.9092   25.8065 C   0  0  0  0  0  0  0  0  0  0  0  0
    7.1163  -14.4817   26.1710 C   0  0  0  0  0  0  0  0  0  0  0  0
    8.0170  -13.5534   25.6424 C   0  0  0  0  0  0  0  0  0  0  0  0
    7.8913  -12.2315   26.0139 C   0  0  0  0  0  0  0  0  0  0  0  0
    6.9320  -11.7664   26.8750 C   0  0  0  0  0  0  0  0  0  0  0  0
    6.0402  -12.6976   27.3958 C   0  0  0  0  0  0  0  0  0  0  0  0
    6.1359  -14.0409   27.0439 C   0  0  0  0  0  0  0  0  0  0  0  0
    7.1682  -16.6509   23.4639 C   0  0  0  0  0  0  0  0  0  0  0  0
    6.7686  -17.5393   22.6623 O   0  0  0  0  0  0  0  0  0  0  0  0
    8.4340  -16.0734   23.2122 N   0  0  0  0  0  0  0  0  0  0  0  0
    9.1474  -16.1791   21.9599 C   0  0  1  0  0  0  0  0  0  0  0  0
    8.2338  -15.6428   20.8792 C   0  0  0  0  0  0  0  0  0  0  0  0
    7.3737  -14.1877   21.5344 S   0  0  0  0  0  0  0  0  0  0  0  0
   10.4557  -15.5279   21.9830 C   0  0  0  0  0  0  0  0  0  0  0  0
   10.5727  -14.3093   21.6958 O   0  0  0  0  0  0  0  0  0  0  0  0
   11.7722  -16.1668   25.9576 O   0  0  0  0  0  0  0  0  0  0  0  0
   11.1074  -16.2805   24.7250 C   0  0  0  0  0  0  0  0  0  0  0  0
   12.1633  -16.1443   23.6489 C   0  0  2  0  0  0  0  0  0  0  0  0
   11.5939  -16.3010   22.3371 N   0  0  0  0  0  0  0  0  0  0  0  0
   13.1814  -17.1874   23.8626 C   0  0  0  0  0  0  0  0  0  0  0  0
   13.0541  -18.4205   23.2297 O   0  0  0  0  0  0  0  0  0  0  0  0
   14.1616  -16.9632   24.6146 O   0  0  0  0  0  0  0  0  0  0  0  0
  2  1  1  1
  2 10  1  0
  3  2  1  0
  4  9  2  0
  4  3  1  0
  5  4  1  0
  6  7  1  0
  6  5  2  0
  7  8  2  0
  8  9  1  0
 10 11  2  0
 12 10  1  0
 12 13  1  0
 13 16  1  0
 13 14  1  6
 14 15  1  0
 16 17  2  0
 18 19  1  0
 20 19  1  1
 20 22  1  0
 21 16  1  0
 21 20  1  0
 22 24  2  0
 22 23  1  0
M  END
$$$$
