FCS.pdb
     RDKit          3D

 24 24  0  0  1  0  0  0  0  0999 V2000
    6.2546  -17.5980   19.6907 N   0  0  0  0  0  0  0  0  0  0  0  0
    7.6090  -17.2588   20.0847 C   0  0  1  0  0  0  0  0  0  0  0  0
    7.6189  -16.1838   21.1563 C   0  0  0  0  0  0  0  0  0  0  0  0
    7.6249  -14.8274   20.5743 C   0  0  0  0  0  0  0  0  0  0  0  0
    6.5207  -13.9839   20.7221 C   0  0  0  0  0  0  0  0  0  0  0  0
    6.5754  -12.7261   20.1598 C   0  0  0  0  0  0  0  0  0  0  0  0
    7.6517  -12.2467   19.4599 C   0  0  0  0  0  0  0  0  0  0  0  0
    8.7457  -13.0933   19.3181 C   0  0  0  0  0  0  0  0  0  0  0  0
    8.7272  -14.3702   19.8719 C   0  0  0  0  0  0  0  0  0  0  0  0
    8.2951  -18.4770   20.5878 C   0  0  0  0  0  0  0  0  0  0  0  0
    7.6299  -19.5071   20.8843 O   0  0  0  0  0  0  0  0  0  0  0  0
    9.6975  -18.5412   20.7555 N   0  0  0  0  0  0  0  0  0  0  0  0
   10.4155  -19.7125   21.2037 C   0  0  1  0  0  0  0  0  0  0  0  0
   10.6971  -20.5583   19.9808 C   0  0  0  0  0  0  0  0  0  0  0  0
   11.0795  -19.4483   18.5994 S   0  0  0  0  0  0  0  0  0  0  0  0
   11.6170  -19.3950   21.9731 C   0  0  0  0  0  0  0  0  0  0  0  0
   12.3045  -18.3778   21.7015 O   0  0  0  0  0  0  0  0  0  0  0  0
   11.9383  -19.9787   25.8276 O   0  0  0  0  0  0  0  0  0  0  0  0
   13.0624  -20.5478   25.2060 C   0  0  0  0  0  0  0  0  0  0  0  0
   13.1504  -19.9351   23.8246 C   0  0  2  0  0  0  0  0  0  0  0  0
   11.9924  -20.2605   23.0354 N   0  0  0  0  0  0  0  0  0  0  0  0
   14.3540  -20.4622   23.1587 C   0  0  0  0  0  0  0  0  0  0  0  0
   15.6132  -20.1921   23.6869 O   0  0  0  0  0  0  0  0  0  0  0  0
   14.2430  -21.1536   22.1165 O   0  0  0  0  0  0  0  0  0  0  0  0
  2  1  1  1
  2 10  1  0
  3  2  1  0
  4  9  2  0
  4  3  1  0
  5  4  1  0
  6  7  1  0
  6  5  2  0
  7  8  2  0
  8  9  1  0
 10 11  2  0
 12 10  1  0
 12 13  1  0
 13 16  1  0
 13 14  1  6
 14 15  1  0
 16 17  2  0
 18 19  1  0
 20 19  1  1
 20 22  1  0
 21 16  1  0
 21 20  1  0
 22 24  2  0
 22 23  1  0
M  END
$$$$
