FCS.pdb
     RDKit          3D

 24 24  0  0  1  0  0  0  0  0999 V2000
    6.1528  -18.1277   26.0985 N   0  0  0  0  0  0  0  0  0  0  0  0
    6.3767  -16.7261   25.7983 C   0  0  1  0  0  0  0  0  0  0  0  0
    6.9933  -16.0004   26.9803 C   0  0  0  0  0  0  0  0  0  0  0  0
    7.1355  -14.5539   26.7240 C   0  0  0  0  0  0  0  0  0  0  0  0
    8.3837  -14.0032   26.4221 C   0  0  0  0  0  0  0  0  0  0  0  0
    8.4642  -12.6462   26.1907 C   0  0  0  0  0  0  0  0  0  0  0  0
    7.3899  -11.7967   26.2383 C   0  0  0  0  0  0  0  0  0  0  0  0
    6.1519  -12.3539   26.5395 C   0  0  0  0  0  0  0  0  0  0  0  0
    6.0316  -13.7198   26.7791 C   0  0  0  0  0  0  0  0  0  0  0  0
    7.2700  -16.6124   24.6163 C   0  0  0  0  0  0  0  0  0  0  0  0
    8.2659  -17.3769   24.4937 O   0  0  0  0  0  0  0  0  0  0  0  0
    7.0530  -15.6621   23.5921 N   0  0  0  0  0  0  0  0  0  0  0  0
    7.9015  -15.4990   22.4338 C   0  0  1  0  0  0  0  0  0  0  0  0
    7.2708  -14.4321   21.5653 C   0  0  0  0  0  0  0  0  0  0  0  0
    8.3206  -14.1946   20.1066 S   0  0  0  0  0  0  0  0  0  0  0  0
    9.2947  -15.2157   22.7729 C   0  0  0  0  0  0  0  0  0  0  0  0
    9.5941  -14.2261   23.4885 O   0  0  0  0  0  0  0  0  0  0  0  0
   11.5020  -17.9253   23.3570 O   0  0  0  0  0  0  0  0  0  0  0  0
   12.3840  -16.8330   23.3032 C   0  0  0  0  0  0  0  0  0  0  0  0
   11.6854  -15.7505   22.5085 C   0  0  2  0  0  0  0  0  0  0  0  0
   10.3049  -16.0828   22.2767 N   0  0  0  0  0  0  0  0  0  0  0  0
   12.3731  -15.6080   21.2136 C   0  0  0  0  0  0  0  0  0  0  0  0
   13.7159  -15.2434   21.1781 O   0  0  0  0  0  0  0  0  0  0  0  0
   11.7480  -15.8153   20.1446 O   0  0  0  0  0  0  0  0  0  0  0  0
  2  1  1  1
  2 10  1  0
  3  2  1  0
  4  9  2  0
  4  3  1  0
  5  4  1  0
  6  7  1  0
  6  5  2  0
  7  8  2  0
  8  9  1  0
 10 11  2  0
 12 10  1  0
 12 13  1  0
 13 16  1  0
 13 14  1  6
 14 15  1  0
 16 17  2  0
 18 19  1  0
 20 19  1  1
 20 22  1  0
 21 16  1  0
 21 20  1  0
 22 24  2  0
 22 23  1  0
M  END
$$$$
