FCS.pdb
     RDKit          3D

 24 24  0  0  1  0  0  0  0  0999 V2000
    6.0521  -18.1668   25.7077 N   0  0  0  0  0  0  0  0  0  0  0  0
    6.4628  -16.7848   25.5462 C   0  0  1  0  0  0  0  0  0  0  0  0
    7.1172  -16.2528   26.8082 C   0  0  0  0  0  0  0  0  0  0  0  0
    7.2469  -14.7827   26.7824 C   0  0  0  0  0  0  0  0  0  0  0  0
    6.1120  -13.9678   26.7585 C   0  0  0  0  0  0  0  0  0  0  0  0
    6.2861  -12.6001   26.7349 C   0  0  0  0  0  0  0  0  0  0  0  0
    7.5104  -11.9844   26.7334 C   0  0  0  0  0  0  0  0  0  0  0  0
    8.6338  -12.8036   26.7573 C   0  0  0  0  0  0  0  0  0  0  0  0
    8.4976  -14.1886   26.7815 C   0  0  0  0  0  0  0  0  0  0  0  0
    7.4108  -16.6830   24.4065 C   0  0  0  0  0  0  0  0  0  0  0  0
    8.3154  -17.5483   24.2501 O   0  0  0  0  0  0  0  0  0  0  0  0
    7.3476  -15.6339   23.4608 N   0  0  0  0  0  0  0  0  0  0  0  0
    8.2608  -15.4754   22.3520 C   0  0  1  0  0  0  0  0  0  0  0  0
    7.6999  -14.3855   21.4643 C   0  0  0  0  0  0  0  0  0  0  0  0
    6.1190  -14.9615   20.7894 S   0  0  0  0  0  0  0  0  0  0  0  0
    9.6391  -15.2254   22.7693 C   0  0  0  0  0  0  0  0  0  0  0  0
    9.9088  -14.3003   23.5770 O   0  0  0  0  0  0  0  0  0  0  0  0
   11.7327  -17.9095   23.8536 O   0  0  0  0  0  0  0  0  0  0  0  0
   12.2264  -16.6064   24.0327 C   0  0  0  0  0  0  0  0  0  0  0  0
   12.0144  -15.8786   22.7224 C   0  0  2  0  0  0  0  0  0  0  0  0
   10.6690  -16.0502   22.2426 N   0  0  0  0  0  0  0  0  0  0  0  0
   12.9558  -16.4254   21.7300 C   0  0  0  0  0  0  0  0  0  0  0  0
   14.3253  -16.2430   21.8993 O   0  0  0  0  0  0  0  0  0  0  0  0
   12.5224  -17.0547   20.7337 O   0  0  0  0  0  0  0  0  0  0  0  0
  2  1  1  1
  2 10  1  0
  3  2  1  0
  4  9  2  0
  4  3  1  0
  5  4  1  0
  6  7  1  0
  6  5  2  0
  7  8  2  0
  8  9  1  0
 10 11  2  0
 12 10  1  0
 12 13  1  0
 13 16  1  0
 13 14  1  6
 14 15  1  0
 16 17  2  0
 18 19  1  0
 20 19  1  1
 20 22  1  0
 21 16  1  0
 21 20  1  0
 22 24  2  0
 22 23  1  0
M  END
$$$$
