FCS.pdb
     RDKit          3D

 24 24  0  0  1  0  0  0  0  0999 V2000
    5.7679  -15.9165   23.8774 N   0  0  0  0  0  0  0  0  0  0  0  0
    7.1523  -15.5471   24.1046 C   0  0  1  0  0  0  0  0  0  0  0  0
    7.4498  -15.4071   25.5865 C   0  0  0  0  0  0  0  0  0  0  0  0
    7.1855  -14.0391   26.0734 C   0  0  0  0  0  0  0  0  0  0  0  0
    5.9574  -13.7151   26.6559 C   0  0  0  0  0  0  0  0  0  0  0  0
    5.7595  -12.4231   27.0951 C   0  0  0  0  0  0  0  0  0  0  0  0
    6.6975  -11.4289   26.9960 C   0  0  0  0  0  0  0  0  0  0  0  0
    7.9165  -11.7609   26.4150 C   0  0  0  0  0  0  0  0  0  0  0  0
    8.1529  -13.0549   25.9598 C   0  0  0  0  0  0  0  0  0  0  0  0
    8.0410  -16.5778   23.5082 C   0  0  0  0  0  0  0  0  0  0  0  0
    7.7066  -17.1711   22.4463 O   0  0  0  0  0  0  0  0  0  0  0  0
    9.2792  -16.9373   24.0885 N   0  0  0  0  0  0  0  0  0  0  0  0
   10.3680  -17.5620   23.3726 C   0  0  1  0  0  0  0  0  0  0  0  0
   10.5639  -16.7830   22.0900 C   0  0  0  0  0  0  0  0  0  0  0  0
   11.8288  -17.6259   21.1021 S   0  0  0  0  0  0  0  0  0  0  0  0
   11.5895  -17.6803   24.1664 C   0  0  0  0  0  0  0  0  0  0  0  0
   12.2768  -16.6647   24.4443 O   0  0  0  0  0  0  0  0  0  0  0  0
   11.6324  -20.8272   26.2964 O   0  0  0  0  0  0  0  0  0  0  0  0
   12.9740  -20.4102   26.3154 C   0  0  0  0  0  0  0  0  0  0  0  0
   13.0218  -19.0718   25.6098 C   0  0  2  0  0  0  0  0  0  0  0  0
   11.9848  -18.9680   24.6181 N   0  0  0  0  0  0  0  0  0  0  0  0
   14.3341  -18.9394   24.9538 C   0  0  0  0  0  0  0  0  0  0  0  0
   15.4954  -18.9322   25.7211 O   0  0  0  0  0  0  0  0  0  0  0  0
   14.4037  -18.8334   23.7046 O   0  0  0  0  0  0  0  0  0  0  0  0
  2  1  1  1
  2 10  1  0
  3  2  1  0
  4  9  2  0
  4  3  1  0
  5  4  1  0
  6  7  1  0
  6  5  2  0
  7  8  2  0
  8  9  1  0
 10 11  2  0
 12 10  1  0
 12 13  1  0
 13 16  1  0
 13 14  1  6
 14 15  1  0
 16 17  2  0
 18 19  1  0
 20 19  1  6
 20 22  1  0
 21 16  1  0
 21 20  1  0
 22 24  2  0
 22 23  1  0
M  END
$$$$
