EKN.pdb
     RDKit          3D

 27 26  0  0  1  0  0  0  0  0999 V2000
   11.9378  -17.3854   16.1926 N   0  0  0  0  0  0  0  0  0  0  0  0
   11.5009  -18.1316   17.3021 C   0  0  1  0  0  0  0  0  0  0  0  0
   11.9069  -19.5468   17.3850 C   0  0  0  0  0  0  0  0  0  0  0  0
   12.9735  -19.9334   18.3281 C   0  0  0  0  0  0  0  0  0  0  0  0
   13.3538  -21.3507   18.3584 C   0  0  0  0  0  0  0  0  0  0  0  0
   13.9264  -21.9562   17.4360 O   0  0  0  0  0  0  0  0  0  0  0  0
   11.7188  -17.3956   18.5839 C   0  0  0  0  0  0  0  0  0  0  0  0
   12.8870  -17.0097   18.9052 O   0  0  0  0  0  0  0  0  0  0  0  0
   13.0464  -22.0635   19.5108 O   0  0  0  0  0  0  0  0  0  0  0  0
   10.6579  -17.1130   19.4616 N   0  0  0  0  0  0  0  0  0  0  0  0
   10.7001  -16.3016   20.6517 C   0  0  1  0  0  0  0  0  0  0  0  0
    9.3268  -15.7684   21.0907 C   0  0  0  0  0  0  0  0  0  0  0  0
    8.7385  -14.8200   20.1021 C   0  0  0  0  0  0  0  0  0  0  0  0
    7.2991  -14.4810   20.4999 C   0  0  0  0  0  0  0  0  0  0  0  0
    6.7239  -13.5060   19.4978 C   0  0  0  0  0  0  0  0  0  0  0  0
    5.3898  -13.1503   19.9074 N   0  0  0  0  0  0  0  0  0  0  0  0
   11.4328  -16.8304   21.7770 C   0  0  0  0  0  0  0  0  0  0  0  0
   11.4541  -18.0859   21.9992 O   0  0  0  0  0  0  0  0  0  0  0  0
   16.6554  -16.3342   24.9218 N   0  0  0  0  0  0  0  0  0  0  0  0
   15.3227  -16.7132   24.6393 C   0  0  0  0  0  0  0  0  0  0  0  0
   14.9213  -17.7827   25.2153 O   0  0  0  0  0  0  0  0  0  0  0  0
   14.3942  -15.9847   23.7590 C   0  0  0  0  0  0  0  0  0  0  0  0
   13.0884  -16.6988   23.6998 C   0  0  2  0  0  0  0  0  0  0  0  0
   12.1785  -16.0704   22.7245 N   0  0  0  0  0  0  0  0  0  0  0  0
   12.3601  -16.5532   25.0115 C   0  0  0  0  0  0  0  0  0  0  0  0
   12.8285  -16.9422   26.0957 O   0  0  0  0  0  0  0  0  0  0  0  0
   11.0968  -15.9588   25.0527 O   0  0  0  0  0  0  0  0  0  0  0  0
  2  1  1  6
  2  3  1  0
  2  7  1  0
  4  3  1  0
  5  4  1  0
  5  9  1  0
  6  5  2  0
  7 10  1  0
  7  8  2  0
 10 11  1  0
 11 12  1  1
 13 14  1  0
 13 12  1  0
 14 15  1  0
 16 15  1  0
 17 11  1  0
 17 18  2  0
 20 19  1  0
 20 22  1  0
 21 20  2  0
 23 22  1  1
 23 24  1  0
 24 17  1  0
 25 27  1  0
 25 23  1  0
 26 25  2  0
M  END
$$$$
