EKN.pdb
     RDKit          3D

 27 26  0  0  1  0  0  0  0  0999 V2000
    9.1467  -16.3350   18.9277 N   0  0  0  0  0  0  0  0  0  0  0  0
    9.2488  -17.0639   20.1265 C   0  0  1  0  0  0  0  0  0  0  0  0
    9.9849  -18.3414   20.0967 C   0  0  0  0  0  0  0  0  0  0  0  0
   11.4548  -18.3199   19.9731 C   0  0  0  0  0  0  0  0  0  0  0  0
   12.1435  -19.6159   19.9923 C   0  0  0  0  0  0  0  0  0  0  0  0
   13.3715  -19.7737   19.8813 O   0  0  0  0  0  0  0  0  0  0  0  0
    9.6559  -16.1931   21.2701 C   0  0  0  0  0  0  0  0  0  0  0  0
   10.3087  -15.1233   21.0542 O   0  0  0  0  0  0  0  0  0  0  0  0
   11.3544  -20.7491   20.1469 O   0  0  0  0  0  0  0  0  0  0  0  0
    9.3377  -16.5238   22.5987 N   0  0  0  0  0  0  0  0  0  0  0  0
    9.3303  -15.6451   23.7407 C   0  0  1  0  0  0  0  0  0  0  0  0
    7.9830  -14.9443   23.9784 C   0  0  0  0  0  0  0  0  0  0  0  0
    8.0313  -13.9822   25.1164 C   0  0  0  0  0  0  0  0  0  0  0  0
    6.6546  -13.3412   25.3140 C   0  0  0  0  0  0  0  0  0  0  0  0
    6.7057  -12.4139   26.5070 C   0  0  0  0  0  0  0  0  0  0  0  0
    5.3983  -11.8455   26.7109 N   0  0  0  0  0  0  0  0  0  0  0  0
    9.8628  -16.1725   24.9740 C   0  0  0  0  0  0  0  0  0  0  0  0
    9.2698  -17.1281   25.5751 O   0  0  0  0  0  0  0  0  0  0  0  0
    9.9641  -14.3132   30.2949 N   0  0  0  0  0  0  0  0  0  0  0  0
   10.6934  -14.9841   29.2862 C   0  0  0  0  0  0  0  0  0  0  0  0
   11.5501  -15.8382   29.7027 O   0  0  0  0  0  0  0  0  0  0  0  0
   10.5384  -14.7770   27.8368 C   0  0  0  0  0  0  0  0  0  0  0  0
   11.2302  -15.8667   27.0935 C   0  0  2  0  0  0  0  0  0  0  0  0
   11.0419  -15.7250   25.6380 N   0  0  0  0  0  0  0  0  0  0  0  0
   10.5890  -17.1943   27.4080 C   0  0  0  0  0  0  0  0  0  0  0  0
    9.3626  -17.3889   27.3433 O   0  0  0  0  0  0  0  0  0  0  0  0
   11.3758  -18.2817   27.7942 O   0  0  0  0  0  0  0  0  0  0  0  0
  2  1  1  6
  2  3  1  0
  2  7  1  0
  4  3  1  0
  5  4  1  0
  5  9  1  0
  6  5  2  0
  7 10  1  0
  7  8  2  0
 10 11  1  0
 11 12  1  1
 13 14  1  0
 13 12  1  0
 14 15  1  0
 16 15  1  0
 17 11  1  0
 17 18  2  0
 20 19  1  0
 20 22  1  0
 21 20  2  0
 23 22  1  1
 23 24  1  0
 24 17  1  0
 25 27  1  0
 25 23  1  0
 26 25  2  0
M  END
$$$$
