EKN.pdb
     RDKit          3D

 27 26  0  0  1  0  0  0  0  0999 V2000
    9.6479  -14.7915   13.3125 N   0  0  0  0  0  0  0  0  0  0  0  0
    9.0315  -15.4594   14.3861 C   0  0  1  0  0  0  0  0  0  0  0  0
    8.7964  -16.9091   14.2532 C   0  0  0  0  0  0  0  0  0  0  0  0
    9.9497  -17.8287   14.2811 C   0  0  0  0  0  0  0  0  0  0  0  0
    9.6839  -19.2394   13.9752 C   0  0  0  0  0  0  0  0  0  0  0  0
   10.0623  -20.2029   14.6636 O   0  0  0  0  0  0  0  0  0  0  0  0
    9.6548  -15.0963   15.6944 C   0  0  0  0  0  0  0  0  0  0  0  0
   10.9172  -15.1554   15.8358 O   0  0  0  0  0  0  0  0  0  0  0  0
    8.9520  -19.5102   12.8256 O   0  0  0  0  0  0  0  0  0  0  0  0
    8.8790  -14.6868   16.7926 N   0  0  0  0  0  0  0  0  0  0  0  0
    9.3364  -14.4044   18.1296 C   0  0  1  0  0  0  0  0  0  0  0  0
    8.2161  -13.9867   19.0956 C   0  0  0  0  0  0  0  0  0  0  0  0
    8.7164  -13.7345   20.4773 C   0  0  0  0  0  0  0  0  0  0  0  0
    7.5645  -13.2629   21.3694 C   0  0  0  0  0  0  0  0  0  0  0  0
    8.0791  -13.0545   22.7755 C   0  0  0  0  0  0  0  0  0  0  0  0
    7.0095  -12.5399   23.5911 N   0  0  0  0  0  0  0  0  0  0  0  0
   10.2091  -15.3780   18.7406 C   0  0  0  0  0  0  0  0  0  0  0  0
    9.9078  -16.6169   18.7180 O   0  0  0  0  0  0  0  0  0  0  0  0
   14.7327  -14.1141   20.5379 N   0  0  0  0  0  0  0  0  0  0  0  0
   14.1756  -14.8148   19.4433 C   0  0  0  0  0  0  0  0  0  0  0  0
   14.1598  -14.1784   18.3336 O   0  0  0  0  0  0  0  0  0  0  0  0
   13.6328  -16.1826   19.4897 C   0  0  0  0  0  0  0  0  0  0  0  0
   12.2486  -16.1589   20.0391 C   0  0  2  0  0  0  0  0  0  0  0  0
   11.4393  -15.1019   19.4052 N   0  0  0  0  0  0  0  0  0  0  0  0
   12.2767  -15.7620   21.4931 C   0  0  0  0  0  0  0  0  0  0  0  0
   11.6748  -14.7692   21.9384 O   0  0  0  0  0  0  0  0  0  0  0  0
   13.0022  -16.5197   22.4153 O   0  0  0  0  0  0  0  0  0  0  0  0
  2  1  1  6
  2  3  1  0
  2  7  1  0
  4  3  1  0
  5  4  1  0
  5  9  1  0
  6  5  2  0
  7 10  1  0
  7  8  2  0
 10 11  1  0
 11 12  1  1
 13 14  1  0
 13 12  1  0
 14 15  1  0
 16 15  1  0
 17 11  1  0
 17 18  2  0
 20 19  1  0
 20 22  1  0
 21 20  2  0
 23 22  1  6
 23 24  1  0
 24 17  1  0
 25 27  1  0
 25 23  1  0
 26 25  2  0
M  END
$$$$
