EKN.pdb
     RDKit          3D

 27 26  0  0  1  0  0  0  0  0999 V2000
    7.8906  -17.8477   20.6620 N   0  0  0  0  0  0  0  0  0  0  0  0
    9.2799  -17.6377   20.7284 C   0  0  1  0  0  0  0  0  0  0  0  0
   10.0084  -17.4359   19.4622 C   0  0  0  0  0  0  0  0  0  0  0  0
    9.2834  -17.5826   18.1857 C   0  0  0  0  0  0  0  0  0  0  0  0
   10.0541  -17.3728   16.9544 C   0  0  0  0  0  0  0  0  0  0  0  0
    9.5712  -17.3190   15.8102 O   0  0  0  0  0  0  0  0  0  0  0  0
    9.6367  -16.6222   21.7644 C   0  0  0  0  0  0  0  0  0  0  0  0
   10.8391  -16.2240   21.8773 O   0  0  0  0  0  0  0  0  0  0  0  0
   11.4292  -17.2237   17.0868 O   0  0  0  0  0  0  0  0  0  0  0  0
    8.6717  -16.0851   22.6339 N   0  0  0  0  0  0  0  0  0  0  0  0
    8.9008  -15.4269   23.8951 C   0  0  1  0  0  0  0  0  0  0  0  0
    7.7222  -14.5613   24.3687 C   0  0  0  0  0  0  0  0  0  0  0  0
    8.0306  -13.8088   25.6184 C   0  0  0  0  0  0  0  0  0  0  0  0
    6.8466  -12.9118   25.9909 C   0  0  0  0  0  0  0  0  0  0  0  0
    7.1780  -12.1524   27.2554 C   0  0  0  0  0  0  0  0  0  0  0  0
    6.0382  -11.3570   27.6329 N   0  0  0  0  0  0  0  0  0  0  0  0
    9.4105  -16.2399   24.9731 C   0  0  0  0  0  0  0  0  0  0  0  0
    8.6939  -17.1681   25.4742 O   0  0  0  0  0  0  0  0  0  0  0  0
   13.8390  -17.4779   24.2263 N   0  0  0  0  0  0  0  0  0  0  0  0
   12.9925  -17.9677   25.2476 C   0  0  0  0  0  0  0  0  0  0  0  0
   12.4945  -19.1277   25.0399 O   0  0  0  0  0  0  0  0  0  0  0  0
   12.6575  -17.2597   26.4943 C   0  0  0  0  0  0  0  0  0  0  0  0
   11.1825  -17.0759   26.5907 C   0  0  2  0  0  0  0  0  0  0  0  0
   10.6951  -16.1206   25.5789 N   0  0  0  0  0  0  0  0  0  0  0  0
   10.8283  -16.4192   27.9005 C   0  0  0  0  0  0  0  0  0  0  0  0
   10.3272  -15.2838   27.9777 O   0  0  0  0  0  0  0  0  0  0  0  0
   11.0587  -17.0850   29.1064 O   0  0  0  0  0  0  0  0  0  0  0  0
  2  1  1  6
  2  3  1  0
  2  7  1  0
  4  3  1  0
  5  4  1  0
  5  9  1  0
  6  5  2  0
  7 10  1  0
  7  8  2  0
 10 11  1  0
 11 12  1  1
 13 14  1  0
 13 12  1  0
 14 15  1  0
 16 15  1  0
 17 11  1  0
 17 18  2  0
 20 19  1  0
 20 22  1  0
 21 20  2  0
 23 22  1  1
 23 24  1  0
 24 17  1  0
 25 27  1  0
 25 23  1  0
 26 25  2  0
M  END
$$$$
