EKN.pdb
     RDKit          3D

 27 26  0  0  1  0  0  0  0  0999 V2000
    8.5912  -18.5868   20.9786 N   0  0  0  0  0  0  0  0  0  0  0  0
    9.8899  -18.0466   20.9681 C   0  0  1  0  0  0  0  0  0  0  0  0
   10.4905  -17.7191   19.6617 C   0  0  0  0  0  0  0  0  0  0  0  0
    9.7503  -16.8470   18.7299 C   0  0  0  0  0  0  0  0  0  0  0  0
   10.4110  -16.5144   17.4622 C   0  0  0  0  0  0  0  0  0  0  0  0
   11.5660  -16.8512   17.1492 O   0  0  0  0  0  0  0  0  0  0  0  0
   10.0365  -16.9400   21.9610 C   0  0  0  0  0  0  0  0  0  0  0  0
   11.1398  -16.3154   22.0594 O   0  0  0  0  0  0  0  0  0  0  0  0
    9.6824  -15.7649   16.5468 O   0  0  0  0  0  0  0  0  0  0  0  0
    8.9782  -16.5616   22.8053 N   0  0  0  0  0  0  0  0  0  0  0  0
    9.0025  -15.5634   23.8442 C   0  0  1  0  0  0  0  0  0  0  0  0
    7.6348  -14.9180   24.1196 C   0  0  0  0  0  0  0  0  0  0  0  0
    7.7163  -13.8034   25.1065 C   0  0  0  0  0  0  0  0  0  0  0  0
    6.3262  -13.1989   25.3240 C   0  0  0  0  0  0  0  0  0  0  0  0
    6.4230  -12.0858   26.3423 C   0  0  0  0  0  0  0  0  0  0  0  0
    5.1132  -11.5204   26.5398 N   0  0  0  0  0  0  0  0  0  0  0  0
    9.6632  -15.9196   25.0769 C   0  0  0  0  0  0  0  0  0  0  0  0
    9.7425  -17.1407   25.4356 O   0  0  0  0  0  0  0  0  0  0  0  0
   11.6605  -16.3574   29.8065 N   0  0  0  0  0  0  0  0  0  0  0  0
   11.0521  -15.0914   29.6439 C   0  0  0  0  0  0  0  0  0  0  0  0
   10.8862  -14.4187   30.7195 O   0  0  0  0  0  0  0  0  0  0  0  0
   10.6130  -14.5110   28.3640 C   0  0  0  0  0  0  0  0  0  0  0  0
   10.8907  -15.4652   27.2545 C   0  0  2  0  0  0  0  0  0  0  0  0
   10.2726  -15.0147   25.9939 N   0  0  0  0  0  0  0  0  0  0  0  0
   10.2183  -16.7862   27.5287 C   0  0  0  0  0  0  0  0  0  0  0  0
   10.8012  -17.7484   28.0584 O   0  0  0  0  0  0  0  0  0  0  0  0
    8.8780  -16.9779   27.1861 O   0  0  0  0  0  0  0  0  0  0  0  0
  2  1  1  6
  2  3  1  0
  2  7  1  0
  4  3  1  0
  5  4  1  0
  5  9  1  0
  6  5  2  0
  7 10  1  0
  7  8  2  0
 10 11  1  0
 11 12  1  1
 13 14  1  0
 13 12  1  0
 14 15  1  0
 16 15  1  0
 17 11  1  0
 17 18  2  0
 20 19  1  0
 20 22  1  0
 21 20  2  0
 23 22  1  1
 23 24  1  0
 24 17  1  0
 25 27  1  0
 25 23  1  0
 26 25  2  0
M  END
$$$$
