EKN.pdb
     RDKit          3D

 27 26  0  0  1  0  0  0  0  0999 V2000
    9.0900  -15.4255   19.2474 N   0  0  0  0  0  0  0  0  0  0  0  0
    9.0922  -16.4547   20.2064 C   0  0  1  0  0  0  0  0  0  0  0  0
    9.7827  -17.7127   19.8668 C   0  0  0  0  0  0  0  0  0  0  0  0
   11.1992  -17.6659   19.4570 C   0  0  0  0  0  0  0  0  0  0  0  0
   11.8136  -18.9319   19.0398 C   0  0  0  0  0  0  0  0  0  0  0  0
   12.6229  -19.5898   19.7162 O   0  0  0  0  0  0  0  0  0  0  0  0
    9.4592  -15.9462   21.5623 C   0  0  0  0  0  0  0  0  0  0  0  0
   10.6473  -16.0848   21.9937 O   0  0  0  0  0  0  0  0  0  0  0  0
   11.4579  -19.4262   17.7909 O   0  0  0  0  0  0  0  0  0  0  0  0
    8.5184  -15.3108   22.3913 N   0  0  0  0  0  0  0  0  0  0  0  0
    8.7208  -14.8283   23.7339 C   0  0  1  0  0  0  0  0  0  0  0  0
    7.6552  -13.8241   24.2018 C   0  0  0  0  0  0  0  0  0  0  0  0
    7.9065  -13.3256   25.5843 C   0  0  0  0  0  0  0  0  0  0  0  0
    6.8155  -12.3279   25.9836 C   0  0  0  0  0  0  0  0  0  0  0  0
    7.0308  -11.9053   27.4191 C   0  0  0  0  0  0  0  0  0  0  0  0
    5.9980  -10.9725   27.7896 N   0  0  0  0  0  0  0  0  0  0  0  0
    8.9801  -15.8181   24.7516 C   0  0  0  0  0  0  0  0  0  0  0  0
    8.0915  -16.6826   25.0504 O   0  0  0  0  0  0  0  0  0  0  0  0
   12.1620  -20.1131   26.3754 N   0  0  0  0  0  0  0  0  0  0  0  0
   12.3717  -18.7442   26.6614 C   0  0  0  0  0  0  0  0  0  0  0  0
   12.9882  -18.4992   27.7553 O   0  0  0  0  0  0  0  0  0  0  0  0
   11.9462  -17.6180   25.8139 C   0  0  0  0  0  0  0  0  0  0  0  0
   10.5597  -17.2100   26.1739 C   0  0  2  0  0  0  0  0  0  0  0  0
   10.1820  -15.9509   25.5060 N   0  0  0  0  0  0  0  0  0  0  0  0
   10.4854  -16.8712   27.6409 C   0  0  0  0  0  0  0  0  0  0  0  0
   10.3253  -15.7127   28.0635 O   0  0  0  0  0  0  0  0  0  0  0  0
   10.5977  -17.8782   28.6022 O   0  0  0  0  0  0  0  0  0  0  0  0
  2  1  1  6
  2  3  1  0
  2  7  1  0
  4  3  1  0
  5  4  1  0
  5  9  1  0
  6  5  2  0
  7 10  1  0
  7  8  2  0
 10 11  1  0
 11 12  1  1
 13 14  1  0
 13 12  1  0
 14 15  1  0
 16 15  1  0
 17 11  1  0
 17 18  2  0
 20 19  1  0
 20 22  1  0
 21 20  2  0
 23 22  1  6
 23 24  1  0
 24 17  1  0
 25 27  1  0
 25 23  1  0
 26 25  2  0
M  END
$$$$
