EKN.pdb
     RDKit          3D

 27 26  0  0  1  0  0  0  0  0999 V2000
    9.5127  -17.3736   16.2789 N   0  0  0  0  0  0  0  0  0  0  0  0
    9.8864  -18.6259   16.7993 C   0  0  1  0  0  0  0  0  0  0  0  0
   11.1706  -19.2010   16.3582 C   0  0  0  0  0  0  0  0  0  0  0  0
   12.2715  -18.2940   15.9815 C   0  0  0  0  0  0  0  0  0  0  0  0
   13.3150  -18.8413   15.1064 C   0  0  0  0  0  0  0  0  0  0  0  0
   14.1566  -19.6916   15.4441 O   0  0  0  0  0  0  0  0  0  0  0  0
    9.7105  -18.6834   18.2818 C   0  0  0  0  0  0  0  0  0  0  0  0
   10.4831  -18.0166   19.0404 O   0  0  0  0  0  0  0  0  0  0  0  0
   13.3587  -18.3669   13.8011 O   0  0  0  0  0  0  0  0  0  0  0  0
    8.7039  -19.4646   18.8753 N   0  0  0  0  0  0  0  0  0  0  0  0
    8.3852  -19.5622   20.2772 C   0  0  1  0  0  0  0  0  0  0  0  0
    7.0188  -20.2063   20.5617 C   0  0  0  0  0  0  0  0  0  0  0  0
    5.9046  -19.5262   19.8413 C   0  0  0  0  0  0  0  0  0  0  0  0
    4.5804  -20.2321   20.1469 C   0  0  0  0  0  0  0  0  0  0  0  0
    3.4523  -19.4837   19.4741 C   0  0  0  0  0  0  0  0  0  0  0  0
    2.2063  -20.1283   19.8003 N   0  0  0  0  0  0  0  0  0  0  0  0
    9.4036  -20.1080   21.1420 C   0  0  0  0  0  0  0  0  0  0  0  0
   10.1082  -21.1002   20.7610 O   0  0  0  0  0  0  0  0  0  0  0  0
   14.1129  -20.6536   22.9830 N   0  0  0  0  0  0  0  0  0  0  0  0
   13.4311  -19.4150   22.9582 C   0  0  0  0  0  0  0  0  0  0  0  0
   14.0236  -18.4491   23.5520 O   0  0  0  0  0  0  0  0  0  0  0  0
   12.1302  -19.1671   22.3148 C   0  0  0  0  0  0  0  0  0  0  0  0
   11.0540  -19.8777   23.0600 C   0  0  2  0  0  0  0  0  0  0  0  0
    9.7336  -19.6416   22.4478 N   0  0  0  0  0  0  0  0  0  0  0  0
   10.9139  -19.2968   24.4440 C   0  0  0  0  0  0  0  0  0  0  0  0
   10.1601  -18.3436   24.7078 O   0  0  0  0  0  0  0  0  0  0  0  0
   11.6487  -19.8265   25.5071 O   0  0  0  0  0  0  0  0  0  0  0  0
  2  1  1  1
  2  3  1  0
  2  7  1  0
  4  3  1  0
  5  4  1  0
  5  9  1  0
  6  5  2  0
  7 10  1  0
  7  8  2  0
 10 11  1  0
 11 12  1  6
 13 14  1  0
 13 12  1  0
 14 15  1  0
 16 15  1  0
 17 11  1  0
 17 18  2  0
 20 19  1  0
 20 22  1  0
 21 20  2  0
 23 22  1  6
 23 24  1  0
 24 17  1  0
 25 27  1  0
 25 23  1  0
 26 25  2  0
M  END
$$$$
