EKN.pdb
     RDKit          3D

 27 26  0  0  1  0  0  0  0  0999 V2000
    6.8065  -18.6213   19.9829 N   0  0  0  0  0  0  0  0  0  0  0  0
    8.1519  -18.3436   19.6807 C   0  0  1  0  0  0  0  0  0  0  0  0
    8.4940  -18.0289   18.2813 C   0  0  0  0  0  0  0  0  0  0  0  0
    7.7927  -16.9225   17.6024 C   0  0  0  0  0  0  0  0  0  0  0  0
    8.2119  -16.6108   16.2308 C   0  0  0  0  0  0  0  0  0  0  0  0
    7.7374  -15.7014   15.5284 O   0  0  0  0  0  0  0  0  0  0  0  0
    8.7475  -17.3746   20.6494 C   0  0  0  0  0  0  0  0  0  0  0  0
    9.9665  -17.0303   20.5367 O   0  0  0  0  0  0  0  0  0  0  0  0
    9.2173  -17.3976   15.6824 O   0  0  0  0  0  0  0  0  0  0  0  0
    7.9930  -16.8234   21.6995 N   0  0  0  0  0  0  0  0  0  0  0  0
    8.4695  -15.9935   22.7767 C   0  0  1  0  0  0  0  0  0  0  0  0
    7.3631  -15.1923   23.4817 C   0  0  0  0  0  0  0  0  0  0  0  0
    7.8991  -14.2734   24.5263 C   0  0  0  0  0  0  0  0  0  0  0  0
    6.7469  -13.5190   25.1959 C   0  0  0  0  0  0  0  0  0  0  0  0
    7.3090  -12.5747   26.2342 C   0  0  0  0  0  0  0  0  0  0  0  0
    6.2299  -11.8023   26.7936 N   0  0  0  0  0  0  0  0  0  0  0  0
    9.3511  -16.6123   23.7372 C   0  0  0  0  0  0  0  0  0  0  0  0
    8.9711  -17.6380   24.3928 O   0  0  0  0  0  0  0  0  0  0  0  0
   13.6685  -18.6163   25.9204 N   0  0  0  0  0  0  0  0  0  0  0  0
   14.0083  -17.5625   25.0408 C   0  0  0  0  0  0  0  0  0  0  0  0
   15.2614  -17.3864   24.8519 O   0  0  0  0  0  0  0  0  0  0  0  0
   13.0513  -16.6844   24.3474 C   0  0  0  0  0  0  0  0  0  0  0  0
   11.6582  -17.0831   24.6919 C   0  0  2  0  0  0  0  0  0  0  0  0
   10.6731  -16.1874   24.0582 N   0  0  0  0  0  0  0  0  0  0  0  0
   11.4160  -16.8919   26.1674 C   0  0  0  0  0  0  0  0  0  0  0  0
   10.9688  -15.8375   26.6516 O   0  0  0  0  0  0  0  0  0  0  0  0
   11.6948  -17.9243   27.0658 O   0  0  0  0  0  0  0  0  0  0  0  0
  2  1  1  6
  2  3  1  0
  2  7  1  0
  4  3  1  0
  5  4  1  0
  5  9  1  0
  6  5  2  0
  7 10  1  0
  7  8  2  0
 10 11  1  0
 11 12  1  1
 13 14  1  0
 13 12  1  0
 14 15  1  0
 16 15  1  0
 17 11  1  0
 17 18  2  0
 20 19  1  0
 20 22  1  0
 21 20  2  0
 23 22  1  1
 23 24  1  0
 24 17  1  0
 25 27  1  0
 25 23  1  0
 26 25  2  0
M  END
$$$$
