EKN.pdb
     RDKit          3D

 27 26  0  0  1  0  0  0  0  0999 V2000
   18.5191  -20.3230   16.0702 N   0  0  0  0  0  0  0  0  0  0  0  0
   18.9421  -19.2731   16.9053 C   0  0  1  0  0  0  0  0  0  0  0  0
   19.6717  -18.1507   16.2868 C   0  0  0  0  0  0  0  0  0  0  0  0
   18.9605  -17.2635   15.3467 C   0  0  0  0  0  0  0  0  0  0  0  0
   19.7441  -16.1921   14.7203 C   0  0  0  0  0  0  0  0  0  0  0  0
   20.9365  -15.9417   14.9671 O   0  0  0  0  0  0  0  0  0  0  0  0
   17.8490  -18.8156   17.8151 C   0  0  0  0  0  0  0  0  0  0  0  0
   18.0343  -17.8169   18.5802 O   0  0  0  0  0  0  0  0  0  0  0  0
   19.0956  -15.4014   13.7797 O   0  0  0  0  0  0  0  0  0  0  0  0
   16.6029  -19.4646   17.8554 N   0  0  0  0  0  0  0  0  0  0  0  0
   15.5218  -19.2254   18.7776 C   0  0  1  0  0  0  0  0  0  0  0  0
   14.1374  -19.6004   18.2247 C   0  0  0  0  0  0  0  0  0  0  0  0
   13.0284  -19.1921   19.1338 C   0  0  0  0  0  0  0  0  0  0  0  0
   11.6917  -19.6964   18.5822 C   0  0  0  0  0  0  0  0  0  0  0  0
   10.5817  -19.2936   19.5264 C   0  0  0  0  0  0  0  0  0  0  0  0
    9.3279  -19.7683   19.0001 N   0  0  0  0  0  0  0  0  0  0  0  0
   15.6908  -19.7171   20.1239 C   0  0  0  0  0  0  0  0  0  0  0  0
   16.1291  -20.8970   20.3283 O   0  0  0  0  0  0  0  0  0  0  0  0
   17.7252  -22.2127   24.3055 N   0  0  0  0  0  0  0  0  0  0  0  0
   16.6701  -21.5119   23.6769 C   0  0  0  0  0  0  0  0  0  0  0  0
   15.5048  -21.7223   24.1613 O   0  0  0  0  0  0  0  0  0  0  0  0
   16.8150  -20.5848   22.5423 C   0  0  0  0  0  0  0  0  0  0  0  0
   15.8099  -19.4910   22.6518 C   0  0  2  0  0  0  0  0  0  0  0  0
   15.4092  -18.9974   21.3214 N   0  0  0  0  0  0  0  0  0  0  0  0
   16.4298  -18.2837   23.3078 C   0  0  0  0  0  0  0  0  0  0  0  0
   17.4519  -17.7241   22.8737 O   0  0  0  0  0  0  0  0  0  0  0  0
   15.8588  -17.7379   24.4597 O   0  0  0  0  0  0  0  0  0  0  0  0
  2  1  1  6
  2  3  1  0
  2  7  1  0
  4  3  1  0
  5  4  1  0
  5  9  1  0
  6  5  2  0
  7 10  1  0
  7  8  2  0
 10 11  1  0
 11 12  1  6
 13 14  1  0
 13 12  1  0
 14 15  1  0
 16 15  1  0
 17 11  1  0
 17 18  2  0
 20 19  1  0
 20 22  1  0
 21 20  2  0
 23 22  1  6
 23 24  1  0
 24 17  1  0
 25 27  1  0
 25 23  1  0
 26 25  2  0
M  END
$$$$
