EKN.pdb
     RDKit          3D

 27 26  0  0  1  0  0  0  0  0999 V2000
    8.8713  -18.5993   20.8677 N   0  0  0  0  0  0  0  0  0  0  0  0
   10.1884  -18.1809   21.1297 C   0  0  1  0  0  0  0  0  0  0  0  0
   11.0838  -17.9596   19.9790 C   0  0  0  0  0  0  0  0  0  0  0  0
   10.5812  -17.2093   18.8124 C   0  0  0  0  0  0  0  0  0  0  0  0
   11.4936  -17.0619   17.6722 C   0  0  0  0  0  0  0  0  0  0  0  0
   11.4739  -17.7640   16.6466 O   0  0  0  0  0  0  0  0  0  0  0  0
   10.2262  -17.0554   22.1114 C   0  0  0  0  0  0  0  0  0  0  0  0
   11.3331  -16.5004   22.4009 O   0  0  0  0  0  0  0  0  0  0  0  0
   12.4503  -16.0575   17.7536 O   0  0  0  0  0  0  0  0  0  0  0  0
    9.0595  -16.5834   22.7375 N   0  0  0  0  0  0  0  0  0  0  0  0
    8.9679  -15.6103   23.7963 C   0  0  1  0  0  0  0  0  0  0  0  0
    7.5807  -14.9609   23.9267 C   0  0  0  0  0  0  0  0  0  0  0  0
    7.5670  -13.8309   24.8993 C   0  0  0  0  0  0  0  0  0  0  0  0
    6.1610  -13.2291   24.9771 C   0  0  0  0  0  0  0  0  0  0  0  0
    6.1615  -12.0949   25.9768 C   0  0  0  0  0  0  0  0  0  0  0  0
    4.8151  -11.6058   26.1263 N   0  0  0  0  0  0  0  0  0  0  0  0
    9.4790  -16.0007   25.0883 C   0  0  0  0  0  0  0  0  0  0  0  0
    9.2726  -17.1776   25.5338 O   0  0  0  0  0  0  0  0  0  0  0  0
   10.2533  -14.6808   30.9087 N   0  0  0  0  0  0  0  0  0  0  0  0
   10.7845  -15.1193   29.6738 C   0  0  0  0  0  0  0  0  0  0  0  0
   11.6624  -16.0467   29.7511 O   0  0  0  0  0  0  0  0  0  0  0  0
   10.4076  -14.6017   28.3480 C   0  0  0  0  0  0  0  0  0  0  0  0
   10.6577  -15.6403   27.3100 C   0  0  2  0  0  0  0  0  0  0  0  0
   10.2308  -15.1779   25.9766 N   0  0  0  0  0  0  0  0  0  0  0  0
    9.7880  -16.8450   27.5645 C   0  0  0  0  0  0  0  0  0  0  0  0
    8.5488  -16.8220   27.4639 O   0  0  0  0  0  0  0  0  0  0  0  0
   10.3635  -18.0630   27.9331 O   0  0  0  0  0  0  0  0  0  0  0  0
  2  1  1  6
  2  3  1  0
  2  7  1  0
  4  3  1  0
  5  4  1  0
  5  9  1  0
  6  5  2  0
  7 10  1  0
  7  8  2  0
 10 11  1  0
 11 12  1  1
 13 14  1  0
 13 12  1  0
 14 15  1  0
 16 15  1  0
 17 11  1  0
 17 18  2  0
 20 19  1  0
 20 22  1  0
 21 20  2  0
 23 22  1  1
 23 24  1  0
 24 17  1  0
 25 27  1  0
 25 23  1  0
 26 25  2  0
M  END
$$$$
