EKN.pdb
     RDKit          3D

 27 26  0  0  1  0  0  0  0  0999 V2000
    7.5986  -16.6256   19.5213 N   0  0  0  0  0  0  0  0  0  0  0  0
    8.9576  -16.8065   19.8358 C   0  0  1  0  0  0  0  0  0  0  0  0
    9.9525  -16.5252   18.7843 C   0  0  0  0  0  0  0  0  0  0  0  0
    9.6051  -16.7969   17.3764 C   0  0  0  0  0  0  0  0  0  0  0  0
   10.5536  -17.6049   16.6007 C   0  0  0  0  0  0  0  0  0  0  0  0
   11.6283  -18.0557   17.0333 O   0  0  0  0  0  0  0  0  0  0  0  0
    9.3110  -16.1771   21.1438 C   0  0  0  0  0  0  0  0  0  0  0  0
   10.5277  -16.1021   21.5057 O   0  0  0  0  0  0  0  0  0  0  0  0
   10.2166  -17.8830   15.2817 O   0  0  0  0  0  0  0  0  0  0  0  0
    8.3265  -15.6584   22.0026 N   0  0  0  0  0  0  0  0  0  0  0  0
    8.5135  -15.1345   23.3319 C   0  0  1  0  0  0  0  0  0  0  0  0
    7.3117  -14.3353   23.8609 C   0  0  0  0  0  0  0  0  0  0  0  0
    7.5982  -13.6647   25.1614 C   0  0  0  0  0  0  0  0  0  0  0  0
    6.4160  -12.7766   25.5598 C   0  0  0  0  0  0  0  0  0  0  0  0
    6.7588  -12.0357   26.8323 C   0  0  0  0  0  0  0  0  0  0  0  0
    5.6887  -11.1231   27.1422 N   0  0  0  0  0  0  0  0  0  0  0  0
    9.0048  -16.0514   24.3322 C   0  0  0  0  0  0  0  0  0  0  0  0
    8.3770  -17.1340   24.5772 O   0  0  0  0  0  0  0  0  0  0  0  0
   12.1031  -19.0737   27.2314 N   0  0  0  0  0  0  0  0  0  0  0  0
   12.7705  -18.3381   26.2250 C   0  0  0  0  0  0  0  0  0  0  0  0
   13.9667  -18.7142   25.9707 O   0  0  0  0  0  0  0  0  0  0  0  0
   12.2021  -17.2080   25.4717 C   0  0  0  0  0  0  0  0  0  0  0  0
   10.7873  -16.9876   25.8819 C   0  0  2  0  0  0  0  0  0  0  0  0
   10.1769  -15.8795   25.1245 N   0  0  0  0  0  0  0  0  0  0  0  0
   10.7319  -16.5144   27.3121 C   0  0  0  0  0  0  0  0  0  0  0  0
   10.6018  -15.3187   27.6277 O   0  0  0  0  0  0  0  0  0  0  0  0
   10.8282  -17.4317   28.3609 O   0  0  0  0  0  0  0  0  0  0  0  0
  2  1  1  6
  2  3  1  0
  2  7  1  0
  4  3  1  0
  5  4  1  0
  5  9  1  0
  6  5  2  0
  7 10  1  0
  7  8  2  0
 10 11  1  0
 11 12  1  1
 13 14  1  0
 13 12  1  0
 14 15  1  0
 16 15  1  0
 17 11  1  0
 17 18  2  0
 20 19  1  0
 20 22  1  0
 21 20  2  0
 23 22  1  6
 23 24  1  0
 24 17  1  0
 25 27  1  0
 25 23  1  0
 26 25  2  0
M  END
$$$$
