EKN.pdb
     RDKit          3D

 27 26  0  0  1  0  0  0  0  0999 V2000
    7.2792  -20.1342   17.7925 N   0  0  0  0  0  0  0  0  0  0  0  0
    8.3566  -19.3905   18.3070 C   0  0  1  0  0  0  0  0  0  0  0  0
    8.8676  -18.2673   17.4995 C   0  0  0  0  0  0  0  0  0  0  0  0
    8.5997  -18.2459   16.0489 C   0  0  0  0  0  0  0  0  0  0  0  0
    9.7589  -18.1047   15.1598 C   0  0  0  0  0  0  0  0  0  0  0  0
   10.3471  -19.0452   14.5985 O   0  0  0  0  0  0  0  0  0  0  0  0
    8.1379  -19.0170   19.7368 C   0  0  0  0  0  0  0  0  0  0  0  0
    8.9196  -18.1906   20.3053 O   0  0  0  0  0  0  0  0  0  0  0  0
   10.2291  -16.8169   14.9333 O   0  0  0  0  0  0  0  0  0  0  0  0
    7.0804  -19.5594   20.4874 N   0  0  0  0  0  0  0  0  0  0  0  0
    6.7707  -19.3062   21.8717 C   0  0  1  0  0  0  0  0  0  0  0  0
    5.4174  -19.8797   22.3219 C   0  0  0  0  0  0  0  0  0  0  0  0
    4.4725  -20.0758   21.1853 C   0  0  0  0  0  0  0  0  0  0  0  0
    3.1642  -20.6859   21.6963 C   0  0  0  0  0  0  0  0  0  0  0  0
    2.2073  -20.8499   20.5375 C   0  0  0  0  0  0  0  0  0  0  0  0
    0.9517  -21.3476   21.0375 N   0  0  0  0  0  0  0  0  0  0  0  0
    7.8030  -19.6005   22.8363 C   0  0  0  0  0  0  0  0  0  0  0  0
    8.3631  -20.7460   22.8510 O   0  0  0  0  0  0  0  0  0  0  0  0
   11.5220  -19.1530   22.7285 N   0  0  0  0  0  0  0  0  0  0  0  0
   11.1507  -18.0209   23.4901 C   0  0  0  0  0  0  0  0  0  0  0  0
   11.4589  -16.8892   22.9791 O   0  0  0  0  0  0  0  0  0  0  0  0
   10.4540  -18.0529   24.7868 C   0  0  0  0  0  0  0  0  0  0  0  0
    9.3820  -19.0866   24.7594 C   0  0  2  0  0  0  0  0  0  0  0  0
    8.2990  -18.7100   23.8325 N   0  0  0  0  0  0  0  0  0  0  0  0
    8.6959  -19.1548   26.0999 C   0  0  0  0  0  0  0  0  0  0  0  0
    9.2581  -19.5634   27.1310 O   0  0  0  0  0  0  0  0  0  0  0  0
    7.3658  -18.7492   26.2310 O   0  0  0  0  0  0  0  0  0  0  0  0
  2  1  1  6
  2  3  1  0
  2  7  1  0
  4  3  1  0
  5  4  1  0
  5  9  1  0
  6  5  2  0
  7 10  1  0
  7  8  2  0
 10 11  1  0
 11 12  1  1
 13 14  1  0
 13 12  1  0
 14 15  1  0
 16 15  1  0
 17 11  1  0
 17 18  2  0
 20 19  1  0
 20 22  1  0
 21 20  2  0
 23 22  1  1
 23 24  1  0
 24 17  1  0
 25 27  1  0
 25 23  1  0
 26 25  2  0
M  END
$$$$
