EKN.pdb
     RDKit          3D

 27 26  0  0  1  0  0  0  0  0999 V2000
   12.8351  -15.5419   14.7019 N   0  0  0  0  0  0  0  0  0  0  0  0
   12.9874  -16.4417   15.7724 C   0  0  1  0  0  0  0  0  0  0  0  0
   14.0053  -17.5009   15.6438 C   0  0  0  0  0  0  0  0  0  0  0  0
   15.2798  -17.1933   14.9673 C   0  0  0  0  0  0  0  0  0  0  0  0
   16.2915  -18.2562   14.9382 C   0  0  0  0  0  0  0  0  0  0  0  0
   16.1501  -19.3902   15.4275 O   0  0  0  0  0  0  0  0  0  0  0  0
   13.0597  -15.7321   17.0851 C   0  0  0  0  0  0  0  0  0  0  0  0
   14.1041  -15.0775   17.3978 O   0  0  0  0  0  0  0  0  0  0  0  0
   17.4978  -17.9641   14.3135 O   0  0  0  0  0  0  0  0  0  0  0  0
   11.9946  -15.7666   18.0018 N   0  0  0  0  0  0  0  0  0  0  0  0
   11.9468  -15.1638   19.3097 C   0  0  1  0  0  0  0  0  0  0  0  0
   10.5249  -14.8334   19.7913 C   0  0  0  0  0  0  0  0  0  0  0  0
    9.8072  -13.9108   18.8656 C   0  0  0  0  0  0  0  0  0  0  0  0
    8.3934  -13.6441   19.3902 C   0  0  0  0  0  0  0  0  0  0  0  0
    7.7262  -12.6084   18.5140 C   0  0  0  0  0  0  0  0  0  0  0  0
    6.4105  -12.3373   19.0332 N   0  0  0  0  0  0  0  0  0  0  0  0
   12.7094  -15.8060   20.3532 C   0  0  0  0  0  0  0  0  0  0  0  0
   12.8139  -17.0765   20.3856 O   0  0  0  0  0  0  0  0  0  0  0  0
   16.0138  -17.1194   24.1758 N   0  0  0  0  0  0  0  0  0  0  0  0
   16.2851  -15.8174   23.6958 C   0  0  0  0  0  0  0  0  0  0  0  0
   17.3563  -15.2788   24.1424 O   0  0  0  0  0  0  0  0  0  0  0  0
   15.4494  -15.0639   22.7463 C   0  0  0  0  0  0  0  0  0  0  0  0
   14.2608  -15.8761   22.3640 C   0  0  2  0  0  0  0  0  0  0  0  0
   13.3993  -15.1493   21.4134 N   0  0  0  0  0  0  0  0  0  0  0  0
   13.3710  -16.0854   23.5627 C   0  0  0  0  0  0  0  0  0  0  0  0
   13.7355  -16.7000   24.5805 O   0  0  0  0  0  0  0  0  0  0  0  0
   12.0688  -15.5807   23.5691 O   0  0  0  0  0  0  0  0  0  0  0  0
  2  1  1  6
  2  3  1  0
  2  7  1  0
  4  3  1  0
  5  4  1  0
  5  9  1  0
  6  5  2  0
  7 10  1  0
  7  8  2  0
 10 11  1  0
 11 12  1  1
 13 14  1  0
 13 12  1  0
 14 15  1  0
 16 15  1  0
 17 11  1  0
 17 18  2  0
 20 19  1  0
 20 22  1  0
 21 20  2  0
 23 22  1  1
 23 24  1  0
 24 17  1  0
 25 27  1  0
 25 23  1  0
 26 25  2  0
M  END
$$$$
