FLE.pdb
     RDKit          3D

 29 29  0  0  1  0  0  0  0  0999 V2000
    6.1484  -16.2518   20.8497 N   0  0  0  0  0  0  0  0  0  0  0  0
    5.8789  -16.4545   22.2380 C   0  0  1  0  0  0  0  0  0  0  0  0
    5.6203  -17.9193   22.5634 C   0  0  0  0  0  0  0  0  0  0  0  0
    4.3625  -18.3577   21.9403 C   0  0  0  0  0  0  0  0  0  0  0  0
    4.4348  -19.0103   20.7287 C   0  0  0  0  0  0  0  0  0  0  0  0
    3.2585  -19.4229   20.1420 C   0  0  0  0  0  0  0  0  0  0  0  0
    2.0495  -19.1848   20.7578 C   0  0  0  0  0  0  0  0  0  0  0  0
    2.0114  -18.5284   21.9715 C   0  0  0  0  0  0  0  0  0  0  0  0
    3.1569  -18.1066   22.5797 C   0  0  0  0  0  0  0  0  0  0  0  0
    6.9853  -15.9631   23.1093 C   0  0  0  0  0  0  0  0  0  0  0  0
    8.1791  -16.0281   22.7247 O   0  0  0  0  0  0  0  0  0  0  0  0
    7.8612  -11.7670   25.5443 C   0  0  0  0  0  0  0  0  0  0  0  0
    6.7363  -12.7400   25.9542 C   0  0  2  0  0  0  0  0  0  0  0  0
    5.9765  -12.0420   27.0518 C   0  0  0  0  0  0  0  0  0  0  0  0
    7.2949  -14.0568   26.3306 C   0  0  0  0  0  0  0  0  0  0  0  0
    7.8804  -14.8868   25.2178 C   0  0  2  0  0  0  0  0  0  0  0  0
    6.7550  -15.4083   24.3900 N   0  0  0  0  0  0  0  0  0  0  0  0
    8.6351  -16.0728   25.6401 C   0  0  0  0  0  0  0  0  0  0  0  0
    8.0173  -17.1338   26.0364 O   0  0  0  0  0  0  0  0  0  0  0  0
   10.0415  -16.2166   25.6666 N   0  0  0  0  0  0  0  0  0  0  0  0
   10.7013  -17.5281   25.7490 C   0  0  1  0  0  0  0  0  0  0  0  0
   11.7236  -17.6737   24.6827 C   0  0  0  0  0  0  0  0  0  0  0  0
   12.4138  -19.0038   24.7661 C   0  0  0  0  0  0  0  0  0  0  0  0
   13.4014  -19.1653   23.6516 C   0  0  0  0  0  0  0  0  0  0  0  0
   13.6303  -18.1982   22.9131 O   0  0  0  0  0  0  0  0  0  0  0  0
   11.2507  -17.6560   27.1011 C   0  0  0  0  0  0  0  0  0  0  0  0
   11.7453  -18.7245   27.5199 O   0  0  0  0  0  0  0  0  0  0  0  0
   14.0250  -20.3726   23.4764 O   0  0  0  0  0  0  0  0  0  0  0  0
   11.2453  -16.5881   27.9799 O   0  0  0  0  0  0  0  0  0  0  0  0
  2  1  1  6
  2  3  1  0
  2 10  1  0
  4  3  1  0
  4  9  2  0
  5  4  1  0
  6  5  2  0
  6  7  1  0
  7  8  2  0
  8  9  1  0
 10 11  2  0
 13 15  1  0
 13 12  1  1
 14 13  1  0
 16 15  1  1
 16 18  1  0
 17 16  1  0
 17 10  1  0
 18 19  2  0
 20 18  1  0
 20 21  1  0
 21 26  1  0
 22 23  1  0
 21 22  1  6
 24 23  1  0
 24 28  1  0
 25 24  2  0
 26 27  2  0
 26 29  1  0
M  END
$$$$
