FLE.pdb
     RDKit          3D

 29 29  0  0  1  0  0  0  0  0999 V2000
    6.0949  -17.2271   25.3568 N   0  0  0  0  0  0  0  0  0  0  0  0
    6.8100  -16.1168   24.8120 C   0  0  1  0  0  0  0  0  0  0  0  0
    7.8496  -15.5731   25.7825 C   0  0  0  0  0  0  0  0  0  0  0  0
    7.4297  -14.2552   26.2820 C   0  0  0  0  0  0  0  0  0  0  0  0
    6.1568  -13.8242   25.9770 C   0  0  0  0  0  0  0  0  0  0  0  0
    5.7597  -12.5902   26.4435 C   0  0  0  0  0  0  0  0  0  0  0  0
    6.6188  -11.8169   27.1929 C   0  0  0  0  0  0  0  0  0  0  0  0
    7.8876  -12.2778   27.4810 C   0  0  0  0  0  0  0  0  0  0  0  0
    8.3127  -13.4945   27.0348 C   0  0  0  0  0  0  0  0  0  0  0  0
    7.4900  -16.4538   23.5279 C   0  0  0  0  0  0  0  0  0  0  0  0
    7.6952  -17.6509   23.2080 O   0  0  0  0  0  0  0  0  0  0  0  0
    6.2665  -14.2523   19.9968 C   0  0  0  0  0  0  0  0  0  0  0  0
    7.5593  -13.6264   20.5599 C   0  0  2  0  0  0  0  0  0  0  0  0
    7.7672  -12.3546   19.7799 C   0  0  0  0  0  0  0  0  0  0  0  0
    8.6813  -14.5872   20.4853 C   0  0  0  0  0  0  0  0  0  0  0  0
    8.5594  -15.8364   21.3188 C   0  0  2  0  0  0  0  0  0  0  0  0
    7.9318  -15.4639   22.6192 N   0  0  0  0  0  0  0  0  0  0  0  0
    9.8254  -16.4906   21.6708 C   0  0  0  0  0  0  0  0  0  0  0  0
   10.1701  -17.5961   21.1021 O   0  0  0  0  0  0  0  0  0  0  0  0
   10.7814  -16.0363   22.6083 N   0  0  0  0  0  0  0  0  0  0  0  0
   12.0403  -16.7517   22.8645 C   0  0  1  0  0  0  0  0  0  0  0  0
   12.9652  -16.6244   21.7106 C   0  0  0  0  0  0  0  0  0  0  0  0
   13.6215  -15.2750   21.6832 C   0  0  0  0  0  0  0  0  0  0  0  0
   14.6133  -15.1845   20.5645 C   0  0  0  0  0  0  0  0  0  0  0  0
   14.9588  -14.0653   20.1631 O   0  0  0  0  0  0  0  0  0  0  0  0
   12.5952  -16.2248   24.1139 C   0  0  0  0  0  0  0  0  0  0  0  0
   12.0536  -15.2882   24.7394 O   0  0  0  0  0  0  0  0  0  0  0  0
   15.1125  -16.3359   20.0145 O   0  0  0  0  0  0  0  0  0  0  0  0
   13.7536  -16.7475   24.6593 O   0  0  0  0  0  0  0  0  0  0  0  0
  2  1  1  1
  2  3  1  0
  2 10  1  0
  4  3  1  0
  4  9  2  0
  5  4  1  0
  6  5  2  0
  6  7  1  0
  7  8  2  0
  8  9  1  0
 10 11  2  0
 13 15  1  0
 13 12  1  6
 14 13  1  0
 16 15  1  6
 16 18  1  0
 17 16  1  0
 17 10  1  0
 18 19  2  0
 20 18  1  0
 20 21  1  0
 21 26  1  0
 22 23  1  0
 21 22  1  6
 24 23  1  0
 24 28  1  0
 25 24  2  0
 26 27  2  0
 26 29  1  0
M  END
$$$$
