FLE.pdb
     RDKit          3D

 29 29  0  0  1  0  0  0  0  0999 V2000
    7.5042  -18.7799   27.2455 N   0  0  0  0  0  0  0  0  0  0  0  0
    8.1119  -17.5039   27.0361 C   0  0  1  0  0  0  0  0  0  0  0  0
    9.6283  -17.5646   27.1589 C   0  0  0  0  0  0  0  0  0  0  0  0
   10.1214  -16.3826   27.8815 C   0  0  0  0  0  0  0  0  0  0  0  0
   10.4568  -16.5308   29.2099 C   0  0  0  0  0  0  0  0  0  0  0  0
   10.9196  -15.4256   29.8901 C   0  0  0  0  0  0  0  0  0  0  0  0
   11.0398  -14.2114   29.2508 C   0  0  0  0  0  0  0  0  0  0  0  0
   10.6953  -14.0964   27.9191 C   0  0  0  0  0  0  0  0  0  0  0  0
   10.2339  -15.1702   27.2162 C   0  0  0  0  0  0  0  0  0  0  0  0
    7.7663  -16.9212   25.7073 C   0  0  0  0  0  0  0  0  0  0  0  0
    7.4858  -17.6662   24.7358 O   0  0  0  0  0  0  0  0  0  0  0  0
    5.3235  -13.5327   25.9481 C   0  0  0  0  0  0  0  0  0  0  0  0
    6.7444  -13.0379   25.6068 C   0  0  2  0  0  0  0  0  0  0  0  0
    6.7010  -11.5404   25.7647 C   0  0  0  0  0  0  0  0  0  0  0  0
    7.1531  -13.5060   24.2647 C   0  0  0  0  0  0  0  0  0  0  0  0
    7.4389  -14.9781   24.1191 C   0  0  2  0  0  0  0  0  0  0  0  0
    7.7363  -15.5264   25.4736 N   0  0  0  0  0  0  0  0  0  0  0  0
    8.6053  -15.3199   23.2962 C   0  0  0  0  0  0  0  0  0  0  0  0
    8.5966  -15.0970   22.0255 O   0  0  0  0  0  0  0  0  0  0  0  0
    9.8180  -15.8937   23.7427 N   0  0  0  0  0  0  0  0  0  0  0  0
   10.9726  -16.0943   22.8546 C   0  0  1  0  0  0  0  0  0  0  0  0
   12.2432  -15.8058   23.5656 C   0  0  0  0  0  0  0  0  0  0  0  0
   13.4324  -16.0864   22.6941 C   0  0  0  0  0  0  0  0  0  0  0  0
   14.7089  -15.7797   23.4150 C   0  0  0  0  0  0  0  0  0  0  0  0
   15.7835  -15.9535   22.8249 O   0  0  0  0  0  0  0  0  0  0  0  0
   10.8939  -17.4635   22.3393 C   0  0  0  0  0  0  0  0  0  0  0  0
   11.2929  -17.7674   21.1946 O   0  0  0  0  0  0  0  0  0  0  0  0
   14.6582  -15.3163   24.7034 O   0  0  0  0  0  0  0  0  0  0  0  0
   10.3696  -18.4880   23.1062 O   0  0  0  0  0  0  0  0  0  0  0  0
  2  1  1  6
  2  3  1  0
  2 10  1  0
  4  3  1  0
  4  9  2  0
  5  4  1  0
  6  5  2  0
  6  7  1  0
  7  8  2  0
  8  9  1  0
 10 11  2  0
 13 15  1  0
 13 12  1  6
 14 13  1  0
 16 15  1  1
 16 18  1  0
 17 16  1  0
 17 10  1  0
 18 19  2  0
 20 18  1  0
 20 21  1  0
 21 26  1  0
 22 23  1  0
 21 22  1  1
 24 23  1  0
 24 28  1  0
 25 24  2  0
 26 27  2  0
 26 29  1  0
M  END
$$$$
