FLE.pdb
     RDKit          3D

 29 29  0  0  1  0  0  0  0  0999 V2000
    6.9439  -17.9926   26.6219 N   0  0  0  0  0  0  0  0  0  0  0  0
    7.6217  -16.8287   26.1456 C   0  0  1  0  0  0  0  0  0  0  0  0
    9.0341  -16.7196   26.7037 C   0  0  0  0  0  0  0  0  0  0  0  0
    9.1530  -15.5143   27.5377 C   0  0  0  0  0  0  0  0  0  0  0  0
    9.8046  -15.6269   28.7467 C   0  0  0  0  0  0  0  0  0  0  0  0
    9.9183  -14.4997   29.5307 C   0  0  0  0  0  0  0  0  0  0  0  0
    9.3919  -13.2988   29.1083 C   0  0  0  0  0  0  0  0  0  0  0  0
    8.7449  -13.2196   27.8915 C   0  0  0  0  0  0  0  0  0  0  0  0
    8.6148  -14.3160   27.0910 C   0  0  0  0  0  0  0  0  0  0  0  0
    7.6951  -16.7833   24.6565 C   0  0  0  0  0  0  0  0  0  0  0  0
    7.5856  -17.8349   23.9785 O   0  0  0  0  0  0  0  0  0  0  0  0
    8.4566  -12.4176   20.2433 C   0  0  0  0  0  0  0  0  0  0  0  0
    8.1865  -13.9068   20.5426 C   0  0  2  0  0  0  0  0  0  0  0  0
    6.9486  -14.2596   19.7600 C   0  0  0  0  0  0  0  0  0  0  0  0
    8.0826  -14.1370   21.9999 C   0  0  0  0  0  0  0  0  0  0  0  0
    7.9643  -15.5694   22.4522 C   0  0  2  0  0  0  0  0  0  0  0  0
    7.8879  -15.5781   23.9414 N   0  0  0  0  0  0  0  0  0  0  0  0
    9.0994  -16.4370   22.1156 C   0  0  0  0  0  0  0  0  0  0  0  0
    8.9021  -17.5894   21.5702 O   0  0  0  0  0  0  0  0  0  0  0  0
   10.4701  -16.1554   22.3189 N   0  0  0  0  0  0  0  0  0  0  0  0
   11.5409  -17.0146   21.7922 C   0  0  1  0  0  0  0  0  0  0  0  0
   12.1028  -16.4513   20.5392 C   0  0  0  0  0  0  0  0  0  0  0  0
   13.2418  -17.2847   20.0285 C   0  0  0  0  0  0  0  0  0  0  0  0
   13.2942  -17.2603   18.5319 C   0  0  0  0  0  0  0  0  0  0  0  0
   12.2992  -17.6301   17.8944 O   0  0  0  0  0  0  0  0  0  0  0  0
   12.5366  -17.1721   22.8553 C   0  0  0  0  0  0  0  0  0  0  0  0
   13.1975  -18.2233   22.9974 O   0  0  0  0  0  0  0  0  0  0  0  0
   14.4354  -16.8316   17.9065 O   0  0  0  0  0  0  0  0  0  0  0  0
   12.7899  -16.1533   23.7556 O   0  0  0  0  0  0  0  0  0  0  0  0
  2  1  1  6
  2  3  1  0
  2 10  1  0
  4  3  1  0
  4  9  2  0
  5  4  1  0
  6  5  2  0
  6  7  1  0
  7  8  2  0
  8  9  1  0
 10 11  2  0
 13 15  1  0
 13 12  1  1
 14 13  1  0
 16 15  1  1
 16 18  1  0
 17 16  1  0
 17 10  1  0
 18 19  2  0
 20 18  1  0
 20 21  1  0
 21 26  1  0
 22 23  1  0
 21 22  1  6
 24 23  1  0
 24 28  1  0
 25 24  2  0
 26 27  2  0
 26 29  1  0
M  END
$$$$
