FLE.pdb
     RDKit          3D

 29 29  0  0  1  0  0  0  0  0999 V2000
   10.8633  -16.7732   21.1633 N   0  0  0  0  0  0  0  0  0  0  0  0
    9.8935  -15.8597   21.6791 C   0  0  1  0  0  0  0  0  0  0  0  0
    8.5344  -16.0313   21.0146 C   0  0  0  0  0  0  0  0  0  0  0  0
    8.0177  -14.7240   20.5826 C   0  0  0  0  0  0  0  0  0  0  0  0
    8.8382  -13.9268   19.8143 C   0  0  0  0  0  0  0  0  0  0  0  0
    8.3575  -12.7014   19.4075 C   0  0  0  0  0  0  0  0  0  0  0  0
    7.0908  -12.2943   19.7642 C   0  0  0  0  0  0  0  0  0  0  0  0
    6.2938  -13.1168   20.5348 C   0  0  0  0  0  0  0  0  0  0  0  0
    6.7386  -14.3358   20.9544 C   0  0  0  0  0  0  0  0  0  0  0  0
    9.7198  -15.9888   23.1549 C   0  0  0  0  0  0  0  0  0  0  0  0
   10.5289  -16.6649   23.8373 O   0  0  0  0  0  0  0  0  0  0  0  0
    8.5358  -12.2726   26.4203 C   0  0  0  0  0  0  0  0  0  0  0  0
    7.4626  -12.9533   25.5455 C   0  0  2  0  0  0  0  0  0  0  0  0
    6.1625  -12.2814   25.9028 C   0  0  0  0  0  0  0  0  0  0  0  0
    7.4762  -14.4186   25.7462 C   0  0  0  0  0  0  0  0  0  0  0  0
    8.7255  -15.1479   25.3251 C   0  0  2  0  0  0  0  0  0  0  0  0
    8.6561  -15.3695   23.8521 N   0  0  0  0  0  0  0  0  0  0  0  0
    8.9102  -16.4810   25.9109 C   0  0  0  0  0  0  0  0  0  0  0  0
    7.9337  -17.3237   25.9388 O   0  0  0  0  0  0  0  0  0  0  0  0
   10.0960  -16.9987   26.4812 N   0  0  0  0  0  0  0  0  0  0  0  0
   10.1424  -18.2990   27.1663 C   0  0  1  0  0  0  0  0  0  0  0  0
   11.3097  -19.0950   26.7114 C   0  0  0  0  0  0  0  0  0  0  0  0
   11.3560  -19.1896   25.2143 C   0  0  0  0  0  0  0  0  0  0  0  0
   12.5306  -20.0033   24.7653 C   0  0  0  0  0  0  0  0  0  0  0  0
   13.6707  -19.5568   24.9498 O   0  0  0  0  0  0  0  0  0  0  0  0
   10.1471  -18.0332   28.6070 C   0  0  0  0  0  0  0  0  0  0  0  0
   10.1981  -16.8732   29.0693 O   0  0  0  0  0  0  0  0  0  0  0  0
   12.3175  -21.2161   24.1644 O   0  0  0  0  0  0  0  0  0  0  0  0
   10.0944  -19.0657   29.5256 O   0  0  0  0  0  0  0  0  0  0  0  0
  2  1  1  6
  2  3  1  0
  2 10  1  0
  4  3  1  0
  4  9  2  0
  5  4  1  0
  6  5  2  0
  6  7  1  0
  7  8  2  0
  8  9  1  0
 10 11  2  0
 13 15  1  0
 13 12  1  1
 14 13  1  0
 16 15  1  1
 16 18  1  0
 17 16  1  0
 17 10  1  0
 18 19  2  0
 20 18  1  0
 20 21  1  0
 21 26  1  0
 22 23  1  0
 21 22  1  6
 24 23  1  0
 24 28  1  0
 25 24  2  0
 26 27  2  0
 26 29  1  0
M  END
$$$$
