FLE.pdb
     RDKit          3D

 29 29  0  0  1  0  0  0  0  0999 V2000
    6.6360  -17.0206   25.8709 N   0  0  0  0  0  0  0  0  0  0  0  0
    7.0610  -15.9669   25.0047 C   0  0  1  0  0  0  0  0  0  0  0  0
    8.1360  -15.0984   25.6437 C   0  0  0  0  0  0  0  0  0  0  0  0
    7.5345  -13.8687   26.1810 C   0  0  0  0  0  0  0  0  0  0  0  0
    7.9909  -13.4033   27.3951 C   0  0  0  0  0  0  0  0  0  0  0  0
    7.4300  -12.2513   27.9015 C   0  0  0  0  0  0  0  0  0  0  0  0
    6.4414  -11.5910   27.2055 C   0  0  0  0  0  0  0  0  0  0  0  0
    6.0066  -12.0835   25.9915 C   0  0  0  0  0  0  0  0  0  0  0  0
    6.5403  -13.2212   25.4617 C   0  0  0  0  0  0  0  0  0  0  0  0
    7.5756  -16.4762   23.7006 C   0  0  0  0  0  0  0  0  0  0  0  0
    7.5105  -17.6989   23.4210 O   0  0  0  0  0  0  0  0  0  0  0  0
    6.3712  -13.9123   20.4663 C   0  0  0  0  0  0  0  0  0  0  0  0
    7.8721  -13.8265   20.8130 C   0  0  2  0  0  0  0  0  0  0  0  0
    8.3711  -12.5712   20.1461 C   0  0  0  0  0  0  0  0  0  0  0  0
    8.5746  -15.0630   20.4065 C   0  0  0  0  0  0  0  0  0  0  0  0
    8.6467  -16.1677   21.4284 C   0  0  2  0  0  0  0  0  0  0  0  0
    8.1532  -15.6272   22.7277 N   0  0  0  0  0  0  0  0  0  0  0  0
    9.9909  -16.6867   21.7082 C   0  0  0  0  0  0  0  0  0  0  0  0
   10.7148  -17.1730   20.7574 O   0  0  0  0  0  0  0  0  0  0  0  0
   10.6412  -16.7213   22.9633 N   0  0  0  0  0  0  0  0  0  0  0  0
   12.0029  -17.2490   23.1347 C   0  0  1  0  0  0  0  0  0  0  0  0
   13.0159  -16.2073   22.8313 C   0  0  0  0  0  0  0  0  0  0  0  0
   14.4064  -16.7026   23.1023 C   0  0  0  0  0  0  0  0  0  0  0  0
   15.4287  -15.7291   22.6017 C   0  0  0  0  0  0  0  0  0  0  0  0
   15.8367  -15.8389   21.4379 O   0  0  0  0  0  0  0  0  0  0  0  0
   12.0995  -17.7724   24.4996 C   0  0  0  0  0  0  0  0  0  0  0  0
   13.1439  -18.3015   24.9369 O   0  0  0  0  0  0  0  0  0  0  0  0
   15.8859  -14.7453   23.4386 O   0  0  0  0  0  0  0  0  0  0  0  0
   11.0278  -17.7017   25.3709 O   0  0  0  0  0  0  0  0  0  0  0  0
  2  1  1  1
  2  3  1  0
  2 10  1  0
  4  3  1  0
  4  9  2  0
  5  4  1  0
  6  5  2  0
  6  7  1  0
  7  8  2  0
  8  9  1  0
 10 11  2  0
 13 15  1  0
 13 12  1  6
 14 13  1  0
 16 15  1  6
 16 18  1  0
 17 16  1  0
 17 10  1  0
 18 19  2  0
 20 18  1  0
 20 21  1  0
 21 26  1  0
 22 23  1  0
 21 22  1  1
 24 23  1  0
 24 28  1  0
 25 24  2  0
 26 27  2  0
 26 29  1  0
M  END
$$$$
