FLE.pdb
     RDKit          3D

 29 29  0  0  1  0  0  0  0  0999 V2000
    6.9575  -17.8522   26.2535 N   0  0  0  0  0  0  0  0  0  0  0  0
    7.6982  -16.6781   25.9157 C   0  0  1  0  0  0  0  0  0  0  0  0
    9.0470  -16.6292   26.6203 C   0  0  0  0  0  0  0  0  0  0  0  0
    9.1457  -15.4068   27.4318 C   0  0  0  0  0  0  0  0  0  0  0  0
    8.6508  -14.2360   26.8994 C   0  0  0  0  0  0  0  0  0  0  0  0
    8.7412  -13.0888   27.6570 C   0  0  0  0  0  0  0  0  0  0  0  0
    9.3120  -13.1222   28.9102 C   0  0  0  0  0  0  0  0  0  0  0  0
    9.7983  -14.3115   29.4148 C   0  0  0  0  0  0  0  0  0  0  0  0
    9.7247  -15.4653   28.6914 C   0  0  0  0  0  0  0  0  0  0  0  0
    7.9253  -16.5527   24.4468 C   0  0  0  0  0  0  0  0  0  0  0  0
    7.9507  -17.5725   23.7143 O   0  0  0  0  0  0  0  0  0  0  0  0
    8.2721  -11.8914   20.3026 C   0  0  0  0  0  0  0  0  0  0  0  0
    8.1298  -13.4126   20.5168 C   0  0  2  0  0  0  0  0  0  0  0  0
    6.8907  -13.8144   19.7601 C   0  0  0  0  0  0  0  0  0  0  0  0
    8.1052  -13.7378   21.9595 C   0  0  0  0  0  0  0  0  0  0  0  0
    8.1880  -15.1968   22.3260 C   0  0  2  0  0  0  0  0  0  0  0  0
    8.1204  -15.3038   23.8118 N   0  0  0  0  0  0  0  0  0  0  0  0
    9.4305  -15.8779   21.9429 C   0  0  0  0  0  0  0  0  0  0  0  0
    9.4826  -16.5852   20.8651 O   0  0  0  0  0  0  0  0  0  0  0  0
   10.6592  -15.8551   22.6423 N   0  0  0  0  0  0  0  0  0  0  0  0
   11.8972  -16.4201   22.0853 C   0  0  1  0  0  0  0  0  0  0  0  0
   12.6765  -15.3809   21.3670 C   0  0  0  0  0  0  0  0  0  0  0  0
   12.5891  -15.5634   19.8799 C   0  0  0  0  0  0  0  0  0  0  0  0
   13.5009  -14.6112   19.1691 C   0  0  0  0  0  0  0  0  0  0  0  0
   14.1822  -13.8248   19.8402 O   0  0  0  0  0  0  0  0  0  0  0  0
   12.6330  -17.0353   23.1928 C   0  0  0  0  0  0  0  0  0  0  0  0
   13.7470  -17.5782   23.0312 O   0  0  0  0  0  0  0  0  0  0  0  0
   13.5596  -14.6324   17.8003 O   0  0  0  0  0  0  0  0  0  0  0  0
   12.1205  -17.0407   24.4773 O   0  0  0  0  0  0  0  0  0  0  0  0
  2  1  1  6
  2  3  1  0
  2 10  1  0
  4  3  1  0
  4  9  2  0
  5  4  1  0
  6  5  2  0
  6  7  1  0
  7  8  2  0
  8  9  1  0
 10 11  2  0
 13 15  1  0
 13 12  1  1
 14 13  1  0
 16 15  1  1
 16 18  1  0
 17 16  1  0
 17 10  1  0
 18 19  2  0
 20 18  1  0
 20 21  1  0
 21 26  1  0
 22 23  1  0
 21 22  1  1
 24 23  1  0
 24 28  1  0
 25 24  2  0
 26 27  2  0
 26 29  1  0
M  END
$$$$
