FLE.pdb
     RDKit          3D

 29 29  0  0  1  0  0  0  0  0999 V2000
    5.7020  -17.4390   25.3890 N   0  0  0  0  0  0  0  0  0  0  0  0
    6.5404  -16.3035   25.1683 C   0  0  1  0  0  0  0  0  0  0  0  0
    7.3532  -15.9426   26.4042 C   0  0  0  0  0  0  0  0  0  0  0  0
    7.4025  -14.4816   26.5639 C   0  0  0  0  0  0  0  0  0  0  0  0
    6.2121  -13.7880   26.5351 C   0  0  0  0  0  0  0  0  0  0  0  0
    6.2543  -12.4190   26.6848 C   0  0  0  0  0  0  0  0  0  0  0  0
    7.4580  -11.7718   26.8578 C   0  0  0  0  0  0  0  0  0  0  0  0
    8.6328  -12.4960   26.8821 C   0  0  0  0  0  0  0  0  0  0  0  0
    8.6268  -13.8520   26.7369 C   0  0  0  0  0  0  0  0  0  0  0  0
    7.4779  -16.5031   24.0255 C   0  0  0  0  0  0  0  0  0  0  0  0
    7.8074  -17.6596   23.6630 O   0  0  0  0  0  0  0  0  0  0  0  0
    6.7736  -14.4128   20.0870 C   0  0  0  0  0  0  0  0  0  0  0  0
    7.6642  -13.6223   21.0678 C   0  0  2  0  0  0  0  0  0  0  0  0
    7.8307  -12.2568   20.4537 C   0  0  0  0  0  0  0  0  0  0  0  0
    8.9300  -14.3435   21.3227 C   0  0  0  0  0  0  0  0  0  0  0  0
    8.8262  -15.6537   22.0592 C   0  0  2  0  0  0  0  0  0  0  0  0
    8.0357  -15.4228   23.3024 N   0  0  0  0  0  0  0  0  0  0  0  0
   10.0983  -16.2317   22.5087 C   0  0  0  0  0  0  0  0  0  0  0  0
   10.9004  -16.7842   21.6626 O   0  0  0  0  0  0  0  0  0  0  0  0
   10.5951  -16.2600   23.8323 N   0  0  0  0  0  0  0  0  0  0  0  0
   11.8690  -16.9036   24.1857 C   0  0  1  0  0  0  0  0  0  0  0  0
   12.9914  -15.9358   24.1030 C   0  0  0  0  0  0  0  0  0  0  0  0
   13.4038  -15.6984   22.6796 C   0  0  0  0  0  0  0  0  0  0  0  0
   14.8679  -15.3958   22.5897 C   0  0  0  0  0  0  0  0  0  0  0  0
   15.2581  -14.2525   22.8615 O   0  0  0  0  0  0  0  0  0  0  0  0
   11.7063  -17.4911   25.5179 C   0  0  0  0  0  0  0  0  0  0  0  0
   12.6366  -18.0900   26.0990 O   0  0  0  0  0  0  0  0  0  0  0  0
   15.7365  -16.3854   22.2111 O   0  0  0  0  0  0  0  0  0  0  0  0
   10.5037  -17.4063   26.1956 O   0  0  0  0  0  0  0  0  0  0  0  0
  2  1  1  1
  2  3  1  0
  2 10  1  0
  4  3  1  0
  4  9  2  0
  5  4  1  0
  6  5  2  0
  6  7  1  0
  7  8  2  0
  8  9  1  0
 10 11  2  0
 13 15  1  0
 13 12  1  6
 14 13  1  0
 16 15  1  1
 16 18  1  0
 17 16  1  0
 17 10  1  0
 18 19  2  0
 20 18  1  0
 20 21  1  0
 21 26  1  0
 22 23  1  0
 21 22  1  1
 24 23  1  0
 24 28  1  0
 25 24  2  0
 26 27  2  0
 26 29  1  0
M  END
$$$$
