FLE.pdb
     RDKit          3D

 29 29  0  0  1  0  0  0  0  0999 V2000
    5.8041  -18.1127   25.5247 N   0  0  0  0  0  0  0  0  0  0  0  0
    6.2464  -16.7550   25.4800 C   0  0  1  0  0  0  0  0  0  0  0  0
    6.9545  -16.3405   26.7625 C   0  0  0  0  0  0  0  0  0  0  0  0
    7.1395  -14.8818   26.7854 C   0  0  0  0  0  0  0  0  0  0  0  0
    6.0161  -14.0869   26.7145 C   0  0  0  0  0  0  0  0  0  0  0  0
    6.1854  -12.7198   26.7360 C   0  0  0  0  0  0  0  0  0  0  0  0
    7.4467  -12.1732   26.8261 C   0  0  0  0  0  0  0  0  0  0  0  0
    8.5517  -12.9975   26.8956 C   0  0  0  0  0  0  0  0  0  0  0  0
    8.4197  -14.3547   26.8767 C   0  0  0  0  0  0  0  0  0  0  0  0
    7.1574  -16.4918   24.3286 C   0  0  0  0  0  0  0  0  0  0  0  0
    8.0865  -17.2907   24.0528 O   0  0  0  0  0  0  0  0  0  0  0  0
    7.7603  -12.1549   19.8629 C   0  0  0  0  0  0  0  0  0  0  0  0
    8.1995  -13.5431   20.3730 C   0  0  2  0  0  0  0  0  0  0  0  0
    7.9909  -14.4848   19.2158 C   0  0  0  0  0  0  0  0  0  0  0  0
    7.4640  -13.9049   21.6041 C   0  0  0  0  0  0  0  0  0  0  0  0
    7.9192  -15.1478   22.3240 C   0  0  2  0  0  0  0  0  0  0  0  0
    7.0274  -15.3516   23.5016 N   0  0  0  0  0  0  0  0  0  0  0  0
    9.2808  -15.1021   22.8702 C   0  0  0  0  0  0  0  0  0  0  0  0
    9.5659  -14.3129   23.8501 O   0  0  0  0  0  0  0  0  0  0  0  0
   10.3922  -15.8626   22.4390 N   0  0  0  0  0  0  0  0  0  0  0  0
   11.7326  -15.7058   23.0229 C   0  0  1  0  0  0  0  0  0  0  0  0
   11.7881  -16.2928   24.3851 C   0  0  0  0  0  0  0  0  0  0  0  0
   11.4573  -17.7566   24.3627 C   0  0  0  0  0  0  0  0  0  0  0  0
   11.6652  -18.3732   25.7117 C   0  0  0  0  0  0  0  0  0  0  0  0
   12.1501  -17.6799   26.6158 O   0  0  0  0  0  0  0  0  0  0  0  0
   12.6879  -16.3104   22.0911 C   0  0  0  0  0  0  0  0  0  0  0  0
   12.3195  -16.9646   21.0920 O   0  0  0  0  0  0  0  0  0  0  0  0
   11.3157  -19.6826   25.9129 O   0  0  0  0  0  0  0  0  0  0  0  0
   14.0518  -16.1809   22.2798 O   0  0  0  0  0  0  0  0  0  0  0  0
  2  1  1  1
  2  3  1  0
  2 10  1  0
  4  3  1  0
  4  9  2  0
  5  4  1  0
  6  5  2  0
  6  7  1  0
  7  8  2  0
  8  9  1  0
 10 11  2  0
 13 15  1  0
 13 12  1  6
 14 13  1  0
 16 15  1  1
 16 18  1  0
 17 16  1  0
 17 10  1  0
 18 19  2  0
 20 18  1  0
 20 21  1  0
 21 26  1  0
 22 23  1  0
 21 22  1  1
 24 23  1  0
 24 28  1  0
 25 24  2  0
 26 27  2  0
 26 29  1  0
M  END
$$$$
