FLE.pdb
     RDKit          3D

 29 29  0  0  1  0  0  0  0  0999 V2000
    7.4317  -16.3390   21.0233 N   0  0  0  0  0  0  0  0  0  0  0  0
    6.7769  -16.2928   22.2923 C   0  0  1  0  0  0  0  0  0  0  0  0
    6.3276  -17.6717   22.7557 C   0  0  0  0  0  0  0  0  0  0  0  0
    5.0893  -18.0560   22.0618 C   0  0  0  0  0  0  0  0  0  0  0  0
    4.6212  -17.2246   21.0674 C   0  0  0  0  0  0  0  0  0  0  0  0
    3.4615  -17.5815   20.4148 C   0  0  0  0  0  0  0  0  0  0  0  0
    2.7964  -18.7390   20.7546 C   0  0  0  0  0  0  0  0  0  0  0  0
    3.2918  -19.5502   21.7556 C   0  0  0  0  0  0  0  0  0  0  0  0
    4.4370  -19.2266   22.4216 C   0  0  0  0  0  0  0  0  0  0  0  0
    7.6361  -15.6923   23.3534 C   0  0  0  0  0  0  0  0  0  0  0  0
    8.8865  -15.6850   23.2357 O   0  0  0  0  0  0  0  0  0  0  0  0
    7.3752  -11.4290   25.5773 C   0  0  0  0  0  0  0  0  0  0  0  0
    6.3861  -12.5406   25.9851 C   0  0  2  0  0  0  0  0  0  0  0  0
    5.4343  -11.8986   26.9604 C   0  0  0  0  0  0  0  0  0  0  0  0
    7.1101  -13.7176   26.5122 C   0  0  0  0  0  0  0  0  0  0  0  0
    7.9843  -14.4660   25.5398 C   0  0  2  0  0  0  0  0  0  0  0  0
    7.1005  -15.1101   24.5261 N   0  0  0  0  0  0  0  0  0  0  0  0
    8.7802  -15.5583   26.1125 C   0  0  0  0  0  0  0  0  0  0  0  0
    8.2012  -16.6047   26.5965 O   0  0  0  0  0  0  0  0  0  0  0  0
   10.1897  -15.6210   26.2049 N   0  0  0  0  0  0  0  0  0  0  0  0
   10.8904  -16.7277   26.8730 C   0  0  1  0  0  0  0  0  0  0  0  0
   12.2691  -16.8771   26.3436 C   0  0  0  0  0  0  0  0  0  0  0  0
   12.2748  -16.9333   24.8439 C   0  0  0  0  0  0  0  0  0  0  0  0
   13.6708  -17.0695   24.3185 C   0  0  0  0  0  0  0  0  0  0  0  0
   14.5396  -16.2861   24.7243 O   0  0  0  0  0  0  0  0  0  0  0  0
   10.8473  -16.4651   28.3137 C   0  0  0  0  0  0  0  0  0  0  0  0
   11.3105  -17.2693   29.1507 O   0  0  0  0  0  0  0  0  0  0  0  0
   13.9525  -18.0524   23.4064 O   0  0  0  0  0  0  0  0  0  0  0  0
   10.2865  -15.3037   28.8132 O   0  0  0  0  0  0  0  0  0  0  0  0
  2  1  1  6
  2  3  1  0
  2 10  1  0
  4  3  1  0
  4  9  2  0
  5  4  1  0
  6  5  2  0
  6  7  1  0
  7  8  2  0
  8  9  1  0
 10 11  2  0
 13 15  1  0
 13 12  1  1
 14 13  1  0
 16 15  1  1
 16 18  1  0
 17 16  1  0
 17 10  1  0
 18 19  2  0
 20 18  1  0
 20 21  1  0
 21 26  1  0
 22 23  1  0
 21 22  1  6
 24 23  1  0
 24 28  1  0
 25 24  2  0
 26 27  2  0
 26 29  1  0
M  END
$$$$
