FLE.pdb
     RDKit          3D

 29 29  0  0  1  0  0  0  0  0999 V2000
    5.5805  -17.7172   24.9434 N   0  0  0  0  0  0  0  0  0  0  0  0
    6.2308  -16.4501   25.0551 C   0  0  1  0  0  0  0  0  0  0  0  0
    6.7083  -16.1744   26.4744 C   0  0  0  0  0  0  0  0  0  0  0  0
    7.1349  -14.7724   26.5974 C   0  0  0  0  0  0  0  0  0  0  0  0
    8.4862  -14.5122   26.6699 C   0  0  0  0  0  0  0  0  0  0  0  0
    8.8897  -13.1999   26.7848 C   0  0  0  0  0  0  0  0  0  0  0  0
    7.9601  -12.1841   26.8253 C   0  0  0  0  0  0  0  0  0  0  0  0
    6.6136  -12.4784   26.7504 C   0  0  0  0  0  0  0  0  0  0  0  0
    6.1801  -13.7664   26.6361 C   0  0  0  0  0  0  0  0  0  0  0  0
    7.3943  -16.3251   24.1303 C   0  0  0  0  0  0  0  0  0  0  0  0
    8.2083  -17.2719   23.9951 O   0  0  0  0  0  0  0  0  0  0  0  0
    7.4637  -14.7055   19.6127 C   0  0  0  0  0  0  0  0  0  0  0  0
    7.4533  -13.6459   20.7340 C   0  0  2  0  0  0  0  0  0  0  0  0
    7.3689  -12.3150   20.0334 C   0  0  0  0  0  0  0  0  0  0  0  0
    8.6295  -13.8061   21.6162 C   0  0  0  0  0  0  0  0  0  0  0  0
    8.7407  -15.1079   22.3665 C   0  0  2  0  0  0  0  0  0  0  0  0
    7.6394  -15.1572   23.3707 N   0  0  0  0  0  0  0  0  0  0  0  0
    9.9771  -15.2938   23.1354 C   0  0  0  0  0  0  0  0  0  0  0  0
   10.3565  -14.4033   23.9884 O   0  0  0  0  0  0  0  0  0  0  0  0
   10.8620  -16.3943   23.0633 N   0  0  0  0  0  0  0  0  0  0  0  0
   12.0854  -16.4804   23.8746 C   0  0  1  0  0  0  0  0  0  0  0  0
   12.2509  -17.8433   24.4388 C   0  0  0  0  0  0  0  0  0  0  0  0
   12.6417  -18.8298   23.3774 C   0  0  0  0  0  0  0  0  0  0  0  0
   12.7827  -20.2060   23.9513 C   0  0  0  0  0  0  0  0  0  0  0  0
   13.0210  -21.1496   23.1858 O   0  0  0  0  0  0  0  0  0  0  0  0
   13.2033  -16.0647   23.0238 C   0  0  0  0  0  0  0  0  0  0  0  0
   14.3405  -15.8315   23.4865 O   0  0  0  0  0  0  0  0  0  0  0  0
   12.6454  -20.3878   25.3024 O   0  0  0  0  0  0  0  0  0  0  0  0
   13.0454  -15.9118   21.6584 O   0  0  0  0  0  0  0  0  0  0  0  0
  2  1  1  1
  2  3  1  0
  2 10  1  0
  4  3  1  0
  4  9  2  0
  5  4  1  0
  6  5  2  0
  6  7  1  0
  7  8  2  0
  8  9  1  0
 10 11  2  0
 13 15  1  0
 13 12  1  6
 14 13  1  0
 16 15  1  1
 16 18  1  0
 17 16  1  0
 17 10  1  0
 18 19  2  0
 20 18  1  0
 20 21  1  0
 21 26  1  0
 22 23  1  0
 21 22  1  6
 24 23  1  0
 24 28  1  0
 25 24  2  0
 26 27  2  0
 26 29  1  0
M  END
$$$$
