FLE.pdb
     RDKit          3D

 29 29  0  0  1  0  0  0  0  0999 V2000
    5.5713  -17.7977   25.7142 N   0  0  0  0  0  0  0  0  0  0  0  0
    6.3613  -16.6360   25.4543 C   0  0  1  0  0  0  0  0  0  0  0  0
    7.1564  -16.1986   26.6769 C   0  0  0  0  0  0  0  0  0  0  0  0
    7.4838  -14.7684   26.5778 C   0  0  0  0  0  0  0  0  0  0  0  0
    6.4413  -13.8680   26.5400 C   0  0  0  0  0  0  0  0  0  0  0  0
    6.7442  -12.5271   26.4476 C   0  0  0  0  0  0  0  0  0  0  0  0
    8.0557  -12.1090   26.3950 C   0  0  0  0  0  0  0  0  0  0  0  0
    9.0771  -13.0367   26.4349 C   0  0  0  0  0  0  0  0  0  0  0  0
    8.8124  -14.3715   26.5262 C   0  0  0  0  0  0  0  0  0  0  0  0
    7.3079  -16.8350   24.3189 C   0  0  0  0  0  0  0  0  0  0  0  0
    7.9643  -17.9005   24.2128 O   0  0  0  0  0  0  0  0  0  0  0  0
    8.1518  -13.2163   22.5401 C   0  0  0  0  0  0  0  0  0  0  0  0
    8.4243  -13.8409   21.1560 C   0  0  2  0  0  0  0  0  0  0  0  0
    8.0292  -12.7896   20.1520 C   0  0  0  0  0  0  0  0  0  0  0  0
    7.7120  -15.1293   21.0140 C   0  0  0  0  0  0  0  0  0  0  0  0
    8.0799  -16.2173   21.9892 C   0  0  2  0  0  0  0  0  0  0  0  0
    7.5137  -15.8546   23.3201 N   0  0  0  0  0  0  0  0  0  0  0  0
    9.5177  -16.4064   22.2163 C   0  0  0  0  0  0  0  0  0  0  0  0
   10.2721  -16.8706   21.2783 O   0  0  0  0  0  0  0  0  0  0  0  0
   10.2320  -16.1236   23.4033 N   0  0  0  0  0  0  0  0  0  0  0  0
   11.6282  -16.5387   23.6045 C   0  0  1  0  0  0  0  0  0  0  0  0
   12.5624  -15.4399   23.2535 C   0  0  0  0  0  0  0  0  0  0  0  0
   13.3245  -15.7512   21.9986 C   0  0  0  0  0  0  0  0  0  0  0  0
   14.6427  -15.0402   21.9824 C   0  0  0  0  0  0  0  0  0  0  0  0
   15.3634  -15.1433   20.9809 O   0  0  0  0  0  0  0  0  0  0  0  0
   11.7545  -16.9862   24.9937 C   0  0  0  0  0  0  0  0  0  0  0  0
   12.8474  -17.3500   25.4787 O   0  0  0  0  0  0  0  0  0  0  0  0
   15.0182  -14.2964   23.0701 O   0  0  0  0  0  0  0  0  0  0  0  0
   10.6581  -17.0251   25.8358 O   0  0  0  0  0  0  0  0  0  0  0  0
  2  1  1  1
  2  3  1  0
  2 10  1  0
  4  3  1  0
  4  9  2  0
  5  4  1  0
  6  5  2  0
  6  7  1  0
  7  8  2  0
  8  9  1  0
 10 11  2  0
 13 15  1  0
 13 12  1  1
 14 13  1  0
 16 15  1  6
 16 18  1  0
 17 16  1  0
 17 10  1  0
 18 19  2  0
 20 18  1  0
 20 21  1  0
 21 26  1  0
 22 23  1  0
 21 22  1  1
 24 23  1  0
 24 28  1  0
 25 24  2  0
 26 27  2  0
 26 29  1  0
M  END
$$$$
