FLE.pdb
     RDKit          3D

 29 29  0  0  1  0  0  0  0  0999 V2000
    5.8106  -17.8157   25.9593 N   0  0  0  0  0  0  0  0  0  0  0  0
    6.4381  -16.5620   25.6847 C   0  0  1  0  0  0  0  0  0  0  0  0
    7.4629  -16.1894   26.7473 C   0  0  0  0  0  0  0  0  0  0  0  0
    7.6730  -14.7339   26.7540 C   0  0  0  0  0  0  0  0  0  0  0  0
    6.5808  -13.9245   26.9799 C   0  0  0  0  0  0  0  0  0  0  0  0
    6.7738  -12.5604   26.9873 C   0  0  0  0  0  0  0  0  0  0  0  0
    8.0274  -12.0309   26.7739 C   0  0  0  0  0  0  0  0  0  0  0  0
    9.1010  -12.8693   26.5507 C   0  0  0  0  0  0  0  0  0  0  0  0
    8.9450  -14.2240   26.5367 C   0  0  0  0  0  0  0  0  0  0  0  0
    7.1076  -16.5416   24.3519 C   0  0  0  0  0  0  0  0  0  0  0  0
    7.7658  -17.5335   23.9517 O   0  0  0  0  0  0  0  0  0  0  0  0
    8.5638  -12.3198   20.0110 C   0  0  0  0  0  0  0  0  0  0  0  0
    8.2664  -13.8090   20.2828 C   0  0  2  0  0  0  0  0  0  0  0  0
    7.2590  -14.2181   19.2401 C   0  0  0  0  0  0  0  0  0  0  0  0
    7.8245  -14.0078   21.6802 C   0  0  0  0  0  0  0  0  0  0  0  0
    7.7388  -15.4310   22.1671 C   0  0  2  0  0  0  0  0  0  0  0  0
    7.0389  -15.4268   23.4839 N   0  0  0  0  0  0  0  0  0  0  0  0
    9.0240  -16.0967   22.4116 C   0  0  0  0  0  0  0  0  0  0  0  0
    9.1776  -17.3457   22.1274 O   0  0  0  0  0  0  0  0  0  0  0  0
   10.1934  -15.5096   22.9475 N   0  0  0  0  0  0  0  0  0  0  0  0
   11.4894  -16.2040   22.9677 C   0  0  1  0  0  0  0  0  0  0  0  0
   12.5824  -15.2965   22.5376 C   0  0  0  0  0  0  0  0  0  0  0  0
   13.9297  -15.9139   22.7744 C   0  0  0  0  0  0  0  0  0  0  0  0
   14.8457  -15.6608   21.6168 C   0  0  0  0  0  0  0  0  0  0  0  0
   15.4104  -14.5621   21.5326 O   0  0  0  0  0  0  0  0  0  0  0  0
   11.6769  -16.7387   24.3187 C   0  0  0  0  0  0  0  0  0  0  0  0
   12.3337  -17.7793   24.5371 O   0  0  0  0  0  0  0  0  0  0  0  0
   15.0364  -16.6454   20.6832 O   0  0  0  0  0  0  0  0  0  0  0  0
   11.1295  -16.1075   25.4208 O   0  0  0  0  0  0  0  0  0  0  0  0
  2  1  1  1
  2  3  1  0
  2 10  1  0
  4  3  1  0
  4  9  2  0
  5  4  1  0
  6  5  2  0
  6  7  1  0
  7  8  2  0
  8  9  1  0
 10 11  2  0
 13 15  1  0
 13 12  1  1
 14 13  1  0
 16 15  1  1
 16 18  1  0
 17 16  1  0
 17 10  1  0
 18 19  2  0
 20 18  1  0
 20 21  1  0
 21 26  1  0
 22 23  1  0
 21 22  1  1
 24 23  1  0
 24 28  1  0
 25 24  2  0
 26 27  2  0
 26 29  1  0
M  END
$$$$
