FLE.pdb
     RDKit          3D

 29 29  0  0  1  0  0  0  0  0999 V2000
    6.4586  -19.0910   24.7506 N   0  0  0  0  0  0  0  0  0  0  0  0
    6.3644  -18.5460   23.4334 C   0  0  1  0  0  0  0  0  0  0  0  0
    5.1184  -19.0267   22.7022 C   0  0  0  0  0  0  0  0  0  0  0  0
    5.0141  -20.4905   22.7964 C   0  0  0  0  0  0  0  0  0  0  0  0
    4.0406  -21.0174   23.6172 C   0  0  0  0  0  0  0  0  0  0  0  0
    3.9396  -22.3885   23.7077 C   0  0  0  0  0  0  0  0  0  0  0  0
    4.7928  -23.2006   22.9935 C   0  0  0  0  0  0  0  0  0  0  0  0
    5.7574  -22.6411   22.1800 C   0  0  0  0  0  0  0  0  0  0  0  0
    5.8847  -21.2879   22.0674 C   0  0  0  0  0  0  0  0  0  0  0  0
    6.3685  -17.0544   23.4339 C   0  0  0  0  0  0  0  0  0  0  0  0
    6.2606  -16.4142   22.3588 O   0  0  0  0  0  0  0  0  0  0  0  0
    6.6662  -12.2307   27.3304 C   0  0  0  0  0  0  0  0  0  0  0  0
    7.1240  -12.8019   25.9723 C   0  0  2  0  0  0  0  0  0  0  0  0
    6.7164  -11.7791   24.9442 C   0  0  0  0  0  0  0  0  0  0  0  0
    6.5616  -14.1528   25.7565 C   0  0  0  0  0  0  0  0  0  0  0  0
    7.1329  -14.9490   24.6121 C   0  0  2  0  0  0  0  0  0  0  0  0
    6.4916  -16.2952   24.6212 N   0  0  0  0  0  0  0  0  0  0  0  0
    8.5767  -15.2053   24.6756 C   0  0  0  0  0  0  0  0  0  0  0  0
    9.4193  -14.2784   24.3666 O   0  0  0  0  0  0  0  0  0  0  0  0
    9.2068  -16.4111   25.0610 N   0  0  0  0  0  0  0  0  0  0  0  0
   10.6685  -16.5506   25.1376 C   0  0  1  0  0  0  0  0  0  0  0  0
   11.0638  -17.3206   26.3434 C   0  0  0  0  0  0  0  0  0  0  0  0
   10.5550  -18.7312   26.2815 C   0  0  0  0  0  0  0  0  0  0  0  0
   11.0424  -19.5281   27.4523 C   0  0  0  0  0  0  0  0  0  0  0  0
   10.7929  -19.1221   28.5951 O   0  0  0  0  0  0  0  0  0  0  0  0
   11.1144  -17.1652   23.8846 C   0  0  0  0  0  0  0  0  0  0  0  0
   10.3098  -17.6212   23.0441 O   0  0  0  0  0  0  0  0  0  0  0  0
   11.7488  -20.6814   27.2327 O   0  0  0  0  0  0  0  0  0  0  0  0
   12.4587  -17.2673   23.5760 O   0  0  0  0  0  0  0  0  0  0  0  0
  2  1  1  1
  2  3  1  0
  2 10  1  0
  4  3  1  0
  4  9  2  0
  5  4  1  0
  6  5  2  0
  6  7  1  0
  7  8  2  0
  8  9  1  0
 10 11  2  0
 13 15  1  0
 13 12  1  1
 14 13  1  0
 16 15  1  1
 16 18  1  0
 17 16  1  0
 17 10  1  0
 18 19  2  0
 20 18  1  0
 20 21  1  0
 21 26  1  0
 22 23  1  0
 21 22  1  1
 24 23  1  0
 24 28  1  0
 25 24  2  0
 26 27  2  0
 26 29  1  0
M  END
$$$$
