FLE.pdb
     RDKit          3D

 29 29  0  0  1  0  0  0  0  0999 V2000
    8.1027  -16.7973   21.4477 N   0  0  0  0  0  0  0  0  0  0  0  0
    9.3904  -16.1915   21.5741 C   0  0  1  0  0  0  0  0  0  0  0  0
    9.7250  -15.3034   20.3834 C   0  0  0  0  0  0  0  0  0  0  0  0
    8.7160  -14.2422   20.2491 C   0  0  0  0  0  0  0  0  0  0  0  0
    9.1360  -12.9340   20.3563 C   0  0  0  0  0  0  0  0  0  0  0  0
    8.1935  -11.9370   20.2306 C   0  0  0  0  0  0  0  0  0  0  0  0
    6.8712  -12.2498   20.0042 C   0  0  0  0  0  0  0  0  0  0  0  0
    6.4831  -13.5705   19.9017 C   0  0  0  0  0  0  0  0  0  0  0  0
    7.3901  -14.5819   20.0212 C   0  0  0  0  0  0  0  0  0  0  0  0
    9.5176  -15.3820   22.8204 C   0  0  0  0  0  0  0  0  0  0  0  0
   10.5893  -14.7844   23.0882 O   0  0  0  0  0  0  0  0  0  0  0  0
    6.0274  -12.8547   27.2684 C   0  0  0  0  0  0  0  0  0  0  0  0
    7.4393  -13.3280   26.8653 C   0  0  2  0  0  0  0  0  0  0  0  0
    8.3005  -12.0921   26.8785 C   0  0  0  0  0  0  0  0  0  0  0  0
    7.4021  -14.0412   25.5700 C   0  0  0  0  0  0  0  0  0  0  0  0
    8.6924  -14.6630   25.1023 C   0  0  2  0  0  0  0  0  0  0  0  0
    8.4598  -15.2460   23.7497 N   0  0  0  0  0  0  0  0  0  0  0  0
    9.1967  -15.7710   25.9223 C   0  0  0  0  0  0  0  0  0  0  0  0
    9.3848  -15.6139   27.1890 O   0  0  0  0  0  0  0  0  0  0  0  0
    9.5196  -17.0742   25.4788 N   0  0  0  0  0  0  0  0  0  0  0  0
    9.9973  -18.1246   26.3903 C   0  0  1  0  0  0  0  0  0  0  0  0
   10.8099  -19.1293   25.6598 C   0  0  0  0  0  0  0  0  0  0  0  0
   10.0560  -19.6971   24.4929 C   0  0  0  0  0  0  0  0  0  0  0  0
   10.8967  -20.6825   23.7407 C   0  0  0  0  0  0  0  0  0  0  0  0
   12.0467  -20.9111   24.1384 O   0  0  0  0  0  0  0  0  0  0  0  0
   10.7291  -17.4627   27.4733 C   0  0  0  0  0  0  0  0  0  0  0  0
   10.4569  -17.6592   28.6771 O   0  0  0  0  0  0  0  0  0  0  0  0
   10.3763  -21.3045   22.6363 O   0  0  0  0  0  0  0  0  0  0  0  0
   11.7628  -16.5837   27.2060 O   0  0  0  0  0  0  0  0  0  0  0  0
  2  1  1  6
  2  3  1  0
  2 10  1  0
  4  3  1  0
  4  9  2  0
  5  4  1  0
  6  5  2  0
  6  7  1  0
  7  8  2  0
  8  9  1  0
 10 11  2  0
 13 15  1  0
 13 12  1  6
 14 13  1  0
 16 15  1  1
 16 18  1  0
 17 16  1  0
 17 10  1  0
 18 19  2  0
 20 18  1  0
 20 21  1  0
 21 26  1  0
 22 23  1  0
 21 22  1  6
 24 23  1  0
 24 28  1  0
 25 24  2  0
 26 27  2  0
 26 29  1  0
M  END
$$$$
