FLE.pdb
     RDKit          3D

 29 29  0  0  1  0  0  0  0  0999 V2000
    7.9188  -17.8635   22.2964 N   0  0  0  0  0  0  0  0  0  0  0  0
    8.1599  -16.5685   21.7433 C   0  0  1  0  0  0  0  0  0  0  0  0
    6.9152  -15.9839   21.0898 C   0  0  0  0  0  0  0  0  0  0  0  0
    7.2398  -14.7006   20.4492 C   0  0  0  0  0  0  0  0  0  0  0  0
    6.8286  -13.5438   21.0751 C   0  0  0  0  0  0  0  0  0  0  0  0
    7.1312  -12.3395   20.4781 C   0  0  0  0  0  0  0  0  0  0  0  0
    7.8258  -12.3042   19.2890 C   0  0  0  0  0  0  0  0  0  0  0  0
    8.2235  -13.4813   18.6877 C   0  0  0  0  0  0  0  0  0  0  0  0
    7.9404  -14.6903   19.2516 C   0  0  0  0  0  0  0  0  0  0  0  0
    8.6606  -15.6002   22.7614 C   0  0  0  0  0  0  0  0  0  0  0  0
    9.5989  -14.8117   22.4868 O   0  0  0  0  0  0  0  0  0  0  0  0
    7.9746  -11.5725   25.3109 C   0  0  0  0  0  0  0  0  0  0  0  0
    6.9196  -12.6976   25.2767 C   0  0  2  0  0  0  0  0  0  0  0  0
    5.7343  -12.1654   26.0390 C   0  0  0  0  0  0  0  0  0  0  0  0
    7.4813  -13.9580   25.8093 C   0  0  0  0  0  0  0  0  0  0  0  0
    8.6499  -14.5471   25.0627 C   0  0  2  0  0  0  0  0  0  0  0  0
    8.1172  -15.5189   24.0649 N   0  0  0  0  0  0  0  0  0  0  0  0
    9.6043  -15.3090   25.8769 C   0  0  0  0  0  0  0  0  0  0  0  0
   10.2457  -14.7366   26.8389 O   0  0  0  0  0  0  0  0  0  0  0  0
    9.9306  -16.6780   25.7402 N   0  0  0  0  0  0  0  0  0  0  0  0
   10.9890  -17.3220   26.5321 C   0  0  1  0  0  0  0  0  0  0  0  0
   10.4163  -18.3270   27.4623 C   0  0  0  0  0  0  0  0  0  0  0  0
    9.4844  -19.2625   26.7489 C   0  0  0  0  0  0  0  0  0  0  0  0
    9.0999  -20.4107   27.6305 C   0  0  0  0  0  0  0  0  0  0  0  0
    9.5419  -20.4489   28.7864 O   0  0  0  0  0  0  0  0  0  0  0  0
   11.9560  -17.8891   25.5887 C   0  0  0  0  0  0  0  0  0  0  0  0
   11.7870  -17.8377   24.3515 O   0  0  0  0  0  0  0  0  0  0  0  0
    8.2726  -21.3865   27.1400 O   0  0  0  0  0  0  0  0  0  0  0  0
   13.1086  -18.5113   26.0324 O   0  0  0  0  0  0  0  0  0  0  0  0
  2  1  1  1
  2  3  1  0
  2 10  1  0
  4  3  1  0
  4  9  2  0
  5  4  1  0
  6  5  2  0
  6  7  1  0
  7  8  2  0
  8  9  1  0
 10 11  2  0
 13 15  1  0
 13 12  1  1
 14 13  1  0
 16 15  1  1
 16 18  1  0
 17 16  1  0
 17 10  1  0
 18 19  2  0
 20 18  1  0
 20 21  1  0
 21 26  1  0
 22 23  1  0
 21 22  1  6
 24 23  1  0
 24 28  1  0
 25 24  2  0
 26 27  2  0
 26 29  1  0
M  END
$$$$
