LDC.pdb
     RDKit          3D

 23 22  0  0  1  0  0  0  0  0999 V2000
   27.6368  -20.9611   -5.8080 C   0  0  0  0  0  0  0  0  0  0  0  0
   27.9466  -20.1055   -6.9885 C   0  0  2  0  0  0  0  0  0  0  0  0
   28.1357  -18.6683   -6.4863 C   0  0  0  0  0  0  0  0  0  0  0  0
   26.9311  -20.1316   -8.0823 C   0  0  0  0  0  0  0  0  0  0  0  0
   27.1351  -21.3038   -8.9862 C   0  0  2  0  0  0  0  0  0  0  0  0
   28.5434  -21.5649   -9.1663 N   0  0  0  0  0  0  0  0  0  0  0  0
   26.4782  -21.1017  -10.3172 C   0  0  0  0  0  0  0  0  0  0  0  0
   27.1837  -21.2132  -11.3390 O   0  0  0  0  0  0  0  0  0  0  0  0
   25.1111  -20.7941  -10.4691 N   0  0  0  0  0  0  0  0  0  0  0  0
   24.4022  -21.0111  -11.7820 C   0  0  1  0  0  0  0  0  0  0  0  0
   22.9418  -21.0084  -11.4601 C   0  0  0  0  0  0  0  0  0  0  0  0
   22.0320  -21.0629  -12.5644 C   0  0  0  0  0  0  0  0  0  0  0  0
   20.9052  -20.5599  -12.7389 O   0  0  0  0  0  0  0  0  0  0  0  0
   24.8274  -19.9218  -12.6670 C   0  0  0  0  0  0  0  0  0  0  0  0
   24.7592  -18.6963  -12.2892 O   0  0  0  0  0  0  0  0  0  0  0  0
   22.4757  -21.8314  -13.6875 O   0  0  0  0  0  0  0  0  0  0  0  0
   25.3412  -20.0942  -13.9648 N   0  0  0  0  0  0  0  0  0  0  0  0
   25.6140  -18.9585  -14.8460 C   0  0  1  0  0  0  0  0  0  0  0  0
   27.0633  -19.0224  -15.2250 C   0  0  0  0  0  0  0  0  0  0  0  0
   27.5438  -17.7158  -16.3628 S   0  0  0  0  0  0  0  0  0  0  0  0
   24.7680  -19.1120  -16.0743 C   0  0  0  0  0  0  0  0  0  0  0  0
   24.2240  -18.0170  -16.7218 O   0  0  0  0  0  0  0  0  0  0  0  0
   24.5286  -20.2592  -16.5535 O   0  0  0  0  0  0  0  0  0  0  0  0
  2  1  1  1
  2  3  1  0
  4  2  1  0
  5  4  1  0
  5  7  1  0
  5  6  1  6
  7  9  1  0
  7  8  2  0
  9 10  1  0
 10 11  1  1
 12 11  1  0
 12 16  1  0
 13 12  2  0
 14 17  1  0
 14 10  1  0
 15 14  2  0
 18 21  1  0
 18 17  1  0
 18 19  1  6
 20 19  1  0
 21 22  1  0
 23 21  2  0
M  END
$$$$
