LDC.pdb
     RDKit          3D

 23 22  0  0  1  0  0  0  0  0999 V2000
   26.3469  -12.7614  -14.7488 C   0  0  0  0  0  0  0  0  0  0  0  0
   26.4499  -12.2348  -16.1394 C   0  0  2  0  0  0  0  0  0  0  0  0
   27.8362  -11.5964  -16.2951 C   0  0  0  0  0  0  0  0  0  0  0  0
   25.3933  -11.2566  -16.5335 C   0  0  0  0  0  0  0  0  0  0  0  0
   24.0265  -11.8401  -16.3782 C   0  0  2  0  0  0  0  0  0  0  0  0
   23.8382  -12.9390  -17.2952 N   0  0  0  0  0  0  0  0  0  0  0  0
   22.9558  -10.8130  -16.5840 C   0  0  0  0  0  0  0  0  0  0  0  0
   22.7150  -10.4469  -17.7512 O   0  0  0  0  0  0  0  0  0  0  0  0
   22.2127  -10.2446  -15.5298 N   0  0  0  0  0  0  0  0  0  0  0  0
   21.1736   -9.1834  -15.7892 C   0  0  1  0  0  0  0  0  0  0  0  0
   19.8736   -9.7694  -15.3385 C   0  0  0  0  0  0  0  0  0  0  0  0
   18.7172   -8.9292  -15.4226 C   0  0  0  0  0  0  0  0  0  0  0  0
   17.8718   -8.5908  -14.5718 O   0  0  0  0  0  0  0  0  0  0  0  0
   21.5953   -7.9981  -15.0356 C   0  0  0  0  0  0  0  0  0  0  0  0
   21.8791   -8.0744  -13.7854 O   0  0  0  0  0  0  0  0  0  0  0  0
   18.4639   -8.3614  -16.7118 O   0  0  0  0  0  0  0  0  0  0  0  0
   21.7363   -6.7083  -15.5782 N   0  0  0  0  0  0  0  0  0  0  0  0
   22.0425   -5.5468  -14.7429 C   0  0  1  0  0  0  0  0  0  0  0  0
   22.8096   -4.5751  -15.5888 C   0  0  0  0  0  0  0  0  0  0  0  0
   23.1328   -3.0209  -14.7448 S   0  0  0  0  0  0  0  0  0  0  0  0
   20.7451   -4.9263  -14.3191 C   0  0  0  0  0  0  0  0  0  0  0  0
   19.6559   -4.8698  -15.1704 O   0  0  0  0  0  0  0  0  0  0  0  0
   20.6136   -4.4342  -13.1599 O   0  0  0  0  0  0  0  0  0  0  0  0
  2  1  1  1
  2  3  1  0
  4  2  1  0
  5  4  1  0
  5  7  1  0
  5  6  1  6
  7  9  1  0
  7  8  2  0
  9 10  1  0
 10 11  1  1
 12 11  1  0
 12 16  1  0
 13 12  2  0
 14 17  1  0
 14 10  1  0
 15 14  2  0
 18 21  1  0
 18 17  1  0
 18 19  1  6
 20 19  1  0
 21 22  1  0
 23 21  2  0
M  END
$$$$
