LDC.pdb
     RDKit          3D

 23 22  0  0  1  0  0  0  0  0999 V2000
   26.2440  -14.1915  -15.2805 C   0  0  0  0  0  0  0  0  0  0  0  0
   26.7853  -13.0102  -16.0108 C   0  0  2  0  0  0  0  0  0  0  0  0
   27.9997  -12.4942  -15.2282 C   0  0  0  0  0  0  0  0  0  0  0  0
   25.8161  -11.8974  -16.2358 C   0  0  0  0  0  0  0  0  0  0  0  0
   24.6718  -12.3370  -17.0903 C   0  0  2  0  0  0  0  0  0  0  0  0
   25.1350  -12.7014  -18.4080 N   0  0  0  0  0  0  0  0  0  0  0  0
   23.6157  -11.2798  -17.1936 C   0  0  0  0  0  0  0  0  0  0  0  0
   23.7949  -10.3536  -18.0086 O   0  0  0  0  0  0  0  0  0  0  0  0
   22.4375  -11.2815  -16.4199 N   0  0  0  0  0  0  0  0  0  0  0  0
   21.3778  -10.2255  -16.6069 C   0  0  1  0  0  0  0  0  0  0  0  0
   20.0748  -10.9039  -16.3274 C   0  0  0  0  0  0  0  0  0  0  0  0
   18.8929  -10.0990  -16.4025 C   0  0  0  0  0  0  0  0  0  0  0  0
   18.6867   -8.9675  -16.8823 O   0  0  0  0  0  0  0  0  0  0  0  0
   21.7057   -9.1406  -15.6762 C   0  0  0  0  0  0  0  0  0  0  0  0
   22.0534   -9.3893  -14.4651 O   0  0  0  0  0  0  0  0  0  0  0  0
   17.7179  -10.6792  -15.8266 O   0  0  0  0  0  0  0  0  0  0  0  0
   21.6841   -7.7716  -15.9972 N   0  0  0  0  0  0  0  0  0  0  0  0
   22.0338   -6.7418  -15.0183 C   0  0  1  0  0  0  0  0  0  0  0  0
   22.9289   -5.7546  -15.7056 C   0  0  0  0  0  0  0  0  0  0  0  0
   23.2702   -4.3050  -14.6983 S   0  0  0  0  0  0  0  0  0  0  0  0
   20.7687   -6.0590  -14.5927 C   0  0  0  0  0  0  0  0  0  0  0  0
   20.6242   -5.5243  -13.3248 O   0  0  0  0  0  0  0  0  0  0  0  0
   19.7921   -5.9541  -15.3916 O   0  0  0  0  0  0  0  0  0  0  0  0
  2  1  1  1
  2  3  1  0
  4  2  1  0
  5  4  1  0
  5  7  1  0
  5  6  1  6
  7  9  1  0
  7  8  2  0
  9 10  1  0
 10 11  1  1
 12 11  1  0
 12 16  1  0
 13 12  2  0
 14 17  1  0
 14 10  1  0
 15 14  2  0
 18 21  1  0
 18 17  1  0
 18 19  1  6
 20 19  1  0
 21 22  1  0
 23 21  2  0
M  END
$$$$
