LDC.pdb
     RDKit          3D

 23 22  0  0  1  0  0  0  0  0999 V2000
   27.0736  -13.4628  -15.2343 C   0  0  0  0  0  0  0  0  0  0  0  0
   27.2562  -12.5770  -16.4191 C   0  0  2  0  0  0  0  0  0  0  0  0
   28.6524  -11.9487  -16.3211 C   0  0  0  0  0  0  0  0  0  0  0  0
   26.2283  -11.5070  -16.5830 C   0  0  0  0  0  0  0  0  0  0  0  0
   24.8697  -12.0875  -16.8065 C   0  0  2  0  0  0  0  0  0  0  0  0
   24.8730  -12.9531  -17.9617 N   0  0  0  0  0  0  0  0  0  0  0  0
   23.8289  -11.0225  -16.9684 C   0  0  0  0  0  0  0  0  0  0  0  0
   23.7863  -10.4081  -18.0524 O   0  0  0  0  0  0  0  0  0  0  0  0
   22.9018  -10.6839  -15.9620 N   0  0  0  0  0  0  0  0  0  0  0  0
   21.8888   -9.5867  -16.1694 C   0  0  1  0  0  0  0  0  0  0  0  0
   20.5973  -10.1206  -15.6370 C   0  0  0  0  0  0  0  0  0  0  0  0
   19.9826  -11.1864  -16.3694 C   0  0  0  0  0  0  0  0  0  0  0  0
   19.6687  -11.2970  -17.5704 O   0  0  0  0  0  0  0  0  0  0  0  0
   22.3979   -8.4126  -15.4532 C   0  0  0  0  0  0  0  0  0  0  0  0
   22.9596   -8.5296  -14.3042 O   0  0  0  0  0  0  0  0  0  0  0  0
   19.6589  -12.3509  -15.6026 O   0  0  0  0  0  0  0  0  0  0  0  0
   22.3363   -7.0908  -15.9297 N   0  0  0  0  0  0  0  0  0  0  0  0
   22.8711   -5.9659  -15.1620 C   0  0  1  0  0  0  0  0  0  0  0  0
   23.3624   -4.9452  -16.1442 C   0  0  0  0  0  0  0  0  0  0  0  0
   23.9096   -3.4256  -15.3543 S   0  0  0  0  0  0  0  0  0  0  0  0
   21.7513   -5.3838  -14.3526 C   0  0  0  0  0  0  0  0  0  0  0  0
   21.9818   -4.7568  -13.1410 O   0  0  0  0  0  0  0  0  0  0  0  0
   20.5555   -5.4526  -14.7628 O   0  0  0  0  0  0  0  0  0  0  0  0
  2  1  1  1
  2  3  1  0
  4  2  1  0
  5  4  1  0
  5  7  1  0
  5  6  1  6
  7  9  1  0
  7  8  2  0
  9 10  1  0
 10 11  1  1
 12 11  1  0
 12 16  1  0
 13 12  2  0
 14 17  1  0
 14 10  1  0
 15 14  2  0
 18 21  1  0
 18 17  1  0
 18 19  1  6
 20 19  1  0
 21 22  1  0
 23 21  2  0
M  END
$$$$
