LDC.pdb
     RDKit          3D

 23 22  0  0  1  0  0  0  0  0999 V2000
   15.5700  -12.1770  -15.6990 C   0  0  0  0  0  0  0  0  0  0  0  0
   16.7354  -12.6042  -14.8737 C   0  0  2  0  0  0  0  0  0  0  0  0
   16.2689  -12.6854  -13.4145 C   0  0  0  0  0  0  0  0  0  0  0  0
   17.9437  -11.7333  -14.9727 C   0  0  0  0  0  0  0  0  0  0  0  0
   18.4590  -11.6752  -16.3741 C   0  0  2  0  0  0  0  0  0  0  0  0
   19.2311  -12.8562  -16.6787 N   0  0  0  0  0  0  0  0  0  0  0  0
   19.2848  -10.4485  -16.6134 C   0  0  0  0  0  0  0  0  0  0  0  0
   20.4860  -10.4798  -16.2812 O   0  0  0  0  0  0  0  0  0  0  0  0
   18.7733   -9.2693  -17.1918 N   0  0  0  0  0  0  0  0  0  0  0  0
   19.6614   -8.0804  -17.4585 C   0  0  1  0  0  0  0  0  0  0  0  0
   18.9933   -7.3121  -18.5538 C   0  0  0  0  0  0  0  0  0  0  0  0
   19.0488   -7.8736  -19.8698 C   0  0  0  0  0  0  0  0  0  0  0  0
   18.1597   -8.1141  -20.7092 O   0  0  0  0  0  0  0  0  0  0  0  0
   19.7706   -7.3526  -16.1900 C   0  0  0  0  0  0  0  0  0  0  0  0
   18.7814   -7.2929  -15.3732 O   0  0  0  0  0  0  0  0  0  0  0  0
   20.3560   -8.2334  -20.3286 O   0  0  0  0  0  0  0  0  0  0  0  0
   20.9222   -6.6780  -15.7465 N   0  0  0  0  0  0  0  0  0  0  0  0
   20.9627   -5.9789  -14.4618 C   0  0  1  0  0  0  0  0  0  0  0  0
   22.3844   -5.9965  -13.9858 C   0  0  0  0  0  0  0  0  0  0  0  0
   22.6113   -5.1118  -12.4371 S   0  0  0  0  0  0  0  0  0  0  0  0
   20.5292   -4.5621  -14.6919 C   0  0  0  0  0  0  0  0  0  0  0  0
   19.7578   -3.8805  -13.7675 O   0  0  0  0  0  0  0  0  0  0  0  0
   20.8622   -3.9492  -15.7485 O   0  0  0  0  0  0  0  0  0  0  0  0
  2  1  1  6
  2  3  1  0
  4  2  1  0
  5  4  1  0
  5  7  1  0
  5  6  1  1
  7  9  1  0
  7  8  2  0
  9 10  1  0
 10 11  1  6
 12 11  1  0
 12 16  1  0
 13 12  2  0
 14 17  1  0
 14 10  1  0
 15 14  2  0
 18 21  1  0
 18 17  1  0
 18 19  1  6
 20 19  1  0
 21 22  1  0
 23 21  2  0
M  END
$$$$
