LDC.pdb
     RDKit          3D

 23 22  0  0  1  0  0  0  0  0999 V2000
   11.3824  -12.8797  -12.3270 C   0  0  0  0  0  0  0  0  0  0  0  0
   12.3597  -13.5679  -11.4365 C   0  0  2  0  0  0  0  0  0  0  0  0
   11.5917  -14.0873  -10.2142 C   0  0  0  0  0  0  0  0  0  0  0  0
   13.5175  -12.7365  -10.9929 C   0  0  0  0  0  0  0  0  0  0  0  0
   14.3537  -12.3051  -12.1537 C   0  0  2  0  0  0  0  0  0  0  0  0
   15.1025  -13.4212  -12.6805 N   0  0  0  0  0  0  0  0  0  0  0  0
   15.2861  -11.1921  -11.7851 C   0  0  0  0  0  0  0  0  0  0  0  0
   16.3403  -11.4873  -11.1887 O   0  0  0  0  0  0  0  0  0  0  0  0
   15.0312   -9.8371  -12.0780 N   0  0  0  0  0  0  0  0  0  0  0  0
   16.0248   -8.7602  -11.7229 C   0  0  1  0  0  0  0  0  0  0  0  0
   16.4793   -8.1819  -13.0249 C   0  0  0  0  0  0  0  0  0  0  0  0
   17.3362   -7.0363  -12.9643 C   0  0  0  0  0  0  0  0  0  0  0  0
   17.3742   -5.9898  -13.6400 O   0  0  0  0  0  0  0  0  0  0  0  0
   15.3165   -7.8130  -10.8558 C   0  0  0  0  0  0  0  0  0  0  0  0
   14.1444   -7.3852  -11.1603 O   0  0  0  0  0  0  0  0  0  0  0  0
   18.3436   -7.0767  -11.9483 O   0  0  0  0  0  0  0  0  0  0  0  0
   15.8182   -7.2999   -9.6464 N   0  0  0  0  0  0  0  0  0  0  0  0
   15.0922   -6.2919   -8.8733 C   0  0  1  0  0  0  0  0  0  0  0  0
   15.4519   -6.4874   -7.4309 C   0  0  0  0  0  0  0  0  0  0  0  0
   14.5209   -5.4140   -6.3293 S   0  0  0  0  0  0  0  0  0  0  0  0
   15.5549   -4.9395   -9.3259 C   0  0  0  0  0  0  0  0  0  0  0  0
   14.7108   -3.8433   -9.3163 O   0  0  0  0  0  0  0  0  0  0  0  0
   16.7416   -4.7663   -9.7318 O   0  0  0  0  0  0  0  0  0  0  0  0
  2  1  1  6
  2  3  1  0
  4  2  1  0
  5  4  1  0
  5  7  1  0
  5  6  1  1
  7  9  1  0
  7  8  2  0
  9 10  1  0
 10 11  1  6
 12 11  1  0
 12 16  1  0
 13 12  2  0
 14 17  1  0
 14 10  1  0
 15 14  2  0
 18 21  1  0
 18 17  1  0
 18 19  1  1
 20 19  1  0
 21 22  1  0
 23 21  2  0
M  END
$$$$
