LDC.pdb
     RDKit          3D

 23 22  0  0  1  0  0  0  0  0999 V2000
   25.6673  -13.1547  -15.1983 C   0  0  0  0  0  0  0  0  0  0  0  0
   25.1052  -14.0535  -16.2461 C   0  0  2  0  0  0  0  0  0  0  0  0
   23.8038  -13.4202  -16.7548 C   0  0  0  0  0  0  0  0  0  0  0  0
   24.8506  -15.4596  -15.8142 C   0  0  0  0  0  0  0  0  0  0  0  0
   26.0804  -16.0828  -15.2380 C   0  0  2  0  0  0  0  0  0  0  0  0
   27.2107  -15.8730  -16.1112 N   0  0  0  0  0  0  0  0  0  0  0  0
   25.8957  -17.5474  -14.9836 C   0  0  0  0  0  0  0  0  0  0  0  0
   24.7317  -17.9752  -14.8558 O   0  0  0  0  0  0  0  0  0  0  0  0
   26.9663  -18.4587  -14.8828 N   0  0  0  0  0  0  0  0  0  0  0  0
   26.7274  -19.9136  -14.5678 C   0  0  1  0  0  0  0  0  0  0  0  0
   27.6934  -20.6768  -15.4168 C   0  0  0  0  0  0  0  0  0  0  0  0
   27.6954  -22.1020  -15.2794 C   0  0  0  0  0  0  0  0  0  0  0  0
   27.0146  -22.8701  -14.5726 O   0  0  0  0  0  0  0  0  0  0  0  0
   26.9410  -20.0652  -13.1248 C   0  0  0  0  0  0  0  0  0  0  0  0
   28.1018  -19.8877  -12.6048 O   0  0  0  0  0  0  0  0  0  0  0  0
   28.6466  -22.7955  -16.0938 O   0  0  0  0  0  0  0  0  0  0  0  0
   25.9404  -20.3983  -12.1944 N   0  0  0  0  0  0  0  0  0  0  0  0
   26.2456  -21.1040  -10.9495 C   0  0  1  0  0  0  0  0  0  0  0  0
   27.1769  -20.2356  -10.1579 C   0  0  0  0  0  0  0  0  0  0  0  0
   26.3443  -18.8377   -9.3928 S   0  0  0  0  0  0  0  0  0  0  0  0
   24.9636  -21.2835  -10.1929 C   0  0  0  0  0  0  0  0  0  0  0  0
   24.9396  -21.8491   -8.9305 O   0  0  0  0  0  0  0  0  0  0  0  0
   23.8610  -20.9180  -10.6963 O   0  0  0  0  0  0  0  0  0  0  0  0
  2  1  1  1
  2  3  1  0
  4  2  1  0
  5  4  1  0
  5  7  1  0
  5  6  1  6
  7  9  1  0
  7  8  2  0
  9 10  1  0
 10 11  1  6
 12 11  1  0
 12 16  1  0
 13 12  2  0
 14 17  1  0
 14 10  1  0
 15 14  2  0
 18 21  1  0
 18 17  1  0
 18 19  1  1
 20 19  1  0
 21 22  1  0
 23 21  2  0
M  END
$$$$
