LDC.pdb
     RDKit          3D

 23 22  0  0  1  0  0  0  0  0999 V2000
   25.1557  -10.9592  -13.9969 C   0  0  0  0  0  0  0  0  0  0  0  0
   25.4657  -10.7892  -15.4449 C   0  0  2  0  0  0  0  0  0  0  0  0
   26.9204  -10.3152  -15.5580 C   0  0  0  0  0  0  0  0  0  0  0  0
   24.5682   -9.8549  -16.1865 C   0  0  0  0  0  0  0  0  0  0  0  0
   23.1485  -10.3194  -16.1486 C   0  0  2  0  0  0  0  0  0  0  0  0
   23.0027  -11.5607  -16.8709 N   0  0  0  0  0  0  0  0  0  0  0  0
   22.2112   -9.2914  -16.7041 C   0  0  0  0  0  0  0  0  0  0  0  0
   22.2401   -9.0783  -17.9321 O   0  0  0  0  0  0  0  0  0  0  0  0
   21.3046   -8.5588  -15.9115 N   0  0  0  0  0  0  0  0  0  0  0  0
   20.3633   -7.5543  -16.5264 C   0  0  1  0  0  0  0  0  0  0  0  0
   19.0126   -7.8678  -15.9662 C   0  0  0  0  0  0  0  0  0  0  0  0
   17.9335   -7.0088  -16.3505 C   0  0  0  0  0  0  0  0  0  0  0  0
   17.0874   -6.3860  -15.6801 O   0  0  0  0  0  0  0  0  0  0  0  0
   20.8757   -6.2296  -16.1615 C   0  0  0  0  0  0  0  0  0  0  0  0
   21.3660   -6.0070  -14.9956 O   0  0  0  0  0  0  0  0  0  0  0  0
   17.7766   -6.8136  -17.7598 O   0  0  0  0  0  0  0  0  0  0  0  0
   20.8927   -5.1112  -17.0140 N   0  0  0  0  0  0  0  0  0  0  0  0
   21.4343   -3.8208  -16.5868 C   0  0  1  0  0  0  0  0  0  0  0  0
   22.4863   -3.4248  -17.5790 C   0  0  0  0  0  0  0  0  0  0  0  0
   23.1315   -1.7722  -17.2876 S   0  0  0  0  0  0  0  0  0  0  0  0
   20.3190   -2.8191  -16.6128 C   0  0  0  0  0  0  0  0  0  0  0  0
   20.2758   -1.7586  -15.7254 O   0  0  0  0  0  0  0  0  0  0  0  0
   19.3803   -2.9208  -17.4562 O   0  0  0  0  0  0  0  0  0  0  0  0
  2  1  1  1
  2  3  1  0
  4  2  1  0
  5  4  1  0
  5  7  1  0
  5  6  1  6
  7  9  1  0
  7  8  2  0
  9 10  1  0
 10 11  1  1
 12 11  1  0
 12 16  1  0
 13 12  2  0
 14 17  1  0
 14 10  1  0
 15 14  2  0
 18 21  1  0
 18 17  1  0
 18 19  1  6
 20 19  1  0
 21 22  1  0
 23 21  2  0
M  END
$$$$
