LDC.pdb
     RDKit          3D

 23 22  0  0  1  0  0  0  0  0999 V2000
   27.6745  -14.5030  -16.1701 C   0  0  0  0  0  0  0  0  0  0  0  0
   27.8057  -13.5207  -17.2834 C   0  0  2  0  0  0  0  0  0  0  0  0
   29.3025  -13.3032  -17.5397 C   0  0  0  0  0  0  0  0  0  0  0  0
   27.1326  -12.2070  -17.0608 C   0  0  0  0  0  0  0  0  0  0  0  0
   25.6565  -12.3727  -16.8979 C   0  0  2  0  0  0  0  0  0  0  0  0
   25.1455  -13.3250  -17.8549 N   0  0  0  0  0  0  0  0  0  0  0  0
   24.9312  -11.0693  -17.0361 C   0  0  0  0  0  0  0  0  0  0  0  0
   25.3543  -10.0942  -16.3846 O   0  0  0  0  0  0  0  0  0  0  0  0
   23.8021  -10.8932  -17.8612 N   0  0  0  0  0  0  0  0  0  0  0  0
   23.1521   -9.5420  -18.0187 C   0  0  1  0  0  0  0  0  0  0  0  0
   22.5546   -9.5363  -19.3896 C   0  0  0  0  0  0  0  0  0  0  0  0
   21.7809   -8.3890  -19.7574 C   0  0  0  0  0  0  0  0  0  0  0  0
   20.8417   -8.2432  -20.5635 O   0  0  0  0  0  0  0  0  0  0  0  0
   22.1733   -9.4244  -16.9330 C   0  0  0  0  0  0  0  0  0  0  0  0
   21.4272  -10.4165  -16.6033 O   0  0  0  0  0  0  0  0  0  0  0  0
   22.1321   -7.1725  -19.0899 O   0  0  0  0  0  0  0  0  0  0  0  0
   21.9610   -8.2665  -16.1636 N   0  0  0  0  0  0  0  0  0  0  0  0
   20.9573   -8.2175  -15.1001 C   0  0  1  0  0  0  0  0  0  0  0  0
   21.6083   -8.7168  -13.8451 C   0  0  0  0  0  0  0  0  0  0  0  0
   20.5105   -8.6631  -12.4223 S   0  0  0  0  0  0  0  0  0  0  0  0
   20.5469   -6.7872  -14.9164 C   0  0  0  0  0  0  0  0  0  0  0  0
   19.3455   -6.4483  -14.3197 O   0  0  0  0  0  0  0  0  0  0  0  0
   21.2976   -5.8455  -15.3070 O   0  0  0  0  0  0  0  0  0  0  0  0
  2  1  1  1
  2  3  1  0
  4  2  1  0
  5  4  1  0
  5  7  1  0
  5  6  1  6
  7  9  1  0
  7  8  2  0
  9 10  1  0
 10 11  1  6
 12 11  1  0
 12 16  1  0
 13 12  2  0
 14 17  1  0
 14 10  1  0
 15 14  2  0
 18 21  1  0
 18 17  1  0
 18 19  1  1
 20 19  1  0
 21 22  1  0
 23 21  2  0
M  END
$$$$
