LDC.pdb
     RDKit          3D

 23 22  0  0  1  0  0  0  0  0999 V2000
   30.2991  -22.3734  -12.6947 C   0  0  0  0  0  0  0  0  0  0  0  0
   30.3518  -20.8856  -12.7676 C   0  0  2  0  0  0  0  0  0  0  0  0
   30.7614  -20.3650  -11.3839 C   0  0  0  0  0  0  0  0  0  0  0  0
   29.0895  -20.2209  -13.2070 C   0  0  0  0  0  0  0  0  0  0  0  0
   28.7034  -20.6445  -14.5870 C   0  0  2  0  0  0  0  0  0  0  0  0
   29.3264  -19.7915  -15.5709 N   0  0  0  0  0  0  0  0  0  0  0  0
   27.2174  -20.6417  -14.7750 C   0  0  0  0  0  0  0  0  0  0  0  0
   26.6434  -19.5391  -14.8712 O   0  0  0  0  0  0  0  0  0  0  0  0
   26.4421  -21.8166  -14.8482 N   0  0  0  0  0  0  0  0  0  0  0  0
   24.9424  -21.7560  -14.9912 C   0  0  1  0  0  0  0  0  0  0  0  0
   24.5989  -22.7236  -16.0785 C   0  0  0  0  0  0  0  0  0  0  0  0
   25.2227  -22.5206  -17.3512 C   0  0  0  0  0  0  0  0  0  0  0  0
   25.8754  -23.2845  -18.0885 O   0  0  0  0  0  0  0  0  0  0  0  0
   24.3872  -22.1008  -13.6784 C   0  0  0  0  0  0  0  0  0  0  0  0
   23.5719  -23.0835  -13.5413 O   0  0  0  0  0  0  0  0  0  0  0  0
   25.0856  -21.2052  -17.8988 O   0  0  0  0  0  0  0  0  0  0  0  0
   24.6810  -21.4275  -12.4791 N   0  0  0  0  0  0  0  0  0  0  0  0
   23.9215  -21.6667  -11.2516 C   0  0  1  0  0  0  0  0  0  0  0  0
   24.8193  -21.3373  -10.0968 C   0  0  0  0  0  0  0  0  0  0  0  0
   25.0381  -19.5675   -9.8676 S   0  0  0  0  0  0  0  0  0  0  0  0
   22.7422  -20.7409  -11.2490 C   0  0  0  0  0  0  0  0  0  0  0  0
   21.6788  -20.9233  -10.3830 O   0  0  0  0  0  0  0  0  0  0  0  0
   22.6907  -19.7598  -12.0476 O   0  0  0  0  0  0  0  0  0  0  0  0
  2  1  1  1
  2  3  1  0
  4  2  1  0
  5  4  1  0
  5  7  1  0
  5  6  1  6
  7  9  1  0
  7  8  2  0
  9 10  1  0
 10 11  1  6
 12 11  1  0
 12 16  1  0
 13 12  2  0
 14 17  1  0
 14 10  1  0
 15 14  2  0
 18 21  1  0
 18 17  1  0
 18 19  1  1
 20 19  1  0
 21 22  1  0
 23 21  2  0
M  END
$$$$
