LDC.pdb
     RDKit          3D

 23 22  0  0  1  0  0  0  0  0999 V2000
   14.9352  -11.3966  -34.1525 C   0  0  0  0  0  0  0  0  0  0  0  0
   13.7863  -10.5902  -33.6510 C   0  0  2  0  0  0  0  0  0  0  0  0
   13.6320  -10.8796  -32.1523 C   0  0  0  0  0  0  0  0  0  0  0  0
   12.4876  -10.8226  -34.3493 C   0  0  0  0  0  0  0  0  0  0  0  0
   12.5107  -10.2725  -35.7384 C   0  0  2  0  0  0  0  0  0  0  0  0
   13.3561  -11.0775  -36.5875 N   0  0  0  0  0  0  0  0  0  0  0  0
   12.9686   -8.8465  -35.7650 C   0  0  0  0  0  0  0  0  0  0  0  0
   13.4731   -8.3761  -34.7264 O   0  0  0  0  0  0  0  0  0  0  0  0
   12.8578   -8.0168  -36.8990 N   0  0  0  0  0  0  0  0  0  0  0  0
   11.5182   -7.7251  -37.5264 C   0  0  1  0  0  0  0  0  0  0  0  0
   10.9755   -6.5405  -36.7926 C   0  0  0  0  0  0  0  0  0  0  0  0
    9.9374   -6.7863  -35.8375 C   0  0  0  0  0  0  0  0  0  0  0  0
    9.6770   -7.7782  -35.1295 O   0  0  0  0  0  0  0  0  0  0  0  0
   11.7712   -7.4888  -38.9515 C   0  0  0  0  0  0  0  0  0  0  0  0
   12.5778   -6.5668  -39.3371 O   0  0  0  0  0  0  0  0  0  0  0  0
    9.0156   -5.7088  -35.6424 O   0  0  0  0  0  0  0  0  0  0  0  0
   11.1901   -8.2194  -40.0033 N   0  0  0  0  0  0  0  0  0  0  0  0
   11.8240   -9.4165  -40.5564 C   0  0  1  0  0  0  0  0  0  0  0  0
   10.9910  -10.5947  -40.1489 C   0  0  0  0  0  0  0  0  0  0  0  0
   11.8431  -12.1616  -40.3748 S   0  0  0  0  0  0  0  0  0  0  0  0
   11.8207   -9.2938  -42.0507 C   0  0  0  0  0  0  0  0  0  0  0  0
   10.7090   -8.8412  -42.7388 O   0  0  0  0  0  0  0  0  0  0  0  0
   12.8458   -9.6044  -42.7257 O   0  0  0  0  0  0  0  0  0  0  0  0
  2  1  1  6
  2  3  1  0
  4  2  1  0
  5  4  1  0
  5  7  1  0
  5  6  1  6
  7  9  1  0
  7  8  2  0
  9 10  1  0
 10 11  1  1
 12 11  1  0
 12 16  1  0
 13 12  2  0
 14 17  1  0
 14 10  1  0
 15 14  2  0
 18 21  1  0
 18 17  1  0
 18 19  1  6
 20 19  1  0
 21 22  1  0
 23 21  2  0
M  END
$$$$
