LDC.pdb
     RDKit          3D

 23 22  0  0  1  0  0  0  0  0999 V2000
   11.3853  -12.2885  -12.1553 C   0  0  0  0  0  0  0  0  0  0  0  0
   12.2089  -13.0059  -11.1410 C   0  0  2  0  0  0  0  0  0  0  0  0
   11.3018  -13.3273   -9.9462 C   0  0  0  0  0  0  0  0  0  0  0  0
   13.4256  -12.2783  -10.6734 C   0  0  0  0  0  0  0  0  0  0  0  0
   14.3694  -12.0154  -11.8016 C   0  0  2  0  0  0  0  0  0  0  0  0
   15.0170  -13.2376  -12.2148 N   0  0  0  0  0  0  0  0  0  0  0  0
   15.3982  -10.9888  -11.4393 C   0  0  0  0  0  0  0  0  0  0  0  0
   16.3341  -11.3384  -10.6935 O   0  0  0  0  0  0  0  0  0  0  0  0
   15.3599   -9.6563  -11.8974 N   0  0  0  0  0  0  0  0  0  0  0  0
   16.4397   -8.6712  -11.5279 C   0  0  1  0  0  0  0  0  0  0  0  0
   17.1211   -8.3156  -12.8107 C   0  0  0  0  0  0  0  0  0  0  0  0
   18.1509   -7.3228  -12.7471 C   0  0  0  0  0  0  0  0  0  0  0  0
   19.1482   -7.2056  -12.0090 O   0  0  0  0  0  0  0  0  0  0  0  0
   15.7666   -7.5467  -10.8697 C   0  0  0  0  0  0  0  0  0  0  0  0
   14.7209   -7.0075  -11.3845 O   0  0  0  0  0  0  0  0  0  0  0  0
   18.0358   -6.2576  -13.6962 O   0  0  0  0  0  0  0  0  0  0  0  0
   16.1706   -6.9682   -9.6532 N   0  0  0  0  0  0  0  0  0  0  0  0
   15.4235   -5.8751   -9.0306 C   0  0  1  0  0  0  0  0  0  0  0  0
   15.5848   -6.0095   -7.5460 C   0  0  0  0  0  0  0  0  0  0  0  0
   14.4361   -7.1898   -6.8248 S   0  0  0  0  0  0  0  0  0  0  0  0
   16.0306   -4.5817   -9.4851 C   0  0  0  0  0  0  0  0  0  0  0  0
   15.4058   -3.3682   -9.2589 O   0  0  0  0  0  0  0  0  0  0  0  0
   17.1411   -4.5689  -10.0931 O   0  0  0  0  0  0  0  0  0  0  0  0
  2  1  1  6
  2  3  1  0
  4  2  1  0
  5  4  1  0
  5  7  1  0
  5  6  1  1
  7  9  1  0
  7  8  2  0
  9 10  1  0
 10 11  1  6
 12 11  1  0
 12 16  1  0
 13 12  2  0
 14 17  1  0
 14 10  1  0
 15 14  2  0
 18 21  1  0
 18 17  1  0
 18 19  1  1
 20 19  1  0
 21 22  1  0
 23 21  2  0
M  END
$$$$
