LDC.pdb
     RDKit          3D

 23 22  0  0  1  0  0  0  0  0999 V2000
   27.6563  -11.0915  -15.4797 C   0  0  0  0  0  0  0  0  0  0  0  0
   26.4396  -10.8934  -16.3177 C   0  0  2  0  0  0  0  0  0  0  0  0
   26.3725   -9.4090  -16.6993 C   0  0  0  0  0  0  0  0  0  0  0  0
   25.1531  -11.3144  -15.6882 C   0  0  0  0  0  0  0  0  0  0  0  0
   24.1355  -11.6771  -16.7204 C   0  0  2  0  0  0  0  0  0  0  0  0
   24.7789  -12.0260  -17.9647 N   0  0  0  0  0  0  0  0  0  0  0  0
   23.1521  -10.5700  -16.9461 C   0  0  0  0  0  0  0  0  0  0  0  0
   23.3884   -9.7571  -17.8614 O   0  0  0  0  0  0  0  0  0  0  0  0
   21.9810  -10.4039  -16.1795 N   0  0  0  0  0  0  0  0  0  0  0  0
   21.0267   -9.2674  -16.4460 C   0  0  1  0  0  0  0  0  0  0  0  0
   19.6578   -9.8250  -16.2190 C   0  0  0  0  0  0  0  0  0  0  0  0
   18.5531   -8.9331  -16.4041 C   0  0  0  0  0  0  0  0  0  0  0  0
   17.8472   -8.3043  -15.5921 O   0  0  0  0  0  0  0  0  0  0  0  0
   21.3999   -8.1890  -15.5249 C   0  0  0  0  0  0  0  0  0  0  0  0
   21.7877   -8.4450  -14.3277 O   0  0  0  0  0  0  0  0  0  0  0  0
   18.1692   -8.7059  -17.7642 O   0  0  0  0  0  0  0  0  0  0  0  0
   21.3824   -6.8189  -15.8417 N   0  0  0  0  0  0  0  0  0  0  0  0
   21.7288   -5.7929  -14.8577 C   0  0  1  0  0  0  0  0  0  0  0  0
   22.8349   -4.9660  -15.4417 C   0  0  0  0  0  0  0  0  0  0  0  0
   23.3118   -3.5934  -14.3830 S   0  0  0  0  0  0  0  0  0  0  0  0
   20.5205   -4.9319  -14.6417 C   0  0  0  0  0  0  0  0  0  0  0  0
   20.3113   -4.2614  -13.4498 O   0  0  0  0  0  0  0  0  0  0  0  0
   19.6535   -4.7965  -15.5544 O   0  0  0  0  0  0  0  0  0  0  0  0
  2  1  1  1
  2  3  1  0
  4  2  1  0
  5  4  1  0
  5  7  1  0
  5  6  1  6
  7  9  1  0
  7  8  2  0
  9 10  1  0
 10 11  1  1
 12 11  1  0
 12 16  1  0
 13 12  2  0
 14 17  1  0
 14 10  1  0
 15 14  2  0
 18 21  1  0
 18 17  1  0
 18 19  1  6
 20 19  1  0
 21 22  1  0
 23 21  2  0
M  END
$$$$
