TTC.pdb
     RDKit          3D

 21 20  0  0  1  0  0  0  0  0999 V2000
   26.2694  -18.0141  -15.1702 C   0  0  0  0  0  0  0  0  0  0  0  0
   26.9676  -19.1263  -15.9325 C   0  0  1  0  0  0  0  0  0  0  0  0
   28.0969  -18.5659  -16.5272 O   0  0  0  0  0  0  0  0  0  0  0  0
   27.4092  -20.2178  -14.9812 C   0  0  2  0  0  0  0  0  0  0  0  0
   28.1867  -21.1622  -15.7575 N   0  0  0  0  0  0  0  0  0  0  0  0
   26.2582  -20.9365  -14.3893 C   0  0  0  0  0  0  0  0  0  0  0  0
   25.6553  -21.8599  -14.9927 O   0  0  0  0  0  0  0  0  0  0  0  0
   26.1371  -21.6931  -10.5674 C   0  0  0  0  0  0  0  0  0  0  0  0
   24.8369  -21.0251  -10.9565 C   0  0  1  0  0  0  0  0  0  0  0  0
   24.9499  -19.6678  -10.6573 O   0  0  0  0  0  0  0  0  0  0  0  0
   24.6115  -21.1047  -12.4724 C   0  0  2  0  0  0  0  0  0  0  0  0
   25.7922  -20.5953  -13.0942 N   0  0  0  0  0  0  0  0  0  0  0  0
   23.3708  -20.4475  -12.8740 C   0  0  0  0  0  0  0  0  0  0  0  0
   23.4071  -19.2282  -13.1727 O   0  0  0  0  0  0  0  0  0  0  0  0
   22.1061  -21.0855  -12.9555 N   0  0  0  0  0  0  0  0  0  0  0  0
   20.9372  -20.3182  -13.3331 C   0  0  1  0  0  0  0  0  0  0  0  0
   20.9541  -19.9038  -14.7810 C   0  0  0  0  0  0  0  0  0  0  0  0
   21.1174  -21.4146  -15.7767 S   0  0  0  0  0  0  0  0  0  0  0  0
   19.6930  -21.1276  -13.1222 C   0  0  0  0  0  0  0  0  0  0  0  0
   19.8280  -22.4522  -12.7482 O   0  0  0  0  0  0  0  0  0  0  0  0
   18.5738  -20.6153  -13.2810 O   0  0  0  0  0  0  0  0  0  0  0  0
  2  1  1  1
  3  2  1  0
  4  2  1  0
  4  5  1  6
  4  6  1  0
  6  7  2  0
  9  8  1  6
  9 10  1  0
  9 11  1  0
 11 13  1  0
 12  6  1  0
 11 12  1  6
 13 15  1  0
 13 14  2  0
 15 16  1  0
 16 19  1  0
 16 17  1  6
 18 17  1  0
 19 20  1  0
 21 19  2  0
M  END
$$$$
