TTC.pdb
     RDKit          3D

 21 20  0  0  1  0  0  0  0  0999 V2000
   23.6835  -21.4236   -8.9383 C   0  0  0  0  0  0  0  0  0  0  0  0
   24.1357  -20.7498  -10.2217 C   0  0  1  0  0  0  0  0  0  0  0  0
   23.4659  -19.5298  -10.2991 O   0  0  0  0  0  0  0  0  0  0  0  0
   25.6256  -20.4855  -10.1791 C   0  0  2  0  0  0  0  0  0  0  0  0
   25.8832  -19.7276   -8.9715 N   0  0  0  0  0  0  0  0  0  0  0  0
   26.0800  -19.6847  -11.3382 C   0  0  0  0  0  0  0  0  0  0  0  0
   26.2092  -18.4353  -11.2875 O   0  0  0  0  0  0  0  0  0  0  0  0
   29.0587  -19.7733  -13.3751 C   0  0  0  0  0  0  0  0  0  0  0  0
   27.9550  -20.1186  -14.3501 C   0  0  1  0  0  0  0  0  0  0  0  0
   27.8842  -21.5086  -14.4374 O   0  0  0  0  0  0  0  0  0  0  0  0
   26.5903  -19.6601  -13.8188 C   0  0  2  0  0  0  0  0  0  0  0  0
   26.3898  -20.3195  -12.5678 N   0  0  0  0  0  0  0  0  0  0  0  0
   25.5276  -19.8628  -14.7998 C   0  0  0  0  0  0  0  0  0  0  0  0
   24.9380  -20.9714  -14.8253 O   0  0  0  0  0  0  0  0  0  0  0  0
   25.0998  -18.8926  -15.7425 N   0  0  0  0  0  0  0  0  0  0  0  0
   23.7460  -18.9366  -16.2551 C   0  0  1  0  0  0  0  0  0  0  0  0
   22.7109  -18.6802  -15.1915 C   0  0  0  0  0  0  0  0  0  0  0  0
   21.2321  -19.6401  -15.6299 S   0  0  0  0  0  0  0  0  0  0  0  0
   23.5562  -17.8925  -17.3139 C   0  0  0  0  0  0  0  0  0  0  0  0
   24.5408  -16.9345  -17.4741 O   0  0  0  0  0  0  0  0  0  0  0  0
   22.5390  -17.8939  -18.0249 O   0  0  0  0  0  0  0  0  0  0  0  0
  2  1  1  1
  3  2  1  0
  4  2  1  0
  4  5  1  1
  4  6  1  0
  6  7  2  0
  9  8  1  1
  9 10  1  0
  9 11  1  0
 11 13  1  0
 12  6  1  0
 11 12  1  1
 13 15  1  0
 13 14  2  0
 15 16  1  0
 16 19  1  0
 16 17  1  1
 18 17  1  0
 19 20  1  0
 21 19  2  0
M  END
$$$$
