TTC.pdb
     RDKit          3D

 21 20  0  0  1  0  0  0  0  0999 V2000
   21.3058  -21.7778  -15.0296 C   0  0  0  0  0  0  0  0  0  0  0  0
   20.6579  -21.4262  -13.7020 C   0  0  1  0  0  0  0  0  0  0  0  0
   19.5570  -22.2677  -13.5505 O   0  0  0  0  0  0  0  0  0  0  0  0
   21.6235  -21.6778  -12.5637 C   0  0  2  0  0  0  0  0  0  0  0  0
   20.8953  -21.4372  -11.3346 N   0  0  0  0  0  0  0  0  0  0  0  0
   22.7828  -20.7582  -12.6066 C   0  0  0  0  0  0  0  0  0  0  0  0
   22.7324  -19.5858  -12.1560 O   0  0  0  0  0  0  0  0  0  0  0  0
   26.0919  -21.2598  -11.1017 C   0  0  0  0  0  0  0  0  0  0  0  0
   26.3219  -21.1791  -12.5946 C   0  0  1  0  0  0  0  0  0  0  0  0
   26.2517  -22.4745  -13.1063 O   0  0  0  0  0  0  0  0  0  0  0  0
   25.1965  -20.3936  -13.2813 C   0  0  2  0  0  0  0  0  0  0  0  0
   24.0121  -21.1842  -13.1707 N   0  0  0  0  0  0  0  0  0  0  0  0
   25.5546  -20.0070  -14.6434 C   0  0  0  0  0  0  0  0  0  0  0  0
   25.2046  -20.7536  -15.5906 O   0  0  0  0  0  0  0  0  0  0  0  0
   26.2780  -18.8365  -14.9892 N   0  0  0  0  0  0  0  0  0  0  0  0
   26.5203  -18.5270  -16.3832 C   0  0  1  0  0  0  0  0  0  0  0  0
   26.4876  -17.0482  -16.6666 C   0  0  0  0  0  0  0  0  0  0  0  0
   26.8477  -16.8254  -18.4332 S   0  0  0  0  0  0  0  0  0  0  0  0
   27.8718  -19.0245  -16.7995 C   0  0  0  0  0  0  0  0  0  0  0  0
   28.0543  -19.4014  -18.1176 O   0  0  0  0  0  0  0  0  0  0  0  0
   28.7985  -19.0937  -15.9769 O   0  0  0  0  0  0  0  0  0  0  0  0
  2  1  1  6
  3  2  1  0
  4  2  1  0
  4  5  1  1
  4  6  1  0
  6  7  2  0
  9  8  1  1
  9 10  1  0
  9 11  1  0
 11 13  1  0
 12  6  1  0
 11 12  1  6
 13 15  1  0
 13 14  2  0
 15 16  1  0
 16 19  1  0
 16 17  1  1
 18 17  1  0
 19 20  1  0
 21 19  2  0
M  END
$$$$
