TTC.pdb
     RDKit          3D

 21 20  0  0  1  0  0  0  0  0999 V2000
   23.9873  -11.0974  -14.7214 C   0  0  0  0  0  0  0  0  0  0  0  0
   24.2865  -11.6572  -16.1008 C   0  0  1  0  0  0  0  0  0  0  0  0
   24.8098  -12.9360  -15.9168 O   0  0  0  0  0  0  0  0  0  0  0  0
   23.0126  -11.7644  -16.9115 C   0  0  2  0  0  0  0  0  0  0  0  0
   23.3525  -12.4564  -18.1381 N   0  0  0  0  0  0  0  0  0  0  0  0
   22.4654  -10.4344  -17.2626 C   0  0  0  0  0  0  0  0  0  0  0  0
   23.0434   -9.6556  -18.0623 O   0  0  0  0  0  0  0  0  0  0  0  0
   19.0155   -9.7061  -18.4803 C   0  0  0  0  0  0  0  0  0  0  0  0
   19.1778   -8.9228  -17.1965 C   0  0  1  0  0  0  0  0  0  0  0  0
   18.6728   -9.7020  -16.1561 O   0  0  0  0  0  0  0  0  0  0  0  0
   20.6615   -8.6999  -16.8737 C   0  0  2  0  0  0  0  0  0  0  0  0
   21.2448   -9.9911  -16.6931 N   0  0  0  0  0  0  0  0  0  0  0  0
   20.8433   -7.7794  -15.7546 C   0  0  0  0  0  0  0  0  0  0  0  0
   21.0391   -8.2577  -14.6100 O   0  0  0  0  0  0  0  0  0  0  0  0
   20.8161   -6.3646  -15.8571 N   0  0  0  0  0  0  0  0  0  0  0  0
   20.9984   -5.5544  -14.6705 C   0  0  1  0  0  0  0  0  0  0  0  0
   22.4483   -5.2812  -14.3678 C   0  0  0  0  0  0  0  0  0  0  0  0
   22.5064   -4.2519  -12.8719 S   0  0  0  0  0  0  0  0  0  0  0  0
   20.3267   -4.2249  -14.8399 C   0  0  0  0  0  0  0  0  0  0  0  0
   20.0737   -3.4695  -13.7093 O   0  0  0  0  0  0  0  0  0  0  0  0
   20.0088   -3.8190  -15.9687 O   0  0  0  0  0  0  0  0  0  0  0  0
  2  1  1  1
  3  2  1  0
  4  2  1  0
  4  5  1  6
  4  6  1  0
  6  7  2  0
  9  8  1  6
  9 10  1  0
  9 11  1  0
 11 13  1  0
 12  6  1  0
 11 12  1  1
 13 15  1  0
 13 14  2  0
 15 16  1  0
 16 19  1  0
 16 17  1  6
 18 17  1  0
 19 20  1  0
 21 19  2  0
M  END
$$$$
