TTC.pdb
     RDKit          3D

 21 20  0  0  1  0  0  0  0  0999 V2000
   19.8541  -11.9418  -15.0422 C   0  0  0  0  0  0  0  0  0  0  0  0
   18.9783  -12.4200  -16.1867 C   0  0  1  0  0  0  0  0  0  0  0  0
   18.6711  -13.7559  -15.9340 O   0  0  0  0  0  0  0  0  0  0  0  0
   17.6913  -11.6243  -16.2307 C   0  0  2  0  0  0  0  0  0  0  0  0
   16.8516  -12.2394  -17.2383 N   0  0  0  0  0  0  0  0  0  0  0  0
   17.9243  -10.2139  -16.6154 C   0  0  0  0  0  0  0  0  0  0  0  0
   18.3730   -9.8862  -17.7430 O   0  0  0  0  0  0  0  0  0  0  0  0
   15.6253   -7.5770  -17.0490 C   0  0  0  0  0  0  0  0  0  0  0  0
   16.4899   -7.0942  -15.9057 C   0  0  1  0  0  0  0  0  0  0  0  0
   15.8852   -7.4975  -14.7155 O   0  0  0  0  0  0  0  0  0  0  0  0
   17.8645   -7.7760  -15.9316 C   0  0  2  0  0  0  0  0  0  0  0  0
   17.6412   -9.1677  -15.7008 N   0  0  0  0  0  0  0  0  0  0  0  0
   18.8047   -7.1417  -15.0115 C   0  0  0  0  0  0  0  0  0  0  0  0
   18.7755   -7.4735  -13.8006 O   0  0  0  0  0  0  0  0  0  0  0  0
   19.7647   -6.1645  -15.3808 N   0  0  0  0  0  0  0  0  0  0  0  0
   20.6588   -5.6210  -14.3794 C   0  0  1  0  0  0  0  0  0  0  0  0
   22.1082   -5.9022  -14.6772 C   0  0  0  0  0  0  0  0  0  0  0  0
   23.0988   -5.0246  -13.4327 S   0  0  0  0  0  0  0  0  0  0  0  0
   20.5075   -4.1317  -14.2999 C   0  0  0  0  0  0  0  0  0  0  0  0
   20.9294   -3.4903  -13.1495 O   0  0  0  0  0  0  0  0  0  0  0  0
   20.0152   -3.4971  -15.2460 O   0  0  0  0  0  0  0  0  0  0  0  0
  2  1  1  1
  3  2  1  0
  4  2  1  0
  4  5  1  6
  4  6  1  0
  6  7  2  0
  9  8  1  6
  9 10  1  0
  9 11  1  0
 11 13  1  0
 12  6  1  0
 11 12  1  1
 13 15  1  0
 13 14  2  0
 15 16  1  0
 16 19  1  0
 16 17  1  6
 18 17  1  0
 19 20  1  0
 21 19  2  0
M  END
$$$$
