TTC.pdb
     RDKit          3D

 21 20  0  0  1  0  0  0  0  0999 V2000
   19.1766  -11.5090  -14.8299 C   0  0  0  0  0  0  0  0  0  0  0  0
   18.6839  -12.0452  -16.1623 C   0  0  1  0  0  0  0  0  0  0  0  0
   18.0597  -13.2647  -15.9049 O   0  0  0  0  0  0  0  0  0  0  0  0
   17.6702  -11.0974  -16.7671 C   0  0  2  0  0  0  0  0  0  0  0  0
   17.1315  -11.7525  -17.9417 N   0  0  0  0  0  0  0  0  0  0  0  0
   18.2880   -9.8196  -17.1877 C   0  0  0  0  0  0  0  0  0  0  0  0
   19.1238   -9.7490  -18.1240 O   0  0  0  0  0  0  0  0  0  0  0  0
   16.8963   -6.8504  -18.6279 C   0  0  0  0  0  0  0  0  0  0  0  0
   17.3990   -6.4145  -17.2695 C   0  0  1  0  0  0  0  0  0  0  0  0
   16.3561   -6.5762  -16.3581 O   0  0  0  0  0  0  0  0  0  0  0  0
   18.5295   -7.3312  -16.7829 C   0  0  2  0  0  0  0  0  0  0  0  0
   17.9461   -8.6103  -16.5307 N   0  0  0  0  0  0  0  0  0  0  0  0
   19.2541   -6.7511  -15.6554 C   0  0  0  0  0  0  0  0  0  0  0  0
   18.6426   -6.5835  -14.5714 O   0  0  0  0  0  0  0  0  0  0  0  0
   20.6162   -6.3548  -15.6859 N   0  0  0  0  0  0  0  0  0  0  0  0
   21.2405   -5.8356  -14.4866 C   0  0  1  0  0  0  0  0  0  0  0  0
   22.7246   -6.0889  -14.4451 C   0  0  0  0  0  0  0  0  0  0  0  0
   22.9670   -7.8881  -14.3782 S   0  0  0  0  0  0  0  0  0  0  0  0
   21.0452   -4.3518  -14.3989 C   0  0  0  0  0  0  0  0  0  0  0  0
   21.3718   -3.7164  -13.2147 O   0  0  0  0  0  0  0  0  0  0  0  0
   20.6014   -3.7165  -15.3682 O   0  0  0  0  0  0  0  0  0  0  0  0
  2  1  1  1
  3  2  1  0
  4  2  1  0
  4  5  1  6
  4  6  1  0
  6  7  2  0
  9  8  1  6
  9 10  1  0
  9 11  1  0
 11 13  1  0
 12  6  1  0
 11 12  1  1
 13 15  1  0
 13 14  2  0
 15 16  1  0
 16 19  1  0
 16 17  1  6
 18 17  1  0
 19 20  1  0
 21 19  2  0
M  END
$$$$
