TTC.pdb
     RDKit          3D

 21 20  0  0  1  0  0  0  0  0999 V2000
   18.1625  -11.6843  -14.9964 C   0  0  0  0  0  0  0  0  0  0  0  0
   17.5084  -11.8074  -16.3612 C   0  0  1  0  0  0  0  0  0  0  0  0
   16.8668  -13.0444  -16.3954 O   0  0  0  0  0  0  0  0  0  0  0  0
   16.4749  -10.7173  -16.5483 C   0  0  2  0  0  0  0  0  0  0  0  0
   15.7655  -11.0175  -17.7753 N   0  0  0  0  0  0  0  0  0  0  0  0
   17.0970   -9.3809  -16.6841 C   0  0  0  0  0  0  0  0  0  0  0  0
   17.8152   -9.0665  -17.6667 O   0  0  0  0  0  0  0  0  0  0  0  0
   15.3856   -6.0883  -16.5210 C   0  0  0  0  0  0  0  0  0  0  0  0
   16.3926   -6.0859  -15.3924 C   0  0  1  0  0  0  0  0  0  0  0  0
   15.7396   -6.5193  -14.2389 O   0  0  0  0  0  0  0  0  0  0  0  0
   17.5100   -7.1053  -15.6520 C   0  0  2  0  0  0  0  0  0  0  0  0
   16.8954   -8.3942  -15.6858 N   0  0  0  0  0  0  0  0  0  0  0  0
   18.6046   -6.9694  -14.6949 C   0  0  0  0  0  0  0  0  0  0  0  0
   18.6450   -7.7529  -13.7143 O   0  0  0  0  0  0  0  0  0  0  0  0
   19.6439   -6.0076  -14.7845 N   0  0  0  0  0  0  0  0  0  0  0  0
   20.7729   -6.0832  -13.8806 C   0  0  1  0  0  0  0  0  0  0  0  0
   21.5966   -7.3285  -14.0789 C   0  0  0  0  0  0  0  0  0  0  0  0
   22.9496   -7.2837  -12.8674 S   0  0  0  0  0  0  0  0  0  0  0  0
   21.6869   -4.9137  -14.0905 C   0  0  0  0  0  0  0  0  0  0  0  0
   22.4350   -4.4652  -13.0171 O   0  0  0  0  0  0  0  0  0  0  0  0
   21.7652   -4.3669  -15.2018 O   0  0  0  0  0  0  0  0  0  0  0  0
  2  1  1  1
  3  2  1  0
  4  2  1  0
  4  5  1  6
  4  6  1  0
  6  7  2  0
  9  8  1  6
  9 10  1  0
  9 11  1  0
 11 13  1  0
 12  6  1  0
 11 12  1  1
 13 15  1  0
 13 14  2  0
 15 16  1  0
 16 19  1  0
 16 17  1  6
 18 17  1  0
 19 20  1  0
 21 19  2  0
M  END
$$$$
