TTC.pdb
     RDKit          3D

 21 20  0  0  1  0  0  0  0  0999 V2000
   18.2908  -13.7531  -15.0922 C   0  0  0  0  0  0  0  0  0  0  0  0
   17.6648  -13.1362  -16.3305 C   0  0  1  0  0  0  0  0  0  0  0  0
   16.3963  -13.6972  -16.4683 O   0  0  0  0  0  0  0  0  0  0  0  0
   17.5190  -11.6397  -16.1550 C   0  0  2  0  0  0  0  0  0  0  0  0
   16.7481  -11.1578  -17.2829 N   0  0  0  0  0  0  0  0  0  0  0  0
   18.8294  -10.9509  -16.1573 C   0  0  0  0  0  0  0  0  0  0  0  0
   19.7651  -11.2760  -15.3833 O   0  0  0  0  0  0  0  0  0  0  0  0
   21.6945   -7.9471  -18.8730 C   0  0  0  0  0  0  0  0  0  0  0  0
   20.4489   -8.7764  -18.6522 C   0  0  1  0  0  0  0  0  0  0  0  0
   20.6121   -9.9797  -19.3377 O   0  0  0  0  0  0  0  0  0  0  0  0
   20.2954   -9.1523  -17.1722 C   0  0  2  0  0  0  0  0  0  0  0  0
   19.0718   -9.8796  -17.0541 N   0  0  0  0  0  0  0  0  0  0  0  0
   20.4062   -7.9865  -16.2996 C   0  0  0  0  0  0  0  0  0  0  0  0
   19.4763   -7.1425  -16.3049 O   0  0  0  0  0  0  0  0  0  0  0  0
   21.4978   -7.7256  -15.4316 N   0  0  0  0  0  0  0  0  0  0  0  0
   21.5347   -6.4916  -14.6744 C   0  0  1  0  0  0  0  0  0  0  0  0
   22.4291   -6.5755  -13.4655 C   0  0  0  0  0  0  0  0  0  0  0  0
   22.5339   -4.9087  -12.7503 S   0  0  0  0  0  0  0  0  0  0  0  0
   22.0526   -5.3728  -15.5274 C   0  0  0  0  0  0  0  0  0  0  0  0
   21.3541   -4.1791  -15.5382 O   0  0  0  0  0  0  0  0  0  0  0  0
   23.0824   -5.5212  -16.2039 O   0  0  0  0  0  0  0  0  0  0  0  0
  2  1  1  1
  3  2  1  0
  4  2  1  0
  4  5  1  6
  4  6  1  0
  6  7  2  0
  9  8  1  1
  9 10  1  0
  9 11  1  0
 11 13  1  0
 12  6  1  0
 11 12  1  6
 13 15  1  0
 13 14  2  0
 15 16  1  0
 16 19  1  0
 16 17  1  1
 18 17  1  0
 19 20  1  0
 21 19  2  0
M  END
$$$$
