TTC.pdb
     RDKit          3D

 21 20  0  0  1  0  0  0  0  0999 V2000
   15.7158   -9.9462  -17.2200 C   0  0  0  0  0  0  0  0  0  0  0  0
   15.7360  -10.9897  -16.1170 C   0  0  1  0  0  0  0  0  0  0  0  0
   15.1641  -12.1477  -16.6413 O   0  0  0  0  0  0  0  0  0  0  0  0
   17.1613  -11.2929  -15.7073 C   0  0  2  0  0  0  0  0  0  0  0  0
   17.0991  -12.3604  -14.7298 N   0  0  0  0  0  0  0  0  0  0  0  0
   17.8185  -10.1240  -15.0801 C   0  0  0  0  0  0  0  0  0  0  0  0
   17.4576   -9.6618  -13.9682 O   0  0  0  0  0  0  0  0  0  0  0  0
   21.8323   -7.2234  -15.2549 C   0  0  0  0  0  0  0  0  0  0  0  0
   21.0549   -8.4767  -15.5910 C   0  0  1  0  0  0  0  0  0  0  0  0
   21.5064   -9.4950  -14.7520 O   0  0  0  0  0  0  0  0  0  0  0  0
   19.5641   -8.2992  -15.2731 C   0  0  2  0  0  0  0  0  0  0  0  0
   18.8995   -9.4774  -15.7315 N   0  0  0  0  0  0  0  0  0  0  0  0
   19.0381   -7.0467  -15.8093 C   0  0  0  0  0  0  0  0  0  0  0  0
   18.9677   -6.9102  -17.0558 O   0  0  0  0  0  0  0  0  0  0  0  0
   18.5925   -5.9530  -15.0230 N   0  0  0  0  0  0  0  0  0  0  0  0
   18.0403   -4.7807  -15.6698 C   0  0  1  0  0  0  0  0  0  0  0  0
   16.7509   -4.3208  -15.0417 C   0  0  0  0  0  0  0  0  0  0  0  0
   15.5023   -5.6001  -15.3654 S   0  0  0  0  0  0  0  0  0  0  0  0
   19.0042   -3.6358  -15.5832 C   0  0  0  0  0  0  0  0  0  0  0  0
   20.1834   -3.8229  -14.8850 O   0  0  0  0  0  0  0  0  0  0  0  0
   18.7440   -2.5508  -16.1265 O   0  0  0  0  0  0  0  0  0  0  0  0
  2  1  1  6
  3  2  1  0
  4  2  1  0
  4  5  1  1
  4  6  1  0
  6  7  2  0
  9  8  1  1
  9 10  1  0
  9 11  1  0
 11 13  1  0
 12  6  1  0
 11 12  1  6
 13 15  1  0
 13 14  2  0
 15 16  1  0
 16 19  1  0
 16 17  1  1
 18 17  1  0
 19 20  1  0
 21 19  2  0
M  END
$$$$
