TTC.pdb
     RDKit          3D

 21 20  0  0  1  0  0  0  0  0999 V2000
   15.5807  -10.5823  -17.7167 C   0  0  0  0  0  0  0  0  0  0  0  0
   16.6503   -9.8108  -16.9640 C   0  0  1  0  0  0  0  0  0  0  0  0
   16.0021   -9.0816  -15.9685 O   0  0  0  0  0  0  0  0  0  0  0  0
   17.6253  -10.7668  -16.3106 C   0  0  2  0  0  0  0  0  0  0  0  0
   16.8506  -11.6250  -15.4375 N   0  0  0  0  0  0  0  0  0  0  0  0
   18.6337  -10.0567  -15.4918 C   0  0  0  0  0  0  0  0  0  0  0  0
   18.4165   -9.7100  -14.3032 O   0  0  0  0  0  0  0  0  0  0  0  0
   23.4574   -8.8342  -15.3624 C   0  0  0  0  0  0  0  0  0  0  0  0
   22.2767   -9.5883  -15.9327 C   0  0  1  0  0  0  0  0  0  0  0  0
   22.3733  -10.9133  -15.5086 O   0  0  0  0  0  0  0  0  0  0  0  0
   20.9568   -9.0572  -15.3573 C   0  0  2  0  0  0  0  0  0  0  0  0
   19.9033   -9.7400  -16.0383 N   0  0  0  0  0  0  0  0  0  0  0  0
   20.8849   -7.5997  -15.4146 C   0  0  0  0  0  0  0  0  0  0  0  0
   20.7915   -7.0473  -16.5387 O   0  0  0  0  0  0  0  0  0  0  0  0
   20.9124   -6.7424  -14.2844 N   0  0  0  0  0  0  0  0  0  0  0  0
   20.8411   -5.3077  -14.4688 C   0  0  1  0  0  0  0  0  0  0  0  0
   19.7969   -4.6589  -13.5985 C   0  0  0  0  0  0  0  0  0  0  0  0
   18.1979   -5.4151  -14.0130 S   0  0  0  0  0  0  0  0  0  0  0  0
   22.1552   -4.6730  -14.1258 C   0  0  0  0  0  0  0  0  0  0  0  0
   22.3381   -3.3370  -14.4332 O   0  0  0  0  0  0  0  0  0  0  0  0
   23.0514   -5.3356  -13.5800 O   0  0  0  0  0  0  0  0  0  0  0  0
  2  1  1  1
  3  2  1  0
  4  2  1  0
  4  5  1  1
  4  6  1  0
  6  7  2  0
  9  8  1  1
  9 10  1  0
  9 11  1  0
 11 13  1  0
 12  6  1  0
 11 12  1  6
 13 15  1  0
 13 14  2  0
 15 16  1  0
 16 19  1  0
 16 17  1  1
 18 17  1  0
 19 20  1  0
 21 19  2  0
M  END
$$$$
