TTC.pdb
     RDKit          3D

 21 20  0  0  1  0  0  0  0  0999 V2000
   14.8566  -16.8839  -16.6262 C   0  0  0  0  0  0  0  0  0  0  0  0
   15.6366  -15.6742  -16.1426 C   0  0  1  0  0  0  0  0  0  0  0  0
   15.3734  -15.5377  -14.7806 O   0  0  0  0  0  0  0  0  0  0  0  0
   17.1218  -15.8974  -16.3316 C   0  0  2  0  0  0  0  0  0  0  0  0
   17.4709  -17.0742  -15.5621 N   0  0  0  0  0  0  0  0  0  0  0  0
   17.9220  -14.7575  -15.8297 C   0  0  0  0  0  0  0  0  0  0  0  0
   18.2740  -14.6565  -14.6272 O   0  0  0  0  0  0  0  0  0  0  0  0
   21.1945  -13.7332  -17.2984 C   0  0  0  0  0  0  0  0  0  0  0  0
   20.2671  -12.5446  -17.4207 C   0  0  1  0  0  0  0  0  0  0  0  0
   19.6320  -12.6264  -18.6596 O   0  0  0  0  0  0  0  0  0  0  0  0
   19.1504  -12.6097  -16.3700 C   0  0  2  0  0  0  0  0  0  0  0  0
   18.3237  -13.7229  -16.7124 N   0  0  0  0  0  0  0  0  0  0  0  0
   18.4474  -11.3360  -16.2425 C   0  0  0  0  0  0  0  0  0  0  0  0
   17.5594  -11.0539  -17.0846 O   0  0  0  0  0  0  0  0  0  0  0  0
   18.6902  -10.3751  -15.2273 N   0  0  0  0  0  0  0  0  0  0  0  0
   17.9648   -9.1216  -15.2359 C   0  0  1  0  0  0  0  0  0  0  0  0
   17.5649   -8.6695  -13.8560 C   0  0  0  0  0  0  0  0  0  0  0  0
   16.9556   -6.9640  -13.9982 S   0  0  0  0  0  0  0  0  0  0  0  0
   18.8115   -8.0344  -15.8263 C   0  0  0  0  0  0  0  0  0  0  0  0
   20.1838   -8.2059  -15.8391 O   0  0  0  0  0  0  0  0  0  0  0  0
   18.2874   -7.0094  -16.2899 O   0  0  0  0  0  0  0  0  0  0  0  0
  2  1  1  1
  3  2  1  0
  4  2  1  0
  4  5  1  1
  4  6  1  0
  6  7  2  0
  9  8  1  1
  9 10  1  0
  9 11  1  0
 11 13  1  0
 12  6  1  0
 11 12  1  6
 13 15  1  0
 13 14  2  0
 15 16  1  0
 16 19  1  0
 16 17  1  1
 18 17  1  0
 19 20  1  0
 21 19  2  0
M  END
$$$$
