DFL.pdb
     RDKit          3D

 28 28  0  0  1  0  0  0  0  0999 V2000
-462109.3125-222605.2656-1148688.5000 N   0  0  0  0  0  0  0  0  0  0  0  0
-462108.3750-222604.5469-1148689.5000 C   0  0  1  0  0  0  0  0  0  0  0  0
-462107.6875-222603.7969-1148688.6250 C   0  0  0  0  0  0  0  0  0  0  0  0
-462106.3438-222603.5469-1148689.7500 C   0  0  0  0  0  0  0  0  0  0  0  0
-462104.9375-222603.8594-1148688.3750 O   0  0  0  0  0  0  0  0  0  0  0  0
-462107.8125-222605.5781-1148690.1250 C   0  0  0  0  0  0  0  0  0  0  0  0
-462106.5938-222605.4531-1148690.7500 O   0  0  0  0  0  0  0  0  0  0  0  0
-462106.1562-222603.0156-1148691.1250 O   0  0  0  0  0  0  0  0  0  0  0  0
-462108.6250-222606.5781-1148690.8750 N   0  0  0  0  0  0  0  0  0  0  0  0
-462108.1250-222607.6719-1148691.2500 C   0  0  1  0  0  0  0  0  0  0  0  0
-462108.6875-222608.9219-1148691.7500 C   0  0  0  0  0  0  0  0  0  0  0  0
-462110.1562-222608.9219-1148691.8750 C   0  0  0  0  0  0  0  0  0  0  0  0
-462110.8750-222608.8281-1148690.5000 C   0  0  0  0  0  0  0  0  0  0  0  0
-462112.1875-222609.2344-1148690.7500 C   0  0  0  0  0  0  0  0  0  0  0  0
-462113.1562-222609.2031-1148691.6250 C   0  0  0  0  0  0  0  0  0  0  0  0
-462112.4375-222608.8281-1148692.7500 C   0  0  0  0  0  0  0  0  0  0  0  0
-462111.0312-222608.8594-1148692.7500 C   0  0  0  0  0  0  0  0  0  0  0  0
-462107.2188-222607.2969-1148693.2500 C   0  0  0  0  0  0  0  0  0  0  0  0
-462107.4688-222607.4844-1148694.3750 O   0  0  0  0  0  0  0  0  0  0  0  0
-462107.0625-222606.3594-1148689.2500 C   0  0  0  0  0  0  0  0  0  0  0  0
-462106.2500-222606.4844-1148690.1250 C   0  0  2  0  0  0  0  0  0  0  0  0
-462107.1562-222606.2969-1148691.7500 C   0  0  0  0  0  0  0  0  0  0  0  0
-462104.8750-222607.2656-1148690.3750 C   0  0  0  0  0  0  0  0  0  0  0  0
-462104.8750-222607.3594-1148691.3750 C   0  0  2  0  0  0  0  0  0  0  0  0
-462105.9062-222606.7656-1148692.5000 N   0  0  0  0  0  0  0  0  0  0  0  0
-462104.7812-222608.2344-1148692.5000 C   0  0  0  0  0  0  0  0  0  0  0  0
-462105.1875-222609.9219-1148692.0000 O   0  0  0  0  0  0  0  0  0  0  0  0
-462104.8750-222608.5469-1148694.2500 O   0  0  0  0  0  0  0  0  0  0  0  0
  2  6  1  0
  2  1  1  1
  3  2  1  0
  4  3  1  0
  4  8  1  0
  5  4  2  0
  6  7  2  0
  9  6  1  0
 10  9  1  0
 11 12  1  0
 10 11  1  6
 12 17  2  0
 13 14  2  0
 13 12  1  0
 14 15  1  0
 15 16  2  0
 17 16  1  0
 18 10  1  0
 19 18  2  0
 21 20  1  1
 21 23  1  0
 22 21  1  0
 24 23  1  1
 24 25  1  0
 24 26  1  0
 25 18  1  0
 26 27  2  0
 26 28  1  0
M  END
$$$$
