DFL.pdb
     RDKit          3D

 28 28  0  0  1  0  0  0  0  0999 V2000
    9.9508  -18.4010   20.2406 N   0  0  0  0  0  0  0  0  0  0  0  0
   11.1065  -17.7314   20.8174 C   0  0  1  0  0  0  0  0  0  0  0  0
   11.8823  -17.0165   19.7664 C   0  0  0  0  0  0  0  0  0  0  0  0
   12.5402  -18.0062   18.8576 C   0  0  0  0  0  0  0  0  0  0  0  0
   11.9061  -18.9162   18.3067 O   0  0  0  0  0  0  0  0  0  0  0  0
   10.6706  -16.7633   21.8659 C   0  0  0  0  0  0  0  0  0  0  0  0
   11.3447  -15.7362   22.0966 O   0  0  0  0  0  0  0  0  0  0  0  0
   13.9088  -17.8679   18.6476 O   0  0  0  0  0  0  0  0  0  0  0  0
    9.5000  -16.9517   22.6466 N   0  0  0  0  0  0  0  0  0  0  0  0
    9.1493  -16.0183   23.6586 C   0  0  1  0  0  0  0  0  0  0  0  0
    7.6908  -15.7934   23.7970 C   0  0  0  0  0  0  0  0  0  0  0  0
    7.2668  -14.5916   24.4939 C   0  0  0  0  0  0  0  0  0  0  0  0
    6.4678  -14.7477   25.6155 C   0  0  0  0  0  0  0  0  0  0  0  0
    6.0103  -13.7122   26.3641 C   0  0  0  0  0  0  0  0  0  0  0  0
    6.3405  -12.3993   26.0279 C   0  0  0  0  0  0  0  0  0  0  0  0
    7.1342  -12.2174   24.9152 C   0  0  0  0  0  0  0  0  0  0  0  0
    7.5870  -13.2868   24.1693 C   0  0  0  0  0  0  0  0  0  0  0  0
    9.9495  -16.0395   24.8890 C   0  0  0  0  0  0  0  0  0  0  0  0
   11.1524  -15.7191   24.8434 O   0  0  0  0  0  0  0  0  0  0  0  0
   11.2694  -13.8470   27.6999 C   0  0  0  0  0  0  0  0  0  0  0  0
    9.8897  -14.2789   28.0671 C   0  0  2  0  0  0  0  0  0  0  0  0
    9.2230  -13.3621   29.0264 C   0  0  0  0  0  0  0  0  0  0  0  0
    9.7127  -15.7186   28.3623 C   0  0  0  0  0  0  0  0  0  0  0  0
   10.1868  -16.6899   27.3185 C   0  0  2  0  0  0  0  0  0  0  0  0
    9.3659  -16.4100   26.1066 N   0  0  0  0  0  0  0  0  0  0  0  0
   10.0891  -18.0987   27.6687 C   0  0  0  0  0  0  0  0  0  0  0  0
   10.9007  -18.6402   28.4775 O   0  0  0  0  0  0  0  0  0  0  0  0
    9.1191  -18.9839   27.1700 O   0  0  0  0  0  0  0  0  0  0  0  0
  2  6  1  0
  2  1  1  6
  3  2  1  0
  4  3  1  0
  4  8  1  0
  5  4  2  0
  6  7  2  0
  9  6  1  0
 10  9  1  0
 11 12  1  0
 10 11  1  1
 12 17  2  0
 13 14  2  0
 13 12  1  0
 14 15  1  0
 15 16  2  0
 17 16  1  0
 18 10  1  0
 19 18  2  0
 21 20  1  1
 21 23  1  0
 22 21  1  0
 24 23  1  1
 24 25  1  0
 24 26  1  0
 25 18  1  0
 26 27  2  0
 26 28  1  0
M  END
$$$$
