DFL.pdb
     RDKit          3D

 28 28  0  0  1  0  0  0  0  0999 V2000
   11.4362  -16.8065   19.0777 N   0  0  0  0  0  0  0  0  0  0  0  0
   11.1699  -17.6266   20.2496 C   0  0  1  0  0  0  0  0  0  0  0  0
   12.3850  -18.3896   20.6482 C   0  0  0  0  0  0  0  0  0  0  0  0
   12.7271  -19.3908   19.5903 C   0  0  0  0  0  0  0  0  0  0  0  0
   13.8698  -19.4898   19.1232 O   0  0  0  0  0  0  0  0  0  0  0  0
   10.7192  -16.7705   21.3855 C   0  0  0  0  0  0  0  0  0  0  0  0
   11.4339  -15.8269   21.7875 O   0  0  0  0  0  0  0  0  0  0  0  0
   11.7037  -20.2205   19.1425 O   0  0  0  0  0  0  0  0  0  0  0  0
    9.4887  -16.9775   22.0626 N   0  0  0  0  0  0  0  0  0  0  0  0
    9.0937  -16.1165   23.1214 C   0  0  1  0  0  0  0  0  0  0  0  0
    7.7144  -15.5894   22.9918 C   0  0  0  0  0  0  0  0  0  0  0  0
    7.3033  -14.5646   23.9355 C   0  0  0  0  0  0  0  0  0  0  0  0
    6.5930  -14.9698   25.0544 C   0  0  0  0  0  0  0  0  0  0  0  0
    6.1575  -14.1195   26.0185 C   0  0  0  0  0  0  0  0  0  0  0  0
    6.4196  -12.7527   25.9238 C   0  0  0  0  0  0  0  0  0  0  0  0
    7.1244  -12.3242   24.8189 C   0  0  0  0  0  0  0  0  0  0  0  0
    7.5565  -13.2084   23.8513 C   0  0  0  0  0  0  0  0  0  0  0  0
    9.5610  -16.4624   24.4693 C   0  0  0  0  0  0  0  0  0  0  0  0
    9.5520  -17.6533   24.8343 O   0  0  0  0  0  0  0  0  0  0  0  0
    9.3648  -13.7142   29.8552 C   0  0  0  0  0  0  0  0  0  0  0  0
   10.0614  -14.7479   29.0360 C   0  0  2  0  0  0  0  0  0  0  0  0
   11.4456  -15.0269   29.4958 C   0  0  0  0  0  0  0  0  0  0  0  0
    9.9089  -14.6301   27.5683 C   0  0  0  0  0  0  0  0  0  0  0  0
   10.4306  -15.7679   26.7371 C   0  0  2  0  0  0  0  0  0  0  0  0
   10.0202  -15.4641   25.3370 N   0  0  0  0  0  0  0  0  0  0  0  0
    9.9673  -17.0951   27.1124 C   0  0  0  0  0  0  0  0  0  0  0  0
   10.7192  -17.9139   27.7211 O   0  0  0  0  0  0  0  0  0  0  0  0
    8.6819  -17.5989   26.8539 O   0  0  0  0  0  0  0  0  0  0  0  0
  2  6  1  0
  2  1  1  6
  3  2  1  0
  4  3  1  0
  4  8  1  0
  5  4  2  0
  6  7  2  0
  9  6  1  0
 10  9  1  0
 11 12  1  0
 10 11  1  1
 12 17  2  0
 13 14  2  0
 13 12  1  0
 14 15  1  0
 15 16  2  0
 17 16  1  0
 18 10  1  0
 19 18  2  0
 21 20  1  1
 21 23  1  0
 22 21  1  0
 24 23  1  1
 24 25  1  0
 24 26  1  0
 25 18  1  0
 26 27  2  0
 26 28  1  0
M  END
$$$$
