DFL.pdb
     RDKit          3D

 28 28  0  0  1  0  0  0  0  0999 V2000
    3.6660  -19.3732   22.1190 N   0  0  0  0  0  0  0  0  0  0  0  0
    5.0514  -19.4742   22.5516 C   0  0  1  0  0  0  0  0  0  0  0  0
    5.9069  -20.0212   21.4624 C   0  0  0  0  0  0  0  0  0  0  0  0
    6.1548  -21.4786   21.6931 C   0  0  0  0  0  0  0  0  0  0  0  0
    5.5029  -22.1344   22.5170 O   0  0  0  0  0  0  0  0  0  0  0  0
    5.5607  -18.1341   22.9653 C   0  0  0  0  0  0  0  0  0  0  0  0
    5.4658  -17.1562   22.1925 O   0  0  0  0  0  0  0  0  0  0  0  0
    7.1565  -22.0824   20.9392 O   0  0  0  0  0  0  0  0  0  0  0  0
    6.1733  -17.9001   24.2245 N   0  0  0  0  0  0  0  0  0  0  0  0
    6.7482  -16.6359   24.5237 C   0  0  1  0  0  0  0  0  0  0  0  0
    6.5259  -16.1833   25.9175 C   0  0  0  0  0  0  0  0  0  0  0  0
    6.9660  -14.8418   26.2588 C   0  0  0  0  0  0  0  0  0  0  0  0
    6.0018  -13.8490   26.3331 C   0  0  0  0  0  0  0  0  0  0  0  0
    6.2735  -12.5578   26.6508 C   0  0  0  0  0  0  0  0  0  0  0  0
    7.5810  -12.1609   26.9312 C   0  0  0  0  0  0  0  0  0  0  0  0
    8.5591  -13.1305   26.8632 C   0  0  0  0  0  0  0  0  0  0  0  0
    8.2580  -14.4374   26.5375 C   0  0  0  0  0  0  0  0  0  0  0  0
    8.0504  -16.3369   23.9157 C   0  0  0  0  0  0  0  0  0  0  0  0
    8.9699  -17.1736   23.9940 O   0  0  0  0  0  0  0  0  0  0  0  0
    7.6864  -14.3161   19.9837 C   0  0  0  0  0  0  0  0  0  0  0  0
    8.0086  -13.3131   21.0397 C   0  0  2  0  0  0  0  0  0  0  0  0
    7.7797  -11.9109   20.6073 C   0  0  0  0  0  0  0  0  0  0  0  0
    9.2676  -13.5325   21.7867 C   0  0  0  0  0  0  0  0  0  0  0  0
    9.4641  -14.8879   22.4045 C   0  0  2  0  0  0  0  0  0  0  0  0
    8.2576  -15.1245   23.2468 N   0  0  0  0  0  0  0  0  0  0  0  0
   10.6677  -15.0543   23.2050 C   0  0  0  0  0  0  0  0  0  0  0  0
   11.8226  -15.0122   22.6849 O   0  0  0  0  0  0  0  0  0  0  0  0
   10.6845  -15.2701   24.5928 O   0  0  0  0  0  0  0  0  0  0  0  0
  2  6  1  0
  2  1  1  6
  3  2  1  0
  4  3  1  0
  4  8  1  0
  5  4  2  0
  6  7  2  0
  9  6  1  0
 10  9  1  0
 11 12  1  0
 10 11  1  1
 12 17  2  0
 13 14  2  0
 13 12  1  0
 14 15  1  0
 15 16  2  0
 17 16  1  0
 18 10  1  0
 19 18  2  0
 21 20  1  6
 21 23  1  0
 22 21  1  0
 24 23  1  1
 24 25  1  0
 24 26  1  0
 25 18  1  0
 26 27  2  0
 26 28  1  0
M  END
$$$$
