DFL.pdb
     RDKit          3D

 28 28  0  0  1  0  0  0  0  0999 V2000
    9.6318  -18.6255   20.4961 N   0  0  0  0  0  0  0  0  0  0  0  0
   10.7887  -17.7961   20.7971 C   0  0  1  0  0  0  0  0  0  0  0  0
   11.2904  -17.1222   19.5675 C   0  0  0  0  0  0  0  0  0  0  0  0
   11.6582  -18.1458   18.5402 C   0  0  0  0  0  0  0  0  0  0  0  0
   12.3038  -19.1631   18.8268 O   0  0  0  0  0  0  0  0  0  0  0  0
   10.4351  -16.7716   21.8226 C   0  0  0  0  0  0  0  0  0  0  0  0
   11.2479  -15.8701   22.1212 O   0  0  0  0  0  0  0  0  0  0  0  0
   11.2439  -17.9142   17.2321 O   0  0  0  0  0  0  0  0  0  0  0  0
    9.1907  -16.7662   22.5060 N   0  0  0  0  0  0  0  0  0  0  0  0
    8.9443  -15.8340   23.5494 C   0  0  1  0  0  0  0  0  0  0  0  0
    7.5076  -15.5663   23.7965 C   0  0  0  0  0  0  0  0  0  0  0  0
    7.1756  -14.3828   24.5704 C   0  0  0  0  0  0  0  0  0  0  0  0
    6.4439  -14.5606   25.7339 C   0  0  0  0  0  0  0  0  0  0  0  0
    6.0753  -13.5442   26.5544 C   0  0  0  0  0  0  0  0  0  0  0  0
    6.4342  -12.2302   26.2539 C   0  0  0  0  0  0  0  0  0  0  0  0
    7.1621  -12.0268   25.1006 C   0  0  0  0  0  0  0  0  0  0  0  0
    7.5249  -13.0769   24.2818 C   0  0  0  0  0  0  0  0  0  0  0  0
    9.8313  -15.8936   24.7175 C   0  0  0  0  0  0  0  0  0  0  0  0
   11.0451  -15.6512   24.5784 O   0  0  0  0  0  0  0  0  0  0  0  0
   11.8174  -13.9211   27.4312 C   0  0  0  0  0  0  0  0  0  0  0  0
   10.3821  -14.0892   27.8005 C   0  0  2  0  0  0  0  0  0  0  0  0
    9.8827  -13.0305   28.7142 C   0  0  0  0  0  0  0  0  0  0  0  0
    9.9545  -15.4622   28.1522 C   0  0  0  0  0  0  0  0  0  0  0  0
   10.2078  -16.5355   27.1317 C   0  0  2  0  0  0  0  0  0  0  0  0
    9.3180  -16.2134   25.9804 N   0  0  0  0  0  0  0  0  0  0  0  0
    9.9723  -17.9018   27.5729 C   0  0  0  0  0  0  0  0  0  0  0  0
   10.7588  -18.4851   28.3775 O   0  0  0  0  0  0  0  0  0  0  0  0
    8.8861  -18.6978   27.1735 O   0  0  0  0  0  0  0  0  0  0  0  0
  2  6  1  0
  2  1  1  6
  3  2  1  0
  4  3  1  0
  4  8  1  0
  5  4  2  0
  6  7  2  0
  9  6  1  0
 10  9  1  0
 11 12  1  0
 10 11  1  1
 12 17  2  0
 13 14  2  0
 13 12  1  0
 14 15  1  0
 15 16  2  0
 17 16  1  0
 18 10  1  0
 19 18  2  0
 21 20  1  1
 21 23  1  0
 22 21  1  0
 24 23  1  1
 24 25  1  0
 24 26  1  0
 25 18  1  0
 26 27  2  0
 26 28  1  0
M  END
$$$$
