DFL.pdb
     RDKit          3D

 28 28  0  0  1  0  0  0  0  0999 V2000
    9.0254  -19.1663   21.1662 N   0  0  0  0  0  0  0  0  0  0  0  0
    9.9590  -18.2570   20.5193 C   0  0  1  0  0  0  0  0  0  0  0  0
    9.6577  -18.1356   19.0661 C   0  0  0  0  0  0  0  0  0  0  0  0
   10.8125  -17.5002   18.3582 C   0  0  0  0  0  0  0  0  0  0  0  0
   10.6562  -16.7563   17.3804 O   0  0  0  0  0  0  0  0  0  0  0  0
    9.8944  -16.9110   21.1599 C   0  0  0  0  0  0  0  0  0  0  0  0
   10.7886  -16.0648   20.9430 O   0  0  0  0  0  0  0  0  0  0  0  0
   12.0876  -17.7758   18.8426 O   0  0  0  0  0  0  0  0  0  0  0  0
    8.8453  -16.5264   22.0356 N   0  0  0  0  0  0  0  0  0  0  0  0
    8.8924  -15.2793   22.7145 C   0  0  1  0  0  0  0  0  0  0  0  0
    7.7782  -14.3622   22.3759 C   0  0  0  0  0  0  0  0  0  0  0  0
    7.7181  -13.8644   21.0127 C   0  0  0  0  0  0  0  0  0  0  0  0
    7.0084  -14.6124   20.0866 C   0  0  0  0  0  0  0  0  0  0  0  0
    6.8641  -14.2584   18.7843 C   0  0  0  0  0  0  0  0  0  0  0  0
    7.4405  -13.0817   18.3057 C   0  0  0  0  0  0  0  0  0  0  0  0
    8.1528  -12.3200   19.2078 C   0  0  0  0  0  0  0  0  0  0  0  0
    8.2857  -12.7013   20.5275 C   0  0  0  0  0  0  0  0  0  0  0  0
    9.3526  -15.2978   24.1083 C   0  0  0  0  0  0  0  0  0  0  0  0
   10.4321  -14.7513   24.4045 O   0  0  0  0  0  0  0  0  0  0  0  0
    8.5783  -12.5616   27.0471 C   0  0  0  0  0  0  0  0  0  0  0  0
    7.5478  -13.5349   26.5828 C   0  0  2  0  0  0  0  0  0  0  0  0
    6.1647  -12.9970   26.6383 C   0  0  0  0  0  0  0  0  0  0  0  0
    7.6918  -14.9235   27.0754 C   0  0  0  0  0  0  0  0  0  0  0  0
    8.8569  -15.7136   26.5502 C   0  0  2  0  0  0  0  0  0  0  0  0
    8.5827  -15.9181   25.0997 N   0  0  0  0  0  0  0  0  0  0  0  0
    9.0987  -16.9957   27.1943 C   0  0  0  0  0  0  0  0  0  0  0  0
    8.7966  -18.0899   26.6308 O   0  0  0  0  0  0  0  0  0  0  0  0
    9.6748  -17.1590   28.4649 O   0  0  0  0  0  0  0  0  0  0  0  0
  2  6  1  0
  2  1  1  1
  3  2  1  0
  4  3  1  0
  4  8  1  0
  5  4  2  0
  6  7  2  0
  9  6  1  0
 10  9  1  0
 11 12  1  0
 10 11  1  1
 12 17  2  0
 13 14  2  0
 13 12  1  0
 14 15  1  0
 15 16  2  0
 17 16  1  0
 18 10  1  0
 19 18  2  0
 21 20  1  1
 21 23  1  0
 22 21  1  0
 24 23  1  1
 24 25  1  0
 24 26  1  0
 25 18  1  0
 26 27  2  0
 26 28  1  0
M  END
$$$$
