DFL.pdb
     RDKit          3D

 28 28  0  0  1  0  0  0  0  0999 V2000
   10.2319  -17.4434   19.5704 N   0  0  0  0  0  0  0  0  0  0  0  0
   11.1619  -17.4841   20.6885 C   0  0  1  0  0  0  0  0  0  0  0  0
   12.5014  -16.9771   20.2807 C   0  0  0  0  0  0  0  0  0  0  0  0
   13.0741  -17.8543   19.2126 C   0  0  0  0  0  0  0  0  0  0  0  0
   12.9802  -19.0885   19.2543 O   0  0  0  0  0  0  0  0  0  0  0  0
   10.6397  -16.6674   21.8228 C   0  0  0  0  0  0  0  0  0  0  0  0
   11.2452  -15.6377   22.1910 O   0  0  0  0  0  0  0  0  0  0  0  0
   13.7249  -17.2282   18.1539 O   0  0  0  0  0  0  0  0  0  0  0  0
    9.4601  -17.0079   22.5356 N   0  0  0  0  0  0  0  0  0  0  0  0
    9.0118  -16.2022   23.6164 C   0  0  1  0  0  0  0  0  0  0  0  0
    7.6883  -15.5725   23.3951 C   0  0  0  0  0  0  0  0  0  0  0  0
    7.2276  -14.6252   24.3952 C   0  0  0  0  0  0  0  0  0  0  0  0
    7.5499  -13.2898   24.2116 C   0  0  0  0  0  0  0  0  0  0  0  0
    7.1751  -12.3009   25.0622 C   0  0  0  0  0  0  0  0  0  0  0  0
    6.4180  -12.5957   26.1961 C   0  0  0  0  0  0  0  0  0  0  0  0
    6.0849  -13.9179   26.4016 C   0  0  0  0  0  0  0  0  0  0  0  0
    6.4782  -14.9061   25.5221 C   0  0  0  0  0  0  0  0  0  0  0  0
    9.3156  -16.6782   24.9714 C   0  0  0  0  0  0  0  0  0  0  0  0
    8.9228  -17.8054   25.3274 O   0  0  0  0  0  0  0  0  0  0  0  0
   11.8790  -13.7170   27.0972 C   0  0  0  0  0  0  0  0  0  0  0  0
   10.5641  -13.9293   27.7688 C   0  0  2  0  0  0  0  0  0  0  0  0
   10.2595  -12.9056   28.8005 C   0  0  0  0  0  0  0  0  0  0  0  0
   10.2505  -15.3205   28.1660 C   0  0  0  0  0  0  0  0  0  0  0  0
   10.5449  -16.3973   27.1604 C   0  0  2  0  0  0  0  0  0  0  0  0
   10.0467  -15.8762   25.8560 N   0  0  0  0  0  0  0  0  0  0  0  0
    9.9554  -17.6997   27.4313 C   0  0  0  0  0  0  0  0  0  0  0  0
   10.6456  -18.6592   27.8887 O   0  0  0  0  0  0  0  0  0  0  0  0
    8.6051  -18.0274   27.2262 O   0  0  0  0  0  0  0  0  0  0  0  0
  2  6  1  0
  2  1  1  6
  3  2  1  0
  4  3  1  0
  4  8  1  0
  5  4  2  0
  6  7  2  0
  9  6  1  0
 10  9  1  0
 11 12  1  0
 10 11  1  1
 12 17  2  0
 13 14  2  0
 13 12  1  0
 14 15  1  0
 15 16  2  0
 17 16  1  0
 18 10  1  0
 19 18  2  0
 21 20  1  1
 21 23  1  0
 22 21  1  0
 24 23  1  1
 24 25  1  0
 24 26  1  0
 25 18  1  0
 26 27  2  0
 26 28  1  0
M  END
$$$$
