DFL.pdb
     RDKit          3D

 28 28  0  0  1  0  0  0  0  0999 V2000
    9.7693  -18.3141   20.0588 N   0  0  0  0  0  0  0  0  0  0  0  0
   10.9907  -17.6571   20.4984 C   0  0  1  0  0  0  0  0  0  0  0  0
   11.6587  -16.9668   19.3605 C   0  0  0  0  0  0  0  0  0  0  0  0
   12.1728  -17.9767   18.3836 C   0  0  0  0  0  0  0  0  0  0  0  0
   13.3102  -18.4585   18.4727 O   0  0  0  0  0  0  0  0  0  0  0  0
   10.6857  -16.6703   21.5753 C   0  0  0  0  0  0  0  0  0  0  0  0
   11.5932  -15.9544   22.0513 O   0  0  0  0  0  0  0  0  0  0  0  0
   11.3175  -18.3636   17.3564 O   0  0  0  0  0  0  0  0  0  0  0  0
    9.3831  -16.4974   22.1126 N   0  0  0  0  0  0  0  0  0  0  0  0
    9.1636  -15.6142   23.2035 C   0  0  1  0  0  0  0  0  0  0  0  0
    7.7358  -15.4285   23.5555 C   0  0  0  0  0  0  0  0  0  0  0  0
    7.4127  -14.3511   24.4745 C   0  0  0  0  0  0  0  0  0  0  0  0
    6.7265  -14.6793   25.6331 C   0  0  0  0  0  0  0  0  0  0  0  0
    6.3712  -13.7742   26.5799 C   0  0  0  0  0  0  0  0  0  0  0  0
    6.6973  -12.4268   26.4247 C   0  0  0  0  0  0  0  0  0  0  0  0
    7.3796  -12.0745   25.2794 C   0  0  0  0  0  0  0  0  0  0  0  0
    7.7297  -13.0135   24.3305 C   0  0  0  0  0  0  0  0  0  0  0  0
   10.1302  -15.6672   24.3069 C   0  0  0  0  0  0  0  0  0  0  0  0
   11.1959  -15.0283   24.2194 O   0  0  0  0  0  0  0  0  0  0  0  0
    9.1770  -13.1930   28.0751 C   0  0  0  0  0  0  0  0  0  0  0  0
    9.6524  -14.6065   28.1054 C   0  0  2  0  0  0  0  0  0  0  0  0
    9.8770  -15.1213   29.4801 C   0  0  0  0  0  0  0  0  0  0  0  0
   10.7093  -14.9613   27.1315 C   0  0  0  0  0  0  0  0  0  0  0  0
   10.7409  -16.3845   26.6509 C   0  0  2  0  0  0  0  0  0  0  0  0
    9.8557  -16.4238   25.4526 N   0  0  0  0  0  0  0  0  0  0  0  0
   10.3176  -17.3908   27.6129 C   0  0  0  0  0  0  0  0  0  0  0  0
   11.0308  -17.6924   28.6162 O   0  0  0  0  0  0  0  0  0  0  0  0
    9.1149  -18.1128   27.5417 O   0  0  0  0  0  0  0  0  0  0  0  0
  2  6  1  0
  2  1  1  6
  3  2  1  0
  4  3  1  0
  4  8  1  0
  5  4  2  0
  6  7  2  0
  9  6  1  0
 10  9  1  0
 11 12  1  0
 10 11  1  1
 12 17  2  0
 13 14  2  0
 13 12  1  0
 14 15  1  0
 15 16  2  0
 17 16  1  0
 18 10  1  0
 19 18  2  0
 21 20  1  1
 21 23  1  0
 22 21  1  0
 24 23  1  1
 24 25  1  0
 24 26  1  0
 25 18  1  0
 26 27  2  0
 26 28  1  0
M  END
$$$$
