DFL.pdb
     RDKit          3D

 28 28  0  0  1  0  0  0  0  0999 V2000
   11.6588  -16.5598   19.5983 N   0  0  0  0  0  0  0  0  0  0  0  0
   11.6720  -17.4481   20.7505 C   0  0  1  0  0  0  0  0  0  0  0  0
   13.0579  -17.9013   21.0527 C   0  0  0  0  0  0  0  0  0  0  0  0
   13.5820  -18.7264   19.9200 C   0  0  0  0  0  0  0  0  0  0  0  0
   14.3366  -18.2563   19.0578 O   0  0  0  0  0  0  0  0  0  0  0  0
   11.0991  -16.7554   21.9414 C   0  0  0  0  0  0  0  0  0  0  0  0
   11.7997  -15.9651   22.6101 O   0  0  0  0  0  0  0  0  0  0  0  0
   13.1886  -20.0601   19.8669 O   0  0  0  0  0  0  0  0  0  0  0  0
    9.7626  -16.9544   22.3768 N   0  0  0  0  0  0  0  0  0  0  0  0
    9.2658  -16.2697   23.5182 C   0  0  1  0  0  0  0  0  0  0  0  0
    7.9450  -15.6288   23.3136 C   0  0  0  0  0  0  0  0  0  0  0  0
    7.5061  -14.6758   24.3180 C   0  0  0  0  0  0  0  0  0  0  0  0
    6.7178  -15.1517   25.3538 C   0  0  0  0  0  0  0  0  0  0  0  0
    6.2485  -14.3733   26.3618 C   0  0  0  0  0  0  0  0  0  0  0  0
    6.5543  -13.0130   26.4029 C   0  0  0  0  0  0  0  0  0  0  0  0
    7.3369  -12.5149   25.3827 C   0  0  0  0  0  0  0  0  0  0  0  0
    7.8021  -13.3266   24.3681 C   0  0  0  0  0  0  0  0  0  0  0  0
    9.5236  -16.8837   24.8264 C   0  0  0  0  0  0  0  0  0  0  0  0
    9.6037  -18.1235   24.9165 O   0  0  0  0  0  0  0  0  0  0  0  0
   11.8515  -14.1635   27.3472 C   0  0  0  0  0  0  0  0  0  0  0  0
   10.4509  -14.2101   27.8582 C   0  0  2  0  0  0  0  0  0  0  0  0
   10.1326  -13.1073   28.8005 C   0  0  0  0  0  0  0  0  0  0  0  0
    9.9500  -15.5405   28.2709 C   0  0  0  0  0  0  0  0  0  0  0  0
   10.0924  -16.6587   27.2774 C   0  0  2  0  0  0  0  0  0  0  0  0
    9.6853  -16.0838   25.9641 N   0  0  0  0  0  0  0  0  0  0  0  0
    9.3180  -17.8589   27.5545 C   0  0  0  0  0  0  0  0  0  0  0  0
    9.6624  -18.6780   28.4582 O   0  0  0  0  0  0  0  0  0  0  0  0
    8.1442  -18.2300   26.8782 O   0  0  0  0  0  0  0  0  0  0  0  0
  2  6  1  0
  2  1  1  6
  3  2  1  0
  4  3  1  0
  4  8  1  0
  5  4  2  0
  6  7  2  0
  9  6  1  0
 10  9  1  0
 11 12  1  0
 10 11  1  6
 12 17  2  0
 13 14  2  0
 13 12  1  0
 14 15  1  0
 15 16  2  0
 17 16  1  0
 18 10  1  0
 19 18  2  0
 21 20  1  1
 21 23  1  0
 22 21  1  0
 24 23  1  1
 24 25  1  0
 24 26  1  0
 25 18  1  0
 26 27  2  0
 26 28  1  0
M  END
$$$$
