DFL.pdb
     RDKit          3D

 28 28  0  0  1  0  0  0  0  0999 V2000
   10.0707  -18.4504   20.2144 N   0  0  0  0  0  0  0  0  0  0  0  0
   11.2080  -17.6863   20.7039 C   0  0  1  0  0  0  0  0  0  0  0  0
   11.8166  -16.8831   19.6075 C   0  0  0  0  0  0  0  0  0  0  0  0
   12.3139  -17.7909   18.5272 C   0  0  0  0  0  0  0  0  0  0  0  0
   12.7897  -18.9075   18.7734 O   0  0  0  0  0  0  0  0  0  0  0  0
   10.7825  -16.7824   21.8121 C   0  0  0  0  0  0  0  0  0  0  0  0
   11.5874  -15.9603   22.3009 O   0  0  0  0  0  0  0  0  0  0  0  0
   12.2220  -17.3327   17.2164 O   0  0  0  0  0  0  0  0  0  0  0  0
    9.4756  -16.8084   22.3660 N   0  0  0  0  0  0  0  0  0  0  0  0
    9.1649  -16.0387   23.5190 C   0  0  1  0  0  0  0  0  0  0  0  0
    7.7307  -15.6860   23.6442 C   0  0  0  0  0  0  0  0  0  0  0  0
    7.3851  -14.6309   24.5808 C   0  0  0  0  0  0  0  0  0  0  0  0
    7.9347  -13.3768   24.3666 C   0  0  0  0  0  0  0  0  0  0  0  0
    7.6882  -12.3016   25.1574 C   0  0  0  0  0  0  0  0  0  0  0  0
    6.8367  -12.4153   26.2565 C   0  0  0  0  0  0  0  0  0  0  0  0
    6.2777  -13.6537   26.4914 C   0  0  0  0  0  0  0  0  0  0  0  0
    6.5439  -14.7325   25.6728 C   0  0  0  0  0  0  0  0  0  0  0  0
    9.8904  -16.3661   24.7525 C   0  0  0  0  0  0  0  0  0  0  0  0
   11.1215  -16.5505   24.7087 O   0  0  0  0  0  0  0  0  0  0  0  0
   10.5666  -13.7342   27.7249 C   0  0  0  0  0  0  0  0  0  0  0  0
    9.2385  -14.3625   27.9826 C   0  0  2  0  0  0  0  0  0  0  0  0
    8.3741  -13.5599   28.8847 C   0  0  0  0  0  0  0  0  0  0  0  0
    9.2472  -15.8156   28.2651 C   0  0  0  0  0  0  0  0  0  0  0  0
    9.9231  -16.7004   27.2562 C   0  0  2  0  0  0  0  0  0  0  0  0
    9.2072  -16.4639   25.9707 N   0  0  0  0  0  0  0  0  0  0  0  0
    9.9343  -18.1226   27.5629 C   0  0  0  0  0  0  0  0  0  0  0  0
   10.6949  -18.6040   28.4551 O   0  0  0  0  0  0  0  0  0  0  0  0
    9.1318  -19.0861   26.9299 O   0  0  0  0  0  0  0  0  0  0  0  0
  2  6  1  0
  2  1  1  6
  3  2  1  0
  4  3  1  0
  4  8  1  0
  5  4  2  0
  6  7  2  0
  9  6  1  0
 10  9  1  0
 11 12  1  0
 10 11  1  1
 12 17  2  0
 13 14  2  0
 13 12  1  0
 14 15  1  0
 15 16  2  0
 17 16  1  0
 18 10  1  0
 19 18  2  0
 21 20  1  1
 21 23  1  0
 22 21  1  0
 24 23  1  1
 24 25  1  0
 24 26  1  0
 25 18  1  0
 26 27  2  0
 26 28  1  0
M  END
$$$$
