CQM.pdb
     RDKit          3D

 24 23  0  0  1  0  0  0  0  0999 V2000
   14.5957  -12.9687  -11.7978 N   0  0  0  0  0  0  0  0  0  0  0  0
   14.8835  -11.8076  -12.6116 C   0  0  1  0  0  0  0  0  0  0  0  0
   13.6441  -11.2435  -13.2670 C   0  0  0  0  0  0  0  0  0  0  0  0
   12.8797  -12.5256  -14.2987 S   0  0  0  0  0  0  0  0  0  0  0  0
   15.6264  -10.8309  -11.8185 C   0  0  0  0  0  0  0  0  0  0  0  0
   15.4216  -10.6092  -10.5927 O   0  0  0  0  0  0  0  0  0  0  0  0
   20.5835   -7.8683  -14.2534 N   0  0  0  0  0  0  0  0  0  0  0  0
   20.5127   -7.2192  -12.9833 C   0  0  0  0  0  0  0  0  0  0  0  0
   21.3844   -6.3529  -12.7325 O   0  0  0  0  0  0  0  0  0  0  0  0
   19.4361   -7.5945  -12.0509 C   0  0  0  0  0  0  0  0  0  0  0  0
   18.5608   -8.6780  -12.6199 C   0  0  0  0  0  0  0  0  0  0  0  0
   17.4130   -9.0615  -11.7209 C   0  0  2  0  0  0  0  0  0  0  0  0
   16.6482  -10.0676  -12.4345 N   0  0  0  0  0  0  0  0  0  0  0  0
   16.5960   -7.8480  -11.4490 C   0  0  0  0  0  0  0  0  0  0  0  0
   15.8584   -7.4257  -12.3711 O   0  0  0  0  0  0  0  0  0  0  0  0
   14.0295   -6.5980   -5.4825 C   0  0  0  0  0  0  0  0  0  0  0  0
   13.1849   -5.5235   -6.6485 S   0  0  0  0  0  0  0  0  0  0  0  0
   14.1012   -5.2133   -8.1388 C   0  0  0  0  0  0  0  0  0  0  0  0
   14.9887   -6.2660   -8.6509 C   0  0  0  0  0  0  0  0  0  0  0  0
   15.7106   -6.0199   -9.9263 C   0  0  2  0  0  0  0  0  0  0  0  0
   16.6101   -7.1563  -10.2172 N   0  0  0  0  0  0  0  0  0  0  0  0
   16.4428   -4.7577  -10.0681 C   0  0  0  0  0  0  0  0  0  0  0  0
   15.9520   -3.6153  -10.0991 O   0  0  0  0  0  0  0  0  0  0  0  0
   17.8617   -4.7713  -10.1877 O   0  0  0  0  0  0  0  0  0  0  0  0
  2  1  1  1
  3  2  1  0
  3  4  1  0
  5  2  1  0
  5  6  2  0
  7  8  1  0
  8  9  2  0
  8 10  1  0
 10 11  1  0
 12 11  1  6
 12 13  1  0
 13  5  1  0
 14 12  1  0
 15 14  2  0
 16 17  1  0
 17 18  1  0
 18 19  1  0
 20 19  1  1
 20 22  1  0
 20 21  1  0
 21 14  1  0
 22 24  1  0
 23 22  2  0
M  END
$$$$
