CQM.pdb
     RDKit          3D

 24 23  0  0  1  0  0  0  0  0999 V2000
   27.7307  -21.6617  -15.1204 N   0  0  0  0  0  0  0  0  0  0  0  0
   26.8362  -20.5702  -14.8014 C   0  0  1  0  0  0  0  0  0  0  0  0
   27.3519  -19.2400  -15.3000 C   0  0  0  0  0  0  0  0  0  0  0  0
   28.4103  -18.4964  -14.0274 S   0  0  0  0  0  0  0  0  0  0  0  0
   25.4903  -20.8928  -15.2697 C   0  0  0  0  0  0  0  0  0  0  0  0
   25.2428  -21.5659  -16.3086 O   0  0  0  0  0  0  0  0  0  0  0  0
   20.9009  -22.5758  -11.8258 N   0  0  0  0  0  0  0  0  0  0  0  0
   21.6476  -21.4126  -11.4670 C   0  0  0  0  0  0  0  0  0  0  0  0
   21.5861  -21.0375  -10.2717 O   0  0  0  0  0  0  0  0  0  0  0  0
   22.4389  -20.7268  -12.5029 C   0  0  0  0  0  0  0  0  0  0  0  0
   22.3270  -21.4170  -13.8352 C   0  0  0  0  0  0  0  0  0  0  0  0
   23.0028  -20.6735  -14.9591 C   0  0  2  0  0  0  0  0  0  0  0  0
   24.3698  -20.4359  -14.5335 N   0  0  0  0  0  0  0  0  0  0  0  0
   22.2747  -19.3966  -15.1901 C   0  0  0  0  0  0  0  0  0  0  0  0
   22.6853  -18.3765  -14.5872 O   0  0  0  0  0  0  0  0  0  0  0  0
   25.5774  -18.2785  -18.9093 C   0  0  0  0  0  0  0  0  0  0  0  0
   24.2270  -17.7188  -19.9535 S   0  0  0  0  0  0  0  0  0  0  0  0
   22.6562  -17.6482  -19.1262 C   0  0  0  0  0  0  0  0  0  0  0  0
   22.4559  -18.4702  -17.9253 C   0  0  0  0  0  0  0  0  0  0  0  0
   21.1445  -18.3946  -17.2306 C   0  0  2  0  0  0  0  0  0  0  0  0
   21.1565  -19.2783  -16.0456 N   0  0  0  0  0  0  0  0  0  0  0  0
   19.9340  -18.6393  -18.0206 C   0  0  0  0  0  0  0  0  0  0  0  0
   19.3351  -19.7226  -18.1433 O   0  0  0  0  0  0  0  0  0  0  0  0
   19.3327  -17.5710  -18.7450 O   0  0  0  0  0  0  0  0  0  0  0  0
  2  1  1  6
  3  2  1  0
  3  4  1  0
  5  2  1  0
  5  6  2  0
  7  8  1  0
  8  9  2  0
  8 10  1  0
 10 11  1  0
 12 11  1  1
 12 13  1  0
 13  5  1  0
 14 12  1  0
 15 14  2  0
 16 17  1  0
 17 18  1  0
 18 19  1  0
 20 19  1  6
 20 22  1  0
 20 21  1  0
 21 14  1  0
 22 24  1  0
 23 22  2  0
M  END
$$$$
