CQM.pdb
     RDKit          3D

 24 23  0  0  1  0  0  0  0  0999 V2000
   26.6094  -22.1850  -10.9383 N   0  0  0  0  0  0  0  0  0  0  0  0
   25.3832  -21.4181  -10.8983 C   0  0  1  0  0  0  0  0  0  0  0  0
   25.5291  -20.1423  -10.1013 C   0  0  0  0  0  0  0  0  0  0  0  0
   25.2453  -20.5009   -8.3454 S   0  0  0  0  0  0  0  0  0  0  0  0
   24.8965  -21.2092  -12.2600 C   0  0  0  0  0  0  0  0  0  0  0  0
   25.6445  -21.0348  -13.2619 O   0  0  0  0  0  0  0  0  0  0  0  0
   21.4712  -23.5586  -15.4457 N   0  0  0  0  0  0  0  0  0  0  0  0
   20.7680  -22.4000  -15.8958 C   0  0  0  0  0  0  0  0  0  0  0  0
   20.2073  -22.4682  -17.0157 O   0  0  0  0  0  0  0  0  0  0  0  0
   20.7376  -21.2059  -15.0339 C   0  0  0  0  0  0  0  0  0  0  0  0
   21.4989  -21.4246  -13.7547 C   0  0  0  0  0  0  0  0  0  0  0  0
   22.9407  -20.9903  -13.8281 C   0  0  2  0  0  0  0  0  0  0  0  0
   23.5016  -21.1961  -12.5055 N   0  0  0  0  0  0  0  0  0  0  0  0
   22.9858  -19.5561  -14.2215 C   0  0  0  0  0  0  0  0  0  0  0  0
   22.5495  -18.7145  -13.4005 O   0  0  0  0  0  0  0  0  0  0  0  0
   27.0534  -13.7713  -17.5896 C   0  0  0  0  0  0  0  0  0  0  0  0
   26.8530  -15.4991  -17.1403 S   0  0  0  0  0  0  0  0  0  0  0  0
   25.2201  -15.9135  -16.5758 C   0  0  0  0  0  0  0  0  0  0  0  0
   24.9491  -17.2963  -16.1604 C   0  0  0  0  0  0  0  0  0  0  0  0
   23.5507  -17.6693  -15.8234 C   0  0  2  0  0  0  0  0  0  0  0  0
   23.4905  -19.1010  -15.4603 N   0  0  0  0  0  0  0  0  0  0  0  0
   22.5031  -17.3603  -16.8013 C   0  0  0  0  0  0  0  0  0  0  0  0
   22.1196  -18.0901  -17.7326 O   0  0  0  0  0  0  0  0  0  0  0  0
   21.8161  -16.1149  -16.7339 O   0  0  0  0  0  0  0  0  0  0  0  0
  2  1  1  6
  3  2  1  0
  3  4  1  0
  5  2  1  0
  5  6  2  0
  7  8  1  0
  8  9  2  0
  8 10  1  0
 10 11  1  0
 12 11  1  1
 12 13  1  0
 13  5  1  0
 14 12  1  0
 15 14  2  0
 16 17  1  0
 17 18  1  0
 18 19  1  0
 20 19  1  6
 20 22  1  0
 20 21  1  0
 21 14  1  0
 22 24  1  0
 23 22  2  0
M  END
$$$$
