CQM.pdb
     RDKit          3D

 24 23  0  0  1  0  0  0  0  0999 V2000
   19.6186  -12.3358  -15.4116 N   0  0  0  0  0  0  0  0  0  0  0  0
   19.3654  -11.1025  -16.1245 C   0  0  1  0  0  0  0  0  0  0  0  0
   17.8933  -10.7662  -16.1864 C   0  0  0  0  0  0  0  0  0  0  0  0
   17.0187  -12.0818  -17.0789 S   0  0  0  0  0  0  0  0  0  0  0  0
   20.1895  -10.0367  -15.5588 C   0  0  0  0  0  0  0  0  0  0  0  0
   20.2278   -9.7452  -14.3312 O   0  0  0  0  0  0  0  0  0  0  0  0
   25.9356   -9.1663  -16.3656 N   0  0  0  0  0  0  0  0  0  0  0  0
   25.2092   -9.9131  -15.3889 C   0  0  0  0  0  0  0  0  0  0  0  0
   25.8389  -10.7931  -14.7547 O   0  0  0  0  0  0  0  0  0  0  0  0
   23.7821   -9.6139  -15.1805 C   0  0  0  0  0  0  0  0  0  0  0  0
   23.2749   -8.6050  -16.1748 C   0  0  0  0  0  0  0  0  0  0  0  0
   21.8485   -8.1819  -15.9318 C   0  0  2  0  0  0  0  0  0  0  0  0
   21.0093   -9.2624  -16.4159 N   0  0  0  0  0  0  0  0  0  0  0  0
   21.5937   -6.9192  -16.6765 C   0  0  0  0  0  0  0  0  0  0  0  0
   21.4195   -7.0006  -17.9157 O   0  0  0  0  0  0  0  0  0  0  0  0
   16.7391   -2.1647  -19.2840 C   0  0  0  0  0  0  0  0  0  0  0  0
   17.4470   -3.6632  -18.5905 S   0  0  0  0  0  0  0  0  0  0  0  0
   19.0861   -3.4525  -17.9381 C   0  0  0  0  0  0  0  0  0  0  0  0
   19.7670   -4.6171  -17.3567 C   0  0  0  0  0  0  0  0  0  0  0  0
   21.1259   -4.4264  -16.7864 C   0  0  2  0  0  0  0  0  0  0  0  0
   21.5388   -5.6476  -16.0630 N   0  0  0  0  0  0  0  0  0  0  0  0
   21.3584   -3.2482  -15.9454 C   0  0  0  0  0  0  0  0  0  0  0  0
   21.4932   -3.2348  -14.7090 O   0  0  0  0  0  0  0  0  0  0  0  0
   21.4490   -1.9585  -16.5421 O   0  0  0  0  0  0  0  0  0  0  0  0
  2  1  1  1
  3  2  1  0
  3  4  1  0
  5  2  1  0
  5  6  2  0
  7  8  1  0
  8  9  2  0
  8 10  1  0
 10 11  1  0
 12 11  1  6
 12 13  1  0
 13  5  1  0
 14 12  1  0
 15 14  2  0
 16 17  1  0
 17 18  1  0
 18 19  1  0
 20 19  1  1
 20 22  1  0
 20 21  1  0
 21 14  1  0
 22 24  1  0
 23 22  2  0
M  END
$$$$
