CQM.pdb
     RDKit          3D

 24 23  0  0  1  0  0  0  0  0999 V2000
   16.1239  -12.3823  -14.0336 N   0  0  0  0  0  0  0  0  0  0  0  0
   15.6050  -11.0329  -13.9774 C   0  0  1  0  0  0  0  0  0  0  0  0
   14.0960  -10.9939  -14.0503 C   0  0  0  0  0  0  0  0  0  0  0  0
   13.5464   -9.2653  -14.0999 S   0  0  0  0  0  0  0  0  0  0  0  0
   16.1560  -10.3490  -12.8097 C   0  0  0  0  0  0  0  0  0  0  0  0
   16.0561  -10.7748  -11.6255 O   0  0  0  0  0  0  0  0  0  0  0  0
   21.0346   -6.5939  -13.2539 N   0  0  0  0  0  0  0  0  0  0  0  0
   21.1120   -7.9894  -12.9606 C   0  0  0  0  0  0  0  0  0  0  0  0
   22.2350   -8.5371  -13.0703 O   0  0  0  0  0  0  0  0  0  0  0  0
   19.8887   -8.6996  -12.5500 C   0  0  0  0  0  0  0  0  0  0  0  0
   18.7148   -7.7651  -12.4378 C   0  0  0  0  0  0  0  0  0  0  0  0
   17.4747   -8.4173  -11.8815 C   0  0  2  0  0  0  0  0  0  0  0  0
   16.8524   -9.1279  -12.9833 N   0  0  0  0  0  0  0  0  0  0  0  0
   16.5805   -7.3570  -11.3431 C   0  0  0  0  0  0  0  0  0  0  0  0
   15.9194   -6.6811  -12.1670 O   0  0  0  0  0  0  0  0  0  0  0  0
   13.7754   -7.6113   -5.2878 C   0  0  0  0  0  0  0  0  0  0  0  0
   12.9629   -6.2747   -6.1715 S   0  0  0  0  0  0  0  0  0  0  0  0
   13.8983   -5.6430   -7.5436 C   0  0  0  0  0  0  0  0  0  0  0  0
   14.7932   -6.5572   -8.2655 C   0  0  0  0  0  0  0  0  0  0  0  0
   15.5282   -6.0365   -9.4474 C   0  0  2  0  0  0  0  0  0  0  0  0
   16.4410   -7.0775   -9.9652 N   0  0  0  0  0  0  0  0  0  0  0  0
   16.2510   -4.7692   -9.3026 C   0  0  0  0  0  0  0  0  0  0  0  0
   17.4760   -4.6289   -9.1386 O   0  0  0  0  0  0  0  0  0  0  0  0
   15.5374   -3.5377   -9.3447 O   0  0  0  0  0  0  0  0  0  0  0  0
  2  1  1  1
  3  2  1  0
  3  4  1  0
  5  2  1  0
  5  6  2  0
  7  8  1  0
  8  9  2  0
  8 10  1  0
 10 11  1  0
 12 11  1  6
 12 13  1  0
 13  5  1  0
 14 12  1  0
 15 14  2  0
 16 17  1  0
 17 18  1  0
 18 19  1  0
 20 19  1  1
 20 22  1  0
 20 21  1  0
 21 14  1  0
 22 24  1  0
 23 22  2  0
M  END
$$$$
