CQM.pdb
     RDKit          3D

 24 23  0  0  1  0  0  0  0  0999 V2000
   27.5290  -21.4892  -15.5616 N   0  0  0  0  0  0  0  0  0  0  0  0
   27.9803  -20.1739  -15.1620 C   0  0  1  0  0  0  0  0  0  0  0  0
   27.9505  -19.1845  -16.3040 C   0  0  0  0  0  0  0  0  0  0  0  0
   28.7528  -17.6440  -15.7788 S   0  0  0  0  0  0  0  0  0  0  0  0
   27.2290  -19.7391  -13.9866 C   0  0  0  0  0  0  0  0  0  0  0  0
   27.4415  -18.6592  -13.3683 O   0  0  0  0  0  0  0  0  0  0  0  0
   21.3706  -21.3404  -13.2850 N   0  0  0  0  0  0  0  0  0  0  0  0
   21.7315  -20.0129  -13.6682 C   0  0  0  0  0  0  0  0  0  0  0  0
   20.8431  -19.3095  -14.2062 O   0  0  0  0  0  0  0  0  0  0  0  0
   23.1056  -19.5471  -13.4142 C   0  0  0  0  0  0  0  0  0  0  0  0
   23.9367  -20.6074  -12.7442 C   0  0  0  0  0  0  0  0  0  0  0  0
   25.3284  -20.1492  -12.3893 C   0  0  2  0  0  0  0  0  0  0  0  0
   26.1893  -20.5589  -13.4834 N   0  0  0  0  0  0  0  0  0  0  0  0
   25.7296  -20.7943  -11.1099 C   0  0  0  0  0  0  0  0  0  0  0  0
   26.0108  -22.0161  -11.1386 O   0  0  0  0  0  0  0  0  0  0  0  0
   28.8187  -18.0884   -6.0046 C   0  0  0  0  0  0  0  0  0  0  0  0
   28.2648  -19.6493   -5.3087 S   0  0  0  0  0  0  0  0  0  0  0  0
   27.1583  -20.5569   -6.3616 C   0  0  0  0  0  0  0  0  0  0  0  0
   26.9048  -20.0520   -7.7177 C   0  0  0  0  0  0  0  0  0  0  0  0
   25.9539  -20.7992   -8.5812 C   0  0  2  0  0  0  0  0  0  0  0  0
   25.8085  -20.1059   -9.8787 N   0  0  0  0  0  0  0  0  0  0  0  0
   24.6303  -21.1122   -8.0341 C   0  0  0  0  0  0  0  0  0  0  0  0
   23.5390  -20.6689   -8.4337 O   0  0  0  0  0  0  0  0  0  0  0  0
   24.5124  -22.0074   -6.9330 O   0  0  0  0  0  0  0  0  0  0  0  0
  2  1  1  6
  3  2  1  0
  3  4  1  0
  5  2  1  0
  5  6  2  0
  7  8  1  0
  8  9  2  0
  8 10  1  0
 10 11  1  0
 12 11  1  6
 12 13  1  0
 13  5  1  0
 14 12  1  0
 15 14  2  0
 16 17  1  0
 17 18  1  0
 18 19  1  0
 20 19  1  1
 20 22  1  0
 20 21  1  0
 21 14  1  0
 22 24  1  0
 23 22  2  0
M  END
$$$$
