CQM.pdb
     RDKit          3D

 24 23  0  0  1  0  0  0  0  0999 V2000
   27.7840  -20.1881  -16.3656 N   0  0  0  0  0  0  0  0  0  0  0  0
   27.5916  -21.0642  -15.2304 C   0  0  1  0  0  0  0  0  0  0  0  0
   28.8781  -21.7218  -14.7872 C   0  0  0  0  0  0  0  0  0  0  0  0
   29.3665  -22.9641  -16.0163 S   0  0  0  0  0  0  0  0  0  0  0  0
   26.9055  -20.3358  -14.1657 C   0  0  0  0  0  0  0  0  0  0  0  0
   27.1939  -19.1589  -13.8114 O   0  0  0  0  0  0  0  0  0  0  0  0
   21.0125  -21.1117  -12.9581 N   0  0  0  0  0  0  0  0  0  0  0  0
   21.3446  -20.2880  -11.8399 C   0  0  0  0  0  0  0  0  0  0  0  0
   20.3978  -19.8868  -11.1216 O   0  0  0  0  0  0  0  0  0  0  0  0
   22.7590  -19.9597  -11.5924 C   0  0  0  0  0  0  0  0  0  0  0  0
   23.6593  -20.5560  -12.6401 C   0  0  0  0  0  0  0  0  0  0  0  0
   25.1251  -20.3104  -12.3877 C   0  0  2  0  0  0  0  0  0  0  0  0
   25.8446  -20.9618  -13.4667 N   0  0  0  0  0  0  0  0  0  0  0  0
   25.4838  -20.8913  -11.0656 C   0  0  0  0  0  0  0  0  0  0  0  0
   25.4326  -22.1386  -10.9460 O   0  0  0  0  0  0  0  0  0  0  0  0
   29.0232  -19.7124   -3.9882 C   0  0  0  0  0  0  0  0  0  0  0  0
   28.5209  -19.0708   -5.5892 S   0  0  0  0  0  0  0  0  0  0  0  0
   27.4751  -20.1713   -6.5122 C   0  0  0  0  0  0  0  0  0  0  0  0
   27.0933  -19.7969   -7.8804 C   0  0  0  0  0  0  0  0  0  0  0  0
   26.1946  -20.7083   -8.6354 C   0  0  2  0  0  0  0  0  0  0  0  0
   25.8749  -20.1157   -9.9513 N   0  0  0  0  0  0  0  0  0  0  0  0
   24.9622  -21.1558   -7.9794 C   0  0  0  0  0  0  0  0  0  0  0  0
   23.8064  -20.7717   -8.2317 O   0  0  0  0  0  0  0  0  0  0  0  0
   25.0253  -22.1266   -6.9396 O   0  0  0  0  0  0  0  0  0  0  0  0
  2  1  1  6
  3  2  1  0
  3  4  1  0
  5  2  1  0
  5  6  2  0
  7  8  1  0
  8  9  2  0
  8 10  1  0
 10 11  1  0
 12 11  1  6
 12 13  1  0
 13  5  1  0
 14 12  1  0
 15 14  2  0
 16 17  1  0
 17 18  1  0
 18 19  1  0
 20 19  1  1
 20 22  1  0
 20 21  1  0
 21 14  1  0
 22 24  1  0
 23 22  2  0
M  END
$$$$
