CQM.pdb
     RDKit          3D

 24 23  0  0  1  0  0  0  0  0999 V2000
   12.6219   -9.3640   -9.9580 N   0  0  0  0  0  0  0  0  0  0  0  0
   13.7336   -8.4822   -9.6751 C   0  0  1  0  0  0  0  0  0  0  0  0
   14.0772   -8.4443   -8.2039 C   0  0  0  0  0  0  0  0  0  0  0  0
   12.5857   -8.0376   -7.2539 S   0  0  0  0  0  0  0  0  0  0  0  0
   14.8621   -8.8326  -10.5345 C   0  0  0  0  0  0  0  0  0  0  0  0
   14.8974   -9.8515  -11.2789 O   0  0  0  0  0  0  0  0  0  0  0  0
   15.5660   -7.8265  -15.3944 N   0  0  0  0  0  0  0  0  0  0  0  0
   15.4255   -6.6845  -14.5485 C   0  0  0  0  0  0  0  0  0  0  0  0
   14.8803   -5.6685  -15.0422 O   0  0  0  0  0  0  0  0  0  0  0  0
   15.9190   -6.7598  -13.1627 C   0  0  0  0  0  0  0  0  0  0  0  0
   16.5378   -8.0986  -12.8653 C   0  0  0  0  0  0  0  0  0  0  0  0
   17.1100   -8.2039  -11.4745 C   0  0  2  0  0  0  0  0  0  0  0  0
   16.0050   -7.9963  -10.5568 N   0  0  0  0  0  0  0  0  0  0  0  0
   18.1572   -7.1596  -11.3109 C   0  0  0  0  0  0  0  0  0  0  0  0
   17.8318   -6.0967  -10.7303 O   0  0  0  0  0  0  0  0  0  0  0  0
   23.6449   -8.9959   -8.3491 C   0  0  0  0  0  0  0  0  0  0  0  0
   23.1894   -7.2746   -8.1105 S   0  0  0  0  0  0  0  0  0  0  0  0
   22.4489   -6.5193   -9.5380 C   0  0  0  0  0  0  0  0  0  0  0  0
   21.2768   -7.1629  -10.1462 C   0  0  0  0  0  0  0  0  0  0  0  0
   20.6009   -6.4728  -11.2754 C   0  0  2  0  0  0  0  0  0  0  0  0
   19.4848   -7.3051  -11.7720 N   0  0  0  0  0  0  0  0  0  0  0  0
   21.4275   -6.0272  -12.4013 C   0  0  0  0  0  0  0  0  0  0  0  0
   21.4427   -6.5110  -13.5470 O   0  0  0  0  0  0  0  0  0  0  0  0
   22.3255   -4.9351  -12.2324 O   0  0  0  0  0  0  0  0  0  0  0  0
  2  1  1  1
  3  2  1  0
  3  4  1  0
  5  2  1  0
  5  6  2  0
  7  8  1  0
  8  9  2  0
  8 10  1  0
 10 11  1  0
 12 11  1  6
 12 13  1  0
 13  5  1  0
 14 12  1  0
 15 14  2  0
 16 17  1  0
 17 18  1  0
 18 19  1  0
 20 19  1  1
 20 22  1  0
 20 21  1  0
 21 14  1  0
 22 24  1  0
 23 22  2  0
M  END
$$$$
