CQM.pdb
     RDKit          3D

 24 23  0  0  1  0  0  0  0  0999 V2000
   25.2160  -13.2881  -17.8007 N   0  0  0  0  0  0  0  0  0  0  0  0
   24.9407  -12.5493  -16.5875 C   0  0  1  0  0  0  0  0  0  0  0  0
   26.2036  -12.1220  -15.8757 C   0  0  0  0  0  0  0  0  0  0  0  0
   27.0935  -13.5965  -15.3045 S   0  0  0  0  0  0  0  0  0  0  0  0
   24.0314  -11.4455  -16.8870 C   0  0  0  0  0  0  0  0  0  0  0  0
   24.0330  -10.7994  -17.9714 O   0  0  0  0  0  0  0  0  0  0  0  0
   18.9260  -10.8637  -17.3111 N   0  0  0  0  0  0  0  0  0  0  0  0
   18.7621   -9.6855  -16.5209 C   0  0  0  0  0  0  0  0  0  0  0  0
   17.7711   -8.9591  -16.7729 O   0  0  0  0  0  0  0  0  0  0  0  0
   19.7490   -9.3914  -15.4678 C   0  0  0  0  0  0  0  0  0  0  0  0
   20.8416  -10.4250  -15.4261 C   0  0  0  0  0  0  0  0  0  0  0  0
   22.0873  -10.0173  -16.1710 C   0  0  2  0  0  0  0  0  0  0  0  0
   23.0751  -11.0504  -15.9197 N   0  0  0  0  0  0  0  0  0  0  0  0
   22.5383   -8.6962  -15.6561 C   0  0  0  0  0  0  0  0  0  0  0  0
   22.9768   -8.6491  -14.4822 O   0  0  0  0  0  0  0  0  0  0  0  0
   24.5254   -1.1515  -17.4938 C   0  0  0  0  0  0  0  0  0  0  0  0
   24.0445   -2.7991  -18.0245 S   0  0  0  0  0  0  0  0  0  0  0  0
   23.6248   -3.8938  -16.6895 C   0  0  0  0  0  0  0  0  0  0  0  0
   23.2230   -5.2703  -17.0082 C   0  0  0  0  0  0  0  0  0  0  0  0
   22.9404   -6.1999  -15.8839 C   0  0  2  0  0  0  0  0  0  0  0  0
   22.4973   -7.5058  -16.4162 N   0  0  0  0  0  0  0  0  0  0  0  0
   22.0170   -5.7509  -14.8374 C   0  0  0  0  0  0  0  0  0  0  0  0
   22.3024   -5.0595  -13.8435 O   0  0  0  0  0  0  0  0  0  0  0  0
   20.6404   -6.1083  -14.9060 O   0  0  0  0  0  0  0  0  0  0  0  0
  2  1  1  6
  3  2  1  0
  3  4  1  0
  5  2  1  0
  5  6  2  0
  7  8  1  0
  8  9  2  0
  8 10  1  0
 10 11  1  0
 12 11  1  1
 12 13  1  0
 13  5  1  0
 14 12  1  0
 15 14  2  0
 16 17  1  0
 17 18  1  0
 18 19  1  0
 20 19  1  6
 20 22  1  0
 20 21  1  0
 21 14  1  0
 22 24  1  0
 23 22  2  0
M  END
$$$$
