CQM.pdb
     RDKit          3D

 24 23  0  0  1  0  0  0  0  0999 V2000
   20.5787  -21.7064  -12.8579 N   0  0  0  0  0  0  0  0  0  0  0  0
   20.6457  -20.3476  -13.3505 C   0  0  1  0  0  0  0  0  0  0  0  0
   19.8827  -19.3805  -12.4749 C   0  0  0  0  0  0  0  0  0  0  0  0
   18.1084  -19.5351  -12.8219 S   0  0  0  0  0  0  0  0  0  0  0  0
   22.0430  -19.9755  -13.5601 C   0  0  0  0  0  0  0  0  0  0  0  0
   22.8975  -19.8782  -12.6360 O   0  0  0  0  0  0  0  0  0  0  0  0
   27.7004  -19.7864  -14.7249 N   0  0  0  0  0  0  0  0  0  0  0  0
   26.7994  -20.7019  -15.3489 C   0  0  0  0  0  0  0  0  0  0  0  0
   26.8372  -21.8954  -14.9652 O   0  0  0  0  0  0  0  0  0  0  0  0
   25.8871  -20.2035  -16.3923 C   0  0  0  0  0  0  0  0  0  0  0  0
   24.4456  -20.4210  -16.0201 C   0  0  0  0  0  0  0  0  0  0  0  0
   23.8713  -19.3232  -15.1612 C   0  0  2  0  0  0  0  0  0  0  0  0
   22.4999  -19.6999  -14.8721 N   0  0  0  0  0  0  0  0  0  0  0  0
   23.9364  -18.0439  -15.9182 C   0  0  0  0  0  0  0  0  0  0  0  0
   23.1015  -17.8698  -16.8375 O   0  0  0  0  0  0  0  0  0  0  0  0
   28.3853  -13.2003  -14.4595 C   0  0  0  0  0  0  0  0  0  0  0  0
   27.3355  -12.4331  -15.6991 S   0  0  0  0  0  0  0  0  0  0  0  0
   26.1622  -13.5435  -16.4389 C   0  0  0  0  0  0  0  0  0  0  0  0
   25.9164  -14.8399  -15.7931 C   0  0  0  0  0  0  0  0  0  0  0  0
   24.9222  -15.7565  -16.4090 C   0  0  2  0  0  0  0  0  0  0  0  0
   24.8817  -17.0273  -15.6550 N   0  0  0  0  0  0  0  0  0  0  0  0
   25.0405  -16.0336  -17.8438 C   0  0  0  0  0  0  0  0  0  0  0  0
   25.6736  -16.9665  -18.3690 O   0  0  0  0  0  0  0  0  0  0  0  0
   24.3889  -15.1867  -18.7850 O   0  0  0  0  0  0  0  0  0  0  0  0
  2  1  1  1
  3  2  1  0
  3  4  1  0
  5  2  1  0
  5  6  2  0
  7  8  1  0
  8  9  2  0
  8 10  1  0
 10 11  1  0
 12 11  1  6
 12 13  1  0
 13  5  1  0
 14 12  1  0
 15 14  2  0
 16 17  1  0
 17 18  1  0
 18 19  1  0
 20 19  1  1
 20 22  1  0
 20 21  1  0
 21 14  1  0
 22 24  1  0
 23 22  2  0
M  END
$$$$
