CQM.pdb
     RDKit          3D

 24 23  0  0  1  0  0  0  0  0999 V2000
   21.1005  -28.3959  -12.3300 N   0  0  0  0  0  0  0  0  0  0  0  0
   19.9835  -28.5431  -11.4222 C   0  0  1  0  0  0  0  0  0  0  0  0
   19.9185  -29.9233  -10.8100 C   0  0  0  0  0  0  0  0  0  0  0  0
   18.5916  -29.9644   -9.5729 S   0  0  0  0  0  0  0  0  0  0  0  0
   20.0119  -27.4633  -10.4384 C   0  0  0  0  0  0  0  0  0  0  0  0
   21.0552  -27.0705   -9.8460 O   0  0  0  0  0  0  0  0  0  0  0  0
   17.0376  -22.4168  -11.2646 N   0  0  0  0  0  0  0  0  0  0  0  0
   17.4532  -22.1589   -9.9229 C   0  0  0  0  0  0  0  0  0  0  0  0
   17.2705  -21.0004   -9.4784 O   0  0  0  0  0  0  0  0  0  0  0  0
   18.0634  -23.2502   -9.1442 C   0  0  0  0  0  0  0  0  0  0  0  0
   18.1941  -24.5084   -9.9590 C   0  0  0  0  0  0  0  0  0  0  0  0
   18.7651  -25.6709   -9.1875 C   0  0  2  0  0  0  0  0  0  0  0  0
   18.8088  -26.7940  -10.1056 N   0  0  0  0  0  0  0  0  0  0  0  0
   17.8791  -25.9517   -8.0256 C   0  0  0  0  0  0  0  0  0  0  0  0
   16.7421  -26.4243   -8.2630 O   0  0  0  0  0  0  0  0  0  0  0  0
   20.1155  -27.6073   -2.0502 C   0  0  0  0  0  0  0  0  0  0  0  0
   18.4872  -26.9688   -1.6403 S   0  0  0  0  0  0  0  0  0  0  0  0
   17.5040  -26.5364   -3.0556 C   0  0  0  0  0  0  0  0  0  0  0  0
   18.1885  -26.1805   -4.3057 C   0  0  0  0  0  0  0  0  0  0  0  0
   17.3728  -26.0371   -5.5394 C   0  0  2  0  0  0  0  0  0  0  0  0
   18.2516  -25.7148   -6.6834 N   0  0  0  0  0  0  0  0  0  0  0  0
   16.2378  -25.1096   -5.5080 C   0  0  0  0  0  0  0  0  0  0  0  0
   16.2013  -23.9659   -5.9955 O   0  0  0  0  0  0  0  0  0  0  0  0
   15.0248  -25.4956   -4.8700 O   0  0  0  0  0  0  0  0  0  0  0  0
  2  1  1  1
  3  2  1  0
  3  4  1  0
  5  2  1  0
  5  6  2  0
  7  8  1  0
  8  9  2  0
  8 10  1  0
 10 11  1  0
 12 11  1  6
 12 13  1  0
 13  5  1  0
 14 12  1  0
 15 14  2  0
 16 17  1  0
 17 18  1  0
 18 19  1  0
 20 19  1  1
 20 22  1  0
 20 21  1  0
 21 14  1  0
 22 24  1  0
 23 22  2  0
M  END
$$$$
