CQM.pdb
     RDKit          3D

 24 23  0  0  1  0  0  0  0  0999 V2000
   20.1216  -13.2273  -17.2615 N   0  0  0  0  0  0  0  0  0  0  0  0
   19.5719  -12.8597  -15.9747 C   0  0  1  0  0  0  0  0  0  0  0  0
   19.2883  -14.0633  -15.1058 C   0  0  0  0  0  0  0  0  0  0  0  0
   18.0318  -15.0961  -15.9102 S   0  0  0  0  0  0  0  0  0  0  0  0
   20.4383  -11.8678  -15.3420 C   0  0  0  0  0  0  0  0  0  0  0  0
   20.2634  -11.4128  -14.1775 O   0  0  0  0  0  0  0  0  0  0  0  0
   26.3273  -11.5123  -16.6509 N   0  0  0  0  0  0  0  0  0  0  0  0
   25.7358  -12.2419  -15.5752 C   0  0  0  0  0  0  0  0  0  0  0  0
   26.4091  -13.1753  -15.0765 O   0  0  0  0  0  0  0  0  0  0  0  0
   24.3884  -11.8647  -15.1150 C   0  0  0  0  0  0  0  0  0  0  0  0
   23.8309  -10.7159  -15.9107 C   0  0  0  0  0  0  0  0  0  0  0  0
   22.4260  -10.3349  -15.5183 C   0  0  2  0  0  0  0  0  0  0  0  0
   21.5544  -11.3643  -16.0539 N   0  0  0  0  0  0  0  0  0  0  0  0
   22.1149   -9.0012  -16.1000 C   0  0  0  0  0  0  0  0  0  0  0  0
   22.0115   -8.9213  -17.3472 O   0  0  0  0  0  0  0  0  0  0  0  0
   17.5808   -4.2399  -19.0387 C   0  0  0  0  0  0  0  0  0  0  0  0
   18.2062   -5.7606  -18.3151 S   0  0  0  0  0  0  0  0  0  0  0  0
   19.6972   -5.5515  -17.3718 C   0  0  0  0  0  0  0  0  0  0  0  0
   20.2986   -6.7311  -16.7356 C   0  0  0  0  0  0  0  0  0  0  0  0
   21.5194   -6.5408  -15.9100 C   0  0  2  0  0  0  0  0  0  0  0  0
   21.9323   -7.8340  -15.3251 N   0  0  0  0  0  0  0  0  0  0  0  0
   21.4892   -5.5108  -14.8671 C   0  0  0  0  0  0  0  0  0  0  0  0
   21.3073   -5.6930  -13.6502 O   0  0  0  0  0  0  0  0  0  0  0  0
   21.6804   -4.1435  -15.2159 O   0  0  0  0  0  0  0  0  0  0  0  0
  2  1  1  6
  3  2  1  0
  3  4  1  0
  5  2  1  0
  5  6  2  0
  7  8  1  0
  8  9  2  0
  8 10  1  0
 10 11  1  0
 12 11  1  6
 12 13  1  0
 13  5  1  0
 14 12  1  0
 15 14  2  0
 16 17  1  0
 17 18  1  0
 18 19  1  0
 20 19  1  1
 20 22  1  0
 20 21  1  0
 21 14  1  0
 22 24  1  0
 23 22  2  0
M  END
$$$$
