GFH.pdb
     RDKit          3D

 26 27  0  0  1  0  0  0  0  0999 V2000
   39.5550  -22.8251    6.5506 N   0  0  0  0  0  0  0  0  0  0  0  0
   38.4896  -22.5259    5.6468 C   0  0  0  0  0  0  0  0  0  0  0  0
   37.2703  -23.3600    5.9336 C   0  0  0  0  0  0  0  0  0  0  0  0
   37.3027  -24.2104    6.8580 O   0  0  0  0  0  0  0  0  0  0  0  0
   36.0702  -23.2185    5.1880 N   0  0  0  0  0  0  0  0  0  0  0  0
   34.8571  -23.9620    5.4174 C   0  0  1  0  0  0  0  0  0  0  0  0
   33.6458  -23.1084    5.1364 C   0  0  0  0  0  0  0  0  0  0  0  0
   33.5859  -21.8854    5.9387 C   0  0  0  0  0  0  0  0  0  0  0  0
   33.7540  -20.6218    5.4012 C   0  0  0  0  0  0  0  0  0  0  0  0
   33.6887  -19.4857    6.2033 C   0  0  0  0  0  0  0  0  0  0  0  0
   33.4531  -19.6067    7.5585 C   0  0  0  0  0  0  0  0  0  0  0  0
   33.2819  -20.8667    8.1155 C   0  0  0  0  0  0  0  0  0  0  0  0
   33.3530  -21.9803    7.2873 C   0  0  0  0  0  0  0  0  0  0  0  0
   34.8231  -25.2530    4.7121 C   0  0  0  0  0  0  0  0  0  0  0  0
   34.5163  -25.2953    3.5056 O   0  0  0  0  0  0  0  0  0  0  0  0
   35.1286  -26.5220    5.3301 N   0  0  0  0  0  0  0  0  0  0  0  0
   35.1935  -27.7332    4.5363 C   0  0  1  0  0  0  0  0  0  0  0  0
   36.5701  -28.2050    4.2652 C   0  0  0  0  0  0  0  0  0  0  0  0
   36.7202  -29.3957    3.4219 C   0  0  0  0  0  0  0  0  0  0  0  0
   35.8290  -30.1821    2.7305 C   0  0  0  0  0  0  0  0  0  0  0  0
   36.5292  -31.1319    2.0958 N   0  0  0  0  0  0  0  0  0  0  0  0
   37.8203  -30.9497    2.3773 C   0  0  0  0  0  0  0  0  0  0  0  0
   37.9802  -29.8969    3.1861 N   0  0  0  0  0  0  0  0  0  0  0  0
   34.3137  -28.7656    5.1202 C   0  0  0  0  0  0  0  0  0  0  0  0
   33.5650  -29.5805    4.2969 O   0  0  0  0  0  0  0  0  0  0  0  0
   34.2319  -28.9186    6.3569 O   0  0  0  0  0  0  0  0  0  0  0  0
  2  1  1  0
  3  2  1  0
  3  4  2  0
  5  3  1  0
  6  5  1  0
  6  7  1  6
  8  7  1  0
  8 13  1  0
  9  8  2  0
 10  9  1  0
 10 11  2  0
 11 12  1  0
 12 13  2  0
 14  6  1  0
 14 16  1  0
 15 14  2  0
 17 16  1  0
 17 24  1  0
 17 18  1  1
 19 18  1  0
 19 23  1  0
 20 21  1  0
 20 19  2  0
 21 22  1  0
 22 23  2  0
 24 26  2  0
 24 25  1  0
M  END
$$$$
