GFH.pdb
     RDKit          3D

 26 27  0  0  1  0  0  0  0  0999 V2000
   24.1954  -12.6402  -18.8260 N   0  0  0  0  0  0  0  0  0  0  0  0
   23.1552  -11.6618  -18.8749 C   0  0  0  0  0  0  0  0  0  0  0  0
   23.2319  -10.7142  -17.7084 C   0  0  0  0  0  0  0  0  0  0  0  0
   22.7343  -11.0470  -16.6038 O   0  0  0  0  0  0  0  0  0  0  0  0
   23.8542   -9.4422  -17.8130 N   0  0  0  0  0  0  0  0  0  0  0  0
   23.9245   -8.4626  -16.7581 C   0  0  1  0  0  0  0  0  0  0  0  0
   25.3525   -8.0447  -16.5112 C   0  0  0  0  0  0  0  0  0  0  0  0
   26.2529   -9.1616  -16.2194 C   0  0  0  0  0  0  0  0  0  0  0  0
   26.1880   -9.8970  -15.0495 C   0  0  0  0  0  0  0  0  0  0  0  0
   27.0657  -10.9519  -14.8146 C   0  0  0  0  0  0  0  0  0  0  0  0
   28.0214  -11.2807  -15.7555 C   0  0  0  0  0  0  0  0  0  0  0  0
   28.1015  -10.5539  -16.9354 C   0  0  0  0  0  0  0  0  0  0  0  0
   27.2106   -9.5071  -17.1389 C   0  0  0  0  0  0  0  0  0  0  0  0
   23.0215   -7.3192  -16.9641 C   0  0  0  0  0  0  0  0  0  0  0  0
   22.9644   -6.7638  -18.0776 O   0  0  0  0  0  0  0  0  0  0  0  0
   22.1643   -6.7692  -15.9403 N   0  0  0  0  0  0  0  0  0  0  0  0
   21.2632   -5.6743  -16.2414 C   0  0  1  0  0  0  0  0  0  0  0  0
   19.8323   -6.0530  -16.2454 C   0  0  0  0  0  0  0  0  0  0  0  0
   19.3788   -6.9607  -17.3047 C   0  0  0  0  0  0  0  0  0  0  0  0
   19.6038   -7.0183  -18.6599 C   0  0  0  0  0  0  0  0  0  0  0  0
   18.9568   -8.0905  -19.1362 N   0  0  0  0  0  0  0  0  0  0  0  0
   18.3443   -8.6901  -18.1142 C   0  0  0  0  0  0  0  0  0  0  0  0
   18.5775   -8.0301  -16.9748 N   0  0  0  0  0  0  0  0  0  0  0  0
   21.5711   -4.5168  -15.3775 C   0  0  0  0  0  0  0  0  0  0  0  0
   20.9048   -3.3230  -15.5597 O   0  0  0  0  0  0  0  0  0  0  0  0
   22.4312   -4.5962  -14.4755 O   0  0  0  0  0  0  0  0  0  0  0  0
  2  1  1  0
  3  2  1  0
  3  4  2  0
  5  3  1  0
  6  5  1  0
  6  7  1  6
  8  7  1  0
  8 13  1  0
  9  8  2  0
 10  9  1  0
 10 11  2  0
 11 12  1  0
 12 13  2  0
 14  6  1  0
 14 16  1  0
 15 14  2  0
 17 16  1  0
 17 24  1  0
 17 18  1  1
 19 18  1  0
 19 23  1  0
 20 21  1  0
 20 19  2  0
 21 22  1  0
 22 23  2  0
 24 26  2  0
 24 25  1  0
M  END
$$$$
