GFH.pdb
     RDKit          3D

 26 27  0  0  1  0  0  0  0  0999 V2000
   28.5045  -21.7125  -15.5064 N   0  0  0  0  0  0  0  0  0  0  0  0
   28.2130  -20.6872  -14.5549 C   0  0  0  0  0  0  0  0  0  0  0  0
   27.1424  -21.1175  -13.5888 C   0  0  0  0  0  0  0  0  0  0  0  0
   26.4516  -22.1365  -13.8404 O   0  0  0  0  0  0  0  0  0  0  0  0
   26.8820  -20.4046  -12.3888 N   0  0  0  0  0  0  0  0  0  0  0  0
   25.7275  -20.5901  -11.5462 C   0  0  1  0  0  0  0  0  0  0  0  0
   25.9282  -19.9205  -10.2097 C   0  0  0  0  0  0  0  0  0  0  0  0
   27.1234  -20.3730   -9.4957 C   0  0  0  0  0  0  0  0  0  0  0  0
   27.3057  -20.1878   -8.1370 C   0  0  0  0  0  0  0  0  0  0  0  0
   28.4597  -20.6353   -7.4996 C   0  0  0  0  0  0  0  0  0  0  0  0
   29.4466  -21.2760   -8.2224 C   0  0  0  0  0  0  0  0  0  0  0  0
   29.2810  -21.4708   -9.5868 C   0  0  0  0  0  0  0  0  0  0  0  0
   28.1175  -21.0120  -10.1924 C   0  0  0  0  0  0  0  0  0  0  0  0
   24.4647  -20.2040  -12.1954 C   0  0  0  0  0  0  0  0  0  0  0  0
   24.4491  -19.2721  -13.0219 O   0  0  0  0  0  0  0  0  0  0  0  0
   23.1948  -20.8430  -11.9414 N   0  0  0  0  0  0  0  0  0  0  0  0
   22.1837  -20.9144  -12.9778 C   0  0  1  0  0  0  0  0  0  0  0  0
   22.5307  -21.8160  -14.0994 C   0  0  0  0  0  0  0  0  0  0  0  0
   21.5502  -21.9525  -15.1817 C   0  0  0  0  0  0  0  0  0  0  0  0
   20.2980  -22.5156  -15.2566 C   0  0  0  0  0  0  0  0  0  0  0  0
   19.8374  -22.3236  -16.5001 N   0  0  0  0  0  0  0  0  0  0  0  0
   20.7689  -21.6603  -17.1868 C   0  0  0  0  0  0  0  0  0  0  0  0
   21.8334  -21.4135  -16.4161 N   0  0  0  0  0  0  0  0  0  0  0  0
   20.8643  -21.1925  -12.3756 C   0  0  0  0  0  0  0  0  0  0  0  0
   19.8104  -20.3299  -12.5938 O   0  0  0  0  0  0  0  0  0  0  0  0
   20.6799  -22.2030  -11.6653 O   0  0  0  0  0  0  0  0  0  0  0  0
  2  1  1  0
  3  2  1  0
  3  4  2  0
  5  3  1  0
  6  5  1  0
  6  7  1  1
  8  7  1  0
  8 13  1  0
  9  8  2  0
 10  9  1  0
 10 11  2  0
 11 12  1  0
 12 13  2  0
 14  6  1  0
 14 16  1  0
 15 14  2  0
 17 16  1  0
 17 24  1  0
 17 18  1  6
 19 18  1  0
 19 23  1  0
 20 21  1  0
 20 19  2  0
 21 22  1  0
 22 23  2  0
 24 26  2  0
 24 25  1  0
M  END
$$$$
