GFH.pdb
     RDKit          3D

 26 27  0  0  1  0  0  0  0  0999 V2000
   31.3314  -20.4312   -9.8652 N   0  0  0  0  0  0  0  0  0  0  0  0
   30.6680  -21.6623  -10.1582 C   0  0  0  0  0  0  0  0  0  0  0  0
   29.2461  -21.6553   -9.6653 C   0  0  0  0  0  0  0  0  0  0  0  0
   28.6015  -22.7325   -9.6128 O   0  0  0  0  0  0  0  0  0  0  0  0
   28.5995  -20.4606   -9.2524 N   0  0  0  0  0  0  0  0  0  0  0  0
   27.2193  -20.3595   -8.8497 C   0  0  1  0  0  0  0  0  0  0  0  0
   27.0453  -19.2886   -7.8020 C   0  0  0  0  0  0  0  0  0  0  0  0
   27.6771  -19.6075   -6.5206 C   0  0  0  0  0  0  0  0  0  0  0  0
   28.9037  -19.0960   -6.1364 C   0  0  0  0  0  0  0  0  0  0  0  0
   29.4668  -19.4272   -4.9069 C   0  0  0  0  0  0  0  0  0  0  0  0
   28.8017  -20.2787   -4.0469 C   0  0  0  0  0  0  0  0  0  0  0  0
   27.5698  -20.8016   -4.4156 C   0  0  0  0  0  0  0  0  0  0  0  0
   27.0356  -20.4511   -5.6496 C   0  0  0  0  0  0  0  0  0  0  0  0
   26.2920  -20.2078   -9.9821 C   0  0  0  0  0  0  0  0  0  0  0  0
   26.4529  -19.2810  -10.7987 O   0  0  0  0  0  0  0  0  0  0  0  0
   25.1685  -21.0802  -10.2315 N   0  0  0  0  0  0  0  0  0  0  0  0
   24.5256  -21.1032  -11.5306 C   0  0  1  0  0  0  0  0  0  0  0  0
   24.7704  -22.3412  -12.3042 C   0  0  0  0  0  0  0  0  0  0  0  0
   24.0822  -22.4776  -13.5924 C   0  0  0  0  0  0  0  0  0  0  0  0
   23.2382  -21.6580  -14.3040 C   0  0  0  0  0  0  0  0  0  0  0  0
   22.9301  -22.2833  -15.4482 N   0  0  0  0  0  0  0  0  0  0  0  0
   23.5602  -23.4589  -15.4580 C   0  0  0  0  0  0  0  0  0  0  0  0
   24.2766  -23.6168  -14.3400 N   0  0  0  0  0  0  0  0  0  0  0  0
   23.0959  -20.7604  -11.3909 C   0  0  0  0  0  0  0  0  0  0  0  0
   22.3306  -20.5214  -12.5133 O   0  0  0  0  0  0  0  0  0  0  0  0
   22.5588  -20.6814  -10.2663 O   0  0  0  0  0  0  0  0  0  0  0  0
  2  1  1  0
  3  2  1  0
  3  4  2  0
  5  3  1  0
  6  5  1  0
  6  7  1  1
  8  7  1  0
  8 13  1  0
  9  8  2  0
 10  9  1  0
 10 11  2  0
 11 12  1  0
 12 13  2  0
 14  6  1  0
 14 16  1  0
 15 14  2  0
 17 16  1  0
 17 24  1  0
 17 18  1  1
 19 18  1  0
 19 23  1  0
 20 21  1  0
 20 19  2  0
 21 22  1  0
 22 23  2  0
 24 26  2  0
 24 25  1  0
M  END
$$$$
