GFH.pdb
     RDKit          3D

 26 27  0  0  1  0  0  0  0  0999 V2000
   20.7770  -14.6840  -19.5766 N   0  0  0  0  0  0  0  0  0  0  0  0
   20.8099  -15.0853  -18.2057 C   0  0  0  0  0  0  0  0  0  0  0  0
   21.7244  -14.2078  -17.3943 C   0  0  0  0  0  0  0  0  0  0  0  0
   21.5780  -14.1420  -16.1482 O   0  0  0  0  0  0  0  0  0  0  0  0
   22.7590  -13.4423  -17.9941 N   0  0  0  0  0  0  0  0  0  0  0  0
   23.7116  -12.6298  -17.2803 C   0  0  1  0  0  0  0  0  0  0  0  0
   25.0871  -12.7635  -17.8846 C   0  0  0  0  0  0  0  0  0  0  0  0
   26.1531  -12.1932  -17.0591 C   0  0  0  0  0  0  0  0  0  0  0  0
   26.7663  -10.9870  -17.3468 C   0  0  0  0  0  0  0  0  0  0  0  0
   27.7768  -10.4829  -16.5326 C   0  0  0  0  0  0  0  0  0  0  0  0
   28.1838  -11.1871  -15.4167 C   0  0  0  0  0  0  0  0  0  0  0  0
   27.5798  -12.3993  -15.1122 C   0  0  0  0  0  0  0  0  0  0  0  0
   26.5744  -12.8745  -15.9454 C   0  0  0  0  0  0  0  0  0  0  0  0
   23.2862  -11.2291  -17.1313 C   0  0  0  0  0  0  0  0  0  0  0  0
   22.8755  -10.5945  -18.1214 O   0  0  0  0  0  0  0  0  0  0  0  0
   23.3075  -10.5045  -15.8823 N   0  0  0  0  0  0  0  0  0  0  0  0
   22.7437   -9.1721  -15.7919 C   0  0  1  0  0  0  0  0  0  0  0  0
   21.7960   -8.9919  -14.6691 C   0  0  0  0  0  0  0  0  0  0  0  0
   20.4471   -9.5450  -14.8309 C   0  0  0  0  0  0  0  0  0  0  0  0
   19.8283  -10.2463  -15.8388 C   0  0  0  0  0  0  0  0  0  0  0  0
   18.5829  -10.5298  -15.4341 N   0  0  0  0  0  0  0  0  0  0  0  0
   18.4220  -10.0243  -14.2103 C   0  0  0  0  0  0  0  0  0  0  0  0
   19.5400   -9.4134  -13.8041 N   0  0  0  0  0  0  0  0  0  0  0  0
   23.8232   -8.1650  -15.8283 C   0  0  0  0  0  0  0  0  0  0  0  0
   25.1423   -8.5676  -15.8480 O   0  0  0  0  0  0  0  0  0  0  0  0
   23.5649   -6.9432  -15.8417 O   0  0  0  0  0  0  0  0  0  0  0  0
  2  1  1  0
  3  2  1  0
  3  4  2  0
  5  3  1  0
  6  5  1  0
  6  7  1  6
  8  7  1  0
  8 13  1  0
  9  8  2  0
 10  9  1  0
 10 11  2  0
 11 12  1  0
 12 13  2  0
 14  6  1  0
 14 16  1  0
 15 14  2  0
 17 16  1  0
 17 24  1  0
 17 18  1  1
 19 18  1  0
 19 23  1  0
 20 21  1  0
 20 19  2  0
 21 22  1  0
 22 23  2  0
 24 26  2  0
 24 25  1  0
M  END
$$$$
