GFH.pdb
     RDKit          3D

 26 27  0  0  1  0  0  0  0  0999 V2000
   26.8677  -24.5533  -16.5093 N   0  0  0  0  0  0  0  0  0  0  0  0
   26.8072  -23.1985  -16.0595 C   0  0  0  0  0  0  0  0  0  0  0  0
   25.7990  -23.0268  -14.9554 C   0  0  0  0  0  0  0  0  0  0  0  0
   24.9714  -23.9429  -14.7218 O   0  0  0  0  0  0  0  0  0  0  0  0
   25.7491  -21.8524  -14.1589 N   0  0  0  0  0  0  0  0  0  0  0  0
   24.7536  -21.5709  -13.1555 C   0  0  1  0  0  0  0  0  0  0  0  0
   25.3108  -20.6594  -12.0908 C   0  0  0  0  0  0  0  0  0  0  0  0
   24.3987  -20.4359  -10.9678 C   0  0  0  0  0  0  0  0  0  0  0  0
   23.2122  -19.7348  -11.0878 C   0  0  0  0  0  0  0  0  0  0  0  0
   22.3750  -19.5467   -9.9914 C   0  0  0  0  0  0  0  0  0  0  0  0
   22.7215  -20.0627   -8.7583 C   0  0  0  0  0  0  0  0  0  0  0  0
   23.9083  -20.7691   -8.6189 C   0  0  0  0  0  0  0  0  0  0  0  0
   24.7214  -20.9389   -9.7330 C   0  0  0  0  0  0  0  0  0  0  0  0
   23.4828  -21.0854  -13.7162 C   0  0  0  0  0  0  0  0  0  0  0  0
   23.4770  -20.1135  -14.4953 O   0  0  0  0  0  0  0  0  0  0  0  0
   22.1938  -21.6676  -13.4245 N   0  0  0  0  0  0  0  0  0  0  0  0
   21.0290  -21.3148  -14.2121 C   0  0  1  0  0  0  0  0  0  0  0  0
   20.9578  -21.9961  -15.5243 C   0  0  0  0  0  0  0  0  0  0  0  0
   19.7603  -21.7648  -16.3393 C   0  0  0  0  0  0  0  0  0  0  0  0
   18.6178  -21.0236  -16.1504 C   0  0  0  0  0  0  0  0  0  0  0  0
   17.8619  -21.1508  -17.2493 N   0  0  0  0  0  0  0  0  0  0  0  0
   18.5074  -21.9460  -18.1038 C   0  0  0  0  0  0  0  0  0  0  0  0
   19.6741  -22.3436  -17.5851 N   0  0  0  0  0  0  0  0  0  0  0  0
   19.8065  -21.4623  -13.3969 C   0  0  0  0  0  0  0  0  0  0  0  0
   19.7240  -22.4632  -12.4513 O   0  0  0  0  0  0  0  0  0  0  0  0
   18.8349  -20.6920  -13.5465 O   0  0  0  0  0  0  0  0  0  0  0  0
  2  1  1  0
  3  2  1  0
  3  4  2  0
  5  3  1  0
  6  5  1  0
  6  7  1  1
  8  7  1  0
  8 13  1  0
  9  8  2  0
 10  9  1  0
 10 11  2  0
 11 12  1  0
 12 13  2  0
 14  6  1  0
 14 16  1  0
 15 14  2  0
 17 16  1  0
 17 24  1  0
 17 18  1  6
 19 18  1  0
 19 23  1  0
 20 21  1  0
 20 19  2  0
 21 22  1  0
 22 23  2  0
 24 26  2  0
 24 25  1  0
M  END
$$$$
