GFH.pdb
     RDKit          3D

 26 27  0  0  1  0  0  0  0  0999 V2000
   18.7673  -10.0757  -18.5103 N   0  0  0  0  0  0  0  0  0  0  0  0
   19.9108  -10.7274  -17.9542 C   0  0  0  0  0  0  0  0  0  0  0  0
   20.3889  -10.0359  -16.7059 C   0  0  0  0  0  0  0  0  0  0  0  0
   19.8167  -10.2647  -15.6110 O   0  0  0  0  0  0  0  0  0  0  0  0
   21.4766   -9.1234  -16.7218 N   0  0  0  0  0  0  0  0  0  0  0  0
   21.9746   -8.4046  -15.5761 C   0  0  1  0  0  0  0  0  0  0  0  0
   23.3800   -8.8385  -15.2425 C   0  0  0  0  0  0  0  0  0  0  0  0
   23.5021  -10.2661  -14.9424 C   0  0  0  0  0  0  0  0  0  0  0  0
   22.9093  -10.8589  -13.8419 C   0  0  0  0  0  0  0  0  0  0  0  0
   23.0526  -12.2217  -13.5960 C   0  0  0  0  0  0  0  0  0  0  0  0
   23.7953  -13.0067  -14.4557 C   0  0  0  0  0  0  0  0  0  0  0  0
   24.3974  -12.4292  -15.5652 C   0  0  0  0  0  0  0  0  0  0  0  0
   24.2349  -11.0663  -15.7818 C   0  0  0  0  0  0  0  0  0  0  0  0
   21.8414   -6.9445  -15.7018 C   0  0  0  0  0  0  0  0  0  0  0  0
   22.1948   -6.3753  -16.7519 O   0  0  0  0  0  0  0  0  0  0  0  0
   21.3141   -6.0871  -14.6663 N   0  0  0  0  0  0  0  0  0  0  0  0
   21.1987   -4.6578  -14.8788 C   0  0  1  0  0  0  0  0  0  0  0  0
   19.8369   -4.1218  -14.6564 C   0  0  0  0  0  0  0  0  0  0  0  0
   18.7902   -4.5300  -15.5994 C   0  0  0  0  0  0  0  0  0  0  0  0
   18.7920   -4.8292  -16.9415 C   0  0  0  0  0  0  0  0  0  0  0  0
   17.5441   -5.1758  -17.2845 N   0  0  0  0  0  0  0  0  0  0  0  0
   16.7803   -5.0984  -16.1938 C   0  0  0  0  0  0  0  0  0  0  0  0
   17.5047   -4.7067  -15.1403 N   0  0  0  0  0  0  0  0  0  0  0  0
   22.2493   -3.9496  -14.1202 C   0  0  0  0  0  0  0  0  0  0  0  0
   22.4249   -2.5918  -14.2874 O   0  0  0  0  0  0  0  0  0  0  0  0
   22.9905   -4.5600  -13.3216 O   0  0  0  0  0  0  0  0  0  0  0  0
  2  1  1  0
  3  2  1  0
  3  4  2  0
  5  3  1  0
  6  5  1  0
  6  7  1  6
  8  7  1  0
  8 13  1  0
  9  8  2  0
 10  9  1  0
 10 11  2  0
 11 12  1  0
 12 13  2  0
 14  6  1  0
 14 16  1  0
 15 14  2  0
 17 16  1  0
 17 24  1  0
 17 18  1  1
 19 18  1  0
 19 23  1  0
 20 21  1  0
 20 19  2  0
 21 22  1  0
 22 23  2  0
 24 26  2  0
 24 25  1  0
M  END
$$$$
