GFH.pdb
     RDKit          3D

 26 27  0  0  1  0  0  0  0  0999 V2000
   29.1538  -20.1900  -13.9459 N   0  0  0  0  0  0  0  0  0  0  0  0
   28.3874  -19.4562  -12.9889 C   0  0  0  0  0  0  0  0  0  0  0  0
   27.2943  -20.3004  -12.3913 C   0  0  0  0  0  0  0  0  0  0  0  0
   27.0170  -21.4128  -12.9053 O   0  0  0  0  0  0  0  0  0  0  0  0
   26.5563  -19.8794  -11.2536 N   0  0  0  0  0  0  0  0  0  0  0  0
   25.4786  -20.6164  -10.6432 C   0  0  1  0  0  0  0  0  0  0  0  0
   25.3609  -20.2763   -9.1785 C   0  0  0  0  0  0  0  0  0  0  0  0
   26.6204  -20.3934   -8.4417 C   0  0  0  0  0  0  0  0  0  0  0  0
   27.5563  -21.3790   -8.6995 C   0  0  0  0  0  0  0  0  0  0  0  0
   28.7415  -21.4518   -7.9728 C   0  0  0  0  0  0  0  0  0  0  0  0
   29.0006  -20.5323   -6.9757 C   0  0  0  0  0  0  0  0  0  0  0  0
   28.0731  -19.5362   -6.7029 C   0  0  0  0  0  0  0  0  0  0  0  0
   26.9001  -19.4915   -7.4466 C   0  0  0  0  0  0  0  0  0  0  0  0
   24.2027  -20.4869  -11.3648 C   0  0  0  0  0  0  0  0  0  0  0  0
   23.7434  -19.3574  -11.6194 O   0  0  0  0  0  0  0  0  0  0  0  0
   23.4112  -21.6066  -11.8180 N   0  0  0  0  0  0  0  0  0  0  0  0
   22.2752  -21.4010  -12.6947 C   0  0  1  0  0  0  0  0  0  0  0  0
   22.2943  -22.2385  -13.9151 C   0  0  0  0  0  0  0  0  0  0  0  0
   23.2042  -21.8370  -14.9933 C   0  0  0  0  0  0  0  0  0  0  0  0
   23.8155  -20.6496  -15.3206 C   0  0  0  0  0  0  0  0  0  0  0  0
   24.5756  -20.8661  -16.4024 N   0  0  0  0  0  0  0  0  0  0  0  0
   24.4484  -22.1487  -16.7457 C   0  0  0  0  0  0  0  0  0  0  0  0
   23.6176  -22.7785  -15.9083 N   0  0  0  0  0  0  0  0  0  0  0  0
   21.0197  -21.4997  -11.9235 C   0  0  0  0  0  0  0  0  0  0  0  0
   20.7849  -22.5996  -11.1249 O   0  0  0  0  0  0  0  0  0  0  0  0
   20.1562  -20.5992  -11.9793 O   0  0  0  0  0  0  0  0  0  0  0  0
  2  1  1  0
  3  2  1  0
  3  4  2  0
  5  3  1  0
  6  5  1  0
  6  7  1  1
  8  7  1  0
  8 13  1  0
  9  8  2  0
 10  9  1  0
 10 11  2  0
 11 12  1  0
 12 13  2  0
 14  6  1  0
 14 16  1  0
 15 14  2  0
 17 16  1  0
 17 24  1  0
 17 18  1  6
 19 18  1  0
 19 23  1  0
 20 21  1  0
 20 19  2  0
 21 22  1  0
 22 23  2  0
 24 26  2  0
 24 25  1  0
M  END
$$$$
