GFH.pdb
     RDKit          3D

 26 27  0  0  1  0  0  0  0  0999 V2000
   23.8480  -14.1346  -17.6387 N   0  0  0  0  0  0  0  0  0  0  0  0
   23.2356  -12.8583  -17.8332 C   0  0  0  0  0  0  0  0  0  0  0  0
   23.8237  -11.8176  -16.9189 C   0  0  0  0  0  0  0  0  0  0  0  0
   23.6070  -11.8826  -15.6831 O   0  0  0  0  0  0  0  0  0  0  0  0
   24.6241  -10.7522  -17.4092 N   0  0  0  0  0  0  0  0  0  0  0  0
   25.1318   -9.6615  -16.6156 C   0  0  1  0  0  0  0  0  0  0  0  0
   26.6320   -9.5647  -16.7378 C   0  0  0  0  0  0  0  0  0  0  0  0
   27.3297  -10.8211  -16.4593 C   0  0  0  0  0  0  0  0  0  0  0  0
   27.8271  -11.6441  -17.4538 C   0  0  0  0  0  0  0  0  0  0  0  0
   28.4846  -12.8310  -17.1418 C   0  0  0  0  0  0  0  0  0  0  0  0
   28.6503  -13.2055  -15.8230 C   0  0  0  0  0  0  0  0  0  0  0  0
   28.1577  -12.3922  -14.8117 C   0  0  0  0  0  0  0  0  0  0  0  0
   27.5064  -11.2142  -15.1569 C   0  0  0  0  0  0  0  0  0  0  0  0
   24.4527   -8.3833  -16.8806 C   0  0  0  0  0  0  0  0  0  0  0  0
   24.2054   -8.0410  -18.0525 O   0  0  0  0  0  0  0  0  0  0  0  0
   24.0346   -7.4597  -15.8522 N   0  0  0  0  0  0  0  0  0  0  0  0
   23.3341   -6.2383  -16.1971 C   0  0  1  0  0  0  0  0  0  0  0  0
   22.0186   -6.0886  -15.5350 C   0  0  0  0  0  0  0  0  0  0  0  0
   20.9430   -6.9895  -15.9627 C   0  0  0  0  0  0  0  0  0  0  0  0
   20.8722   -8.0038  -16.8884 C   0  0  0  0  0  0  0  0  0  0  0  0
   19.6349   -8.5153  -16.8401 N   0  0  0  0  0  0  0  0  0  0  0  0
   18.9478   -7.8457  -15.9135 C   0  0  0  0  0  0  0  0  0  0  0  0
   19.7123   -6.9030  -15.3523 N   0  0  0  0  0  0  0  0  0  0  0  0
   24.2281   -5.0769  -16.0161 C   0  0  0  0  0  0  0  0  0  0  0  0
   23.8074   -3.8174  -16.3892 O   0  0  0  0  0  0  0  0  0  0  0  0
   25.3693   -5.2117  -15.5273 O   0  0  0  0  0  0  0  0  0  0  0  0
  2  1  1  0
  3  2  1  0
  3  4  2  0
  5  3  1  0
  6  5  1  0
  6  7  1  6
  8  7  1  0
  8 13  1  0
  9  8  2  0
 10  9  1  0
 10 11  2  0
 11 12  1  0
 12 13  2  0
 14  6  1  0
 14 16  1  0
 15 14  2  0
 17 16  1  0
 17 24  1  0
 17 18  1  1
 19 18  1  0
 19 23  1  0
 20 21  1  0
 20 19  2  0
 21 22  1  0
 22 23  2  0
 24 26  2  0
 24 25  1  0
M  END
$$$$
