GFH.pdb
     RDKit          3D

 26 27  0  0  1  0  0  0  0  0999 V2000
   26.0486  -25.8078  -15.5364 N   0  0  0  0  0  0  0  0  0  0  0  0
   26.1898  -24.4320  -15.8956 C   0  0  0  0  0  0  0  0  0  0  0  0
   25.4948  -23.5295  -14.9121 C   0  0  0  0  0  0  0  0  0  0  0  0
   24.5608  -23.9835  -14.2048 O   0  0  0  0  0  0  0  0  0  0  0  0
   25.8613  -22.1670  -14.7532 N   0  0  0  0  0  0  0  0  0  0  0  0
   25.2339  -21.2382  -13.8472 C   0  0  1  0  0  0  0  0  0  0  0  0
   26.2423  -20.2565  -13.3050 C   0  0  0  0  0  0  0  0  0  0  0  0
   26.7275  -20.5877  -11.9642 C   0  0  0  0  0  0  0  0  0  0  0  0
   27.9901  -21.0993  -11.7240 C   0  0  0  0  0  0  0  0  0  0  0  0
   28.4092  -21.4000  -10.4308 C   0  0  0  0  0  0  0  0  0  0  0  0
   27.5618  -21.1892   -9.3611 C   0  0  0  0  0  0  0  0  0  0  0  0
   26.2911  -20.6763   -9.5829 C   0  0  0  0  0  0  0  0  0  0  0  0
   25.9037  -20.3869  -10.8857 C   0  0  0  0  0  0  0  0  0  0  0  0
   24.0458  -20.5824  -14.4161 C   0  0  0  0  0  0  0  0  0  0  0  0
   24.0046  -20.3151  -15.6321 O   0  0  0  0  0  0  0  0  0  0  0  0
   22.8805  -20.2101  -13.6487 N   0  0  0  0  0  0  0  0  0  0  0  0
   21.6972  -19.6926  -14.3070 C   0  0  1  0  0  0  0  0  0  0  0  0
   20.4486  -19.8690  -13.5318 C   0  0  0  0  0  0  0  0  0  0  0  0
   19.9837  -21.2419  -13.3067 C   0  0  0  0  0  0  0  0  0  0  0  0
   20.3615  -22.4624  -13.8149 C   0  0  0  0  0  0  0  0  0  0  0  0
   19.6079  -23.4009  -13.2263 N   0  0  0  0  0  0  0  0  0  0  0  0
   18.7822  -22.7918  -12.3740 C   0  0  0  0  0  0  0  0  0  0  0  0
   18.9801  -21.4695  -12.3927 N   0  0  0  0  0  0  0  0  0  0  0  0
   21.9336  -18.3034  -14.7486 C   0  0  0  0  0  0  0  0  0  0  0  0
   21.0254  -17.6788  -15.5778 O   0  0  0  0  0  0  0  0  0  0  0  0
   22.9490  -17.6748  -14.3835 O   0  0  0  0  0  0  0  0  0  0  0  0
  2  1  1  0
  3  2  1  0
  3  4  2  0
  5  3  1  0
  6  5  1  0
  6  7  1  6
  8  7  1  0
  8 13  1  0
  9  8  2  0
 10  9  1  0
 10 11  2  0
 11 12  1  0
 12 13  2  0
 14  6  1  0
 14 16  1  0
 15 14  2  0
 17 16  1  0
 17 24  1  0
 17 18  1  1
 19 18  1  0
 19 23  1  0
 20 21  1  0
 20 19  2  0
 21 22  1  0
 22 23  2  0
 24 26  2  0
 24 25  1  0
M  END
$$$$
