GFH.pdb
     RDKit          3D

 26 27  0  0  1  0  0  0  0  0999 V2000
   19.2536   -9.3840  -16.3741 N   0  0  0  0  0  0  0  0  0  0  0  0
   18.3217   -8.3750  -15.9806 C   0  0  0  0  0  0  0  0  0  0  0  0
   18.3760   -8.1198  -14.4985 C   0  0  0  0  0  0  0  0  0  0  0  0
   17.8669   -8.9511  -13.7058 O   0  0  0  0  0  0  0  0  0  0  0  0
   18.9894   -6.9591  -13.9576 N   0  0  0  0  0  0  0  0  0  0  0  0
   19.1462   -6.6807  -12.5522 C   0  0  1  0  0  0  0  0  0  0  0  0
   20.5983   -6.4594  -12.2099 C   0  0  0  0  0  0  0  0  0  0  0  0
   21.4180   -7.6688  -12.3017 C   0  0  0  0  0  0  0  0  0  0  0  0
   21.5323   -8.5826  -11.2695 C   0  0  0  0  0  0  0  0  0  0  0  0
   22.3242   -9.7201  -11.4016 C   0  0  0  0  0  0  0  0  0  0  0  0
   23.0121   -9.9530  -12.5761 C   0  0  0  0  0  0  0  0  0  0  0  0
   22.9093   -9.0470  -13.6228 C   0  0  0  0  0  0  0  0  0  0  0  0
   22.1107   -7.9217  -13.4585 C   0  0  0  0  0  0  0  0  0  0  0  0
   18.2739   -5.5971  -12.0724 C   0  0  0  0  0  0  0  0  0  0  0  0
   18.2911   -4.4875  -12.6381 O   0  0  0  0  0  0  0  0  0  0  0  0
   17.3657   -5.7222  -10.9566 N   0  0  0  0  0  0  0  0  0  0  0  0
   16.4806   -4.6313  -10.5990 C   0  0  1  0  0  0  0  0  0  0  0  0
   15.0745   -5.0400  -10.3828 C   0  0  0  0  0  0  0  0  0  0  0  0
   14.3255   -5.5193  -11.5494 C   0  0  0  0  0  0  0  0  0  0  0  0
   14.6280   -5.6296  -12.8862 C   0  0  0  0  0  0  0  0  0  0  0  0
   13.5675   -6.1696  -13.5018 N   0  0  0  0  0  0  0  0  0  0  0  0
   12.6271   -6.3932  -12.5827 C   0  0  0  0  0  0  0  0  0  0  0  0
   13.0512   -6.0092  -11.3741 N   0  0  0  0  0  0  0  0  0  0  0  0
   17.0570   -3.8622   -9.4777 C   0  0  0  0  0  0  0  0  0  0  0  0
   16.5343   -2.6298   -9.1454 O   0  0  0  0  0  0  0  0  0  0  0  0
   18.0179   -4.3083   -8.8165 O   0  0  0  0  0  0  0  0  0  0  0  0
  2  1  1  0
  3  2  1  0
  3  4  2  0
  5  3  1  0
  6  5  1  0
  6  7  1  6
  8  7  1  0
  8 13  1  0
  9  8  2  0
 10  9  1  0
 10 11  2  0
 11 12  1  0
 12 13  2  0
 14  6  1  0
 14 16  1  0
 15 14  2  0
 17 16  1  0
 17 24  1  0
 17 18  1  1
 19 18  1  0
 19 23  1  0
 20 21  1  0
 20 19  2  0
 21 22  1  0
 22 23  2  0
 24 26  2  0
 24 25  1  0
M  END
$$$$
