GFH.pdb
     RDKit          3D

 26 27  0  0  1  0  0  0  0  0999 V2000
   21.3499  -31.1016  -12.1248 N   0  0  0  0  0  0  0  0  0  0  0  0
   21.4196  -30.8758  -10.7157 C   0  0  0  0  0  0  0  0  0  0  0  0
   21.8338  -32.1193   -9.9761 C   0  0  0  0  0  0  0  0  0  0  0  0
   21.7244  -33.2396  -10.5343 O   0  0  0  0  0  0  0  0  0  0  0  0
   22.3499  -32.0709   -8.6542 N   0  0  0  0  0  0  0  0  0  0  0  0
   22.8420  -33.2046   -7.9126 C   0  0  1  0  0  0  0  0  0  0  0  0
   24.2159  -32.9242   -7.3570 C   0  0  0  0  0  0  0  0  0  0  0  0
   25.2793  -32.9649   -8.3623 C   0  0  0  0  0  0  0  0  0  0  0  0
   25.8713  -31.8270   -8.8804 C   0  0  0  0  0  0  0  0  0  0  0  0
   26.8803  -31.9138   -9.8358 C   0  0  0  0  0  0  0  0  0  0  0  0
   27.3070  -33.1487  -10.2828 C   0  0  0  0  0  0  0  0  0  0  0  0
   26.7245  -34.3015   -9.7742 C   0  0  0  0  0  0  0  0  0  0  0  0
   25.7200  -34.1800   -8.8217 C   0  0  0  0  0  0  0  0  0  0  0  0
   21.8990  -33.6856   -6.8906 C   0  0  0  0  0  0  0  0  0  0  0  0
   21.3348  -32.8737   -6.1328 O   0  0  0  0  0  0  0  0  0  0  0  0
   21.5629  -35.0754   -6.6885 N   0  0  0  0  0  0  0  0  0  0  0  0
   20.5423  -35.4569   -5.7322 C   0  0  1  0  0  0  0  0  0  0  0  0
   19.4736  -36.3110   -6.2974 C   0  0  0  0  0  0  0  0  0  0  0  0
   18.5695  -35.6988   -7.2768 C   0  0  0  0  0  0  0  0  0  0  0  0
   17.9248  -34.4858   -7.3384 C   0  0  0  0  0  0  0  0  0  0  0  0
   17.2425  -34.4439   -8.4907 N   0  0  0  0  0  0  0  0  0  0  0  0
   17.4507  -35.5930   -9.1352 C   0  0  0  0  0  0  0  0  0  0  0  0
   18.2578  -36.3891   -8.4261 N   0  0  0  0  0  0  0  0  0  0  0  0
   21.1727  -36.0152   -4.5190 C   0  0  0  0  0  0  0  0  0  0  0  0
   20.3906  -36.4038   -3.4514 O   0  0  0  0  0  0  0  0  0  0  0  0
   22.4121  -36.1446   -4.4377 O   0  0  0  0  0  0  0  0  0  0  0  0
  2  1  1  0
  3  2  1  0
  3  4  2  0
  5  3  1  0
  6  5  1  0
  6  7  1  1
  8  7  1  0
  8 13  1  0
  9  8  2  0
 10  9  1  0
 10 11  2  0
 11 12  1  0
 12 13  2  0
 14  6  1  0
 14 16  1  0
 15 14  2  0
 17 16  1  0
 17 24  1  0
 17 18  1  6
 19 18  1  0
 19 23  1  0
 20 21  1  0
 20 19  2  0
 21 22  1  0
 22 23  2  0
 24 26  2  0
 24 25  1  0
M  END
$$$$
