NQI.pdb
     RDKit          3D

 26 25  0  0  1  0  0  0  0  0999 V2000
    7.7299  -13.0980   17.2405 N   0  0  0  0  0  0  0  0  0  0  0  0
    8.6018  -13.5737   18.2523 C   0  0  0  0  0  0  0  0  0  0  0  0
    9.8259  -13.6213   18.0295 O   0  0  0  0  0  0  0  0  0  0  0  0
    8.0436  -13.9969   19.5330 C   0  0  0  0  0  0  0  0  0  0  0  0
    7.6274  -15.4254   19.6166 C   0  0  2  0  0  0  0  0  0  0  0  0
    6.2149  -15.5681   19.7690 N   0  0  0  0  0  0  0  0  0  0  0  0
    8.4146  -16.2237   20.5859 C   0  0  0  0  0  0  0  0  0  0  0  0
    8.7333  -17.3967   20.2985 O   0  0  0  0  0  0  0  0  0  0  0  0
   10.7489  -20.4650   22.9798 N   0  0  0  0  0  0  0  0  0  0  0  0
   10.6460  -19.5097   24.0525 C   0  0  0  0  0  0  0  0  0  0  0  0
   10.1907  -19.9453   25.1222 O   0  0  0  0  0  0  0  0  0  0  0  0
   11.0581  -18.1213   23.8550 C   0  0  0  0  0  0  0  0  0  0  0  0
   10.4299  -17.4801   22.6564 C   0  0  0  0  0  0  0  0  0  0  0  0
    9.4337  -16.4238   22.9159 C   0  0  2  0  0  0  0  0  0  0  0  0
    8.8404  -15.7137   21.8645 N   0  0  0  0  0  0  0  0  0  0  0  0
    9.7648  -15.6436   24.1556 C   0  0  0  0  0  0  0  0  0  0  0  0
   10.8980  -15.0953   24.1495 O   0  0  0  0  0  0  0  0  0  0  0  0
    6.0765  -12.4005   25.9469 C   0  0  0  0  0  0  0  0  0  0  0  0
    7.3608  -13.0945   25.5215 C   0  0  0  0  0  0  0  0  0  0  0  0
    7.9944  -13.7582   26.7207 C   0  0  2  0  0  0  0  0  0  0  0  0
    8.2926  -12.7681   27.8047 C   0  0  0  0  0  0  0  0  0  0  0  0
    9.1962  -14.6021   26.3781 C   0  0  2  0  0  0  0  0  0  0  0  0
    8.9309  -15.5073   25.2559 N   0  0  0  0  0  0  0  0  0  0  0  0
    9.5768  -15.3636   27.5896 C   0  0  0  0  0  0  0  0  0  0  0  0
   10.0126  -14.8056   28.6228 O   0  0  0  0  0  0  0  0  0  0  0  0
    9.4680  -16.7578   27.6424 O   0  0  0  0  0  0  0  0  0  0  0  0
  2  1  1  0
  3  2  2  0
  4  2  1  0
  5  4  1  0
  5  6  1  1
  7  8  2  0
  7  5  1  0
 10 12  1  0
 10  9  1  0
 11 10  2  0
 13 12  1  0
 14 13  1  6
 14 15  1  0
 15  7  1  0
 16 14  1  0
 17 16  2  0
 18 19  1  0
 19 20  1  0
 20 21  1  1
 22 20  1  0
 22 23  1  6
 23 16  1  0
 24 22  1  0
 25 24  2  0
 26 24  1  0
M  END
$$$$
