NQI.pdb
     RDKit          3D

 26 25  0  0  1  0  0  0  0  0999 V2000
    8.4598  -12.5624   17.4138 N   0  0  0  0  0  0  0  0  0  0  0  0
    7.9575  -13.8779   17.5790 C   0  0  0  0  0  0  0  0  0  0  0  0
    7.9558  -14.6564   16.6073 O   0  0  0  0  0  0  0  0  0  0  0  0
    7.4535  -14.2894   18.8857 C   0  0  0  0  0  0  0  0  0  0  0  0
    8.4039  -15.0676   19.7295 C   0  0  2  0  0  0  0  0  0  0  0  0
    8.8366  -16.2679   19.0887 N   0  0  0  0  0  0  0  0  0  0  0  0
    7.9413  -15.2700   21.1230 C   0  0  0  0  0  0  0  0  0  0  0  0
    7.5667  -14.2851   21.7937 O   0  0  0  0  0  0  0  0  0  0  0  0
    6.5211  -20.8371   24.2352 N   0  0  0  0  0  0  0  0  0  0  0  0
    6.5988  -19.8397   25.2711 C   0  0  0  0  0  0  0  0  0  0  0  0
    6.3523  -20.2353   26.4217 O   0  0  0  0  0  0  0  0  0  0  0  0
    6.9454  -18.4569   24.9484 C   0  0  0  0  0  0  0  0  0  0  0  0
    7.2194  -18.2374   23.4927 C   0  0  0  0  0  0  0  0  0  0  0  0
    7.5301  -16.8565   23.0778 C   0  0  2  0  0  0  0  0  0  0  0  0
    7.8989  -16.5621   21.7591 N   0  0  0  0  0  0  0  0  0  0  0  0
    8.2404  -16.0994   24.1628 C   0  0  0  0  0  0  0  0  0  0  0  0
    9.4885  -16.2617   24.1920 O   0  0  0  0  0  0  0  0  0  0  0  0
    5.7601  -11.6370   26.2521 C   0  0  0  0  0  0  0  0  0  0  0  0
    6.8259  -12.5033   25.5997 C   0  0  0  0  0  0  0  0  0  0  0  0
    7.4825  -13.3678   26.6492 C   0  0  2  0  0  0  0  0  0  0  0  0
    8.2178  -12.5432   27.6610 C   0  0  0  0  0  0  0  0  0  0  0  0
    8.3465  -14.4623   26.0748 C   0  0  2  0  0  0  0  0  0  0  0  0
    7.6232  -15.2758   25.0929 N   0  0  0  0  0  0  0  0  0  0  0  0
    8.8274  -15.2982   27.1985 C   0  0  0  0  0  0  0  0  0  0  0  0
    9.7295  -14.9170   27.9794 O   0  0  0  0  0  0  0  0  0  0  0  0
    8.2939  -16.5677   27.4474 O   0  0  0  0  0  0  0  0  0  0  0  0
  2  1  1  0
  3  2  2  0
  4  2  1  0
  5  4  1  0
  5  6  1  6
  7  8  2  0
  7  5  1  0
 10 12  1  0
 10  9  1  0
 11 10  2  0
 13 12  1  0
 14 13  1  1
 14 15  1  0
 15  7  1  0
 16 14  1  0
 17 16  2  0
 18 19  1  0
 19 20  1  0
 20 21  1  1
 22 20  1  0
 22 23  1  6
 23 16  1  0
 24 22  1  0
 25 24  2  0
 26 24  1  0
M  END
$$$$
