NQI.pdb
     RDKit          3D

 26 25  0  0  1  0  0  0  0  0999 V2000
    7.4198  -18.0544   16.0518 N   0  0  0  0  0  0  0  0  0  0  0  0
    7.9233  -16.9510   16.7860 C   0  0  0  0  0  0  0  0  0  0  0  0
    8.8722  -16.2917   16.3219 O   0  0  0  0  0  0  0  0  0  0  0  0
    7.3170  -16.6131   18.0701 C   0  0  0  0  0  0  0  0  0  0  0  0
    8.2628  -16.4606   19.2117 C   0  0  2  0  0  0  0  0  0  0  0  0
    9.2791  -17.4636   19.2084 N   0  0  0  0  0  0  0  0  0  0  0  0
    7.5960  -16.2928   20.5246 C   0  0  0  0  0  0  0  0  0  0  0  0
    6.7075  -15.4247   20.6545 O   0  0  0  0  0  0  0  0  0  0  0  0
    6.2693  -19.8694   25.7779 N   0  0  0  0  0  0  0  0  0  0  0  0
    7.2745  -20.2664   24.8260 C   0  0  0  0  0  0  0  0  0  0  0  0
    7.8432  -21.3451   25.0590 O   0  0  0  0  0  0  0  0  0  0  0  0
    7.5813  -19.4233   23.6721 C   0  0  0  0  0  0  0  0  0  0  0  0
    6.7502  -18.1792   23.6078 C   0  0  0  0  0  0  0  0  0  0  0  0
    7.3659  -17.0038   22.9636 C   0  0  2  0  0  0  0  0  0  0  0  0
    7.9212  -17.0890   21.6807 N   0  0  0  0  0  0  0  0  0  0  0  0
    8.0923  -16.1449   23.9584 C   0  0  0  0  0  0  0  0  0  0  0  0
    9.3469  -16.2455   23.9287 O   0  0  0  0  0  0  0  0  0  0  0  0
    5.6378  -11.6549   26.0183 C   0  0  0  0  0  0  0  0  0  0  0  0
    6.6849  -12.5425   25.3644 C   0  0  0  0  0  0  0  0  0  0  0  0
    7.3642  -13.3806   26.4208 C   0  0  2  0  0  0  0  0  0  0  0  0
    8.1241  -12.5313   27.3932 C   0  0  0  0  0  0  0  0  0  0  0  0
    8.2126  -14.4918   25.8559 C   0  0  2  0  0  0  0  0  0  0  0  0
    7.4833  -15.2929   24.8681 N   0  0  0  0  0  0  0  0  0  0  0  0
    8.6672  -15.3352   26.9849 C   0  0  0  0  0  0  0  0  0  0  0  0
    8.0784  -16.3910   27.3126 O   0  0  0  0  0  0  0  0  0  0  0  0
    9.7878  -14.9926   27.7501 O   0  0  0  0  0  0  0  0  0  0  0  0
  2  1  1  0
  3  2  2  0
  4  2  1  0
  5  4  1  0
  5  6  1  1
  7  8  2  0
  7  5  1  0
 10 12  1  0
 10  9  1  0
 11 10  2  0
 13 12  1  0
 14 13  1  1
 14 15  1  0
 15  7  1  0
 16 14  1  0
 17 16  2  0
 18 19  1  0
 19 20  1  0
 20 21  1  6
 22 20  1  0
 22 23  1  6
 23 16  1  0
 24 22  1  0
 25 24  2  0
 26 24  1  0
M  END
$$$$
