NQI.pdb
     RDKit          3D

 26 25  0  0  1  0  0  0  0  0999 V2000
    8.5781  -12.7162   17.1937 N   0  0  0  0  0  0  0  0  0  0  0  0
    7.6280  -13.7686   17.1977 C   0  0  0  0  0  0  0  0  0  0  0  0
    7.2062  -14.2134   16.1139 O   0  0  0  0  0  0  0  0  0  0  0  0
    7.1659  -14.3068   18.4735 C   0  0  0  0  0  0  0  0  0  0  0  0
    7.7792  -13.7032   19.6901 C   0  0  2  0  0  0  0  0  0  0  0  0
    8.7522  -12.7091   19.3677 N   0  0  0  0  0  0  0  0  0  0  0  0
    8.2514  -14.6992   20.6808 C   0  0  0  0  0  0  0  0  0  0  0  0
    7.4595  -15.5689   21.1010 O   0  0  0  0  0  0  0  0  0  0  0  0
   13.2481  -15.1293   20.2586 N   0  0  0  0  0  0  0  0  0  0  0  0
   12.5658  -16.2989   19.7681 C   0  0  0  0  0  0  0  0  0  0  0  0
   12.9221  -16.7031   18.6496 O   0  0  0  0  0  0  0  0  0  0  0  0
   11.5213  -16.9400   20.5645 C   0  0  0  0  0  0  0  0  0  0  0  0
   11.3617  -16.3409   21.9276 C   0  0  0  0  0  0  0  0  0  0  0  0
   10.1265  -15.5731   22.1734 C   0  0  2  0  0  0  0  0  0  0  0  0
    9.5968  -14.7211   21.1961 N   0  0  0  0  0  0  0  0  0  0  0  0
   10.0413  -15.1032   23.5971 C   0  0  0  0  0  0  0  0  0  0  0  0
   11.1015  -14.6002   24.0532 O   0  0  0  0  0  0  0  0  0  0  0  0
    6.2584  -12.0255   25.5696 C   0  0  0  0  0  0  0  0  0  0  0  0
    7.5618  -12.7437   25.2579 C   0  0  0  0  0  0  0  0  0  0  0  0
    7.6925  -13.9567   26.1475 C   0  0  2  0  0  0  0  0  0  0  0  0
    7.6553  -13.5827   27.5977 C   0  0  0  0  0  0  0  0  0  0  0  0
    8.8820  -14.8223   25.8163 C   0  0  2  0  0  0  0  0  0  0  0  0
    8.9130  -15.1955   24.3989 N   0  0  0  0  0  0  0  0  0  0  0  0
    8.8212  -16.0263   26.6761 C   0  0  0  0  0  0  0  0  0  0  0  0
    8.1791  -17.0511   26.3502 O   0  0  0  0  0  0  0  0  0  0  0  0
    9.4839  -16.0809   27.9075 O   0  0  0  0  0  0  0  0  0  0  0  0
  2  1  1  0
  3  2  2  0
  4  2  1  0
  5  4  1  0
  5  6  1  6
  7  8  2  0
  7  5  1  0
 10 12  1  0
 10  9  1  0
 11 10  2  0
 13 12  1  0
 14 13  1  6
 14 15  1  0
 15  7  1  0
 16 14  1  0
 17 16  2  0
 18 19  1  0
 19 20  1  0
 20 21  1  1
 22 20  1  0
 22 23  1  6
 23 16  1  0
 24 22  1  0
 25 24  2  0
 26 24  1  0
M  END
$$$$
