NQI.pdb
     RDKit          3D

 26 25  0  0  1  0  0  0  0  0999 V2000
   12.5941  -17.9738   19.5148 N   0  0  0  0  0  0  0  0  0  0  0  0
   12.3121  -16.5861   19.4448 C   0  0  0  0  0  0  0  0  0  0  0  0
   13.2546  -15.7726   19.4259 O   0  0  0  0  0  0  0  0  0  0  0  0
   10.9222  -16.1428   19.3963 C   0  0  0  0  0  0  0  0  0  0  0  0
    9.8986  -17.2256   19.3732 C   0  0  2  0  0  0  0  0  0  0  0  0
    9.4354  -17.5025   18.0512 N   0  0  0  0  0  0  0  0  0  0  0  0
    8.8080  -17.0411   20.3597 C   0  0  0  0  0  0  0  0  0  0  0  0
    7.6376  -17.3412   20.0431 O   0  0  0  0  0  0  0  0  0  0  0  0
    6.0404  -20.4410   25.4078 N   0  0  0  0  0  0  0  0  0  0  0  0
    7.2601  -19.8419   24.9308 C   0  0  0  0  0  0  0  0  0  0  0  0
    8.2540  -20.5854   24.9070 O   0  0  0  0  0  0  0  0  0  0  0  0
    7.2878  -18.4415   24.5133 C   0  0  0  0  0  0  0  0  0  0  0  0
    7.9892  -18.2245   23.2082 C   0  0  0  0  0  0  0  0  0  0  0  0
    8.3109  -16.8295   22.8528 C   0  0  2  0  0  0  0  0  0  0  0  0
    9.0258  -16.5255   21.6875 N   0  0  0  0  0  0  0  0  0  0  0  0
    8.6211  -16.0060   24.0697 C   0  0  0  0  0  0  0  0  0  0  0  0
    9.7201  -16.2722   24.6232 O   0  0  0  0  0  0  0  0  0  0  0  0
    6.5012  -10.8847   26.9589 C   0  0  0  0  0  0  0  0  0  0  0  0
    7.5969  -11.9316   26.8363 C   0  0  0  0  0  0  0  0  0  0  0  0
    7.1727  -12.9897   25.8461 C   0  0  2  0  0  0  0  0  0  0  0  0
    5.8634  -13.6090   26.2289 C   0  0  0  0  0  0  0  0  0  0  0  0
    8.2339  -14.0275   25.5806 C   0  0  2  0  0  0  0  0  0  0  0  0
    7.7979  -15.0202   24.5938 N   0  0  0  0  0  0  0  0  0  0  0  0
    8.5663  -14.6773   26.8690 C   0  0  0  0  0  0  0  0  0  0  0  0
    9.1480  -14.0687   27.7963 O   0  0  0  0  0  0  0  0  0  0  0  0
    8.2445  -16.0163   27.1183 O   0  0  0  0  0  0  0  0  0  0  0  0
  2  1  1  0
  3  2  2  0
  4  2  1  0
  5  4  1  0
  5  6  1  6
  7  8  2  0
  7  5  1  0
 10 12  1  0
 10  9  1  0
 11 10  2  0
 13 12  1  0
 14 13  1  1
 14 15  1  0
 15  7  1  0
 16 14  1  0
 17 16  2  0
 18 19  1  0
 19 20  1  0
 20 21  1  1
 22 20  1  0
 22 23  1  6
 23 16  1  0
 24 22  1  0
 25 24  2  0
 26 24  1  0
M  END
$$$$
