NQI.pdb
     RDKit          3D

 26 25  0  0  1  0  0  0  0  0999 V2000
    7.8212  -12.1613   17.2051 N   0  0  0  0  0  0  0  0  0  0  0  0
    7.5274  -13.5393   17.3633 C   0  0  0  0  0  0  0  0  0  0  0  0
    7.3935  -14.2541   16.3526 O   0  0  0  0  0  0  0  0  0  0  0  0
    7.3887  -14.0887   18.7086 C   0  0  0  0  0  0  0  0  0  0  0  0
    8.6617  -14.3116   19.4505 C   0  0  2  0  0  0  0  0  0  0  0  0
    9.6319  -15.0020   18.6626 N   0  0  0  0  0  0  0  0  0  0  0  0
    8.4745  -14.8871   20.8033 C   0  0  0  0  0  0  0  0  0  0  0  0
    7.7454  -14.2943   21.6263 O   0  0  0  0  0  0  0  0  0  0  0  0
   10.2634  -20.7614   23.0557 N   0  0  0  0  0  0  0  0  0  0  0  0
    9.7513  -20.0535   24.2005 C   0  0  0  0  0  0  0  0  0  0  0  0
    9.7438  -20.6866   25.2683 O   0  0  0  0  0  0  0  0  0  0  0  0
    9.2752  -18.6775   24.0729 C   0  0  0  0  0  0  0  0  0  0  0  0
    9.4162  -18.1262   22.6878 C   0  0  0  0  0  0  0  0  0  0  0  0
    9.0267  -16.7170   22.4928 C   0  0  2  0  0  0  0  0  0  0  0  0
    9.0977  -16.1140   21.2307 N   0  0  0  0  0  0  0  0  0  0  0  0
    9.4137  -15.8681   23.6695 C   0  0  0  0  0  0  0  0  0  0  0  0
   10.6152  -15.4922   23.6791 O   0  0  0  0  0  0  0  0  0  0  0  0
    6.0114  -12.1789   25.6428 C   0  0  0  0  0  0  0  0  0  0  0  0
    7.2433  -12.9146   25.1399 C   0  0  0  0  0  0  0  0  0  0  0  0
    7.8307  -13.7368   26.2619 C   0  0  2  0  0  0  0  0  0  0  0  0
    8.2231  -12.8793   27.4260 C   0  0  0  0  0  0  0  0  0  0  0  0
    8.9530  -14.6429   25.8222 C   0  0  2  0  0  0  0  0  0  0  0  0
    8.5603  -15.4997   24.6993 N   0  0  0  0  0  0  0  0  0  0  0  0
    9.3618  -15.4585   26.9885 C   0  0  0  0  0  0  0  0  0  0  0  0
    8.8144  -16.5498   27.2682 O   0  0  0  0  0  0  0  0  0  0  0  0
   10.3896  -15.0481   27.8450 O   0  0  0  0  0  0  0  0  0  0  0  0
  2  1  1  0
  3  2  2  0
  4  2  1  0
  5  4  1  0
  5  6  1  6
  7  8  2  0
  7  5  1  0
 10 12  1  0
 10  9  1  0
 11 10  2  0
 13 12  1  0
 14 13  1  6
 14 15  1  0
 15  7  1  0
 16 14  1  0
 17 16  2  0
 18 19  1  0
 19 20  1  0
 20 21  1  1
 22 20  1  0
 22 23  1  6
 23 16  1  0
 24 22  1  0
 25 24  2  0
 26 24  1  0
M  END
$$$$
