NQI.pdb
     RDKit          3D

 26 25  0  0  1  0  0  0  0  0999 V2000
    8.4560  -12.5063   17.7202 N   0  0  0  0  0  0  0  0  0  0  0  0
    7.8862  -13.7959   17.8699 C   0  0  0  0  0  0  0  0  0  0  0  0
    7.8547  -14.5658   16.8918 O   0  0  0  0  0  0  0  0  0  0  0  0
    7.3492  -14.1915   19.1683 C   0  0  0  0  0  0  0  0  0  0  0  0
    8.0667  -15.3036   19.8532 C   0  0  2  0  0  0  0  0  0  0  0  0
    8.0844  -16.4977   19.0704 N   0  0  0  0  0  0  0  0  0  0  0  0
    7.6407  -15.5179   21.2565 C   0  0  0  0  0  0  0  0  0  0  0  0
    6.8792  -14.6899   21.7992 O   0  0  0  0  0  0  0  0  0  0  0  0
    6.9388  -20.9334   24.6266 N   0  0  0  0  0  0  0  0  0  0  0  0
    6.8567  -19.8931   25.6191 C   0  0  0  0  0  0  0  0  0  0  0  0
    6.5129  -20.2563   26.7554 O   0  0  0  0  0  0  0  0  0  0  0  0
    7.1626  -18.5068   25.2714 C   0  0  0  0  0  0  0  0  0  0  0  0
    7.4772  -18.3140   23.8201 C   0  0  0  0  0  0  0  0  0  0  0  0
    7.7409  -16.9320   23.3772 C   0  0  2  0  0  0  0  0  0  0  0  0
    8.0635  -16.6478   22.0443 N   0  0  0  0  0  0  0  0  0  0  0  0
    8.4634  -16.1420   24.4302 C   0  0  0  0  0  0  0  0  0  0  0  0
    9.7188  -16.2286   24.3892 O   0  0  0  0  0  0  0  0  0  0  0  0
    5.8854  -11.7735   26.5312 C   0  0  0  0  0  0  0  0  0  0  0  0
    6.9208  -12.6587   25.8558 C   0  0  0  0  0  0  0  0  0  0  0  0
    7.6962  -13.4167   26.9065 C   0  0  2  0  0  0  0  0  0  0  0  0
    8.4553  -12.4902   27.8063 C   0  0  0  0  0  0  0  0  0  0  0  0
    8.5756  -14.5032   26.3405 C   0  0  2  0  0  0  0  0  0  0  0  0
    7.8503  -15.3648   25.4020 N   0  0  0  0  0  0  0  0  0  0  0  0
    9.1093  -15.2922   27.4742 C   0  0  0  0  0  0  0  0  0  0  0  0
    8.6409  -16.4093   27.7928 O   0  0  0  0  0  0  0  0  0  0  0  0
   10.1737  -14.8260   28.2540 O   0  0  0  0  0  0  0  0  0  0  0  0
  2  1  1  0
  3  2  2  0
  4  2  1  0
  5  4  1  0
  5  6  1  6
  7  8  2  0
  7  5  1  0
 10 12  1  0
 10  9  1  0
 11 10  2  0
 13 12  1  0
 14 13  1  1
 14 15  1  0
 15  7  1  0
 16 14  1  0
 17 16  2  0
 18 19  1  0
 19 20  1  0
 20 21  1  6
 22 20  1  0
 22 23  1  6
 23 16  1  0
 24 22  1  0
 25 24  2  0
 26 24  1  0
M  END
$$$$
