NQI.pdb
     RDKit          3D

 26 25  0  0  1  0  0  0  0  0999 V2000
   -2.9943  -23.5531   16.4580 N   0  0  0  0  0  0  0  0  0  0  0  0
   -2.0520  -22.5568   16.8181 C   0  0  0  0  0  0  0  0  0  0  0  0
   -1.7302  -21.6915   15.9826 O   0  0  0  0  0  0  0  0  0  0  0  0
   -1.4806  -22.5685   18.1613 C   0  0  0  0  0  0  0  0  0  0  0  0
   -1.8988  -23.7032   19.0321 C   0  0  2  0  0  0  0  0  0  0  0  0
   -3.2818  -23.6350   19.3806 N   0  0  0  0  0  0  0  0  0  0  0  0
   -1.0034  -23.9317   20.1908 C   0  0  0  0  0  0  0  0  0  0  0  0
   -1.3535  -23.5379   21.3232 O   0  0  0  0  0  0  0  0  0  0  0  0
    2.6716  -28.6849   22.0701 N   0  0  0  0  0  0  0  0  0  0  0  0
    1.2704  -28.5503   21.7659 C   0  0  0  0  0  0  0  0  0  0  0  0
    0.6026  -29.5953   21.8215 O   0  0  0  0  0  0  0  0  0  0  0  0
    0.7069  -27.2485   21.4136 C   0  0  0  0  0  0  0  0  0  0  0  0
    1.7171  -26.1430   21.4187 C   0  0  0  0  0  0  0  0  0  0  0  0
    1.2229  -24.7924   21.0911 C   0  0  2  0  0  0  0  0  0  0  0  0
    0.2716  -24.5942   20.0824 N   0  0  0  0  0  0  0  0  0  0  0  0
    2.3097  -23.7626   21.2063 C   0  0  0  0  0  0  0  0  0  0  0  0
    2.9105  -23.5040   20.1305 O   0  0  0  0  0  0  0  0  0  0  0  0
    3.5601  -18.2607   22.3231 C   0  0  0  0  0  0  0  0  0  0  0  0
    4.2163  -19.6224   22.4877 C   0  0  0  0  0  0  0  0  0  0  0  0
    3.1613  -20.7004   22.4184 C   0  0  2  0  0  0  0  0  0  0  0  0
    2.0917  -20.4913   23.4463 C   0  0  0  0  0  0  0  0  0  0  0  0
    3.7239  -22.0987   22.4629 C   0  0  2  0  0  0  0  0  0  0  0  0
    2.6729  -23.1174   22.3794 N   0  0  0  0  0  0  0  0  0  0  0  0
    4.4936  -22.2389   23.7201 C   0  0  0  0  0  0  0  0  0  0  0  0
    5.5655  -21.6231   23.9220 O   0  0  0  0  0  0  0  0  0  0  0  0
    4.0589  -23.0737   24.7557 O   0  0  0  0  0  0  0  0  0  0  0  0
  2  1  1  0
  3  2  2  0
  4  2  1  0
  5  4  1  0
  5  6  1  1
  7  8  2  0
  7  5  1  0
 10 12  1  0
 10  9  1  0
 11 10  2  0
 13 12  1  0
 14 13  1  6
 14 15  1  0
 15  7  1  0
 16 14  1  0
 17 16  2  0
 18 19  1  0
 19 20  1  0
 20 21  1  1
 22 20  1  0
 22 23  1  1
 23 16  1  0
 24 22  1  0
 25 24  2  0
 26 24  1  0
M  END
$$$$
