NQI.pdb
     RDKit          3D

 26 25  0  0  1  0  0  0  0  0999 V2000
    8.1844  -12.0455   17.7726 N   0  0  0  0  0  0  0  0  0  0  0  0
    8.1997  -13.4514   17.9554 C   0  0  0  0  0  0  0  0  0  0  0  0
    8.7089  -14.1747   17.0792 O   0  0  0  0  0  0  0  0  0  0  0  0
    7.6175  -14.0188   19.1679 C   0  0  0  0  0  0  0  0  0  0  0  0
    8.1717  -15.3338   19.5972 C   0  0  2  0  0  0  0  0  0  0  0  0
    7.9698  -16.3511   18.6158 N   0  0  0  0  0  0  0  0  0  0  0  0
    7.7677  -15.7372   20.9648 C   0  0  0  0  0  0  0  0  0  0  0  0
    6.6482  -15.3942   21.3997 O   0  0  0  0  0  0  0  0  0  0  0  0
    5.8359  -19.2469   24.2545 N   0  0  0  0  0  0  0  0  0  0  0  0
    6.4070  -19.6775   23.0045 C   0  0  0  0  0  0  0  0  0  0  0  0
    5.6766  -20.3845   22.2918 O   0  0  0  0  0  0  0  0  0  0  0  0
    7.7667  -19.2895   22.6344 C   0  0  0  0  0  0  0  0  0  0  0  0
    8.3804  -18.3023   23.5785 C   0  0  0  0  0  0  0  0  0  0  0  0
    8.3578  -16.8869   23.1643 C   0  0  2  0  0  0  0  0  0  0  0  0
    8.6090  -16.5166   21.8371 N   0  0  0  0  0  0  0  0  0  0  0  0
    8.9122  -15.9889   24.2325 C   0  0  0  0  0  0  0  0  0  0  0  0
   10.1103  -15.6413   24.0632 O   0  0  0  0  0  0  0  0  0  0  0  0
    5.9857  -12.0418   26.3531 C   0  0  0  0  0  0  0  0  0  0  0  0
    7.0836  -12.9133   25.7642 C   0  0  0  0  0  0  0  0  0  0  0  0
    7.7806  -13.6624   26.8746 C   0  0  2  0  0  0  0  0  0  0  0  0
    8.3824  -12.7262   27.8774 C   0  0  0  0  0  0  0  0  0  0  0  0
    8.7771  -14.6814   26.3819 C   0  0  2  0  0  0  0  0  0  0  0  0
    8.2099  -15.5487   25.3449 N   0  0  0  0  0  0  0  0  0  0  0  0
    9.2257  -15.4781   27.5467 C   0  0  0  0  0  0  0  0  0  0  0  0
    8.7786  -16.6230   27.7880 O   0  0  0  0  0  0  0  0  0  0  0  0
   10.1804  -14.9883   28.4450 O   0  0  0  0  0  0  0  0  0  0  0  0
  2  1  1  0
  3  2  2  0
  4  2  1  0
  5  4  1  0
  5  6  1  6
  7  8  2  0
  7  5  1  0
 10 12  1  0
 10  9  1  0
 11 10  2  0
 13 12  1  0
 14 13  1  1
 14 15  1  0
 15  7  1  0
 16 14  1  0
 17 16  2  0
 18 19  1  0
 19 20  1  0
 20 21  1  1
 22 20  1  0
 22 23  1  6
 23 16  1  0
 24 22  1  0
 25 24  2  0
 26 24  1  0
M  END
$$$$
