NQI.pdb
     RDKit          3D

 26 25  0  0  1  0  0  0  0  0999 V2000
    7.0584  -18.7300   16.9839 N   0  0  0  0  0  0  0  0  0  0  0  0
    7.3625  -17.3699   17.2445 C   0  0  0  0  0  0  0  0  0  0  0  0
    7.9313  -16.6935   16.3674 O   0  0  0  0  0  0  0  0  0  0  0  0
    7.0014  -16.7936   18.5361 C   0  0  0  0  0  0  0  0  0  0  0  0
    8.1018  -16.1040   19.2669 C   0  0  2  0  0  0  0  0  0  0  0  0
    9.3835  -16.3868   18.7047 N   0  0  0  0  0  0  0  0  0  0  0  0
    8.0455  -16.2769   20.7378 C   0  0  0  0  0  0  0  0  0  0  0  0
    6.9829  -16.0260   21.3443 O   0  0  0  0  0  0  0  0  0  0  0  0
   11.1349  -20.4592   24.4367 N   0  0  0  0  0  0  0  0  0  0  0  0
   10.6309  -19.5003   25.3856 C   0  0  0  0  0  0  0  0  0  0  0  0
   10.8126  -19.7773   26.5821 O   0  0  0  0  0  0  0  0  0  0  0  0
    9.9495  -18.2901   24.9304 C   0  0  0  0  0  0  0  0  0  0  0  0
    9.9027  -18.1600   23.4393 C   0  0  0  0  0  0  0  0  0  0  0  0
    9.2055  -16.9778   22.8989 C   0  0  2  0  0  0  0  0  0  0  0  0
    9.1681  -16.7259   21.5217 N   0  0  0  0  0  0  0  0  0  0  0  0
    9.3579  -15.7860   23.7996 C   0  0  0  0  0  0  0  0  0  0  0  0
   10.5224  -15.3109   23.8570 O   0  0  0  0  0  0  0  0  0  0  0  0
    6.1040  -11.1781   26.3050 C   0  0  0  0  0  0  0  0  0  0  0  0
    7.4012  -11.9707   26.3351 C   0  0  0  0  0  0  0  0  0  0  0  0
    7.2433  -13.2247   25.5089 C   0  0  2  0  0  0  0  0  0  0  0  0
    6.0774  -14.0448   25.9699 C   0  0  0  0  0  0  0  0  0  0  0  0
    8.5059  -14.0426   25.4066 C   0  0  2  0  0  0  0  0  0  0  0  0
    8.3346  -15.2129   24.5404 N   0  0  0  0  0  0  0  0  0  0  0  0
    8.8932  -14.4535   26.7755 C   0  0  0  0  0  0  0  0  0  0  0  0
    9.2379  -13.6270   27.6512 O   0  0  0  0  0  0  0  0  0  0  0  0
    8.8936  -15.7980   27.1639 O   0  0  0  0  0  0  0  0  0  0  0  0
  2  1  1  0
  3  2  2  0
  4  2  1  0
  5  4  1  0
  5  6  1  6
  7  8  2  0
  7  5  1  0
 10 12  1  0
 10  9  1  0
 11 10  2  0
 13 12  1  0
 14 13  1  6
 14 15  1  0
 15  7  1  0
 16 14  1  0
 17 16  2  0
 18 19  1  0
 19 20  1  0
 20 21  1  1
 22 20  1  0
 22 23  1  6
 23 16  1  0
 24 22  1  0
 25 24  2  0
 26 24  1  0
M  END
$$$$
