NQI.pdb
     RDKit          3D

 26 25  0  0  1  0  0  0  0  0999 V2000
    6.4929  -18.9008   17.1358 N   0  0  0  0  0  0  0  0  0  0  0  0
    7.5675  -19.0448   18.0495 C   0  0  0  0  0  0  0  0  0  0  0  0
    7.9850  -20.1850   18.3250 O   0  0  0  0  0  0  0  0  0  0  0  0
    8.1600  -17.8518   18.6466 C   0  0  0  0  0  0  0  0  0  0  0  0
    8.3333  -17.8872   20.1263 C   0  0  2  0  0  0  0  0  0  0  0  0
    7.1492  -18.3172   20.7984 N   0  0  0  0  0  0  0  0  0  0  0  0
    8.9225  -16.6501   20.6909 C   0  0  0  0  0  0  0  0  0  0  0  0
   10.0498  -16.6970   21.2267 O   0  0  0  0  0  0  0  0  0  0  0  0
    9.8742  -12.9228   18.3196 N   0  0  0  0  0  0  0  0  0  0  0  0
    8.4618  -13.1536   18.1587 C   0  0  0  0  0  0  0  0  0  0  0  0
    8.1033  -13.5501   17.0382 O   0  0  0  0  0  0  0  0  0  0  0  0
    7.5385  -12.9203   19.2675 C   0  0  0  0  0  0  0  0  0  0  0  0
    8.2145  -12.8693   20.6027 C   0  0  0  0  0  0  0  0  0  0  0  0
    8.7315  -14.1449   21.1328 C   0  0  2  0  0  0  0  0  0  0  0  0
    8.2560  -15.3731   20.6562 N   0  0  0  0  0  0  0  0  0  0  0  0
    9.0186  -14.0569   22.6041 C   0  0  0  0  0  0  0  0  0  0  0  0
    9.8368  -13.1577   22.9312 O   0  0  0  0  0  0  0  0  0  0  0  0
    6.1465  -12.2252   26.0721 C   0  0  0  0  0  0  0  0  0  0  0  0
    7.3492  -12.7491   25.3035 C   0  0  0  0  0  0  0  0  0  0  0  0
    7.6968  -14.1332   25.7967 C   0  0  2  0  0  0  0  0  0  0  0  0
    7.9888  -14.1372   27.2661 C   0  0  0  0  0  0  0  0  0  0  0  0
    8.7898  -14.8005   25.0004 C   0  0  2  0  0  0  0  0  0  0  0  0
    8.4618  -14.8781   23.5736 N   0  0  0  0  0  0  0  0  0  0  0  0
    9.0028  -16.1526   25.5654 C   0  0  0  0  0  0  0  0  0  0  0  0
    8.6473  -17.1933   24.9660 O   0  0  0  0  0  0  0  0  0  0  0  0
    9.6175  -16.3380   26.8089 O   0  0  0  0  0  0  0  0  0  0  0  0
  2  1  1  0
  3  2  2  0
  4  2  1  0
  5  4  1  0
  5  6  1  1
  7  8  2  0
  7  5  1  0
 10 12  1  0
 10  9  1  0
 11 10  2  0
 13 12  1  0
 14 13  1  1
 14 15  1  0
 15  7  1  0
 16 14  1  0
 17 16  2  0
 18 19  1  0
 19 20  1  0
 20 21  1  1
 22 20  1  0
 22 23  1  6
 23 16  1  0
 24 22  1  0
 25 24  2  0
 26 24  1  0
M  END
$$$$
