NQI.pdb
     RDKit          3D

 26 25  0  0  1  0  0  0  0  0999 V2000
    6.8966  -18.5675   16.9007 N   0  0  0  0  0  0  0  0  0  0  0  0
    7.3538  -17.3382   17.4391 C   0  0  0  0  0  0  0  0  0  0  0  0
    8.1281  -16.6295   16.7692 O   0  0  0  0  0  0  0  0  0  0  0  0
    6.9059  -16.9313   18.7675 C   0  0  0  0  0  0  0  0  0  0  0  0
    7.9832  -16.7033   19.7716 C   0  0  2  0  0  0  0  0  0  0  0  0
    9.0406  -17.6557   19.6545 N   0  0  0  0  0  0  0  0  0  0  0  0
    7.4855  -16.5336   21.1572 C   0  0  0  0  0  0  0  0  0  0  0  0
    6.6366  -15.6500   21.3998 O   0  0  0  0  0  0  0  0  0  0  0  0
    6.4590  -20.7580   26.0419 N   0  0  0  0  0  0  0  0  0  0  0  0
    6.8946  -19.5121   26.6181 C   0  0  0  0  0  0  0  0  0  0  0  0
    7.2570  -19.5629   27.8044 O   0  0  0  0  0  0  0  0  0  0  0  0
    6.8922  -18.2842   25.8253 C   0  0  0  0  0  0  0  0  0  0  0  0
    7.4018  -18.4768   24.4304 C   0  0  0  0  0  0  0  0  0  0  0  0
    7.5358  -17.2647   23.6006 C   0  0  2  0  0  0  0  0  0  0  0  0
    7.9339  -17.3450   22.2603 N   0  0  0  0  0  0  0  0  0  0  0  0
    8.0675  -16.1066   24.3949 C   0  0  0  0  0  0  0  0  0  0  0  0
    9.3190  -15.9734   24.3643 O   0  0  0  0  0  0  0  0  0  0  0  0
    6.8907  -11.7580   24.5146 C   0  0  0  0  0  0  0  0  0  0  0  0
    5.9638  -12.5803   25.3959 C   0  0  0  0  0  0  0  0  0  0  0  0
    6.7658  -13.2365   26.4941 C   0  0  2  0  0  0  0  0  0  0  0  0
    7.3074  -12.2268   27.4593 C   0  0  0  0  0  0  0  0  0  0  0  0
    7.8389  -14.1655   25.9847 C   0  0  2  0  0  0  0  0  0  0  0  0
    7.2908  -15.2227   25.1297 N   0  0  0  0  0  0  0  0  0  0  0  0
    8.5330  -14.7444   27.1577 C   0  0  0  0  0  0  0  0  0  0  0  0
    8.1761  -15.8243   27.6821 O   0  0  0  0  0  0  0  0  0  0  0  0
    9.6327  -14.1088   27.7451 O   0  0  0  0  0  0  0  0  0  0  0  0
  2  1  1  0
  3  2  2  0
  4  2  1  0
  5  4  1  0
  5  6  1  1
  7  8  2  0
  7  5  1  0
 10 12  1  0
 10  9  1  0
 11 10  2  0
 13 12  1  0
 14 13  1  1
 14 15  1  0
 15  7  1  0
 16 14  1  0
 17 16  2  0
 18 19  1  0
 19 20  1  0
 20 21  1  6
 22 20  1  0
 22 23  1  1
 23 16  1  0
 24 22  1  0
 25 24  2  0
 26 24  1  0
M  END
$$$$
