KYH.pdb
     RDKit          3D

 32 33  0  0  1  0  0  0  0  0999 V2000
   10.3654  -17.1048   19.0017 N   0  0  0  0  0  0  0  0  0  0  0  0
    9.3417  -17.3764   19.9602 C   0  0  1  0  0  0  0  0  0  0  0  0
    9.3770  -18.7843   20.5123 C   0  0  0  0  0  0  0  0  0  0  0  0
    9.6123  -19.7513   19.3843 C   0  0  0  0  0  0  0  0  0  0  0  0
   10.6693  -20.7488   19.7507 C   0  0  0  0  0  0  0  0  0  0  0  0
   10.9771  -21.7294   18.6268 C   0  0  0  0  0  0  0  0  0  0  0  0
   12.0686  -22.6119   19.0020 N   0  0  0  0  0  0  0  0  0  0  0  0
    9.4377  -16.4321   21.1114 C   0  0  0  0  0  0  0  0  0  0  0  0
   10.5323  -15.8535   21.3783 O   0  0  0  0  0  0  0  0  0  0  0  0
    6.9234  -10.9020   27.4939 O   0  0  0  0  0  0  0  0  0  0  0  0
    6.9503  -11.8118   26.4388 C   0  0  0  0  0  0  0  0  0  0  0  0
    6.4185  -13.0746   26.6287 C   0  0  0  0  0  0  0  0  0  0  0  0
    6.4298  -14.0007   25.6017 C   0  0  0  0  0  0  0  0  0  0  0  0
    6.9705  -13.6780   24.3775 C   0  0  0  0  0  0  0  0  0  0  0  0
    7.0008  -14.6421   23.2746 C   0  0  0  0  0  0  0  0  0  0  0  0
    8.3987  -15.0610   22.8872 C   0  0  2  0  0  0  0  0  0  0  0  0
    8.3099  -16.1706   21.9191 N   0  0  0  0  0  0  0  0  0  0  0  0
    9.1215  -15.5048   24.0995 C   0  0  0  0  0  0  0  0  0  0  0  0
    9.2176  -14.7370   25.0689 O   0  0  0  0  0  0  0  0  0  0  0  0
    7.5008  -12.4223   24.1837 C   0  0  0  0  0  0  0  0  0  0  0  0
    7.4918  -11.4950   25.2052 C   0  0  0  0  0  0  0  0  0  0  0  0
    9.7102  -16.7979   24.1760 N   0  0  0  0  0  0  0  0  0  0  0  0
   10.4687  -17.2584   25.3384 C   0  0  1  0  0  0  0  0  0  0  0  0
    9.7516  -16.9881   26.6106 C   0  0  0  0  0  0  0  0  0  0  0  0
   10.3264  -15.8103   27.2906 C   0  0  0  0  0  0  0  0  0  0  0  0
   11.3171  -14.9481   26.8130 C   0  0  0  0  0  0  0  0  0  0  0  0
   11.5519  -14.0371   27.7504 N   0  0  0  0  0  0  0  0  0  0  0  0
   10.7445  -14.3059   28.7850 C   0  0  0  0  0  0  0  0  0  0  0  0
    9.9854  -15.3779   28.5394 N   0  0  0  0  0  0  0  0  0  0  0  0
   10.9141  -18.6443   25.1811 C   0  0  0  0  0  0  0  0  0  0  0  0
   11.6264  -19.1292   26.1279 O   0  0  0  0  0  0  0  0  0  0  0  0
   10.6440  -19.4778   24.1218 O   0  0  0  0  0  0  0  0  0  0  0  0
  2  1  1  6
  2  3  1  0
  3  4  1  0
  4  5  1  0
  6  5  1  0
  7  6  1  0
  8  2  1  0
  9  8  2  0
 10 11  1  0
 11 21  2  0
 11 12  1  0
 12 13  2  0
 13 14  1  0
 14 15  1  0
 16 15  1  1
 16 17  1  0
 17  8  1  0
 18 16  1  0
 18 22  1  0
 19 18  2  0
 20 14  2  0
 21 20  1  0
 23 22  1  0
 23 30  1  0
 23 24  1  1
 24 25  1  0
 25 29  1  0
 25 26  2  0
 26 27  1  0
 28 27  1  0
 29 28  2  0
 30 32  1  0
 31 30  2  0
M  END
$$$$
