KYH.pdb
     RDKit          3D

 32 33  0  0  1  0  0  0  0  0999 V2000
    9.3014  -18.7767   20.4420 N   0  0  0  0  0  0  0  0  0  0  0  0
   10.5237  -18.1123   20.7658 C   0  0  1  0  0  0  0  0  0  0  0  0
   11.3688  -17.7623   19.5610 C   0  0  0  0  0  0  0  0  0  0  0  0
   11.4723  -18.9655   18.6640 C   0  0  0  0  0  0  0  0  0  0  0  0
   12.2450  -18.6380   17.4222 C   0  0  0  0  0  0  0  0  0  0  0  0
   12.3072  -19.7979   16.4370 C   0  0  0  0  0  0  0  0  0  0  0  0
   12.9526  -19.3865   15.2021 N   0  0  0  0  0  0  0  0  0  0  0  0
   10.2520  -16.8508   21.5148 C   0  0  0  0  0  0  0  0  0  0  0  0
   11.1173  -15.9267   21.5522 O   0  0  0  0  0  0  0  0  0  0  0  0
    6.5765  -11.2263   27.2090 O   0  0  0  0  0  0  0  0  0  0  0  0
    6.7945  -12.2184   26.2551 C   0  0  0  0  0  0  0  0  0  0  0  0
    6.4511  -13.5243   26.5555 C   0  0  0  0  0  0  0  0  0  0  0  0
    6.6546  -14.5321   25.6307 C   0  0  0  0  0  0  0  0  0  0  0  0
    7.2016  -14.2489   24.3995 C   0  0  0  0  0  0  0  0  0  0  0  0
    7.4335  -15.2985   23.4039 C   0  0  0  0  0  0  0  0  0  0  0  0
    8.8934  -15.4924   23.0710 C   0  0  2  0  0  0  0  0  0  0  0  0
    9.0270  -16.6699   22.1923 N   0  0  0  0  0  0  0  0  0  0  0  0
    9.6482  -15.7093   24.3249 C   0  0  0  0  0  0  0  0  0  0  0  0
    9.9680  -14.7345   25.0220 O   0  0  0  0  0  0  0  0  0  0  0  0
    7.5448  -12.9506   24.0960 C   0  0  0  0  0  0  0  0  0  0  0  0
    7.3436  -11.9418   25.0153 C   0  0  0  0  0  0  0  0  0  0  0  0
   10.0158  -17.0172   24.7483 N   0  0  0  0  0  0  0  0  0  0  0  0
   10.7736  -17.2724   25.9726 C   0  0  1  0  0  0  0  0  0  0  0  0
    9.8895  -17.3677   27.1621 C   0  0  0  0  0  0  0  0  0  0  0  0
    9.8604  -16.0844   27.8917 C   0  0  0  0  0  0  0  0  0  0  0  0
   10.4590  -14.8774   27.5199 C   0  0  0  0  0  0  0  0  0  0  0  0
   10.2029  -13.9853   28.4697 N   0  0  0  0  0  0  0  0  0  0  0  0
    9.4708  -14.5966   29.4103 C   0  0  0  0  0  0  0  0  0  0  0  0
    9.2438  -15.8742   29.0910 N   0  0  0  0  0  0  0  0  0  0  0  0
   11.6945  -18.3998   25.8153 C   0  0  0  0  0  0  0  0  0  0  0  0
   12.4044  -18.7078   26.8353 O   0  0  0  0  0  0  0  0  0  0  0  0
   11.8733  -19.1620   24.6853 O   0  0  0  0  0  0  0  0  0  0  0  0
  2  1  1  6
  2  3  1  0
  3  4  1  0
  4  5  1  0
  6  5  1  0
  7  6  1  0
  8  2  1  0
  9  8  2  0
 10 11  1  0
 11 21  2  0
 11 12  1  0
 12 13  2  0
 13 14  1  0
 14 15  1  0
 16 15  1  1
 16 17  1  0
 17  8  1  0
 18 16  1  0
 18 22  1  0
 19 18  2  0
 20 14  2  0
 21 20  1  0
 23 22  1  0
 23 30  1  0
 23 24  1  1
 24 25  1  0
 25 29  1  0
 25 26  2  0
 26 27  1  0
 28 27  1  0
 29 28  2  0
 30 32  1  0
 31 30  2  0
M  END
$$$$
