KYH.pdb
     RDKit          3D

 32 33  0  0  1  0  0  0  0  0999 V2000
   10.1289  -16.5961   18.7676 N   0  0  0  0  0  0  0  0  0  0  0  0
    9.4191  -17.2328   19.8311 C   0  0  1  0  0  0  0  0  0  0  0  0
    9.9488  -18.6044   20.1867 C   0  0  0  0  0  0  0  0  0  0  0  0
    9.7235  -19.5365   19.0277 C   0  0  0  0  0  0  0  0  0  0  0  0
   10.2006  -20.9188   19.3564 C   0  0  0  0  0  0  0  0  0  0  0  0
    9.9452  -21.9185   18.2362 C   0  0  0  0  0  0  0  0  0  0  0  0
   10.4407  -23.2345   18.6016 N   0  0  0  0  0  0  0  0  0  0  0  0
    9.4597  -16.3940   21.0644 C   0  0  0  0  0  0  0  0  0  0  0  0
   10.5583  -15.9283   21.4888 O   0  0  0  0  0  0  0  0  0  0  0  0
    6.8983  -11.7766   28.1150 O   0  0  0  0  0  0  0  0  0  0  0  0
    6.9363  -12.4772   26.9111 C   0  0  0  0  0  0  0  0  0  0  0  0
    6.3986  -13.7507   26.8592 C   0  0  0  0  0  0  0  0  0  0  0  0
    6.4204  -14.4724   25.6798 C   0  0  0  0  0  0  0  0  0  0  0  0
    6.9776  -13.9330   24.5423 C   0  0  0  0  0  0  0  0  0  0  0  0
    7.0193  -14.6783   23.2815 C   0  0  0  0  0  0  0  0  0  0  0  0
    8.3796  -15.2581   22.9765 C   0  0  2  0  0  0  0  0  0  0  0  0
    8.2742  -16.1080   21.7753 N   0  0  0  0  0  0  0  0  0  0  0  0
    8.8274  -16.0680   24.1308 C   0  0  0  0  0  0  0  0  0  0  0  0
    8.1784  -17.0720   24.4612 O   0  0  0  0  0  0  0  0  0  0  0  0
    7.5138  -12.6658   24.5890 C   0  0  0  0  0  0  0  0  0  0  0  0
    7.4943  -11.9419   25.7633 C   0  0  0  0  0  0  0  0  0  0  0  0
    9.9907  -15.7176   24.8716 N   0  0  0  0  0  0  0  0  0  0  0  0
   10.4901  -16.5148   25.9912 C   0  0  1  0  0  0  0  0  0  0  0  0
   11.9503  -16.7646   25.8860 C   0  0  0  0  0  0  0  0  0  0  0  0
   12.2438  -17.6575   24.7474 C   0  0  0  0  0  0  0  0  0  0  0  0
   11.5129  -18.7717   24.3260 C   0  0  0  0  0  0  0  0  0  0  0  0
   12.1381  -19.2977   23.2791 N   0  0  0  0  0  0  0  0  0  0  0  0
   13.2242  -18.5507   23.0408 C   0  0  0  0  0  0  0  0  0  0  0  0
   13.3195  -17.5444   23.9150 N   0  0  0  0  0  0  0  0  0  0  0  0
   10.0645  -15.9659   27.2802 C   0  0  0  0  0  0  0  0  0  0  0  0
    9.6911  -14.7413   27.2875 O   0  0  0  0  0  0  0  0  0  0  0  0
   10.0236  -16.6315   28.4823 O   0  0  0  0  0  0  0  0  0  0  0  0
  2  1  1  6
  2  3  1  0
  3  4  1  0
  4  5  1  0
  6  5  1  0
  7  6  1  0
  8  2  1  0
  9  8  2  0
 10 11  1  0
 11 21  2  0
 11 12  1  0
 12 13  2  0
 13 14  1  0
 14 15  1  0
 16 15  1  1
 16 17  1  0
 17  8  1  0
 18 16  1  0
 18 22  1  0
 19 18  2  0
 20 14  2  0
 21 20  1  0
 23 22  1  0
 23 30  1  0
 23 24  1  1
 24 25  1  0
 25 29  1  0
 25 26  2  0
 26 27  1  0
 28 27  1  0
 29 28  2  0
 30 32  1  0
 31 30  2  0
M  END
$$$$
