KYH.pdb
     RDKit          3D

 32 33  0  0  1  0  0  0  0  0999 V2000
    7.9558  -18.5909   19.6881 N   0  0  0  0  0  0  0  0  0  0  0  0
    9.3029  -18.1528   19.8716 C   0  0  1  0  0  0  0  0  0  0  0  0
    9.9172  -17.5270   18.6390 C   0  0  0  0  0  0  0  0  0  0  0  0
   10.4264  -18.6155   17.7341 C   0  0  0  0  0  0  0  0  0  0  0  0
   11.6082  -18.1408   16.9439 C   0  0  0  0  0  0  0  0  0  0  0  0
   12.1147  -19.1776   15.9499 C   0  0  0  0  0  0  0  0  0  0  0  0
   13.1482  -18.6106   15.1006 N   0  0  0  0  0  0  0  0  0  0  0  0
    9.3835  -17.1553   20.9783 C   0  0  0  0  0  0  0  0  0  0  0  0
   10.4973  -16.6510   21.3089 O   0  0  0  0  0  0  0  0  0  0  0  0
    7.0932  -11.7397   27.5338 O   0  0  0  0  0  0  0  0  0  0  0  0
    7.0994  -12.5496   26.3999 C   0  0  0  0  0  0  0  0  0  0  0  0
    6.3565  -13.7165   26.4053 C   0  0  0  0  0  0  0  0  0  0  0  0
    6.3414  -14.5421   25.2960 C   0  0  0  0  0  0  0  0  0  0  0  0
    7.0655  -14.2135   24.1722 C   0  0  0  0  0  0  0  0  0  0  0  0
    7.0719  -15.0732   22.9858 C   0  0  0  0  0  0  0  0  0  0  0  0
    8.3741  -15.8125   22.7924 C   0  0  2  0  0  0  0  0  0  0  0  0
    8.2196  -16.7599   21.6722 N   0  0  0  0  0  0  0  0  0  0  0  0
    8.6994  -16.5475   24.0345 C   0  0  0  0  0  0  0  0  0  0  0  0
    7.8780  -17.3508   24.5020 O   0  0  0  0  0  0  0  0  0  0  0  0
    7.8063  -13.0530   24.1620 C   0  0  0  0  0  0  0  0  0  0  0  0
    7.8244  -12.2261   25.2663 C   0  0  0  0  0  0  0  0  0  0  0  0
    9.9387  -16.3510   24.7056 N   0  0  0  0  0  0  0  0  0  0  0  0
   10.3041  -17.0686   25.9262 C   0  0  1  0  0  0  0  0  0  0  0  0
   11.7099  -17.5461   25.8887 C   0  0  0  0  0  0  0  0  0  0  0  0
   11.8627  -18.6342   24.9024 C   0  0  0  0  0  0  0  0  0  0  0  0
   10.8609  -19.2444   24.1426 C   0  0  0  0  0  0  0  0  0  0  0  0
   11.4291  -20.1876   23.4002 N   0  0  0  0  0  0  0  0  0  0  0  0
   12.7404  -20.1808   23.6740 C   0  0  0  0  0  0  0  0  0  0  0  0
   13.0390  -19.2484   24.5835 N   0  0  0  0  0  0  0  0  0  0  0  0
    9.9593  -16.3060   27.1276 C   0  0  0  0  0  0  0  0  0  0  0  0
   10.0747  -15.0332   27.0523 O   0  0  0  0  0  0  0  0  0  0  0  0
    9.5228  -16.8170   28.3268 O   0  0  0  0  0  0  0  0  0  0  0  0
  2  1  1  6
  2  3  1  0
  3  4  1  0
  4  5  1  0
  6  5  1  0
  7  6  1  0
  8  2  1  0
  9  8  2  0
 10 11  1  0
 11 21  2  0
 11 12  1  0
 12 13  2  0
 13 14  1  0
 14 15  1  0
 16 15  1  1
 16 17  1  0
 17  8  1  0
 18 16  1  0
 18 22  1  0
 19 18  2  0
 20 14  2  0
 21 20  1  0
 23 22  1  0
 23 30  1  0
 23 24  1  6
 24 25  1  0
 25 29  1  0
 25 26  2  0
 26 27  1  0
 28 27  1  0
 29 28  2  0
 30 32  1  0
 31 30  2  0
M  END
$$$$
