KYH.pdb
     RDKit          3D

 32 33  0  0  1  0  0  0  0  0999 V2000
    8.0323  -15.1119   18.9402 N   0  0  0  0  0  0  0  0  0  0  0  0
    7.4113  -15.7808   20.0389 C   0  0  1  0  0  0  0  0  0  0  0  0
    7.4993  -17.2893   19.9670 C   0  0  0  0  0  0  0  0  0  0  0  0
    6.7200  -17.7731   18.7747 C   0  0  0  0  0  0  0  0  0  0  0  0
    6.6943  -19.2710   18.7285 C   0  0  0  0  0  0  0  0  0  0  0  0
    5.8705  -19.8163   17.5694 C   0  0  0  0  0  0  0  0  0  0  0  0
    5.8762  -21.2692   17.5763 N   0  0  0  0  0  0  0  0  0  0  0  0
    8.0234  -15.3489   21.3293 C   0  0  0  0  0  0  0  0  0  0  0  0
    9.2769  -15.1963   21.4265 O   0  0  0  0  0  0  0  0  0  0  0  0
    8.9804  -12.5206   29.6172 O   0  0  0  0  0  0  0  0  0  0  0  0
    8.4532  -12.9309   28.3943 C   0  0  0  0  0  0  0  0  0  0  0  0
    8.3776  -12.0190   27.3569 C   0  0  0  0  0  0  0  0  0  0  0  0
    7.8596  -12.3946   26.1309 C   0  0  0  0  0  0  0  0  0  0  0  0
    7.4126  -13.6806   25.9271 C   0  0  0  0  0  0  0  0  0  0  0  0
    6.8538  -14.1031   24.6402 C   0  0  0  0  0  0  0  0  0  0  0  0
    7.8826  -14.7022   23.7115 C   0  0  2  0  0  0  0  0  0  0  0  0
    7.2139  -15.1045   22.4596 N   0  0  0  0  0  0  0  0  0  0  0  0
    8.4888  -15.8842   24.3630 C   0  0  0  0  0  0  0  0  0  0  0  0
    7.8003  -16.8988   24.5503 O   0  0  0  0  0  0  0  0  0  0  0  0
    7.4860  -14.5918   26.9566 C   0  0  0  0  0  0  0  0  0  0  0  0
    8.0020  -14.2218   28.1814 C   0  0  0  0  0  0  0  0  0  0  0  0
    9.8492  -15.8806   24.7802 N   0  0  0  0  0  0  0  0  0  0  0  0
   10.5286  -17.0727   25.2857 C   0  0  1  0  0  0  0  0  0  0  0  0
   11.9728  -17.0764   24.9394 C   0  0  0  0  0  0  0  0  0  0  0  0
   12.1580  -17.2596   23.4861 C   0  0  0  0  0  0  0  0  0  0  0  0
   11.1710  -17.4758   22.5205 C   0  0  0  0  0  0  0  0  0  0  0  0
   11.7729  -17.6076   21.3440 N   0  0  0  0  0  0  0  0  0  0  0  0
   13.0907  -17.4809   21.5489 C   0  0  0  0  0  0  0  0  0  0  0  0
   13.3604  -17.2684   22.8404 N   0  0  0  0  0  0  0  0  0  0  0  0
   10.2496  -17.2949   26.7057 C   0  0  0  0  0  0  0  0  0  0  0  0
    9.9520  -16.2617   27.4008 O   0  0  0  0  0  0  0  0  0  0  0  0
   10.2729  -18.4994   27.3680 O   0  0  0  0  0  0  0  0  0  0  0  0
  2  1  1  6
  2  3  1  0
  3  4  1  0
  4  5  1  0
  6  5  1  0
  7  6  1  0
  8  2  1  0
  9  8  2  0
 10 11  1  0
 11 21  2  0
 11 12  1  0
 12 13  2  0
 13 14  1  0
 14 15  1  0
 16 15  1  1
 16 17  1  0
 17  8  1  0
 18 16  1  0
 18 22  1  0
 19 18  2  0
 20 14  2  0
 21 20  1  0
 23 22  1  0
 23 30  1  0
 23 24  1  1
 24 25  1  0
 25 29  1  0
 25 26  2  0
 26 27  1  0
 28 27  1  0
 29 28  2  0
 30 32  1  0
 31 30  2  0
M  END
$$$$
