KYH.pdb
     RDKit          3D

 32 33  0  0  1  0  0  0  0  0999 V2000
    8.0519  -16.9128   19.1624 N   0  0  0  0  0  0  0  0  0  0  0  0
    9.3534  -16.4010   19.4531 C   0  0  1  0  0  0  0  0  0  0  0  0
    9.8385  -15.3631   18.4653 C   0  0  0  0  0  0  0  0  0  0  0  0
    8.6763  -14.8898   17.6356 C   0  0  0  0  0  0  0  0  0  0  0  0
    9.1548  -14.2228   16.3816 C   0  0  0  0  0  0  0  0  0  0  0  0
    8.0171  -13.7930   15.4649 C   0  0  0  0  0  0  0  0  0  0  0  0
    8.5379  -13.1719   14.2592 N   0  0  0  0  0  0  0  0  0  0  0  0
    9.3834  -15.7865   20.8124 C   0  0  0  0  0  0  0  0  0  0  0  0
   10.4760  -15.3866   21.3127 O   0  0  0  0  0  0  0  0  0  0  0  0
    7.0611  -11.8077   28.2632 O   0  0  0  0  0  0  0  0  0  0  0  0
    7.0839  -12.3709   26.9889 C   0  0  0  0  0  0  0  0  0  0  0  0
    6.3508  -13.5195   26.7503 C   0  0  0  0  0  0  0  0  0  0  0  0
    6.3522  -14.1032   25.4967 C   0  0  0  0  0  0  0  0  0  0  0  0
    7.0833  -13.5491   24.4702 C   0  0  0  0  0  0  0  0  0  0  0  0
    7.1072  -14.1506   23.1343 C   0  0  0  0  0  0  0  0  0  0  0  0
    8.2959  -15.0537   22.9085 C   0  0  2  0  0  0  0  0  0  0  0  0
    8.1945  -15.6425   21.5596 N   0  0  0  0  0  0  0  0  0  0  0  0
    8.2876  -16.1247   23.9292 C   0  0  0  0  0  0  0  0  0  0  0  0
    7.4767  -17.0580   23.8289 O   0  0  0  0  0  0  0  0  0  0  0  0
    7.8144  -12.4059   24.7028 C   0  0  0  0  0  0  0  0  0  0  0  0
    7.8160  -11.8199   25.9518 C   0  0  0  0  0  0  0  0  0  0  0  0
    9.1932  -16.1058   25.0266 N   0  0  0  0  0  0  0  0  0  0  0  0
    9.8239  -17.3135   25.5574 C   0  0  1  0  0  0  0  0  0  0  0  0
   10.4469  -18.1306   24.4851 C   0  0  0  0  0  0  0  0  0  0  0  0
   11.0497  -19.3549   25.0489 C   0  0  0  0  0  0  0  0  0  0  0  0
   11.0717  -19.7571   26.3872 C   0  0  0  0  0  0  0  0  0  0  0  0
   11.7328  -20.9068   26.4570 N   0  0  0  0  0  0  0  0  0  0  0  0
   12.1178  -21.2265   25.2144 C   0  0  0  0  0  0  0  0  0  0  0  0
   11.7191  -20.3046   24.3330 N   0  0  0  0  0  0  0  0  0  0  0  0
   10.7154  -17.0117   26.6791 C   0  0  0  0  0  0  0  0  0  0  0  0
   11.4044  -15.9362   26.5913 O   0  0  0  0  0  0  0  0  0  0  0  0
   10.8865  -17.7641   27.8168 O   0  0  0  0  0  0  0  0  0  0  0  0
  2  1  1  6
  2  3  1  0
  3  4  1  0
  4  5  1  0
  6  5  1  0
  7  6  1  0
  8  2  1  0
  9  8  2  0
 10 11  1  0
 11 21  2  0
 11 12  1  0
 12 13  2  0
 13 14  1  0
 14 15  1  0
 16 15  1  1
 16 17  1  0
 17  8  1  0
 18 16  1  0
 18 22  1  0
 19 18  2  0
 20 14  2  0
 21 20  1  0
 23 22  1  0
 23 30  1  0
 23 24  1  6
 24 25  1  0
 25 29  1  0
 25 26  2  0
 26 27  1  0
 28 27  1  0
 29 28  2  0
 30 32  1  0
 31 30  2  0
M  END
$$$$
