KYH.pdb
     RDKit          3D

 32 33  0  0  1  0  0  0  0  0999 V2000
   11.0883  -16.7143   19.4858 N   0  0  0  0  0  0  0  0  0  0  0  0
    9.9568  -17.0772   20.2786 C   0  0  1  0  0  0  0  0  0  0  0  0
    9.9861  -18.5076   20.7699 C   0  0  0  0  0  0  0  0  0  0  0  0
   11.2607  -19.1614   20.3109 C   0  0  0  0  0  0  0  0  0  0  0  0
   11.2628  -20.6208   20.6525 C   0  0  0  0  0  0  0  0  0  0  0  0
   12.5195  -21.3404   20.1810 C   0  0  0  0  0  0  0  0  0  0  0  0
   12.4989  -22.7323   20.5971 N   0  0  0  0  0  0  0  0  0  0  0  0
    9.8452  -16.1872   21.4710 C   0  0  0  0  0  0  0  0  0  0  0  0
   10.8610  -15.5717   21.9106 O   0  0  0  0  0  0  0  0  0  0  0  0
    6.3844  -11.3587   27.9882 O   0  0  0  0  0  0  0  0  0  0  0  0
    6.5631  -12.1677   26.8677 C   0  0  0  0  0  0  0  0  0  0  0  0
    7.3338  -11.6994   25.8188 C   0  0  0  0  0  0  0  0  0  0  0  0
    7.5306  -12.4776   24.6927 C   0  0  0  0  0  0  0  0  0  0  0  0
    6.9620  -13.7281   24.6010 C   0  0  0  0  0  0  0  0  0  0  0  0
    7.1494  -14.5705   23.4170 C   0  0  0  0  0  0  0  0  0  0  0  0
    8.5559  -15.1023   23.2803 C   0  0  2  0  0  0  0  0  0  0  0  0
    8.6060  -16.0191   22.1256 N   0  0  0  0  0  0  0  0  0  0  0  0
    8.9185  -15.8279   24.5176 C   0  0  0  0  0  0  0  0  0  0  0  0
    9.0176  -15.2040   25.5851 O   0  0  0  0  0  0  0  0  0  0  0  0
    6.1943  -14.1984   25.6426 C   0  0  0  0  0  0  0  0  0  0  0  0
    5.9952  -13.4257   26.7681 C   0  0  0  0  0  0  0  0  0  0  0  0
    9.1567  -17.2308   24.5079 N   0  0  0  0  0  0  0  0  0  0  0  0
    9.5531  -17.9779   25.7008 C   0  0  1  0  0  0  0  0  0  0  0  0
    9.3460  -19.4390   25.5340 C   0  0  0  0  0  0  0  0  0  0  0  0
    8.0084  -19.7131   24.9721 C   0  0  0  0  0  0  0  0  0  0  0  0
    6.9865  -18.7953   24.7142 C   0  0  0  0  0  0  0  0  0  0  0  0
    5.9473  -19.4666   24.2312 N   0  0  0  0  0  0  0  0  0  0  0  0
    6.2906  -20.7605   24.1825 C   0  0  0  0  0  0  0  0  0  0  0  0
    7.5375  -20.9464   24.6256 N   0  0  0  0  0  0  0  0  0  0  0  0
   10.8964  -17.6079   26.1509 C   0  0  0  0  0  0  0  0  0  0  0  0
   11.3279  -18.1883   27.2074 O   0  0  0  0  0  0  0  0  0  0  0  0
   11.7415  -16.7026   25.5542 O   0  0  0  0  0  0  0  0  0  0  0  0
  2  1  1  1
  2  3  1  0
  3  4  1  0
  4  5  1  0
  6  5  1  0
  7  6  1  0
  8  2  1  0
  9  8  2  0
 10 11  1  0
 11 21  2  0
 11 12  1  0
 12 13  2  0
 13 14  1  0
 14 15  1  0
 16 15  1  1
 16 17  1  0
 17  8  1  0
 18 16  1  0
 18 22  1  0
 19 18  2  0
 20 14  2  0
 21 20  1  0
 23 22  1  0
 23 30  1  0
 23 24  1  6
 24 25  1  0
 25 29  1  0
 25 26  2  0
 26 27  1  0
 28 27  1  0
 29 28  2  0
 30 32  1  0
 31 30  2  0
M  END
$$$$
