KYH.pdb
     RDKit          3D

 32 33  0  0  1  0  0  0  0  0999 V2000
    9.0249  -16.1958   18.3268 N   0  0  0  0  0  0  0  0  0  0  0  0
    8.3846  -16.8464   19.4254 C   0  0  1  0  0  0  0  0  0  0  0  0
    8.8113  -18.2847   19.6192 C   0  0  0  0  0  0  0  0  0  0  0  0
    7.8321  -19.1886   18.9212 C   0  0  0  0  0  0  0  0  0  0  0  0
    8.2269  -20.6255   19.0821 C   0  0  0  0  0  0  0  0  0  0  0  0
    7.2352  -21.5899   18.4448 C   0  0  0  0  0  0  0  0  0  0  0  0
    7.7074  -22.9592   18.5587 N   0  0  0  0  0  0  0  0  0  0  0  0
    8.6546  -16.1149   20.6975 C   0  0  0  0  0  0  0  0  0  0  0  0
    9.8408  -15.8212   21.0304 O   0  0  0  0  0  0  0  0  0  0  0  0
    7.4754  -11.6425   28.1880 O   0  0  0  0  0  0  0  0  0  0  0  0
    7.2889  -12.2801   26.9630 C   0  0  0  0  0  0  0  0  0  0  0  0
    6.6776  -13.5207   26.9390 C   0  0  0  0  0  0  0  0  0  0  0  0
    6.4778  -14.1797   25.7398 C   0  0  0  0  0  0  0  0  0  0  0  0
    6.8848  -13.6097   24.5545 C   0  0  0  0  0  0  0  0  0  0  0  0
    6.6908  -14.2889   23.2708 C   0  0  0  0  0  0  0  0  0  0  0  0
    7.9249  -15.0112   22.7861 C   0  0  2  0  0  0  0  0  0  0  0  0
    7.5919  -15.7401   21.5475 N   0  0  0  0  0  0  0  0  0  0  0  0
    8.3665  -15.9629   23.8293 C   0  0  0  0  0  0  0  0  0  0  0  0
    7.6374  -16.9197   24.1316 O   0  0  0  0  0  0  0  0  0  0  0  0
    7.4936  -12.3750   24.5734 C   0  0  0  0  0  0  0  0  0  0  0  0
    7.6950  -11.7137   25.7673 C   0  0  0  0  0  0  0  0  0  0  0  0
    9.6141  -15.8024   24.4946 N   0  0  0  0  0  0  0  0  0  0  0  0
   10.1090  -16.7478   25.4944 C   0  0  1  0  0  0  0  0  0  0  0  0
   11.5579  -17.0261   25.3248 C   0  0  0  0  0  0  0  0  0  0  0  0
   11.8057  -17.7317   24.0517 C   0  0  0  0  0  0  0  0  0  0  0  0
   10.8587  -18.2640   23.1726 C   0  0  0  0  0  0  0  0  0  0  0  0
   11.5110  -18.8297   22.1636 N   0  0  0  0  0  0  0  0  0  0  0  0
   12.8214  -18.6660   22.3883 C   0  0  0  0  0  0  0  0  0  0  0  0
   13.0367  -18.0023   23.5280 N   0  0  0  0  0  0  0  0  0  0  0  0
    9.7269  -16.3518   26.8513 C   0  0  0  0  0  0  0  0  0  0  0  0
    9.9214  -17.2143   27.7772 O   0  0  0  0  0  0  0  0  0  0  0  0
    9.1827  -15.1483   27.2323 O   0  0  0  0  0  0  0  0  0  0  0  0
  2  1  1  6
  2  3  1  0
  3  4  1  0
  4  5  1  0
  6  5  1  0
  7  6  1  0
  8  2  1  0
  9  8  2  0
 10 11  1  0
 11 21  2  0
 11 12  1  0
 12 13  2  0
 13 14  1  0
 14 15  1  0
 16 15  1  1
 16 17  1  0
 17  8  1  0
 18 16  1  0
 18 22  1  0
 19 18  2  0
 20 14  2  0
 21 20  1  0
 23 22  1  0
 23 30  1  0
 23 24  1  1
 24 25  1  0
 25 29  1  0
 25 26  2  0
 26 27  1  0
 28 27  1  0
 29 28  2  0
 30 32  1  0
 31 30  2  0
M  END
$$$$
