KYH.pdb
     RDKit          3D

 32 33  0  0  1  0  0  0  0  0999 V2000
    9.6304  -16.9599   18.8375 N   0  0  0  0  0  0  0  0  0  0  0  0
    9.2208  -17.6632   20.0114 C   0  0  1  0  0  0  0  0  0  0  0  0
   10.0351  -18.9056   20.2969 C   0  0  0  0  0  0  0  0  0  0  0  0
    9.6688  -19.9750   19.3043 C   0  0  0  0  0  0  0  0  0  0  0  0
    9.9291  -21.3380   19.8707 C   0  0  0  0  0  0  0  0  0  0  0  0
    9.4834  -22.4621   18.9448 C   0  0  0  0  0  0  0  0  0  0  0  0
    9.8514  -23.7553   19.4955 N   0  0  0  0  0  0  0  0  0  0  0  0
    9.3046  -16.7774   21.2091 C   0  0  0  0  0  0  0  0  0  0  0  0
   10.4293  -16.4700   21.7035 O   0  0  0  0  0  0  0  0  0  0  0  0
    7.0535  -11.4152   27.8209 O   0  0  0  0  0  0  0  0  0  0  0  0
    7.0444  -12.2027   26.6712 C   0  0  0  0  0  0  0  0  0  0  0  0
    6.3809  -13.4162   26.6950 C   0  0  0  0  0  0  0  0  0  0  0  0
    6.3531  -14.2211   25.5708 C   0  0  0  0  0  0  0  0  0  0  0  0
    6.9856  -13.8253   24.4139 C   0  0  0  0  0  0  0  0  0  0  0  0
    6.9769  -14.6615   23.2108 C   0  0  0  0  0  0  0  0  0  0  0  0
    8.2833  -15.3810   22.9755 C   0  0  2  0  0  0  0  0  0  0  0  0
    8.1314  -16.2698   21.8078 N   0  0  0  0  0  0  0  0  0  0  0  0
    8.6173  -16.1775   24.1767 C   0  0  0  0  0  0  0  0  0  0  0  0
    7.8116  -17.0244   24.5917 O   0  0  0  0  0  0  0  0  0  0  0  0
    7.6472  -12.6182   24.3854 C   0  0  0  0  0  0  0  0  0  0  0  0
    7.6776  -11.8117   25.5043 C   0  0  0  0  0  0  0  0  0  0  0  0
    9.8473  -15.9912   24.8675 N   0  0  0  0  0  0  0  0  0  0  0  0
   10.2033  -16.7393   26.0725 C   0  0  1  0  0  0  0  0  0  0  0  0
   11.6017  -17.2369   26.0231 C   0  0  0  0  0  0  0  0  0  0  0  0
   11.7306  -18.3268   25.0354 C   0  0  0  0  0  0  0  0  0  0  0  0
   10.7043  -19.0699   24.4457 C   0  0  0  0  0  0  0  0  0  0  0  0
   11.2607  -19.9610   23.6333 N   0  0  0  0  0  0  0  0  0  0  0  0
   12.5882  -19.7947   23.7009 C   0  0  0  0  0  0  0  0  0  0  0  0
   12.9091  -18.8091   24.5443 N   0  0  0  0  0  0  0  0  0  0  0  0
    9.8713  -15.9965   27.2898 C   0  0  0  0  0  0  0  0  0  0  0  0
   10.0790  -16.5953   28.4022 O   0  0  0  0  0  0  0  0  0  0  0  0
    9.3613  -14.7218   27.3601 O   0  0  0  0  0  0  0  0  0  0  0  0
  2  1  1  6
  2  3  1  0
  3  4  1  0
  4  5  1  0
  6  5  1  0
  7  6  1  0
  8  2  1  0
  9  8  2  0
 10 11  1  0
 11 21  2  0
 11 12  1  0
 12 13  2  0
 13 14  1  0
 14 15  1  0
 16 15  1  1
 16 17  1  0
 17  8  1  0
 18 16  1  0
 18 22  1  0
 19 18  2  0
 20 14  2  0
 21 20  1  0
 23 22  1  0
 23 30  1  0
 23 24  1  6
 24 25  1  0
 25 29  1  0
 25 26  2  0
 26 27  1  0
 28 27  1  0
 29 28  2  0
 30 32  1  0
 31 30  2  0
M  END
$$$$
