KYH.pdb
     RDKit          3D

 32 33  0  0  1  0  0  0  0  0999 V2000
    9.7718  -16.5009   19.6482 N   0  0  0  0  0  0  0  0  0  0  0  0
    9.0740  -17.0532   20.7654 C   0  0  1  0  0  0  0  0  0  0  0  0
    9.0526  -18.5656   20.7880 C   0  0  0  0  0  0  0  0  0  0  0  0
    7.6527  -19.0439   20.5152 C   0  0  0  0  0  0  0  0  0  0  0  0
    7.6095  -20.5394   20.4261 C   0  0  0  0  0  0  0  0  0  0  0  0
    6.2372  -21.0728   20.0361 C   0  0  0  0  0  0  0  0  0  0  0  0
    6.2395  -22.5255   20.0159 N   0  0  0  0  0  0  0  0  0  0  0  0
    9.6813  -16.5862   22.0457 C   0  0  0  0  0  0  0  0  0  0  0  0
   10.9360  -16.4478   22.1488 O   0  0  0  0  0  0  0  0  0  0  0  0
   10.5035  -14.3636   30.5455 O   0  0  0  0  0  0  0  0  0  0  0  0
   10.0177  -14.5947   29.2600 C   0  0  0  0  0  0  0  0  0  0  0  0
   10.3244  -13.6946   28.2554 C   0  0  0  0  0  0  0  0  0  0  0  0
    9.8578  -13.8952   26.9692 C   0  0  0  0  0  0  0  0  0  0  0  0
    9.0820  -14.9929   26.6720 C   0  0  0  0  0  0  0  0  0  0  0  0
    8.5696  -15.2259   25.3192 C   0  0  0  0  0  0  0  0  0  0  0  0
    9.5330  -15.9863   24.4397 C   0  0  2  0  0  0  0  0  0  0  0  0
    8.8660  -16.2923   23.1599 N   0  0  0  0  0  0  0  0  0  0  0  0
    9.9188  -17.2415   25.1212 C   0  0  0  0  0  0  0  0  0  0  0  0
    9.0595  -18.1104   25.3338 O   0  0  0  0  0  0  0  0  0  0  0  0
    8.7741  -15.8916   27.6685 C   0  0  0  0  0  0  0  0  0  0  0  0
    9.2374  -15.6958   28.9532 C   0  0  0  0  0  0  0  0  0  0  0  0
   11.2593  -17.4729   25.5388 N   0  0  0  0  0  0  0  0  0  0  0  0
   11.6647  -18.6624   26.2865 C   0  0  1  0  0  0  0  0  0  0  0  0
   12.9433  -19.2250   25.7821 C   0  0  0  0  0  0  0  0  0  0  0  0
   12.7564  -19.8220   24.4447 C   0  0  0  0  0  0  0  0  0  0  0  0
   11.5564  -20.2150   23.8456 C   0  0  0  0  0  0  0  0  0  0  0  0
   11.8429  -20.7206   22.6515 N   0  0  0  0  0  0  0  0  0  0  0  0
   13.1715  -20.6538   22.4936 C   0  0  0  0  0  0  0  0  0  0  0  0
   13.7586  -20.1126   23.5651 N   0  0  0  0  0  0  0  0  0  0  0  0
   11.6380  -18.4298   27.7318 C   0  0  0  0  0  0  0  0  0  0  0  0
   11.8997  -19.4352   28.4800 O   0  0  0  0  0  0  0  0  0  0  0  0
   11.3625  -17.2421   28.3669 O   0  0  0  0  0  0  0  0  0  0  0  0
  2  1  1  6
  2  3  1  0
  3  4  1  0
  4  5  1  0
  6  5  1  0
  7  6  1  0
  8  2  1  0
  9  8  2  0
 10 11  1  0
 11 21  2  0
 11 12  1  0
 12 13  2  0
 13 14  1  0
 14 15  1  0
 16 15  1  1
 16 17  1  0
 17  8  1  0
 18 16  1  0
 18 22  1  0
 19 18  2  0
 20 14  2  0
 21 20  1  0
 23 22  1  0
 23 30  1  0
 23 24  1  6
 24 25  1  0
 25 29  1  0
 25 26  2  0
 26 27  1  0
 28 27  1  0
 29 28  2  0
 30 32  1  0
 31 30  2  0
M  END
$$$$
