KYH.pdb
     RDKit          3D

 32 33  0  0  1  0  0  0  0  0999 V2000
   10.5089  -17.0237   19.3230 N   0  0  0  0  0  0  0  0  0  0  0  0
    9.2090  -17.0669   19.9133 C   0  0  1  0  0  0  0  0  0  0  0  0
    8.6766  -18.4675   20.1214 C   0  0  0  0  0  0  0  0  0  0  0  0
    8.3741  -19.0846   18.7833 C   0  0  0  0  0  0  0  0  0  0  0  0
    7.6813  -20.4032   18.9501 C   0  0  0  0  0  0  0  0  0  0  0  0
    7.2537  -21.0224   17.6260 C   0  0  0  0  0  0  0  0  0  0  0  0
    6.5843  -22.2928   17.8474 N   0  0  0  0  0  0  0  0  0  0  0  0
    9.2113  -16.3782   21.2369 C   0  0  0  0  0  0  0  0  0  0  0  0
   10.2144  -16.4659   22.0051 O   0  0  0  0  0  0  0  0  0  0  0  0
    6.7849  -11.3989   28.0813 O   0  0  0  0  0  0  0  0  0  0  0  0
    6.8787  -12.0041   26.8296 C   0  0  0  0  0  0  0  0  0  0  0  0
    5.8921  -12.8911   26.4381 C   0  0  0  0  0  0  0  0  0  0  0  0
    5.9559  -13.5084   25.2022 C   0  0  0  0  0  0  0  0  0  0  0  0
    7.0019  -13.2483   24.3459 C   0  0  0  0  0  0  0  0  0  0  0  0
    7.0970  -13.8932   23.0337 C   0  0  0  0  0  0  0  0  0  0  0  0
    8.1608  -14.9628   22.9708 C   0  0  2  0  0  0  0  0  0  0  0  0
    8.0954  -15.6195   21.6514 N   0  0  0  0  0  0  0  0  0  0  0  0
    7.9113  -15.9534   24.0411 C   0  0  0  0  0  0  0  0  0  0  0  0
    6.9399  -16.7193   23.9504 O   0  0  0  0  0  0  0  0  0  0  0  0
    7.9862  -12.3661   24.7311 C   0  0  0  0  0  0  0  0  0  0  0  0
    7.9269  -11.7478   25.9630 C   0  0  0  0  0  0  0  0  0  0  0  0
    8.7653  -16.0454   25.1755 N   0  0  0  0  0  0  0  0  0  0  0  0
    9.3375  -17.3087   25.6392 C   0  0  1  0  0  0  0  0  0  0  0  0
    9.8951  -18.1088   24.5192 C   0  0  0  0  0  0  0  0  0  0  0  0
   10.4194  -19.3979   25.0124 C   0  0  0  0  0  0  0  0  0  0  0  0
   10.4321  -19.8666   26.3290 C   0  0  0  0  0  0  0  0  0  0  0  0
   11.0129  -21.0608   26.3316 N   0  0  0  0  0  0  0  0  0  0  0  0
   11.3577  -21.3442   25.0685 C   0  0  0  0  0  0  0  0  0  0  0  0
   11.0116  -20.3546   24.2398 N   0  0  0  0  0  0  0  0  0  0  0  0
   10.2641  -17.1073   26.7548 C   0  0  0  0  0  0  0  0  0  0  0  0
   10.8263  -18.1547   27.2303 O   0  0  0  0  0  0  0  0  0  0  0  0
   10.5931  -15.9088   27.3423 O   0  0  0  0  0  0  0  0  0  0  0  0
  2  1  1  1
  2  3  1  0
  3  4  1  0
  4  5  1  0
  6  5  1  0
  7  6  1  0
  8  2  1  0
  9  8  2  0
 10 11  1  0
 11 21  2  0
 11 12  1  0
 12 13  2  0
 13 14  1  0
 14 15  1  0
 16 15  1  6
 16 17  1  0
 17  8  1  0
 18 16  1  0
 18 22  1  0
 19 18  2  0
 20 14  2  0
 21 20  1  0
 23 22  1  0
 23 30  1  0
 23 24  1  6
 24 25  1  0
 25 29  1  0
 25 26  2  0
 26 27  1  0
 28 27  1  0
 29 28  2  0
 30 32  1  0
 31 30  2  0
M  END
$$$$
