KYH.pdb
     RDKit          3D

 32 33  0  0  1  0  0  0  0  0999 V2000
    7.8123  -17.9982   19.7826 N   0  0  0  0  0  0  0  0  0  0  0  0
    8.2092  -16.6886   20.1922 C   0  0  1  0  0  0  0  0  0  0  0  0
    7.6290  -15.5788   19.3437 C   0  0  0  0  0  0  0  0  0  0  0  0
    8.1958  -15.6723   17.9534 C   0  0  0  0  0  0  0  0  0  0  0  0
    7.6680  -14.5679   17.0885 C   0  0  0  0  0  0  0  0  0  0  0  0
    8.2406  -14.5918   15.6775 C   0  0  0  0  0  0  0  0  0  0  0  0
    7.8015  -13.4278   14.9270 N   0  0  0  0  0  0  0  0  0  0  0  0
    7.8086  -16.4381   21.6075 C   0  0  0  0  0  0  0  0  0  0  0  0
    6.5872  -16.3071   21.9159 O   0  0  0  0  0  0  0  0  0  0  0  0
    6.9417  -10.8866   27.9054 O   0  0  0  0  0  0  0  0  0  0  0  0
    7.0424  -11.9410   27.0000 C   0  0  0  0  0  0  0  0  0  0  0  0
    8.2967  -12.3525   26.5868 C   0  0  0  0  0  0  0  0  0  0  0  0
    8.4309  -13.3959   25.6891 C   0  0  0  0  0  0  0  0  0  0  0  0
    7.3181  -14.0383   25.1951 C   0  0  0  0  0  0  0  0  0  0  0  0
    7.4316  -15.1423   24.2385 C   0  0  0  0  0  0  0  0  0  0  0  0
    8.7504  -15.1609   23.5035 C   0  0  2  0  0  0  0  0  0  0  0  0
    8.7853  -16.3435   22.6222 N   0  0  0  0  0  0  0  0  0  0  0  0
    9.8504  -15.2334   24.4902 C   0  0  0  0  0  0  0  0  0  0  0  0
   10.1571  -14.2216   25.1388 O   0  0  0  0  0  0  0  0  0  0  0  0
    6.0675  -13.6324   25.6035 C   0  0  0  0  0  0  0  0  0  0  0  0
    5.9286  -12.5920   26.4989 C   0  0  0  0  0  0  0  0  0  0  0  0
   10.5657  -16.4437   24.7108 N   0  0  0  0  0  0  0  0  0  0  0  0
   11.9273  -16.4764   25.2428 C   0  0  1  0  0  0  0  0  0  0  0  0
   11.9799  -17.0906   26.5940 C   0  0  0  0  0  0  0  0  0  0  0  0
   11.1963  -16.2927   27.5580 C   0  0  0  0  0  0  0  0  0  0  0  0
   11.4774  -15.0078   28.0303 C   0  0  0  0  0  0  0  0  0  0  0  0
   10.5279  -14.6747   28.8970 N   0  0  0  0  0  0  0  0  0  0  0  0
    9.6748  -15.7044   28.9759 C   0  0  0  0  0  0  0  0  0  0  0  0
   10.0508  -16.7056   28.1746 N   0  0  0  0  0  0  0  0  0  0  0  0
   12.8710  -17.0522   24.2827 C   0  0  0  0  0  0  0  0  0  0  0  0
   12.3806  -17.4724   23.1773 O   0  0  0  0  0  0  0  0  0  0  0  0
   14.2294  -17.1860   24.4466 O   0  0  0  0  0  0  0  0  0  0  0  0
  2  1  1  6
  2  3  1  0
  3  4  1  0
  4  5  1  0
  6  5  1  0
  7  6  1  0
  8  2  1  0
  9  8  2  0
 10 11  1  0
 11 21  2  0
 11 12  1  0
 12 13  2  0
 13 14  1  0
 14 15  1  0
 16 15  1  1
 16 17  1  0
 17  8  1  0
 18 16  1  0
 18 22  1  0
 19 18  2  0
 20 14  2  0
 21 20  1  0
 23 22  1  0
 23 30  1  0
 23 24  1  1
 24 25  1  0
 25 29  1  0
 25 26  2  0
 26 27  1  0
 28 27  1  0
 29 28  2  0
 30 32  1  0
 31 30  2  0
M  END
$$$$
