KYH.pdb
     RDKit          3D

 32 33  0  0  1  0  0  0  0  0999 V2000
    9.8274  -20.0349   27.0589 N   0  0  0  0  0  0  0  0  0  0  0  0
   10.1951  -19.1575   25.9934 C   0  0  1  0  0  0  0  0  0  0  0  0
   10.5872  -19.8718   24.7189 C   0  0  0  0  0  0  0  0  0  0  0  0
   12.0593  -20.1791   24.7580 C   0  0  0  0  0  0  0  0  0  0  0  0
   12.5737  -20.4928   23.3856 C   0  0  0  0  0  0  0  0  0  0  0  0
   14.0121  -20.0404   23.1716 C   0  0  0  0  0  0  0  0  0  0  0  0
   14.4899  -20.4550   21.8636 N   0  0  0  0  0  0  0  0  0  0  0  0
    9.0738  -18.2281   25.6693 C   0  0  0  0  0  0  0  0  0  0  0  0
    7.8718  -18.6187   25.7497 O   0  0  0  0  0  0  0  0  0  0  0  0
   10.5803  -14.8500   30.6889 O   0  0  0  0  0  0  0  0  0  0  0  0
   10.0409  -14.7936   29.4053 C   0  0  0  0  0  0  0  0  0  0  0  0
    9.1314  -15.7608   29.0171 C   0  0  0  0  0  0  0  0  0  0  0  0
    8.5778  -15.7330   27.7501 C   0  0  0  0  0  0  0  0  0  0  0  0
    8.9248  -14.7428   26.8589 C   0  0  0  0  0  0  0  0  0  0  0  0
    8.3580  -14.6935   25.5087 C   0  0  0  0  0  0  0  0  0  0  0  0
    8.1899  -16.0571   24.8826 C   0  0  2  0  0  0  0  0  0  0  0  0
    9.3372  -16.9005   25.2684 N   0  0  0  0  0  0  0  0  0  0  0  0
    8.1439  -15.9089   23.4113 C   0  0  0  0  0  0  0  0  0  0  0  0
    7.2312  -15.2488   22.8920 O   0  0  0  0  0  0  0  0  0  0  0  0
    9.8295  -13.7778   27.2408 C   0  0  0  0  0  0  0  0  0  0  0  0
   10.3844  -13.8013   28.5037 C   0  0  0  0  0  0  0  0  0  0  0  0
    9.1281  -16.5099   22.5776 N   0  0  0  0  0  0  0  0  0  0  0  0
    9.1228  -16.3799   21.1211 C   0  0  1  0  0  0  0  0  0  0  0  0
    9.7299  -15.0995   20.6767 C   0  0  0  0  0  0  0  0  0  0  0  0
    8.6809  -14.1138   20.3479 C   0  0  0  0  0  0  0  0  0  0  0  0
    7.2966  -14.3064   20.3544 C   0  0  0  0  0  0  0  0  0  0  0  0
    6.7246  -13.1693   19.9758 N   0  0  0  0  0  0  0  0  0  0  0  0
    7.7029  -12.2859   19.7369 C   0  0  0  0  0  0  0  0  0  0  0  0
    8.9055  -12.8268   19.9531 N   0  0  0  0  0  0  0  0  0  0  0  0
    9.6775  -17.5675   20.4686 C   0  0  0  0  0  0  0  0  0  0  0  0
    9.7977  -17.5193   19.1949 O   0  0  0  0  0  0  0  0  0  0  0  0
   10.0837  -18.7277   21.0841 O   0  0  0  0  0  0  0  0  0  0  0  0
  2  1  1  1
  2  3  1  0
  3  4  1  0
  4  5  1  0
  6  5  1  0
  7  6  1  0
  8  2  1  0
  9  8  2  0
 10 11  1  0
 11 21  2  0
 11 12  1  0
 12 13  2  0
 13 14  1  0
 14 15  1  0
 16 15  1  1
 16 17  1  0
 17  8  1  0
 18 16  1  0
 18 22  1  0
 19 18  2  0
 20 14  2  0
 21 20  1  0
 23 22  1  0
 23 30  1  0
 23 24  1  1
 24 25  1  0
 25 29  1  0
 25 26  2  0
 26 27  1  0
 28 27  1  0
 29 28  2  0
 30 32  1  0
 31 30  2  0
M  END
$$$$
