KYH.pdb
     RDKit          3D

 32 33  0  0  1  0  0  0  0  0999 V2000
    9.7655  -16.9557   18.9766 N   0  0  0  0  0  0  0  0  0  0  0  0
    8.5763  -16.9938   19.7669 C   0  0  1  0  0  0  0  0  0  0  0  0
    8.0976  -18.3926   20.0870 C   0  0  0  0  0  0  0  0  0  0  0  0
    7.9641  -19.1736   18.8083 C   0  0  0  0  0  0  0  0  0  0  0  0
    7.5640  -20.5904   19.0897 C   0  0  0  0  0  0  0  0  0  0  0  0
    7.4461  -21.4369   17.8291 C   0  0  0  0  0  0  0  0  0  0  0  0
    7.1103  -22.8101   18.1642 N   0  0  0  0  0  0  0  0  0  0  0  0
    8.7819  -16.2751   21.0581 C   0  0  0  0  0  0  0  0  0  0  0  0
    9.9020  -16.3205   21.6475 O   0  0  0  0  0  0  0  0  0  0  0  0
    7.1829  -11.5539   28.3364 O   0  0  0  0  0  0  0  0  0  0  0  0
    7.0962  -12.1502   27.0800 C   0  0  0  0  0  0  0  0  0  0  0  0
    7.7471  -11.5603   26.0115 C   0  0  0  0  0  0  0  0  0  0  0  0
    7.6807  -12.1270   24.7518 C   0  0  0  0  0  0  0  0  0  0  0  0
    6.9660  -13.2853   24.5449 C   0  0  0  0  0  0  0  0  0  0  0  0
    6.8742  -13.9031   23.2195 C   0  0  0  0  0  0  0  0  0  0  0  0
    7.9815  -14.8922   22.9450 C   0  0  2  0  0  0  0  0  0  0  0  0
    7.7308  -15.5346   21.6408 N   0  0  0  0  0  0  0  0  0  0  0  0
    7.9926  -15.9121   24.0168 C   0  0  0  0  0  0  0  0  0  0  0  0
    7.1789  -16.8475   23.9785 O   0  0  0  0  0  0  0  0  0  0  0  0
    6.3166  -13.8762   25.6054 C   0  0  0  0  0  0  0  0  0  0  0  0
    6.3799  -13.3146   26.8639 C   0  0  0  0  0  0  0  0  0  0  0  0
    8.9201  -15.8414   25.0936 N   0  0  0  0  0  0  0  0  0  0  0  0
    9.6428  -17.0083   25.5980 C   0  0  1  0  0  0  0  0  0  0  0  0
   10.3048  -17.7652   24.5051 C   0  0  0  0  0  0  0  0  0  0  0  0
   10.9044  -19.0103   25.0249 C   0  0  0  0  0  0  0  0  0  0  0  0
   10.8349  -19.5121   26.3275 C   0  0  0  0  0  0  0  0  0  0  0  0
   11.5291  -20.6436   26.3665 N   0  0  0  0  0  0  0  0  0  0  0  0
   12.0224  -20.8565   25.1394 C   0  0  0  0  0  0  0  0  0  0  0  0
   11.6620  -19.8826   24.2983 N   0  0  0  0  0  0  0  0  0  0  0  0
   10.5283  -16.6587   26.7103 C   0  0  0  0  0  0  0  0  0  0  0  0
   11.2401  -17.6052   27.1967 O   0  0  0  0  0  0  0  0  0  0  0  0
   10.6746  -15.4181   27.2842 O   0  0  0  0  0  0  0  0  0  0  0  0
  2  1  1  1
  2  3  1  0
  3  4  1  0
  4  5  1  0
  6  5  1  0
  7  6  1  0
  8  2  1  0
  9  8  2  0
 10 11  1  0
 11 21  2  0
 11 12  1  0
 12 13  2  0
 13 14  1  0
 14 15  1  0
 16 15  1  1
 16 17  1  0
 17  8  1  0
 18 16  1  0
 18 22  1  0
 19 18  2  0
 20 14  2  0
 21 20  1  0
 23 22  1  0
 23 30  1  0
 23 24  1  6
 24 25  1  0
 25 29  1  0
 25 26  2  0
 26 27  1  0
 28 27  1  0
 29 28  2  0
 30 32  1  0
 31 30  2  0
M  END
$$$$
