KYH.pdb
     RDKit          3D

 32 33  0  0  1  0  0  0  0  0999 V2000
    9.9149  -16.7447   18.2895 N   0  0  0  0  0  0  0  0  0  0  0  0
    8.9528  -17.1154   19.2780 C   0  0  1  0  0  0  0  0  0  0  0  0
    8.9945  -18.5798   19.6550 C   0  0  0  0  0  0  0  0  0  0  0  0
    8.7191  -19.4124   18.4327 C   0  0  0  0  0  0  0  0  0  0  0  0
    9.5124  -20.6836   18.4654 C   0  0  0  0  0  0  0  0  0  0  0  0
    9.3371  -21.5268   17.2092 C   0  0  0  0  0  0  0  0  0  0  0  0
   10.1475  -22.7304   17.2833 N   0  0  0  0  0  0  0  0  0  0  0  0
    9.1473  -16.3177   20.5238 C   0  0  0  0  0  0  0  0  0  0  0  0
   10.3070  -15.9519   20.8781 O   0  0  0  0  0  0  0  0  0  0  0  0
    7.4367  -11.7222   27.8596 O   0  0  0  0  0  0  0  0  0  0  0  0
    7.3213  -12.4290   26.6643 C   0  0  0  0  0  0  0  0  0  0  0  0
    7.9062  -11.9137   25.5215 C   0  0  0  0  0  0  0  0  0  0  0  0
    7.8099  -12.5906   24.3195 C   0  0  0  0  0  0  0  0  0  0  0  0
    7.1307  -13.7858   24.2445 C   0  0  0  0  0  0  0  0  0  0  0  0
    7.0084  -14.5203   22.9827 C   0  0  0  0  0  0  0  0  0  0  0  0
    8.3004  -15.1640   22.5400 C   0  0  2  0  0  0  0  0  0  0  0  0
    8.0416  -15.9598   21.3250 N   0  0  0  0  0  0  0  0  0  0  0  0
    8.7966  -16.0418   23.6227 C   0  0  0  0  0  0  0  0  0  0  0  0
    8.1736  -17.0769   23.9039 O   0  0  0  0  0  0  0  0  0  0  0  0
    6.5471  -14.3027   25.3793 C   0  0  0  0  0  0  0  0  0  0  0  0
    6.6405  -13.6310   26.5808 C   0  0  0  0  0  0  0  0  0  0  0  0
    9.9770  -15.7217   24.3501 N   0  0  0  0  0  0  0  0  0  0  0  0
   10.5115  -16.5731   25.4120 C   0  0  1  0  0  0  0  0  0  0  0  0
   11.9903  -16.6887   25.3382 C   0  0  0  0  0  0  0  0  0  0  0  0
   12.3940  -17.4207   24.1211 C   0  0  0  0  0  0  0  0  0  0  0  0
   11.5735  -18.1322   23.2415 C   0  0  0  0  0  0  0  0  0  0  0  0
   12.3451  -18.6528   22.2943 N   0  0  0  0  0  0  0  0  0  0  0  0
   13.6073  -18.2892   22.5575 C   0  0  0  0  0  0  0  0  0  0  0  0
   13.6736  -17.5391   23.6615 N   0  0  0  0  0  0  0  0  0  0  0  0
   10.0033  -16.1820   26.7283 C   0  0  0  0  0  0  0  0  0  0  0  0
    9.2895  -15.1202   26.7757 O   0  0  0  0  0  0  0  0  0  0  0  0
   10.2129  -16.8392   27.9174 O   0  0  0  0  0  0  0  0  0  0  0  0
  2  1  1  6
  2  3  1  0
  3  4  1  0
  4  5  1  0
  6  5  1  0
  7  6  1  0
  8  2  1  0
  9  8  2  0
 10 11  1  0
 11 21  2  0
 11 12  1  0
 12 13  2  0
 13 14  1  0
 14 15  1  0
 16 15  1  1
 16 17  1  0
 17  8  1  0
 18 16  1  0
 18 22  1  0
 19 18  2  0
 20 14  2  0
 21 20  1  0
 23 22  1  0
 23 30  1  0
 23 24  1  1
 24 25  1  0
 25 29  1  0
 25 26  2  0
 26 27  1  0
 28 27  1  0
 29 28  2  0
 30 32  1  0
 31 30  2  0
M  END
$$$$
