KYH.pdb
     RDKit          3D

 32 33  0  0  1  0  0  0  0  0999 V2000
    9.2263  -18.7409   19.3735 N   0  0  0  0  0  0  0  0  0  0  0  0
   10.4496  -18.0631   19.0831 C   0  0  1  0  0  0  0  0  0  0  0  0
   10.4801  -17.4114   17.7183 C   0  0  0  0  0  0  0  0  0  0  0  0
    9.8897  -18.3555   16.7069 C   0  0  0  0  0  0  0  0  0  0  0  0
    9.9041  -17.7454   15.3380 C   0  0  0  0  0  0  0  0  0  0  0  0
    9.2647  -18.6376   14.2822 C   0  0  0  0  0  0  0  0  0  0  0  0
    9.3571  -18.0234   12.9687 N   0  0  0  0  0  0  0  0  0  0  0  0
   10.7167  -17.0048   20.1003 C   0  0  0  0  0  0  0  0  0  0  0  0
   11.8071  -16.3607   20.0864 O   0  0  0  0  0  0  0  0  0  0  0  0
    7.1593  -12.1831   17.6301 O   0  0  0  0  0  0  0  0  0  0  0  0
    7.6058  -12.8194   18.7866 C   0  0  0  0  0  0  0  0  0  0  0  0
    6.7997  -13.7737   19.3806 C   0  0  0  0  0  0  0  0  0  0  0  0
    7.2138  -14.4234   20.5290 C   0  0  0  0  0  0  0  0  0  0  0  0
    8.4332  -14.1288   21.0959 C   0  0  0  0  0  0  0  0  0  0  0  0
    8.8934  -14.7977   22.3156 C   0  0  0  0  0  0  0  0  0  0  0  0
   10.0995  -15.6784   22.0936 C   0  0  2  0  0  0  0  0  0  0  0  0
    9.7578  -16.7067   21.0924 N   0  0  0  0  0  0  0  0  0  0  0  0
   10.4675  -16.3223   23.3738 C   0  0  0  0  0  0  0  0  0  0  0  0
    9.5859  -16.8523   24.0668 O   0  0  0  0  0  0  0  0  0  0  0  0
    9.2391  -13.1797   20.5082 C   0  0  0  0  0  0  0  0  0  0  0  0
    8.8303  -12.5289   19.3624 C   0  0  0  0  0  0  0  0  0  0  0  0
   11.8161  -16.3457   23.8275 N   0  0  0  0  0  0  0  0  0  0  0  0
   12.4119  -17.5057   24.4891 C   0  0  1  0  0  0  0  0  0  0  0  0
   12.2037  -18.7543   23.7124 C   0  0  0  0  0  0  0  0  0  0  0  0
   12.8068  -19.9070   24.4107 C   0  0  0  0  0  0  0  0  0  0  0  0
   13.1724  -19.9935   25.7569 C   0  0  0  0  0  0  0  0  0  0  0  0
   13.6957  -21.1969   25.9612 N   0  0  0  0  0  0  0  0  0  0  0  0
   13.6661  -21.8529   24.7936 C   0  0  0  0  0  0  0  0  0  0  0  0
   13.1318  -21.0981   23.8289 N   0  0  0  0  0  0  0  0  0  0  0  0
   13.8043  -17.2579   24.8683 C   0  0  0  0  0  0  0  0  0  0  0  0
   14.4826  -16.4949   24.0958 O   0  0  0  0  0  0  0  0  0  0  0  0
   14.4565  -17.7593   25.9697 O   0  0  0  0  0  0  0  0  0  0  0  0
  2  1  1  1
  2  3  1  0
  3  4  1  0
  4  5  1  0
  6  5  1  0
  7  6  1  0
  8  2  1  0
  9  8  2  0
 10 11  1  0
 11 21  2  0
 11 12  1  0
 12 13  2  0
 13 14  1  0
 14 15  1  0
 16 15  1  1
 16 17  1  0
 17  8  1  0
 18 16  1  0
 18 22  1  0
 19 18  2  0
 20 14  2  0
 21 20  1  0
 23 22  1  0
 23 30  1  0
 23 24  1  6
 24 25  1  0
 25 29  1  0
 25 26  2  0
 26 27  1  0
 28 27  1  0
 29 28  2  0
 30 32  1  0
 31 30  2  0
M  END
$$$$
