PIG.pdb
     RDKit          3D

 20 20  0  0  1  0  0  0  0  0999 V2000
   28.7875  -20.7093  -15.3129 N   0  0  0  0  0  0  0  0  0  0  0  0
   28.9533  -20.0472  -16.5691 C   0  0  0  0  0  0  0  0  0  0  0  0
   28.5284  -18.6130  -16.3309 C   0  0  0  0  0  0  0  0  0  0  0  0
   27.3890  -18.7988  -15.3485 C   0  0  0  0  0  0  0  0  0  0  0  0
   27.9653  -19.9140  -14.4660 C   0  0  1  0  0  0  0  0  0  0  0  0
   26.8179  -20.6272  -13.8860 C   0  0  0  0  0  0  0  0  0  0  0  0
   26.4438  -21.7178  -14.4011 O   0  0  0  0  0  0  0  0  0  0  0  0
   26.5341  -20.4452   -8.6561 C   0  0  0  0  0  0  0  0  0  0  0  0
   26.3200  -21.0362  -10.0406 C   0  0  0  0  0  0  0  0  0  0  0  0
   25.0898  -20.5060  -10.6919 C   0  0  2  0  0  0  0  0  0  0  0  0
   23.8272  -20.9279   -9.9552 C   0  0  0  0  0  0  0  0  0  0  0  0
   24.9827  -20.7459  -12.1639 C   0  0  2  0  0  0  0  0  0  0  0  0
   26.1558  -20.0946  -12.7764 N   0  0  0  0  0  0  0  0  0  0  0  0
   23.7509  -20.2720  -12.7933 C   0  0  0  0  0  0  0  0  0  0  0  0
   23.4604  -19.0605  -12.8068 O   0  0  0  0  0  0  0  0  0  0  0  0
   22.8625  -21.1922  -13.4017 N   0  0  0  0  0  0  0  0  0  0  0  0
   21.6325  -20.8185  -14.0376 C   0  0  0  0  0  0  0  0  0  0  0  0
   20.4767  -20.8733  -13.1424 C   0  0  0  0  0  0  0  0  0  0  0  0
   19.2198  -20.4856  -13.5677 O   0  0  0  0  0  0  0  0  0  0  0  0
   20.6127  -21.2772  -11.9648 O   0  0  0  0  0  0  0  0  0  0  0  0
  1  2  1  0
  3  2  1  0
  4  5  1  0
  4  3  1  0
  5  1  1  0
  5  6  1  6
  7  6  2  0
  9  8  1  0
  9 10  1  0
 10 12  1  0
 10 11  1  1
 12 13  1  6
 13  6  1  0
 14 15  2  0
 14 12  1  0
 16 14  1  0
 17 16  1  0
 18 17  1  0
 18 19  1  0
 20 18  2  0
M  END
$$$$
