PIG.pdb
     RDKit          3D

 20 20  0  0  1  0  0  0  0  0999 V2000
   28.5729  -21.6233  -15.2052 N   0  0  0  0  0  0  0  0  0  0  0  0
   28.7450  -21.2546  -16.5758 C   0  0  0  0  0  0  0  0  0  0  0  0
   28.3675  -19.7898  -16.6524 C   0  0  0  0  0  0  0  0  0  0  0  0
   27.2340  -19.7211  -15.6482 C   0  0  0  0  0  0  0  0  0  0  0  0
   27.7854  -20.6369  -14.5474 C   0  0  1  0  0  0  0  0  0  0  0  0
   26.6230  -21.1697  -13.8216 C   0  0  0  0  0  0  0  0  0  0  0  0
   26.1221  -22.2717  -14.1814 O   0  0  0  0  0  0  0  0  0  0  0  0
   26.6899  -20.5621   -8.6148 C   0  0  0  0  0  0  0  0  0  0  0  0
   26.3833  -21.1497   -9.9832 C   0  0  0  0  0  0  0  0  0  0  0  0
   25.1380  -20.5814  -10.5706 C   0  0  2  0  0  0  0  0  0  0  0  0
   23.9180  -20.8675   -9.7078 C   0  0  0  0  0  0  0  0  0  0  0  0
   24.8929  -20.9097  -12.0087 C   0  0  2  0  0  0  0  0  0  0  0  0
   26.0865  -20.4556  -12.7467 N   0  0  0  0  0  0  0  0  0  0  0  0
   23.6831  -20.3312  -12.5916 C   0  0  0  0  0  0  0  0  0  0  0  0
   23.5191  -19.0970  -12.6395 O   0  0  0  0  0  0  0  0  0  0  0  0
   22.6715  -21.1734  -13.1144 N   0  0  0  0  0  0  0  0  0  0  0  0
   21.4513  -20.6949  -13.6965 C   0  0  0  0  0  0  0  0  0  0  0  0
   20.3519  -20.5925  -12.7366 C   0  0  0  0  0  0  0  0  0  0  0  0
   19.1278  -20.0631  -13.1004 O   0  0  0  0  0  0  0  0  0  0  0  0
   20.5076  -20.9879  -11.5586 O   0  0  0  0  0  0  0  0  0  0  0  0
  1  2  1  0
  3  2  1  0
  4  5  1  0
  4  3  1  0
  5  1  1  0
  5  6  1  6
  7  6  2  0
  9  8  1  0
  9 10  1  0
 10 12  1  0
 10 11  1  1
 12 13  1  6
 13  6  1  0
 14 15  2  0
 14 12  1  0
 16 14  1  0
 17 16  1  0
 18 17  1  0
 18 19  1  0
 20 18  2  0
M  END
$$$$
