PIG.pdb
     RDKit          3D

 20 20  0  0  1  0  0  0  0  0999 V2000
   27.2475  -19.0268  -15.3181 N   0  0  0  0  0  0  0  0  0  0  0  0
   28.4378  -18.2969  -15.0107 C   0  0  0  0  0  0  0  0  0  0  0  0
   29.5483  -19.3265  -14.9790 C   0  0  0  0  0  0  0  0  0  0  0  0
   28.8295  -20.5221  -14.3861 C   0  0  0  0  0  0  0  0  0  0  0  0
   27.4777  -20.4151  -15.1045 C   0  0  1  0  0  0  0  0  0  0  0  0
   26.4874  -21.0707  -14.2380 C   0  0  0  0  0  0  0  0  0  0  0  0
   26.5053  -22.3280  -14.1208 O   0  0  0  0  0  0  0  0  0  0  0  0
   26.3204  -20.2905   -9.4285 C   0  0  0  0  0  0  0  0  0  0  0  0
   26.0671  -20.8804  -10.8069 C   0  0  0  0  0  0  0  0  0  0  0  0
   24.7230  -20.5144  -11.3344 C   0  0  2  0  0  0  0  0  0  0  0  0
   23.6042  -20.9635  -10.4063 C   0  0  0  0  0  0  0  0  0  0  0  0
   24.4582  -20.9012  -12.7543 C   0  0  2  0  0  0  0  0  0  0  0  0
   25.5410  -20.3010  -13.5561 N   0  0  0  0  0  0  0  0  0  0  0  0
   23.1537  -20.5066  -13.2839 C   0  0  0  0  0  0  0  0  0  0  0  0
   22.8000  -19.3120  -13.2984 O   0  0  0  0  0  0  0  0  0  0  0  0
   22.2657  -21.4859  -13.7921 N   0  0  0  0  0  0  0  0  0  0  0  0
   20.9716  -21.1903  -14.3352 C   0  0  0  0  0  0  0  0  0  0  0  0
   19.9017  -21.2286  -13.3382 C   0  0  0  0  0  0  0  0  0  0  0  0
   18.5989  -20.9065  -13.6700 O   0  0  0  0  0  0  0  0  0  0  0  0
   20.1553  -21.5576  -12.1567 O   0  0  0  0  0  0  0  0  0  0  0  0
  1  2  1  0
  3  2  1  0
  4  5  1  0
  4  3  1  0
  5  1  1  0
  5  6  1  1
  7  6  2  0
  9  8  1  0
  9 10  1  0
 10 12  1  0
 10 11  1  1
 12 13  1  6
 13  6  1  0
 14 15  2  0
 14 12  1  0
 16 14  1  0
 17 16  1  0
 18 17  1  0
 18 19  1  0
 20 18  2  0
M  END
$$$$
