PIG.pdb
     RDKit          3D

 20 20  0  0  1  0  0  0  0  0999 V2000
   28.4036  -20.5412  -14.3853 N   0  0  0  0  0  0  0  0  0  0  0  0
   28.2579  -19.7702  -15.5804 C   0  0  0  0  0  0  0  0  0  0  0  0
   27.9235  -18.3667  -15.1195 C   0  0  0  0  0  0  0  0  0  0  0  0
   27.0638  -18.6491  -13.9034 C   0  0  0  0  0  0  0  0  0  0  0  0
   27.8289  -19.8313  -13.2937 C   0  0  1  0  0  0  0  0  0  0  0  0
   26.8545  -20.6040  -12.5096 C   0  0  0  0  0  0  0  0  0  0  0  0
   26.5895  -21.7909  -12.8501 O   0  0  0  0  0  0  0  0  0  0  0  0
   27.1889  -19.6190   -7.3017 C   0  0  0  0  0  0  0  0  0  0  0  0
   26.9574  -20.4315   -8.5660 C   0  0  0  0  0  0  0  0  0  0  0  0
   25.5909  -20.2256   -9.1218 C   0  0  2  0  0  0  0  0  0  0  0  0
   24.5068  -20.6539   -8.1439 C   0  0  0  0  0  0  0  0  0  0  0  0
   25.3586  -20.7822  -10.4901 C   0  0  2  0  0  0  0  0  0  0  0  0
   26.2341  -20.0212  -11.4011 N   0  0  0  0  0  0  0  0  0  0  0  0
   23.9752  -20.7423  -10.9619 C   0  0  0  0  0  0  0  0  0  0  0  0
   23.0724  -21.3546  -10.3599 O   0  0  0  0  0  0  0  0  0  0  0  0
   23.6391  -20.0005  -12.1207 N   0  0  0  0  0  0  0  0  0  0  0  0
   22.2941  -19.7104  -12.5250 C   0  0  0  0  0  0  0  0  0  0  0  0
   21.7135  -20.7388  -13.3886 C   0  0  0  0  0  0  0  0  0  0  0  0
   20.4910  -20.5516  -14.0063 O   0  0  0  0  0  0  0  0  0  0  0  0
   22.3240  -21.8151  -13.5817 O   0  0  0  0  0  0  0  0  0  0  0  0
  1  2  1  0
  3  2  1  0
  4  5  1  0
  4  3  1  0
  5  1  1  0
  5  6  1  6
  7  6  2  0
  9  8  1  0
  9 10  1  0
 10 12  1  0
 10 11  1  1
 12 13  1  6
 13  6  1  0
 14 15  2  0
 14 12  1  0
 16 14  1  0
 17 16  1  0
 18 17  1  0
 18 19  1  0
 20 18  2  0
M  END
$$$$
