PIG.pdb
     RDKit          3D

 20 20  0  0  1  0  0  0  0  0999 V2000
   18.2906  -25.9718   -8.4001 N   0  0  0  0  0  0  0  0  0  0  0  0
   17.9418  -25.2195   -9.5647 C   0  0  0  0  0  0  0  0  0  0  0  0
   17.9138  -23.7721   -9.1194 C   0  0  0  0  0  0  0  0  0  0  0  0
   17.3650  -23.9035   -7.7125 C   0  0  0  0  0  0  0  0  0  0  0  0
   18.1070  -25.1623   -7.2439 C   0  0  1  0  0  0  0  0  0  0  0  0
   17.2767  -25.7750   -6.1966 C   0  0  0  0  0  0  0  0  0  0  0  0
   16.4452  -26.6713   -6.5129 O   0  0  0  0  0  0  0  0  0  0  0  0
   19.5328  -28.1048   -2.2045 C   0  0  0  0  0  0  0  0  0  0  0  0
   18.4449  -27.7287   -3.1980 C   0  0  0  0  0  0  0  0  0  0  0  0
   17.7256  -26.4873   -2.7977 C   0  0  2  0  0  0  0  0  0  0  0  0
   17.1888  -26.5720   -1.3766 C   0  0  0  0  0  0  0  0  0  0  0  0
   16.6863  -26.0038   -3.7580 C   0  0  2  0  0  0  0  0  0  0  0  0
   17.4147  -25.3622   -4.8685 N   0  0  0  0  0  0  0  0  0  0  0  0
   15.6920  -25.0862   -3.2037 C   0  0  0  0  0  0  0  0  0  0  0  0
   14.8014  -25.4921   -2.4327 O   0  0  0  0  0  0  0  0  0  0  0  0
   15.7276  -23.7105   -3.5388 N   0  0  0  0  0  0  0  0  0  0  0  0
   14.8354  -22.7290   -2.9934 C   0  0  0  0  0  0  0  0  0  0  0  0
   13.5368  -22.6882   -3.6659 C   0  0  0  0  0  0  0  0  0  0  0  0
   13.1935  -23.6254   -4.6223 O   0  0  0  0  0  0  0  0  0  0  0  0
   12.7092  -21.7926   -3.3803 O   0  0  0  0  0  0  0  0  0  0  0  0
  1  2  1  0
  3  2  1  0
  4  5  1  0
  4  3  1  0
  5  1  1  0
  5  6  1  1
  7  6  2  0
  9  8  1  0
  9 10  1  0
 10 12  1  0
 10 11  1  1
 12 13  1  6
 13  6  1  0
 14 15  2  0
 14 12  1  0
 16 14  1  0
 17 16  1  0
 18 17  1  0
 18 19  1  0
 20 18  2  0
M  END
$$$$
