PIG.pdb
     RDKit          3D

 20 20  0  0  1  0  0  0  0  0999 V2000
   26.3914  -35.9115  -11.9674 N   0  0  0  0  0  0  0  0  0  0  0  0
   26.9681  -37.1154  -12.4794 C   0  0  0  0  0  0  0  0  0  0  0  0
   26.5897  -38.1989  -11.4910 C   0  0  0  0  0  0  0  0  0  0  0  0
   26.6540  -37.4416  -10.1794 C   0  0  0  0  0  0  0  0  0  0  0  0
   26.0340  -36.1035  -10.6031 C   0  0  1  0  0  0  0  0  0  0  0  0
   26.5638  -35.0846   -9.6852 C   0  0  0  0  0  0  0  0  0  0  0  0
   27.6435  -34.4959   -9.9724 O   0  0  0  0  0  0  0  0  0  0  0  0
   23.9276  -31.0013   -8.9017 C   0  0  0  0  0  0  0  0  0  0  0  0
   25.0363  -32.0410   -8.9455 C   0  0  0  0  0  0  0  0  0  0  0  0
   25.2768  -32.6599   -7.6121 C   0  0  2  0  0  0  0  0  0  0  0  0
   25.4982  -31.6142   -6.5293 C   0  0  0  0  0  0  0  0  0  0  0  0
   26.3201  -33.7304   -7.5747 C   0  0  2  0  0  0  0  0  0  0  0  0
   25.8717  -34.7788   -8.5102 N   0  0  0  0  0  0  0  0  0  0  0  0
   26.5891  -34.3047   -6.2572 C   0  0  0  0  0  0  0  0  0  0  0  0
   25.6756  -34.8101   -5.5771 O   0  0  0  0  0  0  0  0  0  0  0  0
   27.9039  -34.2940   -5.7307 N   0  0  0  0  0  0  0  0  0  0  0  0
   28.2419  -34.7355   -4.4087 C   0  0  0  0  0  0  0  0  0  0  0  0
   28.1411  -36.1850   -4.2378 C   0  0  0  0  0  0  0  0  0  0  0  0
   28.5773  -36.8038   -3.0812 O   0  0  0  0  0  0  0  0  0  0  0  0
   27.6523  -36.8925   -5.1482 O   0  0  0  0  0  0  0  0  0  0  0  0
  1  2  1  0
  3  2  1  0
  4  5  1  0
  4  3  1  0
  5  1  1  0
  5  6  1  1
  7  6  2  0
  9  8  1  0
  9 10  1  0
 10 12  1  0
 10 11  1  1
 12 13  1  6
 13  6  1  0
 14 15  2  0
 14 12  1  0
 16 14  1  0
 17 16  1  0
 18 17  1  0
 18 19  1  0
 20 18  2  0
M  END
$$$$
