PIG.pdb
     RDKit          3D

 20 20  0  0  1  0  0  0  0  0999 V2000
   43.0916   -9.3365   -5.9547 N   0  0  0  0  0  0  0  0  0  0  0  0
   43.5691  -10.6035   -5.4957 C   0  0  0  0  0  0  0  0  0  0  0  0
   44.3255  -11.1998   -6.6646 C   0  0  0  0  0  0  0  0  0  0  0  0
   43.4925  -10.7178   -7.8358 C   0  0  0  0  0  0  0  0  0  0  0  0
   43.1695   -9.2902   -7.3751 C   0  0  1  0  0  0  0  0  0  0  0  0
   41.9168   -8.9060   -8.0419 C   0  0  0  0  0  0  0  0  0  0  0  0
   41.8528   -8.9390   -9.3027 O   0  0  0  0  0  0  0  0  0  0  0  0
   37.9216  -10.8691   -5.9643 C   0  0  0  0  0  0  0  0  0  0  0  0
   38.4858  -10.2313   -7.2241 C   0  0  0  0  0  0  0  0  0  0  0  0
   38.4522   -8.7434   -7.1621 C   0  0  2  0  0  0  0  0  0  0  0  0
   37.0856   -8.1877   -7.5341 C   0  0  0  0  0  0  0  0  0  0  0  0
   39.5556   -8.0408   -7.8864 C   0  0  2  0  0  0  0  0  0  0  0  0
   40.8150   -8.5101   -7.2786 N   0  0  0  0  0  0  0  0  0  0  0  0
   39.4944   -6.5801   -7.8672 C   0  0  0  0  0  0  0  0  0  0  0  0
   39.4995   -5.9502   -6.7922 O   0  0  0  0  0  0  0  0  0  0  0  0
   39.4274   -5.8541   -9.0815 N   0  0  0  0  0  0  0  0  0  0  0  0
   39.3586   -4.4236   -9.1577 C   0  0  0  0  0  0  0  0  0  0  0  0
   40.6722   -3.7798   -9.1754 C   0  0  0  0  0  0  0  0  0  0  0  0
   41.1520   -3.1581  -10.3130 O   0  0  0  0  0  0  0  0  0  0  0  0
   41.3876   -3.7837   -8.1475 O   0  0  0  0  0  0  0  0  0  0  0  0
  1  2  1  0
  3  2  1  0
  4  5  1  0
  4  3  1  0
  5  1  1  0
  5  6  1  6
  7  6  2  0
  9  8  1  0
  9 10  1  0
 10 12  1  0
 10 11  1  6
 12 13  1  1
 13  6  1  0
 14 15  2  0
 14 12  1  0
 16 14  1  0
 17 16  1  0
 18 17  1  0
 18 19  1  0
 20 18  2  0
M  END
$$$$
