PIG.pdb
     RDKit          3D

 20 20  0  0  1  0  0  0  0  0999 V2000
   28.1397  -20.9475  -14.6757 N   0  0  0  0  0  0  0  0  0  0  0  0
   28.0881  -20.2830  -15.9405 C   0  0  0  0  0  0  0  0  0  0  0  0
   27.7978  -18.8305  -15.6241 C   0  0  0  0  0  0  0  0  0  0  0  0
   26.8682  -18.9645  -14.4343 C   0  0  0  0  0  0  0  0  0  0  0  0
   27.5469  -20.1176  -13.6829 C   0  0  1  0  0  0  0  0  0  0  0  0
   26.5007  -20.7739  -12.8853 C   0  0  0  0  0  0  0  0  0  0  0  0
   26.1056  -21.9274  -13.2139 O   0  0  0  0  0  0  0  0  0  0  0  0
   27.2223  -20.0073   -7.7399 C   0  0  0  0  0  0  0  0  0  0  0  0
   26.8030  -20.7259   -9.0126 C   0  0  0  0  0  0  0  0  0  0  0  0
   25.4436  -20.3174   -9.4645 C   0  0  2  0  0  0  0  0  0  0  0  0
   24.3785  -20.6311   -8.4244 C   0  0  0  0  0  0  0  0  0  0  0  0
   25.0469  -20.7871  -10.8276 C   0  0  2  0  0  0  0  0  0  0  0  0
   25.9564  -20.1188  -11.7771 N   0  0  0  0  0  0  0  0  0  0  0  0
   23.6539  -20.5434  -11.1992 C   0  0  0  0  0  0  0  0  0  0  0  0
   22.7168  -20.9881  -10.5090 O   0  0  0  0  0  0  0  0  0  0  0  0
   23.3477  -19.7916  -12.3599 N   0  0  0  0  0  0  0  0  0  0  0  0
   22.0168  -19.4294  -12.7526 C   0  0  0  0  0  0  0  0  0  0  0  0
   21.2485  -20.5482  -13.2989 C   0  0  0  0  0  0  0  0  0  0  0  0
   19.9227  -20.4000  -13.6611 O   0  0  0  0  0  0  0  0  0  0  0  0
   21.7887  -21.6683  -13.4472 O   0  0  0  0  0  0  0  0  0  0  0  0
  1  2  1  0
  3  2  1  0
  4  5  1  0
  4  3  1  0
  5  1  1  0
  5  6  1  6
  7  6  2  0
  9  8  1  0
  9 10  1  0
 10 12  1  0
 10 11  1  1
 12 13  1  6
 13  6  1  0
 14 15  2  0
 14 12  1  0
 16 14  1  0
 17 16  1  0
 18 17  1  0
 18 19  1  0
 20 18  2  0
M  END
$$$$
