PIG.pdb
     RDKit          3D

 20 20  0  0  1  0  0  0  0  0999 V2000
   28.3242  -20.9293  -15.5007 N   0  0  0  0  0  0  0  0  0  0  0  0
   28.3668  -20.3742  -16.8175 C   0  0  0  0  0  0  0  0  0  0  0  0
   27.8131  -18.9707  -16.6843 C   0  0  0  0  0  0  0  0  0  0  0  0
   26.7432  -19.1711  -15.6293 C   0  0  0  0  0  0  0  0  0  0  0  0
   27.4663  -20.1399  -14.6842 C   0  0  1  0  0  0  0  0  0  0  0  0
   26.4225  -20.9013  -13.9825 C   0  0  0  0  0  0  0  0  0  0  0  0
   26.2828  -22.1315  -14.2309 O   0  0  0  0  0  0  0  0  0  0  0  0
   26.6261  -20.5448   -8.9092 C   0  0  0  0  0  0  0  0  0  0  0  0
   26.2945  -21.1085  -10.2820 C   0  0  0  0  0  0  0  0  0  0  0  0
   24.9807  -20.6198  -10.7858 C   0  0  2  0  0  0  0  0  0  0  0  0
   23.8444  -20.9499   -9.8294 C   0  0  0  0  0  0  0  0  0  0  0  0
   24.6491  -20.9931  -12.1952 C   0  0  2  0  0  0  0  0  0  0  0  0
   25.5995  -20.2601  -13.0526 N   0  0  0  0  0  0  0  0  0  0  0  0
   23.2741  -20.7239  -12.6133 C   0  0  0  0  0  0  0  0  0  0  0  0
   22.3071  -21.2053  -11.9923 O   0  0  0  0  0  0  0  0  0  0  0  0
   23.0199  -19.9049  -13.7406 N   0  0  0  0  0  0  0  0  0  0  0  0
   21.7087  -19.5046  -14.1615 C   0  0  0  0  0  0  0  0  0  0  0  0
   20.9504  -20.5809  -14.7993 C   0  0  0  0  0  0  0  0  0  0  0  0
   19.6052  -20.4400  -15.0852 O   0  0  0  0  0  0  0  0  0  0  0  0
   21.5171  -21.6571  -15.0981 O   0  0  0  0  0  0  0  0  0  0  0  0
  1  2  1  0
  3  2  1  0
  4  5  1  0
  4  3  1  0
  5  1  1  0
  5  6  1  6
  7  6  2  0
  9  8  1  0
  9 10  1  0
 10 12  1  0
 10 11  1  1
 12 13  1  6
 13  6  1  0
 14 15  2  0
 14 12  1  0
 16 14  1  0
 17 16  1  0
 18 17  1  0
 18 19  1  0
 20 18  2  0
M  END
$$$$
