PIG.pdb
     RDKit          3D

 20 20  0  0  1  0  0  0  0  0999 V2000
   28.7088  -20.7042  -15.4894 N   0  0  0  0  0  0  0  0  0  0  0  0
   28.8070  -20.0244  -16.7433 C   0  0  0  0  0  0  0  0  0  0  0  0
   28.4321  -18.5855  -16.4551 C   0  0  0  0  0  0  0  0  0  0  0  0
   27.3557  -18.7629  -15.4025 C   0  0  0  0  0  0  0  0  0  0  0  0
   27.9628  -19.9056  -14.5777 C   0  0  1  0  0  0  0  0  0  0  0  0
   26.8397  -20.6031  -13.9343 C   0  0  0  0  0  0  0  0  0  0  0  0
   26.4942  -21.7410  -14.3593 O   0  0  0  0  0  0  0  0  0  0  0  0
   26.6821  -20.3901   -8.7111 C   0  0  0  0  0  0  0  0  0  0  0  0
   26.4613  -20.9090  -10.1232 C   0  0  0  0  0  0  0  0  0  0  0  0
   25.2054  -20.3798  -10.7244 C   0  0  2  0  0  0  0  0  0  0  0  0
   23.9762  -20.7791   -9.9216 C   0  0  0  0  0  0  0  0  0  0  0  0
   25.0266  -20.6434  -12.1854 C   0  0  2  0  0  0  0  0  0  0  0  0
   26.1689  -20.0037  -12.8647 N   0  0  0  0  0  0  0  0  0  0  0  0
   23.7659  -20.1782  -12.7618 C   0  0  0  0  0  0  0  0  0  0  0  0
   23.4476  -18.9742  -12.7254 O   0  0  0  0  0  0  0  0  0  0  0  0
   22.8808  -21.0984  -13.3748 N   0  0  0  0  0  0  0  0  0  0  0  0
   21.6277  -20.7318  -13.9682 C   0  0  0  0  0  0  0  0  0  0  0  0
   20.4741  -21.0347  -13.1210 C   0  0  0  0  0  0  0  0  0  0  0  0
   19.1894  -20.7079  -13.5132 O   0  0  0  0  0  0  0  0  0  0  0  0
   20.6375  -21.6011  -12.0161 O   0  0  0  0  0  0  0  0  0  0  0  0
  1  2  1  0
  3  2  1  0
  4  5  1  0
  4  3  1  0
  5  1  1  0
  5  6  1  6
  7  6  2  0
  9  8  1  0
  9 10  1  0
 10 12  1  0
 10 11  1  1
 12 13  1  6
 13  6  1  0
 14 15  2  0
 14 12  1  0
 16 14  1  0
 17 16  1  0
 18 17  1  0
 18 19  1  0
 20 18  2  0
M  END
$$$$
