PIG.pdb
     RDKit          3D

 20 20  0  0  1  0  0  0  0  0999 V2000
   28.7433  -20.3571  -15.3575 N   0  0  0  0  0  0  0  0  0  0  0  0
   28.8497  -19.6515  -16.5964 C   0  0  0  0  0  0  0  0  0  0  0  0
   28.3657  -18.2461  -16.3057 C   0  0  0  0  0  0  0  0  0  0  0  0
   27.2589  -18.5130  -15.3048 C   0  0  0  0  0  0  0  0  0  0  0  0
   27.9056  -19.6257  -14.4692 C   0  0  1  0  0  0  0  0  0  0  0  0
   26.8055  -20.4078  -13.8863 C   0  0  0  0  0  0  0  0  0  0  0  0
   26.4717  -21.5005  -14.4242 O   0  0  0  0  0  0  0  0  0  0  0  0
   26.6433  -20.3400   -8.6514 C   0  0  0  0  0  0  0  0  0  0  0  0
   26.4348  -20.9095  -10.0457 C   0  0  0  0  0  0  0  0  0  0  0  0
   25.1523  -20.4536  -10.6509 C   0  0  2  0  0  0  0  0  0  0  0  0
   23.9439  -20.9833   -9.8932 C   0  0  0  0  0  0  0  0  0  0  0  0
   25.0219  -20.6647  -12.1255 C   0  0  2  0  0  0  0  0  0  0  0  0
   26.1434  -19.9373  -12.7489 N   0  0  0  0  0  0  0  0  0  0  0  0
   23.7516  -20.2431  -12.7142 C   0  0  0  0  0  0  0  0  0  0  0  0
   23.3849  -19.0532  -12.6685 O   0  0  0  0  0  0  0  0  0  0  0  0
   22.9124  -21.1903  -13.3502 N   0  0  0  0  0  0  0  0  0  0  0  0
   21.6666  -20.8623  -13.9805 C   0  0  0  0  0  0  0  0  0  0  0  0
   20.5138  -20.9921  -13.0892 C   0  0  0  0  0  0  0  0  0  0  0  0
   19.2381  -20.6700  -13.5134 O   0  0  0  0  0  0  0  0  0  0  0  0
   20.6696  -21.4016  -11.9160 O   0  0  0  0  0  0  0  0  0  0  0  0
  1  2  1  0
  3  2  1  0
  4  5  1  0
  4  3  1  0
  5  1  1  0
  5  6  1  6
  7  6  2  0
  9  8  1  0
  9 10  1  0
 10 12  1  0
 10 11  1  1
 12 13  1  6
 13  6  1  0
 14 15  2  0
 14 12  1  0
 16 14  1  0
 17 16  1  0
 18 17  1  0
 18 19  1  0
 20 18  2  0
M  END
$$$$
