PIG.pdb
     RDKit          3D

 20 20  0  0  1  0  0  0  0  0999 V2000
   28.2036  -22.0732  -15.5925 N   0  0  0  0  0  0  0  0  0  0  0  0
   28.4289  -21.8486  -16.9863 C   0  0  0  0  0  0  0  0  0  0  0  0
   28.1226  -20.3831  -17.2159 C   0  0  0  0  0  0  0  0  0  0  0  0
   26.9674  -20.1665  -16.2586 C   0  0  0  0  0  0  0  0  0  0  0  0
   27.4458  -20.9934  -15.0578 C   0  0  1  0  0  0  0  0  0  0  0  0
   26.2410  -21.4008  -14.3203 C   0  0  0  0  0  0  0  0  0  0  0  0
   25.7261  -22.5300  -14.5538 O   0  0  0  0  0  0  0  0  0  0  0  0
   26.4585  -20.3911   -9.3544 C   0  0  0  0  0  0  0  0  0  0  0  0
   25.9723  -21.1428  -10.5834 C   0  0  0  0  0  0  0  0  0  0  0  0
   24.7609  -20.5150  -11.1811 C   0  0  2  0  0  0  0  0  0  0  0  0
   23.5366  -20.6777  -10.2926 C   0  0  0  0  0  0  0  0  0  0  0  0
   24.4730  -20.8874  -12.6004 C   0  0  2  0  0  0  0  0  0  0  0  0
   25.6802  -20.5396  -13.3732 N   0  0  0  0  0  0  0  0  0  0  0  0
   23.2919  -20.2597  -13.1911 C   0  0  0  0  0  0  0  0  0  0  0  0
   23.1650  -19.0204  -13.2127 O   0  0  0  0  0  0  0  0  0  0  0  0
   22.2660  -21.0592  -13.7520 N   0  0  0  0  0  0  0  0  0  0  0  0
   21.0792  -20.5306  -14.3595 C   0  0  0  0  0  0  0  0  0  0  0  0
   19.9316  -20.4918  -13.4531 C   0  0  0  0  0  0  0  0  0  0  0  0
   19.9918  -21.0580  -12.1934 O   0  0  0  0  0  0  0  0  0  0  0  0
   18.8667  -19.9382  -13.8110 O   0  0  0  0  0  0  0  0  0  0  0  0
  1  2  1  0
  3  2  1  0
  4  5  1  0
  4  3  1  0
  5  1  1  0
  5  6  1  6
  7  6  2  0
  9  8  1  0
  9 10  1  0
 10 12  1  0
 10 11  1  1
 12 13  1  6
 13  6  1  0
 14 15  2  0
 14 12  1  0
 16 14  1  0
 17 16  1  0
 18 17  1  0
 18 19  1  0
 20 18  2  0
M  END
$$$$
