PIG.pdb
     RDKit          3D

 20 20  0  0  1  0  0  0  0  0999 V2000
   22.3763  -12.9383  -19.3162 N   0  0  0  0  0  0  0  0  0  0  0  0
   22.6178  -14.2794  -19.7489 C   0  0  0  0  0  0  0  0  0  0  0  0
   21.7853  -15.1562  -18.8366 C   0  0  0  0  0  0  0  0  0  0  0  0
   21.8941  -14.4077  -17.5229 C   0  0  0  0  0  0  0  0  0  0  0  0
   21.7867  -12.9602  -18.0209 C   0  0  1  0  0  0  0  0  0  0  0  0
   22.4703  -12.1209  -17.0259 C   0  0  0  0  0  0  0  0  0  0  0  0
   22.0836  -12.1487  -15.8240 O   0  0  0  0  0  0  0  0  0  0  0  0
   26.1879  -12.4612  -15.2208 C   0  0  0  0  0  0  0  0  0  0  0  0
   26.1796  -11.9239  -16.6432 C   0  0  0  0  0  0  0  0  0  0  0  0
   25.6675  -10.5268  -16.7111 C   0  0  2  0  0  0  0  0  0  0  0  0
   26.4776   -9.5792  -15.8390 C   0  0  0  0  0  0  0  0  0  0  0  0
   24.1971  -10.3656  -16.4926 C   0  0  2  0  0  0  0  0  0  0  0  0
   23.5354  -11.3050  -17.4173 N   0  0  0  0  0  0  0  0  0  0  0  0
   23.6749   -9.0129  -16.6810 C   0  0  0  0  0  0  0  0  0  0  0  0
   23.9112   -8.3715  -17.7227 O   0  0  0  0  0  0  0  0  0  0  0  0
   22.8861   -8.4072  -15.6725 N   0  0  0  0  0  0  0  0  0  0  0  0
   22.4081   -7.0563  -15.7315 C   0  0  0  0  0  0  0  0  0  0  0  0
   21.5392   -6.6991  -14.6101 C   0  0  0  0  0  0  0  0  0  0  0  0
   21.1326   -7.6444  -13.6870 O   0  0  0  0  0  0  0  0  0  0  0  0
   21.1477   -5.5177  -14.4702 O   0  0  0  0  0  0  0  0  0  0  0  0
  1  2  1  0
  3  2  1  0
  4  5  1  0
  4  3  1  0
  5  1  1  0
  5  6  1  1
  7  6  2  0
  9  8  1  0
  9 10  1  0
 10 12  1  0
 10 11  1  1
 12 13  1  6
 13  6  1  0
 14 15  2  0
 14 12  1  0
 16 14  1  0
 17 16  1  0
 18 17  1  0
 18 19  1  0
 20 18  2  0
M  END
$$$$
