PIG.pdb
     RDKit          3D

 20 20  0  0  1  0  0  0  0  0999 V2000
   28.5174  -20.2215  -15.3574 N   0  0  0  0  0  0  0  0  0  0  0  0
   28.4059  -19.4514  -16.5568 C   0  0  0  0  0  0  0  0  0  0  0  0
   27.9347  -18.0809  -16.1167 C   0  0  0  0  0  0  0  0  0  0  0  0
   27.0088  -18.4378  -14.9707 C   0  0  0  0  0  0  0  0  0  0  0  0
   27.8110  -19.5665  -14.3097 C   0  0  1  0  0  0  0  0  0  0  0  0
   26.8399  -20.4165  -13.6053 C   0  0  0  0  0  0  0  0  0  0  0  0
   26.6902  -21.6162  -13.9700 O   0  0  0  0  0  0  0  0  0  0  0  0
   26.9063  -20.5451   -8.4541 C   0  0  0  0  0  0  0  0  0  0  0  0
   26.6215  -20.9946   -9.8785 C   0  0  0  0  0  0  0  0  0  0  0  0
   25.3159  -20.4799  -10.3778 C   0  0  2  0  0  0  0  0  0  0  0  0
   24.1493  -20.9663   -9.5308 C   0  0  0  0  0  0  0  0  0  0  0  0
   25.0615  -20.6708  -11.8389 C   0  0  2  0  0  0  0  0  0  0  0  0
   26.0960  -19.8917  -12.5449 N   0  0  0  0  0  0  0  0  0  0  0  0
   23.7293  -20.2872  -12.3037 C   0  0  0  0  0  0  0  0  0  0  0  0
   23.3790  -19.0919  -12.3365 O   0  0  0  0  0  0  0  0  0  0  0  0
   22.8100  -21.2781  -12.7268 N   0  0  0  0  0  0  0  0  0  0  0  0
   21.4620  -21.0011  -13.1306 C   0  0  0  0  0  0  0  0  0  0  0  0
   21.2290  -21.2149  -14.5590 C   0  0  0  0  0  0  0  0  0  0  0  0
   19.9864  -20.9973  -15.1245 O   0  0  0  0  0  0  0  0  0  0  0  0
   22.1636  -21.6027  -15.2969 O   0  0  0  0  0  0  0  0  0  0  0  0
  1  2  1  0
  3  2  1  0
  4  5  1  0
  4  3  1  0
  5  1  1  0
  5  6  1  6
  7  6  2  0
  9  8  1  0
  9 10  1  0
 10 12  1  0
 10 11  1  1
 12 13  1  6
 13  6  1  0
 14 15  2  0
 14 12  1  0
 16 14  1  0
 17 16  1  0
 18 17  1  0
 18 19  1  0
 20 18  2  0
M  END
$$$$
