MHF.pdb
     RDKit          3D

 30 31  0  0  1  0  0  0  0  0999 V2000
   28.9799  -19.6065   -7.1722 C   0  0  0  0  0  0  0  0  0  0  0  0
   27.2201  -19.5606   -6.8273 S   0  0  0  0  0  0  0  0  0  0  0  0
   26.3462  -20.8751   -7.7385 C   0  0  0  0  0  0  0  0  0  0  0  0
   26.7195  -20.8935   -9.1783 C   0  0  0  0  0  0  0  0  0  0  0  0
   25.7150  -20.2378  -10.0593 C   0  0  2  0  0  0  0  0  0  0  0  0
   24.4081  -20.8758   -9.8584 N   0  0  0  0  0  0  0  0  0  0  0  0
   26.0904  -20.2656  -11.4888 C   0  0  0  0  0  0  0  0  0  0  0  0
   27.1632  -19.7308  -11.8514 O   0  0  0  0  0  0  0  0  0  0  0  0
   25.2993  -20.8704  -12.4964 N   0  0  0  0  0  0  0  0  0  0  0  0
   25.6301  -20.7964  -13.9141 C   0  0  1  0  0  0  0  0  0  0  0  0
   25.7809  -22.2079  -14.4872 C   0  0  0  0  0  0  0  0  0  0  0  0
   27.1916  -22.5619  -14.7457 C   0  0  0  0  0  0  0  0  0  0  0  0
   28.3554  -21.8536  -14.5338 C   0  0  0  0  0  0  0  0  0  0  0  0
   29.4177  -22.5926  -14.9367 N   0  0  0  0  0  0  0  0  0  0  0  0
   28.9258  -23.7503  -15.3958 C   0  0  0  0  0  0  0  0  0  0  0  0
   27.5903  -23.7301  -15.2804 N   0  0  0  0  0  0  0  0  0  0  0  0
   24.6809  -19.9623  -14.6510 C   0  0  0  0  0  0  0  0  0  0  0  0
   23.5112  -19.7917  -14.2181 O   0  0  0  0  0  0  0  0  0  0  0  0
   24.9833  -19.2925  -15.8796 N   0  0  0  0  0  0  0  0  0  0  0  0
   23.9625  -18.5303  -16.6081 C   0  0  1  0  0  0  0  0  0  0  0  0
   24.6944  -17.4749  -17.4056 C   0  0  0  0  0  0  0  0  0  0  0  0
   25.2343  -16.4452  -16.5070 C   0  0  0  0  0  0  0  0  0  0  0  0
   24.5235  -15.3135  -16.2207 C   0  0  0  0  0  0  0  0  0  0  0  0
   25.0404  -14.3632  -15.3649 C   0  0  0  0  0  0  0  0  0  0  0  0
   26.2779  -14.5587  -14.7985 C   0  0  0  0  0  0  0  0  0  0  0  0
   27.0237  -15.6897  -15.0650 C   0  0  0  0  0  0  0  0  0  0  0  0
   26.4699  -16.6308  -15.9355 C   0  0  0  0  0  0  0  0  0  0  0  0
   23.1094  -19.4002  -17.4123 C   0  0  0  0  0  0  0  0  0  0  0  0
   21.8707  -18.9209  -17.8684 O   0  0  0  0  0  0  0  0  0  0  0  0
   23.4017  -20.5728  -17.7372 O   0  0  0  0  0  0  0  0  0  0  0  0
  1  2  1  0
  2  3  1  0
  4  3  1  0
  5  6  1  6
  5  4  1  0
  7  5  1  0
  8  7  2  0
  9  7  1  0
 10  9  1  0
 10 11  1  6
 11 12  1  0
 12 13  2  0
 12 16  1  0
 13 14  1  0
 14 15  1  0
 16 15  2  0
 17 18  2  0
 17 10  1  0
 19 17  1  0
 20 19  1  0
 21 22  1  0
 20 21  1  6
 22 23  2  0
 22 27  1  0
 23 24  1  0
 24 25  2  0
 26 25  1  0
 27 26  2  0
 28 29  1  0
 28 20  1  0
 30 28  2  0
M  END
$$$$
