MHF.pdb
     RDKit          3D

 30 31  0  0  1  0  0  0  0  0999 V2000
   20.6093  -21.0485  -27.5448 C   0  0  0  0  0  0  0  0  0  0  0  0
   20.3625  -19.3465  -28.0549 S   0  0  0  0  0  0  0  0  0  0  0  0
   20.7782  -18.1974  -26.7026 C   0  0  0  0  0  0  0  0  0  0  0  0
   20.8254  -18.8860  -25.3850 C   0  0  0  0  0  0  0  0  0  0  0  0
   20.3735  -18.0315  -24.2533 C   0  0  2  0  0  0  0  0  0  0  0  0
   20.8831  -16.6681  -24.4453 N   0  0  0  0  0  0  0  0  0  0  0  0
   20.7804  -18.5550  -22.9321 C   0  0  0  0  0  0  0  0  0  0  0  0
   20.4536  -19.7194  -22.6069 O   0  0  0  0  0  0  0  0  0  0  0  0
   21.5316  -17.8100  -21.9901 N   0  0  0  0  0  0  0  0  0  0  0  0
   21.9471  -18.3514  -20.7021 C   0  0  1  0  0  0  0  0  0  0  0  0
   23.2485  -17.6823  -20.2521 C   0  0  0  0  0  0  0  0  0  0  0  0
   24.4164  -18.5765  -20.3879 C   0  0  0  0  0  0  0  0  0  0  0  0
   24.5129  -19.8768  -20.8361 C   0  0  0  0  0  0  0  0  0  0  0  0
   25.8036  -20.2856  -20.7722 N   0  0  0  0  0  0  0  0  0  0  0  0
   26.5078  -19.2539  -20.2898 C   0  0  0  0  0  0  0  0  0  0  0  0
   25.6741  -18.2295  -20.0598 N   0  0  0  0  0  0  0  0  0  0  0  0
   20.8752  -18.2764  -19.7096 C   0  0  0  0  0  0  0  0  0  0  0  0
   21.0628  -18.6887  -18.5351 O   0  0  0  0  0  0  0  0  0  0  0  0
   19.5703  -17.7495  -19.9729 N   0  0  0  0  0  0  0  0  0  0  0  0
   18.5679  -17.6183  -18.9090 C   0  0  1  0  0  0  0  0  0  0  0  0
   17.9037  -16.2739  -19.1006 C   0  0  0  0  0  0  0  0  0  0  0  0
   17.2027  -16.2350  -20.3915 C   0  0  0  0  0  0  0  0  0  0  0  0
   15.9363  -16.7317  -20.5236 C   0  0  0  0  0  0  0  0  0  0  0  0
   15.2886  -16.6754  -21.7401 C   0  0  0  0  0  0  0  0  0  0  0  0
   15.9234  -16.1159  -22.8238 C   0  0  0  0  0  0  0  0  0  0  0  0
   17.2023  -15.6044  -22.7270 C   0  0  0  0  0  0  0  0  0  0  0  0
   17.8280  -15.6779  -21.4808 C   0  0  0  0  0  0  0  0  0  0  0  0
   17.6402  -18.7455  -18.8981 C   0  0  0  0  0  0  0  0  0  0  0  0
   16.6909  -18.8472  -17.8684 O   0  0  0  0  0  0  0  0  0  0  0  0
   17.6227  -19.6549  -19.7577 O   0  0  0  0  0  0  0  0  0  0  0  0
  1  2  1  0
  2  3  1  0
  4  3  1  0
  5  6  1  6
  5  4  1  0
  7  5  1  0
  8  7  2  0
  9  7  1  0
 10  9  1  0
 10 11  1  1
 11 12  1  0
 12 13  2  0
 12 16  1  0
 13 14  1  0
 14 15  1  0
 16 15  2  0
 17 18  2  0
 17 10  1  0
 19 17  1  0
 20 19  1  0
 21 22  1  0
 20 21  1  6
 22 23  2  0
 22 27  1  0
 23 24  1  0
 24 25  2  0
 26 25  1  0
 27 26  2  0
 28 29  1  0
 28 20  1  0
 30 28  2  0
M  END
$$$$
