MHF.pdb
     RDKit          3D

 30 31  0  0  1  0  0  0  0  0999 V2000
   16.3684  -16.7700  -15.8159 C   0  0  0  0  0  0  0  0  0  0  0  0
   17.4061  -15.3986  -16.3264 S   0  0  0  0  0  0  0  0  0  0  0  0
   19.1700  -15.8079  -16.1192 C   0  0  0  0  0  0  0  0  0  0  0  0
   20.0525  -14.6922  -16.5541 C   0  0  0  0  0  0  0  0  0  0  0  0
   20.0066  -14.4373  -18.0197 C   0  0  2  0  0  0  0  0  0  0  0  0
   20.7723  -15.4795  -18.7146 N   0  0  0  0  0  0  0  0  0  0  0  0
   20.5031  -13.0954  -18.3914 C   0  0  0  0  0  0  0  0  0  0  0  0
   21.7372  -12.8851  -18.4215 O   0  0  0  0  0  0  0  0  0  0  0  0
   19.6563  -12.0092  -18.7228 N   0  0  0  0  0  0  0  0  0  0  0  0
   20.1638  -10.7025  -19.1224 C   0  0  1  0  0  0  0  0  0  0  0  0
   19.3680  -10.1800  -20.3213 C   0  0  0  0  0  0  0  0  0  0  0  0
   19.6528  -10.9365  -21.5578 C   0  0  0  0  0  0  0  0  0  0  0  0
   20.8482  -11.3028  -22.1391 C   0  0  0  0  0  0  0  0  0  0  0  0
   20.6067  -11.9891  -23.2826 N   0  0  0  0  0  0  0  0  0  0  0  0
   19.2759  -12.0524  -23.4166 C   0  0  0  0  0  0  0  0  0  0  0  0
   18.7053  -11.4203  -22.3810 N   0  0  0  0  0  0  0  0  0  0  0  0
   20.2091   -9.7695  -17.9967 C   0  0  0  0  0  0  0  0  0  0  0  0
   19.2755   -9.7416  -17.1529 O   0  0  0  0  0  0  0  0  0  0  0  0
   21.2747   -8.8424  -17.7626 N   0  0  0  0  0  0  0  0  0  0  0  0
   21.2310   -7.8912  -16.6458 C   0  0  1  0  0  0  0  0  0  0  0  0
   22.6443   -7.7691  -16.1230 C   0  0  0  0  0  0  0  0  0  0  0  0
   22.7049   -6.7566  -15.0597 C   0  0  0  0  0  0  0  0  0  0  0  0
   22.9872   -5.4498  -15.3432 C   0  0  0  0  0  0  0  0  0  0  0  0
   23.0276   -4.5104  -14.3340 C   0  0  0  0  0  0  0  0  0  0  0  0
   22.7821   -4.8942  -13.0368 C   0  0  0  0  0  0  0  0  0  0  0  0
   22.4936   -6.2053  -12.7138 C   0  0  0  0  0  0  0  0  0  0  0  0
   22.4609   -7.1296  -13.7600 C   0  0  0  0  0  0  0  0  0  0  0  0
   20.6297   -6.6208  -17.0408 C   0  0  0  0  0  0  0  0  0  0  0  0
   19.8097   -5.9339  -16.1310 O   0  0  0  0  0  0  0  0  0  0  0  0
   20.7909   -6.0793  -18.1574 O   0  0  0  0  0  0  0  0  0  0  0  0
  1  2  1  0
  2  3  1  0
  4  3  1  0
  5  6  1  6
  5  4  1  0
  7  5  1  0
  8  7  2  0
  9  7  1  0
 10  9  1  0
 10 11  1  6
 11 12  1  0
 12 13  2  0
 12 16  1  0
 13 14  1  0
 14 15  1  0
 16 15  2  0
 17 18  2  0
 17 10  1  0
 19 17  1  0
 20 19  1  0
 21 22  1  0
 20 21  1  6
 22 23  2  0
 22 27  1  0
 23 24  1  0
 24 25  2  0
 26 25  1  0
 27 26  2  0
 28 29  1  0
 28 20  1  0
 30 28  2  0
M  END
$$$$
