MHF.pdb
     RDKit          3D

 30 31  0  0  1  0  0  0  0  0999 V2000
   31.5158  -21.8247  -12.7046 C   0  0  0  0  0  0  0  0  0  0  0  0
   31.1705  -22.3770  -14.3760 S   0  0  0  0  0  0  0  0  0  0  0  0
   29.5163  -21.8299  -14.9110 C   0  0  0  0  0  0  0  0  0  0  0  0
   28.9329  -20.8321  -13.9747 C   0  0  0  0  0  0  0  0  0  0  0  0
   27.6102  -20.3100  -14.4139 C   0  0  2  0  0  0  0  0  0  0  0  0
   27.8146  -19.1180  -15.2462 N   0  0  0  0  0  0  0  0  0  0  0  0
   26.7030  -20.0054  -13.2872 C   0  0  0  0  0  0  0  0  0  0  0  0
   26.6180  -18.8278  -12.8697 O   0  0  0  0  0  0  0  0  0  0  0  0
   25.9067  -20.9790  -12.6354 N   0  0  0  0  0  0  0  0  0  0  0  0
   25.1002  -20.6833  -11.4578 C   0  0  1  0  0  0  0  0  0  0  0  0
   23.7454  -21.3882  -11.5650 C   0  0  0  0  0  0  0  0  0  0  0  0
   22.8325  -20.7108  -12.5084 C   0  0  0  0  0  0  0  0  0  0  0  0
   22.9415  -19.5019  -13.1624 C   0  0  0  0  0  0  0  0  0  0  0  0
   21.8412  -19.2972  -13.9267 N   0  0  0  0  0  0  0  0  0  0  0  0
   21.0517  -20.3649  -13.7540 C   0  0  0  0  0  0  0  0  0  0  0  0
   21.6480  -21.2118  -12.9028 N   0  0  0  0  0  0  0  0  0  0  0  0
   25.8189  -20.9789  -10.2185 C   0  0  0  0  0  0  0  0  0  0  0  0
   26.1835  -22.1550   -9.9571 O   0  0  0  0  0  0  0  0  0  0  0  0
   26.1584  -19.9986   -9.2319 N   0  0  0  0  0  0  0  0  0  0  0  0
   26.7410  -20.3813   -7.9404 C   0  0  1  0  0  0  0  0  0  0  0  0
   27.3733  -19.1357   -7.3624 C   0  0  0  0  0  0  0  0  0  0  0  0
   27.9687  -19.4316   -6.0519 C   0  0  0  0  0  0  0  0  0  0  0  0
   27.3333  -19.0856   -4.8924 C   0  0  0  0  0  0  0  0  0  0  0  0
   27.9009  -19.3826   -3.6709 C   0  0  0  0  0  0  0  0  0  0  0  0
   29.1128  -20.0304   -3.6230 C   0  0  0  0  0  0  0  0  0  0  0  0
   29.7828  -20.3949   -4.7740 C   0  0  0  0  0  0  0  0  0  0  0  0
   29.1793  -20.0788   -5.9929 C   0  0  0  0  0  0  0  0  0  0  0  0
   25.7542  -21.0093   -7.0668 C   0  0  0  0  0  0  0  0  0  0  0  0
   26.1803  -21.9279   -6.0938 O   0  0  0  0  0  0  0  0  0  0  0  0
   24.5235  -20.7884   -7.1169 O   0  0  0  0  0  0  0  0  0  0  0  0
  1  2  1  0
  2  3  1  0
  4  3  1  0
  5  6  1  1
  5  4  1  0
  7  5  1  0
  8  7  2  0
  9  7  1  0
 10  9  1  0
 10 11  1  6
 11 12  1  0
 12 13  2  0
 12 16  1  0
 13 14  1  0
 14 15  1  0
 16 15  2  0
 17 18  2  0
 17 10  1  0
 19 17  1  0
 20 19  1  0
 21 22  1  0
 20 21  1  1
 22 23  2  0
 22 27  1  0
 23 24  1  0
 24 25  2  0
 26 25  1  0
 27 26  2  0
 28 29  1  0
 28 20  1  0
 30 28  2  0
M  END
$$$$
