MHF.pdb
     RDKit          3D

 30 31  0  0  1  0  0  0  0  0999 V2000
   37.6446  -33.4676  -19.1368 C   0  0  0  0  0  0  0  0  0  0  0  0
   36.8289  -34.5650  -17.9756 S   0  0  0  0  0  0  0  0  0  0  0  0
   35.3328  -35.2965  -18.7161 C   0  0  0  0  0  0  0  0  0  0  0  0
   34.3444  -34.2570  -19.1101 C   0  0  0  0  0  0  0  0  0  0  0  0
   33.0543  -34.3570  -18.3747 C   0  0  2  0  0  0  0  0  0  0  0  0
   32.3231  -35.5410  -18.8429 N   0  0  0  0  0  0  0  0  0  0  0  0
   32.2165  -33.1461  -18.5049 C   0  0  0  0  0  0  0  0  0  0  0  0
   31.4947  -33.0061  -19.5186 O   0  0  0  0  0  0  0  0  0  0  0  0
   32.1758  -32.1122  -17.5373 N   0  0  0  0  0  0  0  0  0  0  0  0
   31.4222  -30.8790  -17.7272 C   0  0  1  0  0  0  0  0  0  0  0  0
   30.6206  -30.5594  -16.4627 C   0  0  0  0  0  0  0  0  0  0  0  0
   29.4340  -31.4268  -16.3152 C   0  0  0  0  0  0  0  0  0  0  0  0
   28.9532  -32.4450  -17.1109 C   0  0  0  0  0  0  0  0  0  0  0  0
   27.8189  -32.9501  -16.5677 N   0  0  0  0  0  0  0  0  0  0  0  0
   27.5912  -32.2569  -15.4449 C   0  0  0  0  0  0  0  0  0  0  0  0
   28.5611  -31.3435  -15.2950 N   0  0  0  0  0  0  0  0  0  0  0  0
   32.2802  -29.7806  -18.1712 C   0  0  0  0  0  0  0  0  0  0  0  0
   33.4488  -29.6606  -17.7190 O   0  0  0  0  0  0  0  0  0  0  0  0
   31.8851  -28.7843  -19.1205 N   0  0  0  0  0  0  0  0  0  0  0  0
   32.8110  -27.7328  -19.5577 C   0  0  1  0  0  0  0  0  0  0  0  0
   34.0673  -28.4284  -20.0300 C   0  0  0  0  0  0  0  0  0  0  0  0
   35.0104  -27.4480  -20.5857 C   0  0  0  0  0  0  0  0  0  0  0  0
   35.0947  -27.2331  -21.9327 C   0  0  0  0  0  0  0  0  0  0  0  0
   35.9768  -26.2997  -22.4360 C   0  0  0  0  0  0  0  0  0  0  0  0
   36.7742  -25.5832  -21.5749 C   0  0  0  0  0  0  0  0  0  0  0  0
   36.7156  -25.7741  -20.2087 C   0  0  0  0  0  0  0  0  0  0  0  0
   35.8116  -26.7266  -19.7339 C   0  0  0  0  0  0  0  0  0  0  0  0
   32.2030  -26.8577  -20.5557 C   0  0  0  0  0  0  0  0  0  0  0  0
   31.3319  -27.4037  -21.5123 O   0  0  0  0  0  0  0  0  0  0  0  0
   32.4016  -25.6244  -20.6292 O   0  0  0  0  0  0  0  0  0  0  0  0
  1  2  1  0
  2  3  1  0
  4  3  1  0
  5  6  1  6
  5  4  1  0
  7  5  1  0
  8  7  2  0
  9  7  1  0
 10  9  1  0
 10 11  1  1
 11 12  1  0
 12 13  2  0
 12 16  1  0
 13 14  1  0
 14 15  1  0
 16 15  2  0
 17 18  2  0
 17 10  1  0
 19 17  1  0
 20 19  1  0
 21 22  1  0
 20 21  1  6
 22 23  2  0
 22 27  1  0
 23 24  1  0
 24 25  2  0
 26 25  1  0
 27 26  2  0
 28 29  1  0
 28 20  1  0
 30 28  2  0
M  END
$$$$
