MHF.pdb
     RDKit          3D

 30 31  0  0  1  0  0  0  0  0999 V2000
   27.1157  -21.6593  -20.3302 C   0  0  0  0  0  0  0  0  0  0  0  0
   27.9223  -22.9972  -19.4486 S   0  0  0  0  0  0  0  0  0  0  0  0
   29.1103  -22.3468  -18.2289 C   0  0  0  0  0  0  0  0  0  0  0  0
   28.4380  -21.5368  -17.1780 C   0  0  0  0  0  0  0  0  0  0  0  0
   28.4625  -22.1734  -15.8329 C   0  0  2  0  0  0  0  0  0  0  0  0
   27.9081  -23.5293  -15.9312 N   0  0  0  0  0  0  0  0  0  0  0  0
   27.7397  -21.3916  -14.8074 C   0  0  0  0  0  0  0  0  0  0  0  0
   27.8468  -20.1440  -14.7993 O   0  0  0  0  0  0  0  0  0  0  0  0
   26.9165  -21.9739  -13.8123 N   0  0  0  0  0  0  0  0  0  0  0  0
   26.0461  -21.1892  -12.9456 C   0  0  1  0  0  0  0  0  0  0  0  0
   24.5822  -21.4280  -13.3249 C   0  0  0  0  0  0  0  0  0  0  0  0
   23.6486  -20.6676  -12.4692 C   0  0  0  0  0  0  0  0  0  0  0  0
   23.2018  -19.3658  -12.5519 C   0  0  0  0  0  0  0  0  0  0  0  0
   22.3502  -19.1111  -11.5288 N   0  0  0  0  0  0  0  0  0  0  0  0
   22.2641  -20.2396  -10.8132 C   0  0  0  0  0  0  0  0  0  0  0  0
   23.0437  -21.1722  -11.3788 N   0  0  0  0  0  0  0  0  0  0  0  0
   26.3316  -21.4256  -11.5306 C   0  0  0  0  0  0  0  0  0  0  0  0
   26.3009  -22.5925  -11.0596 O   0  0  0  0  0  0  0  0  0  0  0  0
   26.6582  -20.3945  -10.5925 N   0  0  0  0  0  0  0  0  0  0  0  0
   26.8276  -20.6842   -9.1638 C   0  0  1  0  0  0  0  0  0  0  0  0
   27.6829  -19.5758   -8.5936 C   0  0  0  0  0  0  0  0  0  0  0  0
   27.8116  -19.7332   -7.1383 C   0  0  0  0  0  0  0  0  0  0  0  0
   28.6256  -20.6901   -6.6000 C   0  0  0  0  0  0  0  0  0  0  0  0
   28.7440  -20.8154   -5.2315 C   0  0  0  0  0  0  0  0  0  0  0  0
   28.0379  -19.9713   -4.4072 C   0  0  0  0  0  0  0  0  0  0  0  0
   27.2065  -18.9934   -4.9160 C   0  0  0  0  0  0  0  0  0  0  0  0
   27.1105  -18.8948   -6.3057 C   0  0  0  0  0  0  0  0  0  0  0  0
   25.5433  -20.8527   -8.4902 C   0  0  0  0  0  0  0  0  0  0  0  0
   24.4252  -20.1377   -8.9490 O   0  0  0  0  0  0  0  0  0  0  0  0
   25.3534  -21.6050   -7.5083 O   0  0  0  0  0  0  0  0  0  0  0  0
  1  2  1  0
  2  3  1  0
  4  3  1  0
  5  6  1  6
  5  4  1  0
  7  5  1  0
  8  7  2  0
  9  7  1  0
 10  9  1  0
 10 11  1  1
 11 12  1  0
 12 13  2  0
 12 16  1  0
 13 14  1  0
 14 15  1  0
 16 15  2  0
 17 18  2  0
 17 10  1  0
 19 17  1  0
 20 19  1  0
 21 22  1  0
 20 21  1  1
 22 23  2  0
 22 27  1  0
 23 24  1  0
 24 25  2  0
 26 25  1  0
 27 26  2  0
 28 29  1  0
 28 20  1  0
 30 28  2  0
M  END
$$$$
