MHF.pdb
     RDKit          3D

 30 31  0  0  1  0  0  0  0  0999 V2000
   30.1942  -18.3784  -15.1426 C   0  0  0  0  0  0  0  0  0  0  0  0
   29.5138  -17.0990  -16.1999 S   0  0  0  0  0  0  0  0  0  0  0  0
   27.7548  -16.8107  -15.8194 C   0  0  0  0  0  0  0  0  0  0  0  0
   27.3546  -17.4448  -14.5348 C   0  0  0  0  0  0  0  0  0  0  0  0
   26.4149  -18.5863  -14.7049 C   0  0  2  0  0  0  0  0  0  0  0  0
   25.3427  -18.1946  -15.6282 N   0  0  0  0  0  0  0  0  0  0  0  0
   25.8480  -19.0670  -13.4272 C   0  0  0  0  0  0  0  0  0  0  0  0
   24.8893  -18.4486  -12.9107 O   0  0  0  0  0  0  0  0  0  0  0  0
   26.3283  -20.2055  -12.7343 N   0  0  0  0  0  0  0  0  0  0  0  0
   25.6390  -20.7840  -11.5876 C   0  0  1  0  0  0  0  0  0  0  0  0
   25.0880  -22.1645  -11.9543 C   0  0  0  0  0  0  0  0  0  0  0  0
   23.9791  -22.0868  -12.9271 C   0  0  0  0  0  0  0  0  0  0  0  0
   23.9447  -22.3412  -14.2818 C   0  0  0  0  0  0  0  0  0  0  0  0
   22.6928  -22.1249  -14.7538 N   0  0  0  0  0  0  0  0  0  0  0  0
   21.9512  -21.7394  -13.7077 C   0  0  0  0  0  0  0  0  0  0  0  0
   22.7245  -21.7171  -12.6127 N   0  0  0  0  0  0  0  0  0  0  0  0
   26.4815  -20.7872  -10.3918 C   0  0  0  0  0  0  0  0  0  0  0  0
   27.6738  -21.1861  -10.4522 O   0  0  0  0  0  0  0  0  0  0  0  0
   26.0446  -20.3551   -9.0987 N   0  0  0  0  0  0  0  0  0  0  0  0
   26.8553  -20.5899   -7.8981 C   0  0  1  0  0  0  0  0  0  0  0  0
   27.5481  -19.2847   -7.5790 C   0  0  0  0  0  0  0  0  0  0  0  0
   28.2194  -19.3735   -6.2748 C   0  0  0  0  0  0  0  0  0  0  0  0
   27.7795  -18.6491   -5.2026 C   0  0  0  0  0  0  0  0  0  0  0  0
   28.4140  -18.7544   -3.9824 C   0  0  0  0  0  0  0  0  0  0  0  0
   29.4947  -19.5937   -3.8475 C   0  0  0  0  0  0  0  0  0  0  0  0
   29.9661  -20.3404   -4.9089 C   0  0  0  0  0  0  0  0  0  0  0  0
   29.3001  -20.2094   -6.1292 C   0  0  0  0  0  0  0  0  0  0  0  0
   26.0542  -21.1235   -6.8004 C   0  0  0  0  0  0  0  0  0  0  0  0
   26.6956  -21.7530   -5.7214 O   0  0  0  0  0  0  0  0  0  0  0  0
   24.8056  -21.0631   -6.7422 O   0  0  0  0  0  0  0  0  0  0  0  0
  1  2  1  0
  2  3  1  0
  4  3  1  0
  5  6  1  6
  5  4  1  0
  7  5  1  0
  8  7  2  0
  9  7  1  0
 10  9  1  0
 10 11  1  6
 11 12  1  0
 12 13  2  0
 12 16  1  0
 13 14  1  0
 14 15  1  0
 16 15  2  0
 17 18  2  0
 17 10  1  0
 19 17  1  0
 20 19  1  0
 21 22  1  0
 20 21  1  1
 22 23  2  0
 22 27  1  0
 23 24  1  0
 24 25  2  0
 26 25  1  0
 27 26  2  0
 28 29  1  0
 28 20  1  0
 30 28  2  0
M  END
$$$$
