MHF.pdb
     RDKit          3D

 30 31  0  0  1  0  0  0  0  0999 V2000
   30.7083  -22.4900  -13.6852 C   0  0  0  0  0  0  0  0  0  0  0  0
   30.3410  -22.5200  -15.4408 S   0  0  0  0  0  0  0  0  0  0  0  0
   28.6263  -21.9872  -15.7539 C   0  0  0  0  0  0  0  0  0  0  0  0
   28.0655  -21.2229  -14.6076 C   0  0  0  0  0  0  0  0  0  0  0  0
   26.6290  -20.8720  -14.7755 C   0  0  2  0  0  0  0  0  0  0  0  0
   26.4973  -19.8815  -15.8512 N   0  0  0  0  0  0  0  0  0  0  0  0
   26.0042  -20.3724  -13.5324 C   0  0  0  0  0  0  0  0  0  0  0  0
   25.9171  -19.1375  -13.3434 O   0  0  0  0  0  0  0  0  0  0  0  0
   25.4865  -21.2171  -12.5198 N   0  0  0  0  0  0  0  0  0  0  0  0
   24.9050  -20.7077  -11.2840 C   0  0  1  0  0  0  0  0  0  0  0  0
   23.4582  -21.1905  -11.1524 C   0  0  0  0  0  0  0  0  0  0  0  0
   22.5355  -20.4484  -12.0357 C   0  0  0  0  0  0  0  0  0  0  0  0
   22.7518  -19.3733  -12.8714 C   0  0  0  0  0  0  0  0  0  0  0  0
   21.5910  -19.0298  -13.4808 N   0  0  0  0  0  0  0  0  0  0  0  0
   20.6580  -19.8793  -13.0326 C   0  0  0  0  0  0  0  0  0  0  0  0
   21.2264  -20.7296  -12.1657 N   0  0  0  0  0  0  0  0  0  0  0  0
   25.7364  -21.0219  -10.1222 C   0  0  0  0  0  0  0  0  0  0  0  0
   26.1172  -22.2029   -9.9105 O   0  0  0  0  0  0  0  0  0  0  0  0
   26.1738  -20.0553   -9.1609 N   0  0  0  0  0  0  0  0  0  0  0  0
   26.8865  -20.4554   -7.9419 C   0  0  1  0  0  0  0  0  0  0  0  0
   27.8192  -19.3188   -7.5905 C   0  0  0  0  0  0  0  0  0  0  0  0
   28.4749  -19.5819   -6.3020 C   0  0  0  0  0  0  0  0  0  0  0  0
   29.3498  -20.6214   -6.1533 C   0  0  0  0  0  0  0  0  0  0  0  0
   29.9658  -20.8459   -4.9398 C   0  0  0  0  0  0  0  0  0  0  0  0
   29.6961  -20.0177   -3.8760 C   0  0  0  0  0  0  0  0  0  0  0  0
   28.8181  -18.9582   -3.9901 C   0  0  0  0  0  0  0  0  0  0  0  0
   28.2125  -18.7601   -5.2326 C   0  0  0  0  0  0  0  0  0  0  0  0
   25.9637  -20.8219   -6.8716 C   0  0  0  0  0  0  0  0  0  0  0  0
   24.5982  -20.5232   -7.0063 O   0  0  0  0  0  0  0  0  0  0  0  0
   26.3016  -21.3976   -5.8131 O   0  0  0  0  0  0  0  0  0  0  0  0
  1  2  1  0
  2  3  1  0
  4  3  1  0
  5  6  1  6
  5  4  1  0
  7  5  1  0
  8  7  2  0
  9  7  1  0
 10  9  1  0
 10 11  1  1
 11 12  1  0
 12 13  2  0
 12 16  1  0
 13 14  1  0
 14 15  1  0
 16 15  2  0
 17 18  2  0
 17 10  1  0
 19 17  1  0
 20 19  1  0
 21 22  1  0
 20 21  1  1
 22 23  2  0
 22 27  1  0
 23 24  1  0
 24 25  2  0
 26 25  1  0
 27 26  2  0
 28 29  1  0
 28 20  1  0
 30 28  2  0
M  END
$$$$
