MHF.pdb
     RDKit          3D

 30 31  0  0  1  0  0  0  0  0999 V2000
   21.1463  -12.5545    4.6567 C   0  0  0  0  0  0  0  0  0  0  0  0
   20.0872  -11.5761    5.7239 S   0  0  0  0  0  0  0  0  0  0  0  0
   18.3297  -11.9210    5.3861 C   0  0  0  0  0  0  0  0  0  0  0  0
   17.9675  -13.3257    5.7153 C   0  0  0  0  0  0  0  0  0  0  0  0
   16.5804  -13.6889    5.3164 C   0  0  2  0  0  0  0  0  0  0  0  0
   15.6297  -13.0125    6.2076 N   0  0  0  0  0  0  0  0  0  0  0  0
   16.3400  -15.1474    5.3142 C   0  0  0  0  0  0  0  0  0  0  0  0
   15.9316  -15.7031    6.3595 O   0  0  0  0  0  0  0  0  0  0  0  0
   16.5456  -15.9750    4.1829 N   0  0  0  0  0  0  0  0  0  0  0  0
   16.4823  -17.4300    4.2440 C   0  0  1  0  0  0  0  0  0  0  0  0
   16.4473  -18.0089    2.8272 C   0  0  0  0  0  0  0  0  0  0  0  0
   16.3359  -19.4819    2.8244 C   0  0  0  0  0  0  0  0  0  0  0  0
   16.3300  -20.3906    3.8613 C   0  0  0  0  0  0  0  0  0  0  0  0
   16.2122  -21.6464    3.3653 N   0  0  0  0  0  0  0  0  0  0  0  0
   16.1451  -21.5265    2.0333 C   0  0  0  0  0  0  0  0  0  0  0  0
   16.2195  -20.2273    1.7106 N   0  0  0  0  0  0  0  0  0  0  0  0
   17.5470  -17.9859    5.0788 C   0  0  0  0  0  0  0  0  0  0  0  0
   18.7535  -17.7257    4.8317 O   0  0  0  0  0  0  0  0  0  0  0  0
   17.3228  -18.8405    6.2054 N   0  0  0  0  0  0  0  0  0  0  0  0
   18.4385  -19.3849    6.9882 C   0  0  1  0  0  0  0  0  0  0  0  0
   18.6478  -18.4486    8.1565 C   0  0  0  0  0  0  0  0  0  0  0  0
   20.0564  -18.0363    8.2288 C   0  0  0  0  0  0  0  0  0  0  0  0
   20.5192  -17.2802    9.2691 C   0  0  0  0  0  0  0  0  0  0  0  0
   21.8474  -16.9129    9.3273 C   0  0  0  0  0  0  0  0  0  0  0  0
   22.7079  -17.3113    8.3316 C   0  0  0  0  0  0  0  0  0  0  0  0
   22.2753  -18.0754    7.2661 C   0  0  0  0  0  0  0  0  0  0  0  0
   20.9247  -18.4292    7.2391 C   0  0  0  0  0  0  0  0  0  0  0  0
   18.2031  -20.7736    7.3719 C   0  0  0  0  0  0  0  0  0  0  0  0
   19.2651  -21.6912    7.3254 O   0  0  0  0  0  0  0  0  0  0  0  0
   17.0988  -21.2251    7.7498 O   0  0  0  0  0  0  0  0  0  0  0  0
  1  2  1  0
  2  3  1  0
  4  3  1  0
  5  6  1  1
  5  4  1  0
  7  5  1  0
  8  7  2  0
  9  7  1  0
 10  9  1  0
 10 11  1  6
 11 12  1  0
 12 13  2  0
 12 16  1  0
 13 14  1  0
 14 15  1  0
 16 15  2  0
 17 18  2  0
 17 10  1  0
 19 17  1  0
 20 19  1  0
 21 22  1  0
 20 21  1  1
 22 23  2  0
 22 27  1  0
 23 24  1  0
 24 25  2  0
 26 25  1  0
 27 26  2  0
 28 29  1  0
 28 20  1  0
 30 28  2  0
M  END
$$$$
