MHF.pdb
     RDKit          3D

 30 31  0  0  1  0  0  0  0  0999 V2000
   26.8858  -33.1137  -21.6551 C   0  0  0  0  0  0  0  0  0  0  0  0
   26.4192  -32.4883  -20.0398 S   0  0  0  0  0  0  0  0  0  0  0  0
   27.2267  -30.8889  -19.7055 C   0  0  0  0  0  0  0  0  0  0  0  0
   26.8575  -30.3504  -18.3690 C   0  0  0  0  0  0  0  0  0  0  0  0
   28.0219  -29.8473  -17.5905 C   0  0  2  0  0  0  0  0  0  0  0  0
   28.4489  -30.8810  -16.6394 N   0  0  0  0  0  0  0  0  0  0  0  0
   27.7443  -28.5779  -16.8856 C   0  0  0  0  0  0  0  0  0  0  0  0
   27.3202  -28.6109  -15.7078 O   0  0  0  0  0  0  0  0  0  0  0  0
   27.9308  -27.2999  -17.4675 N   0  0  0  0  0  0  0  0  0  0  0  0
   27.5919  -26.0597  -16.7806 C   0  0  1  0  0  0  0  0  0  0  0  0
   28.6099  -24.9731  -17.1367 C   0  0  0  0  0  0  0  0  0  0  0  0
   29.9143  -25.1872  -16.4774 C   0  0  0  0  0  0  0  0  0  0  0  0
   30.3346  -26.1634  -15.5990 C   0  0  0  0  0  0  0  0  0  0  0  0
   31.6268  -25.9410  -15.2559 N   0  0  0  0  0  0  0  0  0  0  0  0
   32.0121  -24.8386  -15.9112 C   0  0  0  0  0  0  0  0  0  0  0  0
   30.9835  -24.3878  -16.6435 N   0  0  0  0  0  0  0  0  0  0  0  0
   26.2042  -25.6657  -17.0230 C   0  0  0  0  0  0  0  0  0  0  0  0
   25.7944  -25.4609  -18.1954 O   0  0  0  0  0  0  0  0  0  0  0  0
   25.2274  -25.4851  -15.9921 N   0  0  0  0  0  0  0  0  0  0  0  0
   23.8567  -25.0612  -16.3012 C   0  0  1  0  0  0  0  0  0  0  0  0
   23.0011  -26.3074  -16.2808 C   0  0  0  0  0  0  0  0  0  0  0  0
   21.5930  -25.9586  -16.5158 C   0  0  0  0  0  0  0  0  0  0  0  0
   20.7393  -25.7253  -15.4743 C   0  0  0  0  0  0  0  0  0  0  0  0
   19.4238  -25.3866  -15.7137 C   0  0  0  0  0  0  0  0  0  0  0  0
   18.9721  -25.2839  -17.0082 C   0  0  0  0  0  0  0  0  0  0  0  0
   19.8064  -25.5124  -18.0845 C   0  0  0  0  0  0  0  0  0  0  0  0
   21.1316  -25.8532  -17.8057 C   0  0  0  0  0  0  0  0  0  0  0  0
   23.3993  -24.0092  -15.3982 C   0  0  0  0  0  0  0  0  0  0  0  0
   23.5942  -24.1549  -14.0152 O   0  0  0  0  0  0  0  0  0  0  0  0
   22.8310  -22.9575  -15.7684 O   0  0  0  0  0  0  0  0  0  0  0  0
  1  2  1  0
  2  3  1  0
  4  3  1  0
  5  6  1  1
  5  4  1  0
  7  5  1  0
  8  7  2  0
  9  7  1  0
 10  9  1  0
 10 11  1  6
 11 12  1  0
 12 13  2  0
 12 16  1  0
 13 14  1  0
 14 15  1  0
 16 15  2  0
 17 18  2  0
 17 10  1  0
 19 17  1  0
 20 19  1  0
 21 22  1  0
 20 21  1  1
 22 23  2  0
 22 27  1  0
 23 24  1  0
 24 25  2  0
 26 25  1  0
 27 26  2  0
 28 29  1  0
 28 20  1  0
 30 28  2  0
M  END
$$$$
