MHF.pdb
     RDKit          3D

 30 31  0  0  1  0  0  0  0  0999 V2000
   17.5342  -17.8228  -16.2950 C   0  0  0  0  0  0  0  0  0  0  0  0
   18.8313  -16.5855  -16.2263 S   0  0  0  0  0  0  0  0  0  0  0  0
   19.0778  -15.8130  -17.8587 C   0  0  0  0  0  0  0  0  0  0  0  0
   20.0506  -14.6893  -17.7987 C   0  0  0  0  0  0  0  0  0  0  0  0
   20.2727  -14.0272  -19.1130 C   0  0  2  0  0  0  0  0  0  0  0  0
   21.0488  -14.9232  -19.9792 N   0  0  0  0  0  0  0  0  0  0  0  0
   20.9406  -12.7136  -18.9958 C   0  0  0  0  0  0  0  0  0  0  0  0
   22.0702  -12.5521  -19.5117 O   0  0  0  0  0  0  0  0  0  0  0  0
   20.3743  -11.6023  -18.3241 N   0  0  0  0  0  0  0  0  0  0  0  0
   20.9396  -10.2607  -18.3967 C   0  0  1  0  0  0  0  0  0  0  0  0
   20.3271   -9.5016  -19.5767 C   0  0  0  0  0  0  0  0  0  0  0  0
   20.9560   -9.8614  -20.8640 C   0  0  0  0  0  0  0  0  0  0  0  0
   22.1027  -10.5745  -21.1425 C   0  0  0  0  0  0  0  0  0  0  0  0
   22.2820  -10.6421  -22.4842 N   0  0  0  0  0  0  0  0  0  0  0  0
   21.2600   -9.9793  -23.0403 C   0  0  0  0  0  0  0  0  0  0  0  0
   20.4655   -9.5117  -22.0668 N   0  0  0  0  0  0  0  0  0  0  0  0
   20.8261   -9.5532  -17.1214 C   0  0  0  0  0  0  0  0  0  0  0  0
   19.7096   -9.4408  -16.5511 O   0  0  0  0  0  0  0  0  0  0  0  0
   21.9283   -8.9499  -16.4353 N   0  0  0  0  0  0  0  0  0  0  0  0
   21.7344   -8.1853  -15.1976 C   0  0  1  0  0  0  0  0  0  0  0  0
   22.6871   -8.7630  -14.1758 C   0  0  0  0  0  0  0  0  0  0  0  0
   23.7684   -9.4956  -14.8491 C   0  0  0  0  0  0  0  0  0  0  0  0
   23.7729  -10.8614  -14.8986 C   0  0  0  0  0  0  0  0  0  0  0  0
   24.7895  -11.5323  -15.5460 C   0  0  0  0  0  0  0  0  0  0  0  0
   25.8023  -10.8200  -16.1438 C   0  0  0  0  0  0  0  0  0  0  0  0
   25.8300   -9.4398  -16.1136 C   0  0  0  0  0  0  0  0  0  0  0  0
   24.7852   -8.7933  -15.4498 C   0  0  0  0  0  0  0  0  0  0  0  0
   21.8941   -6.7509  -15.4175 C   0  0  0  0  0  0  0  0  0  0  0  0
   21.4725   -5.8504  -14.4259 O   0  0  0  0  0  0  0  0  0  0  0  0
   22.3907   -6.2448  -16.4486 O   0  0  0  0  0  0  0  0  0  0  0  0
  1  2  1  0
  2  3  1  0
  4  3  1  0
  5  6  1  6
  5  4  1  0
  7  5  1  0
  8  7  2  0
  9  7  1  0
 10  9  1  0
 10 11  1  6
 11 12  1  0
 12 13  2  0
 12 16  1  0
 13 14  1  0
 14 15  1  0
 16 15  2  0
 17 18  2  0
 17 10  1  0
 19 17  1  0
 20 19  1  0
 21 22  1  0
 20 21  1  1
 22 23  2  0
 22 27  1  0
 23 24  1  0
 24 25  2  0
 26 25  1  0
 27 26  2  0
 28 29  1  0
 28 20  1  0
 30 28  2  0
M  END
$$$$
