FHC.pdb
     RDKit          3D

 28 29  0  0  1  0  0  0  0  0999 V2000
   25.0887  -19.2561   -7.6714 N   0  0  0  0  0  0  0  0  0  0  0  0
   26.2762  -19.7954   -8.3009 C   0  0  1  0  0  0  0  0  0  0  0  0
   26.7006  -21.0727   -7.6121 C   0  0  0  0  0  0  0  0  0  0  0  0
   27.5300  -20.7284   -6.4522 C   0  0  0  0  0  0  0  0  0  0  0  0
   28.8822  -20.4859   -6.6524 C   0  0  0  0  0  0  0  0  0  0  0  0
   29.7083  -20.1571   -5.5804 C   0  0  0  0  0  0  0  0  0  0  0  0
   29.1556  -20.0786   -4.3240 C   0  0  0  0  0  0  0  0  0  0  0  0
   27.8245  -20.3182   -4.1331 C   0  0  0  0  0  0  0  0  0  0  0  0
   26.9960  -20.6440   -5.1820 C   0  0  0  0  0  0  0  0  0  0  0  0
   25.9986  -20.1031   -9.7355 C   0  0  0  0  0  0  0  0  0  0  0  0
   24.8188  -20.2637  -10.1396 O   0  0  0  0  0  0  0  0  0  0  0  0
   27.0614  -20.2180  -10.6605 N   0  0  0  0  0  0  0  0  0  0  0  0
   26.8649  -19.8534  -12.0584 C   0  0  1  0  0  0  0  0  0  0  0  0
   28.1912  -19.7445  -12.7743 C   0  0  0  0  0  0  0  0  0  0  0  0
   27.9982  -19.2766  -14.1540 C   0  0  0  0  0  0  0  0  0  0  0  0
   26.7814  -19.1050  -14.7701 C   0  0  0  0  0  0  0  0  0  0  0  0
   27.0322  -18.6610  -16.0372 N   0  0  0  0  0  0  0  0  0  0  0  0
   28.3524  -18.5593  -16.2062 C   0  0  0  0  0  0  0  0  0  0  0  0
   28.9172  -18.9377  -15.0513 N   0  0  0  0  0  0  0  0  0  0  0  0
   25.9370  -20.8192  -12.7206 C   0  0  0  0  0  0  0  0  0  0  0  0
   26.1715  -22.0426  -12.6408 O   0  0  0  0  0  0  0  0  0  0  0  0
   24.8035  -20.3394  -13.4307 N   0  0  0  0  0  0  0  0  0  0  0  0
   23.8036  -21.1642  -14.0628 C   0  0  1  0  0  0  0  0  0  0  0  0
   22.4814  -20.9623  -13.4122 C   0  0  0  0  0  0  0  0  0  0  0  0
   22.4554  -21.3984  -11.6748 S   0  0  0  0  0  0  0  0  0  0  0  0
   23.7897  -21.0409  -15.5442 C   0  0  0  0  0  0  0  0  0  0  0  0
   23.0252  -21.8777  -16.3389 O   0  0  0  0  0  0  0  0  0  0  0  0
   24.4826  -20.1625  -16.0941 O   0  0  0  0  0  0  0  0  0  0  0  0
  2  1  1  1
  2  3  1  0
  3  4  1  0
  4  9  2  0
  5  6  2  0
  5  4  1  0
  6  7  1  0
  7  8  2  0
  9  8  1  0
 10 12  1  0
 10  2  1  0
 11 10  2  0
 13 12  1  0
 13 14  1  6
 14 15  1  0
 15 16  2  0
 16 17  1  0
 18 17  1  0
 19 15  1  0
 19 18  2  0
 20 13  1  0
 21 20  2  0
 22 20  1  0
 23 26  1  0
 23 22  1  0
 23 24  1  1
 25 24  1  0
 26 27  1  0
 28 26  2  0
M  END
$$$$
