FHC.pdb
     RDKit          3D

 28 29  0  0  1  0  0  0  0  0999 V2000
   27.8509  -21.6736  -13.2583 N   0  0  0  0  0  0  0  0  0  0  0  0
   26.7391  -21.5645  -12.3367 C   0  0  1  0  0  0  0  0  0  0  0  0
   26.9457  -20.3942  -11.4020 C   0  0  0  0  0  0  0  0  0  0  0  0
   27.9998  -20.7394  -10.4421 C   0  0  0  0  0  0  0  0  0  0  0  0
   29.3191  -20.7314  -10.8744 C   0  0  0  0  0  0  0  0  0  0  0  0
   30.3527  -21.0538   -9.9983 C   0  0  0  0  0  0  0  0  0  0  0  0
   30.0373  -21.3790   -8.7002 C   0  0  0  0  0  0  0  0  0  0  0  0
   28.7375  -21.3852   -8.2806 C   0  0  0  0  0  0  0  0  0  0  0  0
   27.7059  -21.0690   -9.1342 C   0  0  0  0  0  0  0  0  0  0  0  0
   25.4695  -21.3462  -13.0920 C   0  0  0  0  0  0  0  0  0  0  0  0
   25.3771  -20.4179  -13.9350 O   0  0  0  0  0  0  0  0  0  0  0  0
   24.3520  -22.1827  -12.8686 N   0  0  0  0  0  0  0  0  0  0  0  0
   23.2359  -22.1884  -13.8067 C   0  0  1  0  0  0  0  0  0  0  0  0
   23.1807  -23.4945  -14.5645 C   0  0  0  0  0  0  0  0  0  0  0  0
   24.2884  -23.5826  -15.5263 C   0  0  0  0  0  0  0  0  0  0  0  0
   24.4289  -22.7998  -16.6475 C   0  0  0  0  0  0  0  0  0  0  0  0
   25.5803  -23.1919  -17.2690 N   0  0  0  0  0  0  0  0  0  0  0  0
   26.1368  -24.1797  -16.5646 C   0  0  0  0  0  0  0  0  0  0  0  0
   25.3359  -24.3993  -15.5128 N   0  0  0  0  0  0  0  0  0  0  0  0
   21.9578  -21.8884  -13.0935 C   0  0  0  0  0  0  0  0  0  0  0  0
   21.5514  -22.6746  -12.2133 O   0  0  0  0  0  0  0  0  0  0  0  0
   21.2211  -20.7183  -13.4216 N   0  0  0  0  0  0  0  0  0  0  0  0
   19.9607  -20.3336  -12.8360 C   0  0  1  0  0  0  0  0  0  0  0  0
   20.0829  -19.0075  -12.1733 C   0  0  0  0  0  0  0  0  0  0  0  0
   21.1758  -19.0057  -10.7538 S   0  0  0  0  0  0  0  0  0  0  0  0
   18.8146  -20.4528  -13.7752 C   0  0  0  0  0  0  0  0  0  0  0  0
   17.5127  -20.5874  -13.3244 O   0  0  0  0  0  0  0  0  0  0  0  0
   19.0227  -20.4319  -15.0041 O   0  0  0  0  0  0  0  0  0  0  0  0
  2  1  1  6
  2  3  1  0
  3  4  1  0
  4  9  2  0
  5  6  2  0
  5  4  1  0
  6  7  1  0
  7  8  2  0
  9  8  1  0
 10 12  1  0
 10  2  1  0
 11 10  2  0
 13 12  1  0
 13 14  1  1
 14 15  1  0
 15 16  2  0
 16 17  1  0
 18 17  1  0
 19 15  1  0
 19 18  2  0
 20 13  1  0
 21 20  2  0
 22 20  1  0
 23 26  1  0
 23 22  1  0
 23 24  1  6
 25 24  1  0
 26 27  1  0
 28 26  2  0
M  END
$$$$
