FHC.pdb
     RDKit          3D

 28 29  0  0  1  0  0  0  0  0999 V2000
   25.3999  -19.6698  -17.3237 N   0  0  0  0  0  0  0  0  0  0  0  0
   24.7334  -18.9845  -16.2359 C   0  0  1  0  0  0  0  0  0  0  0  0
   24.1774  -17.6615  -16.7121 C   0  0  0  0  0  0  0  0  0  0  0  0
   25.1732  -16.6145  -16.4590 C   0  0  0  0  0  0  0  0  0  0  0  0
   25.1728  -15.9839  -15.2222 C   0  0  0  0  0  0  0  0  0  0  0  0
   26.0988  -14.9832  -14.9380 C   0  0  0  0  0  0  0  0  0  0  0  0
   27.0100  -14.6356  -15.9072 C   0  0  0  0  0  0  0  0  0  0  0  0
   27.0056  -15.2595  -17.1222 C   0  0  0  0  0  0  0  0  0  0  0  0
   26.0971  -16.2497  -17.4175 C   0  0  0  0  0  0  0  0  0  0  0  0
   23.6022  -19.8152  -15.7259 C   0  0  0  0  0  0  0  0  0  0  0  0
   23.0916  -20.7124  -16.4439 O   0  0  0  0  0  0  0  0  0  0  0  0
   23.0891  -19.6033  -14.4259 N   0  0  0  0  0  0  0  0  0  0  0  0
   22.1192  -20.5306  -13.8557 C   0  0  1  0  0  0  0  0  0  0  0  0
   22.3646  -20.7190  -12.3767 C   0  0  0  0  0  0  0  0  0  0  0  0
   23.6743  -21.3440  -12.1444 C   0  0  0  0  0  0  0  0  0  0  0  0
   23.9828  -22.6581  -12.4044 C   0  0  0  0  0  0  0  0  0  0  0  0
   25.2902  -22.8403  -12.0534 N   0  0  0  0  0  0  0  0  0  0  0  0
   25.7789  -21.6868  -11.5927 C   0  0  0  0  0  0  0  0  0  0  0  0
   24.7812  -20.7944  -11.6574 N   0  0  0  0  0  0  0  0  0  0  0  0
   20.7281  -20.0710  -14.1489 C   0  0  0  0  0  0  0  0  0  0  0  0
   20.4388  -18.8665  -13.9960 O   0  0  0  0  0  0  0  0  0  0  0  0
   19.7534  -21.0033  -14.5962 N   0  0  0  0  0  0  0  0  0  0  0  0
   18.4176  -20.6726  -15.0272 C   0  0  1  0  0  0  0  0  0  0  0  0
   17.8068  -21.8237  -15.7444 C   0  0  0  0  0  0  0  0  0  0  0  0
   17.6466  -23.2992  -14.7410 S   0  0  0  0  0  0  0  0  0  0  0  0
   17.5747  -20.1002  -13.9447 C   0  0  0  0  0  0  0  0  0  0  0  0
   16.5328  -19.2296  -14.2143 O   0  0  0  0  0  0  0  0  0  0  0  0
   17.8056  -20.4075  -12.7588 O   0  0  0  0  0  0  0  0  0  0  0  0
  2  1  1  6
  2  3  1  0
  3  4  1  0
  4  9  2  0
  5  6  2  0
  5  4  1  0
  6  7  1  0
  7  8  2  0
  9  8  1  0
 10 12  1  0
 10  2  1  0
 11 10  2  0
 13 12  1  0
 13 14  1  1
 14 15  1  0
 15 16  2  0
 16 17  1  0
 18 17  1  0
 19 15  1  0
 19 18  2  0
 20 13  1  0
 21 20  2  0
 22 20  1  0
 23 26  1  0
 23 22  1  0
 23 24  1  1
 25 24  1  0
 26 27  1  0
 28 26  2  0
M  END
$$$$
