FHC.pdb
     RDKit          3D

 28 29  0  0  1  0  0  0  0  0999 V2000
   16.6402  -13.9487    7.3354 N   0  0  0  0  0  0  0  0  0  0  0  0
   17.2136  -15.0474    6.5861 C   0  0  1  0  0  0  0  0  0  0  0  0
   18.6783  -14.7887    6.3142 C   0  0  0  0  0  0  0  0  0  0  0  0
   18.7890  -13.7858    5.2495 C   0  0  0  0  0  0  0  0  0  0  0  0
   18.4635  -14.1574    3.9520 C   0  0  0  0  0  0  0  0  0  0  0  0
   18.5549  -13.2389    2.9090 C   0  0  0  0  0  0  0  0  0  0  0  0
   18.9734  -11.9605    3.1930 C   0  0  0  0  0  0  0  0  0  0  0  0
   19.2923  -11.6007    4.4715 C   0  0  0  0  0  0  0  0  0  0  0  0
   19.2070  -12.4966    5.5120 C   0  0  0  0  0  0  0  0  0  0  0  0
   17.0958  -16.3146    7.3672 C   0  0  0  0  0  0  0  0  0  0  0  0
   17.1603  -16.3015    8.6230 O   0  0  0  0  0  0  0  0  0  0  0  0
   16.9095  -17.5487    6.7036 N   0  0  0  0  0  0  0  0  0  0  0  0
   16.9985  -18.8034    7.4409 C   0  0  1  0  0  0  0  0  0  0  0  0
   16.6142  -19.9697    6.5605 C   0  0  0  0  0  0  0  0  0  0  0  0
   16.5329  -21.2081    7.3475 C   0  0  0  0  0  0  0  0  0  0  0  0
   16.0707  -21.2978    8.6391 C   0  0  0  0  0  0  0  0  0  0  0  0
   16.1572  -22.6106    9.0060 N   0  0  0  0  0  0  0  0  0  0  0  0
   16.6533  -23.3130    7.9851 C   0  0  0  0  0  0  0  0  0  0  0  0
   16.8733  -22.4416    6.9909 N   0  0  0  0  0  0  0  0  0  0  0  0
   18.3609  -18.9608    8.0336 C   0  0  0  0  0  0  0  0  0  0  0  0
   19.3633  -18.7079    7.3340 O   0  0  0  0  0  0  0  0  0  0  0  0
   18.5024  -19.3944    9.3794 N   0  0  0  0  0  0  0  0  0  0  0  0
   19.7536  -19.6747   10.0393 C   0  0  1  0  0  0  0  0  0  0  0  0
   20.3669  -18.4152   10.5393 C   0  0  0  0  0  0  0  0  0  0  0  0
   21.8675  -18.6666   11.4851 S   0  0  0  0  0  0  0  0  0  0  0  0
   19.6554  -20.7594   11.0511 C   0  0  0  0  0  0  0  0  0  0  0  0
   18.7263  -20.7188   12.0764 O   0  0  0  0  0  0  0  0  0  0  0  0
   20.4270  -21.7360   10.9816 O   0  0  0  0  0  0  0  0  0  0  0  0
  2  1  1  1
  2  3  1  0
  3  4  1  0
  4  9  2  0
  5  6  2  0
  5  4  1  0
  6  7  1  0
  7  8  2  0
  9  8  1  0
 10 12  1  0
 10  2  1  0
 11 10  2  0
 13 12  1  0
 13 14  1  6
 14 15  1  0
 15 16  2  0
 16 17  1  0
 18 17  1  0
 19 15  1  0
 19 18  2  0
 20 13  1  0
 21 20  2  0
 22 20  1  0
 23 26  1  0
 23 22  1  0
 23 24  1  1
 25 24  1  0
 26 27  1  0
 28 26  2  0
M  END
$$$$
