FHC.pdb
     RDKit          3D

 28 29  0  0  1  0  0  0  0  0999 V2000
   24.6599  -20.4353   -7.6166 N   0  0  0  0  0  0  0  0  0  0  0  0
   25.8637  -19.9500   -8.2589 C   0  0  1  0  0  0  0  0  0  0  0  0
   27.0558  -20.7754   -7.8304 C   0  0  0  0  0  0  0  0  0  0  0  0
   27.6499  -20.1602   -6.6386 C   0  0  0  0  0  0  0  0  0  0  0  0
   27.4834  -20.7916   -5.4135 C   0  0  0  0  0  0  0  0  0  0  0  0
   28.0287  -20.2433   -4.2551 C   0  0  0  0  0  0  0  0  0  0  0  0
   28.7331  -19.0666   -4.3527 C   0  0  0  0  0  0  0  0  0  0  0  0
   28.8936  -18.4499   -5.5609 C   0  0  0  0  0  0  0  0  0  0  0  0
   28.3609  -18.9793   -6.7136 C   0  0  0  0  0  0  0  0  0  0  0  0
   25.7278  -20.0526   -9.7424 C   0  0  0  0  0  0  0  0  0  0  0  0
   24.6351  -20.3926  -10.2636 O   0  0  0  0  0  0  0  0  0  0  0  0
   26.8285  -19.7682  -10.5825 N   0  0  0  0  0  0  0  0  0  0  0  0
   26.6210  -19.4706  -11.9946 C   0  0  1  0  0  0  0  0  0  0  0  0
   27.8647  -18.8643  -12.6019 C   0  0  0  0  0  0  0  0  0  0  0  0
   27.6453  -18.5428  -14.0190 C   0  0  0  0  0  0  0  0  0  0  0  0
   28.1713  -19.2398  -15.0807 C   0  0  0  0  0  0  0  0  0  0  0  0
   27.7337  -18.6263  -16.2199 N   0  0  0  0  0  0  0  0  0  0  0  0
   26.9652  -17.5880  -15.8838 C   0  0  0  0  0  0  0  0  0  0  0  0
   26.9262  -17.5572  -14.5445 N   0  0  0  0  0  0  0  0  0  0  0  0
   26.1703  -20.6955  -12.7217 C   0  0  0  0  0  0  0  0  0  0  0  0
   26.7003  -21.7934  -12.4539 O   0  0  0  0  0  0  0  0  0  0  0  0
   25.1490  -20.6001  -13.7052 N   0  0  0  0  0  0  0  0  0  0  0  0
   24.4714  -21.7168  -14.3163 C   0  0  1  0  0  0  0  0  0  0  0  0
   23.9876  -22.6606  -13.2734 C   0  0  0  0  0  0  0  0  0  0  0  0
   23.3794  -24.2132  -13.9282 S   0  0  0  0  0  0  0  0  0  0  0  0
   23.4414  -21.3092  -15.3078 C   0  0  0  0  0  0  0  0  0  0  0  0
   22.5533  -20.2778  -15.0552 O   0  0  0  0  0  0  0  0  0  0  0  0
   23.3687  -21.9072  -16.3992 O   0  0  0  0  0  0  0  0  0  0  0  0
  2  1  1  1
  2  3  1  0
  3  4  1  0
  4  9  2  0
  5  6  2  0
  5  4  1  0
  6  7  1  0
  7  8  2  0
  9  8  1  0
 10 12  1  0
 10  2  1  0
 11 10  2  0
 13 12  1  0
 13 14  1  6
 14 15  1  0
 15 16  2  0
 16 17  1  0
 18 17  1  0
 19 15  1  0
 19 18  2  0
 20 13  1  0
 21 20  2  0
 22 20  1  0
 23 26  1  0
 23 22  1  0
 23 24  1  1
 25 24  1  0
 26 27  1  0
 28 26  2  0
M  END
$$$$
