FHC.pdb
     RDKit          3D

 28 29  0  0  1  0  0  0  0  0999 V2000
   26.3980  -33.8482    6.1383 N   0  0  0  0  0  0  0  0  0  0  0  0
   27.6430  -33.1206    6.2715 C   0  0  1  0  0  0  0  0  0  0  0  0
   27.3783  -31.6328    6.3199 C   0  0  0  0  0  0  0  0  0  0  0  0
   26.6811  -31.2390    5.0908 C   0  0  0  0  0  0  0  0  0  0  0  0
   25.4572  -30.5928    5.2006 C   0  0  0  0  0  0  0  0  0  0  0  0
   24.7589  -30.2017    4.0608 C   0  0  0  0  0  0  0  0  0  0  0  0
   25.3077  -30.4694    2.8290 C   0  0  0  0  0  0  0  0  0  0  0  0
   26.5121  -31.1054    2.7272 C   0  0  0  0  0  0  0  0  0  0  0  0
   27.2135  -31.4977    3.8438 C   0  0  0  0  0  0  0  0  0  0  0  0
   28.3340  -33.5179    7.5342 C   0  0  0  0  0  0  0  0  0  0  0  0
   27.6922  -34.0492    8.4760 O   0  0  0  0  0  0  0  0  0  0  0  0
   29.7225  -33.3015    7.6879 N   0  0  0  0  0  0  0  0  0  0  0  0
   30.4144  -33.7714    8.8821 C   0  0  1  0  0  0  0  0  0  0  0  0
   31.8894  -33.9534    8.6090 C   0  0  0  0  0  0  0  0  0  0  0  0
   32.1152  -35.1138    7.7359 C   0  0  0  0  0  0  0  0  0  0  0  0
   31.3734  -36.2711    7.7477 C   0  0  0  0  0  0  0  0  0  0  0  0
   31.8998  -37.0949    6.7939 N   0  0  0  0  0  0  0  0  0  0  0  0
   32.9290  -36.4775    6.2096 C   0  0  0  0  0  0  0  0  0  0  0  0
   33.0405  -35.2781    6.7971 N   0  0  0  0  0  0  0  0  0  0  0  0
   30.1563  -32.8481   10.0280 C   0  0  0  0  0  0  0  0  0  0  0  0
   29.8758  -31.6538    9.7976 O   0  0  0  0  0  0  0  0  0  0  0  0
   30.2321  -33.3346   11.3609 N   0  0  0  0  0  0  0  0  0  0  0  0
   29.9962  -32.5532   12.5497 C   0  0  1  0  0  0  0  0  0  0  0  0
   28.6720  -31.8802   12.4707 C   0  0  0  0  0  0  0  0  0  0  0  0
   28.4030  -30.6591   13.7538 S   0  0  0  0  0  0  0  0  0  0  0  0
   30.2318  -33.3096   13.8076 C   0  0  0  0  0  0  0  0  0  0  0  0
   30.3533  -32.6723   15.0304 O   0  0  0  0  0  0  0  0  0  0  0  0
   30.3237  -34.5522   13.7692 O   0  0  0  0  0  0  0  0  0  0  0  0
  2  1  1  1
  2  3  1  0
  3  4  1  0
  4  9  2  0
  5  6  2  0
  5  4  1  0
  6  7  1  0
  7  8  2  0
  9  8  1  0
 10 12  1  0
 10  2  1  0
 11 10  2  0
 13 12  1  0
 13 14  1  6
 14 15  1  0
 15 16  2  0
 16 17  1  0
 18 17  1  0
 19 15  1  0
 19 18  2  0
 20 13  1  0
 21 20  2  0
 22 20  1  0
 23 26  1  0
 23 22  1  0
 23 24  1  1
 25 24  1  0
 26 27  1  0
 28 26  2  0
M  END
$$$$
