FHC.pdb
     RDKit          3D

 28 29  0  0  1  0  0  0  0  0999 V2000
   27.2072  -19.6171  -11.1131 N   0  0  0  0  0  0  0  0  0  0  0  0
   26.6674  -20.9603  -11.0701 C   0  0  1  0  0  0  0  0  0  0  0  0
   26.1033  -21.2550   -9.6987 C   0  0  0  0  0  0  0  0  0  0  0  0
   27.1552  -21.0350   -8.7002 C   0  0  0  0  0  0  0  0  0  0  0  0
   26.8984  -20.1686   -7.6462 C   0  0  0  0  0  0  0  0  0  0  0  0
   27.8679  -19.9283   -6.6756 C   0  0  0  0  0  0  0  0  0  0  0  0
   29.0807  -20.5666   -6.7851 C   0  0  0  0  0  0  0  0  0  0  0  0
   29.3276  -21.4179   -7.8243 C   0  0  0  0  0  0  0  0  0  0  0  0
   28.3800  -21.6652   -8.7905 C   0  0  0  0  0  0  0  0  0  0  0  0
   25.5692  -21.1015  -12.0720 C   0  0  0  0  0  0  0  0  0  0  0  0
   24.7975  -20.1393  -12.3166 O   0  0  0  0  0  0  0  0  0  0  0  0
   25.3822  -22.3218  -12.7605 N   0  0  0  0  0  0  0  0  0  0  0  0
   24.3801  -22.4280  -13.8142 C   0  0  1  0  0  0  0  0  0  0  0  0
   24.4857  -23.7596  -14.5206 C   0  0  0  0  0  0  0  0  0  0  0  0
   23.5348  -23.8297  -15.6389 C   0  0  0  0  0  0  0  0  0  0  0  0
   22.6510  -22.8375  -15.9913 C   0  0  0  0  0  0  0  0  0  0  0  0
   21.9515  -23.2892  -17.0740 N   0  0  0  0  0  0  0  0  0  0  0  0
   22.3807  -24.5141  -17.3856 C   0  0  0  0  0  0  0  0  0  0  0  0
   23.3405  -24.8206  -16.5019 N   0  0  0  0  0  0  0  0  0  0  0  0
   23.0151  -22.1841  -13.2580 C   0  0  0  0  0  0  0  0  0  0  0  0
   22.6560  -22.7976  -12.2320 O   0  0  0  0  0  0  0  0  0  0  0  0
   22.1436  -21.2621  -13.8980 N   0  0  0  0  0  0  0  0  0  0  0  0
   20.8013  -20.9494  -13.4736 C   0  0  1  0  0  0  0  0  0  0  0  0
   20.6483  -19.4819  -13.2850 C   0  0  0  0  0  0  0  0  0  0  0  0
   19.0762  -19.0039  -12.5713 S   0  0  0  0  0  0  0  0  0  0  0  0
   19.7545  -21.5767  -14.3226 C   0  0  0  0  0  0  0  0  0  0  0  0
   18.7221  -22.3205  -13.7776 O   0  0  0  0  0  0  0  0  0  0  0  0
   19.8001  -21.4339  -15.5601 O   0  0  0  0  0  0  0  0  0  0  0  0
  2  1  1  1
  2  3  1  0
  3  4  1  0
  4  9  2  0
  5  6  2  0
  5  4  1  0
  6  7  1  0
  7  8  2  0
  9  8  1  0
 10 12  1  0
 10  2  1  0
 11 10  2  0
 13 12  1  0
 13 14  1  1
 14 15  1  0
 15 16  2  0
 16 17  1  0
 18 17  1  0
 19 15  1  0
 19 18  2  0
 20 13  1  0
 21 20  2  0
 22 20  1  0
 23 26  1  0
 23 22  1  0
 23 24  1  6
 25 24  1  0
 26 27  1  0
 28 26  2  0
M  END
$$$$
