FHC.pdb
     RDKit          3D

 28 29  0  0  1  0  0  0  0  0999 V2000
   25.2699  -11.9799  -17.2975 N   0  0  0  0  0  0  0  0  0  0  0  0
   25.2246  -11.3538  -15.9924 C   0  0  1  0  0  0  0  0  0  0  0  0
   26.3705  -10.3794  -15.8384 C   0  0  0  0  0  0  0  0  0  0  0  0
   27.6317  -11.1009  -16.0398 C   0  0  0  0  0  0  0  0  0  0  0  0
   27.8668  -12.2469  -15.2923 C   0  0  0  0  0  0  0  0  0  0  0  0
   29.0508  -12.9633  -15.4491 C   0  0  0  0  0  0  0  0  0  0  0  0
   29.9780  -12.5109  -16.3580 C   0  0  0  0  0  0  0  0  0  0  0  0
   29.7411  -11.3827  -17.0906 C   0  0  0  0  0  0  0  0  0  0  0  0
   28.5765  -10.6646  -16.9468 C   0  0  0  0  0  0  0  0  0  0  0  0
   23.9434  -10.6044  -15.8298 C   0  0  0  0  0  0  0  0  0  0  0  0
   23.3659  -10.0990  -16.8259 O   0  0  0  0  0  0  0  0  0  0  0  0
   23.3612  -10.4529  -14.5506 N   0  0  0  0  0  0  0  0  0  0  0  0
   22.0540   -9.8237  -14.4051 C   0  0  1  0  0  0  0  0  0  0  0  0
   21.1810  -10.6165  -13.4604 C   0  0  0  0  0  0  0  0  0  0  0  0
   20.8420  -11.9231  -14.0415 C   0  0  0  0  0  0  0  0  0  0  0  0
   21.4128  -13.1216  -13.6844 C   0  0  0  0  0  0  0  0  0  0  0  0
   20.8282  -14.0888  -14.4515 N   0  0  0  0  0  0  0  0  0  0  0  0
   19.9285  -13.5179  -15.2554 C   0  0  0  0  0  0  0  0  0  0  0  0
   19.9546  -12.2047  -14.9889 N   0  0  0  0  0  0  0  0  0  0  0  0
   22.2085   -8.3999  -13.9796 C   0  0  0  0  0  0  0  0  0  0  0  0
   23.1549   -8.0872  -13.2282 O   0  0  0  0  0  0  0  0  0  0  0  0
   21.2826   -7.4210  -14.4311 N   0  0  0  0  0  0  0  0  0  0  0  0
   21.4879   -5.9943  -14.3868 C   0  0  1  0  0  0  0  0  0  0  0  0
   22.7436   -5.6313  -15.0966 C   0  0  0  0  0  0  0  0  0  0  0  0
   23.1988   -3.9069  -14.9260 S   0  0  0  0  0  0  0  0  0  0  0  0
   20.2932   -5.2146  -14.8048 C   0  0  0  0  0  0  0  0  0  0  0  0
   19.9480   -4.0231  -14.1906 O   0  0  0  0  0  0  0  0  0  0  0  0
   19.5771   -5.6383  -15.7331 O   0  0  0  0  0  0  0  0  0  0  0  0
  2  1  1  6
  2  3  1  0
  3  4  1  0
  4  9  2  0
  5  6  2  0
  5  4  1  0
  6  7  1  0
  7  8  2  0
  9  8  1  0
 10 12  1  0
 10  2  1  0
 11 10  2  0
 13 12  1  0
 13 14  1  1
 14 15  1  0
 15 16  2  0
 16 17  1  0
 18 17  1  0
 19 15  1  0
 19 18  2  0
 20 13  1  0
 21 20  2  0
 22 20  1  0
 23 26  1  0
 23 22  1  0
 23 24  1  6
 25 24  1  0
 26 27  1  0
 28 26  2  0
M  END
$$$$
