FHC.pdb
     RDKit          3D

 28 29  0  0  1  0  0  0  0  0999 V2000
   31.3946  -32.2928  -19.9140 N   0  0  0  0  0  0  0  0  0  0  0  0
   30.7016  -31.2994  -19.1202 C   0  0  1  0  0  0  0  0  0  0  0  0
   30.1146  -30.2304  -20.0140 C   0  0  0  0  0  0  0  0  0  0  0  0
   31.2104  -29.4343  -20.5773 C   0  0  0  0  0  0  0  0  0  0  0  0
   31.7671  -28.4282  -19.7993 C   0  0  0  0  0  0  0  0  0  0  0  0
   32.8084  -27.6463  -20.2932 C   0  0  0  0  0  0  0  0  0  0  0  0
   33.2704  -27.8929  -21.5644 C   0  0  0  0  0  0  0  0  0  0  0  0
   32.7188  -28.8841  -22.3252 C   0  0  0  0  0  0  0  0  0  0  0  0
   31.6898  -29.6647  -21.8511 C   0  0  0  0  0  0  0  0  0  0  0  0
   29.5888  -31.9403  -18.3582 C   0  0  0  0  0  0  0  0  0  0  0  0
   28.8539  -32.8035  -18.9020 O   0  0  0  0  0  0  0  0  0  0  0  0
   29.3464  -31.5840  -17.0118 N   0  0  0  0  0  0  0  0  0  0  0  0
   28.2612  -32.2112  -16.2670 C   0  0  1  0  0  0  0  0  0  0  0  0
   28.4702  -32.0494  -14.7792 C   0  0  0  0  0  0  0  0  0  0  0  0
   27.3993  -32.7208  -14.0296 C   0  0  0  0  0  0  0  0  0  0  0  0
   26.2875  -33.3058  -14.5878 C   0  0  0  0  0  0  0  0  0  0  0  0
   25.5438  -33.8146  -13.5613 N   0  0  0  0  0  0  0  0  0  0  0  0
   26.1655  -33.5580  -12.4084 C   0  0  0  0  0  0  0  0  0  0  0  0
   27.2880  -32.8942  -12.7173 N   0  0  0  0  0  0  0  0  0  0  0  0
   26.9430  -31.6730  -16.7196 C   0  0  0  0  0  0  0  0  0  0  0  0
   26.7885  -30.4380  -16.8142 O   0  0  0  0  0  0  0  0  0  0  0  0
   25.8840  -32.5661  -17.0360 N   0  0  0  0  0  0  0  0  0  0  0  0
   24.5759  -32.1781  -17.5029 C   0  0  1  0  0  0  0  0  0  0  0  0
   23.8839  -33.3394  -18.1233 C   0  0  0  0  0  0  0  0  0  0  0  0
   22.2289  -32.9711  -18.7020 S   0  0  0  0  0  0  0  0  0  0  0  0
   23.7760  -31.4558  -16.4790 C   0  0  0  0  0  0  0  0  0  0  0  0
   23.1990  -30.2246  -16.7389 O   0  0  0  0  0  0  0  0  0  0  0  0
   23.6153  -31.9656  -15.3528 O   0  0  0  0  0  0  0  0  0  0  0  0
  2  1  1  6
  2  3  1  0
  3  4  1  0
  4  9  2  0
  5  6  2  0
  5  4  1  0
  6  7  1  0
  7  8  2  0
  9  8  1  0
 10 12  1  0
 10  2  1  0
 11 10  2  0
 13 12  1  0
 13 14  1  1
 14 15  1  0
 15 16  2  0
 16 17  1  0
 18 17  1  0
 19 15  1  0
 19 18  2  0
 20 13  1  0
 21 20  2  0
 22 20  1  0
 23 26  1  0
 23 22  1  0
 23 24  1  1
 25 24  1  0
 26 27  1  0
 28 26  2  0
M  END
$$$$
