FHC.pdb
     RDKit          3D

 28 29  0  0  1  0  0  0  0  0999 V2000
   25.8004    2.0723   -9.1708 N   0  0  0  0  0  0  0  0  0  0  0  0
   27.0859    2.0962   -8.5043 C   0  0  1  0  0  0  0  0  0  0  0  0
   27.3167    0.7986   -7.7635 C   0  0  0  0  0  0  0  0  0  0  0  0
   26.5647    0.8355   -6.5045 C   0  0  0  0  0  0  0  0  0  0  0  0
   27.1506    1.4381   -5.3996 C   0  0  0  0  0  0  0  0  0  0  0  0
   26.4744    1.4953   -4.1833 C   0  0  0  0  0  0  0  0  0  0  0  0
   25.2179    0.9430   -4.1027 C   0  0  0  0  0  0  0  0  0  0  0  0
   24.6466    0.3514   -5.1932 C   0  0  0  0  0  0  0  0  0  0  0  0
   25.3020    0.2873   -6.4011 C   0  0  0  0  0  0  0  0  0  0  0  0
   28.1783    2.2669   -9.5080 C   0  0  0  0  0  0  0  0  0  0  0  0
   28.0843    1.7515  -10.6510 O   0  0  0  0  0  0  0  0  0  0  0  0
   29.3353    3.0122   -9.1854 N   0  0  0  0  0  0  0  0  0  0  0  0
   30.3891    3.2032  -10.1748 C   0  0  1  0  0  0  0  0  0  0  0  0
   30.7993    4.6558  -10.2458 C   0  0  0  0  0  0  0  0  0  0  0  0
   29.7919    5.4438  -10.9697 C   0  0  0  0  0  0  0  0  0  0  0  0
   28.6758    6.0142  -10.4051 C   0  0  0  0  0  0  0  0  0  0  0  0
   28.0029    6.6552  -11.4060 N   0  0  0  0  0  0  0  0  0  0  0  0
   28.6713    6.4921  -12.5498 C   0  0  0  0  0  0  0  0  0  0  0  0
   29.7522    5.7545  -12.2606 N   0  0  0  0  0  0  0  0  0  0  0  0
   31.5422    2.2985   -9.8853 C   0  0  0  0  0  0  0  0  0  0  0  0
   31.8551    2.0698   -8.6987 O   0  0  0  0  0  0  0  0  0  0  0  0
   32.2677    1.7104  -10.9563 N   0  0  0  0  0  0  0  0  0  0  0  0
   33.4205    0.8558  -10.8140 C   0  0  1  0  0  0  0  0  0  0  0  0
   32.9984   -0.5663  -10.7046 C   0  0  0  0  0  0  0  0  0  0  0  0
   34.3645   -1.7228  -10.6265 S   0  0  0  0  0  0  0  0  0  0  0  0
   34.4727    1.1125  -11.8323 C   0  0  0  0  0  0  0  0  0  0  0  0
   35.8200    1.0588  -11.5190 O   0  0  0  0  0  0  0  0  0  0  0  0
   34.1414    1.3842  -13.0030 O   0  0  0  0  0  0  0  0  0  0  0  0
  2  1  1  6
  2  3  1  0
  3  4  1  0
  4  9  2  0
  5  6  2  0
  5  4  1  0
  6  7  1  0
  7  8  2  0
  9  8  1  0
 10 12  1  0
 10  2  1  0
 11 10  2  0
 13 12  1  0
 13 14  1  1
 14 15  1  0
 15 16  2  0
 16 17  1  0
 18 17  1  0
 19 15  1  0
 19 18  2  0
 20 13  1  0
 21 20  2  0
 22 20  1  0
 23 26  1  0
 23 22  1  0
 23 24  1  6
 25 24  1  0
 26 27  1  0
 28 26  2  0
M  END
$$$$
