TFW.pdb
     RDKit          3D

 33 35  0  0  1  0  0  0  0  0999 V2000
   24.3545  -23.8510  -17.6618 C   0  0  0  0  0  0  0  0  0  0  0  0
   24.8693  -23.5803  -16.2655 C   0  0  1  0  0  0  0  0  0  0  0  0
   24.9260  -24.7964  -15.5564 O   0  0  0  0  0  0  0  0  0  0  0  0
   26.2488  -22.9937  -16.3910 C   0  0  2  0  0  0  0  0  0  0  0  0
   27.0909  -23.9418  -17.0900 N   0  0  0  0  0  0  0  0  0  0  0  0
   26.8359  -22.6241  -15.0965 C   0  0  0  0  0  0  0  0  0  0  0  0
   27.6625  -23.3648  -14.4938 O   0  0  0  0  0  0  0  0  0  0  0  0
   26.4581  -21.3906  -14.5058 N   0  0  0  0  0  0  0  0  0  0  0  0
   26.8504  -21.0382  -13.1601 C   0  0  1  0  0  0  0  0  0  0  0  0
   26.7798  -19.5204  -13.0845 C   0  0  0  0  0  0  0  0  0  0  0  0
   27.8413  -18.9752  -12.2233 C   0  0  0  0  0  0  0  0  0  0  0  0
   27.5086  -18.2244  -11.1016 C   0  0  0  0  0  0  0  0  0  0  0  0
   28.4584  -17.6911  -10.2609 C   0  0  0  0  0  0  0  0  0  0  0  0
   29.8008  -17.8901  -10.5117 C   0  0  0  0  0  0  0  0  0  0  0  0
   30.1470  -18.6298  -11.6164 C   0  0  0  0  0  0  0  0  0  0  0  0
   29.1809  -19.1619  -12.4562 C   0  0  0  0  0  0  0  0  0  0  0  0
   25.9358  -21.7044  -12.2121 C   0  0  0  0  0  0  0  0  0  0  0  0
   25.9369  -22.9557  -12.1357 O   0  0  0  0  0  0  0  0  0  0  0  0
   25.0305  -20.9853  -11.3554 N   0  0  0  0  0  0  0  0  0  0  0  0
   25.2419  -20.9965   -9.9271 C   0  0  1  0  0  0  0  0  0  0  0  0
   26.2285  -19.9070   -9.5162 C   0  0  0  0  0  0  0  0  0  0  0  0
   27.3655  -20.5041   -8.7987 C   0  0  0  0  0  0  0  0  0  0  0  0
   28.3250  -21.3947   -9.2659 C   0  0  0  0  0  0  0  0  0  0  0  0
   29.1469  -21.6568   -8.2598 N   0  0  0  0  0  0  0  0  0  0  0  0
   28.7905  -20.9976   -7.1639 C   0  0  0  0  0  0  0  0  0  0  0  0
   29.3107  -20.9308   -5.8735 C   0  0  0  0  0  0  0  0  0  0  0  0
   28.6987  -20.1374   -4.9425 C   0  0  0  0  0  0  0  0  0  0  0  0
   27.5818  -19.3977   -5.2329 C   0  0  0  0  0  0  0  0  0  0  0  0
   27.0543  -19.4528   -6.5058 C   0  0  0  0  0  0  0  0  0  0  0  0
   27.6670  -20.2565   -7.4643 C   0  0  0  0  0  0  0  0  0  0  0  0
   23.9599  -20.6813   -9.2608 C   0  0  0  0  0  0  0  0  0  0  0  0
   23.4793  -21.4385   -8.2042 O   0  0  0  0  0  0  0  0  0  0  0  0
   23.2413  -19.6987   -9.6309 O   0  0  0  0  0  0  0  0  0  0  0  0
  2  1  1  6
  2  3  1  0
  4  2  1  0
  4  5  1  1
  6  4  1  0
  6  7  2  0
  8  6  1  0
  9  8  1  0
  9 10  1  6
 10 11  1  0
 11 12  2  0
 12 13  1  0
 14 13  2  0
 15 14  1  0
 16 11  1  0
 16 15  2  0
 17  9  1  0
 18 17  2  0
 19 17  1  0
 20 21  1  6
 20 19  1  0
 21 22  1  0
 22 30  1  0
 23 22  2  0
 23 24  1  0
 24 25  1  0
 25 26  1  0
 26 27  2  0
 28 27  1  0
 29 28  2  0
 30 25  2  0
 30 29  1  0
 31 32  1  0
 31 20  1  0
 33 31  2  0
M  END
$$$$
