TFW.pdb
     RDKit          3D

 33 35  0  0  1  0  0  0  0  0999 V2000
   26.7417  -20.6477  -18.0923 C   0  0  0  0  0  0  0  0  0  0  0  0
   26.0108  -20.8978  -16.7919 C   0  0  1  0  0  0  0  0  0  0  0  0
   24.7141  -21.3673  -17.0803 O   0  0  0  0  0  0  0  0  0  0  0  0
   26.7777  -21.9426  -16.0282 C   0  0  2  0  0  0  0  0  0  0  0  0
   26.7326  -23.1835  -16.7731 N   0  0  0  0  0  0  0  0  0  0  0  0
   26.2817  -22.1333  -14.6591 C   0  0  0  0  0  0  0  0  0  0  0  0
   25.4994  -23.0751  -14.3493 O   0  0  0  0  0  0  0  0  0  0  0  0
   26.6986  -21.2247  -13.6521 N   0  0  0  0  0  0  0  0  0  0  0  0
   26.1202  -21.2370  -12.3277 C   0  0  1  0  0  0  0  0  0  0  0  0
   27.1717  -20.6420  -11.4031 C   0  0  0  0  0  0  0  0  0  0  0  0
   26.6748  -20.5355  -10.0220 C   0  0  0  0  0  0  0  0  0  0  0  0
   26.3234  -19.2943   -9.5040 C   0  0  0  0  0  0  0  0  0  0  0  0
   25.8525  -19.1352   -8.2210 C   0  0  0  0  0  0  0  0  0  0  0  0
   25.7118  -20.2284   -7.3904 C   0  0  0  0  0  0  0  0  0  0  0  0
   26.0548  -21.4627   -7.8867 C   0  0  0  0  0  0  0  0  0  0  0  0
   26.5282  -21.6103   -9.1813 C   0  0  0  0  0  0  0  0  0  0  0  0
   24.8678  -20.4560  -12.3523 C   0  0  0  0  0  0  0  0  0  0  0  0
   24.9257  -19.2073  -12.4480 O   0  0  0  0  0  0  0  0  0  0  0  0
   23.5635  -21.0585  -12.2740 N   0  0  0  0  0  0  0  0  0  0  0  0
   22.4150  -20.2342  -11.9800 C   0  0  1  0  0  0  0  0  0  0  0  0
   22.1819  -19.2130  -13.0900 C   0  0  0  0  0  0  0  0  0  0  0  0
   21.9153  -19.9049  -14.3606 C   0  0  0  0  0  0  0  0  0  0  0  0
   21.1844  -21.0650  -14.5888 C   0  0  0  0  0  0  0  0  0  0  0  0
   21.2233  -21.3092  -15.8908 N   0  0  0  0  0  0  0  0  0  0  0  0
   21.9308  -20.3867  -16.5318 C   0  0  0  0  0  0  0  0  0  0  0  0
   22.2645  -20.1930  -17.8702 C   0  0  0  0  0  0  0  0  0  0  0  0
   23.0299  -19.1157  -18.2228 C   0  0  0  0  0  0  0  0  0  0  0  0
   23.4862  -18.2099  -17.3007 C   0  0  0  0  0  0  0  0  0  0  0  0
   23.1647  -18.3874  -15.9716 C   0  0  0  0  0  0  0  0  0  0  0  0
   22.3859  -19.4801  -15.5978 C   0  0  0  0  0  0  0  0  0  0  0  0
   21.2156  -21.0982  -11.9397 C   0  0  0  0  0  0  0  0  0  0  0  0
   21.2652  -22.4355  -12.3004 O   0  0  0  0  0  0  0  0  0  0  0  0
   20.0836  -20.6489  -11.5713 O   0  0  0  0  0  0  0  0  0  0  0  0
  2  1  1  6
  2  3  1  0
  4  2  1  0
  4  5  1  6
  6  4  1  0
  6  7  2  0
  8  6  1  0
  9  8  1  0
  9 10  1  1
 10 11  1  0
 11 12  2  0
 12 13  1  0
 14 13  2  0
 15 14  1  0
 16 11  1  0
 16 15  2  0
 17  9  1  0
 18 17  2  0
 19 17  1  0
 20 21  1  6
 20 19  1  0
 21 22  1  0
 22 30  1  0
 23 22  2  0
 23 24  1  0
 24 25  1  0
 25 26  1  0
 26 27  2  0
 28 27  1  0
 29 28  2  0
 30 25  2  0
 30 29  1  0
 31 32  1  0
 31 20  1  0
 33 31  2  0
M  END
$$$$
