TFW.pdb
     RDKit          3D

 33 35  0  0  1  0  0  0  0  0999 V2000
   29.4496  -25.3272  -18.7831 C   0  0  0  0  0  0  0  0  0  0  0  0
   28.7510  -24.5291  -17.7047 C   0  0  1  0  0  0  0  0  0  0  0  0
   28.1783  -25.4205  -16.7760 O   0  0  0  0  0  0  0  0  0  0  0  0
   29.7846  -23.6728  -17.0254 C   0  0  2  0  0  0  0  0  0  0  0  0
   30.7632  -24.5392  -16.4021 N   0  0  0  0  0  0  0  0  0  0  0  0
   29.2070  -22.7428  -16.0465 C   0  0  0  0  0  0  0  0  0  0  0  0
   29.4629  -22.8169  -14.8120 O   0  0  0  0  0  0  0  0  0  0  0  0
   28.3308  -21.7268  -16.5085 N   0  0  0  0  0  0  0  0  0  0  0  0
   27.8530  -20.6779  -15.6365 C   0  0  1  0  0  0  0  0  0  0  0  0
   27.4835  -19.5127  -16.5421 C   0  0  0  0  0  0  0  0  0  0  0  0
   26.6995  -18.4981  -15.8199 C   0  0  0  0  0  0  0  0  0  0  0  0
   27.3461  -17.4491  -15.1764 C   0  0  0  0  0  0  0  0  0  0  0  0
   26.6647  -16.4724  -14.4873 C   0  0  0  0  0  0  0  0  0  0  0  0
   25.2870  -16.5055  -14.4124 C   0  0  0  0  0  0  0  0  0  0  0  0
   24.6323  -17.5357  -15.0427 C   0  0  0  0  0  0  0  0  0  0  0  0
   25.3299  -18.5141  -15.7340 C   0  0  0  0  0  0  0  0  0  0  0  0
   26.7051  -21.1926  -14.8641 C   0  0  0  0  0  0  0  0  0  0  0  0
   25.9118  -21.9971  -15.4074 O   0  0  0  0  0  0  0  0  0  0  0  0
   26.4438  -20.8180  -13.4996 N   0  0  0  0  0  0  0  0  0  0  0  0
   25.3829  -21.4738  -12.7721 C   0  0  1  0  0  0  0  0  0  0  0  0
   25.9238  -22.1470  -11.5137 C   0  0  0  0  0  0  0  0  0  0  0  0
   26.1665  -21.1389  -10.4701 C   0  0  0  0  0  0  0  0  0  0  0  0
   25.2847  -20.2116   -9.9270 C   0  0  0  0  0  0  0  0  0  0  0  0
   25.9525  -19.5119   -9.0210 N   0  0  0  0  0  0  0  0  0  0  0  0
   27.2133  -19.9183   -8.9336 C   0  0  0  0  0  0  0  0  0  0  0  0
   28.2974  -19.5192   -8.1553 C   0  0  0  0  0  0  0  0  0  0  0  0
   29.5003  -20.1531   -8.3032 C   0  0  0  0  0  0  0  0  0  0  0  0
   29.6825  -21.1765   -9.1969 C   0  0  0  0  0  0  0  0  0  0  0  0
   28.6193  -21.5834   -9.9749 C   0  0  0  0  0  0  0  0  0  0  0  0
   27.3882  -20.9470   -9.8351 C   0  0  0  0  0  0  0  0  0  0  0  0
   24.4181  -20.4472  -12.3228 C   0  0  0  0  0  0  0  0  0  0  0  0
   23.1171  -20.7705  -11.9709 O   0  0  0  0  0  0  0  0  0  0  0  0
   24.7424  -19.2196  -12.2405 O   0  0  0  0  0  0  0  0  0  0  0  0
  2  1  1  6
  2  3  1  0
  4  2  1  0
  4  5  1  1
  6  4  1  0
  6  7  2  0
  8  6  1  0
  9  8  1  0
  9 10  1  6
 10 11  1  0
 11 12  2  0
 12 13  1  0
 14 13  2  0
 15 14  1  0
 16 11  1  0
 16 15  2  0
 17  9  1  0
 18 17  2  0
 19 17  1  0
 20 21  1  1
 20 19  1  0
 21 22  1  0
 22 30  1  0
 23 22  2  0
 23 24  1  0
 24 25  1  0
 25 26  1  0
 26 27  2  0
 28 27  1  0
 29 28  2  0
 30 25  2  0
 30 29  1  0
 31 32  1  0
 31 20  1  0
 33 31  2  0
M  END
$$$$
