TFW.pdb
     RDKit          3D

 33 35  0  0  1  0  0  0  0  0999 V2000
   28.6256  -20.4994  -18.7987 C   0  0  0  0  0  0  0  0  0  0  0  0
   27.6304  -20.6876  -17.6752 C   0  0  1  0  0  0  0  0  0  0  0  0
   26.4016  -21.1097  -18.2201 O   0  0  0  0  0  0  0  0  0  0  0  0
   28.1740  -21.7446  -16.7531 C   0  0  2  0  0  0  0  0  0  0  0  0
   28.3102  -22.9794  -17.4972 N   0  0  0  0  0  0  0  0  0  0  0  0
   27.3481  -21.9416  -15.5548 C   0  0  0  0  0  0  0  0  0  0  0  0
   26.4707  -22.8470  -15.4807 O   0  0  0  0  0  0  0  0  0  0  0  0
   27.5464  -21.0820  -14.4434 N   0  0  0  0  0  0  0  0  0  0  0  0
   26.7656  -21.2079  -13.2338 C   0  0  1  0  0  0  0  0  0  0  0  0
   27.5978  -20.5769  -12.1275 C   0  0  0  0  0  0  0  0  0  0  0  0
   26.8821  -20.5912  -10.8417 C   0  0  0  0  0  0  0  0  0  0  0  0
   27.3132  -21.4248   -9.8161 C   0  0  0  0  0  0  0  0  0  0  0  0
   26.6837  -21.4789   -8.5938 C   0  0  0  0  0  0  0  0  0  0  0  0
   25.5799  -20.6892   -8.3434 C   0  0  0  0  0  0  0  0  0  0  0  0
   25.1406  -19.8596   -9.3465 C   0  0  0  0  0  0  0  0  0  0  0  0
   25.7832  -19.8139  -10.5741 C   0  0  0  0  0  0  0  0  0  0  0  0
   25.4695  -20.5307  -13.4360 C   0  0  0  0  0  0  0  0  0  0  0  0
   25.4534  -19.3548  -13.8703 O   0  0  0  0  0  0  0  0  0  0  0  0
   24.2036  -21.1566  -13.1601 N   0  0  0  0  0  0  0  0  0  0  0  0
   22.9801  -20.4533  -13.4658 C   0  0  1  0  0  0  0  0  0  0  0  0
   22.6635  -20.5383  -14.9563 C   0  0  0  0  0  0  0  0  0  0  0  0
   21.4196  -19.8089  -15.2476 C   0  0  0  0  0  0  0  0  0  0  0  0
   21.0896  -18.4903  -14.9565 C   0  0  0  0  0  0  0  0  0  0  0  0
   19.8606  -18.2801  -15.4059 N   0  0  0  0  0  0  0  0  0  0  0  0
   19.3627  -19.3726  -15.9723 C   0  0  0  0  0  0  0  0  0  0  0  0
   18.1450  -19.6668  -16.5814 C   0  0  0  0  0  0  0  0  0  0  0  0
   17.9295  -20.9214  -17.0815 C   0  0  0  0  0  0  0  0  0  0  0  0
   18.8750  -21.9110  -17.0058 C   0  0  0  0  0  0  0  0  0  0  0  0
   20.0858  -21.6360  -16.4058 C   0  0  0  0  0  0  0  0  0  0  0  0
   20.3192  -20.3626  -15.8920 C   0  0  0  0  0  0  0  0  0  0  0  0
   21.8665  -21.1196  -12.7567 C   0  0  0  0  0  0  0  0  0  0  0  0
   20.7801  -20.4095  -12.2706 O   0  0  0  0  0  0  0  0  0  0  0  0
   21.8589  -22.3769  -12.5619 O   0  0  0  0  0  0  0  0  0  0  0  0
  2  1  1  6
  2  3  1  0
  4  2  1  0
  4  5  1  6
  6  4  1  0
  6  7  2  0
  8  6  1  0
  9  8  1  0
  9 10  1  1
 10 11  1  0
 11 12  2  0
 12 13  1  0
 14 13  2  0
 15 14  1  0
 16 11  1  0
 16 15  2  0
 17  9  1  0
 18 17  2  0
 19 17  1  0
 20 21  1  6
 20 19  1  0
 21 22  1  0
 22 30  1  0
 23 22  2  0
 23 24  1  0
 24 25  1  0
 25 26  1  0
 26 27  2  0
 28 27  1  0
 29 28  2  0
 30 25  2  0
 30 29  1  0
 31 32  1  0
 31 20  1  0
 33 31  2  0
M  END
$$$$
