TFW.pdb
     RDKit          3D

 33 35  0  0  1  0  0  0  0  0999 V2000
   28.8156  -25.1324  -19.2224 C   0  0  0  0  0  0  0  0  0  0  0  0
   28.3361  -24.3445  -18.0235 C   0  0  1  0  0  0  0  0  0  0  0  0
   28.0495  -25.2399  -16.9741 O   0  0  0  0  0  0  0  0  0  0  0  0
   29.4434  -23.4116  -17.6151 C   0  0  2  0  0  0  0  0  0  0  0  0
   30.5907  -24.2025  -17.2219 N   0  0  0  0  0  0  0  0  0  0  0  0
   29.0501  -22.4874  -16.5436 C   0  0  0  0  0  0  0  0  0  0  0  0
   29.5409  -22.5524  -15.3818 O   0  0  0  0  0  0  0  0  0  0  0  0
   28.0840  -21.4878  -16.8283 N   0  0  0  0  0  0  0  0  0  0  0  0
   27.7010  -20.4970  -15.8483 C   0  0  1  0  0  0  0  0  0  0  0  0
   27.3597  -19.2388  -16.6324 C   0  0  0  0  0  0  0  0  0  0  0  0
   26.7233  -18.2267  -15.7743 C   0  0  0  0  0  0  0  0  0  0  0  0
   25.3372  -18.1492  -15.7024 C   0  0  0  0  0  0  0  0  0  0  0  0
   24.6884  -17.2244  -14.9168 C   0  0  0  0  0  0  0  0  0  0  0  0
   25.4109  -16.3252  -14.1592 C   0  0  0  0  0  0  0  0  0  0  0  0
   26.7820  -16.3880  -14.2188 C   0  0  0  0  0  0  0  0  0  0  0  0
   27.4244  -17.3243  -15.0141 C   0  0  0  0  0  0  0  0  0  0  0  0
   26.5589  -21.0183  -15.0717 C   0  0  0  0  0  0  0  0  0  0  0  0
   25.6518  -21.6494  -15.6637 O   0  0  0  0  0  0  0  0  0  0  0  0
   26.4286  -20.8413  -13.6497 N   0  0  0  0  0  0  0  0  0  0  0  0
   25.3595  -21.5080  -12.9444 C   0  0  1  0  0  0  0  0  0  0  0  0
   25.8921  -22.2322  -11.7110 C   0  0  0  0  0  0  0  0  0  0  0  0
   26.2206  -21.2573  -10.6595 C   0  0  0  0  0  0  0  0  0  0  0  0
   25.3716  -20.4163   -9.9495 C   0  0  0  0  0  0  0  0  0  0  0  0
   26.1190  -19.7140   -9.1100 N   0  0  0  0  0  0  0  0  0  0  0  0
   27.4014  -20.0383   -9.2220 C   0  0  0  0  0  0  0  0  0  0  0  0
   28.5598  -19.6022   -8.5831 C   0  0  0  0  0  0  0  0  0  0  0  0
   29.7651  -20.1467   -8.9318 C   0  0  0  0  0  0  0  0  0  0  0  0
   29.8787  -21.1149   -9.8954 C   0  0  0  0  0  0  0  0  0  0  0  0
   28.7414  -21.5576  -10.5374 C   0  0  0  0  0  0  0  0  0  0  0  0
   27.5069  -21.0121  -10.1926 C   0  0  0  0  0  0  0  0  0  0  0  0
   24.4089  -20.4849  -12.4582 C   0  0  0  0  0  0  0  0  0  0  0  0
   23.0802  -20.7845  -12.2014 O   0  0  0  0  0  0  0  0  0  0  0  0
   24.7715  -19.2824  -12.2548 O   0  0  0  0  0  0  0  0  0  0  0  0
  2  1  1  6
  2  3  1  0
  4  2  1  0
  4  5  1  1
  6  4  1  0
  6  7  2  0
  8  6  1  0
  9  8  1  0
  9 10  1  6
 10 11  1  0
 11 12  2  0
 12 13  1  0
 14 13  2  0
 15 14  1  0
 16 11  1  0
 16 15  2  0
 17  9  1  0
 18 17  2  0
 19 17  1  0
 20 21  1  1
 20 19  1  0
 21 22  1  0
 22 30  1  0
 23 22  2  0
 23 24  1  0
 24 25  1  0
 25 26  1  0
 26 27  2  0
 28 27  1  0
 29 28  2  0
 30 25  2  0
 30 29  1  0
 31 32  1  0
 31 20  1  0
 33 31  2  0
M  END
$$$$
