TFW.pdb
     RDKit          3D

 33 35  0  0  1  0  0  0  0  0999 V2000
   16.5113  -12.8251    7.8602 C   0  0  0  0  0  0  0  0  0  0  0  0
   17.3898  -11.9079    7.0387 C   0  0  1  0  0  0  0  0  0  0  0  0
   17.1121  -10.5727    7.3922 O   0  0  0  0  0  0  0  0  0  0  0  0
   18.8224  -12.2370    7.3587 C   0  0  2  0  0  0  0  0  0  0  0  0
   19.6796  -11.3551    6.5944 N   0  0  0  0  0  0  0  0  0  0  0  0
   19.1586  -13.6444    7.1075 C   0  0  0  0  0  0  0  0  0  0  0  0
   19.7423  -14.0213    6.0529 O   0  0  0  0  0  0  0  0  0  0  0  0
   18.8132  -14.6113    8.0869 N   0  0  0  0  0  0  0  0  0  0  0  0
   19.0894  -16.0176    7.8999 C   0  0  1  0  0  0  0  0  0  0  0  0
   19.7115  -16.5015    9.2012 C   0  0  0  0  0  0  0  0  0  0  0  0
   21.1814  -16.4829    9.1339 C   0  0  0  0  0  0  0  0  0  0  0  0
   21.8591  -17.4981    8.4685 C   0  0  0  0  0  0  0  0  0  0  0  0
   23.2313  -17.5316    8.3731 C   0  0  0  0  0  0  0  0  0  0  0  0
   23.9938  -16.5355    8.9484 C   0  0  0  0  0  0  0  0  0  0  0  0
   23.3397  -15.5246    9.6100 C   0  0  0  0  0  0  0  0  0  0  0  0
   21.9565  -15.5017    9.6995 C   0  0  0  0  0  0  0  0  0  0  0  0
   17.8254  -16.7077    7.5752 C   0  0  0  0  0  0  0  0  0  0  0  0
   16.8098  -16.4892    8.2768 O   0  0  0  0  0  0  0  0  0  0  0  0
   17.6921  -17.6299    6.4787 N   0  0  0  0  0  0  0  0  0  0  0  0
   16.4172  -18.2606    6.2302 C   0  0  1  0  0  0  0  0  0  0  0  0
   15.6726  -17.5526    5.1016 C   0  0  0  0  0  0  0  0  0  0  0  0
   16.4941  -17.5521    3.8813 C   0  0  0  0  0  0  0  0  0  0  0  0
   16.7724  -18.6013    3.0131 C   0  0  0  0  0  0  0  0  0  0  0  0
   17.5594  -18.1280    2.0575 N   0  0  0  0  0  0  0  0  0  0  0  0
   17.8158  -16.8385    2.2410 C   0  0  0  0  0  0  0  0  0  0  0  0
   18.5691  -15.9013    1.5377 C   0  0  0  0  0  0  0  0  0  0  0  0
   18.6386  -14.6145    1.9961 C   0  0  0  0  0  0  0  0  0  0  0  0
   17.9892  -14.2070    3.1324 C   0  0  0  0  0  0  0  0  0  0  0  0
   17.2393  -15.1226    3.8401 C   0  0  0  0  0  0  0  0  0  0  0  0
   17.1594  -16.4367    3.3852 C   0  0  0  0  0  0  0  0  0  0  0  0
   16.6605  -19.6462    5.7742 C   0  0  0  0  0  0  0  0  0  0  0  0
   15.6234  -20.5448    5.5795 O   0  0  0  0  0  0  0  0  0  0  0  0
   17.8361  -20.0735    5.5409 O   0  0  0  0  0  0  0  0  0  0  0  0
  2  1  1  1
  2  3  1  0
  4  2  1  0
  4  5  1  6
  6  4  1  0
  6  7  2  0
  8  6  1  0
  9  8  1  0
  9 10  1  1
 10 11  1  0
 11 12  2  0
 12 13  1  0
 14 13  2  0
 15 14  1  0
 16 11  1  0
 16 15  2  0
 17  9  1  0
 18 17  2  0
 19 17  1  0
 20 21  1  6
 20 19  1  0
 21 22  1  0
 22 30  1  0
 23 22  2  0
 23 24  1  0
 24 25  1  0
 25 26  1  0
 26 27  2  0
 28 27  1  0
 29 28  2  0
 30 25  2  0
 30 29  1  0
 31 32  1  0
 31 20  1  0
 33 31  2  0
M  END
$$$$
