TFW.pdb
     RDKit          3D

 33 35  0  0  1  0  0  0  0  0999 V2000
   28.3572  -20.2751  -17.5628 C   0  0  0  0  0  0  0  0  0  0  0  0
   27.5142  -20.4051  -16.3136 C   0  0  1  0  0  0  0  0  0  0  0  0
   26.1740  -20.6251  -16.6885 O   0  0  0  0  0  0  0  0  0  0  0  0
   28.0296  -21.5833  -15.5330 C   0  0  2  0  0  0  0  0  0  0  0  0
   27.8715  -22.7753  -16.3397 N   0  0  0  0  0  0  0  0  0  0  0  0
   27.3725  -21.7403  -14.2289 C   0  0  0  0  0  0  0  0  0  0  0  0
   26.4214  -22.5506  -14.0453 O   0  0  0  0  0  0  0  0  0  0  0  0
   27.8255  -20.9516  -13.1398 N   0  0  0  0  0  0  0  0  0  0  0  0
   27.1840  -20.9993  -11.8456 C   0  0  1  0  0  0  0  0  0  0  0  0
   28.1759  -20.3979  -10.8612 C   0  0  0  0  0  0  0  0  0  0  0  0
   27.6075  -20.3185   -9.5062 C   0  0  0  0  0  0  0  0  0  0  0  0
   26.7500  -19.2764   -9.1727 C   0  0  0  0  0  0  0  0  0  0  0  0
   26.1888  -19.1524   -7.9225 C   0  0  0  0  0  0  0  0  0  0  0  0
   26.4668  -20.0801   -6.9393 C   0  0  0  0  0  0  0  0  0  0  0  0
   27.3126  -21.1165   -7.2523 C   0  0  0  0  0  0  0  0  0  0  0  0
   27.8720  -21.2308   -8.5156 C   0  0  0  0  0  0  0  0  0  0  0  0
   25.9171  -20.2451  -11.9187 C   0  0  0  0  0  0  0  0  0  0  0  0
   25.9056  -19.1175  -12.4665 O   0  0  0  0  0  0  0  0  0  0  0  0
   24.6745  -20.7417  -11.3898 N   0  0  0  0  0  0  0  0  0  0  0  0
   23.4268  -20.2135  -11.8889 C   0  0  1  0  0  0  0  0  0  0  0  0
   23.2304  -20.5817  -13.3569 C   0  0  0  0  0  0  0  0  0  0  0  0
   21.9987  -19.9617  -13.8694 C   0  0  0  0  0  0  0  0  0  0  0  0
   21.1675  -19.0306  -13.2576 C   0  0  0  0  0  0  0  0  0  0  0  0
   20.1776  -18.7685  -14.0990 N   0  0  0  0  0  0  0  0  0  0  0  0
   20.3041  -19.4656  -15.2217 C   0  0  0  0  0  0  0  0  0  0  0  0
   19.5483  -19.5486  -16.3888 C   0  0  0  0  0  0  0  0  0  0  0  0
   19.9533  -20.3835  -17.3937 C   0  0  0  0  0  0  0  0  0  0  0  0
   21.0857  -21.1497  -17.2959 C   0  0  0  0  0  0  0  0  0  0  0  0
   21.8450  -21.0790  -16.1470 C   0  0  0  0  0  0  0  0  0  0  0  0
   21.4447  -20.2330  -15.1153 C   0  0  0  0  0  0  0  0  0  0  0  0
   22.3179  -20.8444  -11.1412 C   0  0  0  0  0  0  0  0  0  0  0  0
   21.2227  -20.1160  -10.7044 O   0  0  0  0  0  0  0  0  0  0  0  0
   22.3226  -22.0866  -10.8658 O   0  0  0  0  0  0  0  0  0  0  0  0
  2  1  1  6
  2  3  1  0
  4  2  1  0
  4  5  1  6
  6  4  1  0
  6  7  2  0
  8  6  1  0
  9  8  1  0
  9 10  1  1
 10 11  1  0
 11 12  2  0
 12 13  1  0
 14 13  2  0
 15 14  1  0
 16 11  1  0
 16 15  2  0
 17  9  1  0
 18 17  2  0
 19 17  1  0
 20 21  1  6
 20 19  1  0
 21 22  1  0
 22 30  1  0
 23 22  2  0
 23 24  1  0
 24 25  1  0
 25 26  1  0
 26 27  2  0
 28 27  1  0
 29 28  2  0
 30 25  2  0
 30 29  1  0
 31 32  1  0
 31 20  1  0
 33 31  2  0
M  END
$$$$
