TFW.pdb
     RDKit          3D

 33 35  0  0  1  0  0  0  0  0999 V2000
   26.1048  -16.8938  -14.1937 C   0  0  0  0  0  0  0  0  0  0  0  0
   26.8922  -17.6821  -15.2167 C   0  0  1  0  0  0  0  0  0  0  0  0
   27.7579  -16.8055  -15.9004 O   0  0  0  0  0  0  0  0  0  0  0  0
   27.6910  -18.7217  -14.4790 C   0  0  2  0  0  0  0  0  0  0  0  0
   28.7063  -19.2414  -15.3711 N   0  0  0  0  0  0  0  0  0  0  0  0
   26.8616  -19.8064  -13.9381 C   0  0  0  0  0  0  0  0  0  0  0  0
   26.5805  -20.8396  -14.6077 O   0  0  0  0  0  0  0  0  0  0  0  0
   26.3606  -19.6848  -12.6162 N   0  0  0  0  0  0  0  0  0  0  0  0
   25.6096  -20.7463  -11.9852 C   0  0  1  0  0  0  0  0  0  0  0  0
   26.1731  -20.8826  -10.5787 C   0  0  0  0  0  0  0  0  0  0  0  0
   27.6319  -21.0745  -10.6003 C   0  0  0  0  0  0  0  0  0  0  0  0
   28.4204  -20.5196   -9.5989 C   0  0  0  0  0  0  0  0  0  0  0  0
   29.7881  -20.6673   -9.5680 C   0  0  0  0  0  0  0  0  0  0  0  0
   30.4331  -21.3873  -10.5529 C   0  0  0  0  0  0  0  0  0  0  0  0
   29.6686  -21.9424  -11.5504 C   0  0  0  0  0  0  0  0  0  0  0  0
   28.2912  -21.7866  -11.5708 C   0  0  0  0  0  0  0  0  0  0  0  0
   24.1784  -20.3844  -11.9988 C   0  0  0  0  0  0  0  0  0  0  0  0
   23.8173  -19.2927  -11.4995 O   0  0  0  0  0  0  0  0  0  0  0  0
   23.1593  -21.2279  -12.5649 N   0  0  0  0  0  0  0  0  0  0  0  0
   21.7892  -20.7726  -12.5860 C   0  0  1  0  0  0  0  0  0  0  0  0
   21.6402  -19.5422  -13.4766 C   0  0  0  0  0  0  0  0  0  0  0  0
   22.2761  -19.7864  -14.7805 C   0  0  0  0  0  0  0  0  0  0  0  0
   22.4656  -20.9897  -15.4502 C   0  0  0  0  0  0  0  0  0  0  0  0
   23.0877  -20.7171  -16.5882 N   0  0  0  0  0  0  0  0  0  0  0  0
   23.3189  -19.4155  -16.7096 C   0  0  0  0  0  0  0  0  0  0  0  0
   23.9265  -18.6373  -17.6922 C   0  0  0  0  0  0  0  0  0  0  0  0
   24.0127  -17.2833  -17.5192 C   0  0  0  0  0  0  0  0  0  0  0  0
   23.5193  -16.6557  -16.4049 C   0  0  0  0  0  0  0  0  0  0  0  0
   22.9149  -17.4118  -15.4228 C   0  0  0  0  0  0  0  0  0  0  0  0
   22.8199  -18.7920  -15.5855 C   0  0  0  0  0  0  0  0  0  0  0  0
   20.9516  -21.8339  -13.1850 C   0  0  0  0  0  0  0  0  0  0  0  0
   19.5685  -21.7475  -13.2095 O   0  0  0  0  0  0  0  0  0  0  0  0
   21.4667  -22.8749  -13.7044 O   0  0  0  0  0  0  0  0  0  0  0  0
  2  1  1  1
  2  3  1  0
  4  2  1  0
  4  5  1  6
  6  4  1  0
  6  7  2  0
  8  6  1  0
  9  8  1  0
  9 10  1  1
 10 11  1  0
 11 12  2  0
 12 13  1  0
 14 13  2  0
 15 14  1  0
 16 11  1  0
 16 15  2  0
 17  9  1  0
 18 17  2  0
 19 17  1  0
 20 21  1  6
 20 19  1  0
 21 22  1  0
 22 30  1  0
 23 22  2  0
 23 24  1  0
 24 25  1  0
 25 26  1  0
 26 27  2  0
 28 27  1  0
 29 28  2  0
 30 25  2  0
 30 29  1  0
 31 32  1  0
 31 20  1  0
 33 31  2  0
M  END
$$$$
