TFW.pdb
     RDKit          3D

 33 35  0  0  1  0  0  0  0  0999 V2000
   29.0331  -19.2676  -15.0731 C   0  0  0  0  0  0  0  0  0  0  0  0
   28.3262  -19.6523  -13.7924 C   0  0  1  0  0  0  0  0  0  0  0  0
   26.9707  -19.9084  -14.0787 O   0  0  0  0  0  0  0  0  0  0  0  0
   28.9835  -20.8970  -13.2617 C   0  0  2  0  0  0  0  0  0  0  0  0
   28.7959  -21.9630  -14.2235 N   0  0  0  0  0  0  0  0  0  0  0  0
   28.4847  -21.2902  -11.9375 C   0  0  0  0  0  0  0  0  0  0  0  0
   27.5852  -22.1637  -11.7868 O   0  0  0  0  0  0  0  0  0  0  0  0
   29.0357  -20.6638  -10.7897 N   0  0  0  0  0  0  0  0  0  0  0  0
   28.4750  -20.8587   -9.4720 C   0  0  1  0  0  0  0  0  0  0  0  0
   29.4741  -20.2564   -8.4956 C   0  0  0  0  0  0  0  0  0  0  0  0
   28.8950  -20.1198   -7.1496 C   0  0  0  0  0  0  0  0  0  0  0  0
   29.1682  -21.0735   -6.1759 C   0  0  0  0  0  0  0  0  0  0  0  0
   28.6552  -20.9965   -4.9014 C   0  0  0  0  0  0  0  0  0  0  0  0
   27.8351  -19.9458   -4.5433 C   0  0  0  0  0  0  0  0  0  0  0  0
   27.5549  -18.9944   -5.4939 C   0  0  0  0  0  0  0  0  0  0  0  0
   28.0776  -19.0829   -6.7748 C   0  0  0  0  0  0  0  0  0  0  0  0
   27.1532  -20.2035   -9.4198 C   0  0  0  0  0  0  0  0  0  0  0  0
   27.0391  -19.0206   -9.8191 O   0  0  0  0  0  0  0  0  0  0  0  0
   25.9693  -20.8588   -8.9306 N   0  0  0  0  0  0  0  0  0  0  0  0
   24.6718  -20.2985   -9.2265 C   0  0  1  0  0  0  0  0  0  0  0  0
   24.3421  -20.4473  -10.7092 C   0  0  0  0  0  0  0  0  0  0  0  0
   22.9946  -19.9223  -10.9789 C   0  0  0  0  0  0  0  0  0  0  0  0
   22.1963  -19.1098  -10.1822 C   0  0  0  0  0  0  0  0  0  0  0  0
   21.0640  -18.8997  -10.8382 N   0  0  0  0  0  0  0  0  0  0  0  0
   21.0664  -19.5201  -12.0119 C   0  0  0  0  0  0  0  0  0  0  0  0
   20.1412  -19.6130  -13.0490 C   0  0  0  0  0  0  0  0  0  0  0  0
   20.4485  -20.3500  -14.1595 C   0  0  0  0  0  0  0  0  0  0  0  0
   21.6438  -21.0076  -14.2929 C   0  0  0  0  0  0  0  0  0  0  0  0
   22.5705  -20.9257  -13.2751 C   0  0  0  0  0  0  0  0  0  0  0  0
   22.2713  -20.1787  -12.1381 C   0  0  0  0  0  0  0  0  0  0  0  0
   23.6489  -21.0673   -8.4852 C   0  0  0  0  0  0  0  0  0  0  0  0
   22.4635  -20.4877   -8.0611 O   0  0  0  0  0  0  0  0  0  0  0  0
   23.8146  -22.2971   -8.2040 O   0  0  0  0  0  0  0  0  0  0  0  0
  2  1  1  6
  2  3  1  0
  4  2  1  0
  4  5  1  6
  6  4  1  0
  6  7  2  0
  8  6  1  0
  9  8  1  0
  9 10  1  1
 10 11  1  0
 11 12  2  0
 12 13  1  0
 14 13  2  0
 15 14  1  0
 16 11  1  0
 16 15  2  0
 17  9  1  0
 18 17  2  0
 19 17  1  0
 20 21  1  6
 20 19  1  0
 21 22  1  0
 22 30  1  0
 23 22  2  0
 23 24  1  0
 24 25  1  0
 25 26  1  0
 26 27  2  0
 28 27  1  0
 29 28  2  0
 30 25  2  0
 30 29  1  0
 31 32  1  0
 31 20  1  0
 33 31  2  0
M  END
$$$$
