TFW.pdb
     RDKit          3D

 33 35  0  0  1  0  0  0  0  0999 V2000
   26.5879  -20.7077  -17.8389 C   0  0  0  0  0  0  0  0  0  0  0  0
   27.7511  -21.6746  -17.8484 C   0  0  1  0  0  0  0  0  0  0  0  0
   28.6044  -21.3511  -18.9219 O   0  0  0  0  0  0  0  0  0  0  0  0
   28.4852  -21.5219  -16.5443 C   0  0  2  0  0  0  0  0  0  0  0  0
   29.5993  -22.4468  -16.5316 N   0  0  0  0  0  0  0  0  0  0  0  0
   27.6227  -21.7221  -15.3726 C   0  0  0  0  0  0  0  0  0  0  0  0
   27.3883  -22.8673  -14.8945 O   0  0  0  0  0  0  0  0  0  0  0  0
   27.0339  -20.5859  -14.7595 N   0  0  0  0  0  0  0  0  0  0  0  0
   26.1497  -20.7059  -13.6226 C   0  0  1  0  0  0  0  0  0  0  0  0
   26.6472  -19.7013  -12.5941 C   0  0  0  0  0  0  0  0  0  0  0  0
   27.5681  -20.3279  -11.6323 C   0  0  0  0  0  0  0  0  0  0  0  0
   27.0761  -20.8650  -10.4483 C   0  0  0  0  0  0  0  0  0  0  0  0
   27.8898  -21.4632   -9.5138 C   0  0  0  0  0  0  0  0  0  0  0  0
   29.2503  -21.5499   -9.7287 C   0  0  0  0  0  0  0  0  0  0  0  0
   29.7531  -21.0239  -10.8940 C   0  0  0  0  0  0  0  0  0  0  0  0
   28.9232  -20.4235  -11.8281 C   0  0  0  0  0  0  0  0  0  0  0  0
   24.7685  -20.4364  -14.0684 C   0  0  0  0  0  0  0  0  0  0  0  0
   24.5418  -19.4393  -14.7936 O   0  0  0  0  0  0  0  0  0  0  0  0
   23.6506  -21.2698  -13.7129 N   0  0  0  0  0  0  0  0  0  0  0  0
   22.3303  -20.9309  -14.1891 C   0  0  1  0  0  0  0  0  0  0  0  0
   21.8831  -21.8980  -15.2818 C   0  0  0  0  0  0  0  0  0  0  0  0
   22.2213  -23.2778  -14.9000 C   0  0  0  0  0  0  0  0  0  0  0  0
   21.7617  -24.0254  -13.8220 C   0  0  0  0  0  0  0  0  0  0  0  0
   22.3471  -25.2128  -13.8837 N   0  0  0  0  0  0  0  0  0  0  0  0
   23.1600  -25.2939  -14.9301 C   0  0  0  0  0  0  0  0  0  0  0  0
   23.9857  -26.2998  -15.4269 C   0  0  0  0  0  0  0  0  0  0  0  0
   24.7196  -26.0693  -16.5578 C   0  0  0  0  0  0  0  0  0  0  0  0
   24.6738  -24.8746  -17.2283 C   0  0  0  0  0  0  0  0  0  0  0  0
   23.8614  -23.8686  -16.7495 C   0  0  0  0  0  0  0  0  0  0  0  0
   23.1082  -24.0891  -15.5987 C   0  0  0  0  0  0  0  0  0  0  0  0
   21.3749  -21.0832  -13.0707 C   0  0  0  0  0  0  0  0  0  0  0  0
   20.0461  -20.7069  -13.1876 O   0  0  0  0  0  0  0  0  0  0  0  0
   21.7336  -21.5672  -11.9500 O   0  0  0  0  0  0  0  0  0  0  0  0
  2  1  1  1
  2  3  1  0
  4  2  1  0
  4  5  1  6
  6  4  1  0
  6  7  2  0
  8  6  1  0
  9  8  1  0
  9 10  1  1
 10 11  1  0
 11 12  2  0
 12 13  1  0
 14 13  2  0
 15 14  1  0
 16 11  1  0
 16 15  2  0
 17  9  1  0
 18 17  2  0
 19 17  1  0
 20 21  1  6
 20 19  1  0
 21 22  1  0
 22 30  1  0
 23 22  2  0
 23 24  1  0
 24 25  1  0
 25 26  1  0
 26 27  2  0
 28 27  1  0
 29 28  2  0
 30 25  2  0
 30 29  1  0
 31 32  1  0
 31 20  1  0
 33 31  2  0
M  END
$$$$
