TFW.pdb
     RDKit          3D

 33 35  0  0  1  0  0  0  0  0999 V2000
   25.5280  -21.7752  -18.5291 C   0  0  0  0  0  0  0  0  0  0  0  0
   26.8293  -22.5195  -18.7311 C   0  0  1  0  0  0  0  0  0  0  0  0
   27.4335  -22.0672  -19.9208 O   0  0  0  0  0  0  0  0  0  0  0  0
   27.7181  -22.2166  -17.5558 C   0  0  2  0  0  0  0  0  0  0  0  0
   28.9496  -22.9635  -17.7049 N   0  0  0  0  0  0  0  0  0  0  0  0
   27.0813  -22.5055  -16.2643 C   0  0  0  0  0  0  0  0  0  0  0  0
   26.9159  -23.6841  -15.8417 O   0  0  0  0  0  0  0  0  0  0  0  0
   26.6376  -21.4191  -15.4668 N   0  0  0  0  0  0  0  0  0  0  0  0
   26.0453  -21.6220  -14.1641 C   0  0  1  0  0  0  0  0  0  0  0  0
   26.6665  -20.5756  -13.2511 C   0  0  0  0  0  0  0  0  0  0  0  0
   26.1335  -20.6714  -11.8828 C   0  0  0  0  0  0  0  0  0  0  0  0
   25.0417  -19.8972  -11.5069 C   0  0  0  0  0  0  0  0  0  0  0  0
   24.5012  -19.9463  -10.2426 C   0  0  0  0  0  0  0  0  0  0  0  0
   25.0390  -20.7849   -9.2875 C   0  0  0  0  0  0  0  0  0  0  0  0
   26.1185  -21.5569   -9.6425 C   0  0  0  0  0  0  0  0  0  0  0  0
   26.6544  -21.4987  -10.9196 C   0  0  0  0  0  0  0  0  0  0  0  0
   24.5806  -21.4832  -14.2849 C   0  0  0  0  0  0  0  0  0  0  0  0
   24.1036  -20.4460  -14.8030 O   0  0  0  0  0  0  0  0  0  0  0  0
   23.6555  -22.4898  -13.8359 N   0  0  0  0  0  0  0  0  0  0  0  0
   22.2386  -22.2120  -13.8512 C   0  0  1  0  0  0  0  0  0  0  0  0
   21.4413  -23.4353  -13.4072 C   0  0  0  0  0  0  0  0  0  0  0  0
   20.0009  -23.1407  -13.4572 C   0  0  0  0  0  0  0  0  0  0  0  0
   19.2335  -22.7048  -14.5311 C   0  0  0  0  0  0  0  0  0  0  0  0
   17.9872  -22.5713  -14.1004 N   0  0  0  0  0  0  0  0  0  0  0  0
   17.8860  -22.8905  -12.8158 C   0  0  0  0  0  0  0  0  0  0  0  0
   16.8235  -22.9173  -11.9155 C   0  0  0  0  0  0  0  0  0  0  0  0
   17.0478  -23.3032  -10.6227 C   0  0  0  0  0  0  0  0  0  0  0  0
   18.2904  -23.6684  -10.1737 C   0  0  0  0  0  0  0  0  0  0  0  0
   19.3529  -23.6472  -11.0525 C   0  0  0  0  0  0  0  0  0  0  0  0
   19.1394  -23.2563  -12.3723 C   0  0  0  0  0  0  0  0  0  0  0  0
   21.9595  -21.1436  -12.8677 C   0  0  0  0  0  0  0  0  0  0  0  0
   22.5691  -21.1179  -11.6232 O   0  0  0  0  0  0  0  0  0  0  0  0
   21.1450  -20.2001  -13.1229 O   0  0  0  0  0  0  0  0  0  0  0  0
  2  1  1  1
  2  3  1  0
  4  2  1  0
  4  5  1  6
  6  4  1  0
  6  7  2  0
  8  6  1  0
  9  8  1  0
  9 10  1  1
 10 11  1  0
 11 12  2  0
 12 13  1  0
 14 13  2  0
 15 14  1  0
 16 11  1  0
 16 15  2  0
 17  9  1  0
 18 17  2  0
 19 17  1  0
 20 21  1  1
 20 19  1  0
 21 22  1  0
 22 30  1  0
 23 22  2  0
 23 24  1  0
 24 25  1  0
 25 26  1  0
 26 27  2  0
 28 27  1  0
 29 28  2  0
 30 25  2  0
 30 29  1  0
 31 32  1  0
 31 20  1  0
 33 31  2  0
M  END
$$$$
