IEY.pdb
     RDKit          3D

 30 30  0  0  1  0  0  0  0  0999 V2000
   16.7439  -13.3029  -19.2095 C   0  0  0  0  0  0  0  0  0  0  0  0
   18.1206  -12.8818  -18.8393 C   0  0  0  0  0  0  0  0  0  0  0  0
   18.1624  -11.5735  -18.0688 C   0  0  2  0  0  0  0  0  0  0  0  0
   17.5199  -10.5126  -18.8836 C   0  0  0  0  0  0  0  0  0  0  0  0
   19.6207  -11.3414  -17.7407 C   0  0  2  0  0  0  0  0  0  0  0  0
   19.9904  -12.5037  -16.9075 N   0  0  0  0  0  0  0  0  0  0  0  0
   19.8945  -10.1125  -17.0067 C   0  0  0  0  0  0  0  0  0  0  0  0
   19.6269  -10.0532  -15.7830 O   0  0  0  0  0  0  0  0  0  0  0  0
   20.4554   -8.9759  -17.6223 N   0  0  0  0  0  0  0  0  0  0  0  0
   20.7445   -7.7956  -16.8018 C   0  0  1  0  0  0  0  0  0  0  0  0
   22.2120   -7.5410  -16.8380 C   0  0  0  0  0  0  0  0  0  0  0  0
   22.6452   -6.2973  -16.1248 C   0  0  0  0  0  0  0  0  0  0  0  0
   24.1288   -6.2006  -16.3777 C   0  0  0  0  0  0  0  0  0  0  0  0
   24.7134   -7.0973  -17.0008 O   0  0  0  0  0  0  0  0  0  0  0  0
   19.9228   -6.6562  -17.2462 C   0  0  0  0  0  0  0  0  0  0  0  0
   19.5606   -6.6133  -18.4777 O   0  0  0  0  0  0  0  0  0  0  0  0
   24.8139   -5.1062  -15.9032 O   0  0  0  0  0  0  0  0  0  0  0  0
   14.1359   -0.9646  -19.6906 O   0  0  0  0  0  0  0  0  0  0  0  0
   14.9066   -1.9826  -19.1228 C   0  0  0  0  0  0  0  0  0  0  0  0
   14.6770   -2.5148  -17.8903 C   0  0  0  0  0  0  0  0  0  0  0  0
   15.4726   -3.5177  -17.3825 C   0  0  0  0  0  0  0  0  0  0  0  0
   16.5282   -4.0195  -18.1029 C   0  0  0  0  0  0  0  0  0  0  0  0
   17.3745   -5.0781  -17.5189 C   0  0  0  0  0  0  0  0  0  0  0  0
   18.6887   -4.4783  -17.0510 C   0  0  2  0  0  0  0  0  0  0  0  0
   19.4694   -5.5817  -16.4568 N   0  0  0  0  0  0  0  0  0  0  0  0
   18.4419   -3.4788  -16.0173 C   0  0  0  0  0  0  0  0  0  0  0  0
   18.1836   -2.1485  -16.3406 O   0  0  0  0  0  0  0  0  0  0  0  0
   16.7713   -3.4916  -19.3488 C   0  0  0  0  0  0  0  0  0  0  0  0
   15.9697   -2.4850  -19.8517 C   0  0  0  0  0  0  0  0  0  0  0  0
   18.4562   -3.7857  -14.8138 O   0  0  0  0  0  0  0  0  0  0  0  0
  2  1  1  0
  2  3  1  0
  3  5  1  0
  3  4  1  6
  5  6  1  1
  7  8  2  0
  7  5  1  0
  9  7  1  0
 10  9  1  0
 10 11  1  6
 12 13  1  0
 12 11  1  0
 13 14  2  0
 15 16  2  0
 15 10  1  0
 17 13  1  0
 18 19  1  0
 19 20  2  0
 20 21  1  0
 22 23  1  0
 22 21  2  0
 24 23  1  1
 24 25  1  0
 25 15  1  0
 26 24  1  0
 27 26  1  0
 28 22  1  0
 29 28  2  0
 29 19  1  0
 30 26  2  0
M  END
$$$$
