IEY.pdb
     RDKit          3D

 30 30  0  0  1  0  0  0  0  0999 V2000
   26.9610  -14.0378  -16.2029 C   0  0  0  0  0  0  0  0  0  0  0  0
   26.9211  -15.4245  -15.6688 C   0  0  0  0  0  0  0  0  0  0  0  0
   25.5857  -16.1146  -15.8869 C   0  0  2  0  0  0  0  0  0  0  0  0
   24.5201  -15.3258  -15.2202 C   0  0  0  0  0  0  0  0  0  0  0  0
   25.7666  -17.5237  -15.3675 C   0  0  2  0  0  0  0  0  0  0  0  0
   26.9662  -18.0157  -16.0753 N   0  0  0  0  0  0  0  0  0  0  0  0
   24.6480  -18.4205  -15.6290 C   0  0  0  0  0  0  0  0  0  0  0  0
   24.4811  -18.8762  -16.7853 O   0  0  0  0  0  0  0  0  0  0  0  0
   23.7369  -18.8019  -14.6241 N   0  0  0  0  0  0  0  0  0  0  0  0
   22.5848  -19.6318  -14.9900 C   0  0  1  0  0  0  0  0  0  0  0  0
   23.0081  -21.0602  -14.9828 C   0  0  0  0  0  0  0  0  0  0  0  0
   23.9070  -21.4366  -13.8453 C   0  0  0  0  0  0  0  0  0  0  0  0
   24.1471  -22.9161  -14.0125 C   0  0  0  0  0  0  0  0  0  0  0  0
   23.6755  -23.5166  -14.9878 O   0  0  0  0  0  0  0  0  0  0  0  0
   21.4453  -19.3351  -14.1044 C   0  0  0  0  0  0  0  0  0  0  0  0
   21.6663  -19.2399  -12.8427 O   0  0  0  0  0  0  0  0  0  0  0  0
   24.8923  -23.5796  -13.0656 O   0  0  0  0  0  0  0  0  0  0  0  0
   20.3808  -12.8118  -15.0130 O   0  0  0  0  0  0  0  0  0  0  0  0
   19.8215  -14.0807  -14.8405 C   0  0  0  0  0  0  0  0  0  0  0  0
   19.6961  -15.0000  -15.8377 C   0  0  0  0  0  0  0  0  0  0  0  0
   19.1347  -16.2363  -15.6070 C   0  0  0  0  0  0  0  0  0  0  0  0
   18.6809  -16.5880  -14.3599 C   0  0  0  0  0  0  0  0  0  0  0  0
   18.0635  -17.9125  -14.1532 C   0  0  0  0  0  0  0  0  0  0  0  0
   19.0627  -18.8406  -13.4854 C   0  0  2  0  0  0  0  0  0  0  0  0
   20.1059  -19.1315  -14.4890 N   0  0  0  0  0  0  0  0  0  0  0  0
   18.4127  -20.0943  -13.1188 C   0  0  0  0  0  0  0  0  0  0  0  0
   18.7627  -21.2983  -13.7262 O   0  0  0  0  0  0  0  0  0  0  0  0
   18.8015  -15.6698  -13.3438 C   0  0  0  0  0  0  0  0  0  0  0  0
   19.3650  -14.4310  -13.5824 C   0  0  0  0  0  0  0  0  0  0  0  0
   17.5238  -20.1247  -12.2517 O   0  0  0  0  0  0  0  0  0  0  0  0
  2  1  1  0
  2  3  1  0
  3  5  1  0
  3  4  1  1
  5  6  1  6
  7  8  2  0
  7  5  1  0
  9  7  1  0
 10  9  1  0
 10 11  1  1
 12 13  1  0
 12 11  1  0
 13 14  2  0
 15 16  2  0
 15 10  1  0
 17 13  1  0
 18 19  1  0
 19 20  2  0
 20 21  1  0
 22 23  1  0
 22 21  2  0
 24 23  1  6
 24 25  1  0
 25 15  1  0
 26 24  1  0
 27 26  1  0
 28 22  1  0
 29 28  2  0
 29 19  1  0
 30 26  2  0
M  END
$$$$
