IEY.pdb
     RDKit          3D

 30 30  0  0  1  0  0  0  0  0999 V2000
   29.7051  -13.1166  -16.7584 C   0  0  0  0  0  0  0  0  0  0  0  0
   28.3753  -13.7187  -16.4781 C   0  0  0  0  0  0  0  0  0  0  0  0
   27.2225  -12.7501  -16.6778 C   0  0  2  0  0  0  0  0  0  0  0  0
   27.3986  -11.5950  -15.7629 C   0  0  0  0  0  0  0  0  0  0  0  0
   25.9659  -13.5625  -16.4571 C   0  0  2  0  0  0  0  0  0  0  0  0
   26.1526  -14.7518  -17.3132 N   0  0  0  0  0  0  0  0  0  0  0  0
   24.7283  -12.8882  -16.8281 C   0  0  0  0  0  0  0  0  0  0  0  0
   24.4413  -12.7507  -18.0410 O   0  0  0  0  0  0  0  0  0  0  0  0
   23.8301  -12.3799  -15.8687 N   0  0  0  0  0  0  0  0  0  0  0  0
   22.6423  -11.6517  -16.3257 C   0  0  1  0  0  0  0  0  0  0  0  0
   21.4304  -12.3705  -15.8419 C   0  0  0  0  0  0  0  0  0  0  0  0
   21.1899  -13.6954  -16.4977 C   0  0  0  0  0  0  0  0  0  0  0  0
   19.8705  -14.1704  -15.9425 C   0  0  0  0  0  0  0  0  0  0  0  0
   19.0873  -13.3635  -15.4232 O   0  0  0  0  0  0  0  0  0  0  0  0
   22.7181  -10.2426  -15.9021 C   0  0  0  0  0  0  0  0  0  0  0  0
   23.1406   -9.9874  -14.7163 O   0  0  0  0  0  0  0  0  0  0  0  0
   19.5592  -15.5080  -16.0217 O   0  0  0  0  0  0  0  0  0  0  0  0
   21.5537   -1.5650  -15.0822 O   0  0  0  0  0  0  0  0  0  0  0  0
   21.6898   -2.8489  -15.6167 C   0  0  0  0  0  0  0  0  0  0  0  0
   20.6456   -3.6078  -16.0514 C   0  0  0  0  0  0  0  0  0  0  0  0
   20.8420   -4.8690  -16.5689 C   0  0  0  0  0  0  0  0  0  0  0  0
   22.1011   -5.4078  -16.6665 C   0  0  0  0  0  0  0  0  0  0  0  0
   22.2732   -6.7712  -17.2046 C   0  0  0  0  0  0  0  0  0  0  0  0
   22.3395   -7.7653  -16.0587 C   0  0  2  0  0  0  0  0  0  0  0  0
   22.3787   -9.1101  -16.6673 N   0  0  0  0  0  0  0  0  0  0  0  0
   21.1367   -7.6645  -15.2393 C   0  0  0  0  0  0  0  0  0  0  0  0
   21.1399   -6.9798  -14.0260 O   0  0  0  0  0  0  0  0  0  0  0  0
   23.1644   -4.6525  -16.2317 C   0  0  0  0  0  0  0  0  0  0  0  0
   22.9600   -3.3884  -15.7129 C   0  0  0  0  0  0  0  0  0  0  0  0
   20.0704   -8.1894  -15.6005 O   0  0  0  0  0  0  0  0  0  0  0  0
  2  1  1  0
  2  3  1  0
  3  5  1  0
  3  4  1  1
  5  6  1  6
  7  8  2  0
  7  5  1  0
  9  7  1  0
 10  9  1  0
 10 11  1  1
 12 13  1  0
 12 11  1  0
 13 14  2  0
 15 16  2  0
 15 10  1  0
 17 13  1  0
 18 19  1  0
 19 20  2  0
 20 21  1  0
 22 23  1  0
 22 21  2  0
 24 23  1  6
 24 25  1  0
 25 15  1  0
 26 24  1  0
 27 26  1  0
 28 22  1  0
 29 28  2  0
 29 19  1  0
 30 26  2  0
M  END
$$$$
