IEY.pdb
     RDKit          3D

 30 30  0  0  1  0  0  0  0  0999 V2000
   26.3216  -13.8176  -17.4226 C   0  0  0  0  0  0  0  0  0  0  0  0
   25.2053  -12.8778  -17.7061 C   0  0  0  0  0  0  0  0  0  0  0  0
   24.6142  -12.2515  -16.4550 C   0  0  2  0  0  0  0  0  0  0  0  0
   24.2349  -13.3297  -15.5084 C   0  0  0  0  0  0  0  0  0  0  0  0
   23.4726  -11.3832  -16.9354 C   0  0  2  0  0  0  0  0  0  0  0  0
   24.1014  -10.4734  -17.9146 N   0  0  0  0  0  0  0  0  0  0  0  0
   22.8205  -10.5988  -15.8945 C   0  0  0  0  0  0  0  0  0  0  0  0
   22.2848  -11.1863  -14.9248 O   0  0  0  0  0  0  0  0  0  0  0  0
   22.7681   -9.1912  -15.9328 N   0  0  0  0  0  0  0  0  0  0  0  0
   22.0018   -8.4824  -14.9031 C   0  0  1  0  0  0  0  0  0  0  0  0
   22.4701   -7.0690  -14.8527 C   0  0  0  0  0  0  0  0  0  0  0  0
   21.7490   -6.2099  -13.8601 C   0  0  0  0  0  0  0  0  0  0  0  0
   22.3253   -4.8291  -14.0494 C   0  0  0  0  0  0  0  0  0  0  0  0
   21.9638   -3.8982  -13.3166 O   0  0  0  0  0  0  0  0  0  0  0  0
   20.5577   -8.6314  -15.1541 C   0  0  0  0  0  0  0  0  0  0  0  0
   20.1511   -8.6380  -16.3724 O   0  0  0  0  0  0  0  0  0  0  0  0
   23.2511   -4.6264  -15.0464 O   0  0  0  0  0  0  0  0  0  0  0  0
   18.5086  -15.0586  -16.0455 O   0  0  0  0  0  0  0  0  0  0  0  0
   18.3034  -13.8065  -15.4602 C   0  0  0  0  0  0  0  0  0  0  0  0
   19.1897  -13.2041  -14.6193 C   0  0  0  0  0  0  0  0  0  0  0  0
   18.9315  -11.9671  -14.0715 C   0  0  0  0  0  0  0  0  0  0  0  0
   17.7687  -11.2943  -14.3547 C   0  0  0  0  0  0  0  0  0  0  0  0
   17.5139   -9.9808  -13.7320 C   0  0  0  0  0  0  0  0  0  0  0  0
   18.1247   -8.8852  -14.5878 C   0  0  2  0  0  0  0  0  0  0  0  0
   19.5424   -8.7782  -14.1892 N   0  0  0  0  0  0  0  0  0  0  0  0
   17.4700   -7.6112  -14.3107 C   0  0  0  0  0  0  0  0  0  0  0  0
   16.1388   -7.3887  -14.6561 O   0  0  0  0  0  0  0  0  0  0  0  0
   16.8653  -11.8905  -15.2023 C   0  0  0  0  0  0  0  0  0  0  0  0
   17.1303  -13.1319  -15.7477 C   0  0  0  0  0  0  0  0  0  0  0  0
   18.0834   -6.6834  -13.7576 O   0  0  0  0  0  0  0  0  0  0  0  0
  2  1  1  0
  2  3  1  0
  3  5  1  0
  3  4  1  1
  5  6  1  6
  7  8  2  0
  7  5  1  0
  9  7  1  0
 10  9  1  0
 10 11  1  6
 12 13  1  0
 12 11  1  0
 13 14  2  0
 15 16  2  0
 15 10  1  0
 17 13  1  0
 18 19  1  0
 19 20  2  0
 20 21  1  0
 22 23  1  0
 22 21  2  0
 24 23  1  1
 24 25  1  0
 25 15  1  0
 26 24  1  0
 27 26  1  0
 28 22  1  0
 29 28  2  0
 29 19  1  0
 30 26  2  0
M  END
$$$$
