IEY.pdb
     RDKit          3D

 30 30  0  0  1  0  0  0  0  0999 V2000
   24.5124  -12.5990  -15.6721 C   0  0  0  0  0  0  0  0  0  0  0  0
   23.4719  -12.2194  -16.6634 C   0  0  0  0  0  0  0  0  0  0  0  0
   23.3141  -10.7173  -16.8241 C   0  0  2  0  0  0  0  0  0  0  0  0
   22.9101  -10.1323  -15.5215 C   0  0  0  0  0  0  0  0  0  0  0  0
   22.3221  -10.5309  -17.9508 C   0  0  2  0  0  0  0  0  0  0  0  0
   22.8337  -11.4037  -19.0272 N   0  0  0  0  0  0  0  0  0  0  0  0
   22.2093   -9.1653  -18.4469 C   0  0  0  0  0  0  0  0  0  0  0  0
   23.1221   -8.6936  -19.1659 O   0  0  0  0  0  0  0  0  0  0  0  0
   21.1034   -8.3443  -18.1496 N   0  0  0  0  0  0  0  0  0  0  0  0
   21.0937   -6.9629  -18.6414 C   0  0  1  0  0  0  0  0  0  0  0  0
   19.9089   -6.7833  -19.5266 C   0  0  0  0  0  0  0  0  0  0  0  0
   19.7662   -5.4084  -20.1033 C   0  0  0  0  0  0  0  0  0  0  0  0
   18.6938   -4.7479  -19.2737 C   0  0  0  0  0  0  0  0  0  0  0  0
   18.8877   -3.6266  -18.7846 O   0  0  0  0  0  0  0  0  0  0  0  0
   21.1499   -6.0218  -17.5092 C   0  0  0  0  0  0  0  0  0  0  0  0
   20.2546   -6.1203  -16.5935 O   0  0  0  0  0  0  0  0  0  0  0  0
   17.5067   -5.4128  -19.0710 O   0  0  0  0  0  0  0  0  0  0  0  0
   20.6823   -8.7723  -12.1746 O   0  0  0  0  0  0  0  0  0  0  0  0
   21.2207   -7.6897  -12.8752 C   0  0  0  0  0  0  0  0  0  0  0  0
   20.8204   -6.3986  -12.7073 C   0  0  0  0  0  0  0  0  0  0  0  0
   21.3887   -5.3720  -13.4284 C   0  0  0  0  0  0  0  0  0  0  0  0
   22.3827   -5.6135  -14.3442 C   0  0  0  0  0  0  0  0  0  0  0  0
   22.9533   -4.4927  -15.1164 C   0  0  0  0  0  0  0  0  0  0  0  0
   21.9638   -4.0527  -16.1808 C   0  0  2  0  0  0  0  0  0  0  0  0
   22.0996   -5.0026  -17.3031 N   0  0  0  0  0  0  0  0  0  0  0  0
   22.3070   -2.7187  -16.6614 C   0  0  0  0  0  0  0  0  0  0  0  0
   22.3049   -1.6169  -15.8087 O   0  0  0  0  0  0  0  0  0  0  0  0
   22.7966   -6.9122  -14.5237 C   0  0  0  0  0  0  0  0  0  0  0  0
   22.2216   -7.9373  -13.7975 C   0  0  0  0  0  0  0  0  0  0  0  0
   22.6114   -2.5252  -17.8501 O   0  0  0  0  0  0  0  0  0  0  0  0
  2  1  1  0
  2  3  1  0
  3  5  1  0
  3  4  1  1
  5  6  1  6
  7  8  2  0
  7  5  1  0
  9  7  1  0
 10  9  1  0
 10 11  1  1
 12 13  1  0
 12 11  1  0
 13 14  2  0
 15 16  2  0
 15 10  1  0
 17 13  1  0
 18 19  1  0
 19 20  2  0
 20 21  1  0
 22 23  1  0
 22 21  2  0
 24 23  1  1
 24 25  1  0
 25 15  1  0
 26 24  1  0
 27 26  1  0
 28 22  1  0
 29 28  2  0
 29 19  1  0
 30 26  2  0
M  END
$$$$
