IEY.pdb
     RDKit          3D

 30 30  0  0  1  0  0  0  0  0999 V2000
   27.9237  -12.6156  -14.9030 C   0  0  0  0  0  0  0  0  0  0  0  0
   27.5420  -11.5548  -15.8719 C   0  0  0  0  0  0  0  0  0  0  0  0
   26.0643  -11.2060  -15.8301 C   0  0  2  0  0  0  0  0  0  0  0  0
   25.2708  -12.4364  -16.0724 C   0  0  0  0  0  0  0  0  0  0  0  0
   25.8772  -10.1058  -16.8513 C   0  0  2  0  0  0  0  0  0  0  0  0
   26.9606   -9.1481  -16.5493 N   0  0  0  0  0  0  0  0  0  0  0  0
   24.5926   -9.4209  -16.7843 C   0  0  0  0  0  0  0  0  0  0  0  0
   23.5568  -10.0152  -17.1672 O   0  0  0  0  0  0  0  0  0  0  0  0
   24.4650   -8.1038  -16.3000 N   0  0  0  0  0  0  0  0  0  0  0  0
   23.1535   -7.4508  -16.3595 C   0  0  1  0  0  0  0  0  0  0  0  0
   23.0185   -6.5502  -15.1804 C   0  0  0  0  0  0  0  0  0  0  0  0
   21.7627   -5.7341  -15.1618 C   0  0  0  0  0  0  0  0  0  0  0  0
   21.8829   -4.8633  -13.9363 C   0  0  0  0  0  0  0  0  0  0  0  0
   22.9370   -4.8464  -13.2861 O   0  0  0  0  0  0  0  0  0  0  0  0
   22.9824   -6.7756  -17.6578 C   0  0  0  0  0  0  0  0  0  0  0  0
   24.0046   -6.2014  -18.1824 O   0  0  0  0  0  0  0  0  0  0  0  0
   20.8052   -4.0969  -13.5574 O   0  0  0  0  0  0  0  0  0  0  0  0
   20.0541   -3.2414  -25.1431 O   0  0  0  0  0  0  0  0  0  0  0  0
   20.1595   -4.0073  -23.9791 C   0  0  0  0  0  0  0  0  0  0  0  0
   19.4434   -3.7717  -22.8446 C   0  0  0  0  0  0  0  0  0  0  0  0
   19.5910   -4.5617  -21.7262 C   0  0  0  0  0  0  0  0  0  0  0  0
   20.4669   -5.6190  -21.7148 C   0  0  0  0  0  0  0  0  0  0  0  0
   20.6170   -6.4308  -20.4915 C   0  0  0  0  0  0  0  0  0  0  0  0
   21.7391   -5.8641  -19.6397 C   0  0  2  0  0  0  0  0  0  0  0  0
   21.7989   -6.6883  -18.4161 N   0  0  0  0  0  0  0  0  0  0  0  0
   21.4307   -4.4906  -19.2563 C   0  0  0  0  0  0  0  0  0  0  0  0
   21.7563   -3.4160  -20.0811 O   0  0  0  0  0  0  0  0  0  0  0  0
   21.1960   -5.8685  -22.8533 C   0  0  0  0  0  0  0  0  0  0  0  0
   21.0436   -5.0714  -23.9715 C   0  0  0  0  0  0  0  0  0  0  0  0
   20.8676   -4.2382  -18.1783 O   0  0  0  0  0  0  0  0  0  0  0  0
  2  1  1  0
  2  3  1  0
  3  5  1  0
  3  4  1  6
  5  6  1  1
  7  8  2  0
  7  5  1  0
  9  7  1  0
 10  9  1  0
 10 11  1  1
 12 13  1  0
 12 11  1  0
 13 14  2  0
 15 16  2  0
 15 10  1  0
 17 13  1  0
 18 19  1  0
 19 20  2  0
 20 21  1  0
 22 23  1  0
 22 21  2  0
 24 23  1  6
 24 25  1  0
 25 15  1  0
 26 24  1  0
 27 26  1  0
 28 22  1  0
 29 28  2  0
 29 19  1  0
 30 26  2  0
M  END
$$$$
