IEY.pdb
     RDKit          3D

 30 30  0  0  1  0  0  0  0  0999 V2000
   22.3868  -13.6117  -21.4546 C   0  0  0  0  0  0  0  0  0  0  0  0
   23.0623  -12.5579  -20.6529 C   0  0  0  0  0  0  0  0  0  0  0  0
   22.8832  -11.1615  -21.2229 C   0  0  2  0  0  0  0  0  0  0  0  0
   23.5000  -11.1077  -22.5715 C   0  0  0  0  0  0  0  0  0  0  0  0
   23.4858  -10.2244  -20.1997 C   0  0  2  0  0  0  0  0  0  0  0  0
   24.8864  -10.6781  -20.0787 N   0  0  0  0  0  0  0  0  0  0  0  0
   22.8503  -10.2594  -18.8887 C   0  0  0  0  0  0  0  0  0  0  0  0
   23.1736  -11.1536  -18.0710 O   0  0  0  0  0  0  0  0  0  0  0  0
   21.8775   -9.3182  -18.4973 N   0  0  0  0  0  0  0  0  0  0  0  0
   21.2632   -9.4435  -17.1718 C   0  0  1  0  0  0  0  0  0  0  0  0
   20.9291   -8.0798  -16.6734 C   0  0  0  0  0  0  0  0  0  0  0  0
   20.1726   -8.0581  -15.3809 C   0  0  0  0  0  0  0  0  0  0  0  0
   19.8751   -6.6012  -15.1287 C   0  0  0  0  0  0  0  0  0  0  0  0
   18.7506   -6.1442  -15.3756 O   0  0  0  0  0  0  0  0  0  0  0  0
   20.1136  -10.3631  -17.2313 C   0  0  0  0  0  0  0  0  0  0  0  0
   19.3664  -10.3334  -18.2756 O   0  0  0  0  0  0  0  0  0  0  0  0
   20.8712   -5.7969  -14.6258 O   0  0  0  0  0  0  0  0  0  0  0  0
   14.4878  -17.0021  -16.7374 O   0  0  0  0  0  0  0  0  0  0  0  0
   15.6048  -16.1732  -16.6043 C   0  0  0  0  0  0  0  0  0  0  0  0
   16.2568  -15.9564  -15.4282 C   0  0  0  0  0  0  0  0  0  0  0  0
   17.3537  -15.1265  -15.3586 C   0  0  0  0  0  0  0  0  0  0  0  0
   17.8315  -14.4867  -16.4755 C   0  0  0  0  0  0  0  0  0  0  0  0
   18.9950  -13.5862  -16.3606 C   0  0  0  0  0  0  0  0  0  0  0  0
   18.5302  -12.1426  -16.4371 C   0  0  2  0  0  0  0  0  0  0  0  0
   19.7300  -11.3017  -16.2540 N   0  0  0  0  0  0  0  0  0  0  0  0
   17.5982  -11.8595  -15.3510 C   0  0  0  0  0  0  0  0  0  0  0  0
   16.2582  -12.2328  -15.4284 O   0  0  0  0  0  0  0  0  0  0  0  0
   17.1831  -14.6967  -17.6695 C   0  0  0  0  0  0  0  0  0  0  0  0
   16.0828  -15.5300  -17.7320 C   0  0  0  0  0  0  0  0  0  0  0  0
   17.9735  -11.2739  -14.3219 O   0  0  0  0  0  0  0  0  0  0  0  0
  2  1  1  0
  2  3  1  0
  3  5  1  0
  3  4  1  6
  5  6  1  1
  7  8  2  0
  7  5  1  0
  9  7  1  0
 10  9  1  0
 10 11  1  6
 12 13  1  0
 12 11  1  0
 13 14  2  0
 15 16  2  0
 15 10  1  0
 17 13  1  0
 18 19  1  0
 19 20  2  0
 20 21  1  0
 22 23  1  0
 22 21  2  0
 24 23  1  1
 24 25  1  0
 25 15  1  0
 26 24  1  0
 27 26  1  0
 28 22  1  0
 29 28  2  0
 29 19  1  0
 30 26  2  0
M  END
$$$$
