IEY.pdb
     RDKit          3D

 30 30  0  0  1  0  0  0  0  0999 V2000
   24.8540  -12.0940  -19.6927 C   0  0  0  0  0  0  0  0  0  0  0  0
   25.6071  -13.3522  -19.4486 C   0  0  0  0  0  0  0  0  0  0  0  0
   24.7119  -14.5349  -19.1218 C   0  0  2  0  0  0  0  0  0  0  0  0
   23.9058  -14.2122  -17.9184 C   0  0  0  0  0  0  0  0  0  0  0  0
   25.6406  -15.7201  -18.9779 C   0  0  2  0  0  0  0  0  0  0  0  0
   26.3303  -15.7959  -20.2820 N   0  0  0  0  0  0  0  0  0  0  0  0
   24.9762  -16.9886  -18.7070 C   0  0  0  0  0  0  0  0  0  0  0  0
   23.9488  -17.2971  -19.3564 O   0  0  0  0  0  0  0  0  0  0  0  0
   25.4473  -17.8937  -17.7351 N   0  0  0  0  0  0  0  0  0  0  0  0
   24.7600  -19.1785  -17.5710 C   0  0  1  0  0  0  0  0  0  0  0  0
   25.7746  -20.2684  -17.6195 C   0  0  0  0  0  0  0  0  0  0  0  0
   26.2503  -20.7353  -16.2782 C   0  0  0  0  0  0  0  0  0  0  0  0
   27.3067  -21.7690  -16.5784 C   0  0  0  0  0  0  0  0  0  0  0  0
   27.5449  -22.0930  -17.7499 O   0  0  0  0  0  0  0  0  0  0  0  0
   23.9469  -19.1646  -16.3424 C   0  0  0  0  0  0  0  0  0  0  0  0
   24.4015  -18.5319  -15.3211 O   0  0  0  0  0  0  0  0  0  0  0  0
   27.9923  -22.3416  -15.5323 O   0  0  0  0  0  0  0  0  0  0  0  0
   17.6528  -19.4720  -10.2321 O   0  0  0  0  0  0  0  0  0  0  0  0
   18.3919  -19.4024  -11.4159 C   0  0  0  0  0  0  0  0  0  0  0  0
   19.0809  -18.2991  -11.8202 C   0  0  0  0  0  0  0  0  0  0  0  0
   19.7919  -18.2898  -12.9997 C   0  0  0  0  0  0  0  0  0  0  0  0
   19.8328  -19.3958  -13.8123 C   0  0  0  0  0  0  0  0  0  0  0  0
   20.5855  -19.3435  -15.0807 C   0  0  0  0  0  0  0  0  0  0  0  0
   22.0274  -19.7505  -14.8335 C   0  0  2  0  0  0  0  0  0  0  0  0
   22.6920  -19.7746  -16.1518 N   0  0  0  0  0  0  0  0  0  0  0  0
   22.0774  -21.0940  -14.2670 C   0  0  0  0  0  0  0  0  0  0  0  0
   22.1578  -21.2993  -12.8913 O   0  0  0  0  0  0  0  0  0  0  0  0
   19.1421  -20.5166  -13.4163 C   0  0  0  0  0  0  0  0  0  0  0  0
   18.4303  -20.5187  -12.2322 C   0  0  0  0  0  0  0  0  0  0  0  0
   22.0508  -22.0981  -14.9977 O   0  0  0  0  0  0  0  0  0  0  0  0
  2  1  1  0
  2  3  1  0
  3  5  1  0
  3  4  1  1
  5  6  1  6
  7  8  2  0
  7  5  1  0
  9  7  1  0
 10  9  1  0
 10 11  1  1
 12 13  1  0
 12 11  1  0
 13 14  2  0
 15 16  2  0
 15 10  1  0
 17 13  1  0
 18 19  1  0
 19 20  2  0
 20 21  1  0
 22 23  1  0
 22 21  2  0
 24 23  1  6
 24 25  1  0
 25 15  1  0
 26 24  1  0
 27 26  1  0
 28 22  1  0
 29 28  2  0
 29 19  1  0
 30 26  2  0
M  END
$$$$
