IEY.pdb
     RDKit          3D

 30 30  0  0  1  0  0  0  0  0999 V2000
   19.0323  -14.9361  -16.4069 C   0  0  0  0  0  0  0  0  0  0  0  0
   18.0031  -13.8636  -16.4022 C   0  0  0  0  0  0  0  0  0  0  0  0
   18.5899  -12.4677  -16.2829 C   0  0  2  0  0  0  0  0  0  0  0  0
   19.4589  -12.4104  -15.0813 C   0  0  0  0  0  0  0  0  0  0  0  0
   17.4045  -11.5283  -16.2675 C   0  0  2  0  0  0  0  0  0  0  0  0
   16.6038  -11.9419  -17.4380 N   0  0  0  0  0  0  0  0  0  0  0  0
   17.7419  -10.1155  -16.3862 C   0  0  0  0  0  0  0  0  0  0  0  0
   18.1102   -9.6611  -17.4955 O   0  0  0  0  0  0  0  0  0  0  0  0
   17.6689   -9.2288  -15.2935 N   0  0  0  0  0  0  0  0  0  0  0  0
   18.0279   -7.8218  -15.4974 C   0  0  1  0  0  0  0  0  0  0  0  0
   16.8429   -6.9787  -15.1742 C   0  0  0  0  0  0  0  0  0  0  0  0
   17.0526   -5.5090  -15.3728 C   0  0  0  0  0  0  0  0  0  0  0  0
   15.7427   -4.8727  -14.9807 C   0  0  0  0  0  0  0  0  0  0  0  0
   14.6720   -5.4257  -15.2672 O   0  0  0  0  0  0  0  0  0  0  0  0
   19.2353   -7.4896  -14.7212 C   0  0  0  0  0  0  0  0  0  0  0  0
   19.3238   -7.9313  -13.5183 O   0  0  0  0  0  0  0  0  0  0  0  0
   15.7618   -3.6739  -14.3064 O   0  0  0  0  0  0  0  0  0  0  0  0
   22.8812  -12.5392  -15.2639 O   0  0  0  0  0  0  0  0  0  0  0  0
   22.8248  -11.1435  -15.2250 C   0  0  0  0  0  0  0  0  0  0  0  0
   22.4672  -10.3657  -16.2845 C   0  0  0  0  0  0  0  0  0  0  0  0
   22.4307   -8.9924  -16.1861 C   0  0  0  0  0  0  0  0  0  0  0  0
   22.7534   -8.3563  -15.0129 C   0  0  0  0  0  0  0  0  0  0  0  0
   22.7261   -6.8821  -14.9493 C   0  0  0  0  0  0  0  0  0  0  0  0
   21.4599   -6.4269  -14.2455 C   0  0  2  0  0  0  0  0  0  0  0  0
   20.3378   -6.7291  -15.1564 N   0  0  0  0  0  0  0  0  0  0  0  0
   21.5007   -4.9851  -14.0263 C   0  0  0  0  0  0  0  0  0  0  0  0
   22.4472   -4.4052  -13.1843 O   0  0  0  0  0  0  0  0  0  0  0  0
   23.1159   -9.1292  -13.9354 C   0  0  0  0  0  0  0  0  0  0  0  0
   23.1511  -10.5063  -14.0413 C   0  0  0  0  0  0  0  0  0  0  0  0
   20.6887   -4.2294  -14.5854 O   0  0  0  0  0  0  0  0  0  0  0  0
  2  1  1  0
  2  3  1  0
  3  5  1  0
  3  4  1  1
  5  6  1  6
  7  8  2  0
  7  5  1  0
  9  7  1  0
 10  9  1  0
 10 11  1  1
 12 13  1  0
 12 11  1  0
 13 14  2  0
 15 16  2  0
 15 10  1  0
 17 13  1  0
 18 19  1  0
 19 20  2  0
 20 21  1  0
 22 23  1  0
 22 21  2  0
 24 23  1  6
 24 25  1  0
 25 15  1  0
 26 24  1  0
 27 26  1  0
 28 22  1  0
 29 28  2  0
 29 19  1  0
 30 26  2  0
M  END
$$$$
