IEY.pdb
     RDKit          3D

 30 30  0  0  1  0  0  0  0  0999 V2000
   22.7182  -13.6934  -14.3392 C   0  0  0  0  0  0  0  0  0  0  0  0
   23.2833  -13.0366  -15.5470 C   0  0  0  0  0  0  0  0  0  0  0  0
   23.0148  -11.5426  -15.6002 C   0  0  2  0  0  0  0  0  0  0  0  0
   21.5483  -11.3160  -15.6182 C   0  0  0  0  0  0  0  0  0  0  0  0
   23.7608  -11.0384  -16.8156 C   0  0  2  0  0  0  0  0  0  0  0  0
   25.1411  -11.5257  -16.6170 N   0  0  0  0  0  0  0  0  0  0  0  0
   23.7759   -9.5890  -16.9665 C   0  0  0  0  0  0  0  0  0  0  0  0
   24.5458   -8.9032  -16.2526 O   0  0  0  0  0  0  0  0  0  0  0  0
   22.9525   -8.9190  -17.8932 N   0  0  0  0  0  0  0  0  0  0  0  0
   23.0142   -7.4559  -17.9678 C   0  0  1  0  0  0  0  0  0  0  0  0
   22.7539   -7.0418  -19.3750 C   0  0  0  0  0  0  0  0  0  0  0  0
   22.7379   -5.5602  -19.5944 C   0  0  0  0  0  0  0  0  0  0  0  0
   22.4720   -5.3881  -21.0689 C   0  0  0  0  0  0  0  0  0  0  0  0
   22.2730   -6.3791  -21.7850 O   0  0  0  0  0  0  0  0  0  0  0  0
   22.0951   -6.8594  -16.9829 C   0  0  0  0  0  0  0  0  0  0  0  0
   20.8763   -7.2644  -16.9675 O   0  0  0  0  0  0  0  0  0  0  0  0
   22.4580   -4.1184  -21.5979 O   0  0  0  0  0  0  0  0  0  0  0  0
   19.3501  -11.0575  -13.2160 O   0  0  0  0  0  0  0  0  0  0  0  0
   19.9542   -9.8029  -13.3327 C   0  0  0  0  0  0  0  0  0  0  0  0
   21.2075   -9.5159  -12.8830 C   0  0  0  0  0  0  0  0  0  0  0  0
   21.7503   -8.2583  -13.0258 C   0  0  0  0  0  0  0  0  0  0  0  0
   21.0461   -7.2458  -13.6294 C   0  0  0  0  0  0  0  0  0  0  0  0
   21.6493   -5.9039  -13.7450 C   0  0  0  0  0  0  0  0  0  0  0  0
   21.3660   -5.3363  -15.1247 C   0  0  2  0  0  0  0  0  0  0  0  0
   22.4051   -5.8747  -16.0250 N   0  0  0  0  0  0  0  0  0  0  0  0
   21.4843   -3.8824  -15.1009 C   0  0  0  0  0  0  0  0  0  0  0  0
   20.6661   -3.1005  -14.2884 O   0  0  0  0  0  0  0  0  0  0  0  0
   19.7799   -7.5216  -14.0883 C   0  0  0  0  0  0  0  0  0  0  0  0
   19.2412   -8.7853  -13.9409 C   0  0  0  0  0  0  0  0  0  0  0  0
   22.3208   -3.2967  -15.8082 O   0  0  0  0  0  0  0  0  0  0  0  0
  2  1  1  0
  2  3  1  0
  3  5  1  0
  3  4  1  6
  5  6  1  1
  7  8  2  0
  7  5  1  0
  9  7  1  0
 10  9  1  0
 10 11  1  6
 12 13  1  0
 12 11  1  0
 13 14  2  0
 15 16  2  0
 15 10  1  0
 17 13  1  0
 18 19  1  0
 19 20  2  0
 20 21  1  0
 22 23  1  0
 22 21  2  0
 24 23  1  1
 24 25  1  0
 25 15  1  0
 26 24  1  0
 27 26  1  0
 28 22  1  0
 29 28  2  0
 29 19  1  0
 30 26  2  0
M  END
$$$$
