IEY.pdb
     RDKit          3D

 30 30  0  0  1  0  0  0  0  0999 V2000
   28.5813  -24.8033  -19.9182 C   0  0  0  0  0  0  0  0  0  0  0  0
   27.9692  -25.8151  -19.0176 C   0  0  0  0  0  0  0  0  0  0  0  0
   28.9840  -26.7586  -18.3955 C   0  0  2  0  0  0  0  0  0  0  0  0
   29.7278  -27.4494  -19.4780 C   0  0  0  0  0  0  0  0  0  0  0  0
   28.1901  -27.6629  -17.4791 C   0  0  2  0  0  0  0  0  0  0  0  0
   27.7295  -26.7652  -16.4002 N   0  0  0  0  0  0  0  0  0  0  0  0
   28.9475  -28.7658  -16.9013 C   0  0  0  0  0  0  0  0  0  0  0  0
   29.6593  -28.5609  -15.8893 O   0  0  0  0  0  0  0  0  0  0  0  0
   28.9113  -30.0680  -17.4383 N   0  0  0  0  0  0  0  0  0  0  0  0
   29.7219  -31.1162  -16.8105 C   0  0  1  0  0  0  0  0  0  0  0  0
   28.8207  -32.2278  -16.3960 C   0  0  0  0  0  0  0  0  0  0  0  0
   28.2368  -32.0766  -15.0250 C   0  0  0  0  0  0  0  0  0  0  0  0
   27.3749  -33.2992  -14.8323 C   0  0  0  0  0  0  0  0  0  0  0  0
   26.1573  -33.2429  -15.0526 O   0  0  0  0  0  0  0  0  0  0  0  0
   30.8093  -31.5262  -17.7162 C   0  0  0  0  0  0  0  0  0  0  0  0
   30.6017  -31.4609  -18.9820 O   0  0  0  0  0  0  0  0  0  0  0  0
   27.9641  -34.4674  -14.4076 O   0  0  0  0  0  0  0  0  0  0  0  0
   34.7591  -26.4839  -20.0819 O   0  0  0  0  0  0  0  0  0  0  0  0
   34.7085  -27.7834  -19.5707 C   0  0  0  0  0  0  0  0  0  0  0  0
   35.5864  -28.7691  -19.9069 C   0  0  0  0  0  0  0  0  0  0  0  0
   35.4855  -30.0333  -19.3698 C   0  0  0  0  0  0  0  0  0  0  0  0
   34.4942  -30.3462  -18.4729 C   0  0  0  0  0  0  0  0  0  0  0  0
   34.4013  -31.7172  -17.9347 C   0  0  0  0  0  0  0  0  0  0  0  0
   33.0902  -32.3469  -18.3709 C   0  0  2  0  0  0  0  0  0  0  0  0
   32.0877  -31.9881  -17.3479 N   0  0  0  0  0  0  0  0  0  0  0  0
   33.2191  -33.7998  -18.4009 C   0  0  0  0  0  0  0  0  0  0  0  0
   34.0768  -34.4343  -19.2969 O   0  0  0  0  0  0  0  0  0  0  0  0
   33.6012  -29.3606  -18.1244 C   0  0  0  0  0  0  0  0  0  0  0  0
   33.7078  -28.0948  -18.6676 C   0  0  0  0  0  0  0  0  0  0  0  0
   32.5644  -34.5166  -17.6259 O   0  0  0  0  0  0  0  0  0  0  0  0
  2  1  1  0
  2  3  1  0
  3  5  1  0
  3  4  1  6
  5  6  1  1
  7  8  2  0
  7  5  1  0
  9  7  1  0
 10  9  1  0
 10 11  1  6
 12 13  1  0
 12 11  1  0
 13 14  2  0
 15 16  2  0
 15 10  1  0
 17 13  1  0
 18 19  1  0
 19 20  2  0
 20 21  1  0
 22 23  1  0
 22 21  2  0
 24 23  1  1
 24 25  1  0
 25 15  1  0
 26 24  1  0
 27 26  1  0
 28 22  1  0
 29 28  2  0
 29 19  1  0
 30 26  2  0
M  END
$$$$
