IEY.pdb
     RDKit          3D

 30 30  0  0  1  0  0  0  0  0999 V2000
   29.2561  -13.3012  -15.9096 C   0  0  0  0  0  0  0  0  0  0  0  0
   27.8211  -13.6734  -16.0183 C   0  0  0  0  0  0  0  0  0  0  0  0
   26.9204  -12.5006  -16.3651 C   0  0  2  0  0  0  0  0  0  0  0  0
   27.0022  -11.4917  -15.2799 C   0  0  0  0  0  0  0  0  0  0  0  0
   25.5480  -13.0951  -16.5916 C   0  0  2  0  0  0  0  0  0  0  0  0
   25.7835  -14.1802  -17.5657 N   0  0  0  0  0  0  0  0  0  0  0  0
   24.5606  -12.1676  -17.1288 C   0  0  0  0  0  0  0  0  0  0  0  0
   24.7387  -11.6684  -18.2654 O   0  0  0  0  0  0  0  0  0  0  0  0
   23.4002  -11.8058  -16.4161 N   0  0  0  0  0  0  0  0  0  0  0  0
   22.4578  -10.8636  -17.0278 C   0  0  1  0  0  0  0  0  0  0  0  0
   21.1526  -11.5559  -17.2194 C   0  0  0  0  0  0  0  0  0  0  0  0
   20.0523  -10.6781  -17.7313 C   0  0  0  0  0  0  0  0  0  0  0  0
   18.8267  -11.5569  -17.7423 C   0  0  0  0  0  0  0  0  0  0  0  0
   18.6090  -12.3090  -18.7021 O   0  0  0  0  0  0  0  0  0  0  0  0
   22.3761   -9.6334  -16.2211 C   0  0  0  0  0  0  0  0  0  0  0  0
   22.2141   -9.7496  -14.9523 O   0  0  0  0  0  0  0  0  0  0  0  0
   17.9615  -11.5041  -16.6742 O   0  0  0  0  0  0  0  0  0  0  0  0
   21.3839   -1.1223  -14.0941 O   0  0  0  0  0  0  0  0  0  0  0  0
   21.8349   -2.3353  -14.6211 C   0  0  0  0  0  0  0  0  0  0  0  0
   21.9374   -2.5957  -15.9541 C   0  0  0  0  0  0  0  0  0  0  0  0
   22.3887   -3.8127  -16.4146 C   0  0  0  0  0  0  0  0  0  0  0  0
   22.7536   -4.8098  -15.5440 C   0  0  0  0  0  0  0  0  0  0  0  0
   23.2108   -6.1100  -16.0718 C   0  0  0  0  0  0  0  0  0  0  0  0
   22.1545   -7.1674  -15.8037 C   0  0  2  0  0  0  0  0  0  0  0  0
   22.4637   -8.3080  -16.6889 N   0  0  0  0  0  0  0  0  0  0  0  0
   20.8343   -6.6554  -16.1549 C   0  0  0  0  0  0  0  0  0  0  0  0
   20.0012   -6.0787  -15.1987 O   0  0  0  0  0  0  0  0  0  0  0  0
   22.6554   -4.5605  -14.1956 C   0  0  0  0  0  0  0  0  0  0  0  0
   22.2012   -3.3376  -13.7406 C   0  0  0  0  0  0  0  0  0  0  0  0
   20.4124   -6.7199  -17.3214 O   0  0  0  0  0  0  0  0  0  0  0  0
  2  1  1  0
  2  3  1  0
  3  5  1  0
  3  4  1  1
  5  6  1  6
  7  8  2  0
  7  5  1  0
  9  7  1  0
 10  9  1  0
 10 11  1  1
 12 13  1  0
 12 11  1  0
 13 14  2  0
 15 16  2  0
 15 10  1  0
 17 13  1  0
 18 19  1  0
 19 20  2  0
 20 21  1  0
 22 23  1  0
 22 21  2  0
 24 23  1  6
 24 25  1  0
 25 15  1  0
 26 24  1  0
 27 26  1  0
 28 22  1  0
 29 28  2  0
 29 19  1  0
 30 26  2  0
M  END
$$$$
