EHN.pdb
     RDKit          3D

 28 28  0  0  1  0  0  0  0  0999 V2000
   23.6660  -12.7703  -16.8575 N   0  0  0  0  0  0  0  0  0  0  0  0
   23.8949  -11.6901  -15.9506 C   0  0  1  0  0  0  0  0  0  0  0  0
   25.1942  -10.9774  -16.1656 C   0  0  0  0  0  0  0  0  0  0  0  0
   26.4121  -11.7911  -15.9929 C   0  0  0  0  0  0  0  0  0  0  0  0
   27.6858  -11.0786  -16.0868 C   0  0  0  0  0  0  0  0  0  0  0  0
   27.8178   -9.8890  -16.3642 O   0  0  0  0  0  0  0  0  0  0  0  0
   22.8048  -10.6703  -16.1193 C   0  0  0  0  0  0  0  0  0  0  0  0
   22.4786  -10.3294  -17.2713 O   0  0  0  0  0  0  0  0  0  0  0  0
   28.8671  -11.7943  -15.8435 O   0  0  0  0  0  0  0  0  0  0  0  0
   22.1953  -10.1416  -14.9495 N   0  0  0  0  0  0  0  0  0  0  0  0
   21.1642   -9.1552  -15.0277 C   0  0  1  0  0  0  0  0  0  0  0  0
   19.9485   -9.4889  -14.1824 C   0  0  0  0  0  0  0  0  0  0  0  0
   19.1034  -10.5211  -14.8339 C   0  0  0  0  0  0  0  0  0  0  0  0
   19.3120  -11.0975  -16.0666 C   0  0  0  0  0  0  0  0  0  0  0  0
   18.3127  -11.9928  -16.2960 N   0  0  0  0  0  0  0  0  0  0  0  0
   17.4876  -11.9947  -15.2481 C   0  0  0  0  0  0  0  0  0  0  0  0
   17.9710  -11.0923  -14.3497 N   0  0  0  0  0  0  0  0  0  0  0  0
   21.6639   -7.7883  -14.6344 C   0  0  0  0  0  0  0  0  0  0  0  0
   22.2948   -7.5934  -13.5655 O   0  0  0  0  0  0  0  0  0  0  0  0
   22.9967   -2.6988  -15.0136 N   0  0  0  0  0  0  0  0  0  0  0  0
   23.2970   -3.5283  -16.1372 C   0  0  0  0  0  0  0  0  0  0  0  0
   24.0273   -3.0396  -17.0345 O   0  0  0  0  0  0  0  0  0  0  0  0
   22.7856   -4.8918  -16.2566 C   0  0  0  0  0  0  0  0  0  0  0  0
   21.8854   -5.3295  -15.1177 C   0  0  2  0  0  0  0  0  0  0  0  0
   21.4355   -6.6643  -15.4687 N   0  0  0  0  0  0  0  0  0  0  0  0
   20.7486   -4.4077  -14.8968 C   0  0  0  0  0  0  0  0  0  0  0  0
   20.8645   -3.2643  -14.1231 O   0  0  0  0  0  0  0  0  0  0  0  0
   19.6213   -4.6425  -15.4163 O   0  0  0  0  0  0  0  0  0  0  0  0
  2  1  1  6
  2  3  1  0
  2  7  1  0
  3  4  1  0
  5  4  1  0
  5  6  2  0
  7 10  1  0
  8  7  2  0
  9  5  1  0
 10 11  1  0
 11 12  1  1
 12 13  1  0
 13 17  1  0
 14 13  2  0
 14 15  1  0
 15 16  1  0
 17 16  2  0
 18 19  2  0
 18 11  1  0
 20 21  1  0
 21 22  2  0
 23 21  1  0
 24 23  1  6
 24 25  1  0
 25 18  1  0
 26 24  1  0
 26 27  1  0
 28 26  2  0
M  END
$$$$
