EHN.pdb
     RDKit          3D

 28 28  0  0  1  0  0  0  0  0999 V2000
   12.1800  -17.7597    4.3562 N   0  0  0  0  0  0  0  0  0  0  0  0
   13.3600  -17.0161    4.0457 C   0  0  1  0  0  0  0  0  0  0  0  0
   13.4133  -15.6617    4.6824 C   0  0  0  0  0  0  0  0  0  0  0  0
   13.1835  -15.6246    6.1389 C   0  0  0  0  0  0  0  0  0  0  0  0
   13.2378  -14.3063    6.7697 C   0  0  0  0  0  0  0  0  0  0  0  0
   13.2999  -13.2335    6.1740 O   0  0  0  0  0  0  0  0  0  0  0  0
   14.5600  -17.7758    4.5354 C   0  0  0  0  0  0  0  0  0  0  0  0
   14.4504  -18.4666    5.5652 O   0  0  0  0  0  0  0  0  0  0  0  0
   13.2186  -14.2387    8.1704 O   0  0  0  0  0  0  0  0  0  0  0  0
   15.7683  -17.6688    3.7952 N   0  0  0  0  0  0  0  0  0  0  0  0
   16.9350  -18.4076    4.1630 C   0  0  1  0  0  0  0  0  0  0  0  0
   17.7285  -18.9099    2.9705 C   0  0  0  0  0  0  0  0  0  0  0  0
   17.0128  -20.0034    2.2663 C   0  0  0  0  0  0  0  0  0  0  0  0
   15.8714  -20.6464    2.6897 C   0  0  0  0  0  0  0  0  0  0  0  0
   15.5388  -21.5851    1.7618 N   0  0  0  0  0  0  0  0  0  0  0  0
   16.4339  -21.5497    0.7737 C   0  0  0  0  0  0  0  0  0  0  0  0
   17.3393  -20.5798    1.0812 N   0  0  0  0  0  0  0  0  0  0  0  0
   17.8529  -17.6035    5.0483 C   0  0  0  0  0  0  0  0  0  0  0  0
   17.8796  -16.3479    5.0120 O   0  0  0  0  0  0  0  0  0  0  0  0
   20.8841  -15.8897    8.8182 N   0  0  0  0  0  0  0  0  0  0  0  0
   19.4651  -15.8216    8.6683 C   0  0  0  0  0  0  0  0  0  0  0  0
   18.8422  -15.0447    9.4337 O   0  0  0  0  0  0  0  0  0  0  0  0
   18.7489  -16.6148    7.6720 C   0  0  0  0  0  0  0  0  0  0  0  0
   19.6325  -17.5085    6.8237 C   0  0  2  0  0  0  0  0  0  0  0  0
   18.7265  -18.2462    5.9622 N   0  0  0  0  0  0  0  0  0  0  0  0
   20.4797  -18.4135    7.6323 C   0  0  0  0  0  0  0  0  0  0  0  0
   21.5199  -17.9453    8.4185 O   0  0  0  0  0  0  0  0  0  0  0  0
   20.2744  -19.6600    7.6276 O   0  0  0  0  0  0  0  0  0  0  0  0
  2  1  1  1
  2  3  1  0
  2  7  1  0
  3  4  1  0
  5  4  1  0
  5  6  2  0
  7 10  1  0
  8  7  2  0
  9  5  1  0
 10 11  1  0
 11 12  1  6
 12 13  1  0
 13 17  1  0
 14 13  2  0
 14 15  1  0
 15 16  1  0
 17 16  2  0
 18 19  2  0
 18 11  1  0
 20 21  1  0
 21 22  2  0
 23 21  1  0
 24 23  1  1
 24 25  1  0
 25 18  1  0
 26 24  1  0
 26 27  1  0
 28 26  2  0
M  END
$$$$
