EHN.pdb
     RDKit          3D

 28 28  0  0  1  0  0  0  0  0999 V2000
   22.0573  -11.8583  -16.1760 N   0  0  0  0  0  0  0  0  0  0  0  0
   21.9123  -11.3175  -17.4906 C   0  0  1  0  0  0  0  0  0  0  0  0
   21.3243  -12.2730  -18.4824 C   0  0  0  0  0  0  0  0  0  0  0  0
   21.9437  -13.6106  -18.5342 C   0  0  0  0  0  0  0  0  0  0  0  0
   21.3781  -14.5491  -19.5028 C   0  0  0  0  0  0  0  0  0  0  0  0
   21.7740  -15.6956  -19.6988 O   0  0  0  0  0  0  0  0  0  0  0  0
   20.9947  -10.1295  -17.4326 C   0  0  0  0  0  0  0  0  0  0  0  0
   20.7917   -9.4797  -18.4749 O   0  0  0  0  0  0  0  0  0  0  0  0
   20.2926  -14.1250  -20.2830 O   0  0  0  0  0  0  0  0  0  0  0  0
   20.3994   -9.8033  -16.1842 N   0  0  0  0  0  0  0  0  0  0  0  0
   19.5169   -8.6875  -16.0486 C   0  0  1  0  0  0  0  0  0  0  0  0
   18.2169   -9.0319  -15.3449 C   0  0  0  0  0  0  0  0  0  0  0  0
   17.3325   -9.8501  -16.2124 C   0  0  0  0  0  0  0  0  0  0  0  0
   17.5914  -10.2556  -17.5023 C   0  0  0  0  0  0  0  0  0  0  0  0
   16.5301  -10.9847  -17.9438 N   0  0  0  0  0  0  0  0  0  0  0  0
   15.6176  -11.0479  -16.9730 C   0  0  0  0  0  0  0  0  0  0  0  0
   16.1080  -10.3523  -15.9097 N   0  0  0  0  0  0  0  0  0  0  0  0
   20.1699   -7.5405  -15.3200 C   0  0  0  0  0  0  0  0  0  0  0  0
   21.2199   -7.6922  -14.6470 O   0  0  0  0  0  0  0  0  0  0  0  0
   22.5436   -4.4448  -13.1689 N   0  0  0  0  0  0  0  0  0  0  0  0
   22.7273   -4.6769  -14.5664 C   0  0  0  0  0  0  0  0  0  0  0  0
   23.9004   -4.6151  -15.0108 O   0  0  0  0  0  0  0  0  0  0  0  0
   21.6098   -4.9753  -15.4591 C   0  0  0  0  0  0  0  0  0  0  0  0
   20.2643   -5.0877  -14.7692 C   0  0  2  0  0  0  0  0  0  0  0  0
   19.6133   -6.2370  -15.3715 N   0  0  0  0  0  0  0  0  0  0  0  0
   19.4461   -3.8616  -14.9020 C   0  0  0  0  0  0  0  0  0  0  0  0
   18.4738   -3.7248  -15.8795 O   0  0  0  0  0  0  0  0  0  0  0  0
   19.6147   -2.8886  -14.1142 O   0  0  0  0  0  0  0  0  0  0  0  0
  2  1  1  1
  2  3  1  0
  2  7  1  0
  3  4  1  0
  5  4  1  0
  5  6  2  0
  7 10  1  0
  8  7  2  0
  9  5  1  0
 10 11  1  0
 11 12  1  1
 12 13  1  0
 13 17  1  0
 14 13  2  0
 14 15  1  0
 15 16  1  0
 17 16  2  0
 18 19  2  0
 18 11  1  0
 20 21  1  0
 21 22  2  0
 23 21  1  0
 24 23  1  6
 24 25  1  0
 25 18  1  0
 26 24  1  0
 26 27  1  0
 28 26  2  0
M  END
$$$$
