EHN.pdb
     RDKit          3D

 28 28  0  0  1  0  0  0  0  0999 V2000
   24.1721  -17.8316  -15.8697 N   0  0  0  0  0  0  0  0  0  0  0  0
   23.5532  -18.7546  -16.7678 C   0  0  1  0  0  0  0  0  0  0  0  0
   24.5186  -19.6338  -17.5008 C   0  0  0  0  0  0  0  0  0  0  0  0
   25.3180  -18.9773  -18.5523 C   0  0  0  0  0  0  0  0  0  0  0  0
   26.3132  -19.8115  -19.2250 C   0  0  0  0  0  0  0  0  0  0  0  0
   26.0807  -20.6050  -20.1337 O   0  0  0  0  0  0  0  0  0  0  0  0
   22.6435  -19.6608  -15.9879 C   0  0  0  0  0  0  0  0  0  0  0  0
   22.0272  -20.5556  -16.5956 O   0  0  0  0  0  0  0  0  0  0  0  0
   27.6503  -19.7127  -18.8137 O   0  0  0  0  0  0  0  0  0  0  0  0
   22.5303  -19.4519  -14.5870 N   0  0  0  0  0  0  0  0  0  0  0  0
   21.6080  -20.2023  -13.7941 C   0  0  1  0  0  0  0  0  0  0  0  0
   22.0326  -20.3346  -12.3428 C   0  0  0  0  0  0  0  0  0  0  0  0
   23.3036  -21.0917  -12.2180 C   0  0  0  0  0  0  0  0  0  0  0  0
   24.0548  -21.6141  -13.2467 C   0  0  0  0  0  0  0  0  0  0  0  0
   25.1417  -22.2347  -12.7117 N   0  0  0  0  0  0  0  0  0  0  0  0
   25.0943  -22.1172  -11.3840 C   0  0  0  0  0  0  0  0  0  0  0  0
   23.9672  -21.4161  -11.0789 N   0  0  0  0  0  0  0  0  0  0  0  0
   20.2208  -19.6134  -13.8383 C   0  0  0  0  0  0  0  0  0  0  0  0
   20.0183  -18.4117  -14.1440 O   0  0  0  0  0  0  0  0  0  0  0  0
   17.1197  -17.9321  -16.9759 N   0  0  0  0  0  0  0  0  0  0  0  0
   16.8171  -18.7773  -15.8647 C   0  0  0  0  0  0  0  0  0  0  0  0
   15.7043  -18.6158  -15.3051 O   0  0  0  0  0  0  0  0  0  0  0  0
   17.7497  -19.7939  -15.3836 C   0  0  0  0  0  0  0  0  0  0  0  0
   17.7358  -20.0020  -13.8817 C   0  0  2  0  0  0  0  0  0  0  0  0
   19.0856  -20.4067  -13.5328 N   0  0  0  0  0  0  0  0  0  0  0  0
   16.7341  -21.0020  -13.4492 C   0  0  0  0  0  0  0  0  0  0  0  0
   15.6661  -20.6714  -12.6309 O   0  0  0  0  0  0  0  0  0  0  0  0
   16.8270  -22.2059  -13.8203 O   0  0  0  0  0  0  0  0  0  0  0  0
  2  1  1  1
  2  3  1  0
  2  7  1  0
  3  4  1  0
  5  4  1  0
  5  6  2  0
  7 10  1  0
  8  7  2  0
  9  5  1  0
 10 11  1  0
 11 12  1  1
 12 13  1  0
 13 17  1  0
 14 13  2  0
 14 15  1  0
 15 16  1  0
 17 16  2  0
 18 19  2  0
 18 11  1  0
 20 21  1  0
 21 22  2  0
 23 21  1  0
 24 23  1  6
 24 25  1  0
 25 18  1  0
 26 24  1  0
 26 27  1  0
 28 26  2  0
M  END
$$$$
