EHN.pdb
     RDKit          3D

 28 28  0  0  1  0  0  0  0  0999 V2000
   23.5242  -13.5568  -17.1663 N   0  0  0  0  0  0  0  0  0  0  0  0
   23.6645  -12.6690  -16.0555 C   0  0  1  0  0  0  0  0  0  0  0  0
   25.0389  -12.0945  -15.9029 C   0  0  0  0  0  0  0  0  0  0  0  0
   26.1415  -12.9061  -16.4518 C   0  0  0  0  0  0  0  0  0  0  0  0
   27.4748  -12.3076  -16.3988 C   0  0  0  0  0  0  0  0  0  0  0  0
   27.8870  -11.4193  -17.1407 O   0  0  0  0  0  0  0  0  0  0  0  0
   22.7247  -11.5106  -16.2333 C   0  0  0  0  0  0  0  0  0  0  0  0
   22.7573  -10.8733  -17.3022 O   0  0  0  0  0  0  0  0  0  0  0  0
   28.3734  -12.7720  -15.4273 O   0  0  0  0  0  0  0  0  0  0  0  0
   21.8391  -11.1968  -15.1672 N   0  0  0  0  0  0  0  0  0  0  0  0
   20.8281  -10.1967  -15.3085 C   0  0  1  0  0  0  0  0  0  0  0  0
   19.4801  -10.6232  -14.7564 C   0  0  0  0  0  0  0  0  0  0  0  0
   18.8490  -11.6601  -15.6112 C   0  0  0  0  0  0  0  0  0  0  0  0
   19.3617  -12.1935  -16.7721 C   0  0  0  0  0  0  0  0  0  0  0  0
   18.4767  -13.1105  -17.2502 N   0  0  0  0  0  0  0  0  0  0  0  0
   17.4290  -13.1675  -16.4268 C   0  0  0  0  0  0  0  0  0  0  0  0
   17.6554  -12.2783  -15.4203 N   0  0  0  0  0  0  0  0  0  0  0  0
   21.2275   -8.8983  -14.6547 C   0  0  0  0  0  0  0  0  0  0  0  0
   22.1852   -8.8292  -13.8443 O   0  0  0  0  0  0  0  0  0  0  0  0
   22.3222   -3.9576  -13.8576 N   0  0  0  0  0  0  0  0  0  0  0  0
   22.9762   -4.9270  -14.6781 C   0  0  0  0  0  0  0  0  0  0  0  0
   24.1086   -4.6276  -15.1312 O   0  0  0  0  0  0  0  0  0  0  0  0
   22.3699   -6.2195  -14.9891 C   0  0  0  0  0  0  0  0  0  0  0  0
   20.9669   -6.4050  -14.4449 C   0  0  2  0  0  0  0  0  0  0  0  0
   20.5268   -7.6979  -14.9370 N   0  0  0  0  0  0  0  0  0  0  0  0
   20.0449   -5.3207  -14.8508 C   0  0  0  0  0  0  0  0  0  0  0  0
   19.7432   -4.2567  -14.0163 O   0  0  0  0  0  0  0  0  0  0  0  0
   19.4975   -5.3358  -15.9892 O   0  0  0  0  0  0  0  0  0  0  0  0
  2  1  1  6
  2  3  1  0
  2  7  1  0
  3  4  1  0
  5  4  1  0
  5  6  2  0
  7 10  1  0
  8  7  2  0
  9  5  1  0
 10 11  1  0
 11 12  1  1
 12 13  1  0
 13 17  1  0
 14 13  2  0
 14 15  1  0
 15 16  1  0
 17 16  2  0
 18 19  2  0
 18 11  1  0
 20 21  1  0
 21 22  2  0
 23 21  1  0
 24 23  1  6
 24 25  1  0
 25 18  1  0
 26 24  1  0
 26 27  1  0
 28 26  2  0
M  END
$$$$
