EHN.pdb
     RDKit          3D

 28 28  0  0  1  0  0  0  0  0999 V2000
   19.3372  -13.4048  -17.6904 N   0  0  0  0  0  0  0  0  0  0  0  0
   20.3762  -12.4798  -17.3640 C   0  0  1  0  0  0  0  0  0  0  0  0
   21.4902  -12.4353  -18.3638 C   0  0  0  0  0  0  0  0  0  0  0  0
   22.3147  -13.6541  -18.4649 C   0  0  0  0  0  0  0  0  0  0  0  0
   23.4562  -13.5900  -19.3769 C   0  0  0  0  0  0  0  0  0  0  0  0
   24.3386  -12.7353  -19.3548 O   0  0  0  0  0  0  0  0  0  0  0  0
   19.7956  -11.0959  -17.2960 C   0  0  0  0  0  0  0  0  0  0  0  0
   19.5220  -10.5098  -18.3596 O   0  0  0  0  0  0  0  0  0  0  0  0
   23.5720  -14.5768  -20.3667 O   0  0  0  0  0  0  0  0  0  0  0  0
   19.5855  -10.5201  -16.0140 N   0  0  0  0  0  0  0  0  0  0  0  0
   19.0890   -9.1880  -15.8682 C   0  0  1  0  0  0  0  0  0  0  0  0
   17.8769   -9.0949  -14.9592 C   0  0  0  0  0  0  0  0  0  0  0  0
   17.3587   -7.7054  -14.8893 C   0  0  0  0  0  0  0  0  0  0  0  0
   17.8286   -6.6156  -15.5870 C   0  0  0  0  0  0  0  0  0  0  0  0
   17.0849   -5.5302  -15.2387 N   0  0  0  0  0  0  0  0  0  0  0  0
   16.1665   -5.9057  -14.3473 C   0  0  0  0  0  0  0  0  0  0  0  0
   16.3327   -7.2402  -14.1315 N   0  0  0  0  0  0  0  0  0  0  0  0
   20.1491   -8.2466  -15.3553 C   0  0  0  0  0  0  0  0  0  0  0  0
   21.1599   -8.6592  -14.7336 O   0  0  0  0  0  0  0  0  0  0  0  0
   23.4366   -4.3473  -14.7911 N   0  0  0  0  0  0  0  0  0  0  0  0
   23.4792   -5.4766  -15.6650 C   0  0  0  0  0  0  0  0  0  0  0  0
   24.5488   -5.6796  -16.2912 O   0  0  0  0  0  0  0  0  0  0  0  0
   22.3366   -6.3708  -15.8372 C   0  0  0  0  0  0  0  0  0  0  0  0
   21.0688   -5.9149  -15.1416 C   0  0  2  0  0  0  0  0  0  0  0  0
   20.0384   -6.8477  -15.5608 N   0  0  0  0  0  0  0  0  0  0  0  0
   20.7071   -4.5165  -15.4643 C   0  0  0  0  0  0  0  0  0  0  0  0
   21.2389   -3.4383  -14.7756 O   0  0  0  0  0  0  0  0  0  0  0  0
   19.8888   -4.2627  -16.3927 O   0  0  0  0  0  0  0  0  0  0  0  0
  2  1  1  6
  2  3  1  0
  2  7  1  0
  3  4  1  0
  5  4  1  0
  5  6  2  0
  7 10  1  0
  8  7  2  0
  9  5  1  0
 10 11  1  0
 11 12  1  1
 12 13  1  0
 13 17  1  0
 14 13  2  0
 14 15  1  0
 15 16  1  0
 17 16  2  0
 18 19  2  0
 18 11  1  0
 20 21  1  0
 21 22  2  0
 23 21  1  0
 24 23  1  6
 24 25  1  0
 25 18  1  0
 26 24  1  0
 26 27  1  0
 28 26  2  0
M  END
$$$$
