EHN.pdb
     RDKit          3D

 28 28  0  0  1  0  0  0  0  0999 V2000
   27.6657  -20.3414  -16.8266 N   0  0  0  0  0  0  0  0  0  0  0  0
   27.4074  -21.7302  -16.6116 C   0  0  1  0  0  0  0  0  0  0  0  0
   28.6415  -22.5623  -16.4470 C   0  0  0  0  0  0  0  0  0  0  0  0
   29.7238  -22.3091  -17.4165 C   0  0  0  0  0  0  0  0  0  0  0  0
   29.4761  -22.7423  -18.7912 C   0  0  0  0  0  0  0  0  0  0  0  0
   28.4462  -23.2767  -19.1952 O   0  0  0  0  0  0  0  0  0  0  0  0
   26.6030  -21.8891  -15.3528 C   0  0  0  0  0  0  0  0  0  0  0  0
   26.3004  -23.0370  -14.9780 O   0  0  0  0  0  0  0  0  0  0  0  0
   30.4856  -22.5401  -19.7436 O   0  0  0  0  0  0  0  0  0  0  0  0
   26.2248  -20.7152  -14.6470 N   0  0  0  0  0  0  0  0  0  0  0  0
   25.4052  -20.7805  -13.4780 C   0  0  1  0  0  0  0  0  0  0  0  0
   25.9315  -19.9414  -12.3279 C   0  0  0  0  0  0  0  0  0  0  0  0
   27.2016  -20.4932  -11.7925 C   0  0  0  0  0  0  0  0  0  0  0  0
   27.8295  -21.6510  -12.1933 C   0  0  0  0  0  0  0  0  0  0  0  0
   28.9633  -21.8014  -11.4553 N   0  0  0  0  0  0  0  0  0  0  0  0
   29.0642  -20.7767  -10.6075 C   0  0  0  0  0  0  0  0  0  0  0  0
   27.9842  -19.9727  -10.8128 N   0  0  0  0  0  0  0  0  0  0  0  0
   23.9840  -20.3672  -13.7649 C   0  0  0  0  0  0  0  0  0  0  0  0
   23.7063  -19.4946  -14.6251 O   0  0  0  0  0  0  0  0  0  0  0  0
   19.3597  -20.1791  -15.6052 N   0  0  0  0  0  0  0  0  0  0  0  0
   20.1363  -21.3736  -15.5004 C   0  0  0  0  0  0  0  0  0  0  0  0
   19.6323  -22.4296  -15.9568 O   0  0  0  0  0  0  0  0  0  0  0  0
   21.4642  -21.3875  -14.8911 C   0  0  0  0  0  0  0  0  0  0  0  0
   21.5220  -20.8060  -13.4920 C   0  0  2  0  0  0  0  0  0  0  0  0
   22.9011  -20.9576  -13.0647 N   0  0  0  0  0  0  0  0  0  0  0  0
   20.5824  -21.4641  -12.5568 C   0  0  0  0  0  0  0  0  0  0  0  0
   19.2305  -21.1617  -12.5334 O   0  0  0  0  0  0  0  0  0  0  0  0
   20.9943  -22.3348  -11.7394 O   0  0  0  0  0  0  0  0  0  0  0  0
  2  1  1  1
  2  3  1  0
  2  7  1  0
  3  4  1  0
  5  4  1  0
  5  6  2  0
  7 10  1  0
  8  7  2  0
  9  5  1  0
 10 11  1  0
 11 12  1  1
 12 13  1  0
 13 17  1  0
 14 13  2  0
 14 15  1  0
 15 16  1  0
 17 16  2  0
 18 19  2  0
 18 11  1  0
 20 21  1  0
 21 22  2  0
 23 21  1  0
 24 23  1  6
 24 25  1  0
 25 18  1  0
 26 24  1  0
 26 27  1  0
 28 26  2  0
M  END
$$$$
