EHN.pdb
     RDKit          3D

 28 28  0  0  1  0  0  0  0  0999 V2000
   18.1736  -14.7600  -17.3257 N   0  0  0  0  0  0  0  0  0  0  0  0
   17.5537  -13.4737  -17.2736 C   0  0  1  0  0  0  0  0  0  0  0  0
   16.5743  -13.3129  -16.1522 C   0  0  0  0  0  0  0  0  0  0  0  0
   16.6103  -14.3565  -15.1104 C   0  0  0  0  0  0  0  0  0  0  0  0
   15.7244  -14.1578  -13.9639 C   0  0  0  0  0  0  0  0  0  0  0  0
   14.9175  -13.2399  -13.8377 O   0  0  0  0  0  0  0  0  0  0  0  0
   18.6139  -12.4271  -17.0801 C   0  0  0  0  0  0  0  0  0  0  0  0
   19.6385  -12.7259  -16.4393 O   0  0  0  0  0  0  0  0  0  0  0  0
   15.7852  -15.0806  -12.9095 O   0  0  0  0  0  0  0  0  0  0  0  0
   18.3949  -11.1401  -17.6413 N   0  0  0  0  0  0  0  0  0  0  0  0
   19.4174  -10.1417  -17.6367 C   0  0  1  0  0  0  0  0  0  0  0  0
   19.6100   -9.4730  -18.9857 C   0  0  0  0  0  0  0  0  0  0  0  0
   20.7763   -8.5545  -18.9726 C   0  0  0  0  0  0  0  0  0  0  0  0
   22.1019   -8.9090  -18.8608 C   0  0  0  0  0  0  0  0  0  0  0  0
   22.8530   -7.7742  -18.8880 N   0  0  0  0  0  0  0  0  0  0  0  0
   22.0410   -6.7235  -19.0129 C   0  0  0  0  0  0  0  0  0  0  0  0
   20.7662   -7.2001  -19.0650 N   0  0  0  0  0  0  0  0  0  0  0  0
   19.1564   -9.0754  -16.6034 C   0  0  0  0  0  0  0  0  0  0  0  0
   17.9975   -8.6558  -16.3594 O   0  0  0  0  0  0  0  0  0  0  0  0
   19.0142   -8.9783  -12.7036 N   0  0  0  0  0  0  0  0  0  0  0  0
   20.3579   -8.4965  -12.6484 C   0  0  0  0  0  0  0  0  0  0  0  0
   21.0135   -8.7385  -11.6048 O   0  0  0  0  0  0  0  0  0  0  0  0
   20.9632   -7.7511  -13.7496 C   0  0  0  0  0  0  0  0  0  0  0  0
   20.0197   -7.4424  -14.8957 C   0  0  2  0  0  0  0  0  0  0  0  0
   20.2236   -8.5046  -15.8640 N   0  0  0  0  0  0  0  0  0  0  0  0
   20.2538   -6.1068  -15.4890 C   0  0  0  0  0  0  0  0  0  0  0  0
   19.6572   -4.9611  -14.9879 O   0  0  0  0  0  0  0  0  0  0  0  0
   21.0170   -5.9721  -16.4866 O   0  0  0  0  0  0  0  0  0  0  0  0
  2  1  1  1
  2  3  1  0
  2  7  1  0
  3  4  1  0
  5  4  1  0
  5  6  2  0
  7 10  1  0
  8  7  2  0
  9  5  1  0
 10 11  1  0
 11 12  1  6
 12 13  1  0
 13 17  1  0
 14 13  2  0
 14 15  1  0
 15 16  1  0
 17 16  2  0
 18 19  2  0
 18 11  1  0
 20 21  1  0
 21 22  2  0
 23 21  1  0
 24 23  1  1
 24 25  1  0
 25 18  1  0
 26 24  1  0
 26 27  1  0
 28 26  2  0
M  END
$$$$
