EHN.pdb
     RDKit          3D

 28 28  0  0  1  0  0  0  0  0999 V2000
   19.5341  -12.6818  -17.8001 N   0  0  0  0  0  0  0  0  0  0  0  0
   20.7184  -12.0364  -18.2719 C   0  0  1  0  0  0  0  0  0  0  0  0
   20.4918  -11.1168  -19.4318 C   0  0  0  0  0  0  0  0  0  0  0  0
   19.4591  -10.0810  -19.2410 C   0  0  0  0  0  0  0  0  0  0  0  0
   19.2182   -9.1900  -20.3754 C   0  0  0  0  0  0  0  0  0  0  0  0
   19.0095   -9.5493  -21.5317 O   0  0  0  0  0  0  0  0  0  0  0  0
   21.2975  -11.2050  -17.1627 C   0  0  0  0  0  0  0  0  0  0  0  0
   20.5834  -10.9428  -16.1772 O   0  0  0  0  0  0  0  0  0  0  0  0
   19.2216   -7.8065  -20.1460 O   0  0  0  0  0  0  0  0  0  0  0  0
   22.6394  -10.7561  -17.2927 N   0  0  0  0  0  0  0  0  0  0  0  0
   23.3193  -10.1173  -16.2101 C   0  0  1  0  0  0  0  0  0  0  0  0
   24.7950  -10.4654  -16.1385 C   0  0  0  0  0  0  0  0  0  0  0  0
   24.9971  -11.9114  -15.8692 C   0  0  0  0  0  0  0  0  0  0  0  0
   24.0170  -12.8514  -15.6435 C   0  0  0  0  0  0  0  0  0  0  0  0
   24.6170  -14.0555  -15.4370 N   0  0  0  0  0  0  0  0  0  0  0  0
   25.9386  -13.8988  -15.5263 C   0  0  0  0  0  0  0  0  0  0  0  0
   26.1739  -12.5838  -15.7915 N   0  0  0  0  0  0  0  0  0  0  0  0
   23.1805   -8.6171  -16.2670 C   0  0  0  0  0  0  0  0  0  0  0  0
   23.2842   -7.9804  -17.3451 O   0  0  0  0  0  0  0  0  0  0  0  0
   21.2192   -3.9469  -15.3685 N   0  0  0  0  0  0  0  0  0  0  0  0
   20.6842   -5.0767  -16.0598 C   0  0  0  0  0  0  0  0  0  0  0  0
   19.6624   -4.8886  -16.7655 O   0  0  0  0  0  0  0  0  0  0  0  0
   21.2860   -6.4046  -15.9634 C   0  0  0  0  0  0  0  0  0  0  0  0
   22.5496   -6.4649  -15.1275 C   0  0  2  0  0  0  0  0  0  0  0  0
   22.9249   -7.8668  -15.0909 N   0  0  0  0  0  0  0  0  0  0  0  0
   22.3662   -5.9104  -13.7676 C   0  0  0  0  0  0  0  0  0  0  0  0
   22.6568   -4.5904  -13.4628 O   0  0  0  0  0  0  0  0  0  0  0  0
   21.9324   -6.6380  -12.8305 O   0  0  0  0  0  0  0  0  0  0  0  0
  2  1  1  1
  2  3  1  0
  2  7  1  0
  3  4  1  0
  5  4  1  0
  5  6  2  0
  7 10  1  0
  8  7  2  0
  9  5  1  0
 10 11  1  0
 11 12  1  6
 12 13  1  0
 13 17  1  0
 14 13  2  0
 14 15  1  0
 15 16  1  0
 17 16  2  0
 18 19  2  0
 18 11  1  0
 20 21  1  0
 21 22  2  0
 23 21  1  0
 24 23  1  6
 24 25  1  0
 25 18  1  0
 26 24  1  0
 26 27  1  0
 28 26  2  0
M  END
$$$$
