EHN.pdb
     RDKit          3D

 28 28  0  0  1  0  0  0  0  0999 V2000
   15.9800  -17.2611    3.0442 N   0  0  0  0  0  0  0  0  0  0  0  0
   16.2611  -17.7464    4.3584 C   0  0  1  0  0  0  0  0  0  0  0  0
   16.5997  -19.2041    4.4114 C   0  0  0  0  0  0  0  0  0  0  0  0
   15.6210  -20.1163    3.7904 C   0  0  0  0  0  0  0  0  0  0  0  0
   15.9900  -21.5308    3.7484 C   0  0  0  0  0  0  0  0  0  0  0  0
   17.0419  -22.0055    4.1700 O   0  0  0  0  0  0  0  0  0  0  0  0
   17.4438  -17.0035    4.9117 C   0  0  0  0  0  0  0  0  0  0  0  0
   18.3557  -16.6674    4.1337 O   0  0  0  0  0  0  0  0  0  0  0  0
   15.0815  -22.4379    3.1839 O   0  0  0  0  0  0  0  0  0  0  0  0
   17.4643  -16.7185    6.3037 N   0  0  0  0  0  0  0  0  0  0  0  0
   18.5032  -15.9295    6.8872 C   0  0  1  0  0  0  0  0  0  0  0  0
   18.0515  -14.5332    7.2746 C   0  0  0  0  0  0  0  0  0  0  0  0
   18.4002  -13.5415    6.2262 C   0  0  0  0  0  0  0  0  0  0  0  0
   17.5558  -13.0227    5.2706 C   0  0  0  0  0  0  0  0  0  0  0  0
   18.2627  -12.1493    4.5024 N   0  0  0  0  0  0  0  0  0  0  0  0
   19.5197  -12.1054    4.9463 C   0  0  0  0  0  0  0  0  0  0  0  0
   19.6062  -12.9590    6.0040 N   0  0  0  0  0  0  0  0  0  0  0  0
   19.1006  -16.5963    8.1002 C   0  0  0  0  0  0  0  0  0  0  0  0
   18.4307  -17.3664    8.8329 O   0  0  0  0  0  0  0  0  0  0  0  0
   22.6121  -19.7862   10.6546 N   0  0  0  0  0  0  0  0  0  0  0  0
   22.9825  -18.5103   10.1295 C   0  0  0  0  0  0  0  0  0  0  0  0
   24.0224  -17.9780   10.5907 O   0  0  0  0  0  0  0  0  0  0  0  0
   22.1977  -17.8357    9.0981 C   0  0  0  0  0  0  0  0  0  0  0  0
   21.0619  -16.9822    9.6277 C   0  0  2  0  0  0  0  0  0  0  0  0
   20.4549  -16.3735    8.4578 N   0  0  0  0  0  0  0  0  0  0  0  0
   21.5137  -15.9650   10.6033 C   0  0  0  0  0  0  0  0  0  0  0  0
   21.7384  -16.2686   11.9363 O   0  0  0  0  0  0  0  0  0  0  0  0
   21.7102  -14.7708   10.2413 O   0  0  0  0  0  0  0  0  0  0  0  0
  2  1  1  6
  2  3  1  0
  2  7  1  0
  3  4  1  0
  5  4  1  0
  5  6  2  0
  7 10  1  0
  8  7  2  0
  9  5  1  0
 10 11  1  0
 11 12  1  1
 12 13  1  0
 13 17  1  0
 14 13  2  0
 14 15  1  0
 15 16  1  0
 17 16  2  0
 18 19  2  0
 18 11  1  0
 20 21  1  0
 21 22  2  0
 23 21  1  0
 24 23  1  6
 24 25  1  0
 25 18  1  0
 26 24  1  0
 26 27  1  0
 28 26  2  0
M  END
$$$$
