EHN.pdb
     RDKit          3D

 28 28  0  0  1  0  0  0  0  0999 V2000
   24.0089  -13.5384  -17.8228 N   0  0  0  0  0  0  0  0  0  0  0  0
   23.9302  -12.9095  -16.5422 C   0  0  1  0  0  0  0  0  0  0  0  0
   25.2526  -12.4644  -15.9984 C   0  0  0  0  0  0  0  0  0  0  0  0
   26.0129  -11.5234  -16.8422 C   0  0  0  0  0  0  0  0  0  0  0  0
   27.2997  -11.0733  -16.3128 C   0  0  0  0  0  0  0  0  0  0  0  0
   27.8429  -11.5045  -15.2986 O   0  0  0  0  0  0  0  0  0  0  0  0
   23.0686  -11.6837  -16.6512 C   0  0  0  0  0  0  0  0  0  0  0  0
   23.1928  -10.9531  -17.6516 O   0  0  0  0  0  0  0  0  0  0  0  0
   27.9874  -10.0662  -17.0053 O   0  0  0  0  0  0  0  0  0  0  0  0
   22.1485  -11.4163  -15.6019 N   0  0  0  0  0  0  0  0  0  0  0  0
   21.2194  -10.3334  -15.6839 C   0  0  1  0  0  0  0  0  0  0  0  0
   19.8932  -10.6273  -15.0065 C   0  0  0  0  0  0  0  0  0  0  0  0
   18.8822   -9.5871  -15.3225 C   0  0  0  0  0  0  0  0  0  0  0  0
   18.1409   -9.4840  -16.4780 C   0  0  0  0  0  0  0  0  0  0  0  0
   17.3327   -8.3938  -16.3732 N   0  0  0  0  0  0  0  0  0  0  0  0
   17.5446   -7.8130  -15.1914 C   0  0  0  0  0  0  0  0  0  0  0  0
   18.4951   -8.5437  -14.5450 N   0  0  0  0  0  0  0  0  0  0  0  0
   21.7857   -9.0626  -15.1031 C   0  0  0  0  0  0  0  0  0  0  0  0
   22.4757   -9.0614  -14.0531 O   0  0  0  0  0  0  0  0  0  0  0  0
   24.4976   -4.1828  -16.1082 N   0  0  0  0  0  0  0  0  0  0  0  0
   23.0968   -4.4630  -16.1248 C   0  0  0  0  0  0  0  0  0  0  0  0
   22.3167   -3.5119  -15.8711 O   0  0  0  0  0  0  0  0  0  0  0  0
   22.5730   -5.7940  -16.4224 C   0  0  0  0  0  0  0  0  0  0  0  0
   22.0929   -6.5681  -15.2102 C   0  0  2  0  0  0  0  0  0  0  0  0
   21.5554   -7.8120  -15.7311 N   0  0  0  0  0  0  0  0  0  0  0  0
   21.0884   -5.8266  -14.4155 C   0  0  0  0  0  0  0  0  0  0  0  0
   21.4246   -5.1268  -13.2680 O   0  0  0  0  0  0  0  0  0  0  0  0
   19.8752   -5.8112  -14.7674 O   0  0  0  0  0  0  0  0  0  0  0  0
  2  1  1  6
  2  3  1  0
  2  7  1  0
  3  4  1  0
  5  4  1  0
  5  6  2  0
  7 10  1  0
  8  7  2  0
  9  5  1  0
 10 11  1  0
 11 12  1  1
 12 13  1  0
 13 17  1  0
 14 13  2  0
 14 15  1  0
 15 16  1  0
 17 16  2  0
 18 19  2  0
 18 11  1  0
 20 21  1  0
 21 22  2  0
 23 21  1  0
 24 23  1  6
 24 25  1  0
 25 18  1  0
 26 24  1  0
 26 27  1  0
 28 26  2  0
M  END
$$$$
