EHN.pdb
     RDKit          3D

 28 28  0  0  1  0  0  0  0  0999 V2000
   22.9227  -31.9600  -11.5281 N   0  0  0  0  0  0  0  0  0  0  0  0
   23.0925  -33.3680  -11.7025 C   0  0  1  0  0  0  0  0  0  0  0  0
   23.9293  -33.7398  -12.8874 C   0  0  0  0  0  0  0  0  0  0  0  0
   23.3870  -33.3581  -14.2049 C   0  0  0  0  0  0  0  0  0  0  0  0
   22.3390  -34.2212  -14.7486 C   0  0  0  0  0  0  0  0  0  0  0  0
   22.3768  -35.4486  -14.7893 O   0  0  0  0  0  0  0  0  0  0  0  0
   23.7776  -33.9321  -10.4904 C   0  0  0  0  0  0  0  0  0  0  0  0
   23.8846  -35.1680  -10.3855 O   0  0  0  0  0  0  0  0  0  0  0  0
   21.1864  -33.6177  -15.2721 O   0  0  0  0  0  0  0  0  0  0  0  0
   24.2732  -33.0229   -9.5173 N   0  0  0  0  0  0  0  0  0  0  0  0
   24.8190  -33.4818   -8.2788 C   0  0  1  0  0  0  0  0  0  0  0  0
   25.6109  -32.4180   -7.5405 C   0  0  0  0  0  0  0  0  0  0  0  0
   26.2710  -32.9755   -6.3332 C   0  0  0  0  0  0  0  0  0  0  0  0
   26.2810  -34.2934   -5.9352 C   0  0  0  0  0  0  0  0  0  0  0  0
   26.9920  -34.3865   -4.7782 N   0  0  0  0  0  0  0  0  0  0  0  0
   27.4262  -33.1714   -4.4408 C   0  0  0  0  0  0  0  0  0  0  0  0
   26.9848  -32.3040   -5.3937 N   0  0  0  0  0  0  0  0  0  0  0  0
   23.7508  -34.0136   -7.3572 C   0  0  0  0  0  0  0  0  0  0  0  0
   22.5366  -33.7316   -7.5146 O   0  0  0  0  0  0  0  0  0  0  0  0
   19.9380  -37.3597   -5.8903 N   0  0  0  0  0  0  0  0  0  0  0  0
   21.3132  -37.1880   -5.5438 C   0  0  0  0  0  0  0  0  0  0  0  0
   21.7526  -37.8635   -4.5805 O   0  0  0  0  0  0  0  0  0  0  0  0
   22.1892  -36.2695   -6.2675 C   0  0  0  0  0  0  0  0  0  0  0  0
   23.0839  -35.4231   -5.3832 C   0  0  2  0  0  0  0  0  0  0  0  0
   24.0861  -34.8599   -6.2696 N   0  0  0  0  0  0  0  0  0  0  0  0
   23.6986  -36.1954   -4.2804 C   0  0  0  0  0  0  0  0  0  0  0  0
   23.1679  -36.2058   -3.0006 O   0  0  0  0  0  0  0  0  0  0  0  0
   24.7428  -36.8782   -4.4788 O   0  0  0  0  0  0  0  0  0  0  0  0
  2  1  1  1
  2  3  1  0
  2  7  1  0
  3  4  1  0
  5  4  1  0
  5  6  2  0
  7 10  1  0
  8  7  2  0
  9  5  1  0
 10 11  1  0
 11 12  1  1
 12 13  1  0
 13 17  1  0
 14 13  2  0
 14 15  1  0
 15 16  1  0
 17 16  2  0
 18 19  2  0
 18 11  1  0
 20 21  1  0
 21 22  2  0
 23 21  1  0
 24 23  1  6
 24 25  1  0
 25 18  1  0
 26 24  1  0
 26 27  1  0
 28 26  2  0
M  END
$$$$
