EHN.pdb
     RDKit          3D

 28 28  0  0  1  0  0  0  0  0999 V2000
   21.5787  -16.1820  -17.9504 N   0  0  0  0  0  0  0  0  0  0  0  0
   20.7689  -15.0049  -17.9335 C   0  0  1  0  0  0  0  0  0  0  0  0
   19.6772  -15.0296  -16.9087 C   0  0  0  0  0  0  0  0  0  0  0  0
   18.4151  -15.6682  -17.3267 C   0  0  0  0  0  0  0  0  0  0  0  0
   17.3040  -14.7678  -17.6326 C   0  0  0  0  0  0  0  0  0  0  0  0
   17.1759  -13.6233  -17.2045 O   0  0  0  0  0  0  0  0  0  0  0  0
   21.6358  -13.8190  -17.6188 C   0  0  0  0  0  0  0  0  0  0  0  0
   22.5024  -13.9310  -16.7320 O   0  0  0  0  0  0  0  0  0  0  0  0
   16.2895  -15.2297  -18.4836 O   0  0  0  0  0  0  0  0  0  0  0  0
   21.4238  -12.6208  -18.3525 N   0  0  0  0  0  0  0  0  0  0  0  0
   22.2572  -11.4751  -18.1650 C   0  0  1  0  0  0  0  0  0  0  0  0
   22.9271  -11.0040  -19.4430 C   0  0  0  0  0  0  0  0  0  0  0  0
   23.9466  -11.9771  -19.9098 C   0  0  0  0  0  0  0  0  0  0  0  0
   23.8285  -12.8483  -20.9692 C   0  0  0  0  0  0  0  0  0  0  0  0
   24.9802  -13.5676  -21.0633 N   0  0  0  0  0  0  0  0  0  0  0  0
   25.8132  -13.1747  -20.0984 C   0  0  0  0  0  0  0  0  0  0  0  0
   25.1808  -12.1987  -19.3895 N   0  0  0  0  0  0  0  0  0  0  0  0
   21.4968  -10.3196  -17.5656 C   0  0  0  0  0  0  0  0  0  0  0  0
   20.3885   -9.9443  -18.0234 O   0  0  0  0  0  0  0  0  0  0  0  0
   20.1925   -6.4716  -14.1701 N   0  0  0  0  0  0  0  0  0  0  0  0
   20.8797   -7.5708  -13.5699 C   0  0  0  0  0  0  0  0  0  0  0  0
   20.9588   -7.5849  -12.3165 O   0  0  0  0  0  0  0  0  0  0  0  0
   21.4732   -8.6445  -14.3634 C   0  0  0  0  0  0  0  0  0  0  0  0
   21.3257   -8.4756  -15.8630 C   0  0  2  0  0  0  0  0  0  0  0  0
   22.0138   -9.6103  -16.4516 N   0  0  0  0  0  0  0  0  0  0  0  0
   21.8701   -7.1894  -16.3528 C   0  0  0  0  0  0  0  0  0  0  0  0
   23.2158   -7.0159  -16.6333 O   0  0  0  0  0  0  0  0  0  0  0  0
   21.1097   -6.1966  -16.5314 O   0  0  0  0  0  0  0  0  0  0  0  0
  2  1  1  1
  2  3  1  0
  2  7  1  0
  3  4  1  0
  5  4  1  0
  5  6  2  0
  7 10  1  0
  8  7  2  0
  9  5  1  0
 10 11  1  0
 11 12  1  6
 12 13  1  0
 13 17  1  0
 14 13  2  0
 14 15  1  0
 15 16  1  0
 17 16  2  0
 18 19  2  0
 18 11  1  0
 20 21  1  0
 21 22  2  0
 23 21  1  0
 24 23  1  1
 24 25  1  0
 25 18  1  0
 26 24  1  0
 26 27  1  0
 28 26  2  0
M  END
$$$$
