EHN.pdb
     RDKit          3D

 28 28  0  0  1  0  0  0  0  0999 V2000
   21.6586  -14.8996  -15.8299 N   0  0  0  0  0  0  0  0  0  0  0  0
   20.7976  -13.8321  -16.2309 C   0  0  1  0  0  0  0  0  0  0  0  0
   19.4023  -13.9401  -15.6981 C   0  0  0  0  0  0  0  0  0  0  0  0
   18.6532  -15.1477  -16.0931 C   0  0  0  0  0  0  0  0  0  0  0  0
   17.2359  -15.1771  -15.7336 C   0  0  0  0  0  0  0  0  0  0  0  0
   16.6317  -14.2840  -15.1446 O   0  0  0  0  0  0  0  0  0  0  0  0
   21.3589  -12.5340  -15.7239 C   0  0  0  0  0  0  0  0  0  0  0  0
   21.6995  -12.4565  -14.5290 O   0  0  0  0  0  0  0  0  0  0  0  0
   16.4857  -16.3100  -16.0809 O   0  0  0  0  0  0  0  0  0  0  0  0
   21.4747  -11.4520  -16.6377 N   0  0  0  0  0  0  0  0  0  0  0  0
   22.0665  -10.2102  -16.2505 C   0  0  1  0  0  0  0  0  0  0  0  0
   23.3927   -9.9371  -16.9366 C   0  0  0  0  0  0  0  0  0  0  0  0
   24.4595  -10.8362  -16.4291 C   0  0  0  0  0  0  0  0  0  0  0  0
   25.0370  -11.8896  -17.1017 C   0  0  0  0  0  0  0  0  0  0  0  0
   25.9694  -12.4577  -16.2890 N   0  0  0  0  0  0  0  0  0  0  0  0
   25.9934  -11.7946  -15.1320 C   0  0  0  0  0  0  0  0  0  0  0  0
   25.0677  -10.7991  -15.2159 N   0  0  0  0  0  0  0  0  0  0  0  0
   21.1439   -9.0452  -16.5043 C   0  0  0  0  0  0  0  0  0  0  0  0
   20.5686   -8.8814  -17.6092 O   0  0  0  0  0  0  0  0  0  0  0  0
   17.0379   -6.0837  -17.1459 N   0  0  0  0  0  0  0  0  0  0  0  0
   17.4967   -6.6701  -15.9267 C   0  0  0  0  0  0  0  0  0  0  0  0
   16.9018   -6.3414  -14.8705 O   0  0  0  0  0  0  0  0  0  0  0  0
   18.6102   -7.6153  -15.8885 C   0  0  0  0  0  0  0  0  0  0  0  0
   19.9703   -6.9790  -15.6786 C   0  0  2  0  0  0  0  0  0  0  0  0
   20.8922   -8.0847  -15.4916 N   0  0  0  0  0  0  0  0  0  0  0  0
   19.9963   -6.0431  -14.5323 C   0  0  0  0  0  0  0  0  0  0  0  0
   20.7677   -6.2769  -13.4054 O   0  0  0  0  0  0  0  0  0  0  0  0
   19.3035   -4.9870  -14.5497 O   0  0  0  0  0  0  0  0  0  0  0  0
  2  1  1  1
  2  3  1  0
  2  7  1  0
  3  4  1  0
  5  4  1  0
  5  6  2  0
  7 10  1  0
  8  7  2  0
  9  5  1  0
 10 11  1  0
 11 12  1  6
 12 13  1  0
 13 17  1  0
 14 13  2  0
 14 15  1  0
 15 16  1  0
 17 16  2  0
 18 19  2  0
 18 11  1  0
 20 21  1  0
 21 22  2  0
 23 21  1  0
 24 23  1  1
 24 25  1  0
 25 18  1  0
 26 24  1  0
 26 27  1  0
 28 26  2  0
M  END
$$$$
