ALE.pdb
     RDKit          3D

 23 22  0  0  1  0  0  0  0  0999 V2000
    7.2295  -16.7241   20.4001 C   0  0  0  0  0  0  0  0  0  0  0  0
    7.7125  -15.2862   20.3731 C   0  0  2  0  0  0  0  0  0  0  0  0
    8.8047  -15.2246   19.4405 N   0  0  0  0  0  0  0  0  0  0  0  0
    8.1954  -14.9705   21.7655 C   0  0  0  0  0  0  0  0  0  0  0  0
    9.3940  -15.1788   22.0808 O   0  0  0  0  0  0  0  0  0  0  0  0
    7.8007  -11.9237   26.5960 C   0  0  0  0  0  0  0  0  0  0  0  0
    6.7716  -12.8696   26.1078 C   0  0  1  0  0  0  0  0  0  0  0  0
    5.3720  -12.3630   26.4965 C   0  0  0  0  0  0  0  0  0  0  0  0
    6.7227  -13.2482   24.7062 C   0  0  0  0  0  0  0  0  0  0  0  0
    7.7677  -14.1186   24.1251 C   0  0  2  0  0  0  0  0  0  0  0  0
    7.3296  -14.4450   22.7254 N   0  0  0  0  0  0  0  0  0  0  0  0
    8.0049  -15.4021   24.7699 C   0  0  0  0  0  0  0  0  0  0  0  0
    7.1683  -16.3704   24.6682 O   0  0  0  0  0  0  0  0  0  0  0  0
    9.1493  -15.6854   25.5273 N   0  0  0  0  0  0  0  0  0  0  0  0
    9.4251  -17.0166   26.1097 C   0  0  1  0  0  0  0  0  0  0  0  0
    9.8727  -17.8299   24.9287 C   0  0  0  0  0  0  0  0  0  0  0  0
   11.2047  -17.5270   24.3886 C   0  0  0  0  0  0  0  0  0  0  0  0
   11.7190  -18.3874   23.3255 C   0  0  0  0  0  0  0  0  0  0  0  0
   12.8320  -18.0951   22.7772 O   0  0  0  0  0  0  0  0  0  0  0  0
   10.2788  -17.0474   27.2516 C   0  0  0  0  0  0  0  0  0  0  0  0
   10.6204  -18.0526   27.8992 O   0  0  0  0  0  0  0  0  0  0  0  0
   11.0638  -19.5033   22.8802 O   0  0  0  0  0  0  0  0  0  0  0  0
   10.8310  -15.8306   27.7339 O   0  0  0  0  0  0  0  0  0  0  0  0
  2  1  1  1
  3  2  1  0
  4  5  2  0
  4  2  1  0
  7  6  1  6
  7  8  1  0
  7  9  1  0
 10  9  1  1
 10 11  1  0
 11  4  1  0
 12 13  2  0
 12 10  1  0
 14 12  1  0
 15 16  1  6
 15 14  1  0
 17 18  1  0
 17 16  1  0
 18 19  2  0
 20 15  1  0
 21 20  2  0
 22 18  1  0
 23 20  1  0
M  END
$$$$
