ALE.pdb
     RDKit          3D

 23 22  0  0  1  0  0  0  0  0999 V2000
    6.4260  -17.9464   21.4889 C   0  0  0  0  0  0  0  0  0  0  0  0
    6.4295  -16.4655   21.1598 C   0  0  2  0  0  0  0  0  0  0  0  0
    7.0129  -16.3241   19.8537 N   0  0  0  0  0  0  0  0  0  0  0  0
    7.2979  -15.7987   22.1956 C   0  0  0  0  0  0  0  0  0  0  0  0
    8.5392  -15.7131   22.0187 O   0  0  0  0  0  0  0  0  0  0  0  0
    7.9899  -11.8231   26.1853 C   0  0  0  0  0  0  0  0  0  0  0  0
    7.0880  -12.9857   26.3495 C   0  0  1  0  0  0  0  0  0  0  0  0
    5.8462  -12.5716   27.1575 C   0  0  0  0  0  0  0  0  0  0  0  0
    6.6242  -13.7293   25.1910 C   0  0  0  0  0  0  0  0  0  0  0  0
    7.5664  -14.5431   24.3927 C   0  0  2  0  0  0  0  0  0  0  0  0
    6.7471  -15.2671   23.3621 N   0  0  0  0  0  0  0  0  0  0  0  0
    8.3172  -15.5763   25.0917 C   0  0  0  0  0  0  0  0  0  0  0  0
    7.7477  -16.6381   25.5344 O   0  0  0  0  0  0  0  0  0  0  0  0
    9.6977  -15.5051   25.3214 N   0  0  0  0  0  0  0  0  0  0  0  0
   10.4806  -16.6197   25.8977 C   0  0  1  0  0  0  0  0  0  0  0  0
   11.7873  -16.5484   25.1599 C   0  0  0  0  0  0  0  0  0  0  0  0
   12.3140  -17.8139   24.6318 C   0  0  0  0  0  0  0  0  0  0  0  0
   13.6063  -17.7808   23.9507 C   0  0  0  0  0  0  0  0  0  0  0  0
   14.2322  -16.6736   23.8652 O   0  0  0  0  0  0  0  0  0  0  0  0
   10.5660  -16.6688   27.3204 C   0  0  0  0  0  0  0  0  0  0  0  0
   10.3293  -15.7405   28.1132 O   0  0  0  0  0  0  0  0  0  0  0  0
   14.1891  -18.8861   23.3926 O   0  0  0  0  0  0  0  0  0  0  0  0
   10.9474  -17.8851   27.9475 O   0  0  0  0  0  0  0  0  0  0  0  0
  2  1  1  1
  3  2  1  0
  4  5  2  0
  4  2  1  0
  7  6  1  6
  7  8  1  0
  7  9  1  0
 10  9  1  1
 10 11  1  0
 11  4  1  0
 12 13  2  0
 12 10  1  0
 14 12  1  0
 15 16  1  6
 15 14  1  0
 17 18  1  0
 17 16  1  0
 18 19  2  0
 20 15  1  0
 21 20  2  0
 22 18  1  0
 23 20  1  0
M  END
$$$$
