ALE.pdb
     RDKit          3D

 23 22  0  0  1  0  0  0  0  0999 V2000
    6.7408  -14.2403   19.3556 C   0  0  0  0  0  0  0  0  0  0  0  0
    7.1141  -15.3881   20.2747 C   0  0  2  0  0  0  0  0  0  0  0  0
    5.8866  -15.9833   20.7277 N   0  0  0  0  0  0  0  0  0  0  0  0
    7.8609  -14.7820   21.4352 C   0  0  0  0  0  0  0  0  0  0  0  0
    9.0121  -14.3070   21.2666 O   0  0  0  0  0  0  0  0  0  0  0  0
    8.1437  -12.1931   26.3866 C   0  0  0  0  0  0  0  0  0  0  0  0
    7.4363  -13.4886   26.2711 C   0  0  1  0  0  0  0  0  0  0  0  0
    6.1858  -13.4810   27.1671 C   0  0  0  0  0  0  0  0  0  0  0  0
    7.0357  -13.9973   24.9707 C   0  0  0  0  0  0  0  0  0  0  0  0
    8.0425  -14.2400   23.9150 C   0  0  2  0  0  0  0  0  0  0  0  0
    7.2948  -14.7357   22.7097 N   0  0  0  0  0  0  0  0  0  0  0  0
    9.0636  -15.2431   24.1814 C   0  0  0  0  0  0  0  0  0  0  0  0
    9.7759  -15.7444   23.2386 O   0  0  0  0  0  0  0  0  0  0  0  0
    9.3569  -15.7237   25.4647 N   0  0  0  0  0  0  0  0  0  0  0  0
   10.4542  -16.6760   25.7408 C   0  0  1  0  0  0  0  0  0  0  0  0
   11.6379  -16.0551   25.0551 C   0  0  0  0  0  0  0  0  0  0  0  0
   12.9352  -16.7136   25.2581 C   0  0  0  0  0  0  0  0  0  0  0  0
   13.7419  -17.0053   24.0752 C   0  0  0  0  0  0  0  0  0  0  0  0
   14.6682  -16.1950   23.7430 O   0  0  0  0  0  0  0  0  0  0  0  0
   10.6446  -17.0502   27.1037 C   0  0  0  0  0  0  0  0  0  0  0  0
   10.6393  -16.2945   28.0912 O   0  0  0  0  0  0  0  0  0  0  0  0
   13.5558  -18.1137   23.2944 O   0  0  0  0  0  0  0  0  0  0  0  0
   10.8562  -18.4186   27.4208 O   0  0  0  0  0  0  0  0  0  0  0  0
  2  1  1  6
  3  2  1  0
  4  5  2  0
  4  2  1  0
  7  6  1  6
  7  8  1  0
  7  9  1  0
 10  9  1  1
 10 11  1  0
 11  4  1  0
 12 13  2  0
 12 10  1  0
 14 12  1  0
 15 16  1  1
 15 14  1  0
 17 18  1  0
 17 16  1  0
 18 19  2  0
 20 15  1  0
 21 20  2  0
 22 18  1  0
 23 20  1  0
M  END
$$$$
