ALE.pdb
     RDKit          3D

 23 22  0  0  1  0  0  0  0  0999 V2000
    8.0574  -18.0268   21.6858 C   0  0  0  0  0  0  0  0  0  0  0  0
    7.8414  -16.5689   21.3259 C   0  0  2  0  0  0  0  0  0  0  0  0
    8.5750  -16.3193   20.1152 N   0  0  0  0  0  0  0  0  0  0  0  0
    8.4135  -15.7584   22.4606 C   0  0  0  0  0  0  0  0  0  0  0  0
    9.6439  -15.5055   22.4985 O   0  0  0  0  0  0  0  0  0  0  0  0
    7.9057  -11.5546   26.1918 C   0  0  0  0  0  0  0  0  0  0  0  0
    7.0872  -12.7856   26.2740 C   0  0  1  0  0  0  0  0  0  0  0  0
    5.6711  -12.4380   26.7643 C   0  0  0  0  0  0  0  0  0  0  0  0
    6.9456  -13.6561   25.1198 C   0  0  0  0  0  0  0  0  0  0  0  0
    8.1098  -14.3989   24.5902 C   0  0  2  0  0  0  0  0  0  0  0  0
    7.5964  -15.2760   23.4836 N   0  0  0  0  0  0  0  0  0  0  0  0
    8.8070  -15.2914   25.5050 C   0  0  0  0  0  0  0  0  0  0  0  0
    8.2591  -16.3659   25.9444 O   0  0  0  0  0  0  0  0  0  0  0  0
   10.1124  -15.0633   25.9606 N   0  0  0  0  0  0  0  0  0  0  0  0
   10.8197  -15.9794   26.8815 C   0  0  1  0  0  0  0  0  0  0  0  0
   12.2470  -15.9089   26.4182 C   0  0  0  0  0  0  0  0  0  0  0  0
   12.5138  -16.3460   25.0415 C   0  0  0  0  0  0  0  0  0  0  0  0
   13.8904  -16.2677   24.5581 C   0  0  0  0  0  0  0  0  0  0  0  0
   14.7991  -15.8438   25.3451 O   0  0  0  0  0  0  0  0  0  0  0  0
   10.6024  -15.7733   28.2758 C   0  0  0  0  0  0  0  0  0  0  0  0
   10.0399  -14.7992   28.8059 O   0  0  0  0  0  0  0  0  0  0  0  0
   14.2629  -16.6285   23.2916 O   0  0  0  0  0  0  0  0  0  0  0  0
   11.0473  -16.7590   29.1969 O   0  0  0  0  0  0  0  0  0  0  0  0
  2  1  1  1
  3  2  1  0
  4  5  2  0
  4  2  1  0
  7  6  1  6
  7  8  1  0
  7  9  1  0
 10  9  1  1
 10 11  1  0
 11  4  1  0
 12 13  2  0
 12 10  1  0
 14 12  1  0
 15 16  1  1
 15 14  1  0
 17 18  1  0
 17 16  1  0
 18 19  2  0
 20 15  1  0
 21 20  2  0
 22 18  1  0
 23 20  1  0
M  END
$$$$
