ALE.pdb
     RDKit          3D

 23 22  0  0  1  0  0  0  0  0999 V2000
    9.6474  -19.2191   17.8067 C   0  0  0  0  0  0  0  0  0  0  0  0
    9.4956  -17.8186   17.2437 C   0  0  2  0  0  0  0  0  0  0  0  0
   10.3531  -17.7301   16.0934 N   0  0  0  0  0  0  0  0  0  0  0  0
    9.9636  -16.8718   18.3189 C   0  0  0  0  0  0  0  0  0  0  0  0
   11.1881  -16.6220   18.4513 O   0  0  0  0  0  0  0  0  0  0  0  0
    6.3974  -12.9571   20.0783 C   0  0  0  0  0  0  0  0  0  0  0  0
    7.7336  -13.5368   19.8127 C   0  0  1  0  0  0  0  0  0  0  0  0
    8.7796  -12.4128   19.7173 C   0  0  0  0  0  0  0  0  0  0  0  0
    8.2786  -14.5643   20.6831 C   0  0  0  0  0  0  0  0  0  0  0  0
    9.4800  -15.3289   20.2841 C   0  0  2  0  0  0  0  0  0  0  0  0
    9.0553  -16.2581   19.1823 N   0  0  0  0  0  0  0  0  0  0  0  0
   10.1001  -16.1761   21.2927 C   0  0  0  0  0  0  0  0  0  0  0  0
    9.6158  -17.3257   21.5954 O   0  0  0  0  0  0  0  0  0  0  0  0
   11.2612  -15.8200   21.9918 N   0  0  0  0  0  0  0  0  0  0  0  0
   11.8618  -16.6650   23.0466 C   0  0  1  0  0  0  0  0  0  0  0  0
   13.3390  -16.4861   22.8401 C   0  0  0  0  0  0  0  0  0  0  0  0
   14.2241  -17.1978   23.7718 C   0  0  0  0  0  0  0  0  0  0  0  0
   15.6657  -17.0339   23.5993 C   0  0  0  0  0  0  0  0  0  0  0  0
   16.2109  -15.9386   23.9574 O   0  0  0  0  0  0  0  0  0  0  0  0
   11.3853  -16.4598   24.3749 C   0  0  0  0  0  0  0  0  0  0  0  0
   10.7463  -15.4787   24.7938 O   0  0  0  0  0  0  0  0  0  0  0  0
   16.4731  -18.0028   23.0681 O   0  0  0  0  0  0  0  0  0  0  0  0
   11.6315  -17.4552   25.3581 O   0  0  0  0  0  0  0  0  0  0  0  0
  2  1  1  1
  3  2  1  0
  4  5  2  0
  4  2  1  0
  7  6  1  1
  7  8  1  0
  7  9  1  0
 10  9  1  1
 10 11  1  0
 11  4  1  0
 12 13  2  0
 12 10  1  0
 14 12  1  0
 15 16  1  1
 15 14  1  0
 17 18  1  0
 17 16  1  0
 18 19  2  0
 20 15  1  0
 21 20  2  0
 22 18  1  0
 23 20  1  0
M  END
$$$$
