ALE.pdb
     RDKit          3D

 23 22  0  0  1  0  0  0  0  0999 V2000
    7.8734  -17.3632   21.3941 C   0  0  0  0  0  0  0  0  0  0  0  0
    7.3167  -15.9536   21.3253 C   0  0  2  0  0  0  0  0  0  0  0  0
    7.6123  -15.4459   20.0133 N   0  0  0  0  0  0  0  0  0  0  0  0
    8.0473  -15.1530   22.3726 C   0  0  0  0  0  0  0  0  0  0  0  0
    9.0603  -14.4785   22.0594 O   0  0  0  0  0  0  0  0  0  0  0  0
    5.5152  -12.5256   26.8468 C   0  0  0  0  0  0  0  0  0  0  0  0
    6.4671  -12.8402   25.7573 C   0  0  1  0  0  0  0  0  0  0  0  0
    7.4357  -11.6623   25.5555 C   0  0  0  0  0  0  0  0  0  0  0  0
    7.2632  -14.0545   25.8007 C   0  0  0  0  0  0  0  0  0  0  0  0
    8.2856  -14.3213   24.7659 C   0  0  2  0  0  0  0  0  0  0  0  0
    7.6182  -15.1440   23.7003 N   0  0  0  0  0  0  0  0  0  0  0  0
    9.4617  -15.0802   25.1665 C   0  0  0  0  0  0  0  0  0  0  0  0
   10.1637  -14.7433   26.1871 O   0  0  0  0  0  0  0  0  0  0  0  0
    9.9069  -16.2258   24.4936 N   0  0  0  0  0  0  0  0  0  0  0  0
   10.9381  -17.1350   25.0389 C   0  0  1  0  0  0  0  0  0  0  0  0
   10.3768  -17.5423   26.3715 C   0  0  0  0  0  0  0  0  0  0  0  0
   11.1230  -18.5672   27.1137 C   0  0  0  0  0  0  0  0  0  0  0  0
   10.6359  -18.9346   28.4414 C   0  0  0  0  0  0  0  0  0  0  0  0
   11.0238  -18.2600   29.4511 O   0  0  0  0  0  0  0  0  0  0  0  0
   11.3651  -18.1967   24.1878 C   0  0  0  0  0  0  0  0  0  0  0  0
   10.7002  -18.7470   23.2927 O   0  0  0  0  0  0  0  0  0  0  0  0
    9.7759  -19.9756   28.6638 O   0  0  0  0  0  0  0  0  0  0  0  0
   12.6827  -18.7083   24.3303 O   0  0  0  0  0  0  0  0  0  0  0  0
  2  1  1  6
  3  2  1  0
  4  5  2  0
  4  2  1  0
  7  6  1  1
  7  8  1  0
  7  9  1  0
 10  9  1  1
 10 11  1  0
 11  4  1  0
 12 13  2  0
 12 10  1  0
 14 12  1  0
 15 16  1  1
 15 14  1  0
 17 18  1  0
 17 16  1  0
 18 19  2  0
 20 15  1  0
 21 20  2  0
 22 18  1  0
 23 20  1  0
M  END
$$$$
