ALE.pdb
     RDKit          3D

 23 22  0  0  1  0  0  0  0  0999 V2000
   11.0366  -16.2766   16.1172 C   0  0  0  0  0  0  0  0  0  0  0  0
   10.6525  -17.1623   17.2876 C   0  0  2  0  0  0  0  0  0  0  0  0
    9.2680  -17.5098   17.1181 N   0  0  0  0  0  0  0  0  0  0  0  0
   10.8345  -16.3309   18.5315 C   0  0  0  0  0  0  0  0  0  0  0  0
   11.9880  -16.0109   18.9142 O   0  0  0  0  0  0  0  0  0  0  0  0
    6.3966  -13.3482   20.0402 C   0  0  0  0  0  0  0  0  0  0  0  0
    7.8312  -13.6673   19.8608 C   0  0  1  0  0  0  0  0  0  0  0  0
    8.6433  -12.3663   19.7409 C   0  0  0  0  0  0  0  0  0  0  0  0
    8.5209  -14.5239   20.8098 C   0  0  0  0  0  0  0  0  0  0  0  0
    9.8699  -15.0491   20.5070 C   0  0  2  0  0  0  0  0  0  0  0  0
    9.7360  -15.9027   19.2778 N   0  0  0  0  0  0  0  0  0  0  0  0
   10.4972  -15.9004   21.5078 C   0  0  0  0  0  0  0  0  0  0  0  0
   10.2575  -17.1602   21.5645 O   0  0  0  0  0  0  0  0  0  0  0  0
   11.4068  -15.4271   22.4629 N   0  0  0  0  0  0  0  0  0  0  0  0
   12.1916  -16.3185   23.3442 C   0  0  1  0  0  0  0  0  0  0  0  0
   13.6147  -15.9358   23.0521 C   0  0  0  0  0  0  0  0  0  0  0  0
   14.6555  -16.6560   23.7975 C   0  0  0  0  0  0  0  0  0  0  0  0
   16.0487  -16.3071   23.5290 C   0  0  0  0  0  0  0  0  0  0  0  0
   16.3045  -15.3945   22.6764 O   0  0  0  0  0  0  0  0  0  0  0  0
   11.8189  -16.3421   24.7205 C   0  0  0  0  0  0  0  0  0  0  0  0
   12.2315  -17.1291   25.5904 O   0  0  0  0  0  0  0  0  0  0  0  0
   17.1073  -16.9131   24.1494 O   0  0  0  0  0  0  0  0  0  0  0  0
   10.8899  -15.3807   25.2008 O   0  0  0  0  0  0  0  0  0  0  0  0
  2  1  1  6
  3  2  1  0
  4  5  2  0
  4  2  1  0
  7  6  1  1
  7  8  1  0
  7  9  1  0
 10  9  1  1
 10 11  1  0
 11  4  1  0
 12 13  2  0
 12 10  1  0
 14 12  1  0
 15 16  1  1
 15 14  1  0
 17 18  1  0
 17 16  1  0
 18 19  2  0
 20 15  1  0
 21 20  2  0
 22 18  1  0
 23 20  1  0
M  END
$$$$
