ALE.pdb
     RDKit          3D

 23 22  0  0  1  0  0  0  0  0999 V2000
    9.4584  -19.5876   18.6049 C   0  0  0  0  0  0  0  0  0  0  0  0
    9.0981  -18.2307   18.0300 C   0  0  2  0  0  0  0  0  0  0  0  0
    9.7523  -18.1248   16.7544 N   0  0  0  0  0  0  0  0  0  0  0  0
    9.6455  -17.2017   18.9856 C   0  0  0  0  0  0  0  0  0  0  0  0
   10.8817  -16.9810   19.0359 O   0  0  0  0  0  0  0  0  0  0  0  0
    6.4045  -12.8852   20.1557 C   0  0  0  0  0  0  0  0  0  0  0  0
    7.6762  -13.6234   19.9833 C   0  0  1  0  0  0  0  0  0  0  0  0
    8.8097  -12.6380   19.6509 C   0  0  0  0  0  0  0  0  0  0  0  0
    8.1628  -14.5090   21.0269 C   0  0  0  0  0  0  0  0  0  0  0  0
    9.2981  -15.4214   20.7705 C   0  0  2  0  0  0  0  0  0  0  0  0
    8.7990  -16.4788   19.8268 N   0  0  0  0  0  0  0  0  0  0  0  0
    9.8483  -16.1422   21.9096 C   0  0  0  0  0  0  0  0  0  0  0  0
    9.2511  -17.1610   22.4128 O   0  0  0  0  0  0  0  0  0  0  0  0
   11.0575  -15.7991   22.5290 N   0  0  0  0  0  0  0  0  0  0  0  0
   11.5518  -16.4559   23.7584 C   0  0  1  0  0  0  0  0  0  0  0  0
   12.9942  -16.0406   23.8220 C   0  0  0  0  0  0  0  0  0  0  0  0
   13.8773  -16.5686   22.7736 C   0  0  0  0  0  0  0  0  0  0  0  0
   15.2030  -15.9699   22.6363 C   0  0  0  0  0  0  0  0  0  0  0  0
   16.0650  -16.1581   23.5564 O   0  0  0  0  0  0  0  0  0  0  0  0
   10.7867  -16.2469   24.9435 C   0  0  0  0  0  0  0  0  0  0  0  0
    9.8437  -15.4497   25.0903 O   0  0  0  0  0  0  0  0  0  0  0  0
   15.5752  -15.2087   21.5616 O   0  0  0  0  0  0  0  0  0  0  0  0
   11.0865  -17.0115   26.1027 O   0  0  0  0  0  0  0  0  0  0  0  0
  2  1  1  1
  3  2  1  0
  4  5  2  0
  4  2  1  0
  7  6  1  1
  7  8  1  0
  7  9  1  0
 10  9  1  1
 10 11  1  0
 11  4  1  0
 12 13  2  0
 12 10  1  0
 14 12  1  0
 15 16  1  1
 15 14  1  0
 17 18  1  0
 17 16  1  0
 18 19  2  0
 20 15  1  0
 21 20  2  0
 22 18  1  0
 23 20  1  0
M  END
$$$$
