ALE.pdb
     RDKit          3D

 23 22  0  0  1  0  0  0  0  0999 V2000
    9.4195  -19.2174   17.7308 C   0  0  0  0  0  0  0  0  0  0  0  0
    9.3667  -17.8090   17.1692 C   0  0  2  0  0  0  0  0  0  0  0  0
   10.2393  -17.7763   16.0274 N   0  0  0  0  0  0  0  0  0  0  0  0
    9.8862  -16.8970   18.2508 C   0  0  0  0  0  0  0  0  0  0  0  0
   11.1224  -16.7978   18.4535 O   0  0  0  0  0  0  0  0  0  0  0  0
    6.6576  -12.6494   19.7413 C   0  0  0  0  0  0  0  0  0  0  0  0
    7.9183  -13.3961   19.5287 C   0  0  1  0  0  0  0  0  0  0  0  0
    9.0740  -12.4095   19.2886 C   0  0  0  0  0  0  0  0  0  0  0  0
    8.3738  -14.3688   20.5067 C   0  0  0  0  0  0  0  0  0  0  0  0
    9.4811  -15.2956   20.1867 C   0  0  2  0  0  0  0  0  0  0  0  0
    9.0133  -16.1501   19.0428 N   0  0  0  0  0  0  0  0  0  0  0  0
    9.8963  -16.2268   21.2260 C   0  0  0  0  0  0  0  0  0  0  0  0
    9.0894  -17.1020   21.7060 O   0  0  0  0  0  0  0  0  0  0  0  0
   11.1888  -16.2534   21.7667 N   0  0  0  0  0  0  0  0  0  0  0  0
   11.5514  -17.0520   22.9575 C   0  0  1  0  0  0  0  0  0  0  0  0
   11.9636  -18.3759   22.3794 C   0  0  0  0  0  0  0  0  0  0  0  0
   12.7305  -18.3364   21.1272 C   0  0  0  0  0  0  0  0  0  0  0  0
   13.2654  -19.5970   20.6176 C   0  0  0  0  0  0  0  0  0  0  0  0
   12.8220  -20.0560   19.5141 O   0  0  0  0  0  0  0  0  0  0  0  0
   12.4694  -16.4535   23.8701 C   0  0  0  0  0  0  0  0  0  0  0  0
   12.8513  -16.9217   24.9570 O   0  0  0  0  0  0  0  0  0  0  0  0
   14.2278  -20.3213   21.2673 O   0  0  0  0  0  0  0  0  0  0  0  0
   13.0441  -15.1955   23.5457 O   0  0  0  0  0  0  0  0  0  0  0  0
  2  1  1  1
  3  2  1  0
  4  5  2  0
  4  2  1  0
  7  6  1  1
  7  8  1  0
  7  9  1  0
 10  9  1  1
 10 11  1  0
 11  4  1  0
 12 13  2  0
 12 10  1  0
 14 12  1  0
 15 16  1  6
 15 14  1  0
 17 18  1  0
 17 16  1  0
 18 19  2  0
 20 15  1  0
 21 20  2  0
 22 18  1  0
 23 20  1  0
M  END
$$$$
