ALE.pdb
     RDKit          3D

 23 22  0  0  1  0  0  0  0  0999 V2000
    7.5243  -17.1877   21.5098 C   0  0  0  0  0  0  0  0  0  0  0  0
    6.9388  -15.7884   21.4825 C   0  0  2  0  0  0  0  0  0  0  0  0
    7.0707  -15.3012   20.1365 N   0  0  0  0  0  0  0  0  0  0  0  0
    7.7723  -14.9570   22.4236 C   0  0  0  0  0  0  0  0  0  0  0  0
    8.7533  -14.3031   21.9887 O   0  0  0  0  0  0  0  0  0  0  0  0
    5.7124  -12.0176   26.8819 C   0  0  0  0  0  0  0  0  0  0  0  0
    6.5903  -12.4355   25.7655 C   0  0  1  0  0  0  0  0  0  0  0  0
    7.5928  -11.3140   25.4431 C   0  0  0  0  0  0  0  0  0  0  0  0
    7.3386  -13.6784   25.8404 C   0  0  0  0  0  0  0  0  0  0  0  0
    8.2661  -14.0649   24.7552 C   0  0  2  0  0  0  0  0  0  0  0  0
    7.4749  -14.8964   23.7856 N   0  0  0  0  0  0  0  0  0  0  0  0
    9.4187  -14.8772   25.1172 C   0  0  0  0  0  0  0  0  0  0  0  0
   10.1397  -14.6021   26.1430 O   0  0  0  0  0  0  0  0  0  0  0  0
    9.8195  -16.0117   24.3988 N   0  0  0  0  0  0  0  0  0  0  0  0
   10.8796  -16.9316   24.8647 C   0  0  1  0  0  0  0  0  0  0  0  0
   10.3876  -17.3800   26.2114 C   0  0  0  0  0  0  0  0  0  0  0  0
   11.1831  -18.4102   26.8925 C   0  0  0  0  0  0  0  0  0  0  0  0
   10.7298  -18.8609   28.2063 C   0  0  0  0  0  0  0  0  0  0  0  0
    9.7814  -19.7099   28.2757 O   0  0  0  0  0  0  0  0  0  0  0  0
   11.2664  -17.9662   23.9626 C   0  0  0  0  0  0  0  0  0  0  0  0
   12.3260  -18.6167   23.9855 O   0  0  0  0  0  0  0  0  0  0  0  0
   11.2735  -18.4167   29.3810 O   0  0  0  0  0  0  0  0  0  0  0  0
   10.3798  -18.3372   22.9165 O   0  0  0  0  0  0  0  0  0  0  0  0
  2  1  1  6
  3  2  1  0
  4  5  2  0
  4  2  1  0
  7  6  1  1
  7  8  1  0
  7  9  1  0
 10  9  1  1
 10 11  1  0
 11  4  1  0
 12 13  2  0
 12 10  1  0
 14 12  1  0
 15 16  1  1
 15 14  1  0
 17 18  1  0
 17 16  1  0
 18 19  2  0
 20 15  1  0
 21 20  2  0
 22 18  1  0
 23 20  1  0
M  END
$$$$
