ALE.pdb
     RDKit          3D

 23 22  0  0  1  0  0  0  0  0999 V2000
    7.6955  -13.0801   19.5926 C   0  0  0  0  0  0  0  0  0  0  0  0
    7.5940  -14.4420   20.2531 C   0  0  2  0  0  0  0  0  0  0  0  0
    6.1966  -14.7685   20.3361 N   0  0  0  0  0  0  0  0  0  0  0  0
    8.1792  -14.2929   21.6340 C   0  0  0  0  0  0  0  0  0  0  0  0
    9.4237  -14.2092   21.7870 O   0  0  0  0  0  0  0  0  0  0  0  0
    7.9749  -12.0407   26.7790 C   0  0  0  0  0  0  0  0  0  0  0  0
    6.9759  -13.0297   26.3143 C   0  0  1  0  0  0  0  0  0  0  0  0
    5.5869  -12.6659   26.8664 C   0  0  0  0  0  0  0  0  0  0  0  0
    6.8200  -13.3116   24.8979 C   0  0  0  0  0  0  0  0  0  0  0  0
    7.8908  -14.0006   24.1455 C   0  0  2  0  0  0  0  0  0  0  0  0
    7.3588  -14.2450   22.7617 N   0  0  0  0  0  0  0  0  0  0  0  0
    8.3214  -15.3026   24.6345 C   0  0  0  0  0  0  0  0  0  0  0  0
    7.4966  -16.2771   24.7678 O   0  0  0  0  0  0  0  0  0  0  0  0
    9.6472  -15.5975   24.9791 N   0  0  0  0  0  0  0  0  0  0  0  0
   10.1091  -16.9587   25.3271 C   0  0  1  0  0  0  0  0  0  0  0  0
   11.1803  -17.2358   24.3110 C   0  0  0  0  0  0  0  0  0  0  0  0
   11.9069  -18.5047   24.4509 C   0  0  0  0  0  0  0  0  0  0  0  0
   12.9918  -18.7742   23.5100 C   0  0  0  0  0  0  0  0  0  0  0  0
   13.2610  -17.9100   22.6124 O   0  0  0  0  0  0  0  0  0  0  0  0
   10.4654  -17.1811   26.6899 C   0  0  0  0  0  0  0  0  0  0  0  0
   10.5896  -18.2806   27.2574 O   0  0  0  0  0  0  0  0  0  0  0  0
   13.7440  -19.9171   23.5390 O   0  0  0  0  0  0  0  0  0  0  0  0
   10.7260  -16.0630   27.5267 O   0  0  0  0  0  0  0  0  0  0  0  0
  2  1  1  6
  3  2  1  0
  4  5  2  0
  4  2  1  0
  7  6  1  6
  7  8  1  0
  7  9  1  0
 10  9  1  1
 10 11  1  0
 11  4  1  0
 12 13  2  0
 12 10  1  0
 14 12  1  0
 15 16  1  6
 15 14  1  0
 17 18  1  0
 17 16  1  0
 18 19  2  0
 20 15  1  0
 21 20  2  0
 22 18  1  0
 23 20  1  0
M  END
$$$$
