ALE.pdb
     RDKit          3D

 23 22  0  0  1  0  0  0  0  0999 V2000
    8.0050  -17.2256   21.4304 C   0  0  0  0  0  0  0  0  0  0  0  0
    7.6978  -15.7400   21.4335 C   0  0  2  0  0  0  0  0  0  0  0  0
    8.3060  -15.1801   20.2575 N   0  0  0  0  0  0  0  0  0  0  0  0
    8.3387  -15.1728   22.6742 C   0  0  0  0  0  0  0  0  0  0  0  0
    9.5081  -14.7152   22.6282 O   0  0  0  0  0  0  0  0  0  0  0  0
    5.4954  -12.0683   26.5704 C   0  0  0  0  0  0  0  0  0  0  0  0
    6.5923  -12.5999   25.7301 C   0  0  1  0  0  0  0  0  0  0  0  0
    7.8302  -11.6951   25.8558 C   0  0  0  0  0  0  0  0  0  0  0  0
    7.0407  -13.9730   25.8838 C   0  0  0  0  0  0  0  0  0  0  0  0
    8.2018  -14.4755   25.1178 C   0  0  2  0  0  0  0  0  0  0  0  0
    7.6531  -15.1441   23.8892 N   0  0  0  0  0  0  0  0  0  0  0  0
    9.0474  -15.4715   25.7602 C   0  0  0  0  0  0  0  0  0  0  0  0
    9.6217  -15.2413   26.8849 O   0  0  0  0  0  0  0  0  0  0  0  0
    9.2875  -16.7428   25.2220 N   0  0  0  0  0  0  0  0  0  0  0  0
   10.1855  -17.7330   25.8548 C   0  0  1  0  0  0  0  0  0  0  0  0
    9.7972  -19.0277   25.1992 C   0  0  0  0  0  0  0  0  0  0  0  0
    8.3931  -19.4376   25.3338 C   0  0  0  0  0  0  0  0  0  0  0  0
    8.0078  -20.7348   24.7826 C   0  0  0  0  0  0  0  0  0  0  0  0
    7.7293  -20.8214   23.5416 O   0  0  0  0  0  0  0  0  0  0  0  0
   11.5774  -17.4225   25.8532 C   0  0  0  0  0  0  0  0  0  0  0  0
   12.1822  -16.7169   25.0268 O   0  0  0  0  0  0  0  0  0  0  0  0
    7.9283  -21.8759   25.5338 O   0  0  0  0  0  0  0  0  0  0  0  0
   12.4015  -17.9406   26.8878 O   0  0  0  0  0  0  0  0  0  0  0  0
  2  1  1  6
  3  2  1  0
  4  5  2  0
  4  2  1  0
  7  6  1  1
  7  8  1  0
  7  9  1  0
 10  9  1  1
 10 11  1  0
 11  4  1  0
 12 13  2  0
 12 10  1  0
 14 12  1  0
 15 16  1  6
 15 14  1  0
 17 18  1  0
 17 16  1  0
 18 19  2  0
 20 15  1  0
 21 20  2  0
 22 18  1  0
 23 20  1  0
M  END
$$$$
