ALE.pdb
     RDKit          3D

 23 22  0  0  1  0  0  0  0  0999 V2000
    8.7506  -19.7036   19.8305 C   0  0  0  0  0  0  0  0  0  0  0  0
    8.6742  -18.5529   18.8446 C   0  0  2  0  0  0  0  0  0  0  0  0
    9.4216  -18.9434   17.6805 N   0  0  0  0  0  0  0  0  0  0  0  0
    9.3283  -17.3715   19.5140 C   0  0  0  0  0  0  0  0  0  0  0  0
   10.5736  -17.2170   19.4466 O   0  0  0  0  0  0  0  0  0  0  0  0
    6.4501  -12.6922   19.9844 C   0  0  0  0  0  0  0  0  0  0  0  0
    7.6574  -13.5456   19.9069 C   0  0  1  0  0  0  0  0  0  0  0  0
    8.8328  -12.7346   19.3346 C   0  0  0  0  0  0  0  0  0  0  0  0
    8.1442  -14.2442   21.0838 C   0  0  0  0  0  0  0  0  0  0  0  0
    9.1887  -15.2843   20.9632 C   0  0  2  0  0  0  0  0  0  0  0  0
    8.5716  -16.4326   20.2161 N   0  0  0  0  0  0  0  0  0  0  0  0
    9.7105  -15.8554   22.1965 C   0  0  0  0  0  0  0  0  0  0  0  0
    8.9661  -16.5371   22.9895 O   0  0  0  0  0  0  0  0  0  0  0  0
   11.0446  -15.7231   22.6043 N   0  0  0  0  0  0  0  0  0  0  0  0
   11.5990  -16.4064   23.7930 C   0  0  1  0  0  0  0  0  0  0  0  0
   11.3267  -17.8586   23.5212 C   0  0  0  0  0  0  0  0  0  0  0  0
   11.7583  -18.8125   24.5515 C   0  0  0  0  0  0  0  0  0  0  0  0
   11.4658  -20.2273   24.3333 C   0  0  0  0  0  0  0  0  0  0  0  0
   11.8209  -21.0757   25.2160 O   0  0  0  0  0  0  0  0  0  0  0  0
   12.9397  -16.0763   24.1496 C   0  0  0  0  0  0  0  0  0  0  0  0
   13.4971  -16.2993   25.2386 O   0  0  0  0  0  0  0  0  0  0  0  0
   10.8238  -20.6980   23.2201 O   0  0  0  0  0  0  0  0  0  0  0  0
   13.7702  -15.4334   23.1930 O   0  0  0  0  0  0  0  0  0  0  0  0
  2  1  1  1
  3  2  1  0
  4  5  2  0
  4  2  1  0
  7  6  1  1
  7  8  1  0
  7  9  1  0
 10  9  1  1
 10 11  1  0
 11  4  1  0
 12 13  2  0
 12 10  1  0
 14 12  1  0
 15 16  1  6
 15 14  1  0
 17 18  1  0
 17 16  1  0
 18 19  2  0
 20 15  1  0
 21 20  2  0
 22 18  1  0
 23 20  1  0
M  END
$$$$
