DVG.pdb
     RDKit          3D

 20 19  0  0  1  0  0  0  0  0999 V2000
   17.1010  -11.3812  -16.2003 N   0  0  0  0  0  0  0  0  0  0  0  0
   17.6910  -10.0824  -16.5809 C   0  0  1  0  0  0  0  0  0  0  0  0
   16.5735   -9.0816  -16.4566 C   0  0  0  0  0  0  0  0  0  0  0  0
   15.5217   -9.1896  -17.4737 C   0  0  0  0  0  0  0  0  0  0  0  0
   15.7140   -9.5270  -18.6518 O   0  0  0  0  0  0  0  0  0  0  0  0
   18.8071   -9.7909  -15.5845 C   0  0  0  0  0  0  0  0  0  0  0  0
   18.6789  -10.1343  -14.3947 O   0  0  0  0  0  0  0  0  0  0  0  0
   14.2031   -8.8979  -17.1182 O   0  0  0  0  0  0  0  0  0  0  0  0
   22.4427  -10.9385  -15.8896 C   0  0  0  0  0  0  0  0  0  0  0  0
   22.4238   -9.4006  -15.8647 C   0  0  2  0  0  0  0  0  0  0  0  0
   23.6169   -9.0069  -15.0361 C   0  0  0  0  0  0  0  0  0  0  0  0
   21.1557   -8.8733  -15.2367 C   0  0  2  0  0  0  0  0  0  0  0  0
   19.9685   -9.1429  -15.9984 N   0  0  0  0  0  0  0  0  0  0  0  0
   21.2180   -7.4588  -14.9871 C   0  0  0  0  0  0  0  0  0  0  0  0
   21.0905   -6.6425  -15.9642 O   0  0  0  0  0  0  0  0  0  0  0  0
   21.4071   -6.8782  -13.7203 N   0  0  0  0  0  0  0  0  0  0  0  0
   21.4377   -5.4256  -13.5322 C   0  0  0  0  0  0  0  0  0  0  0  0
   22.4920   -4.8209  -14.3769 C   0  0  0  0  0  0  0  0  0  0  0  0
   22.1605   -3.9728  -15.4114 O   0  0  0  0  0  0  0  0  0  0  0  0
   23.6983   -5.0719  -14.1626 O   0  0  0  0  0  0  0  0  0  0  0  0
  2  3  1  0
  2  1  1  1
  4  8  1  0
  4  3  1  0
  5  4  2  0
  6  2  1  0
  7  6  2  0
 10 11  1  1
 10 12  1  0
 10  9  1  0
 12 13  1  6
 13  6  1  0
 14 12  1  0
 14 15  2  0
 16 14  1  0
 17 16  1  0
 17 18  1  0
 18 19  1  0
 20 18  2  0
M  END
$$$$
