DVG.pdb
     RDKit          3D

 20 19  0  0  1  0  0  0  0  0999 V2000
   20.7490  -10.1137  -19.5340 N   0  0  0  0  0  0  0  0  0  0  0  0
   21.8001   -9.4363  -18.7489 C   0  0  1  0  0  0  0  0  0  0  0  0
   22.1542   -8.2012  -19.5331 C   0  0  0  0  0  0  0  0  0  0  0  0
   22.8654   -8.4434  -20.7932 C   0  0  0  0  0  0  0  0  0  0  0  0
   23.3451   -7.5540  -21.5126 O   0  0  0  0  0  0  0  0  0  0  0  0
   21.1872   -9.0776  -17.4001 C   0  0  0  0  0  0  0  0  0  0  0  0
   19.9577   -9.1788  -17.2331 O   0  0  0  0  0  0  0  0  0  0  0  0
   23.0280   -9.7572  -21.2376 O   0  0  0  0  0  0  0  0  0  0  0  0
   21.6739   -8.9714  -12.5637 C   0  0  0  0  0  0  0  0  0  0  0  0
   22.0263   -9.3928  -14.0005 C   0  0  2  0  0  0  0  0  0  0  0  0
   23.5221   -9.5595  -14.0049 C   0  0  0  0  0  0  0  0  0  0  0  0
   21.6159   -8.3397  -15.0020 C   0  0  2  0  0  0  0  0  0  0  0  0
   21.9956   -8.6375  -16.3546 N   0  0  0  0  0  0  0  0  0  0  0  0
   22.1292   -7.0391  -14.6671 C   0  0  0  0  0  0  0  0  0  0  0  0
   23.3945   -6.8625  -14.5966 O   0  0  0  0  0  0  0  0  0  0  0  0
   21.3341   -5.9084  -14.4084 N   0  0  0  0  0  0  0  0  0  0  0  0
   21.9205   -4.6237  -14.0182 C   0  0  0  0  0  0  0  0  0  0  0  0
   20.8559   -3.6188  -13.8003 C   0  0  0  0  0  0  0  0  0  0  0  0
   21.1656   -2.3597  -13.3332 O   0  0  0  0  0  0  0  0  0  0  0  0
   19.6604   -3.8994  -14.0373 O   0  0  0  0  0  0  0  0  0  0  0  0
  2  3  1  0
  2  1  1  6
  4  8  1  0
  4  3  1  0
  5  4  2  0
  6  2  1  0
  7  6  2  0
 10 11  1  1
 10 12  1  0
 10  9  1  0
 12 13  1  6
 13  6  1  0
 14 12  1  0
 14 15  2  0
 16 14  1  0
 17 16  1  0
 17 18  1  0
 18 19  1  0
 20 18  2  0
M  END
$$$$
