DVG.pdb
     RDKit          3D

 20 19  0  0  1  0  0  0  0  0999 V2000
   24.1344  -19.7894  -17.7564 N   0  0  0  0  0  0  0  0  0  0  0  0
   24.2042  -19.1667  -16.4195 C   0  0  1  0  0  0  0  0  0  0  0  0
   22.7896  -18.7776  -16.0830 C   0  0  0  0  0  0  0  0  0  0  0  0
   22.1988  -17.7548  -16.9530 C   0  0  0  0  0  0  0  0  0  0  0  0
   21.0944  -17.8561  -17.5088 O   0  0  0  0  0  0  0  0  0  0  0  0
   24.7283  -20.2289  -15.4600 C   0  0  0  0  0  0  0  0  0  0  0  0
   24.1832  -21.3474  -15.4183 O   0  0  0  0  0  0  0  0  0  0  0  0
   22.9074  -16.5748  -17.1892 O   0  0  0  0  0  0  0  0  0  0  0  0
   28.5528  -19.4995  -13.4534 C   0  0  0  0  0  0  0  0  0  0  0  0
   27.9068  -20.8750  -13.6915 C   0  0  2  0  0  0  0  0  0  0  0  0
   28.3474  -21.2819  -15.0718 C   0  0  0  0  0  0  0  0  0  0  0  0
   26.4001  -20.7969  -13.6266 C   0  0  2  0  0  0  0  0  0  0  0  0
   25.8131  -19.9545  -14.6306 N   0  0  0  0  0  0  0  0  0  0  0  0
   25.9317  -20.3568  -12.3405 C   0  0  0  0  0  0  0  0  0  0  0  0
   26.3976  -19.2760  -11.8387 O   0  0  0  0  0  0  0  0  0  0  0  0
   24.9709  -21.0313  -11.5662 N   0  0  0  0  0  0  0  0  0  0  0  0
   24.6496  -20.6156  -10.1985 C   0  0  0  0  0  0  0  0  0  0  0  0
   23.2111  -20.8282   -9.9221 C   0  0  0  0  0  0  0  0  0  0  0  0
   22.6830  -20.5263   -8.6855 O   0  0  0  0  0  0  0  0  0  0  0  0
   22.4556  -21.2849  -10.8080 O   0  0  0  0  0  0  0  0  0  0  0  0
  2  3  1  0
  2  1  1  6
  4  8  1  0
  4  3  1  0
  5  4  2  0
  6  2  1  0
  7  6  2  0
 10 11  1  6
 10 12  1  0
 10  9  1  0
 12 13  1  6
 13  6  1  0
 14 12  1  0
 14 15  2  0
 16 14  1  0
 17 16  1  0
 17 18  1  0
 18 19  1  0
 20 18  2  0
M  END
$$$$
