DVG.pdb
     RDKit          3D

 20 19  0  0  1  0  0  0  0  0999 V2000
   21.2593   -9.6747  -17.2307 N   0  0  0  0  0  0  0  0  0  0  0  0
   21.0206   -8.8907  -16.0026 C   0  0  1  0  0  0  0  0  0  0  0  0
   22.3829   -8.6454  -15.4113 C   0  0  0  0  0  0  0  0  0  0  0  0
   23.0350   -9.8253  -14.8328 C   0  0  0  0  0  0  0  0  0  0  0  0
   24.0987  -10.3138  -15.2436 O   0  0  0  0  0  0  0  0  0  0  0  0
   20.3600   -7.5848  -16.4290 C   0  0  0  0  0  0  0  0  0  0  0  0
   20.5237   -7.1584  -17.5872 O   0  0  0  0  0  0  0  0  0  0  0  0
   22.4384  -10.4628  -13.7429 O   0  0  0  0  0  0  0  0  0  0  0  0
   16.8020   -6.8122  -16.8296 C   0  0  0  0  0  0  0  0  0  0  0  0
   17.3029   -5.9053  -15.6926 C   0  0  2  0  0  0  0  0  0  0  0  0
   16.5750   -4.6016  -15.8809 C   0  0  0  0  0  0  0  0  0  0  0  0
   18.7947   -5.6866  -15.7762 C   0  0  2  0  0  0  0  0  0  0  0  0
   19.5749   -6.8669  -15.5299 N   0  0  0  0  0  0  0  0  0  0  0  0
   19.2457   -4.6550  -14.8820 C   0  0  0  0  0  0  0  0  0  0  0  0
   19.0243   -4.7708  -13.6272 O   0  0  0  0  0  0  0  0  0  0  0  0
   19.9361   -3.4968  -15.2813 N   0  0  0  0  0  0  0  0  0  0  0  0
   20.3288   -2.4613  -14.3220 C   0  0  0  0  0  0  0  0  0  0  0  0
   20.9671   -1.3260  -15.0251 C   0  0  0  0  0  0  0  0  0  0  0  0
   21.3128   -0.1819  -14.3390 O   0  0  0  0  0  0  0  0  0  0  0  0
   21.2011   -1.3902  -16.2520 O   0  0  0  0  0  0  0  0  0  0  0  0
  2  3  1  0
  2  1  1  6
  4  8  1  0
  4  3  1  0
  5  4  2  0
  6  2  1  0
  7  6  2  0
 10 11  1  6
 10 12  1  0
 10  9  1  0
 12 13  1  1
 13  6  1  0
 14 12  1  0
 14 15  2  0
 16 14  1  0
 17 16  1  0
 17 18  1  0
 18 19  1  0
 20 18  2  0
M  END
$$$$
