DVG.pdb
     RDKit          3D

 20 19  0  0  1  0  0  0  0  0999 V2000
   17.7863  -11.2481  -14.9078 N   0  0  0  0  0  0  0  0  0  0  0  0
   18.3675  -10.0841  -15.6058 C   0  0  1  0  0  0  0  0  0  0  0  0
   17.2128   -9.1547  -15.8674 C   0  0  0  0  0  0  0  0  0  0  0  0
   16.2105   -9.6543  -16.8149 C   0  0  0  0  0  0  0  0  0  0  0  0
   16.4502  -10.4426  -17.7423 O   0  0  0  0  0  0  0  0  0  0  0  0
   19.3793   -9.4543  -14.6554 C   0  0  0  0  0  0  0  0  0  0  0  0
   19.1431   -9.4222  -13.4334 O   0  0  0  0  0  0  0  0  0  0  0  0
   14.8864   -9.2293  -16.6873 O   0  0  0  0  0  0  0  0  0  0  0  0
   23.3217   -9.2425  -16.1078 C   0  0  0  0  0  0  0  0  0  0  0  0
   22.9706   -9.1297  -14.6145 C   0  0  2  0  0  0  0  0  0  0  0  0
   22.8353  -10.5498  -14.1348 C   0  0  0  0  0  0  0  0  0  0  0  0
   21.6748   -8.3829  -14.4060 C   0  0  2  0  0  0  0  0  0  0  0  0
   20.5658   -8.9151  -15.1470 N   0  0  0  0  0  0  0  0  0  0  0  0
   21.7947   -6.9847  -14.7186 C   0  0  0  0  0  0  0  0  0  0  0  0
   21.6026   -6.5913  -15.9209 O   0  0  0  0  0  0  0  0  0  0  0  0
   22.1090   -5.9810  -13.7850 N   0  0  0  0  0  0  0  0  0  0  0  0
   22.2592   -4.5779  -14.1792 C   0  0  0  0  0  0  0  0  0  0  0  0
   20.9859   -3.8501  -13.9805 C   0  0  0  0  0  0  0  0  0  0  0  0
   20.9202   -2.4871  -14.1735 O   0  0  0  0  0  0  0  0  0  0  0  0
   19.9520   -4.4630  -13.6345 O   0  0  0  0  0  0  0  0  0  0  0  0
  2  3  1  0
  2  1  1  1
  4  8  1  0
  4  3  1  0
  5  4  2  0
  6  2  1  0
  7  6  2  0
 10 11  1  6
 10 12  1  0
 10  9  1  0
 12 13  1  6
 13  6  1  0
 14 12  1  0
 14 15  2  0
 16 14  1  0
 17 16  1  0
 17 18  1  0
 18 19  1  0
 20 18  2  0
M  END
$$$$
