DVG.pdb
     RDKit          3D

 20 19  0  0  1  0  0  0  0  0999 V2000
   17.2194  -10.5801  -17.8648 N   0  0  0  0  0  0  0  0  0  0  0  0
   17.7287   -9.2070  -18.0520 C   0  0  1  0  0  0  0  0  0  0  0  0
   16.5496   -8.4029  -18.5307 C   0  0  0  0  0  0  0  0  0  0  0  0
   16.8235   -6.9852  -18.7896 C   0  0  0  0  0  0  0  0  0  0  0  0
   17.8801   -6.5492  -19.2715 O   0  0  0  0  0  0  0  0  0  0  0  0
   18.2122   -8.7216  -16.6903 C   0  0  0  0  0  0  0  0  0  0  0  0
   17.4993   -8.8925  -15.6841 O   0  0  0  0  0  0  0  0  0  0  0  0
   15.8440   -6.0387  -18.4816 O   0  0  0  0  0  0  0  0  0  0  0  0
   22.1209   -7.2896  -13.9737 C   0  0  0  0  0  0  0  0  0  0  0  0
   21.4057   -8.1130  -15.0585 C   0  0  2  0  0  0  0  0  0  0  0  0
   22.3050   -8.0403  -16.2630 C   0  0  0  0  0  0  0  0  0  0  0  0
   20.0486   -7.5370  -15.3851 C   0  0  2  0  0  0  0  0  0  0  0  0
   19.4467   -8.0884  -16.5666 N   0  0  0  0  0  0  0  0  0  0  0  0
   20.0823   -6.1063  -15.5237 C   0  0  0  0  0  0  0  0  0  0  0  0
   20.4693   -5.5915  -16.6294 O   0  0  0  0  0  0  0  0  0  0  0  0
   19.7090   -5.1968  -14.5182 N   0  0  0  0  0  0  0  0  0  0  0  0
   19.7299   -3.7485  -14.7389 C   0  0  0  0  0  0  0  0  0  0  0  0
   21.0612   -3.1971  -14.4006 C   0  0  0  0  0  0  0  0  0  0  0  0
   21.3391   -1.8626  -14.6033 O   0  0  0  0  0  0  0  0  0  0  0  0
   21.9520   -3.9357  -13.9261 O   0  0  0  0  0  0  0  0  0  0  0  0
  2  3  1  0
  2  1  1  1
  4  8  1  0
  4  3  1  0
  5  4  2  0
  6  2  1  0
  7  6  2  0
 10 11  1  6
 10 12  1  0
 10  9  1  0
 12 13  1  6
 13  6  1  0
 14 12  1  0
 14 15  2  0
 16 14  1  0
 17 16  1  0
 17 18  1  0
 18 19  1  0
 20 18  2  0
M  END
$$$$
