DVG.pdb
     RDKit          3D

 20 19  0  0  1  0  0  0  0  0999 V2000
   20.7641  -20.1800  -14.8071 N   0  0  0  0  0  0  0  0  0  0  0  0
   20.6243  -19.6470  -13.4374 C   0  0  1  0  0  0  0  0  0  0  0  0
   19.1987  -19.1751  -13.3334 C   0  0  0  0  0  0  0  0  0  0  0  0
   18.8501  -18.0437  -14.1999 C   0  0  0  0  0  0  0  0  0  0  0  0
   17.7425  -17.8822  -14.7347 O   0  0  0  0  0  0  0  0  0  0  0  0
   20.8951  -20.8019  -12.4801 C   0  0  0  0  0  0  0  0  0  0  0  0
   20.7305  -21.9748  -12.8639 O   0  0  0  0  0  0  0  0  0  0  0  0
   19.8131  -17.0658  -14.4575 O   0  0  0  0  0  0  0  0  0  0  0  0
   23.1209  -19.8657   -8.9018 C   0  0  0  0  0  0  0  0  0  0  0  0
   23.0300  -21.2641   -9.5360 C   0  0  2  0  0  0  0  0  0  0  0  0
   24.1009  -21.2859  -10.5932 C   0  0  0  0  0  0  0  0  0  0  0  0
   21.6756  -21.5011  -10.1604 C   0  0  2  0  0  0  0  0  0  0  0  0
   21.3256  -20.5516  -11.1793 N   0  0  0  0  0  0  0  0  0  0  0  0
   20.6208  -21.5215   -9.1836 C   0  0  0  0  0  0  0  0  0  0  0  0
   20.0550  -20.4243   -8.8474 O   0  0  0  0  0  0  0  0  0  0  0  0
   20.1393  -22.6817   -8.5513 N   0  0  0  0  0  0  0  0  0  0  0  0
   19.1939  -22.6177   -7.4339 C   0  0  0  0  0  0  0  0  0  0  0  0
   18.7654  -23.9801   -7.0455 C   0  0  0  0  0  0  0  0  0  0  0  0
   17.9680  -24.1751   -5.9386 O   0  0  0  0  0  0  0  0  0  0  0  0
   19.1216  -24.9730   -7.7175 O   0  0  0  0  0  0  0  0  0  0  0  0
  2  3  1  0
  2  1  1  6
  4  8  1  0
  4  3  1  0
  5  4  2  0
  6  2  1  0
  7  6  2  0
 10 11  1  6
 10 12  1  0
 10  9  1  0
 12 13  1  6
 13  6  1  0
 14 12  1  0
 14 15  2  0
 16 14  1  0
 17 16  1  0
 17 18  1  0
 18 19  1  0
 20 18  2  0
M  END
$$$$
