DVG.pdb
     RDKit          3D

 20 19  0  0  1  0  0  0  0  0999 V2000
   22.5347   -7.8978  -17.2173 N   0  0  0  0  0  0  0  0  0  0  0  0
   23.0202   -8.6794  -16.0626 C   0  0  1  0  0  0  0  0  0  0  0  0
   21.8913   -8.6686  -15.0670 C   0  0  0  0  0  0  0  0  0  0  0  0
   21.6288   -7.3717  -14.4336 C   0  0  0  0  0  0  0  0  0  0  0  0
   20.9716   -6.4559  -14.9514 O   0  0  0  0  0  0  0  0  0  0  0  0
   23.2996  -10.0909  -16.5658 C   0  0  0  0  0  0  0  0  0  0  0  0
   22.7296  -10.5057  -17.5919 O   0  0  0  0  0  0  0  0  0  0  0  0
   22.1427   -7.1239  -13.1589 O   0  0  0  0  0  0  0  0  0  0  0  0
   26.6724  -12.1200  -14.7699 C   0  0  0  0  0  0  0  0  0  0  0  0
   26.1295  -12.4217  -16.1772 C   0  0  2  0  0  0  0  0  0  0  0  0
   26.8169  -11.4355  -17.0827 C   0  0  0  0  0  0  0  0  0  0  0  0
   24.6324  -12.2355  -16.2439 C   0  0  2  0  0  0  0  0  0  0  0  0
   24.1889  -10.9180  -15.8837 N   0  0  0  0  0  0  0  0  0  0  0  0
   23.9277  -13.1859  -15.4271 C   0  0  0  0  0  0  0  0  0  0  0  0
   23.5239  -12.8370  -14.2642 O   0  0  0  0  0  0  0  0  0  0  0  0
   23.6301  -14.5053  -15.8122 N   0  0  0  0  0  0  0  0  0  0  0  0
   22.8636  -15.4083  -14.9498 C   0  0  0  0  0  0  0  0  0  0  0  0
   21.4704  -15.5228  -15.4362 C   0  0  0  0  0  0  0  0  0  0  0  0
   20.5669  -16.3376  -14.7890 O   0  0  0  0  0  0  0  0  0  0  0  0
   21.0947  -14.8810  -16.4418 O   0  0  0  0  0  0  0  0  0  0  0  0
  2  3  1  0
  2  1  1  6
  4  8  1  0
  4  3  1  0
  5  4  2  0
  6  2  1  0
  7  6  2  0
 10 11  1  6
 10 12  1  0
 10  9  1  0
 12 13  1  1
 13  6  1  0
 14 12  1  0
 14 15  2  0
 16 14  1  0
 17 16  1  0
 17 18  1  0
 18 19  1  0
 20 18  2  0
M  END
$$$$
