DVG.pdb
     RDKit          3D

 20 19  0  0  1  0  0  0  0  0999 V2000
   26.3891  -20.9984  -17.7442 N   0  0  0  0  0  0  0  0  0  0  0  0
   26.1341  -20.1072  -16.5950 C   0  0  1  0  0  0  0  0  0  0  0  0
   25.1173  -19.1084  -17.0789 C   0  0  0  0  0  0  0  0  0  0  0  0
   25.6171  -18.1272  -18.0482 C   0  0  0  0  0  0  0  0  0  0  0  0
   26.8166  -17.9312  -18.2963 O   0  0  0  0  0  0  0  0  0  0  0  0
   25.5682  -20.9740  -15.4760 C   0  0  0  0  0  0  0  0  0  0  0  0
   25.0338  -22.0648  -15.7490 O   0  0  0  0  0  0  0  0  0  0  0  0
   24.7007  -17.3456  -18.7548 O   0  0  0  0  0  0  0  0  0  0  0  0
   25.3643  -21.7355  -10.5309 C   0  0  0  0  0  0  0  0  0  0  0  0
   26.0216  -21.1059  -11.7709 C   0  0  2  0  0  0  0  0  0  0  0  0
   26.2540  -19.6652  -11.4030 C   0  0  0  0  0  0  0  0  0  0  0  0
   25.1216  -21.1970  -12.9800 C   0  0  2  0  0  0  0  0  0  0  0  0
   25.6460  -20.5518  -14.1510 N   0  0  0  0  0  0  0  0  0  0  0  0
   23.8096  -20.6673  -12.7245 C   0  0  0  0  0  0  0  0  0  0  0  0
   23.6811  -19.4349  -12.4056 O   0  0  0  0  0  0  0  0  0  0  0  0
   22.6183  -21.4104  -12.8037 N   0  0  0  0  0  0  0  0  0  0  0  0
   21.3181  -20.8253  -12.4663 C   0  0  0  0  0  0  0  0  0  0  0  0
   20.2382  -21.8132  -12.6863 C   0  0  0  0  0  0  0  0  0  0  0  0
   18.9415  -21.5279  -12.3173 O   0  0  0  0  0  0  0  0  0  0  0  0
   20.4887  -22.9208  -13.2105 O   0  0  0  0  0  0  0  0  0  0  0  0
  2  3  1  0
  2  1  1  6
  4  8  1  0
  4  3  1  0
  5  4  2  0
  6  2  1  0
  7  6  2  0
 10 11  1  1
 10 12  1  0
 10  9  1  0
 12 13  1  6
 13  6  1  0
 14 12  1  0
 14 15  2  0
 16 14  1  0
 17 16  1  0
 17 18  1  0
 18 19  1  0
 20 18  2  0
M  END
$$$$
