DVG.pdb
     RDKit          3D

 20 19  0  0  1  0  0  0  0  0999 V2000
   18.0009  -12.6273  -17.2771 N   0  0  0  0  0  0  0  0  0  0  0  0
   19.0732  -11.7315  -17.7541 C   0  0  1  0  0  0  0  0  0  0  0  0
   18.4655  -10.9429  -18.8830 C   0  0  0  0  0  0  0  0  0  0  0  0
   18.1898  -11.7091  -20.1033 C   0  0  0  0  0  0  0  0  0  0  0  0
   18.5030  -12.8972  -20.2740 O   0  0  0  0  0  0  0  0  0  0  0  0
   19.4491  -10.8257  -16.5870 C   0  0  0  0  0  0  0  0  0  0  0  0
   18.6343  -10.6345  -15.6654 O   0  0  0  0  0  0  0  0  0  0  0  0
   17.5302  -11.0821  -21.1624 O   0  0  0  0  0  0  0  0  0  0  0  0
   22.5873  -11.2474  -14.4411 C   0  0  0  0  0  0  0  0  0  0  0  0
   22.6228   -9.8316  -15.0414 C   0  0  2  0  0  0  0  0  0  0  0  0
   23.1019   -8.9437  -13.9247 C   0  0  0  0  0  0  0  0  0  0  0  0
   21.2542   -9.3935  -15.5057 C   0  0  2  0  0  0  0  0  0  0  0  0
   20.6987  -10.2117  -16.5470 N   0  0  0  0  0  0  0  0  0  0  0  0
   21.2416   -8.0270  -15.9528 C   0  0  0  0  0  0  0  0  0  0  0  0
   22.0110   -7.6730  -16.9118 O   0  0  0  0  0  0  0  0  0  0  0  0
   20.4257   -7.0169  -15.4128 N   0  0  0  0  0  0  0  0  0  0  0  0
   20.5305   -5.6223  -15.8496 C   0  0  0  0  0  0  0  0  0  0  0  0
   19.4678   -4.8064  -15.2206 C   0  0  0  0  0  0  0  0  0  0  0  0
   19.6432   -4.2788  -13.9596 O   0  0  0  0  0  0  0  0  0  0  0  0
   18.3959   -4.5849  -15.8258 O   0  0  0  0  0  0  0  0  0  0  0  0
  2  3  1  0
  2  1  1  1
  4  8  1  0
  4  3  1  0
  5  4  2  0
  6  2  1  0
  7  6  2  0
 10 11  1  1
 10 12  1  0
 10  9  1  0
 12 13  1  6
 13  6  1  0
 14 12  1  0
 14 15  2  0
 16 14  1  0
 17 16  1  0
 17 18  1  0
 18 19  1  0
 20 18  2  0
M  END
$$$$
