DVG.pdb
     RDKit          3D

 20 19  0  0  1  0  0  0  0  0999 V2000
   22.3183   -5.6202  -14.8633 N   0  0  0  0  0  0  0  0  0  0  0  0
   21.6616   -5.6046  -16.1856 C   0  0  1  0  0  0  0  0  0  0  0  0
   22.5367   -4.7458  -17.0587 C   0  0  0  0  0  0  0  0  0  0  0  0
   22.2927   -3.3025  -16.9612 C   0  0  0  0  0  0  0  0  0  0  0  0
   21.4030   -2.7844  -16.2693 O   0  0  0  0  0  0  0  0  0  0  0  0
   21.6280   -7.0449  -16.6834 C   0  0  0  0  0  0  0  0  0  0  0  0
   21.2284   -7.2915  -17.8364 O   0  0  0  0  0  0  0  0  0  0  0  0
   23.1037   -2.4278  -17.6874 O   0  0  0  0  0  0  0  0  0  0  0  0
   23.0962  -10.1942  -13.9477 C   0  0  0  0  0  0  0  0  0  0  0  0
   23.2560  -10.2060  -15.4776 C   0  0  2  0  0  0  0  0  0  0  0  0
   24.5532   -9.4904  -15.7423 C   0  0  0  0  0  0  0  0  0  0  0  0
   22.1155   -9.4874  -16.1582 C   0  0  2  0  0  0  0  0  0  0  0  0
   22.0418   -8.0856  -15.8552 N   0  0  0  0  0  0  0  0  0  0  0  0
   20.8405  -10.0799  -15.8573 C   0  0  0  0  0  0  0  0  0  0  0  0
   20.1769   -9.6622  -14.8463 O   0  0  0  0  0  0  0  0  0  0  0  0
   20.2397  -11.1072  -16.6066 N   0  0  0  0  0  0  0  0  0  0  0  0
   18.8951  -11.6023  -16.3009 C   0  0  0  0  0  0  0  0  0  0  0  0
   18.9746  -12.9028  -15.5986 C   0  0  0  0  0  0  0  0  0  0  0  0
   17.8277  -13.5590  -15.2070 O   0  0  0  0  0  0  0  0  0  0  0  0
   20.0845  -13.4235  -15.3512 O   0  0  0  0  0  0  0  0  0  0  0  0
  2  3  1  0
  2  1  1  1
  4  8  1  0
  4  3  1  0
  5  4  2  0
  6  2  1  0
  7  6  2  0
 10 11  1  1
 10 12  1  0
 10  9  1  0
 12 13  1  1
 13  6  1  0
 14 12  1  0
 14 15  2  0
 16 14  1  0
 17 16  1  0
 17 18  1  0
 18 19  1  0
 20 18  2  0
M  END
$$$$
