DVG.pdb
     RDKit          3D

 20 19  0  0  1  0  0  0  0  0999 V2000
   23.0925  -20.7347   -9.8686 N   0  0  0  0  0  0  0  0  0  0  0  0
   23.0589  -20.9100  -11.3342 C   0  0  1  0  0  0  0  0  0  0  0  0
   21.8284  -20.1777  -11.7983 C   0  0  0  0  0  0  0  0  0  0  0  0
   20.5607  -20.6800  -11.2572 C   0  0  0  0  0  0  0  0  0  0  0  0
   20.2409  -21.8776  -11.2103 O   0  0  0  0  0  0  0  0  0  0  0  0
   24.3257  -20.2688  -11.8888 C   0  0  0  0  0  0  0  0  0  0  0  0
   24.8630  -19.3288  -11.2742 O   0  0  0  0  0  0  0  0  0  0  0  0
   19.6306  -19.7683  -10.7532 O   0  0  0  0  0  0  0  0  0  0  0  0
   27.6915  -22.0171  -12.5721 C   0  0  0  0  0  0  0  0  0  0  0  0
   27.0782  -21.5260  -13.8945 C   0  0  2  0  0  0  0  0  0  0  0  0
   28.2501  -21.0946  -14.7344 C   0  0  0  0  0  0  0  0  0  0  0  0
   26.1406  -20.3635  -13.6711 C   0  0  2  0  0  0  0  0  0  0  0  0
   24.8844  -20.7290  -13.0788 N   0  0  0  0  0  0  0  0  0  0  0  0
   25.8719  -19.6386  -14.8833 C   0  0  0  0  0  0  0  0  0  0  0  0
   26.8163  -18.9837  -15.4457 O   0  0  0  0  0  0  0  0  0  0  0  0
   24.6221  -19.5919  -15.5263 N   0  0  0  0  0  0  0  0  0  0  0  0
   24.4310  -18.8836  -16.7946 C   0  0  0  0  0  0  0  0  0  0  0  0
   24.6202  -19.8101  -17.9333 C   0  0  0  0  0  0  0  0  0  0  0  0
   24.1145  -19.5032  -19.1779 O   0  0  0  0  0  0  0  0  0  0  0  0
   25.2420  -20.8844  -17.7805 O   0  0  0  0  0  0  0  0  0  0  0  0
  2  3  1  0
  2  1  1  1
  4  8  1  0
  4  3  1  0
  5  4  2  0
  6  2  1  0
  7  6  2  0
 10 11  1  6
 10 12  1  0
 10  9  1  0
 12 13  1  6
 13  6  1  0
 14 12  1  0
 14 15  2  0
 16 14  1  0
 17 16  1  0
 17 18  1  0
 18 19  1  0
 20 18  2  0
M  END
$$$$
