DVG.pdb
     RDKit          3D

 20 19  0  0  1  0  0  0  0  0999 V2000
   18.5414  -24.6055    5.6614 N   0  0  0  0  0  0  0  0  0  0  0  0
   18.3880  -23.2502    5.0960 C   0  0  1  0  0  0  0  0  0  0  0  0
   16.9892  -23.2020    4.5419 C   0  0  0  0  0  0  0  0  0  0  0  0
   16.7904  -23.9275    3.2825 C   0  0  0  0  0  0  0  0  0  0  0  0
   15.9229  -23.6504    2.4402 O   0  0  0  0  0  0  0  0  0  0  0  0
   18.5608  -22.2653    6.2465 C   0  0  0  0  0  0  0  0  0  0  0  0
   18.3341  -22.6327    7.4142 O   0  0  0  0  0  0  0  0  0  0  0  0
   17.6216  -25.0097    2.9856 O   0  0  0  0  0  0  0  0  0  0  0  0
   20.5719  -18.6278    5.2442 C   0  0  0  0  0  0  0  0  0  0  0  0
   20.5077  -19.1488    6.6901 C   0  0  2  0  0  0  0  0  0  0  0  0
   21.6955  -20.0623    6.8312 C   0  0  0  0  0  0  0  0  0  0  0  0
   19.2298  -19.9114    6.9468 C   0  0  2  0  0  0  0  0  0  0  0  0
   18.9708  -20.9576    5.9978 N   0  0  0  0  0  0  0  0  0  0  0  0
   18.0798  -19.0495    6.9906 C   0  0  0  0  0  0  0  0  0  0  0  0
   18.0181  -18.1294    7.8776 O   0  0  0  0  0  0  0  0  0  0  0  0
   16.9861  -19.1307    6.1104 N   0  0  0  0  0  0  0  0  0  0  0  0
   15.8463  -18.2153    6.2068 C   0  0  0  0  0  0  0  0  0  0  0  0
   16.1292  -16.9640    5.4685 C   0  0  0  0  0  0  0  0  0  0  0  0
   15.1724  -15.9771    5.3697 O   0  0  0  0  0  0  0  0  0  0  0  0
   17.2411  -16.7860    4.9244 O   0  0  0  0  0  0  0  0  0  0  0  0
  2  3  1  0
  2  1  1  1
  4  8  1  0
  4  3  1  0
  5  4  2  0
  6  2  1  0
  7  6  2  0
 10 11  1  6
 10 12  1  0
 10  9  1  0
 12 13  1  6
 13  6  1  0
 14 12  1  0
 14 15  2  0
 16 14  1  0
 17 16  1  0
 17 18  1  0
 18 19  1  0
 20 18  2  0
M  END
$$$$
