LKI.pdb
     RDKit          3D

 26 25  0  0  1  0  0  0  0  0999 V2000
   27.1390  -15.9211  -18.6611 C   0  0  0  0  0  0  0  0  0  0  0  0
   27.0765  -17.2425  -17.9600 C   0  0  1  0  0  0  0  0  0  0  0  0
   28.3164  -18.0744  -18.1746 C   0  0  0  0  0  0  0  0  0  0  0  0
   26.8950  -17.0000  -16.4550 C   0  0  0  0  0  0  0  0  0  0  0  0
   26.9810  -18.3688  -15.8076 C   0  0  2  0  0  0  0  0  0  0  0  0
   26.8305  -19.4279  -16.7698 N   0  0  0  0  0  0  0  0  0  0  0  0
   26.0297  -18.5072  -14.6800 C   0  0  0  0  0  0  0  0  0  0  0  0
   25.9403  -17.5574  -13.8630 O   0  0  0  0  0  0  0  0  0  0  0  0
   25.2462  -19.6803  -14.5334 N   0  0  0  0  0  0  0  0  0  0  0  0
   24.2783  -19.8456  -13.4697 C   0  0  1  0  0  0  0  0  0  0  0  0
   23.0367  -20.5643  -13.9604 C   0  0  0  0  0  0  0  0  0  0  0  0
   21.9964  -20.7034  -12.9058 C   0  0  0  0  0  0  0  0  0  0  0  0
   20.7851  -21.3943  -13.4727 C   0  0  0  0  0  0  0  0  0  0  0  0
   19.6569  -21.5354  -12.5082 C   0  0  0  0  0  0  0  0  0  0  0  0
   18.6123  -22.3292  -13.1752 N   0  0  0  0  0  0  0  0  0  0  0  0
   24.8621  -20.5723  -12.3096 C   0  0  0  0  0  0  0  0  0  0  0  0
   25.6157  -21.5552  -12.5703 O   0  0  0  0  0  0  0  0  0  0  0  0
   27.5684  -18.0668   -8.7315 C   0  0  0  0  0  0  0  0  0  0  0  0
   26.9860  -19.1629   -9.5206 C   0  0  0  0  0  0  0  0  0  0  0  0
   25.8656  -19.9535   -8.9931 C   0  0  2  0  0  0  0  0  0  0  0  0
   26.1443  -20.5023   -7.5933 C   0  0  0  0  0  0  0  0  0  0  0  0
   25.2175  -20.9898   -9.8445 C   0  0  2  0  0  0  0  0  0  0  0  0
   24.6134  -20.2161  -10.9730 N   0  0  0  0  0  0  0  0  0  0  0  0
   24.1837  -21.8259   -9.2758 C   0  0  0  0  0  0  0  0  0  0  0  0
   22.9738  -21.5372   -9.2905 O   0  0  0  0  0  0  0  0  0  0  0  0
   24.5063  -23.0414   -8.6606 O   0  0  0  0  0  0  0  0  0  0  0  0
  2  3  1  1
  2  1  1  0
  4  2  1  0
  5  6  1  6
  5  4  1  0
  7  9  1  0
  7  5  1  0
  8  7  2  0
 10  9  1  0
 10 11  1  6
 11 12  1  0
 12 13  1  0
 13 14  1  0
 15 14  1  0
 16 10  1  0
 17 16  2  0
 18 19  1  0
 20 19  1  0
 20 22  1  0
 20 21  1  1
 22 24  1  0
 22 23  1  6
 23 16  1  0
 24 26  1  0
 25 24  2  0
M  END
$$$$
