LKI.pdb
     RDKit          3D

 26 25  0  0  1  0  0  0  0  0999 V2000
   19.6478  -18.5599  -13.1165 C   0  0  0  0  0  0  0  0  0  0  0  0
   20.1583  -19.9635  -13.2214 C   0  0  1  0  0  0  0  0  0  0  0  0
   21.6236  -20.0767  -12.8817 C   0  0  0  0  0  0  0  0  0  0  0  0
   19.3560  -20.8582  -12.2661 C   0  0  0  0  0  0  0  0  0  0  0  0
   19.3239  -22.2268  -12.9188 C   0  0  2  0  0  0  0  0  0  0  0  0
   18.6295  -22.2043  -14.1787 N   0  0  0  0  0  0  0  0  0  0  0  0
   18.7811  -23.2610  -12.0069 C   0  0  0  0  0  0  0  0  0  0  0  0
   17.5757  -23.1729  -11.6654 O   0  0  0  0  0  0  0  0  0  0  0  0
   19.6039  -24.3164  -11.5374 N   0  0  0  0  0  0  0  0  0  0  0  0
   19.1180  -25.3489  -10.6465 C   0  0  1  0  0  0  0  0  0  0  0  0
   19.9581  -26.6069  -10.7500 C   0  0  0  0  0  0  0  0  0  0  0  0
   19.4281  -27.7237   -9.9218 C   0  0  0  0  0  0  0  0  0  0  0  0
   20.2394  -28.9680  -10.1651 C   0  0  0  0  0  0  0  0  0  0  0  0
   19.7675  -30.1612   -9.4058 C   0  0  0  0  0  0  0  0  0  0  0  0
   20.6709  -31.2740   -9.7405 N   0  0  0  0  0  0  0  0  0  0  0  0
   19.0790  -24.8774   -9.2355 C   0  0  0  0  0  0  0  0  0  0  0  0
   20.0626  -24.1890   -8.8348 O   0  0  0  0  0  0  0  0  0  0  0  0
   14.8520  -23.2368   -5.1515 C   0  0  0  0  0  0  0  0  0  0  0  0
   16.2486  -23.6036   -5.4315 C   0  0  0  0  0  0  0  0  0  0  0  0
   16.6120  -24.2640   -6.6925 C   0  0  2  0  0  0  0  0  0  0  0  0
   15.6645  -25.4108   -7.0470 C   0  0  0  0  0  0  0  0  0  0  0  0
   18.0267  -24.6523   -6.9510 C   0  0  2  0  0  0  0  0  0  0  0  0
   18.0191  -25.1613   -8.3574 N   0  0  0  0  0  0  0  0  0  0  0  0
   18.6465  -25.6587   -6.1178 C   0  0  0  0  0  0  0  0  0  0  0  0
   18.6417  -26.8744   -6.3811 O   0  0  0  0  0  0  0  0  0  0  0  0
   19.3039  -25.3004   -4.9348 O   0  0  0  0  0  0  0  0  0  0  0  0
  2  3  1  1
  2  1  1  0
  4  2  1  0
  5  6  1  6
  5  4  1  0
  7  9  1  0
  7  5  1  0
  8  7  2  0
 10  9  1  0
 10 11  1  1
 11 12  1  0
 12 13  1  0
 13 14  1  0
 15 14  1  0
 16 10  1  0
 17 16  2  0
 18 19  1  0
 20 19  1  0
 20 22  1  0
 20 21  1  1
 22 24  1  0
 22 23  1  6
 23 16  1  0
 24 26  1  0
 25 24  2  0
M  END
$$$$
