LKI.pdb
     RDKit          3D

 26 25  0  0  1  0  0  0  0  0999 V2000
   27.6290  -14.8831  -17.7395 C   0  0  0  0  0  0  0  0  0  0  0  0
   27.7019  -16.3435  -17.4174 C   0  0  1  0  0  0  0  0  0  0  0  0
   29.1031  -16.8928  -17.5195 C   0  0  0  0  0  0  0  0  0  0  0  0
   27.1839  -16.5652  -15.9894 C   0  0  0  0  0  0  0  0  0  0  0  0
   27.3789  -18.0429  -15.7092 C   0  0  2  0  0  0  0  0  0  0  0  0
   27.0855  -18.8511  -16.8628 N   0  0  0  0  0  0  0  0  0  0  0  0
   26.6174  -18.4842  -14.5171 C   0  0  0  0  0  0  0  0  0  0  0  0
   26.4601  -17.6631  -13.5798 O   0  0  0  0  0  0  0  0  0  0  0  0
   26.0847  -19.7965  -14.4431 N   0  0  0  0  0  0  0  0  0  0  0  0
   25.2263  -20.2315  -13.3616 C   0  0  1  0  0  0  0  0  0  0  0  0
   24.3439  -21.3882  -13.7888 C   0  0  0  0  0  0  0  0  0  0  0  0
   23.3361  -21.7558  -12.7577 C   0  0  0  0  0  0  0  0  0  0  0  0
   22.0105  -21.1267  -13.0938 C   0  0  0  0  0  0  0  0  0  0  0  0
   20.9076  -21.4940  -12.1602 C   0  0  0  0  0  0  0  0  0  0  0  0
   19.6751  -20.8816  -12.6820 N   0  0  0  0  0  0  0  0  0  0  0  0
   26.0154  -20.6107  -12.1581 C   0  0  0  0  0  0  0  0  0  0  0  0
   26.9080  -21.4944  -12.3141 O   0  0  0  0  0  0  0  0  0  0  0  0
   28.8100  -19.1858   -7.1219 C   0  0  0  0  0  0  0  0  0  0  0  0
   27.9286  -20.1506   -7.7970 C   0  0  0  0  0  0  0  0  0  0  0  0
   27.1115  -19.7420   -8.9476 C   0  0  2  0  0  0  0  0  0  0  0  0
   26.3306  -18.4541   -8.6832 C   0  0  0  0  0  0  0  0  0  0  0  0
   26.2563  -20.7407   -9.6477 C   0  0  2  0  0  0  0  0  0  0  0  0
   25.8105  -20.0386  -10.8909 N   0  0  0  0  0  0  0  0  0  0  0  0
   25.0798  -21.2540   -8.9815 C   0  0  0  0  0  0  0  0  0  0  0  0
   23.9342  -20.8006   -9.1526 O   0  0  0  0  0  0  0  0  0  0  0  0
   25.1777  -22.3221   -8.0817 O   0  0  0  0  0  0  0  0  0  0  0  0
  2  3  1  1
  2  1  1  0
  4  2  1  0
  5  6  1  6
  5  4  1  0
  7  9  1  0
  7  5  1  0
  8  7  2  0
 10  9  1  0
 10 11  1  6
 11 12  1  0
 12 13  1  0
 13 14  1  0
 15 14  1  0
 16 10  1  0
 17 16  2  0
 18 19  1  0
 20 19  1  0
 20 22  1  0
 20 21  1  1
 22 24  1  0
 22 23  1  6
 23 16  1  0
 24 26  1  0
 25 24  2  0
M  END
$$$$
