LKI.pdb
     RDKit          3D

 26 25  0  0  1  0  0  0  0  0999 V2000
   19.3626  -32.4906  -10.5392 C   0  0  0  0  0  0  0  0  0  0  0  0
   19.7793  -31.2205  -11.2137 C   0  0  1  0  0  0  0  0  0  0  0  0
   18.7931  -30.7671  -12.2611 C   0  0  0  0  0  0  0  0  0  0  0  0
   19.9221  -30.1179  -10.1551 C   0  0  0  0  0  0  0  0  0  0  0  0
   20.5103  -28.9254  -10.8845 C   0  0  2  0  0  0  0  0  0  0  0  0
   21.9071  -29.1101  -11.1760 N   0  0  0  0  0  0  0  0  0  0  0  0
   20.2598  -27.6568  -10.1610 C   0  0  0  0  0  0  0  0  0  0  0  0
   21.0825  -27.3082   -9.2784 O   0  0  0  0  0  0  0  0  0  0  0  0
   19.1225  -26.8644  -10.4612 N   0  0  0  0  0  0  0  0  0  0  0  0
   18.8219  -25.6326   -9.7624 C   0  0  1  0  0  0  0  0  0  0  0  0
   18.4463  -24.5272  -10.7299 C   0  0  0  0  0  0  0  0  0  0  0  0
   18.0885  -23.2568  -10.0429 C   0  0  0  0  0  0  0  0  0  0  0  0
   17.7482  -22.2039  -11.0634 C   0  0  0  0  0  0  0  0  0  0  0  0
   17.2584  -20.9233  -10.4777 C   0  0  0  0  0  0  0  0  0  0  0  0
   16.8710  -20.0529  -11.5996 N   0  0  0  0  0  0  0  0  0  0  0  0
   17.7367  -25.8241   -8.7622 C   0  0  0  0  0  0  0  0  0  0  0  0
   16.6973  -26.4305   -9.1545 O   0  0  0  0  0  0  0  0  0  0  0  0
   19.0944  -26.9716   -3.6732 C   0  0  0  0  0  0  0  0  0  0  0  0
   18.3197  -26.8796   -4.9201 C   0  0  0  0  0  0  0  0  0  0  0  0
   17.3987  -25.7582   -5.1496 C   0  0  2  0  0  0  0  0  0  0  0  0
   16.4082  -25.5695   -3.9999 C   0  0  0  0  0  0  0  0  0  0  0  0
   16.7123  -25.6130   -6.4636 C   0  0  2  0  0  0  0  0  0  0  0  0
   17.8227  -25.3686   -7.4355 N   0  0  0  0  0  0  0  0  0  0  0  0
   15.7320  -24.5641   -6.6365 C   0  0  0  0  0  0  0  0  0  0  0  0
   14.5110  -24.7217   -6.4588 O   0  0  0  0  0  0  0  0  0  0  0  0
   16.1239  -23.2775   -7.0253 O   0  0  0  0  0  0  0  0  0  0  0  0
  2  3  1  6
  2  1  1  0
  4  2  1  0
  5  6  1  1
  5  4  1  0
  7  9  1  0
  7  5  1  0
  8  7  2  0
 10  9  1  0
 10 11  1  6
 11 12  1  0
 12 13  1  0
 13 14  1  0
 15 14  1  0
 16 10  1  0
 17 16  2  0
 18 19  1  0
 20 19  1  0
 20 22  1  0
 20 21  1  1
 22 24  1  0
 22 23  1  6
 23 16  1  0
 24 26  1  0
 25 24  2  0
M  END
$$$$
