LKI.pdb
     RDKit          3D

 26 25  0  0  1  0  0  0  0  0999 V2000
   21.0068  -18.7175  -19.6807 C   0  0  0  0  0  0  0  0  0  0  0  0
   21.7244  -18.0058  -18.5760 C   0  0  1  0  0  0  0  0  0  0  0  0
   20.7837  -17.4296  -17.5473 C   0  0  0  0  0  0  0  0  0  0  0  0
   22.6753  -18.9919  -17.8831 C   0  0  0  0  0  0  0  0  0  0  0  0
   23.3472  -18.2019  -16.7764 C   0  0  2  0  0  0  0  0  0  0  0  0
   23.9059  -16.9678  -17.2612 N   0  0  0  0  0  0  0  0  0  0  0  0
   24.3500  -19.0143  -16.0484 C   0  0  0  0  0  0  0  0  0  0  0  0
   23.9629  -20.0736  -15.4957 O   0  0  0  0  0  0  0  0  0  0  0  0
   25.7054  -18.6021  -15.9816 N   0  0  0  0  0  0  0  0  0  0  0  0
   26.7336  -19.3978  -15.3448 C   0  0  1  0  0  0  0  0  0  0  0  0
   28.1125  -19.0281  -15.8556 C   0  0  0  0  0  0  0  0  0  0  0  0
   28.4660  -19.7288  -17.1197 C   0  0  0  0  0  0  0  0  0  0  0  0
   28.6967  -21.1906  -16.8447 C   0  0  0  0  0  0  0  0  0  0  0  0
   29.1489  -21.9702  -18.0325 C   0  0  0  0  0  0  0  0  0  0  0  0
   29.3760  -23.3533  -17.5833 N   0  0  0  0  0  0  0  0  0  0  0  0
   26.6868  -19.2644  -13.8633 C   0  0  0  0  0  0  0  0  0  0  0  0
   26.8059  -18.0967  -13.3898 O   0  0  0  0  0  0  0  0  0  0  0  0
   23.5535  -20.5613   -9.1036 C   0  0  0  0  0  0  0  0  0  0  0  0
   24.9104  -20.2896   -9.6019 C   0  0  0  0  0  0  0  0  0  0  0  0
   25.2419  -20.4861  -11.0196 C   0  0  2  0  0  0  0  0  0  0  0  0
   24.7600  -21.8363  -11.5518 C   0  0  0  0  0  0  0  0  0  0  0  0
   26.6150  -20.1865  -11.5135 C   0  0  2  0  0  0  0  0  0  0  0  0
   26.5199  -20.3578  -12.9963 N   0  0  0  0  0  0  0  0  0  0  0  0
   27.7246  -20.9863  -11.0443 C   0  0  0  0  0  0  0  0  0  0  0  0
   28.1209  -20.9965   -9.8652 O   0  0  0  0  0  0  0  0  0  0  0  0
   28.4298  -21.8155  -11.9248 O   0  0  0  0  0  0  0  0  0  0  0  0
  2  3  1  1
  2  1  1  0
  4  2  1  0
  5  6  1  6
  5  4  1  0
  7  9  1  0
  7  5  1  0
  8  7  2  0
 10  9  1  0
 10 11  1  6
 11 12  1  0
 12 13  1  0
 13 14  1  0
 15 14  1  0
 16 10  1  0
 17 16  2  0
 18 19  1  0
 20 19  1  0
 20 22  1  0
 20 21  1  1
 22 24  1  0
 22 23  1  6
 23 16  1  0
 24 26  1  0
 25 24  2  0
M  END
$$$$
