LKI.pdb
     RDKit          3D

 26 25  0  0  1  0  0  0  0  0999 V2000
   17.8019  -18.9532  -17.4135 C   0  0  0  0  0  0  0  0  0  0  0  0
   18.9707  -18.2133  -16.8405 C   0  0  1  0  0  0  0  0  0  0  0  0
   18.6792  -17.6279  -15.4813 C   0  0  0  0  0  0  0  0  0  0  0  0
   20.1605  -19.1762  -16.7224 C   0  0  0  0  0  0  0  0  0  0  0  0
   21.2840  -18.3633  -16.1084 C   0  0  2  0  0  0  0  0  0  0  0  0
   21.6173  -17.2166  -16.9110 N   0  0  0  0  0  0  0  0  0  0  0  0
   22.4732  -19.1975  -15.8157 C   0  0  0  0  0  0  0  0  0  0  0  0
   22.3115  -20.2344  -15.1258 O   0  0  0  0  0  0  0  0  0  0  0  0
   23.7533  -18.8300  -16.3033 N   0  0  0  0  0  0  0  0  0  0  0  0
   24.9466  -19.6007  -16.0241 C   0  0  1  0  0  0  0  0  0  0  0  0
   26.0759  -19.2292  -16.9652 C   0  0  0  0  0  0  0  0  0  0  0  0
   27.3705  -19.8588  -16.5890 C   0  0  0  0  0  0  0  0  0  0  0  0
   27.5031  -21.1958  -17.2676 C   0  0  0  0  0  0  0  0  0  0  0  0
   28.7646  -21.9213  -16.9432 C   0  0  0  0  0  0  0  0  0  0  0  0
   28.6440  -23.2755  -17.5071 N   0  0  0  0  0  0  0  0  0  0  0  0
   25.3852  -19.4339  -14.6118 C   0  0  0  0  0  0  0  0  0  0  0  0
   25.4569  -18.2497  -14.1709 O   0  0  0  0  0  0  0  0  0  0  0  0
   22.8062  -20.8146  -10.6599 C   0  0  0  0  0  0  0  0  0  0  0  0
   23.8575  -20.2781  -11.5376 C   0  0  0  0  0  0  0  0  0  0  0  0
   25.2230  -20.8183  -11.4888 C   0  0  2  0  0  0  0  0  0  0  0  0
   25.7596  -20.9251  -10.0608 C   0  0  0  0  0  0  0  0  0  0  0  0
   26.2696  -20.2853  -12.4049 C   0  0  2  0  0  0  0  0  0  0  0  0
   25.7131  -20.5138  -13.7744 N   0  0  0  0  0  0  0  0  0  0  0  0
   27.5989  -20.8531  -12.3653 C   0  0  0  0  0  0  0  0  0  0  0  0
   27.9219  -21.9010  -12.9527 O   0  0  0  0  0  0  0  0  0  0  0  0
   28.6205  -20.2292  -11.6392 O   0  0  0  0  0  0  0  0  0  0  0  0
  2  3  1  1
  2  1  1  0
  4  2  1  0
  5  6  1  6
  5  4  1  0
  7  9  1  0
  7  5  1  0
  8  7  2  0
 10  9  1  0
 10 11  1  6
 11 12  1  0
 12 13  1  0
 13 14  1  0
 15 14  1  0
 16 10  1  0
 17 16  2  0
 18 19  1  0
 20 19  1  0
 20 22  1  0
 20 21  1  1
 22 24  1  0
 22 23  1  6
 23 16  1  0
 24 26  1  0
 25 24  2  0
M  END
$$$$
