LKI.pdb
     RDKit          3D

 26 25  0  0  1  0  0  0  0  0999 V2000
   20.1632  -16.9194  -15.9074 C   0  0  0  0  0  0  0  0  0  0  0  0
   21.0213  -17.7590  -16.8021 C   0  0  1  0  0  0  0  0  0  0  0  0
   21.9378  -16.9343  -17.6711 C   0  0  0  0  0  0  0  0  0  0  0  0
   21.8708  -18.7009  -15.9372 C   0  0  0  0  0  0  0  0  0  0  0  0
   22.7899  -19.4240  -16.9028 C   0  0  2  0  0  0  0  0  0  0  0  0
   22.0625  -20.3016  -17.7808 N   0  0  0  0  0  0  0  0  0  0  0  0
   23.8854  -20.1307  -16.1984 C   0  0  0  0  0  0  0  0  0  0  0  0
   23.5767  -21.0400  -15.3889 O   0  0  0  0  0  0  0  0  0  0  0  0
   25.2403  -19.7854  -16.4359 N   0  0  0  0  0  0  0  0  0  0  0  0
   26.3412  -20.4169  -15.7395 C   0  0  1  0  0  0  0  0  0  0  0  0
   27.6740  -20.0346  -16.3531 C   0  0  0  0  0  0  0  0  0  0  0  0
   28.8208  -20.7521  -15.7335 C   0  0  0  0  0  0  0  0  0  0  0  0
   28.9124  -22.1462  -16.2938 C   0  0  0  0  0  0  0  0  0  0  0  0
   29.9888  -22.9784  -15.6841 C   0  0  0  0  0  0  0  0  0  0  0  0
   29.8106  -24.3519  -16.1824 N   0  0  0  0  0  0  0  0  0  0  0  0
   26.3333  -20.0813  -14.2896 C   0  0  0  0  0  0  0  0  0  0  0  0
   26.3606  -18.8528  -13.9864 O   0  0  0  0  0  0  0  0  0  0  0  0
   22.5107  -20.7487  -11.3596 C   0  0  0  0  0  0  0  0  0  0  0  0
   23.8446  -20.4133  -11.8808 C   0  0  0  0  0  0  0  0  0  0  0  0
   25.0530  -20.9870  -11.2733 C   0  0  2  0  0  0  0  0  0  0  0  0
   25.0593  -20.8595   -9.7495 C   0  0  0  0  0  0  0  0  0  0  0  0
   26.3951  -20.6640  -11.8332 C   0  0  2  0  0  0  0  0  0  0  0  0
   26.2976  -21.0524  -13.2743 N   0  0  0  0  0  0  0  0  0  0  0  0
   27.5655  -21.3070  -11.2782 C   0  0  0  0  0  0  0  0  0  0  0  0
   28.3407  -20.7591  -10.4744 O   0  0  0  0  0  0  0  0  0  0  0  0
   27.8928  -22.6217  -11.6311 O   0  0  0  0  0  0  0  0  0  0  0  0
  2  3  1  1
  2  1  1  0
  4  2  1  0
  5  6  1  1
  5  4  1  0
  7  9  1  0
  7  5  1  0
  8  7  2  0
 10  9  1  0
 10 11  1  6
 11 12  1  0
 12 13  1  0
 13 14  1  0
 15 14  1  0
 16 10  1  0
 17 16  2  0
 18 19  1  0
 20 19  1  0
 20 22  1  0
 20 21  1  1
 22 24  1  0
 22 23  1  6
 23 16  1  0
 24 26  1  0
 25 24  2  0
M  END
$$$$
