LKI.pdb
     RDKit          3D

 26 25  0  0  1  0  0  0  0  0999 V2000
   28.9403  -22.6811  -18.5526 C   0  0  0  0  0  0  0  0  0  0  0  0
   28.5898  -22.6273  -17.0979 C   0  0  1  0  0  0  0  0  0  0  0  0
   29.3665  -23.6245  -16.2748 C   0  0  0  0  0  0  0  0  0  0  0  0
   28.8762  -21.2151  -16.5683 C   0  0  0  0  0  0  0  0  0  0  0  0
   27.9682  -20.2914  -17.3573 C   0  0  2  0  0  0  0  0  0  0  0  0
   28.7042  -19.2335  -17.9973 N   0  0  0  0  0  0  0  0  0  0  0  0
   26.8571  -19.7684  -16.5281 C   0  0  0  0  0  0  0  0  0  0  0  0
   27.0787  -18.7610  -15.8116 O   0  0  0  0  0  0  0  0  0  0  0  0
   25.5834  -20.3919  -16.5477 N   0  0  0  0  0  0  0  0  0  0  0  0
   24.4643  -19.9076  -15.7674 C   0  0  1  0  0  0  0  0  0  0  0  0
   23.2043  -19.8189  -16.6061 C   0  0  0  0  0  0  0  0  0  0  0  0
   22.0108  -19.4185  -15.8128 C   0  0  0  0  0  0  0  0  0  0  0  0
   20.8044  -19.3436  -16.7100 C   0  0  0  0  0  0  0  0  0  0  0  0
   19.8034  -20.4237  -16.4764 C   0  0  0  0  0  0  0  0  0  0  0  0
   18.6205  -20.1029  -17.2913 N   0  0  0  0  0  0  0  0  0  0  0  0
   24.2219  -20.7623  -14.5734 C   0  0  0  0  0  0  0  0  0  0  0  0
   24.0378  -21.9971  -14.7813 O   0  0  0  0  0  0  0  0  0  0  0  0
   25.9989  -21.0490   -8.7794 C   0  0  0  0  0  0  0  0  0  0  0  0
   25.0891  -21.5091   -9.8395 C   0  0  0  0  0  0  0  0  0  0  0  0
   24.8805  -20.7034  -11.0503 C   0  0  2  0  0  0  0  0  0  0  0  0
   24.6650  -19.2221  -10.7378 C   0  0  0  0  0  0  0  0  0  0  0  0
   23.9265  -21.1637  -12.0977 C   0  0  2  0  0  0  0  0  0  0  0  0
   24.1910  -20.2612  -13.2608 N   0  0  0  0  0  0  0  0  0  0  0  0
   22.5070  -21.1308  -11.8239 C   0  0  0  0  0  0  0  0  0  0  0  0
   21.7833  -20.1420  -12.0382 O   0  0  0  0  0  0  0  0  0  0  0  0
   21.8573  -22.2485  -11.2864 O   0  0  0  0  0  0  0  0  0  0  0  0
  2  3  1  1
  2  1  1  0
  4  2  1  0
  5  6  1  1
  5  4  1  0
  7  9  1  0
  7  5  1  0
  8  7  2  0
 10  9  1  0
 10 11  1  6
 11 12  1  0
 12 13  1  0
 13 14  1  0
 15 14  1  0
 16 10  1  0
 17 16  2  0
 18 19  1  0
 20 19  1  0
 20 22  1  0
 20 21  1  1
 22 24  1  0
 22 23  1  6
 23 16  1  0
 24 26  1  0
 25 24  2  0
M  END
$$$$
