LKI.pdb
     RDKit          3D

 26 25  0  0  1  0  0  0  0  0999 V2000
   29.5284  -18.3464  -16.8609 C   0  0  0  0  0  0  0  0  0  0  0  0
   28.3915  -17.4026  -17.1027 C   0  0  1  0  0  0  0  0  0  0  0  0
   27.6103  -17.7394  -18.3483 C   0  0  0  0  0  0  0  0  0  0  0  0
   27.4441  -17.4442  -15.8954 C   0  0  0  0  0  0  0  0  0  0  0  0
   27.7599  -18.7400  -15.1732 C   0  0  2  0  0  0  0  0  0  0  0  0
   27.8735  -19.8480  -16.0840 N   0  0  0  0  0  0  0  0  0  0  0  0
   26.7925  -19.0158  -14.0852 C   0  0  0  0  0  0  0  0  0  0  0  0
   26.6189  -18.1308  -13.2111 O   0  0  0  0  0  0  0  0  0  0  0  0
   26.0866  -20.2450  -14.0384 N   0  0  0  0  0  0  0  0  0  0  0  0
   25.1266  -20.5557  -13.0002 C   0  0  1  0  0  0  0  0  0  0  0  0
   24.1868  -21.6644  -13.4319 C   0  0  0  0  0  0  0  0  0  0  0  0
   23.1812  -22.0061  -12.3897 C   0  0  0  0  0  0  0  0  0  0  0  0
   21.8314  -21.4736  -12.7900 C   0  0  0  0  0  0  0  0  0  0  0  0
   20.7645  -21.6897  -11.7712 C   0  0  0  0  0  0  0  0  0  0  0  0
   19.5466  -21.0322  -12.2718 N   0  0  0  0  0  0  0  0  0  0  0  0
   25.8016  -20.9274  -11.7270 C   0  0  0  0  0  0  0  0  0  0  0  0
   26.6360  -21.8777  -11.7780 O   0  0  0  0  0  0  0  0  0  0  0  0
   28.8447  -19.3767   -6.9930 C   0  0  0  0  0  0  0  0  0  0  0  0
   27.7997  -20.2822   -7.4945 C   0  0  0  0  0  0  0  0  0  0  0  0
   27.0271  -19.9425   -8.6971 C   0  0  2  0  0  0  0  0  0  0  0  0
   26.4863  -18.5126   -8.6609 C   0  0  0  0  0  0  0  0  0  0  0  0
   25.9918  -20.8831   -9.2093 C   0  0  2  0  0  0  0  0  0  0  0  0
   25.5526  -20.2791  -10.5053 N   0  0  0  0  0  0  0  0  0  0  0  0
   24.8107  -21.1349   -8.4139 C   0  0  0  0  0  0  0  0  0  0  0  0
   24.8192  -21.7678   -7.3431 O   0  0  0  0  0  0  0  0  0  0  0  0
   23.5587  -20.6621   -8.8251 O   0  0  0  0  0  0  0  0  0  0  0  0
  2  3  1  6
  2  1  1  0
  4  2  1  0
  5  6  1  6
  5  4  1  0
  7  9  1  0
  7  5  1  0
  8  7  2  0
 10  9  1  0
 10 11  1  6
 11 12  1  0
 12 13  1  0
 13 14  1  0
 15 14  1  0
 16 10  1  0
 17 16  2  0
 18 19  1  0
 20 19  1  0
 20 22  1  0
 20 21  1  1
 22 24  1  0
 22 23  1  6
 23 16  1  0
 24 26  1  0
 25 24  2  0
M  END
$$$$
