LKI.pdb
     RDKit          3D

 26 25  0  0  1  0  0  0  0  0999 V2000
   32.5568  -20.9982   -9.7508 C   0  0  0  0  0  0  0  0  0  0  0  0
   31.7259  -21.7595  -10.7365 C   0  0  1  0  0  0  0  0  0  0  0  0
   31.4642  -23.1803  -10.3026 C   0  0  0  0  0  0  0  0  0  0  0  0
   30.3821  -21.0393  -10.9167 C   0  0  0  0  0  0  0  0  0  0  0  0
   29.6444  -21.8146  -11.9913 C   0  0  2  0  0  0  0  0  0  0  0  0
   30.4652  -22.0370  -13.1519 N   0  0  0  0  0  0  0  0  0  0  0  0
   28.3522  -21.1797  -12.3418 C   0  0  0  0  0  0  0  0  0  0  0  0
   27.7915  -20.4645  -11.4748 O   0  0  0  0  0  0  0  0  0  0  0  0
   27.7712  -21.3780  -13.6203 N   0  0  0  0  0  0  0  0  0  0  0  0
   26.5364  -20.7396  -14.0249 C   0  0  1  0  0  0  0  0  0  0  0  0
   26.2986  -20.8930  -15.5145 C   0  0  0  0  0  0  0  0  0  0  0  0
   25.0378  -20.2450  -15.9666 C   0  0  0  0  0  0  0  0  0  0  0  0
   25.3546  -18.9639  -16.6908 C   0  0  0  0  0  0  0  0  0  0  0  0
   24.1527  -18.2101  -17.1495 C   0  0  0  0  0  0  0  0  0  0  0  0
   24.6346  -17.0500  -17.9166 N   0  0  0  0  0  0  0  0  0  0  0  0
   25.3728  -21.2731  -13.2659 C   0  0  0  0  0  0  0  0  0  0  0  0
   25.2825  -22.5316  -13.1668 O   0  0  0  0  0  0  0  0  0  0  0  0
   24.5018  -21.2244   -8.0583 C   0  0  0  0  0  0  0  0  0  0  0  0
   23.9580  -21.6119   -9.3689 C   0  0  0  0  0  0  0  0  0  0  0  0
   23.7351  -20.6052  -10.4155 C   0  0  2  0  0  0  0  0  0  0  0  0
   22.8596  -19.4466   -9.9364 C   0  0  0  0  0  0  0  0  0  0  0  0
   23.3399  -21.0301  -11.7875 C   0  0  2  0  0  0  0  0  0  0  0  0
   24.3985  -20.4524  -12.6724 N   0  0  0  0  0  0  0  0  0  0  0  0
   22.0541  -20.6240  -12.3099 C   0  0  0  0  0  0  0  0  0  0  0  0
   20.9658  -20.9771  -11.8219 O   0  0  0  0  0  0  0  0  0  0  0  0
   21.9701  -19.7853  -13.4277 O   0  0  0  0  0  0  0  0  0  0  0  0
  2  3  1  1
  2  1  1  0
  4  2  1  0
  5  6  1  6
  5  4  1  0
  7  9  1  0
  7  5  1  0
  8  7  2  0
 10  9  1  0
 10 11  1  6
 11 12  1  0
 12 13  1  0
 13 14  1  0
 15 14  1  0
 16 10  1  0
 17 16  2  0
 18 19  1  0
 20 19  1  0
 20 22  1  0
 20 21  1  1
 22 24  1  0
 22 23  1  6
 23 16  1  0
 24 26  1  0
 25 24  2  0
M  END
$$$$
