LKI.pdb
     RDKit          3D

 26 25  0  0  1  0  0  0  0  0999 V2000
   29.7054  -16.1659  -16.5554 C   0  0  0  0  0  0  0  0  0  0  0  0
   28.5437  -17.0395  -16.9147 C   0  0  1  0  0  0  0  0  0  0  0  0
   28.9698  -18.3902  -17.4338 C   0  0  0  0  0  0  0  0  0  0  0  0
   27.6669  -17.2392  -15.6705 C   0  0  0  0  0  0  0  0  0  0  0  0
   26.5472  -18.1655  -16.1045 C   0  0  2  0  0  0  0  0  0  0  0  0
   25.6588  -17.5312  -17.0418 N   0  0  0  0  0  0  0  0  0  0  0  0
   25.8165  -18.7297  -14.9454 C   0  0  0  0  0  0  0  0  0  0  0  0
   25.1632  -17.9408  -14.2186 O   0  0  0  0  0  0  0  0  0  0  0  0
   25.8579  -20.1204  -14.6705 N   0  0  0  0  0  0  0  0  0  0  0  0
   25.0712  -20.7332  -13.6210 C   0  0  1  0  0  0  0  0  0  0  0  0
   24.5197  -22.0763  -14.0578 C   0  0  0  0  0  0  0  0  0  0  0  0
   23.6449  -22.7022  -13.0297 C   0  0  0  0  0  0  0  0  0  0  0  0
   22.2280  -22.2265  -13.2082 C   0  0  0  0  0  0  0  0  0  0  0  0
   21.2723  -22.7666  -12.1993 C   0  0  0  0  0  0  0  0  0  0  0  0
   20.0097  -22.0270  -12.3579 N   0  0  0  0  0  0  0  0  0  0  0  0
   25.8603  -20.8897  -12.3690 C   0  0  0  0  0  0  0  0  0  0  0  0
   26.9285  -21.5642  -12.4463 O   0  0  0  0  0  0  0  0  0  0  0  0
   28.7116  -19.2890   -7.6318 C   0  0  0  0  0  0  0  0  0  0  0  0
   27.7393  -20.2601   -8.1562 C   0  0  0  0  0  0  0  0  0  0  0  0
   26.8639  -19.9106   -9.2832 C   0  0  2  0  0  0  0  0  0  0  0  0
   26.1488  -18.5748   -9.0766 C   0  0  0  0  0  0  0  0  0  0  0  0
   25.9294  -20.9256   -9.8449 C   0  0  2  0  0  0  0  0  0  0  0  0
   25.4725  -20.3311  -11.1391 N   0  0  0  0  0  0  0  0  0  0  0  0
   24.7548  -21.2993   -9.0887 C   0  0  0  0  0  0  0  0  0  0  0  0
   24.7891  -21.9784   -8.0470 O   0  0  0  0  0  0  0  0  0  0  0  0
   23.4795  -20.9010   -9.5073 O   0  0  0  0  0  0  0  0  0  0  0  0
  2  3  1  1
  2  1  1  0
  4  2  1  0
  5  6  1  6
  5  4  1  0
  7  9  1  0
  7  5  1  0
  8  7  2  0
 10  9  1  0
 10 11  1  6
 11 12  1  0
 12 13  1  0
 13 14  1  0
 15 14  1  0
 16 10  1  0
 17 16  2  0
 18 19  1  0
 20 19  1  0
 20 22  1  0
 20 21  1  1
 22 24  1  0
 22 23  1  6
 23 16  1  0
 24 26  1  0
 25 24  2  0
M  END
$$$$
