GQI.pdb
     RDKit          3D

 22 21  0  0  1  0  0  0  0  0999 V2000
   28.5618  -22.0273  -16.5632 N   0  0  0  0  0  0  0  0  0  0  0  0
   27.6450  -20.9328  -16.3984 C   0  0  0  0  0  0  0  0  0  0  0  0
   26.7254  -21.2125  -15.2524 C   0  0  0  0  0  0  0  0  0  0  0  0
   26.2202  -22.3604  -15.1345 O   0  0  0  0  0  0  0  0  0  0  0  0
   25.4989  -21.4873  -10.0927 N   0  0  0  0  0  0  0  0  0  0  0  0
   26.8467  -21.1022  -10.3176 C   0  0  0  0  0  0  0  0  0  0  0  0
   27.7431  -21.6456   -9.6327 O   0  0  0  0  0  0  0  0  0  0  0  0
   27.2265  -20.0678  -11.3470 C   0  0  0  0  0  0  0  0  0  0  0  0
   25.9927  -19.6474  -12.0508 C   0  0  0  0  0  0  0  0  0  0  0  0
   25.5049  -20.5615  -13.1446 C   0  0  2  0  0  0  0  0  0  0  0  0
   26.3865  -20.2550  -14.2841 N   0  0  0  0  0  0  0  0  0  0  0  0
   24.1279  -20.2279  -13.5636 C   0  0  0  0  0  0  0  0  0  0  0  0
   23.9327  -19.1030  -14.1168 O   0  0  0  0  0  0  0  0  0  0  0  0
   19.6320  -21.3249  -16.9872 C   0  0  0  0  0  0  0  0  0  0  0  0
   20.0271  -20.7885  -15.6477 C   0  0  0  0  0  0  0  0  0  0  0  0
   21.3704  -21.3481  -15.1862 C   0  0  2  0  0  0  0  0  0  0  0  0
   21.1800  -22.8236  -14.9202 C   0  0  0  0  0  0  0  0  0  0  0  0
   21.7220  -20.6737  -13.8625 C   0  0  2  0  0  0  0  0  0  0  0  0
   23.0067  -21.1024  -13.3840 N   0  0  0  0  0  0  0  0  0  0  0  0
   20.6491  -20.9292  -12.8699 C   0  0  0  0  0  0  0  0  0  0  0  0
   20.8055  -21.8121  -11.8172 O   0  0  0  0  0  0  0  0  0  0  0  0
   19.5264  -20.3480  -12.9359 O   0  0  0  0  0  0  0  0  0  0  0  0
  2  3  1  0
  2  1  1  0
  3 11  1  0
  4  3  2  0
  6  8  1  0
  6  5  1  0
  7  6  2  0
  9  8  1  0
 10  9  1  1
 10 12  1  0
 11 10  1  0
 12 13  2  0
 12 19  1  0
 15 14  1  0
 15 16  1  0
 16 18  1  0
 16 17  1  1
 18 20  1  0
 18 19  1  1
 20 21  1  0
 22 20  2  0
M  END
$$$$
