GQI.pdb
     RDKit          3D

 22 21  0  0  1  0  0  0  0  0999 V2000
   18.2779  -21.3991  -13.1854 N   0  0  0  0  0  0  0  0  0  0  0  0
   18.9034  -21.5357  -11.8986 C   0  0  0  0  0  0  0  0  0  0  0  0
   18.3369  -22.7218  -11.1851 C   0  0  0  0  0  0  0  0  0  0  0  0
   17.1592  -23.0891  -11.4403 O   0  0  0  0  0  0  0  0  0  0  0  0
   20.9389  -28.0465   -9.6066 N   0  0  0  0  0  0  0  0  0  0  0  0
   19.8607  -28.1286  -10.5264 C   0  0  0  0  0  0  0  0  0  0  0  0
   19.5810  -29.2460  -11.0174 O   0  0  0  0  0  0  0  0  0  0  0  0
   19.0504  -26.9210  -10.9255 C   0  0  0  0  0  0  0  0  0  0  0  0
   19.5833  -25.7492  -10.1928 C   0  0  0  0  0  0  0  0  0  0  0  0
   18.5671  -24.7496   -9.7048 C   0  0  2  0  0  0  0  0  0  0  0  0
   19.0523  -23.4626  -10.2318 N   0  0  0  0  0  0  0  0  0  0  0  0
   18.5704  -24.6402   -8.2314 C   0  0  0  0  0  0  0  0  0  0  0  0
   19.4157  -23.8598   -7.6967 O   0  0  0  0  0  0  0  0  0  0  0  0
   15.0317  -24.6043   -3.2748 C   0  0  0  0  0  0  0  0  0  0  0  0
   16.3792  -24.6701   -3.9213 C   0  0  0  0  0  0  0  0  0  0  0  0
   16.2747  -24.8644   -5.4320 C   0  0  2  0  0  0  0  0  0  0  0  0
   15.4944  -26.1362   -5.6729 C   0  0  0  0  0  0  0  0  0  0  0  0
   17.6881  -25.0713   -5.9704 C   0  0  2  0  0  0  0  0  0  0  0  0
   17.6730  -25.3608   -7.3771 N   0  0  0  0  0  0  0  0  0  0  0  0
   18.3686  -26.1371   -5.1940 C   0  0  0  0  0  0  0  0  0  0  0  0
   19.1141  -25.8701   -4.0604 O   0  0  0  0  0  0  0  0  0  0  0  0
   18.3017  -27.3554   -5.5318 O   0  0  0  0  0  0  0  0  0  0  0  0
  2  3  1  0
  2  1  1  0
  3 11  1  0
  4  3  2  0
  6  8  1  0
  6  5  1  0
  7  6  2  0
  9  8  1  0
 10  9  1  1
 10 12  1  0
 11 10  1  0
 12 13  2  0
 12 19  1  0
 15 14  1  0
 15 16  1  0
 16 18  1  0
 16 17  1  1
 18 20  1  0
 18 19  1  6
 20 21  1  0
 22 20  2  0
M  END
$$$$
