GQI.pdb
     RDKit          3D

 22 21  0  0  1  0  0  0  0  0999 V2000
   18.0575  -11.0877  -18.5765 N   0  0  0  0  0  0  0  0  0  0  0  0
   18.8818   -9.9621  -18.9218 C   0  0  0  0  0  0  0  0  0  0  0  0
   18.8993   -8.9833  -17.7911 C   0  0  0  0  0  0  0  0  0  0  0  0
   18.1337   -7.9836  -17.8303 O   0  0  0  0  0  0  0  0  0  0  0  0
   17.8856   -8.9931  -11.8906 N   0  0  0  0  0  0  0  0  0  0  0  0
   18.7241   -8.0595  -12.5544 C   0  0  0  0  0  0  0  0  0  0  0  0
   18.2872   -6.9028  -12.7523 O   0  0  0  0  0  0  0  0  0  0  0  0
   20.1121   -8.4166  -13.0235 C   0  0  0  0  0  0  0  0  0  0  0  0
   19.9922   -9.0920  -14.3364 C   0  0  0  0  0  0  0  0  0  0  0  0
   19.6441   -8.2124  -15.5091 C   0  0  2  0  0  0  0  0  0  0  0  0
   19.7326   -9.1150  -16.6697 N   0  0  0  0  0  0  0  0  0  0  0  0
   20.6490   -7.1488  -15.7132 C   0  0  0  0  0  0  0  0  0  0  0  0
   21.8272   -7.4989  -16.0275 O   0  0  0  0  0  0  0  0  0  0  0  0
   21.1211   -3.2000  -18.9342 C   0  0  0  0  0  0  0  0  0  0  0  0
   20.3613   -3.8909  -17.8464 C   0  0  0  0  0  0  0  0  0  0  0  0
   20.8974   -3.5309  -16.4630 C   0  0  2  0  0  0  0  0  0  0  0  0
   22.0654   -2.5920  -16.6593 C   0  0  0  0  0  0  0  0  0  0  0  0
   21.4270   -4.8124  -15.8245 C   0  0  2  0  0  0  0  0  0  0  0  0
   20.3667   -5.7499  -15.5800 N   0  0  0  0  0  0  0  0  0  0  0  0
   22.1706   -4.4831  -14.5834 C   0  0  0  0  0  0  0  0  0  0  0  0
   23.5506   -4.4061  -14.5421 O   0  0  0  0  0  0  0  0  0  0  0  0
   21.5758   -4.2541  -13.4895 O   0  0  0  0  0  0  0  0  0  0  0  0
  2  3  1  0
  2  1  1  0
  3 11  1  0
  4  3  2  0
  6  8  1  0
  6  5  1  0
  7  6  2  0
  9  8  1  0
 10  9  1  1
 10 12  1  0
 11 10  1  0
 12 13  2  0
 12 19  1  0
 15 14  1  0
 15 16  1  0
 16 18  1  0
 16 17  1  6
 18 20  1  0
 18 19  1  1
 20 21  1  0
 22 20  2  0
M  END
$$$$
