GQI.pdb
     RDKit          3D

 22 21  0  0  1  0  0  0  0  0999 V2000
   28.4609  -21.0269  -16.4702 N   0  0  0  0  0  0  0  0  0  0  0  0
   27.6772  -20.0558  -15.7572 C   0  0  0  0  0  0  0  0  0  0  0  0
   26.4226  -20.6930  -15.2503 C   0  0  0  0  0  0  0  0  0  0  0  0
   25.6787  -21.3137  -16.0554 O   0  0  0  0  0  0  0  0  0  0  0  0
   23.8581  -23.6859  -13.2829 N   0  0  0  0  0  0  0  0  0  0  0  0
   24.9964  -24.0058  -12.4973 C   0  0  0  0  0  0  0  0  0  0  0  0
   25.3639  -25.2016  -12.4412 O   0  0  0  0  0  0  0  0  0  0  0  0
   25.7684  -22.9578  -11.7358 C   0  0  0  0  0  0  0  0  0  0  0  0
   25.1264  -21.6460  -11.9832 C   0  0  0  0  0  0  0  0  0  0  0  0
   24.8071  -21.3205  -13.4193 C   0  0  2  0  0  0  0  0  0  0  0  0
   26.0184  -20.6393  -13.9076 N   0  0  0  0  0  0  0  0  0  0  0  0
   23.6958  -20.3530  -13.5274 C   0  0  0  0  0  0  0  0  0  0  0  0
   23.8578  -19.2043  -13.0138 O   0  0  0  0  0  0  0  0  0  0  0  0
   20.2489  -17.3096  -17.0950 C   0  0  0  0  0  0  0  0  0  0  0  0
   20.3492  -17.9490  -15.7463 C   0  0  0  0  0  0  0  0  0  0  0  0
   21.3788  -19.0762  -15.7279 C   0  0  2  0  0  0  0  0  0  0  0  0
   20.8370  -20.1995  -16.5816 C   0  0  0  0  0  0  0  0  0  0  0  0
   21.4819  -19.5848  -14.2923 C   0  0  2  0  0  0  0  0  0  0  0  0
   22.4523  -20.6379  -14.1807 N   0  0  0  0  0  0  0  0  0  0  0  0
   20.1438  -20.0136  -13.8157 C   0  0  0  0  0  0  0  0  0  0  0  0
   19.2232  -19.1266  -13.2887 O   0  0  0  0  0  0  0  0  0  0  0  0
   19.7727  -21.2229  -13.8670 O   0  0  0  0  0  0  0  0  0  0  0  0
  2  3  1  0
  2  1  1  0
  3 11  1  0
  4  3  2  0
  6  8  1  0
  6  5  1  0
  7  6  2  0
  9  8  1  0
 10  9  1  1
 10 12  1  0
 11 10  1  0
 12 13  2  0
 12 19  1  0
 15 14  1  0
 15 16  1  0
 16 18  1  0
 16 17  1  6
 18 20  1  0
 18 19  1  6
 20 21  1  0
 22 20  2  0
M  END
$$$$
