GQI.pdb
     RDKit          3D

 22 21  0  0  1  0  0  0  0  0999 V2000
   28.0471  -18.2911  -14.4586 N   0  0  0  0  0  0  0  0  0  0  0  0
   27.8696  -19.5574  -13.8023 C   0  0  0  0  0  0  0  0  0  0  0  0
   27.0272  -19.3786  -12.5794 C   0  0  0  0  0  0  0  0  0  0  0  0
   26.7348  -18.2141  -12.1981 O   0  0  0  0  0  0  0  0  0  0  0  0
   22.9935  -18.6961  -13.2058 N   0  0  0  0  0  0  0  0  0  0  0  0
   22.9576  -19.7071  -12.2099 C   0  0  0  0  0  0  0  0  0  0  0  0
   22.2021  -19.5454  -11.2245 O   0  0  0  0  0  0  0  0  0  0  0  0
   23.7947  -20.9580  -12.3032 C   0  0  0  0  0  0  0  0  0  0  0  0
   24.4562  -21.1652  -10.9941 C   0  0  0  0  0  0  0  0  0  0  0  0
   25.6172  -20.2566  -10.6828 C   0  0  2  0  0  0  0  0  0  0  0  0
   26.5349  -20.4501  -11.8186 N   0  0  0  0  0  0  0  0  0  0  0  0
   26.3390  -20.6873   -9.4678 C   0  0  0  0  0  0  0  0  0  0  0  0
   26.9301  -21.8095   -9.4958 O   0  0  0  0  0  0  0  0  0  0  0  0
   28.8622  -17.6059   -5.7228 C   0  0  0  0  0  0  0  0  0  0  0  0
   28.4254  -18.7135   -6.6285 C   0  0  0  0  0  0  0  0  0  0  0  0
   27.2939  -19.5349   -6.0155 C   0  0  2  0  0  0  0  0  0  0  0  0
   27.8685  -20.2931   -4.8411 C   0  0  0  0  0  0  0  0  0  0  0  0
   26.8451  -20.5549   -7.0589 C   0  0  2  0  0  0  0  0  0  0  0  0
   26.4112  -19.9092   -8.2663 N   0  0  0  0  0  0  0  0  0  0  0  0
   25.7879  -21.4245   -6.4866 C   0  0  0  0  0  0  0  0  0  0  0  0
   24.4428  -21.1170   -6.5775 O   0  0  0  0  0  0  0  0  0  0  0  0
   26.0644  -22.5011   -5.8806 O   0  0  0  0  0  0  0  0  0  0  0  0
  2  3  1  0
  2  1  1  0
  3 11  1  0
  4  3  2  0
  6  8  1  0
  6  5  1  0
  7  6  2  0
  9  8  1  0
 10  9  1  6
 10 12  1  0
 11 10  1  0
 12 13  2  0
 12 19  1  0
 15 14  1  0
 15 16  1  0
 16 18  1  0
 16 17  1  1
 18 20  1  0
 18 19  1  6
 20 21  1  0
 22 20  2  0
M  END
$$$$
