GQI.pdb
     RDKit          3D

 22 21  0  0  1  0  0  0  0  0999 V2000
   28.0846  -20.6215  -16.1991 N   0  0  0  0  0  0  0  0  0  0  0  0
   28.2266  -21.2286  -14.9041 C   0  0  0  0  0  0  0  0  0  0  0  0
   27.2405  -20.6275  -13.9538 C   0  0  0  0  0  0  0  0  0  0  0  0
   27.0087  -19.3904  -14.0078 O   0  0  0  0  0  0  0  0  0  0  0  0
   23.4607  -19.6100  -14.4730 N   0  0  0  0  0  0  0  0  0  0  0  0
   22.7154  -19.6685  -13.2662 C   0  0  0  0  0  0  0  0  0  0  0  0
   21.8002  -18.8320  -13.0908 O   0  0  0  0  0  0  0  0  0  0  0  0
   22.9911  -20.6985  -12.1997 C   0  0  0  0  0  0  0  0  0  0  0  0
   24.2376  -21.4116  -12.5630 C   0  0  0  0  0  0  0  0  0  0  0  0
   25.5259  -20.7743  -12.1112 C   0  0  2  0  0  0  0  0  0  0  0  0
   26.5461  -21.3731  -12.9888 N   0  0  0  0  0  0  0  0  0  0  0  0
   25.8703  -21.1578  -10.7266 C   0  0  0  0  0  0  0  0  0  0  0  0
   25.9915  -22.3935  -10.4663 O   0  0  0  0  0  0  0  0  0  0  0  0
   28.7285  -18.3553   -6.9700 C   0  0  0  0  0  0  0  0  0  0  0  0
   28.0783  -19.4328   -7.7787 C   0  0  0  0  0  0  0  0  0  0  0  0
   26.6336  -19.6726   -7.3471 C   0  0  2  0  0  0  0  0  0  0  0  0
   26.6689  -20.3006   -5.9728 C   0  0  0  0  0  0  0  0  0  0  0  0
   26.0252  -20.6874   -8.3118 C   0  0  2  0  0  0  0  0  0  0  0  0
   26.0779  -20.2150   -9.6671 N   0  0  0  0  0  0  0  0  0  0  0  0
   24.6388  -21.0085   -7.8919 C   0  0  0  0  0  0  0  0  0  0  0  0
   24.3466  -22.0413   -7.0201 O   0  0  0  0  0  0  0  0  0  0  0  0
   23.6438  -20.3488   -8.3134 O   0  0  0  0  0  0  0  0  0  0  0  0
  2  3  1  0
  2  1  1  0
  3 11  1  0
  4  3  2  0
  6  8  1  0
  6  5  1  0
  7  6  2  0
  9  8  1  0
 10  9  1  6
 10 12  1  0
 11 10  1  0
 12 13  2  0
 12 19  1  0
 15 14  1  0
 15 16  1  0
 16 18  1  0
 16 17  1  1
 18 20  1  0
 18 19  1  6
 20 21  1  0
 22 20  2  0
M  END
$$$$
