GQI.pdb
     RDKit          3D

 22 21  0  0  1  0  0  0  0  0999 V2000
   28.4859  -21.3294  -14.8088 N   0  0  0  0  0  0  0  0  0  0  0  0
   27.2384  -21.7353  -14.2219 C   0  0  0  0  0  0  0  0  0  0  0  0
   26.9696  -20.9232  -12.9950 C   0  0  0  0  0  0  0  0  0  0  0  0
   27.4773  -19.7748  -12.8934 O   0  0  0  0  0  0  0  0  0  0  0  0
   21.4230  -20.9388  -11.0982 N   0  0  0  0  0  0  0  0  0  0  0  0
   22.0217  -20.1860  -12.1424 C   0  0  0  0  0  0  0  0  0  0  0  0
   21.2798  -19.6985  -13.0255 O   0  0  0  0  0  0  0  0  0  0  0  0
   23.5106  -19.9586  -12.2182 C   0  0  0  0  0  0  0  0  0  0  0  0
   24.1343  -20.6138  -11.0452 C   0  0  0  0  0  0  0  0  0  0  0  0
   25.6272  -20.4604  -10.9117 C   0  0  2  0  0  0  0  0  0  0  0  0
   26.1714  -21.3728  -11.9320 N   0  0  0  0  0  0  0  0  0  0  0  0
   26.1120  -20.9413   -9.6015 C   0  0  0  0  0  0  0  0  0  0  0  0
   26.1790  -22.1948   -9.4178 O   0  0  0  0  0  0  0  0  0  0  0  0
   29.2326  -19.6511   -4.4286 C   0  0  0  0  0  0  0  0  0  0  0  0
   28.3276  -20.4896   -5.2745 C   0  0  0  0  0  0  0  0  0  0  0  0
   27.8339  -19.7295   -6.5031 C   0  0  2  0  0  0  0  0  0  0  0  0
   27.0015  -18.5670   -6.0131 C   0  0  0  0  0  0  0  0  0  0  0  0
   26.9181  -20.6649   -7.2885 C   0  0  2  0  0  0  0  0  0  0  0  0
   26.5127  -20.0739   -8.5331 N   0  0  0  0  0  0  0  0  0  0  0  0
   25.7532  -21.0444   -6.4514 C   0  0  0  0  0  0  0  0  0  0  0  0
   25.8374  -21.9892   -5.4453 O   0  0  0  0  0  0  0  0  0  0  0  0
   24.6132  -20.5191   -6.6163 O   0  0  0  0  0  0  0  0  0  0  0  0
  2  3  1  0
  2  1  1  0
  3 11  1  0
  4  3  2  0
  6  8  1  0
  6  5  1  0
  7  6  2  0
  9  8  1  0
 10  9  1  1
 10 12  1  0
 11 10  1  0
 12 13  2  0
 12 19  1  0
 15 14  1  0
 15 16  1  0
 16 18  1  0
 16 17  1  1
 18 20  1  0
 18 19  1  6
 20 21  1  0
 22 20  2  0
M  END
$$$$
