GQI.pdb
     RDKit          3D

 22 21  0  0  1  0  0  0  0  0999 V2000
   26.4317  -11.8987  -16.3686 N   0  0  0  0  0  0  0  0  0  0  0  0
   25.1786  -12.3614  -15.8384 C   0  0  0  0  0  0  0  0  0  0  0  0
   24.0967  -11.3848  -16.1743 C   0  0  0  0  0  0  0  0  0  0  0  0
   24.3887  -10.3373  -16.8101 O   0  0  0  0  0  0  0  0  0  0  0  0
   18.2885  -13.1741  -16.1128 N   0  0  0  0  0  0  0  0  0  0  0  0
   18.0715  -11.8436  -16.5575 C   0  0  0  0  0  0  0  0  0  0  0  0
   16.9126  -11.5104  -16.8952 O   0  0  0  0  0  0  0  0  0  0  0  0
   19.1850  -10.8296  -16.6345 C   0  0  0  0  0  0  0  0  0  0  0  0
   20.4495  -11.5093  -16.2696 C   0  0  0  0  0  0  0  0  0  0  0  0
   21.6864  -10.6492  -16.2474 C   0  0  2  0  0  0  0  0  0  0  0  0
   22.7524  -11.5698  -15.8167 N   0  0  0  0  0  0  0  0  0  0  0  0
   21.5960   -9.5866  -15.2249 C   0  0  0  0  0  0  0  0  0  0  0  0
   21.8324   -9.9024  -14.0191 O   0  0  0  0  0  0  0  0  0  0  0  0
   22.5728   -3.6619  -14.1406 C   0  0  0  0  0  0  0  0  0  0  0  0
   22.0260   -4.9996  -13.7544 C   0  0  0  0  0  0  0  0  0  0  0  0
   21.9008   -5.9304  -14.9580 C   0  0  2  0  0  0  0  0  0  0  0  0
   20.8896   -5.3195  -15.9007 C   0  0  0  0  0  0  0  0  0  0  0  0
   21.3358   -7.2580  -14.4592 C   0  0  2  0  0  0  0  0  0  0  0  0
   21.2615   -8.2243  -15.5192 N   0  0  0  0  0  0  0  0  0  0  0  0
   20.0142   -7.0323  -13.8235 C   0  0  0  0  0  0  0  0  0  0  0  0
   18.8221   -7.2693  -14.4829 O   0  0  0  0  0  0  0  0  0  0  0  0
   19.9085   -6.6078  -12.6355 O   0  0  0  0  0  0  0  0  0  0  0  0
  2  3  1  0
  2  1  1  0
  3 11  1  0
  4  3  2  0
  6  8  1  0
  6  5  1  0
  7  6  2  0
  9  8  1  0
 10  9  1  1
 10 12  1  0
 11 10  1  0
 12 13  2  0
 12 19  1  0
 15 14  1  0
 15 16  1  0
 16 18  1  0
 16 17  1  6
 18 20  1  0
 18 19  1  6
 20 21  1  0
 22 20  2  0
M  END
$$$$
