GQI.pdb
     RDKit          3D

 22 21  0  0  1  0  0  0  0  0999 V2000
   28.1266  -18.4995  -15.6564 N   0  0  0  0  0  0  0  0  0  0  0  0
   28.6013  -18.8258  -14.3396 C   0  0  0  0  0  0  0  0  0  0  0  0
   27.4438  -18.9386  -13.3991 C   0  0  0  0  0  0  0  0  0  0  0  0
   26.7604  -17.9130  -13.1382 O   0  0  0  0  0  0  0  0  0  0  0  0
   22.9088  -19.6209  -13.3351 N   0  0  0  0  0  0  0  0  0  0  0  0
   22.8923  -20.3433  -12.1131 C   0  0  0  0  0  0  0  0  0  0  0  0
   22.1475  -19.9375  -11.1919 O   0  0  0  0  0  0  0  0  0  0  0  0
   23.7374  -21.5729  -11.8943 C   0  0  0  0  0  0  0  0  0  0  0  0
   25.0635  -21.3327  -12.5092 C   0  0  0  0  0  0  0  0  0  0  0  0
   25.8958  -20.2387  -11.8925 C   0  0  2  0  0  0  0  0  0  0  0  0
   27.0677  -20.1402  -12.7795 N   0  0  0  0  0  0  0  0  0  0  0  0
   26.3981  -20.6199  -10.5564 C   0  0  0  0  0  0  0  0  0  0  0  0
   27.2068  -21.5947  -10.4829 O   0  0  0  0  0  0  0  0  0  0  0  0
   28.8765  -18.2244   -6.5826 C   0  0  0  0  0  0  0  0  0  0  0  0
   28.2600  -19.2253   -7.5079 C   0  0  0  0  0  0  0  0  0  0  0  0
   26.8512  -19.6140   -7.0661 C   0  0  2  0  0  0  0  0  0  0  0  0
   26.9737  -20.3387   -5.7454 C   0  0  0  0  0  0  0  0  0  0  0  0
   26.3000  -20.5996   -8.0934 C   0  0  2  0  0  0  0  0  0  0  0  0
   26.0268  -19.9499   -9.3449 N   0  0  0  0  0  0  0  0  0  0  0  0
   25.0963  -21.2726   -7.5458 C   0  0  0  0  0  0  0  0  0  0  0  0
   25.1125  -22.5843   -7.1086 O   0  0  0  0  0  0  0  0  0  0  0  0
   23.9836  -20.6764   -7.4498 O   0  0  0  0  0  0  0  0  0  0  0  0
  2  3  1  0
  2  1  1  0
  3 11  1  0
  4  3  2  0
  6  8  1  0
  6  5  1  0
  7  6  2  0
  9  8  1  0
 10  9  1  6
 10 12  1  0
 11 10  1  0
 12 13  2  0
 12 19  1  0
 15 14  1  0
 15 16  1  0
 16 18  1  0
 16 17  1  1
 18 20  1  0
 18 19  1  6
 20 21  1  0
 22 20  2  0
M  END
$$$$
