GQI.pdb
     RDKit          3D

 22 21  0  0  1  0  0  0  0  0999 V2000
   23.7252  -18.6467  -18.6096 N   0  0  0  0  0  0  0  0  0  0  0  0
   23.7779  -18.1265  -17.2708 C   0  0  0  0  0  0  0  0  0  0  0  0
   24.5195  -19.0789  -16.3878 C   0  0  0  0  0  0  0  0  0  0  0  0
   23.9116  -20.0707  -15.9042 O   0  0  0  0  0  0  0  0  0  0  0  0
   27.8386  -22.5864  -17.4681 N   0  0  0  0  0  0  0  0  0  0  0  0
   28.5257  -21.7620  -16.5388 C   0  0  0  0  0  0  0  0  0  0  0  0
   29.0536  -22.3026  -15.5403 O   0  0  0  0  0  0  0  0  0  0  0  0
   28.6373  -20.2687  -16.7174 C   0  0  0  0  0  0  0  0  0  0  0  0
   28.0545  -19.6194  -15.5204 C   0  0  0  0  0  0  0  0  0  0  0  0
   26.6036  -19.9151  -15.2416 C   0  0  2  0  0  0  0  0  0  0  0  0
   25.8761  -18.9305  -16.0606 N   0  0  0  0  0  0  0  0  0  0  0  0
   26.2512  -19.6471  -13.8321 C   0  0  0  0  0  0  0  0  0  0  0  0
   26.2490  -18.4403  -13.4406 O   0  0  0  0  0  0  0  0  0  0  0  0
   22.2665  -19.9894   -9.6191 C   0  0  0  0  0  0  0  0  0  0  0  0
   23.7280  -19.9109   -9.9284 C   0  0  0  0  0  0  0  0  0  0  0  0
   24.0423  -20.4461  -11.3232 C   0  0  2  0  0  0  0  0  0  0  0  0
   23.7369  -21.9263  -11.3207 C   0  0  0  0  0  0  0  0  0  0  0  0
   25.5413  -20.2762  -11.5568 C   0  0  2  0  0  0  0  0  0  0  0  0
   25.9095  -20.6701  -12.8881 N   0  0  0  0  0  0  0  0  0  0  0  0
   26.2972  -21.0320  -10.5278 C   0  0  0  0  0  0  0  0  0  0  0  0
   26.9362  -22.2270  -10.8033 O   0  0  0  0  0  0  0  0  0  0  0  0
   26.3970  -20.6193   -9.3351 O   0  0  0  0  0  0  0  0  0  0  0  0
  2  3  1  0
  2  1  1  0
  3 11  1  0
  4  3  2  0
  6  8  1  0
  6  5  1  0
  7  6  2  0
  9  8  1  0
 10  9  1  1
 10 12  1  0
 11 10  1  0
 12 13  2  0
 12 19  1  0
 15 14  1  0
 15 16  1  0
 16 18  1  0
 16 17  1  1
 18 20  1  0
 18 19  1  6
 20 21  1  0
 22 20  2  0
M  END
$$$$
