MPT.pdb
     RDKit          3D

 23 23  0  0  1  0  0  0  0  0999 V2000
    7.1990  -11.1546   26.4044 C   0  0  0  0  0  0  0  0  0  0  0  0
    6.2887  -12.2917   27.4486 S   0  0  0  0  0  0  0  0  0  0  0  0
    5.7967  -13.7918   26.5304 C   0  0  0  0  0  0  0  0  0  0  0  0
    6.9864  -14.3811   25.8317 C   0  0  0  0  0  0  0  0  0  0  0  0
    6.5808  -15.5988   25.0373 C   0  0  2  0  0  0  0  0  0  0  0  0
    6.1533  -16.6629   25.9559 N   0  0  0  0  0  0  0  0  0  0  0  0
    7.6522  -16.0538   24.1434 C   0  0  0  0  0  0  0  0  0  0  0  0
    8.3403  -17.0523   24.4526 O   0  0  0  0  0  0  0  0  0  0  0  0
    7.9700  -15.3950   22.8860 N   0  0  0  0  0  0  0  0  0  0  0  0
    7.2209  -14.2838   22.3764 C   0  0  0  0  0  0  0  0  0  0  0  0
    7.6917  -14.1202   20.9494 C   0  0  0  0  0  0  0  0  0  0  0  0
    9.0725  -14.7199   20.9319 C   0  0  0  0  0  0  0  0  0  0  0  0
    9.0322  -15.7453   22.0204 C   0  0  1  0  0  0  0  0  0  0  0  0
   10.3593  -15.7871   22.7049 C   0  0  0  0  0  0  0  0  0  0  0  0
   10.6443  -14.8679   23.5039 O   0  0  0  0  0  0  0  0  0  0  0  0
   12.0056  -18.2668   25.1014 C   0  0  0  0  0  0  0  0  0  0  0  0
   12.7907  -18.2459   23.8113 C   0  0  1  0  0  0  0  0  0  0  0  0
   12.3109  -19.2928   23.0146 O   0  0  0  0  0  0  0  0  0  0  0  0
   12.5876  -16.9080   23.1591 C   0  0  2  0  0  0  0  0  0  0  0  0
   11.3032  -16.8124   22.4915 N   0  0  0  0  0  0  0  0  0  0  0  0
   13.6084  -16.7780   22.0767 C   0  0  0  0  0  0  0  0  0  0  0  0
   14.9033  -16.4679   22.4639 O   0  0  0  0  0  0  0  0  0  0  0  0
   13.3590  -16.9317   20.8595 O   0  0  0  0  0  0  0  0  0  0  0  0
  1  2  1  0
  3  2  1  0
  4  3  1  0
  5  7  1  0
  5  4  1  0
  5  6  1  1
  7  9  1  0
  8  7  2  0
  9 10  1  0
  9 13  1  0
 10 11  1  0
 11 12  1  0
 13 12  1  0
 13 14  1  1
 14 20  1  0
 15 14  2  0
 17 16  1  1
 18 17  1  0
 19 17  1  0
 19 20  1  6
 19 21  1  0
 21 22  1  0
 23 21  2  0
M  END
$$$$
