MPT.pdb
     RDKit          3D

 23 23  0  0  1  0  0  0  0  0999 V2000
    8.9107  -12.6539   28.2982 C   0  0  0  0  0  0  0  0  0  0  0  0
    7.5162  -12.8276   27.1861 S   0  0  0  0  0  0  0  0  0  0  0  0
    7.3894  -14.5297   26.5364 C   0  0  0  0  0  0  0  0  0  0  0  0
    6.3180  -14.6023   25.4886 C   0  0  0  0  0  0  0  0  0  0  0  0
    6.1950  -16.0100   24.9578 C   0  0  2  0  0  0  0  0  0  0  0  0
    6.1637  -16.9562   26.0815 N   0  0  0  0  0  0  0  0  0  0  0  0
    7.2647  -16.3343   24.0070 C   0  0  0  0  0  0  0  0  0  0  0  0
    7.9980  -17.3283   24.2085 O   0  0  0  0  0  0  0  0  0  0  0  0
    7.5302  -15.5477   22.8125 N   0  0  0  0  0  0  0  0  0  0  0  0
    6.7522  -14.4009   22.4447 C   0  0  0  0  0  0  0  0  0  0  0  0
    7.1692  -14.0877   21.0261 C   0  0  0  0  0  0  0  0  0  0  0  0
    8.5543  -14.6640   20.8993 C   0  0  0  0  0  0  0  0  0  0  0  0
    8.5636  -15.7945   21.8790 C   0  0  1  0  0  0  0  0  0  0  0  0
    9.9151  -15.8874   22.5087 C   0  0  0  0  0  0  0  0  0  0  0  0
   10.2097  -15.0668   23.4055 O   0  0  0  0  0  0  0  0  0  0  0  0
   11.6101  -18.6950   24.4334 C   0  0  0  0  0  0  0  0  0  0  0  0
   12.4294  -18.4265   23.1933 C   0  0  1  0  0  0  0  0  0  0  0  0
   12.0291  -19.3515   22.2212 O   0  0  0  0  0  0  0  0  0  0  0  0
   12.1738  -17.0116   22.7583 C   0  0  2  0  0  0  0  0  0  0  0  0
   10.8715  -16.8549   22.1386 N   0  0  0  0  0  0  0  0  0  0  0  0
   13.1642  -16.6861   21.6889 C   0  0  0  0  0  0  0  0  0  0  0  0
   14.4739  -16.4654   22.0871 O   0  0  0  0  0  0  0  0  0  0  0  0
   12.8772  -16.6036   20.4730 O   0  0  0  0  0  0  0  0  0  0  0  0
  1  2  1  0
  3  2  1  0
  4  3  1  0
  5  7  1  0
  5  4  1  0
  5  6  1  1
  7  9  1  0
  8  7  2  0
  9 10  1  0
  9 13  1  0
 10 11  1  0
 11 12  1  0
 13 12  1  0
 13 14  1  1
 14 20  1  0
 15 14  2  0
 17 16  1  1
 18 17  1  0
 19 17  1  0
 19 20  1  6
 19 21  1  0
 21 22  1  0
 23 21  2  0
M  END
$$$$
