MPT.pdb
     RDKit          3D

 23 23  0  0  1  0  0  0  0  0999 V2000
    5.7053  -10.9197   27.4346 C   0  0  0  0  0  0  0  0  0  0  0  0
    6.9951  -12.1247   27.1247 S   0  0  0  0  0  0  0  0  0  0  0  0
    6.3142  -13.6616   26.4107 C   0  0  0  0  0  0  0  0  0  0  0  0
    7.3425  -14.3260   25.5434 C   0  0  0  0  0  0  0  0  0  0  0  0
    6.7679  -15.5647   24.9000 C   0  0  2  0  0  0  0  0  0  0  0  0
    6.4495  -16.5536   25.9391 N   0  0  0  0  0  0  0  0  0  0  0  0
    7.6651  -16.1209   23.8804 C   0  0  0  0  0  0  0  0  0  0  0  0
    8.2687  -17.1950   24.0999 O   0  0  0  0  0  0  0  0  0  0  0  0
    7.9003  -15.4803   22.5957 N   0  0  0  0  0  0  0  0  0  0  0  0
    7.2380  -14.2744   22.1923 C   0  0  0  0  0  0  0  0  0  0  0  0
    7.5399  -14.1406   20.7174 C   0  0  0  0  0  0  0  0  0  0  0  0
    8.8209  -14.9063   20.5190 C   0  0  0  0  0  0  0  0  0  0  0  0
    8.7911  -15.9413   21.5986 C   0  0  1  0  0  0  0  0  0  0  0  0
   10.1787  -16.1617   22.1060 C   0  0  0  0  0  0  0  0  0  0  0  0
   10.6767  -15.3014   22.8652 O   0  0  0  0  0  0  0  0  0  0  0  0
   11.5200  -18.9390   24.2649 C   0  0  0  0  0  0  0  0  0  0  0  0
   12.2651  -18.9895   22.9521 C   0  0  1  0  0  0  0  0  0  0  0  0
   11.6167  -19.9286   22.1408 O   0  0  0  0  0  0  0  0  0  0  0  0
   12.2422  -17.6153   22.3455 C   0  0  2  0  0  0  0  0  0  0  0  0
   10.9510  -17.2919   21.7684 N   0  0  0  0  0  0  0  0  0  0  0  0
   13.2003  -17.6155   21.1999 C   0  0  0  0  0  0  0  0  0  0  0  0
   14.5519  -17.5780   21.5072 O   0  0  0  0  0  0  0  0  0  0  0  0
   12.8516  -17.6470   19.9979 O   0  0  0  0  0  0  0  0  0  0  0  0
  1  2  1  0
  3  2  1  0
  4  3  1  0
  5  7  1  0
  5  4  1  0
  5  6  1  1
  7  9  1  0
  8  7  2  0
  9 10  1  0
  9 13  1  0
 10 11  1  0
 11 12  1  0
 13 12  1  0
 13 14  1  1
 14 20  1  0
 15 14  2  0
 17 16  1  1
 18 17  1  0
 19 17  1  0
 19 20  1  6
 19 21  1  0
 21 22  1  0
 23 21  2  0
M  END
$$$$
