MPT.pdb
     RDKit          3D

 23 23  0  0  1  0  0  0  0  0999 V2000
    7.9268  -11.3006   26.7629 C   0  0  0  0  0  0  0  0  0  0  0  0
    7.2625  -12.5874   27.8186 S   0  0  0  0  0  0  0  0  0  0  0  0
    6.3634  -13.8473   26.8490 C   0  0  0  0  0  0  0  0  0  0  0  0
    7.3003  -14.5279   25.8951 C   0  0  0  0  0  0  0  0  0  0  0  0
    6.5653  -15.5717   25.0897 C   0  0  2  0  0  0  0  0  0  0  0  0
    6.0886  -16.6350   25.9847 N   0  0  0  0  0  0  0  0  0  0  0  0
    7.3916  -16.1095   24.0026 C   0  0  0  0  0  0  0  0  0  0  0  0
    7.9191  -17.2383   24.1200 O   0  0  0  0  0  0  0  0  0  0  0  0
    7.6403  -15.3887   22.7638 N   0  0  0  0  0  0  0  0  0  0  0  0
    6.9542  -14.1795   22.4134 C   0  0  0  0  0  0  0  0  0  0  0  0
    7.2888  -13.9515   20.9572 C   0  0  0  0  0  0  0  0  0  0  0  0
    8.5956  -14.6694   20.7488 C   0  0  0  0  0  0  0  0  0  0  0  0
    8.5684  -15.7663   21.7656 C   0  0  1  0  0  0  0  0  0  0  0  0
    9.9488  -15.9784   22.2959 C   0  0  0  0  0  0  0  0  0  0  0  0
   10.4108  -15.1398   23.1008 O   0  0  0  0  0  0  0  0  0  0  0  0
   11.6279  -18.4884   24.4832 C   0  0  0  0  0  0  0  0  0  0  0  0
   12.2452  -18.6232   23.1113 C   0  0  1  0  0  0  0  0  0  0  0  0
   11.5625  -19.6490   22.4463 O   0  0  0  0  0  0  0  0  0  0  0  0
   12.1059  -17.3065   22.4017 C   0  0  2  0  0  0  0  0  0  0  0  0
   10.7528  -17.0775   21.9310 N   0  0  0  0  0  0  0  0  0  0  0  0
   12.9491  -17.3699   21.1707 C   0  0  0  0  0  0  0  0  0  0  0  0
   14.3173  -17.2150   21.3339 O   0  0  0  0  0  0  0  0  0  0  0  0
   12.4918  -17.5522   20.0196 O   0  0  0  0  0  0  0  0  0  0  0  0
  1  2  1  0
  3  2  1  0
  4  3  1  0
  5  7  1  0
  5  4  1  0
  5  6  1  1
  7  9  1  0
  8  7  2  0
  9 10  1  0
  9 13  1  0
 10 11  1  0
 11 12  1  0
 13 12  1  0
 13 14  1  1
 14 20  1  0
 15 14  2  0
 17 16  1  1
 18 17  1  0
 19 17  1  0
 19 20  1  6
 19 21  1  0
 21 22  1  0
 23 21  2  0
M  END
$$$$
