MPT.pdb
     RDKit          3D

 23 23  0  0  1  0  0  0  0  0999 V2000
    7.1798  -10.9167   26.8468 C   0  0  0  0  0  0  0  0  0  0  0  0
    6.4451  -12.3449   27.6419 S   0  0  0  0  0  0  0  0  0  0  0  0
    5.8269  -13.5472   26.4140 C   0  0  0  0  0  0  0  0  0  0  0  0
    6.9786  -14.2093   25.7167 C   0  0  0  0  0  0  0  0  0  0  0  0
    6.5143  -15.4517   24.9961 C   0  0  2  0  0  0  0  0  0  0  0  0
    6.0932  -16.4595   25.9790 N   0  0  0  0  0  0  0  0  0  0  0  0
    7.5412  -15.9768   24.0886 C   0  0  0  0  0  0  0  0  0  0  0  0
    8.1517  -17.0296   24.3802 O   0  0  0  0  0  0  0  0  0  0  0  0
    7.9007  -15.3285   22.8370 N   0  0  0  0  0  0  0  0  0  0  0  0
    7.2240  -14.1676   22.3372 C   0  0  0  0  0  0  0  0  0  0  0  0
    7.7048  -14.0217   20.9117 C   0  0  0  0  0  0  0  0  0  0  0  0
    9.0447  -14.7079   20.8887 C   0  0  0  0  0  0  0  0  0  0  0  0
    8.9388  -15.7380   21.9682 C   0  0  1  0  0  0  0  0  0  0  0  0
   10.2603  -15.8701   22.6521 C   0  0  0  0  0  0  0  0  0  0  0  0
   10.5955  -14.9867   23.4716 O   0  0  0  0  0  0  0  0  0  0  0  0
   11.7629  -18.6940   24.8197 C   0  0  0  0  0  0  0  0  0  0  0  0
   12.6125  -18.5217   23.5828 C   0  0  1  0  0  0  0  0  0  0  0  0
   12.1880  -19.4755   22.6497 O   0  0  0  0  0  0  0  0  0  0  0  0
   12.4251  -17.1203   23.0754 C   0  0  2  0  0  0  0  0  0  0  0  0
   11.1451  -16.9422   22.4161 N   0  0  0  0  0  0  0  0  0  0  0  0
   13.4527  -16.8862   22.0173 C   0  0  0  0  0  0  0  0  0  0  0  0
   14.7364  -16.5774   22.4410 O   0  0  0  0  0  0  0  0  0  0  0  0
   13.2183  -16.9530   20.7892 O   0  0  0  0  0  0  0  0  0  0  0  0
  1  2  1  0
  3  2  1  0
  4  3  1  0
  5  7  1  0
  5  4  1  0
  5  6  1  1
  7  9  1  0
  8  7  2  0
  9 10  1  0
  9 13  1  0
 10 11  1  0
 11 12  1  0
 13 12  1  0
 13 14  1  1
 14 20  1  0
 15 14  2  0
 17 16  1  1
 18 17  1  0
 19 17  1  0
 19 20  1  6
 19 21  1  0
 21 22  1  0
 23 21  2  0
M  END
$$$$
