MPT.pdb
     RDKit          3D

 23 23  0  0  1  0  0  0  0  0999 V2000
    4.7646  -11.7089   26.2091 C   0  0  0  0  0  0  0  0  0  0  0  0
    6.4112  -12.2866   26.6173 S   0  0  0  0  0  0  0  0  0  0  0  0
    6.8948  -13.7098   25.5799 C   0  0  0  0  0  0  0  0  0  0  0  0
    6.0963  -14.9209   25.9629 C   0  0  0  0  0  0  0  0  0  0  0  0
    6.3549  -16.0500   24.9951 C   0  0  2  0  0  0  0  0  0  0  0  0
    5.6985  -17.2716   25.4809 N   0  0  0  0  0  0  0  0  0  0  0  0
    7.7893  -16.2606   24.7670 C   0  0  0  0  0  0  0  0  0  0  0  0
    8.4705  -16.8827   25.6127 O   0  0  0  0  0  0  0  0  0  0  0  0
    8.4843  -15.7760   23.5846 N   0  0  0  0  0  0  0  0  0  0  0  0
    7.8335  -15.0287   22.5485 C   0  0  0  0  0  0  0  0  0  0  0  0
    8.8264  -14.9988   21.4093 C   0  0  0  0  0  0  0  0  0  0  0  0
   10.1680  -15.1817   22.0674 C   0  0  0  0  0  0  0  0  0  0  0  0
    9.8575  -15.9648   23.3036 C   0  0  1  0  0  0  0  0  0  0  0  0
   10.7522  -15.5105   24.4102 C   0  0  0  0  0  0  0  0  0  0  0  0
   10.7040  -14.3098   24.7575 O   0  0  0  0  0  0  0  0  0  0  0  0
   10.8203  -14.5301   27.2764 C   0  0  0  0  0  0  0  0  0  0  0  0
   11.6405  -15.7851   27.4594 C   0  0  1  0  0  0  0  0  0  0  0  0
   10.7455  -16.8397   27.6774 O   0  0  0  0  0  0  0  0  0  0  0  0
   12.4615  -15.9951   26.2190 C   0  0  2  0  0  0  0  0  0  0  0  0
   11.6467  -16.3709   25.0790 N   0  0  0  0  0  0  0  0  0  0  0  0
   13.3584  -17.1629   26.4682 C   0  0  0  0  0  0  0  0  0  0  0  0
   14.3841  -16.9872   27.3847 O   0  0  0  0  0  0  0  0  0  0  0  0
   13.2339  -18.2725   25.9018 O   0  0  0  0  0  0  0  0  0  0  0  0
  1  2  1  0
  3  2  1  0
  4  3  1  0
  5  7  1  0
  5  4  1  0
  5  6  1  1
  7  9  1  0
  8  7  2  0
  9 10  1  0
  9 13  1  0
 10 11  1  0
 11 12  1  0
 13 12  1  0
 13 14  1  1
 14 20  1  0
 15 14  2  0
 17 16  1  6
 18 17  1  0
 19 17  1  0
 19 20  1  6
 19 21  1  0
 21 22  1  0
 23 21  2  0
M  END
$$$$
