MPT.pdb
     RDKit          3D

 23 23  0  0  1  0  0  0  0  0999 V2000
    6.0160  -11.6217   27.4705 C   0  0  0  0  0  0  0  0  0  0  0  0
    7.1999  -12.8902   27.0220 S   0  0  0  0  0  0  0  0  0  0  0  0
    6.4324  -14.1811   25.9827 C   0  0  0  0  0  0  0  0  0  0  0  0
    7.4392  -15.2440   25.6548 C   0  0  0  0  0  0  0  0  0  0  0  0
    6.8401  -16.2665   24.7199 C   0  0  2  0  0  0  0  0  0  0  0  0
    6.5749  -17.5090   25.4580 N   0  0  0  0  0  0  0  0  0  0  0  0
    7.6906  -16.5043   23.5478 C   0  0  0  0  0  0  0  0  0  0  0  0
    8.3665  -17.5547   23.4706 O   0  0  0  0  0  0  0  0  0  0  0  0
    7.7971  -15.5662   22.4411 N   0  0  0  0  0  0  0  0  0  0  0  0
    7.1158  -14.3050   22.4192 C   0  0  0  0  0  0  0  0  0  0  0  0
    7.2596  -13.8108   20.9980 C   0  0  0  0  0  0  0  0  0  0  0  0
    8.4987  -14.4918   20.4807 C   0  0  0  0  0  0  0  0  0  0  0  0
    8.5676  -15.7600   21.2711 C   0  0  1  0  0  0  0  0  0  0  0  0
    9.9979  -16.0840   21.5557 C   0  0  0  0  0  0  0  0  0  0  0  0
   10.7669  -16.2762   20.5881 O   0  0  0  0  0  0  0  0  0  0  0  0
   11.8817  -15.5316   25.4347 C   0  0  0  0  0  0  0  0  0  0  0  0
   12.0979  -16.7945   24.6350 C   0  0  1  0  0  0  0  0  0  0  0  0
   11.1666  -17.7378   25.0861 O   0  0  0  0  0  0  0  0  0  0  0  0
   11.9052  -16.4689   23.1812 C   0  0  2  0  0  0  0  0  0  0  0  0
   10.5191  -16.1834   22.8619 N   0  0  0  0  0  0  0  0  0  0  0  0
   12.2487  -17.6938   22.3987 C   0  0  0  0  0  0  0  0  0  0  0  0
   13.5865  -18.0546   22.3456 O   0  0  0  0  0  0  0  0  0  0  0  0
   11.4055  -18.3985   21.7989 O   0  0  0  0  0  0  0  0  0  0  0  0
  1  2  1  0
  3  2  1  0
  4  3  1  0
  5  7  1  0
  5  4  1  0
  5  6  1  1
  7  9  1  0
  8  7  2  0
  9 10  1  0
  9 13  1  0
 10 11  1  0
 11 12  1  0
 13 12  1  0
 13 14  1  1
 14 20  1  0
 15 14  2  0
 17 16  1  1
 18 17  1  0
 19 17  1  0
 19 20  1  1
 19 21  1  0
 21 22  1  0
 23 21  2  0
M  END
$$$$
