MPT.pdb
     RDKit          3D

 23 23  0  0  1  0  0  0  0  0999 V2000
    7.4249  -11.1887   26.4089 C   0  0  0  0  0  0  0  0  0  0  0  0
    6.6615  -12.3738   27.5156 S   0  0  0  0  0  0  0  0  0  0  0  0
    5.9979  -13.8087   26.6011 C   0  0  0  0  0  0  0  0  0  0  0  0
    7.0926  -14.4704   25.8169 C   0  0  0  0  0  0  0  0  0  0  0  0
    6.5493  -15.6479   25.0444 C   0  0  2  0  0  0  0  0  0  0  0  0
    6.1529  -16.7078   25.9817 N   0  0  0  0  0  0  0  0  0  0  0  0
    7.5061  -16.1387   24.0457 C   0  0  0  0  0  0  0  0  0  0  0  0
    8.0806  -17.2369   24.2194 O   0  0  0  0  0  0  0  0  0  0  0  0
    7.8349  -15.4044   22.8338 N   0  0  0  0  0  0  0  0  0  0  0  0
    7.1164  -14.2390   22.4085 C   0  0  0  0  0  0  0  0  0  0  0  0
    7.5819  -13.9914   20.9920 C   0  0  0  0  0  0  0  0  0  0  0  0
    8.9437  -14.6293   20.9208 C   0  0  0  0  0  0  0  0  0  0  0  0
    8.8799  -15.7256   21.9365 C   0  0  1  0  0  0  0  0  0  0  0  0
   10.2100  -15.8540   22.6045 C   0  0  0  0  0  0  0  0  0  0  0  0
   10.5139  -15.0213   23.4870 O   0  0  0  0  0  0  0  0  0  0  0  0
   11.6988  -18.5119   24.7782 C   0  0  0  0  0  0  0  0  0  0  0  0
   12.5463  -18.4410   23.5300 C   0  0  1  0  0  0  0  0  0  0  0  0
   12.0773  -19.4254   22.6516 O   0  0  0  0  0  0  0  0  0  0  0  0
   12.4122  -17.0623   22.9486 C   0  0  2  0  0  0  0  0  0  0  0  0
   11.1363  -16.8681   22.2860 N   0  0  0  0  0  0  0  0  0  0  0  0
   13.4417  -16.9271   21.8752 C   0  0  0  0  0  0  0  0  0  0  0  0
   14.7408  -16.6557   22.2768 O   0  0  0  0  0  0  0  0  0  0  0  0
   13.1959  -17.0439   20.6531 O   0  0  0  0  0  0  0  0  0  0  0  0
  1  2  1  0
  3  2  1  0
  4  3  1  0
  5  7  1  0
  5  4  1  0
  5  6  1  1
  7  9  1  0
  8  7  2  0
  9 10  1  0
  9 13  1  0
 10 11  1  0
 11 12  1  0
 13 12  1  0
 13 14  1  1
 14 20  1  0
 15 14  2  0
 17 16  1  1
 18 17  1  0
 19 17  1  0
 19 20  1  6
 19 21  1  0
 21 22  1  0
 23 21  2  0
M  END
$$$$
