MPT.pdb
     RDKit          3D

 23 23  0  0  1  0  0  0  0  0999 V2000
    7.4300  -11.3986   27.3352 C   0  0  0  0  0  0  0  0  0  0  0  0
    6.0406  -12.5295   27.3836 S   0  0  0  0  0  0  0  0  0  0  0  0
    6.5410  -14.2211   26.9109 C   0  0  0  0  0  0  0  0  0  0  0  0
    6.6022  -14.3412   25.4166 C   0  0  0  0  0  0  0  0  0  0  0  0
    6.4840  -15.7869   24.9991 C   0  0  2  0  0  0  0  0  0  0  0  0
    6.3766  -16.6347   26.1944 N   0  0  0  0  0  0  0  0  0  0  0  0
    7.5976  -16.2033   24.1387 C   0  0  0  0  0  0  0  0  0  0  0  0
    8.3245  -17.1631   24.4802 O   0  0  0  0  0  0  0  0  0  0  0  0
    7.9148  -15.5488   22.8789 N   0  0  0  0  0  0  0  0  0  0  0  0
    7.1633  -14.4417   22.3640 C   0  0  0  0  0  0  0  0  0  0  0  0
    7.6349  -14.2827   20.9368 C   0  0  0  0  0  0  0  0  0  0  0  0
    9.0173  -14.8787   20.9231 C   0  0  0  0  0  0  0  0  0  0  0  0
    8.9787  -15.8997   22.0157 C   0  0  1  0  0  0  0  0  0  0  0  0
   10.3053  -15.9352   22.7016 C   0  0  0  0  0  0  0  0  0  0  0  0
   10.4869  -15.1803   23.6823 O   0  0  0  0  0  0  0  0  0  0  0  0
   14.1661  -18.5214   24.0713 C   0  0  0  0  0  0  0  0  0  0  0  0
   12.8125  -18.4067   23.4112 C   0  0  1  0  0  0  0  0  0  0  0  0
   11.8589  -18.8487   24.3364 O   0  0  0  0  0  0  0  0  0  0  0  0
   12.5967  -16.9704   23.0279 C   0  0  2  0  0  0  0  0  0  0  0  0
   11.3597  -16.7781   22.2947 N   0  0  0  0  0  0  0  0  0  0  0  0
   13.6846  -16.5923   22.0772 C   0  0  0  0  0  0  0  0  0  0  0  0
   13.5533  -17.0202   20.7648 O   0  0  0  0  0  0  0  0  0  0  0  0
   14.6912  -15.9211   22.3991 O   0  0  0  0  0  0  0  0  0  0  0  0
  1  2  1  0
  3  2  1  0
  4  3  1  0
  5  7  1  0
  5  4  1  0
  5  6  1  1
  7  9  1  0
  8  7  2  0
  9 10  1  0
  9 13  1  0
 10 11  1  0
 11 12  1  0
 13 12  1  0
 13 14  1  1
 14 20  1  0
 15 14  2  0
 17 16  1  1
 18 17  1  0
 19 17  1  0
 19 20  1  6
 19 21  1  0
 21 22  1  0
 23 21  2  0
M  END
$$$$
