MPT.pdb
     RDKit          3D

 23 23  0  0  1  0  0  0  0  0999 V2000
    5.7868  -12.5301   19.6881 C   0  0  0  0  0  0  0  0  0  0  0  0
    7.0395  -13.5638   18.9306 S   0  0  0  0  0  0  0  0  0  0  0  0
    8.5238  -13.6949   19.9867 C   0  0  0  0  0  0  0  0  0  0  0  0
    8.1461  -14.2119   21.3436 C   0  0  0  0  0  0  0  0  0  0  0  0
    9.3693  -14.3350   22.2194 C   0  0  2  0  0  0  0  0  0  0  0  0
   10.3550  -15.2060   21.5646 N   0  0  0  0  0  0  0  0  0  0  0  0
    9.0350  -14.8129   23.5661 C   0  0  0  0  0  0  0  0  0  0  0  0
    9.6375  -15.7998   24.0450 O   0  0  0  0  0  0  0  0  0  0  0  0
    8.0178  -14.1907   24.3992 N   0  0  0  0  0  0  0  0  0  0  0  0
    7.2370  -13.0676   23.9694 C   0  0  0  0  0  0  0  0  0  0  0  0
    6.5465  -12.5736   25.2199 C   0  0  0  0  0  0  0  0  0  0  0  0
    6.4856  -13.7767   26.1229 C   0  0  0  0  0  0  0  0  0  0  0  0
    7.6651  -14.5975   25.7070 C   0  0  1  0  0  0  0  0  0  0  0  0
    7.3114  -16.0461   25.7971 C   0  0  0  0  0  0  0  0  0  0  0  0
    6.2555  -16.4344   25.2503 O   0  0  0  0  0  0  0  0  0  0  0  0
    7.7146  -18.7300   24.1496 C   0  0  0  0  0  0  0  0  0  0  0  0
    8.3862  -19.1921   25.4211 C   0  0  1  0  0  0  0  0  0  0  0  0
    9.7602  -18.9669   25.2722 O   0  0  0  0  0  0  0  0  0  0  0  0
    7.8118  -18.4093   26.5673 C   0  0  2  0  0  0  0  0  0  0  0  0
    8.1110  -16.9931   26.4690 N   0  0  0  0  0  0  0  0  0  0  0  0
    8.4931  -18.8736   27.8126 C   0  0  0  0  0  0  0  0  0  0  0  0
    8.2307  -20.1695   28.2303 O   0  0  0  0  0  0  0  0  0  0  0  0
    9.2748  -18.1650   28.4866 O   0  0  0  0  0  0  0  0  0  0  0  0
  1  2  1  0
  3  2  1  0
  4  3  1  0
  5  7  1  0
  5  4  1  0
  5  6  1  6
  7  9  1  0
  8  7  2  0
  9 10  1  0
  9 13  1  0
 10 11  1  0
 11 12  1  0
 13 12  1  0
 13 14  1  6
 14 20  1  0
 15 14  2  0
 17 16  1  6
 18 17  1  0
 19 17  1  0
 19 20  1  6
 19 21  1  0
 21 22  1  0
 23 21  2  0
M  END
$$$$
