MPT.pdb
     RDKit          3D

 23 23  0  0  1  0  0  0  0  0999 V2000
    5.7362  -11.9115   27.2447 C   0  0  0  0  0  0  0  0  0  0  0  0
    6.6149  -12.5332   25.8119 S   0  0  0  0  0  0  0  0  0  0  0  0
    7.9832  -13.6411   26.2977 C   0  0  0  0  0  0  0  0  0  0  0  0
    7.4522  -15.0099   26.6070 C   0  0  0  0  0  0  0  0  0  0  0  0
    6.7125  -15.5693   25.4161 C   0  0  2  0  0  0  0  0  0  0  0  0
    5.8009  -16.6324   25.8610 N   0  0  0  0  0  0  0  0  0  0  0  0
    7.6293  -16.0440   24.3731 C   0  0  0  0  0  0  0  0  0  0  0  0
    8.3424  -17.0512   24.5808 O   0  0  0  0  0  0  0  0  0  0  0  0
    7.7615  -15.3955   23.0776 N   0  0  0  0  0  0  0  0  0  0  0  0
    7.0298  -14.2164   22.7171 C   0  0  0  0  0  0  0  0  0  0  0  0
    7.2367  -14.0718   21.2269 C   0  0  0  0  0  0  0  0  0  0  0  0
    8.5320  -14.7874   20.9501 C   0  0  0  0  0  0  0  0  0  0  0  0
    8.6076  -15.8222   22.0278 C   0  0  1  0  0  0  0  0  0  0  0  0
   10.0309  -15.9882   22.4501 C   0  0  0  0  0  0  0  0  0  0  0  0
   10.5514  -15.0907   23.1486 O   0  0  0  0  0  0  0  0  0  0  0  0
   11.7906  -18.4734   24.6471 C   0  0  0  0  0  0  0  0  0  0  0  0
   12.3430  -18.6361   23.2508 C   0  0  1  0  0  0  0  0  0  0  0  0
   11.6229  -19.6674   22.6355 O   0  0  0  0  0  0  0  0  0  0  0  0
   12.1806  -17.3304   22.5260 C   0  0  2  0  0  0  0  0  0  0  0  0
   10.8126  -17.1073   22.0974 N   0  0  0  0  0  0  0  0  0  0  0  0
   12.9820  -17.4137   21.2685 C   0  0  0  0  0  0  0  0  0  0  0  0
   14.3538  -17.2462   21.3817 O   0  0  0  0  0  0  0  0  0  0  0  0
   12.4872  -17.6229   20.1376 O   0  0  0  0  0  0  0  0  0  0  0  0
  1  2  1  0
  3  2  1  0
  4  3  1  0
  5  7  1  0
  5  4  1  0
  5  6  1  1
  7  9  1  0
  8  7  2  0
  9 10  1  0
  9 13  1  0
 10 11  1  0
 11 12  1  0
 13 12  1  0
 13 14  1  1
 14 20  1  0
 15 14  2  0
 17 16  1  1
 18 17  1  0
 19 17  1  0
 19 20  1  6
 19 21  1  0
 21 22  1  0
 23 21  2  0
M  END
$$$$
