MPT.pdb
     RDKit          3D

 23 23  0  0  1  0  0  0  0  0999 V2000
    5.9226  -10.7809   27.3248 C   0  0  0  0  0  0  0  0  0  0  0  0
    7.0554  -12.1691   27.2875 S   0  0  0  0  0  0  0  0  0  0  0  0
    6.3157  -13.6108   26.4449 C   0  0  0  0  0  0  0  0  0  0  0  0
    7.3529  -14.3117   25.6179 C   0  0  0  0  0  0  0  0  0  0  0  0
    6.7391  -15.4765   24.8797 C   0  0  2  0  0  0  0  0  0  0  0  0
    6.2668  -16.4759   25.8478 N   0  0  0  0  0  0  0  0  0  0  0  0
    7.6689  -16.0624   23.9072 C   0  0  0  0  0  0  0  0  0  0  0  0
    8.2354  -17.1487   24.1623 O   0  0  0  0  0  0  0  0  0  0  0  0
    7.9792  -15.4383   22.6304 N   0  0  0  0  0  0  0  0  0  0  0  0
    7.3506  -14.2315   22.1786 C   0  0  0  0  0  0  0  0  0  0  0  0
    7.7332  -14.1167   20.7209 C   0  0  0  0  0  0  0  0  0  0  0  0
    9.0161  -14.8954   20.6006 C   0  0  0  0  0  0  0  0  0  0  0  0
    8.9185  -15.9179   21.6881 C   0  0  1  0  0  0  0  0  0  0  0  0
   10.2746  -16.1442   22.2724 C   0  0  0  0  0  0  0  0  0  0  0  0
   10.6833  -15.3508   23.1488 O   0  0  0  0  0  0  0  0  0  0  0  0
   13.9044  -19.3465   23.1886 C   0  0  0  0  0  0  0  0  0  0  0  0
   12.5555  -19.0673   22.5691 C   0  0  1  0  0  0  0  0  0  0  0  0
   11.5947  -19.7196   23.3514 O   0  0  0  0  0  0  0  0  0  0  0  0
   12.3458  -17.5799   22.5502 C   0  0  2  0  0  0  0  0  0  0  0  0
   11.1131  -17.2082   21.8816 N   0  0  0  0  0  0  0  0  0  0  0  0
   13.4396  -16.9840   21.7263 C   0  0  0  0  0  0  0  0  0  0  0  0
   13.3266  -17.0982   20.3490 O   0  0  0  0  0  0  0  0  0  0  0  0
   14.4356  -16.3973   22.2071 O   0  0  0  0  0  0  0  0  0  0  0  0
  1  2  1  0
  3  2  1  0
  4  3  1  0
  5  7  1  0
  5  4  1  0
  5  6  1  1
  7  9  1  0
  8  7  2  0
  9 10  1  0
  9 13  1  0
 10 11  1  0
 11 12  1  0
 13 12  1  0
 13 14  1  1
 14 20  1  0
 15 14  2  0
 17 16  1  1
 18 17  1  0
 19 17  1  0
 19 20  1  6
 19 21  1  0
 21 22  1  0
 23 21  2  0
M  END
$$$$
