MPT.pdb
     RDKit          3D

 23 23  0  0  1  0  0  0  0  0999 V2000
    8.2947  -12.0913   27.6539 C   0  0  0  0  0  0  0  0  0  0  0  0
    6.5642  -12.0626   27.1887 S   0  0  0  0  0  0  0  0  0  0  0  0
    6.0025  -13.7008   26.6087 C   0  0  0  0  0  0  0  0  0  0  0  0
    7.0905  -14.3687   25.8206 C   0  0  0  0  0  0  0  0  0  0  0  0
    6.5630  -15.6090   25.1409 C   0  0  2  0  0  0  0  0  0  0  0  0
    6.2047  -16.6090   26.1561 N   0  0  0  0  0  0  0  0  0  0  0  0
    7.5161  -16.1476   24.1636 C   0  0  0  0  0  0  0  0  0  0  0  0
    8.1431  -17.2002   24.4187 O   0  0  0  0  0  0  0  0  0  0  0  0
    7.7821  -15.5133   22.8818 N   0  0  0  0  0  0  0  0  0  0  0  0
    7.0446  -14.3805   22.4039 C   0  0  0  0  0  0  0  0  0  0  0  0
    7.4353  -14.2483   20.9498 C   0  0  0  0  0  0  0  0  0  0  0  0
    8.7901  -14.8984   20.8580 C   0  0  0  0  0  0  0  0  0  0  0  0
    8.7777  -15.9108   21.9592 C   0  0  1  0  0  0  0  0  0  0  0  0
   10.1408  -15.9945   22.5646 C   0  0  0  0  0  0  0  0  0  0  0  0
   10.5211  -15.0588   23.3024 O   0  0  0  0  0  0  0  0  0  0  0  0
   11.8251  -18.8726   24.6493 C   0  0  0  0  0  0  0  0  0  0  0  0
   12.6127  -18.6172   23.3860 C   0  0  1  0  0  0  0  0  0  0  0  0
   12.1984  -19.5614   22.4386 O   0  0  0  0  0  0  0  0  0  0  0  0
   12.3339  -17.2119   22.9343 C   0  0  2  0  0  0  0  0  0  0  0  0
   11.0162  -17.0771   22.3424 N   0  0  0  0  0  0  0  0  0  0  0  0
   13.2963  -16.8949   21.8372 C   0  0  0  0  0  0  0  0  0  0  0  0
   14.6078  -16.6334   22.2038 O   0  0  0  0  0  0  0  0  0  0  0  0
   12.9849  -16.8538   20.6253 O   0  0  0  0  0  0  0  0  0  0  0  0
  1  2  1  0
  3  2  1  0
  4  3  1  0
  5  7  1  0
  5  4  1  0
  5  6  1  1
  7  9  1  0
  8  7  2  0
  9 10  1  0
  9 13  1  0
 10 11  1  0
 11 12  1  0
 13 12  1  0
 13 14  1  1
 14 20  1  0
 15 14  2  0
 17 16  1  1
 18 17  1  0
 19 17  1  0
 19 20  1  6
 19 21  1  0
 21 22  1  0
 23 21  2  0
M  END
$$$$
