MPT.pdb
     RDKit          3D

 23 23  0  0  1  0  0  0  0  0999 V2000
    8.1496  -12.5747   28.2093 C   0  0  0  0  0  0  0  0  0  0  0  0
    6.7801  -12.0265   27.1917 S   0  0  0  0  0  0  0  0  0  0  0  0
    6.0042  -13.4243   26.3086 C   0  0  0  0  0  0  0  0  0  0  0  0
    7.0363  -14.1664   25.5117 C   0  0  0  0  0  0  0  0  0  0  0  0
    6.4103  -15.3456   24.8075 C   0  0  2  0  0  0  0  0  0  0  0  0
    5.9826  -16.3393   25.8018 N   0  0  0  0  0  0  0  0  0  0  0  0
    7.3126  -15.9322   23.8097 C   0  0  0  0  0  0  0  0  0  0  0  0
    7.8459  -17.0432   24.0279 O   0  0  0  0  0  0  0  0  0  0  0  0
    7.6322  -15.2811   22.5488 N   0  0  0  0  0  0  0  0  0  0  0  0
    7.0712  -14.0212   22.1571 C   0  0  0  0  0  0  0  0  0  0  0  0
    7.4264  -13.8759   20.6952 C   0  0  0  0  0  0  0  0  0  0  0  0
    8.6541  -14.7283   20.5141 C   0  0  0  0  0  0  0  0  0  0  0  0
    8.5170  -15.7829   21.5661 C   0  0  1  0  0  0  0  0  0  0  0  0
    9.8692  -16.1155   22.1070 C   0  0  0  0  0  0  0  0  0  0  0  0
   10.3891  -15.3298   22.9298 O   0  0  0  0  0  0  0  0  0  0  0  0
   11.3119  -19.4534   23.6974 C   0  0  0  0  0  0  0  0  0  0  0  0
   12.0677  -19.0903   22.4411 C   0  0  1  0  0  0  0  0  0  0  0  0
   11.5223  -19.8437   21.3944 O   0  0  0  0  0  0  0  0  0  0  0  0
   11.9115  -17.6144   22.2087 C   0  0  2  0  0  0  0  0  0  0  0  0
   10.5846  -17.2713   21.7329 N   0  0  0  0  0  0  0  0  0  0  0  0
   12.8405  -17.2346   21.1027 C   0  0  0  0  0  0  0  0  0  0  0  0
   14.1888  -17.1447   21.4134 O   0  0  0  0  0  0  0  0  0  0  0  0
   12.4704  -16.9973   19.9304 O   0  0  0  0  0  0  0  0  0  0  0  0
  1  2  1  0
  3  2  1  0
  4  3  1  0
  5  7  1  0
  5  4  1  0
  5  6  1  1
  7  9  1  0
  8  7  2  0
  9 10  1  0
  9 13  1  0
 10 11  1  0
 11 12  1  0
 13 12  1  0
 13 14  1  1
 14 20  1  0
 15 14  2  0
 17 16  1  1
 18 17  1  0
 19 17  1  0
 19 20  1  6
 19 21  1  0
 21 22  1  0
 23 21  2  0
M  END
$$$$
