AFH.pdb
     RDKit          3D

 27 28  0  0  1  0  0  0  0  0999 V2000
   10.0952  -16.0382   18.9421 C   0  0  0  0  0  0  0  0  0  0  0  0
    9.7087  -16.8292   20.1578 C   0  0  2  0  0  0  0  0  0  0  0  0
    8.4892  -17.5252   19.8920 N   0  0  0  0  0  0  0  0  0  0  0  0
    9.6677  -16.0084   21.3875 C   0  0  0  0  0  0  0  0  0  0  0  0
   10.7272  -15.4667   21.7954 O   0  0  0  0  0  0  0  0  0  0  0  0
    8.4983  -15.7814   22.1576 N   0  0  0  0  0  0  0  0  0  0  0  0
    8.4978  -15.0491   23.4062 C   0  0  1  0  0  0  0  0  0  0  0  0
    7.1795  -14.3564   23.6601 C   0  0  0  0  0  0  0  0  0  0  0  0
    7.1702  -13.6370   24.9536 C   0  0  0  0  0  0  0  0  0  0  0  0
    6.3466  -14.0951   25.9548 C   0  0  0  0  0  0  0  0  0  0  0  0
    6.3065  -13.4558   27.1744 C   0  0  0  0  0  0  0  0  0  0  0  0
    7.0893  -12.3549   27.4002 C   0  0  0  0  0  0  0  0  0  0  0  0
    7.9206  -11.8790   26.4134 C   0  0  0  0  0  0  0  0  0  0  0  0
    7.9551  -12.5207   25.2020 C   0  0  0  0  0  0  0  0  0  0  0  0
    8.7025  -16.0229   24.4988 C   0  0  0  0  0  0  0  0  0  0  0  0
    7.8108  -16.8786   24.7160 O   0  0  0  0  0  0  0  0  0  0  0  0
    9.8808  -15.9809   25.2750 N   0  0  0  0  0  0  0  0  0  0  0  0
   10.1006  -16.9541   26.3647 C   0  0  1  0  0  0  0  0  0  0  0  0
   11.4517  -17.5677   26.2691 C   0  0  0  0  0  0  0  0  0  0  0  0
   11.5417  -18.4672   25.1037 C   0  0  0  0  0  0  0  0  0  0  0  0
   10.9876  -19.6792   24.8102 C   0  0  0  0  0  0  0  0  0  0  0  0
   11.3246  -20.0755   23.5462 N   0  0  0  0  0  0  0  0  0  0  0  0
   12.0854  -19.0975   23.0714 C   0  0  0  0  0  0  0  0  0  0  0  0
   12.2326  -18.1259   23.9750 N   0  0  0  0  0  0  0  0  0  0  0  0
   10.1169  -16.1370   27.6475 C   0  0  0  0  0  0  0  0  0  0  0  0
   10.0341  -14.9247   27.7211 O   0  0  0  0  0  0  0  0  0  0  0  0
   10.2385  -16.8315   28.8706 O   0  0  0  0  0  0  0  0  0  0  0  0
  2  1  1  6
  2  3  1  0
  4  2  1  0
  5  4  2  0
  6  4  1  0
  7  6  1  0
  7  8  1  1
  9  8  1  0
 10  9  2  0
 11 10  1  0
 12 11  2  0
 12 13  1  0
 13 14  2  0
 14  9  1  0
 15 17  1  0
 15  7  1  0
 16 15  2  0
 18 25  1  0
 18 17  1  0
 18 19  1  6
 20 21  2  0
 20 19  1  0
 22 21  1  0
 23 24  2  0
 23 22  1  0
 24 20  1  0
 25 27  1  0
 26 25  2  0
M  END
$$$$
