AFH.pdb
     RDKit          3D

 27 28  0  0  1  0  0  0  0  0999 V2000
    8.8123  -18.6220   20.0723 C   0  0  0  0  0  0  0  0  0  0  0  0
    8.7390  -17.1381   19.8585 C   0  0  2  0  0  0  0  0  0  0  0  0
    9.6624  -16.7695   18.8319 N   0  0  0  0  0  0  0  0  0  0  0  0
    8.9057  -16.3689   21.1108 C   0  0  0  0  0  0  0  0  0  0  0  0
   10.0671  -16.0953   21.5091 O   0  0  0  0  0  0  0  0  0  0  0  0
    7.8312  -15.9069   21.9133 N   0  0  0  0  0  0  0  0  0  0  0  0
    8.0151  -15.1001   23.1010 C   0  0  1  0  0  0  0  0  0  0  0  0
    6.7291  -14.4478   23.5516 C   0  0  0  0  0  0  0  0  0  0  0  0
    6.9186  -13.6303   24.7709 C   0  0  0  0  0  0  0  0  0  0  0  0
    6.2768  -14.0128   25.9252 C   0  0  0  0  0  0  0  0  0  0  0  0
    6.4251  -13.2810   27.0829 C   0  0  0  0  0  0  0  0  0  0  0  0
    7.2158  -12.1627   27.0934 C   0  0  0  0  0  0  0  0  0  0  0  0
    7.8672  -11.7614   25.9506 C   0  0  0  0  0  0  0  0  0  0  0  0
    7.7147  -12.4950   24.8021 C   0  0  0  0  0  0  0  0  0  0  0  0
    8.4604  -15.9960   24.1887 C   0  0  0  0  0  0  0  0  0  0  0  0
    7.7283  -16.9637   24.5079 O   0  0  0  0  0  0  0  0  0  0  0  0
    9.6859  -15.7574   24.8473 N   0  0  0  0  0  0  0  0  0  0  0  0
   10.2155  -16.7266   25.8286 C   0  0  1  0  0  0  0  0  0  0  0  0
   11.7018  -16.6963   25.8615 C   0  0  0  0  0  0  0  0  0  0  0  0
   12.2691  -17.2870   24.6349 C   0  0  0  0  0  0  0  0  0  0  0  0
   11.8865  -18.3185   23.8277 C   0  0  0  0  0  0  0  0  0  0  0  0
   12.7202  -18.4289   22.7502 N   0  0  0  0  0  0  0  0  0  0  0  0
   13.6113  -17.4578   22.9050 C   0  0  0  0  0  0  0  0  0  0  0  0
   13.3689  -16.7607   24.0174 N   0  0  0  0  0  0  0  0  0  0  0  0
    9.7699  -16.2167   27.1906 C   0  0  0  0  0  0  0  0  0  0  0  0
    9.3815  -16.9047   28.1167 O   0  0  0  0  0  0  0  0  0  0  0  0
    9.8035  -14.8236   27.4168 O   0  0  0  0  0  0  0  0  0  0  0  0
  2  1  1  1
  2  3  1  0
  4  2  1  0
  5  4  2  0
  6  4  1  0
  7  6  1  0
  7  8  1  1
  9  8  1  0
 10  9  2  0
 11 10  1  0
 12 11  2  0
 12 13  1  0
 13 14  2  0
 14  9  1  0
 15 17  1  0
 15  7  1  0
 16 15  2  0
 18 25  1  0
 18 17  1  0
 18 19  1  1
 20 21  2  0
 20 19  1  0
 22 21  1  0
 23 24  2  0
 23 22  1  0
 24 20  1  0
 25 27  1  0
 26 25  2  0
M  END
$$$$
