AFH.pdb
     RDKit          3D

 27 28  0  0  1  0  0  0  0  0999 V2000
    8.7795  -20.1232   19.6661 C   0  0  0  0  0  0  0  0  0  0  0  0
    8.8950  -18.7657   19.0361 C   0  0  2  0  0  0  0  0  0  0  0  0
    9.4816  -18.9025   17.7401 N   0  0  0  0  0  0  0  0  0  0  0  0
    9.5899  -17.7884   19.9018 C   0  0  0  0  0  0  0  0  0  0  0  0
   10.7883  -17.4971   19.6540 O   0  0  0  0  0  0  0  0  0  0  0  0
    8.9935  -17.1412   21.0143 N   0  0  0  0  0  0  0  0  0  0  0  0
    9.6915  -16.1836   21.8457 C   0  0  1  0  0  0  0  0  0  0  0  0
    8.7510  -15.1820   22.4739 C   0  0  0  0  0  0  0  0  0  0  0  0
    8.1108  -14.3112   21.4627 C   0  0  0  0  0  0  0  0  0  0  0  0
    6.8146  -14.5791   21.0903 C   0  0  0  0  0  0  0  0  0  0  0  0
    6.1802  -13.7941   20.1527 C   0  0  0  0  0  0  0  0  0  0  0  0
    6.8378  -12.7370   19.5819 C   0  0  0  0  0  0  0  0  0  0  0  0
    8.1345  -12.4504   19.9391 C   0  0  0  0  0  0  0  0  0  0  0  0
    8.7594  -13.2362   20.8732 C   0  0  0  0  0  0  0  0  0  0  0  0
   10.3396  -16.9300   22.9442 C   0  0  0  0  0  0  0  0  0  0  0  0
    9.6896  -17.8348   23.5215 O   0  0  0  0  0  0  0  0  0  0  0  0
   11.6630  -16.6220   23.3270 N   0  0  0  0  0  0  0  0  0  0  0  0
   12.5612  -17.6733   23.8473 C   0  0  1  0  0  0  0  0  0  0  0  0
   13.0134  -18.5779   22.7572 C   0  0  0  0  0  0  0  0  0  0  0  0
   12.1644  -19.7818   22.6841 C   0  0  0  0  0  0  0  0  0  0  0  0
   11.0664  -20.1980   23.3790 C   0  0  0  0  0  0  0  0  0  0  0  0
   10.5880  -21.3749   22.8747 N   0  0  0  0  0  0  0  0  0  0  0  0
   11.3999  -21.6720   21.8680 C   0  0  0  0  0  0  0  0  0  0  0  0
   12.3480  -20.7425   21.7294 N   0  0  0  0  0  0  0  0  0  0  0  0
   13.8130  -16.9481   24.3170 C   0  0  0  0  0  0  0  0  0  0  0  0
   14.5188  -17.2780   25.2523 O   0  0  0  0  0  0  0  0  0  0  0  0
   14.2047  -15.7867   23.6163 O   0  0  0  0  0  0  0  0  0  0  0  0
  2  1  1  1
  2  3  1  0
  4  2  1  0
  5  4  2  0
  6  4  1  0
  7  6  1  0
  7  8  1  1
  9  8  1  0
 10  9  2  0
 11 10  1  0
 12 11  2  0
 12 13  1  0
 13 14  2  0
 14  9  1  0
 15 17  1  0
 15  7  1  0
 16 15  2  0
 18 25  1  0
 18 17  1  0
 18 19  1  6
 20 21  2  0
 20 19  1  0
 22 21  1  0
 23 24  2  0
 23 22  1  0
 24 20  1  0
 25 27  1  0
 26 25  2  0
M  END
$$$$
