AFH.pdb
     RDKit          3D

 27 28  0  0  1  0  0  0  0  0999 V2000
    8.0295  -20.4622   19.4692 C   0  0  0  0  0  0  0  0  0  0  0  0
    7.6217  -19.0190   19.4075 C   0  0  2  0  0  0  0  0  0  0  0  0
    7.1855  -18.7149   18.0810 N   0  0  0  0  0  0  0  0  0  0  0  0
    8.6690  -18.1046   19.9121 C   0  0  0  0  0  0  0  0  0  0  0  0
    9.6700  -17.8646   19.1890 O   0  0  0  0  0  0  0  0  0  0  0  0
    8.6283  -17.4644   21.1773 N   0  0  0  0  0  0  0  0  0  0  0  0
    9.6302  -16.5196   21.6232 C   0  0  1  0  0  0  0  0  0  0  0  0
    9.0277  -15.3779   22.4080 C   0  0  0  0  0  0  0  0  0  0  0  0
    8.3627  -14.3898   21.5292 C   0  0  0  0  0  0  0  0  0  0  0  0
    6.9932  -14.4297   21.4132 C   0  0  0  0  0  0  0  0  0  0  0  0
    6.3335  -13.5289   20.6063 C   0  0  0  0  0  0  0  0  0  0  0  0
    7.0388  -12.5831   19.9107 C   0  0  0  0  0  0  0  0  0  0  0  0
    8.4091  -12.5246   20.0115 C   0  0  0  0  0  0  0  0  0  0  0  0
    9.0588  -13.4246   20.8167 C   0  0  0  0  0  0  0  0  0  0  0  0
   10.5543  -17.2368   22.5263 C   0  0  0  0  0  0  0  0  0  0  0  0
   10.0706  -17.9517   23.4369 O   0  0  0  0  0  0  0  0  0  0  0  0
   11.9503  -17.1120   22.3577 N   0  0  0  0  0  0  0  0  0  0  0  0
   12.8841  -17.8514   23.2318 C   0  0  1  0  0  0  0  0  0  0  0  0
   14.1803  -18.0947   22.5449 C   0  0  0  0  0  0  0  0  0  0  0  0
   14.0119  -19.0271   21.4146 C   0  0  0  0  0  0  0  0  0  0  0  0
   13.3085  -20.1850   21.2515 C   0  0  0  0  0  0  0  0  0  0  0  0
   13.4163  -20.6437   19.9685 N   0  0  0  0  0  0  0  0  0  0  0  0
   14.1876  -19.7579   19.3510 C   0  0  0  0  0  0  0  0  0  0  0  0
   14.5577  -18.7838   20.1855 N   0  0  0  0  0  0  0  0  0  0  0  0
   13.2055  -16.9075   24.3804 C   0  0  0  0  0  0  0  0  0  0  0  0
   12.8196  -15.7579   24.4872 O   0  0  0  0  0  0  0  0  0  0  0  0
   14.0235  -17.3926   25.4239 O   0  0  0  0  0  0  0  0  0  0  0  0
  2  1  1  6
  2  3  1  0
  4  2  1  0
  5  4  2  0
  6  4  1  0
  7  6  1  0
  7  8  1  1
  9  8  1  0
 10  9  2  0
 11 10  1  0
 12 11  2  0
 12 13  1  0
 13 14  2  0
 14  9  1  0
 15 17  1  0
 15  7  1  0
 16 15  2  0
 18 25  1  0
 18 17  1  0
 18 19  1  6
 20 21  2  0
 20 19  1  0
 22 21  1  0
 23 24  2  0
 23 22  1  0
 24 20  1  0
 25 27  1  0
 26 25  2  0
M  END
$$$$
