AFH.pdb
     RDKit          3D

 27 28  0  0  1  0  0  0  0  0999 V2000
    9.7937  -17.4074   18.8962 C   0  0  0  0  0  0  0  0  0  0  0  0
    9.7888  -17.8817   20.3202 C   0  0  2  0  0  0  0  0  0  0  0  0
    8.7408  -18.8387   20.4886 N   0  0  0  0  0  0  0  0  0  0  0  0
    9.7401  -16.7705   21.2951 C   0  0  0  0  0  0  0  0  0  0  0  0
   10.7538  -16.0396   21.4387 O   0  0  0  0  0  0  0  0  0  0  0  0
    8.6120  -16.4608   22.0974 N   0  0  0  0  0  0  0  0  0  0  0  0
    8.5713  -15.3415   23.0144 C   0  0  1  0  0  0  0  0  0  0  0  0
    7.2311  -15.2150   23.7000 C   0  0  0  0  0  0  0  0  0  0  0  0
    7.1813  -14.0499   24.6115 C   0  0  0  0  0  0  0  0  0  0  0  0
    6.4407  -14.1492   25.7657 C   0  0  0  0  0  0  0  0  0  0  0  0
    6.3668  -13.0891   26.6423 C   0  0  0  0  0  0  0  0  0  0  0  0
    7.0328  -11.9236   26.3703 C   0  0  0  0  0  0  0  0  0  0  0  0
    7.7795  -11.8018   25.2219 C   0  0  0  0  0  0  0  0  0  0  0  0
    7.8483  -12.8614   24.3542 C   0  0  0  0  0  0  0  0  0  0  0  0
    9.5831  -15.5831   24.0641 C   0  0  0  0  0  0  0  0  0  0  0  0
   10.2989  -14.6239   24.4409 O   0  0  0  0  0  0  0  0  0  0  0  0
    9.7317  -16.8707   24.6232 N   0  0  0  0  0  0  0  0  0  0  0  0
   10.4524  -17.0598   25.8990 C   0  0  1  0  0  0  0  0  0  0  0  0
    9.5566  -16.8155   27.0604 C   0  0  0  0  0  0  0  0  0  0  0  0
    9.9140  -15.5605   27.7479 C   0  0  0  0  0  0  0  0  0  0  0  0
   10.7835  -14.5490   27.4602 C   0  0  0  0  0  0  0  0  0  0  0  0
   10.6946  -13.5511   28.3900 N   0  0  0  0  0  0  0  0  0  0  0  0
    9.7651  -13.9599   29.2443 C   0  0  0  0  0  0  0  0  0  0  0  0
    9.2815  -15.1523   28.8886 N   0  0  0  0  0  0  0  0  0  0  0  0
   10.7988  -18.5397   25.9591 C   0  0  0  0  0  0  0  0  0  0  0  0
   10.3412  -19.4083   25.2395 O   0  0  0  0  0  0  0  0  0  0  0  0
   11.7327  -18.9597   26.9310 O   0  0  0  0  0  0  0  0  0  0  0  0
  2  1  1  6
  2  3  1  0
  4  2  1  0
  5  4  2  0
  6  4  1  0
  7  6  1  0
  7  8  1  1
  9  8  1  0
 10  9  2  0
 11 10  1  0
 12 11  2  0
 12 13  1  0
 13 14  2  0
 14  9  1  0
 15 17  1  0
 15  7  1  0
 16 15  2  0
 18 25  1  0
 18 17  1  0
 18 19  1  1
 20 21  2  0
 20 19  1  0
 22 21  1  0
 23 24  2  0
 23 22  1  0
 24 20  1  0
 25 27  1  0
 26 25  2  0
M  END
$$$$
