AFH.pdb
     RDKit          3D

 27 28  0  0  1  0  0  0  0  0999 V2000
    7.4959  -13.8495   19.8405 C   0  0  0  0  0  0  0  0  0  0  0  0
    7.7680  -15.2064   20.4215 C   0  0  2  0  0  0  0  0  0  0  0  0
    6.5920  -16.0092   20.2997 N   0  0  0  0  0  0  0  0  0  0  0  0
    8.3041  -15.1442   21.7985 C   0  0  0  0  0  0  0  0  0  0  0  0
    9.4810  -14.7375   21.9776 O   0  0  0  0  0  0  0  0  0  0  0  0
    7.5751  -15.5167   22.9570 N   0  0  0  0  0  0  0  0  0  0  0  0
    8.0798  -15.3471   24.3030 C   0  0  1  0  0  0  0  0  0  0  0  0
    6.9781  -15.0410   25.2903 C   0  0  0  0  0  0  0  0  0  0  0  0
    7.2038  -13.7588   25.9945 C   0  0  0  0  0  0  0  0  0  0  0  0
    6.1500  -12.8851   26.1235 C   0  0  0  0  0  0  0  0  0  0  0  0
    6.3157  -11.6807   26.7714 C   0  0  0  0  0  0  0  0  0  0  0  0
    7.5357  -11.3429   27.2943 C   0  0  0  0  0  0  0  0  0  0  0  0
    8.6037  -12.2012   27.1772 C   0  0  0  0  0  0  0  0  0  0  0  0
    8.4311  -13.3982   26.5308 C   0  0  0  0  0  0  0  0  0  0  0  0
    8.6997  -16.6238   24.7151 C   0  0  0  0  0  0  0  0  0  0  0  0
    7.9924  -17.6602   24.7232 O   0  0  0  0  0  0  0  0  0  0  0  0
   10.0601  -16.6635   25.0897 N   0  0  0  0  0  0  0  0  0  0  0  0
   10.7224  -17.9499   25.3885 C   0  0  1  0  0  0  0  0  0  0  0  0
   12.1480  -17.9280   24.9665 C   0  0  0  0  0  0  0  0  0  0  0  0
   12.2639  -17.7478   23.5073 C   0  0  0  0  0  0  0  0  0  0  0  0
   11.5832  -18.2622   22.4424 C   0  0  0  0  0  0  0  0  0  0  0  0
   12.0287  -17.7177   21.2705 N   0  0  0  0  0  0  0  0  0  0  0  0
   12.9831  -16.8679   21.6280 C   0  0  0  0  0  0  0  0  0  0  0  0
   13.1460  -16.8632   22.9530 N   0  0  0  0  0  0  0  0  0  0  0  0
   10.7508  -18.0541   26.9057 C   0  0  0  0  0  0  0  0  0  0  0  0
   10.3156  -17.2264   27.6850 O   0  0  0  0  0  0  0  0  0  0  0  0
   11.3303  -19.2078   27.4770 O   0  0  0  0  0  0  0  0  0  0  0  0
  2  1  1  1
  2  3  1  0
  4  2  1  0
  5  4  2  0
  6  4  1  0
  7  6  1  0
  7  8  1  1
  9  8  1  0
 10  9  2  0
 11 10  1  0
 12 11  2  0
 12 13  1  0
 13 14  2  0
 14  9  1  0
 15 17  1  0
 15  7  1  0
 16 15  2  0
 18 25  1  0
 18 17  1  0
 18 19  1  1
 20 21  2  0
 20 19  1  0
 22 21  1  0
 23 24  2  0
 23 22  1  0
 24 20  1  0
 25 27  1  0
 26 25  2  0
M  END
$$$$
