AFH.pdb
     RDKit          3D

 27 28  0  0  1  0  0  0  0  0999 V2000
    9.1118  -18.4515   20.1216 C   0  0  0  0  0  0  0  0  0  0  0  0
    9.3071  -16.9708   19.9716 C   0  0  2  0  0  0  0  0  0  0  0  0
   10.4647  -16.7331   19.1679 N   0  0  0  0  0  0  0  0  0  0  0  0
    9.3291  -16.2605   21.2687 C   0  0  0  0  0  0  0  0  0  0  0  0
   10.4284  -16.1027   21.8597 O   0  0  0  0  0  0  0  0  0  0  0  0
    8.1792  -15.7326   21.9099 N   0  0  0  0  0  0  0  0  0  0  0  0
    8.2267  -15.0229   23.1706 C   0  0  1  0  0  0  0  0  0  0  0  0
    6.9210  -14.3309   23.4845 C   0  0  0  0  0  0  0  0  0  0  0  0
    7.0080  -13.5123   24.7147 C   0  0  0  0  0  0  0  0  0  0  0  0
    6.3180  -13.9259   25.8297 C   0  0  0  0  0  0  0  0  0  0  0  0
    6.3709  -13.1943   26.9958 C   0  0  0  0  0  0  0  0  0  0  0  0
    7.1139  -12.0452   27.0540 C   0  0  0  0  0  0  0  0  0  0  0  0
    7.8121  -11.6125   25.9510 C   0  0  0  0  0  0  0  0  0  0  0  0
    7.7545  -12.3460   24.7939 C   0  0  0  0  0  0  0  0  0  0  0  0
    8.4672  -16.0168   24.2375 C   0  0  0  0  0  0  0  0  0  0  0  0
    7.6966  -17.0032   24.3247 O   0  0  0  0  0  0  0  0  0  0  0  0
    9.5448  -15.8488   25.1337 N   0  0  0  0  0  0  0  0  0  0  0  0
    9.8975  -16.9126   26.0963 C   0  0  1  0  0  0  0  0  0  0  0  0
   11.3525  -17.2156   26.0490 C   0  0  0  0  0  0  0  0  0  0  0  0
   11.7097  -17.8950   24.7896 C   0  0  0  0  0  0  0  0  0  0  0  0
   11.0609  -18.7921   23.9920 C   0  0  0  0  0  0  0  0  0  0  0  0
   11.7954  -19.0693   22.8730 N   0  0  0  0  0  0  0  0  0  0  0  0
   12.8939  -18.3347   22.9931 C   0  0  0  0  0  0  0  0  0  0  0  0
   12.8719  -17.6246   24.1233 N   0  0  0  0  0  0  0  0  0  0  0  0
    9.6525  -16.3170   27.4742 C   0  0  0  0  0  0  0  0  0  0  0  0
    9.3045  -15.1734   27.7044 O   0  0  0  0  0  0  0  0  0  0  0  0
    9.8413  -17.1518   28.5969 O   0  0  0  0  0  0  0  0  0  0  0  0
  2  1  1  1
  2  3  1  0
  4  2  1  0
  5  4  2  0
  6  4  1  0
  7  6  1  0
  7  8  1  1
  9  8  1  0
 10  9  2  0
 11 10  1  0
 12 11  2  0
 12 13  1  0
 13 14  2  0
 14  9  1  0
 15 17  1  0
 15  7  1  0
 16 15  2  0
 18 25  1  0
 18 17  1  0
 18 19  1  1
 20 21  2  0
 20 19  1  0
 22 21  1  0
 23 24  2  0
 23 22  1  0
 24 20  1  0
 25 27  1  0
 26 25  2  0
M  END
$$$$
