AFH.pdb
     RDKit          3D

 27 28  0  0  1  0  0  0  0  0999 V2000
    7.2285  -13.5210   20.0281 C   0  0  0  0  0  0  0  0  0  0  0  0
    7.7165  -14.8455   20.5384 C   0  0  2  0  0  0  0  0  0  0  0  0
    6.6934  -15.8244   20.3452 N   0  0  0  0  0  0  0  0  0  0  0  0
    8.2166  -14.7760   21.9286 C   0  0  0  0  0  0  0  0  0  0  0  0
    9.3048  -14.1877   22.1572 O   0  0  0  0  0  0  0  0  0  0  0  0
    7.5469  -15.3350   23.0471 N   0  0  0  0  0  0  0  0  0  0  0  0
    8.0453  -15.2382   24.4026 C   0  0  1  0  0  0  0  0  0  0  0  0
    6.9282  -15.1458   25.4154 C   0  0  0  0  0  0  0  0  0  0  0  0
    6.8166  -13.7894   25.9971 C   0  0  0  0  0  0  0  0  0  0  0  0
    5.6113  -13.1335   25.9096 C   0  0  0  0  0  0  0  0  0  0  0  0
    5.4631  -11.8697   26.4375 C   0  0  0  0  0  0  0  0  0  0  0  0
    6.5189  -11.2542   27.0558 C   0  0  0  0  0  0  0  0  0  0  0  0
    7.7337  -11.8912   27.1549 C   0  0  0  0  0  0  0  0  0  0  0  0
    7.8735  -13.1491   26.6271 C   0  0  0  0  0  0  0  0  0  0  0  0
    8.8030  -16.4734   24.6926 C   0  0  0  0  0  0  0  0  0  0  0  0
    8.2344  -17.5798   24.5278 O   0  0  0  0  0  0  0  0  0  0  0  0
   10.1380  -16.3971   25.1450 N   0  0  0  0  0  0  0  0  0  0  0  0
   10.8819  -17.6208   25.5080 C   0  0  1  0  0  0  0  0  0  0  0  0
   12.3359  -17.4620   25.2401 C   0  0  0  0  0  0  0  0  0  0  0  0
   12.5919  -17.2985   23.7968 C   0  0  0  0  0  0  0  0  0  0  0  0
   11.8979  -17.6508   22.6760 C   0  0  0  0  0  0  0  0  0  0  0  0
   12.5304  -17.2021   21.5504 N   0  0  0  0  0  0  0  0  0  0  0  0
   13.6122  -16.5734   21.9922 C   0  0  0  0  0  0  0  0  0  0  0  0
   13.6764  -16.6134   23.3251 N   0  0  0  0  0  0  0  0  0  0  0  0
   10.7596  -17.7422   27.0193 C   0  0  0  0  0  0  0  0  0  0  0  0
   10.1961  -16.9522   27.7542 O   0  0  0  0  0  0  0  0  0  0  0  0
   11.3468  -18.8657   27.6406 O   0  0  0  0  0  0  0  0  0  0  0  0
  2  1  1  1
  2  3  1  0
  4  2  1  0
  5  4  2  0
  6  4  1  0
  7  6  1  0
  7  8  1  1
  9  8  1  0
 10  9  2  0
 11 10  1  0
 12 11  2  0
 12 13  1  0
 13 14  2  0
 14  9  1  0
 15 17  1  0
 15  7  1  0
 16 15  2  0
 18 25  1  0
 18 17  1  0
 18 19  1  1
 20 21  2  0
 20 19  1  0
 22 21  1  0
 23 24  2  0
 23 22  1  0
 24 20  1  0
 25 27  1  0
 26 25  2  0
M  END
$$$$
