AFH.pdb
     RDKit          3D

 27 28  0  0  1  0  0  0  0  0999 V2000
    8.3880  -15.5444   18.6885 C   0  0  0  0  0  0  0  0  0  0  0  0
    8.6092  -16.4447   19.8689 C   0  0  2  0  0  0  0  0  0  0  0  0
    7.5450  -17.3963   19.9344 N   0  0  0  0  0  0  0  0  0  0  0  0
    8.8165  -15.6985   21.1290 C   0  0  0  0  0  0  0  0  0  0  0  0
    9.8904  -15.0643   21.2933 O   0  0  0  0  0  0  0  0  0  0  0  0
    7.8751  -15.6434   22.1887 N   0  0  0  0  0  0  0  0  0  0  0  0
    8.1170  -14.9426   23.4319 C   0  0  1  0  0  0  0  0  0  0  0  0
    6.8472  -14.3775   24.0240 C   0  0  0  0  0  0  0  0  0  0  0  0
    7.1100  -13.5770   25.2409 C   0  0  0  0  0  0  0  0  0  0  0  0
    6.6602  -14.0521   26.4503 C   0  0  0  0  0  0  0  0  0  0  0  0
    6.8829  -13.3394   27.6079 C   0  0  0  0  0  0  0  0  0  0  0  0
    7.5565  -12.1477   27.5634 C   0  0  0  0  0  0  0  0  0  0  0  0
    8.0155  -11.6532   26.3650 C   0  0  0  0  0  0  0  0  0  0  0  0
    7.7899  -12.3683   25.2169 C   0  0  0  0  0  0  0  0  0  0  0  0
    8.6594  -15.9184   24.4001 C   0  0  0  0  0  0  0  0  0  0  0  0
    8.0697  -17.0170   24.5404 O   0  0  0  0  0  0  0  0  0  0  0  0
    9.8175  -15.6092   25.1457 N   0  0  0  0  0  0  0  0  0  0  0  0
   10.4930  -16.6456   25.9534 C   0  0  1  0  0  0  0  0  0  0  0  0
   11.9700  -16.5621   25.8033 C   0  0  0  0  0  0  0  0  0  0  0  0
   12.3801  -16.8924   24.4256 C   0  0  0  0  0  0  0  0  0  0  0  0
   11.8869  -17.7428   23.4793 C   0  0  0  0  0  0  0  0  0  0  0  0
   12.5881  -17.6312   22.3113 N   0  0  0  0  0  0  0  0  0  0  0  0
   13.5097  -16.7071   22.5513 C   0  0  0  0  0  0  0  0  0  0  0  0
   13.4111  -16.2482   23.8011 N   0  0  0  0  0  0  0  0  0  0  0  0
   10.2122  -16.2833   27.4038 C   0  0  0  0  0  0  0  0  0  0  0  0
    9.6290  -15.2867   27.7891 O   0  0  0  0  0  0  0  0  0  0  0  0
   10.6618  -17.1717   28.4046 O   0  0  0  0  0  0  0  0  0  0  0  0
  2  1  1  6
  2  3  1  0
  4  2  1  0
  5  4  2  0
  6  4  1  0
  7  6  1  0
  7  8  1  1
  9  8  1  0
 10  9  2  0
 11 10  1  0
 12 11  2  0
 12 13  1  0
 13 14  2  0
 14  9  1  0
 15 17  1  0
 15  7  1  0
 16 15  2  0
 18 25  1  0
 18 17  1  0
 18 19  1  1
 20 21  2  0
 20 19  1  0
 22 21  1  0
 23 24  2  0
 23 22  1  0
 24 20  1  0
 25 27  1  0
 26 25  2  0
M  END
$$$$
