WIL.pdb
     RDKit          3D

 31 32  0  0  1  0  0  0  0  0999 V2000
   27.4041  -21.4422  -14.8314 N   0  0  0  0  0  0  0  0  0  0  0  0
   28.0208  -21.2254  -13.5461 C   0  0  1  0  0  0  0  0  0  0  0  0
   29.3227  -20.4815  -13.7215 C   0  0  0  0  0  0  0  0  0  0  0  0
   30.4702  -21.4113  -13.8410 C   0  0  0  0  0  0  0  0  0  0  0  0
   30.9114  -21.9998  -15.0051 C   0  0  0  0  0  0  0  0  0  0  0  0
   31.9709  -22.7740  -14.7069 N   0  0  0  0  0  0  0  0  0  0  0  0
   32.2540  -22.7291  -13.4078 C   0  0  0  0  0  0  0  0  0  0  0  0
   33.2184  -23.3293  -12.6307 C   0  0  0  0  0  0  0  0  0  0  0  0
   33.2628  -23.0806  -11.2582 C   0  0  0  0  0  0  0  0  0  0  0  0
   32.3165  -22.2242  -10.7263 C   0  0  0  0  0  0  0  0  0  0  0  0
   31.3427  -21.6153  -11.4968 C   0  0  0  0  0  0  0  0  0  0  0  0
   31.3112  -21.8713  -12.8558 C   0  0  0  0  0  0  0  0  0  0  0  0
   27.0680  -20.4509  -12.6852 C   0  0  0  0  0  0  0  0  0  0  0  0
   26.9322  -19.2430  -12.9868 O   0  0  0  0  0  0  0  0  0  0  0  0
   22.2214  -20.3627  -12.5285 C   0  0  0  0  0  0  0  0  0  0  0  0
   23.6832  -20.1546  -12.2627 C   0  0  0  0  0  0  0  0  0  0  0  0
   24.0943  -20.6579  -10.8952 C   0  0  2  0  0  0  0  0  0  0  0  0
   23.1587  -20.0733   -9.8754 C   0  0  0  0  0  0  0  0  0  0  0  0
   25.5521  -20.5001  -10.6083 C   0  0  2  0  0  0  0  0  0  0  0  0
   26.3975  -21.0725  -11.6283 N   0  0  0  0  0  0  0  0  0  0  0  0
   26.0212  -20.8263   -9.2680 C   0  0  0  0  0  0  0  0  0  0  0  0
   26.0248  -22.0664   -8.8729 O   0  0  0  0  0  0  0  0  0  0  0  0
   29.4929  -20.3263   -4.9029 C   0  0  0  0  0  0  0  0  0  0  0  0
   28.2754  -19.3472   -5.0255 C   0  0  1  0  0  0  0  0  0  0  0  0
   28.7805  -18.0388   -4.4974 C   0  0  0  0  0  0  0  0  0  0  0  0
   27.7978  -19.3758   -6.4177 C   0  0  0  0  0  0  0  0  0  0  0  0
   26.8678  -20.4106   -6.9066 C   0  0  2  0  0  0  0  0  0  0  0  0
   26.5052  -19.9344   -8.2881 N   0  0  0  0  0  0  0  0  0  0  0  0
   25.6334  -20.5427   -6.1238 C   0  0  0  0  0  0  0  0  0  0  0  0
   24.4577  -19.9415   -6.5311 O   0  0  0  0  0  0  0  0  0  0  0  0
   25.6330  -21.2114   -5.0486 O   0  0  0  0  0  0  0  0  0  0  0  0
  2  1  1  6
  2  3  1  0
  3  4  1  0
  4 12  1  0
  4  5  2  0
  5  6  1  0
  7  6  1  0
  7  8  2  0
  9  8  1  0
 10  9  2  0
 11 10  1  0
 11 12  2  0
 12  7  1  0
 13  2  1  0
 13 20  1  0
 14 13  2  0
 15 16  1  0
 16 17  1  0
 17 18  1  1
 19 17  1  0
 19 20  1  6
 21 19  1  0
 22 21  2  0
 24 26  1  0
 24 23  1  6
 24 25  1  0
 27 26  1  1
 27 28  1  0
 28 21  1  0
 29 27  1  0
 29 30  1  0
 31 29  2  0
M  END
$$$$
