WIL.pdb
     RDKit          3D

 31 32  0  0  1  0  0  0  0  0999 V2000
   26.7406  -18.6498   -8.2489 N   0  0  0  0  0  0  0  0  0  0  0  0
   26.6305  -20.0296   -8.6530 C   0  0  1  0  0  0  0  0  0  0  0  0
   26.0479  -20.8485   -7.5265 C   0  0  0  0  0  0  0  0  0  0  0  0
   26.7458  -20.5883   -6.2456 C   0  0  0  0  0  0  0  0  0  0  0  0
   26.1413  -20.2715   -5.0496 C   0  0  0  0  0  0  0  0  0  0  0  0
   27.1047  -20.1103   -4.1239 N   0  0  0  0  0  0  0  0  0  0  0  0
   28.3139  -20.3035   -4.6437 C   0  0  0  0  0  0  0  0  0  0  0  0
   29.5854  -20.2548   -4.1193 C   0  0  0  0  0  0  0  0  0  0  0  0
   30.6873  -20.5118   -4.9362 C   0  0  0  0  0  0  0  0  0  0  0  0
   30.4500  -20.8105   -6.2652 C   0  0  0  0  0  0  0  0  0  0  0  0
   29.1771  -20.8624   -6.8037 C   0  0  0  0  0  0  0  0  0  0  0  0
   28.0947  -20.6054   -5.9817 C   0  0  0  0  0  0  0  0  0  0  0  0
   25.7651  -20.1002   -9.8756 C   0  0  0  0  0  0  0  0  0  0  0  0
   24.7871  -19.3180   -9.8871 O   0  0  0  0  0  0  0  0  0  0  0  0
   29.3994  -21.1917  -13.6840 C   0  0  0  0  0  0  0  0  0  0  0  0
   28.2573  -20.6281  -12.8910 C   0  0  0  0  0  0  0  0  0  0  0  0
   26.9568  -21.3535  -13.1645 C   0  0  2  0  0  0  0  0  0  0  0  0
   26.7220  -21.3599  -14.6484 C   0  0  0  0  0  0  0  0  0  0  0  0
   25.8146  -20.8794  -12.3260 C   0  0  2  0  0  0  0  0  0  0  0  0
   26.0644  -20.9920  -10.9091 N   0  0  0  0  0  0  0  0  0  0  0  0
   24.4762  -21.3340  -12.6794 C   0  0  0  0  0  0  0  0  0  0  0  0
   24.0793  -22.5154  -12.3044 O   0  0  0  0  0  0  0  0  0  0  0  0
   19.8374  -18.1958  -13.0972 C   0  0  0  0  0  0  0  0  0  0  0  0
   20.8661  -19.2851  -12.6380 C   0  0  1  0  0  0  0  0  0  0  0  0
   20.1844  -20.0080  -11.5161 C   0  0  0  0  0  0  0  0  0  0  0  0
   21.2562  -20.0779  -13.8155 C   0  0  0  0  0  0  0  0  0  0  0  0
   22.1552  -21.2424  -13.7139 C   0  0  2  0  0  0  0  0  0  0  0  0
   23.4947  -20.6279  -13.4062 N   0  0  0  0  0  0  0  0  0  0  0  0
   22.2790  -22.0288  -14.9470 C   0  0  0  0  0  0  0  0  0  0  0  0
   21.3956  -23.0508  -15.2381 O   0  0  0  0  0  0  0  0  0  0  0  0
   23.2131  -21.7817  -15.7654 O   0  0  0  0  0  0  0  0  0  0  0  0
  2  1  1  1
  2  3  1  0
  3  4  1  0
  4 12  1  0
  4  5  2  0
  5  6  1  0
  7  6  1  0
  7  8  2  0
  9  8  1  0
 10  9  2  0
 11 10  1  0
 11 12  2  0
 12  7  1  0
 13  2  1  0
 13 20  1  0
 14 13  2  0
 15 16  1  0
 16 17  1  0
 17 18  1  6
 19 17  1  0
 19 20  1  1
 21 19  1  0
 22 21  2  0
 24 26  1  0
 24 23  1  6
 24 25  1  0
 27 26  1  6
 27 28  1  0
 28 21  1  0
 29 27  1  0
 29 30  1  0
 31 29  2  0
M  END
$$$$
