WIL.pdb
     RDKit          3D

 31 32  0  0  1  0  0  0  0  0999 V2000
   23.3727  -19.3780  -16.6540 N   0  0  0  0  0  0  0  0  0  0  0  0
   24.0539  -18.9588  -15.4542 C   0  0  1  0  0  0  0  0  0  0  0  0
   23.0635  -18.3579  -14.4862 C   0  0  0  0  0  0  0  0  0  0  0  0
   22.4888  -17.0955  -15.0073 C   0  0  0  0  0  0  0  0  0  0  0  0
   21.1679  -16.8884  -15.3370 C   0  0  0  0  0  0  0  0  0  0  0  0
   21.0390  -15.6212  -15.7712 N   0  0  0  0  0  0  0  0  0  0  0  0
   22.2039  -14.9792  -15.7462 C   0  0  0  0  0  0  0  0  0  0  0  0
   22.5839  -13.6999  -16.0828 C   0  0  0  0  0  0  0  0  0  0  0  0
   23.9162  -13.3086  -15.9436 C   0  0  0  0  0  0  0  0  0  0  0  0
   24.8164  -14.2417  -15.4635 C   0  0  0  0  0  0  0  0  0  0  0  0
   24.4466  -15.5299  -15.1221 C   0  0  0  0  0  0  0  0  0  0  0  0
   23.1225  -15.9035  -15.2654 C   0  0  0  0  0  0  0  0  0  0  0  0
   24.7400  -20.1500  -14.8550 C   0  0  0  0  0  0  0  0  0  0  0  0
   24.0691  -21.2076  -14.8454 O   0  0  0  0  0  0  0  0  0  0  0  0
   30.4466  -22.2546  -14.6799 C   0  0  0  0  0  0  0  0  0  0  0  0
   29.0927  -22.2772  -14.0340 C   0  0  0  0  0  0  0  0  0  0  0  0
   28.2798  -21.0432  -14.3638 C   0  0  2  0  0  0  0  0  0  0  0  0
   29.1062  -19.8316  -14.0380 C   0  0  0  0  0  0  0  0  0  0  0  0
   26.8983  -21.0620  -13.7948 C   0  0  2  0  0  0  0  0  0  0  0  0
   26.0398  -20.0449  -14.3528 N   0  0  0  0  0  0  0  0  0  0  0  0
   26.7595  -21.1558  -12.3475 C   0  0  0  0  0  0  0  0  0  0  0  0
   27.7245  -21.6704  -11.6418 O   0  0  0  0  0  0  0  0  0  0  0  0
   28.3713  -19.4084   -7.8933 C   0  0  0  0  0  0  0  0  0  0  0  0
   26.9837  -20.1057   -8.1033 C   0  0  1  0  0  0  0  0  0  0  0  0
   26.0035  -19.2374   -7.3744 C   0  0  0  0  0  0  0  0  0  0  0  0
   26.7756  -20.2950   -9.5484 C   0  0  0  0  0  0  0  0  0  0  0  0
   25.6083  -21.0194  -10.0844 C   0  0  2  0  0  0  0  0  0  0  0  0
   25.6656  -20.7361  -11.5619 N   0  0  0  0  0  0  0  0  0  0  0  0
   24.3131  -20.5549   -9.5739 C   0  0  0  0  0  0  0  0  0  0  0  0
   23.4920  -19.7429  -10.3330 O   0  0  0  0  0  0  0  0  0  0  0  0
   23.9311  -20.8910   -8.4144 O   0  0  0  0  0  0  0  0  0  0  0  0
  2  1  1  6
  2  3  1  0
  3  4  1  0
  4 12  1  0
  4  5  2  0
  5  6  1  0
  7  6  1  0
  7  8  2  0
  9  8  1  0
 10  9  2  0
 11 10  1  0
 11 12  2  0
 12  7  1  0
 13  2  1  0
 13 20  1  0
 14 13  2  0
 15 16  1  0
 16 17  1  0
 17 18  1  1
 19 17  1  0
 19 20  1  1
 21 19  1  0
 22 21  2  0
 24 26  1  0
 24 23  1  6
 24 25  1  0
 27 26  1  1
 27 28  1  0
 28 21  1  0
 29 27  1  0
 29 30  1  0
 31 29  2  0
M  END
$$$$
