WIL.pdb
     RDKit          3D

 31 32  0  0  1  0  0  0  0  0999 V2000
   26.0537  -21.2970  -12.2589 N   0  0  0  0  0  0  0  0  0  0  0  0
   25.1749  -20.9036  -11.1854 C   0  0  1  0  0  0  0  0  0  0  0  0
   25.8046  -19.7844  -10.3917 C   0  0  0  0  0  0  0  0  0  0  0  0
   27.0813  -20.2079   -9.7703 C   0  0  0  0  0  0  0  0  0  0  0  0
   28.0771  -20.9301  -10.3892 C   0  0  0  0  0  0  0  0  0  0  0  0
   29.0715  -21.1169   -9.5019 N   0  0  0  0  0  0  0  0  0  0  0  0
   28.7866  -20.5567   -8.3293 C   0  0  0  0  0  0  0  0  0  0  0  0
   29.4634  -20.4736   -7.1338 C   0  0  0  0  0  0  0  0  0  0  0  0
   28.8909  -19.8008   -6.0534 C   0  0  0  0  0  0  0  0  0  0  0  0
   27.6424  -19.2347   -6.2336 C   0  0  0  0  0  0  0  0  0  0  0  0
   26.9527  -19.3116   -7.4298 C   0  0  0  0  0  0  0  0  0  0  0  0
   27.5327  -19.9816   -8.4918 C   0  0  0  0  0  0  0  0  0  0  0  0
   23.8641  -20.4763  -11.7753 C   0  0  0  0  0  0  0  0  0  0  0  0
   23.8547  -19.3360  -12.2932 O   0  0  0  0  0  0  0  0  0  0  0  0
   22.4111  -19.0840  -15.4088 C   0  0  0  0  0  0  0  0  0  0  0  0
   22.1988  -19.3975  -13.9571 C   0  0  0  0  0  0  0  0  0  0  0  0
   21.5036  -20.7270  -13.7536 C   0  0  2  0  0  0  0  0  0  0  0  0
   20.1882  -20.6885  -14.4784 C   0  0  0  0  0  0  0  0  0  0  0  0
   21.4487  -21.1660  -12.3265 C   0  0  2  0  0  0  0  0  0  0  0  0
   22.7531  -21.3227  -11.7293 N   0  0  0  0  0  0  0  0  0  0  0  0
   20.5600  -22.2698  -11.9876 C   0  0  0  0  0  0  0  0  0  0  0  0
   20.8032  -23.4581  -12.4595 O   0  0  0  0  0  0  0  0  0  0  0  0
   18.4693  -23.8550   -7.2484 C   0  0  0  0  0  0  0  0  0  0  0  0
   19.1201  -23.9515   -8.6706 C   0  0  1  0  0  0  0  0  0  0  0  0
   19.5902  -25.3701   -8.7822 C   0  0  0  0  0  0  0  0  0  0  0  0
   18.1365  -23.4849   -9.6616 C   0  0  0  0  0  0  0  0  0  0  0  0
   18.4563  -23.3869  -11.0978 C   0  0  2  0  0  0  0  0  0  0  0  0
   19.4130  -22.2265  -11.1676 N   0  0  0  0  0  0  0  0  0  0  0  0
   17.3070  -23.0917  -11.9616 C   0  0  0  0  0  0  0  0  0  0  0  0
   17.0962  -21.8227  -12.4666 O   0  0  0  0  0  0  0  0  0  0  0  0
   16.4805  -24.0060  -12.2518 O   0  0  0  0  0  0  0  0  0  0  0  0
  2  1  1  6
  2  3  1  0
  3  4  1  0
  4 12  1  0
  4  5  2  0
  5  6  1  0
  7  6  1  0
  7  8  2  0
  9  8  1  0
 10  9  2  0
 11 10  1  0
 11 12  2  0
 12  7  1  0
 13  2  1  0
 13 20  1  0
 14 13  2  0
 15 16  1  0
 16 17  1  0
 17 18  1  1
 19 17  1  0
 19 20  1  6
 21 19  1  0
 22 21  2  0
 24 26  1  0
 24 23  1  1
 24 25  1  0
 27 26  1  1
 27 28  1  0
 28 21  1  0
 29 27  1  0
 29 30  1  0
 31 29  2  0
M  END
$$$$
