WIL.pdb
     RDKit          3D

 31 32  0  0  1  0  0  0  0  0999 V2000
   22.0902  -19.4589  -17.5967 N   0  0  0  0  0  0  0  0  0  0  0  0
   22.2921  -18.9898  -16.2482 C   0  0  1  0  0  0  0  0  0  0  0  0
   21.0353  -19.2005  -15.4388 C   0  0  0  0  0  0  0  0  0  0  0  0
   20.0522  -18.1153  -15.6656 C   0  0  0  0  0  0  0  0  0  0  0  0
   19.3441  -17.9006  -16.8269 C   0  0  0  0  0  0  0  0  0  0  0  0
   18.5571  -16.8244  -16.6440 N   0  0  0  0  0  0  0  0  0  0  0  0
   18.7068  -16.3160  -15.4238 C   0  0  0  0  0  0  0  0  0  0  0  0
   18.1397  -15.2449  -14.7715 C   0  0  0  0  0  0  0  0  0  0  0  0
   18.5084  -14.9537  -13.4574 C   0  0  0  0  0  0  0  0  0  0  0  0
   19.4470  -15.7703  -12.8541 C   0  0  0  0  0  0  0  0  0  0  0  0
   20.0238  -16.8491  -13.4991 C   0  0  0  0  0  0  0  0  0  0  0  0
   19.6485  -17.1256  -14.8015 C   0  0  0  0  0  0  0  0  0  0  0  0
   23.4491  -19.7351  -15.6528 C   0  0  0  0  0  0  0  0  0  0  0  0
   23.3422  -20.9829  -15.6545 O   0  0  0  0  0  0  0  0  0  0  0  0
   28.4725  -18.3968  -16.8447 C   0  0  0  0  0  0  0  0  0  0  0  0
   27.1833  -19.0260  -16.4054 C   0  0  0  0  0  0  0  0  0  0  0  0
   26.9916  -18.9522  -14.9054 C   0  0  2  0  0  0  0  0  0  0  0  0
   28.2362  -19.4716  -14.2435 C   0  0  0  0  0  0  0  0  0  0  0  0
   25.7051  -19.5472  -14.4325 C   0  0  2  0  0  0  0  0  0  0  0  0
   24.5524  -19.0462  -15.1418 N   0  0  0  0  0  0  0  0  0  0  0  0
   25.4728  -19.6120  -12.9956 C   0  0  0  0  0  0  0  0  0  0  0  0
   25.5389  -18.5238  -12.2846 O   0  0  0  0  0  0  0  0  0  0  0  0
   21.2881  -21.7067  -10.7646 C   0  0  0  0  0  0  0  0  0  0  0  0
   22.4699  -20.7312  -11.0923 C   0  0  1  0  0  0  0  0  0  0  0  0
   21.9973  -19.3866  -10.6291 C   0  0  0  0  0  0  0  0  0  0  0  0
   23.6953  -21.2665  -10.4766 C   0  0  0  0  0  0  0  0  0  0  0  0
   25.0228  -20.6765  -10.7307 C   0  0  2  0  0  0  0  0  0  0  0  0
   25.1623  -20.7539  -12.2278 N   0  0  0  0  0  0  0  0  0  0  0  0
   26.1424  -21.4055  -10.1233 C   0  0  0  0  0  0  0  0  0  0  0  0
   26.9775  -22.2015  -10.8840 O   0  0  0  0  0  0  0  0  0  0  0  0
   26.3547  -21.3184   -8.8780 O   0  0  0  0  0  0  0  0  0  0  0  0
  2  1  1  6
  2  3  1  0
  3  4  1  0
  4 12  1  0
  4  5  2  0
  5  6  1  0
  7  6  1  0
  7  8  2  0
  9  8  1  0
 10  9  2  0
 11 10  1  0
 11 12  2  0
 12  7  1  0
 13  2  1  0
 13 20  1  0
 14 13  2  0
 15 16  1  0
 16 17  1  0
 17 18  1  1
 19 17  1  0
 19 20  1  6
 21 19  1  0
 22 21  2  0
 24 26  1  0
 24 23  1  1
 24 25  1  0
 27 26  1  6
 27 28  1  0
 28 21  1  0
 29 27  1  0
 29 30  1  0
 31 29  2  0
M  END
$$$$
