WIL.pdb
     RDKit          3D

 31 32  0  0  1  0  0  0  0  0999 V2000
   22.4655  -20.8791  -16.7552 N   0  0  0  0  0  0  0  0  0  0  0  0
   23.0896  -19.9542  -15.8418 C   0  0  1  0  0  0  0  0  0  0  0  0
   22.0336  -19.2500  -15.0244 C   0  0  0  0  0  0  0  0  0  0  0  0
   21.2509  -18.2989  -15.8479 C   0  0  0  0  0  0  0  0  0  0  0  0
   19.9405  -18.4616  -16.2384 C   0  0  0  0  0  0  0  0  0  0  0  0
   19.5866  -17.3903  -16.9720 N   0  0  0  0  0  0  0  0  0  0  0  0
   20.5928  -16.5278  -17.0875 C   0  0  0  0  0  0  0  0  0  0  0  0
   20.7272  -15.3137  -17.7216 C   0  0  0  0  0  0  0  0  0  0  0  0
   21.9403  -14.6262  -17.6623 C   0  0  0  0  0  0  0  0  0  0  0  0
   22.9769  -15.2058  -16.9544 C   0  0  0  0  0  0  0  0  0  0  0  0
   22.8540  -16.4250  -16.3132 C   0  0  0  0  0  0  0  0  0  0  0  0
   21.6457  -17.0948  -16.3807 C   0  0  0  0  0  0  0  0  0  0  0  0
   24.0336  -20.7178  -14.9617 C   0  0  0  0  0  0  0  0  0  0  0  0
   23.6450  -21.8580  -14.6192 O   0  0  0  0  0  0  0  0  0  0  0  0
   29.2425  -21.0182  -16.0048 C   0  0  0  0  0  0  0  0  0  0  0  0
   27.8405  -21.1913  -15.4995 C   0  0  0  0  0  0  0  0  0  0  0  0
   27.6368  -20.5492  -14.1435 C   0  0  2  0  0  0  0  0  0  0  0  0
   28.7073  -21.0514  -13.2169 C   0  0  0  0  0  0  0  0  0  0  0  0
   26.2354  -20.6479  -13.6346 C   0  0  2  0  0  0  0  0  0  0  0  0
   25.2541  -20.1590  -14.5730 N   0  0  0  0  0  0  0  0  0  0  0  0
   25.9693  -20.1842  -12.2793 C   0  0  0  0  0  0  0  0  0  0  0  0
   26.1066  -18.9218  -11.9938 O   0  0  0  0  0  0  0  0  0  0  0  0
   21.6625  -21.4840   -9.5437 C   0  0  0  0  0  0  0  0  0  0  0  0
   22.8587  -20.7842  -10.2752 C   0  0  1  0  0  0  0  0  0  0  0  0
   22.3419  -19.4267  -10.6438 C   0  0  0  0  0  0  0  0  0  0  0  0
   24.0371  -20.8433   -9.3947 C   0  0  0  0  0  0  0  0  0  0  0  0
   25.3570  -20.3384   -9.8162 C   0  0  2  0  0  0  0  0  0  0  0  0
   25.5536  -20.9569  -11.1747 N   0  0  0  0  0  0  0  0  0  0  0  0
   26.4723  -20.7488   -8.9550 C   0  0  0  0  0  0  0  0  0  0  0  0
   27.3727  -21.7161   -9.3591 O   0  0  0  0  0  0  0  0  0  0  0  0
   26.6203  -20.2199   -7.8141 O   0  0  0  0  0  0  0  0  0  0  0  0
  2  1  1  6
  2  3  1  0
  3  4  1  0
  4 12  1  0
  4  5  2  0
  5  6  1  0
  7  6  1  0
  7  8  2  0
  9  8  1  0
 10  9  2  0
 11 10  1  0
 11 12  2  0
 12  7  1  0
 13  2  1  0
 13 20  1  0
 14 13  2  0
 15 16  1  0
 16 17  1  0
 17 18  1  1
 19 17  1  0
 19 20  1  6
 21 19  1  0
 22 21  2  0
 24 26  1  0
 24 23  1  1
 24 25  1  0
 27 26  1  1
 27 28  1  0
 28 21  1  0
 29 27  1  0
 29 30  1  0
 31 29  2  0
M  END
$$$$
