WIL.pdb
     RDKit          3D

 31 32  0  0  1  0  0  0  0  0999 V2000
   24.9450  -20.3215  -17.6589 N   0  0  0  0  0  0  0  0  0  0  0  0
   24.1477  -19.9218  -16.5258 C   0  0  1  0  0  0  0  0  0  0  0  0
   22.6866  -19.9111  -16.9055 C   0  0  0  0  0  0  0  0  0  0  0  0
   22.3660  -18.7805  -17.8078 C   0  0  0  0  0  0  0  0  0  0  0  0
   22.1491  -17.4773  -17.4194 C   0  0  0  0  0  0  0  0  0  0  0  0
   21.8871  -16.7505  -18.5212 N   0  0  0  0  0  0  0  0  0  0  0  0
   21.9190  -17.5033  -19.6176 C   0  0  0  0  0  0  0  0  0  0  0  0
   21.7228  -17.2345  -20.9531 C   0  0  0  0  0  0  0  0  0  0  0  0
   21.8258  -18.2604  -21.8936 C   0  0  0  0  0  0  0  0  0  0  0  0
   22.1266  -19.5295  -21.4344 C   0  0  0  0  0  0  0  0  0  0  0  0
   22.3258  -19.8118  -20.0953 C   0  0  0  0  0  0  0  0  0  0  0  0
   22.2205  -18.7849  -19.1747 C   0  0  0  0  0  0  0  0  0  0  0  0
   24.4062  -20.8785  -15.4003 C   0  0  0  0  0  0  0  0  0  0  0  0
   24.6511  -22.0578  -15.7435 O   0  0  0  0  0  0  0  0  0  0  0  0
   26.7770  -21.1502   -9.8039 C   0  0  0  0  0  0  0  0  0  0  0  0
   25.7057  -21.6550  -10.7249 C   0  0  0  0  0  0  0  0  0  0  0  0
   25.5133  -20.7555  -11.9275 C   0  0  2  0  0  0  0  0  0  0  0  0
   25.4159  -19.3360  -11.4454 C   0  0  0  0  0  0  0  0  0  0  0  0
   24.4275  -21.2065  -12.8496 C   0  0  2  0  0  0  0  0  0  0  0  0
   24.3671  -20.4432  -14.0729 N   0  0  0  0  0  0  0  0  0  0  0  0
   23.1039  -21.4316  -12.2839 C   0  0  0  0  0  0  0  0  0  0  0  0
   22.9749  -21.6046  -11.0003 O   0  0  0  0  0  0  0  0  0  0  0  0
   18.2287  -19.0335  -12.2008 C   0  0  0  0  0  0  0  0  0  0  0  0
   19.7391  -19.2110  -12.5789 C   0  0  1  0  0  0  0  0  0  0  0  0
   20.3290  -17.8387  -12.4574 C   0  0  0  0  0  0  0  0  0  0  0  0
   20.3073  -20.2694  -11.7279 C   0  0  0  0  0  0  0  0  0  0  0  0
   20.5692  -21.6285  -12.2365 C   0  0  2  0  0  0  0  0  0  0  0  0
   21.8742  -21.4839  -12.9732 N   0  0  0  0  0  0  0  0  0  0  0  0
   19.5613  -22.1349  -13.1756 C   0  0  0  0  0  0  0  0  0  0  0  0
   19.8680  -22.3619  -14.5038 O   0  0  0  0  0  0  0  0  0  0  0  0
   18.3820  -22.3656  -12.7763 O   0  0  0  0  0  0  0  0  0  0  0  0
  2  1  1  6
  2  3  1  0
  3  4  1  0
  4 12  1  0
  4  5  2  0
  5  6  1  0
  7  6  1  0
  7  8  2  0
  9  8  1  0
 10  9  2  0
 11 10  1  0
 11 12  2  0
 12  7  1  0
 13  2  1  0
 13 20  1  0
 14 13  2  0
 15 16  1  0
 16 17  1  0
 17 18  1  1
 19 17  1  0
 19 20  1  6
 21 19  1  0
 22 21  2  0
 24 26  1  0
 24 23  1  1
 24 25  1  0
 27 26  1  6
 27 28  1  0
 28 21  1  0
 29 27  1  0
 29 30  1  0
 31 29  2  0
M  END
$$$$
