WIL.pdb
     RDKit          3D

 31 32  0  0  1  0  0  0  0  0999 V2000
   23.0122  -19.5698  -15.3587 N   0  0  0  0  0  0  0  0  0  0  0  0
   23.3507  -19.6245  -13.9581 C   0  0  1  0  0  0  0  0  0  0  0  0
   22.0949  -19.7689  -13.1328 C   0  0  0  0  0  0  0  0  0  0  0  0
   20.8803  -19.4916  -13.9349 C   0  0  0  0  0  0  0  0  0  0  0  0
   20.3724  -18.2441  -14.2211 C   0  0  0  0  0  0  0  0  0  0  0  0
   19.2658  -18.4048  -14.9698 N   0  0  0  0  0  0  0  0  0  0  0  0
   19.0147  -19.6918  -15.1939 C   0  0  0  0  0  0  0  0  0  0  0  0
   18.0260  -20.3541  -15.8854 C   0  0  0  0  0  0  0  0  0  0  0  0
   18.0296  -21.7484  -15.9437 C   0  0  0  0  0  0  0  0  0  0  0  0
   19.0472  -22.4192  -15.2908 C   0  0  0  0  0  0  0  0  0  0  0  0
   20.0460  -21.7650  -14.5929 C   0  0  0  0  0  0  0  0  0  0  0  0
   20.0293  -20.3828  -14.5439 C   0  0  0  0  0  0  0  0  0  0  0  0
   24.2783  -20.7819  -13.7371 C   0  0  0  0  0  0  0  0  0  0  0  0
   24.2731  -21.6535  -14.6364 O   0  0  0  0  0  0  0  0  0  0  0  0
   29.7065  -20.5133  -14.3266 C   0  0  0  0  0  0  0  0  0  0  0  0
   28.7848  -21.2119  -13.3709 C   0  0  0  0  0  0  0  0  0  0  0  0
   27.3718  -20.6723  -13.4398 C   0  0  2  0  0  0  0  0  0  0  0  0
   27.4380  -19.1715  -13.4350 C   0  0  0  0  0  0  0  0  0  0  0  0
   26.4430  -21.2869  -12.4437 C   0  0  2  0  0  0  0  0  0  0  0  0
   25.0771  -20.8454  -12.5922 N   0  0  0  0  0  0  0  0  0  0  0  0
   26.8587  -21.3068  -11.0474 C   0  0  0  0  0  0  0  0  0  0  0  0
   27.9056  -21.9970  -10.6987 O   0  0  0  0  0  0  0  0  0  0  0  0
   26.8200  -18.7516   -6.8521 C   0  0  0  0  0  0  0  0  0  0  0  0
   27.7973  -19.5041   -7.8188 C   0  0  1  0  0  0  0  0  0  0  0  0
   29.1638  -19.2460   -7.2604 C   0  0  0  0  0  0  0  0  0  0  0  0
   27.3607  -20.9065   -7.9177 C   0  0  0  0  0  0  0  0  0  0  0  0
   26.1201  -21.2944   -8.6143 C   0  0  2  0  0  0  0  0  0  0  0  0
   26.2531  -20.6382   -9.9628 N   0  0  0  0  0  0  0  0  0  0  0  0
   24.8871  -20.8093   -7.9832 C   0  0  0  0  0  0  0  0  0  0  0  0
   24.0218  -19.9656   -8.6534 O   0  0  0  0  0  0  0  0  0  0  0  0
   24.6015  -21.1567   -6.7995 O   0  0  0  0  0  0  0  0  0  0  0  0
  2  1  1  6
  2  3  1  0
  3  4  1  0
  4 12  1  0
  4  5  2  0
  5  6  1  0
  7  6  1  0
  7  8  2  0
  9  8  1  0
 10  9  2  0
 11 10  1  0
 11 12  2  0
 12  7  1  0
 13  2  1  0
 13 20  1  0
 14 13  2  0
 15 16  1  0
 16 17  1  0
 17 18  1  1
 19 17  1  0
 19 20  1  1
 21 19  1  0
 22 21  2  0
 24 26  1  0
 24 23  1  1
 24 25  1  0
 27 26  1  1
 27 28  1  0
 28 21  1  0
 29 27  1  0
 29 30  1  0
 31 29  2  0
M  END
$$$$
