WIL.pdb
     RDKit          3D

 31 32  0  0  1  0  0  0  0  0999 V2000
   23.9711  -20.5626  -15.4283 N   0  0  0  0  0  0  0  0  0  0  0  0
   24.4719  -19.8976  -14.2508 C   0  0  1  0  0  0  0  0  0  0  0  0
   23.3235  -19.3087  -13.4676 C   0  0  0  0  0  0  0  0  0  0  0  0
   22.6424  -18.2323  -14.2245 C   0  0  0  0  0  0  0  0  0  0  0  0
   21.2864  -18.1373  -14.4447 C   0  0  0  0  0  0  0  0  0  0  0  0
   21.0571  -17.0269  -15.1696 N   0  0  0  0  0  0  0  0  0  0  0  0
   22.1889  -16.3824  -15.4405 C   0  0  0  0  0  0  0  0  0  0  0  0
   22.4751  -15.2275  -16.1322 C   0  0  0  0  0  0  0  0  0  0  0  0
   23.7962  -14.7932  -16.2484 C   0  0  0  0  0  0  0  0  0  0  0  0
   24.7820  -15.5573  -15.6516 C   0  0  0  0  0  0  0  0  0  0  0  0
   24.5069  -16.7194  -14.9541 C   0  0  0  0  0  0  0  0  0  0  0  0
   23.1927  -17.1374  -14.8472 C   0  0  0  0  0  0  0  0  0  0  0  0
   25.2320  -20.8944  -13.4278 C   0  0  0  0  0  0  0  0  0  0  0  0
   24.7712  -22.0589  -13.4342 O   0  0  0  0  0  0  0  0  0  0  0  0
   30.4732  -20.5362  -14.1754 C   0  0  0  0  0  0  0  0  0  0  0  0
   29.0825  -21.0075  -13.8677 C   0  0  0  0  0  0  0  0  0  0  0  0
   28.7654  -20.9307  -12.3892 C   0  0  2  0  0  0  0  0  0  0  0  0
   29.8455  -21.6538  -11.6359 C   0  0  0  0  0  0  0  0  0  0  0  0
   27.3630  -21.3211  -12.0527 C   0  0  2  0  0  0  0  0  0  0  0  0
   26.3719  -20.5092  -12.7171 N   0  0  0  0  0  0  0  0  0  0  0  0
   27.0351  -21.5389  -10.6499 C   0  0  0  0  0  0  0  0  0  0  0  0
   27.4223  -22.6339  -10.0624 O   0  0  0  0  0  0  0  0  0  0  0  0
   28.0671  -18.5033   -6.5623 C   0  0  0  0  0  0  0  0  0  0  0  0
   27.8660  -19.8465   -7.3441 C   0  0  1  0  0  0  0  0  0  0  0  0
   28.6118  -20.8713   -6.5445 C   0  0  0  0  0  0  0  0  0  0  0  0
   26.4217  -20.0578   -7.5357 C   0  0  0  0  0  0  0  0  0  0  0  0
   25.8942  -21.1159   -8.4171 C   0  0  2  0  0  0  0  0  0  0  0  0
   26.3222  -20.6755   -9.7917 N   0  0  0  0  0  0  0  0  0  0  0  0
   24.4325  -21.2476   -8.4075 C   0  0  0  0  0  0  0  0  0  0  0  0
   23.6758  -20.9258   -9.5182 O   0  0  0  0  0  0  0  0  0  0  0  0
   23.8395  -21.6557   -7.3659 O   0  0  0  0  0  0  0  0  0  0  0  0
  2  1  1  6
  2  3  1  0
  3  4  1  0
  4 12  1  0
  4  5  2  0
  5  6  1  0
  7  6  1  0
  7  8  2  0
  9  8  1  0
 10  9  2  0
 11 10  1  0
 11 12  2  0
 12  7  1  0
 13  2  1  0
 13 20  1  0
 14 13  2  0
 15 16  1  0
 16 17  1  0
 17 18  1  1
 19 17  1  0
 19 20  1  1
 21 19  1  0
 22 21  2  0
 24 26  1  0
 24 23  1  1
 24 25  1  0
 27 26  1  1
 27 28  1  0
 28 21  1  0
 29 27  1  0
 29 30  1  0
 31 29  2  0
M  END
$$$$
