WIL.pdb
     RDKit          3D

 31 32  0  0  1  0  0  0  0  0999 V2000
   25.1973  -18.2837  -16.6773 N   0  0  0  0  0  0  0  0  0  0  0  0
   25.8540  -18.2468  -15.3941 C   0  0  1  0  0  0  0  0  0  0  0  0
   26.3914  -16.8604  -15.1332 C   0  0  0  0  0  0  0  0  0  0  0  0
   27.3907  -16.4623  -16.1522 C   0  0  0  0  0  0  0  0  0  0  0  0
   27.2574  -15.4250  -17.0480 C   0  0  0  0  0  0  0  0  0  0  0  0
   28.3692  -15.3805  -17.8049 N   0  0  0  0  0  0  0  0  0  0  0  0
   29.2307  -16.3329  -17.4577 C   0  0  0  0  0  0  0  0  0  0  0  0
   30.4767  -16.6922  -17.9186 C   0  0  0  0  0  0  0  0  0  0  0  0
   31.1527  -17.7658  -17.3372 C   0  0  0  0  0  0  0  0  0  0  0  0
   30.5291  -18.4368  -16.3015 C   0  0  0  0  0  0  0  0  0  0  0  0
   29.2775  -18.0851  -15.8297 C   0  0  0  0  0  0  0  0  0  0  0  0
   28.6196  -17.0189  -16.4157 C   0  0  0  0  0  0  0  0  0  0  0  0
   24.8651  -18.6496  -14.3411 C   0  0  0  0  0  0  0  0  0  0  0  0
   23.6905  -18.2581  -14.5298 O   0  0  0  0  0  0  0  0  0  0  0  0
   21.2133  -22.1010  -12.3525 C   0  0  0  0  0  0  0  0  0  0  0  0
   22.3534  -21.3371  -11.7463 C   0  0  0  0  0  0  0  0  0  0  0  0
   23.3425  -20.8608  -12.7889 C   0  0  2  0  0  0  0  0  0  0  0  0
   23.7328  -22.0345  -13.6415 C   0  0  0  0  0  0  0  0  0  0  0  0
   24.4715  -20.0596  -12.2267 C   0  0  2  0  0  0  0  0  0  0  0  0
   25.2677  -19.4102  -13.2401 N   0  0  0  0  0  0  0  0  0  0  0  0
   25.2991  -20.6777  -11.1991 C   0  0  0  0  0  0  0  0  0  0  0  0
   25.9258  -21.7879  -11.4609 O   0  0  0  0  0  0  0  0  0  0  0  0
   28.1192  -18.7083   -6.8857 C   0  0  0  0  0  0  0  0  0  0  0  0
   27.7241  -19.6088   -8.1058 C   0  0  1  0  0  0  0  0  0  0  0  0
   28.9510  -20.4181   -8.3987 C   0  0  0  0  0  0  0  0  0  0  0  0
   26.4960  -20.3431   -7.7597 C   0  0  0  0  0  0  0  0  0  0  0  0
   25.7667  -21.1607   -8.7468 C   0  0  2  0  0  0  0  0  0  0  0  0
   25.5329  -20.2086   -9.8894 N   0  0  0  0  0  0  0  0  0  0  0  0
   24.4655  -21.6592   -8.2861 C   0  0  0  0  0  0  0  0  0  0  0  0
   24.3737  -22.7342   -7.4225 O   0  0  0  0  0  0  0  0  0  0  0  0
   23.3977  -21.1079   -8.6853 O   0  0  0  0  0  0  0  0  0  0  0  0
  2  1  1  6
  2  3  1  0
  3  4  1  0
  4 12  1  0
  4  5  2  0
  5  6  1  0
  7  6  1  0
  7  8  2  0
  9  8  1  0
 10  9  2  0
 11 10  1  0
 11 12  2  0
 12  7  1  0
 13  2  1  0
 13 20  1  0
 14 13  2  0
 15 16  1  0
 16 17  1  0
 17 18  1  1
 19 17  1  0
 19 20  1  6
 21 19  1  0
 22 21  2  0
 24 26  1  0
 24 23  1  1
 24 25  1  0
 27 26  1  1
 27 28  1  0
 28 21  1  0
 29 27  1  0
 29 30  1  0
 31 29  2  0
M  END
$$$$
