WIL.pdb
     RDKit          3D

 31 32  0  0  1  0  0  0  0  0999 V2000
   24.7684  -17.0230  -18.5459 N   0  0  0  0  0  0  0  0  0  0  0  0
   24.1876  -17.9129  -17.5711 C   0  0  1  0  0  0  0  0  0  0  0  0
   22.8804  -18.4601  -18.0915 C   0  0  0  0  0  0  0  0  0  0  0  0
   21.8374  -17.4098  -18.1580 C   0  0  0  0  0  0  0  0  0  0  0  0
   21.8358  -16.3301  -19.0126 C   0  0  0  0  0  0  0  0  0  0  0  0
   20.7268  -15.6071  -18.7710 N   0  0  0  0  0  0  0  0  0  0  0  0
   19.9948  -16.1509  -17.8024 C   0  0  0  0  0  0  0  0  0  0  0  0
   18.8048  -15.7986  -17.2076 C   0  0  0  0  0  0  0  0  0  0  0  0
   18.2725  -16.5906  -16.1893 C   0  0  0  0  0  0  0  0  0  0  0  0
   18.9778  -17.7188  -15.8133 C   0  0  0  0  0  0  0  0  0  0  0  0
   20.1745  -18.0830  -16.4033 C   0  0  0  0  0  0  0  0  0  0  0  0
   20.6897  -17.2883  -17.4113 C   0  0  0  0  0  0  0  0  0  0  0  0
   25.1632  -19.0174  -17.2935 C   0  0  0  0  0  0  0  0  0  0  0  0
   25.4449  -19.7439  -18.2739 O   0  0  0  0  0  0  0  0  0  0  0  0
   29.2405  -19.6794  -13.0527 C   0  0  0  0  0  0  0  0  0  0  0  0
   27.9612  -19.3129  -13.7455 C   0  0  0  0  0  0  0  0  0  0  0  0
   27.8178  -20.0020  -15.0860 C   0  0  2  0  0  0  0  0  0  0  0  0
   28.6017  -19.2235  -16.1040 C   0  0  0  0  0  0  0  0  0  0  0  0
   26.4042  -20.3167  -15.4535 C   0  0  2  0  0  0  0  0  0  0  0  0
   25.6981  -19.1898  -16.0140 N   0  0  0  0  0  0  0  0  0  0  0  0
   25.5926  -21.0373  -14.4815 C   0  0  0  0  0  0  0  0  0  0  0  0
   25.8349  -22.2947  -14.2486 O   0  0  0  0  0  0  0  0  0  0  0  0
   25.7785  -19.7909   -9.7254 C   0  0  0  0  0  0  0  0  0  0  0  0
   25.6813  -20.6655  -11.0221 C   0  0  1  0  0  0  0  0  0  0  0  0
   26.4081  -21.9322  -10.6861 C   0  0  0  0  0  0  0  0  0  0  0  0
   24.2623  -20.7790  -11.3976 C   0  0  0  0  0  0  0  0  0  0  0  0
   23.8349  -21.3775  -12.6758 C   0  0  2  0  0  0  0  0  0  0  0  0
   24.5258  -20.5298  -13.7105 N   0  0  0  0  0  0  0  0  0  0  0  0
   22.3893  -21.3234  -12.9233 C   0  0  0  0  0  0  0  0  0  0  0  0
   21.5126  -22.1416  -12.2365 O   0  0  0  0  0  0  0  0  0  0  0  0
   21.9231  -20.5213  -13.7852 O   0  0  0  0  0  0  0  0  0  0  0  0
  2  1  1  6
  2  3  1  0
  3  4  1  0
  4 12  1  0
  4  5  2  0
  5  6  1  0
  7  6  1  0
  7  8  2  0
  9  8  1  0
 10  9  2  0
 11 10  1  0
 11 12  2  0
 12  7  1  0
 13  2  1  0
 13 20  1  0
 14 13  2  0
 15 16  1  0
 16 17  1  0
 17 18  1  6
 19 17  1  0
 19 20  1  1
 21 19  1  0
 22 21  2  0
 24 26  1  0
 24 23  1  1
 24 25  1  0
 27 26  1  1
 27 28  1  0
 28 21  1  0
 29 27  1  0
 29 30  1  0
 31 29  2  0
M  END
$$$$
