WIL.pdb
     RDKit          3D

 31 32  0  0  1  0  0  0  0  0999 V2000
   21.8847  -17.7647  -18.3121 N   0  0  0  0  0  0  0  0  0  0  0  0
   22.1577  -17.6646  -16.8997 C   0  0  1  0  0  0  0  0  0  0  0  0
   20.9069  -17.9736  -16.1129 C   0  0  0  0  0  0  0  0  0  0  0  0
   19.9420  -16.8501  -16.1593 C   0  0  0  0  0  0  0  0  0  0  0  0
   19.3294  -16.3617  -17.2916 C   0  0  0  0  0  0  0  0  0  0  0  0
   18.5267  -15.3447  -16.9273 N   0  0  0  0  0  0  0  0  0  0  0  0
   18.5758  -15.1346  -15.6146 C   0  0  0  0  0  0  0  0  0  0  0  0
   17.9546  -14.2346  -14.7790 C   0  0  0  0  0  0  0  0  0  0  0  0
   18.2149  -14.2610  -13.4081 C   0  0  0  0  0  0  0  0  0  0  0  0
   19.1043  -15.2095  -12.9380 C   0  0  0  0  0  0  0  0  0  0  0  0
   19.7347  -16.1189  -13.7677 C   0  0  0  0  0  0  0  0  0  0  0  0
   19.4667  -16.0808  -15.1241 C   0  0  0  0  0  0  0  0  0  0  0  0
   23.2605  -18.6219  -16.5587 C   0  0  0  0  0  0  0  0  0  0  0  0
   23.1110  -19.7885  -16.9890 O   0  0  0  0  0  0  0  0  0  0  0  0
   28.2938  -17.4626  -17.5281 C   0  0  0  0  0  0  0  0  0  0  0  0
   26.9872  -18.1227  -17.1995 C   0  0  0  0  0  0  0  0  0  0  0  0
   26.8094  -18.3319  -15.7106 C   0  0  2  0  0  0  0  0  0  0  0  0
   28.0348  -19.0204  -15.1802 C   0  0  0  0  0  0  0  0  0  0  0  0
   25.5016  -18.9530  -15.3414 C   0  0  2  0  0  0  0  0  0  0  0  0
   24.3626  -18.2007  -15.8098 N   0  0  0  0  0  0  0  0  0  0  0  0
   25.3264  -19.4047  -13.9673 C   0  0  0  0  0  0  0  0  0  0  0  0
   24.8734  -18.5760  -13.0716 O   0  0  0  0  0  0  0  0  0  0  0  0
   21.8049  -19.8835  -10.9095 C   0  0  0  0  0  0  0  0  0  0  0  0
   23.3687  -19.7838  -10.8943 C   0  0  1  0  0  0  0  0  0  0  0  0
   23.7471  -19.9073   -9.4494 C   0  0  0  0  0  0  0  0  0  0  0  0
   23.9052  -20.7925  -11.8226 C   0  0  0  0  0  0  0  0  0  0  0  0
   25.3539  -21.0085  -11.9943 C   0  0  2  0  0  0  0  0  0  0  0  0
   25.5881  -20.6895  -13.4469 N   0  0  0  0  0  0  0  0  0  0  0  0
   25.8010  -22.3839  -11.7447 C   0  0  0  0  0  0  0  0  0  0  0  0
   26.1901  -23.2112  -12.7809 O   0  0  0  0  0  0  0  0  0  0  0  0
   25.8289  -22.8369  -10.5625 O   0  0  0  0  0  0  0  0  0  0  0  0
  2  1  1  6
  2  3  1  0
  3  4  1  0
  4 12  1  0
  4  5  2  0
  5  6  1  0
  7  6  1  0
  7  8  2  0
  9  8  1  0
 10  9  2  0
 11 10  1  0
 11 12  2  0
 12  7  1  0
 13  2  1  0
 13 20  1  0
 14 13  2  0
 15 16  1  0
 16 17  1  0
 17 18  1  6
 19 17  1  0
 19 20  1  1
 21 19  1  0
 22 21  2  0
 24 26  1  0
 24 23  1  1
 24 25  1  0
 27 26  1  6
 27 28  1  0
 28 21  1  0
 29 27  1  0
 29 30  1  0
 31 29  2  0
M  END
$$$$
