WIL.pdb
     RDKit          3D

 31 32  0  0  1  0  0  0  0  0999 V2000
   26.0148  -19.2916  -11.8781 N   0  0  0  0  0  0  0  0  0  0  0  0
   26.2096  -20.6938  -12.1522 C   0  0  1  0  0  0  0  0  0  0  0  0
   25.7025  -21.5177  -10.9933 C   0  0  0  0  0  0  0  0  0  0  0  0
   26.1849  -20.9889   -9.6959 C   0  0  0  0  0  0  0  0  0  0  0  0
   25.3920  -20.5075   -8.6782 C   0  0  0  0  0  0  0  0  0  0  0  0
   26.1948  -20.1206   -7.6698 N   0  0  0  0  0  0  0  0  0  0  0  0
   27.4762  -20.3205   -7.9662 C   0  0  0  0  0  0  0  0  0  0  0  0
   28.6494  -20.0942   -7.2831 C   0  0  0  0  0  0  0  0  0  0  0  0
   29.8729  -20.4164   -7.8721 C   0  0  0  0  0  0  0  0  0  0  0  0
   29.8542  -20.9604   -9.1431 C   0  0  0  0  0  0  0  0  0  0  0  0
   28.6820  -21.1923   -9.8395 C   0  0  0  0  0  0  0  0  0  0  0  0
   27.4769  -20.8680   -9.2429 C   0  0  0  0  0  0  0  0  0  0  0  0
   25.4825  -21.0373  -13.4180 C   0  0  0  0  0  0  0  0  0  0  0  0
   24.4784  -20.3320  -13.6686 O   0  0  0  0  0  0  0  0  0  0  0  0
   29.7821  -22.2216  -16.3459 C   0  0  0  0  0  0  0  0  0  0  0  0
   28.4802  -21.7540  -15.7651 C   0  0  0  0  0  0  0  0  0  0  0  0
   27.3202  -22.6365  -16.1749 C   0  0  2  0  0  0  0  0  0  0  0  0
   27.4116  -22.8809  -17.6544 C   0  0  0  0  0  0  0  0  0  0  0  0
   25.9953  -22.1615  -15.6735 C   0  0  2  0  0  0  0  0  0  0  0  0
   25.9280  -22.0805  -14.2341 N   0  0  0  0  0  0  0  0  0  0  0  0
   24.7967  -22.7656  -16.2402 C   0  0  0  0  0  0  0  0  0  0  0  0
   24.6603  -22.8313  -17.5329 O   0  0  0  0  0  0  0  0  0  0  0  0
   21.6581  -26.7309  -13.8181 C   0  0  0  0  0  0  0  0  0  0  0  0
   21.6226  -25.2325  -14.2757 C   0  0  1  0  0  0  0  0  0  0  0  0
   22.2857  -24.4761  -13.1648 C   0  0  0  0  0  0  0  0  0  0  0  0
   22.2318  -25.1431  -15.6129 C   0  0  0  0  0  0  0  0  0  0  0  0
   22.4966  -23.8492  -16.2690 C   0  0  2  0  0  0  0  0  0  0  0  0
   23.7067  -23.3263  -15.5419 N   0  0  0  0  0  0  0  0  0  0  0  0
   21.4163  -22.8645  -16.1376 C   0  0  0  0  0  0  0  0  0  0  0  0
   20.1680  -23.0913  -16.6854 O   0  0  0  0  0  0  0  0  0  0  0  0
   21.6200  -21.7785  -15.5191 O   0  0  0  0  0  0  0  0  0  0  0  0
  2  1  1  1
  2  3  1  0
  3  4  1  0
  4 12  1  0
  4  5  2  0
  5  6  1  0
  7  6  1  0
  7  8  2  0
  9  8  1  0
 10  9  2  0
 11 10  1  0
 11 12  2  0
 12  7  1  0
 13  2  1  0
 13 20  1  0
 14 13  2  0
 15 16  1  0
 16 17  1  0
 17 18  1  6
 19 17  1  0
 19 20  1  1
 21 19  1  0
 22 21  2  0
 24 26  1  0
 24 23  1  1
 24 25  1  0
 27 26  1  1
 27 28  1  0
 28 21  1  0
 29 27  1  0
 29 30  1  0
 31 29  2  0
M  END
$$$$
