WIL.pdb
     RDKit          3D

 31 32  0  0  1  0  0  0  0  0999 V2000
   22.1129  -19.1368  -17.6350 N   0  0  0  0  0  0  0  0  0  0  0  0
   22.8929  -18.5589  -16.5688 C   0  0  1  0  0  0  0  0  0  0  0  0
   21.9923  -18.1994  -15.4118 C   0  0  0  0  0  0  0  0  0  0  0  0
   20.9694  -17.2026  -15.8062 C   0  0  0  0  0  0  0  0  0  0  0  0
   19.6059  -17.3907  -15.7688 C   0  0  0  0  0  0  0  0  0  0  0  0
   19.0158  -16.2616  -16.2022 N   0  0  0  0  0  0  0  0  0  0  0  0
   19.9163  -15.3367  -16.5241 C   0  0  0  0  0  0  0  0  0  0  0  0
   19.8181  -14.0505  -17.0040 C   0  0  0  0  0  0  0  0  0  0  0  0
   20.9736  -13.3083  -17.2518 C   0  0  0  0  0  0  0  0  0  0  0  0
   22.1932  -13.9089  -16.9997 C   0  0  0  0  0  0  0  0  0  0  0  0
   22.3046  -15.2004  -16.5176 C   0  0  0  0  0  0  0  0  0  0  0  0
   21.1506  -15.9239  -16.2767 C   0  0  0  0  0  0  0  0  0  0  0  0
   23.9380  -19.5503  -16.1519 C   0  0  0  0  0  0  0  0  0  0  0  0
   23.6334  -20.7536  -16.3185 O   0  0  0  0  0  0  0  0  0  0  0  0
   29.1763  -17.7377  -16.4427 C   0  0  0  0  0  0  0  0  0  0  0  0
   27.9457  -18.5940  -16.4976 C   0  0  0  0  0  0  0  0  0  0  0  0
   27.5598  -19.1308  -15.1355 C   0  0  2  0  0  0  0  0  0  0  0  0
   28.7464  -19.8472  -14.5561 C   0  0  0  0  0  0  0  0  0  0  0  0
   26.2732  -19.8904  -15.1296 C   0  0  2  0  0  0  0  0  0  0  0  0
   25.1555  -19.1193  -15.6182 N   0  0  0  0  0  0  0  0  0  0  0  0
   25.9315  -20.6411  -13.9285 C   0  0  0  0  0  0  0  0  0  0  0  0
   26.5518  -21.7557  -13.6696 O   0  0  0  0  0  0  0  0  0  0  0  0
   26.8714  -20.1710   -8.6042 C   0  0  0  0  0  0  0  0  0  0  0  0
   25.7543  -20.9893   -9.3378 C   0  0  1  0  0  0  0  0  0  0  0  0
   24.5170  -20.7663   -8.5222 C   0  0  0  0  0  0  0  0  0  0  0  0
   25.7210  -20.5653  -10.7472 C   0  0  0  0  0  0  0  0  0  0  0  0
   24.7790  -21.1496  -11.7198 C   0  0  2  0  0  0  0  0  0  0  0  0
   24.9729  -20.3039  -12.9502 N   0  0  0  0  0  0  0  0  0  0  0  0
   23.3675  -21.0751  -11.3247 C   0  0  0  0  0  0  0  0  0  0  0  0
   22.7697  -22.0908  -10.6030 O   0  0  0  0  0  0  0  0  0  0  0  0
   22.6699  -20.0700  -11.6509 O   0  0  0  0  0  0  0  0  0  0  0  0
  2  1  1  6
  2  3  1  0
  3  4  1  0
  4 12  1  0
  4  5  2  0
  5  6  1  0
  7  6  1  0
  7  8  2  0
  9  8  1  0
 10  9  2  0
 11 10  1  0
 11 12  2  0
 12  7  1  0
 13  2  1  0
 13 20  1  0
 14 13  2  0
 15 16  1  0
 16 17  1  0
 17 18  1  6
 19 17  1  0
 19 20  1  1
 21 19  1  0
 22 21  2  0
 24 26  1  0
 24 23  1  1
 24 25  1  0
 27 26  1  1
 27 28  1  0
 28 21  1  0
 29 27  1  0
 29 30  1  0
 31 29  2  0
M  END
$$$$
