REK.pdb
     RDKit          3D

 30 29  0  0  1  0  0  0  0  0999 V2000
   13.5158  -15.3800   20.0019 N   0  0  0  0  0  0  0  0  0  0  0  0
   12.8537  -14.6051   19.0126 C   0  0  0  0  0  0  0  0  0  0  0  0
   13.5087  -13.7105   18.3608 N   0  0  0  0  0  0  0  0  0  0  0  0
   11.4785  -14.8055   18.7362 N   0  0  0  0  0  0  0  0  0  0  0  0
   10.8372  -14.2580   17.5633 C   0  0  0  0  0  0  0  0  0  0  0  0
    9.7315  -13.3187   17.9606 C   0  0  0  0  0  0  0  0  0  0  0  0
    9.0019  -13.7873   19.1771 C   0  0  0  0  0  0  0  0  0  0  0  0
    8.7481  -15.2599   19.0970 C   0  0  2  0  0  0  0  0  0  0  0  0
    7.7034  -15.5435   18.1682 N   0  0  0  0  0  0  0  0  0  0  0  0
    8.5267  -15.8748   20.4313 C   0  0  0  0  0  0  0  0  0  0  0  0
    7.5089  -15.5172   21.0696 O   0  0  0  0  0  0  0  0  0  0  0  0
   13.0419  -13.1846   17.6097 N   0  0  0  0  0  0  0  0  0  0  0  0
    9.3977  -16.8352   21.0145 C   0  0  2  0  0  0  0  0  0  0  0  0
    9.1960  -17.4015   22.3300 C   0  0  0  0  0  0  0  0  0  0  0  0
   10.1417  -18.5047   22.6710 C   0  0  0  0  0  0  0  0  0  0  0  0
   11.4775  -18.0300   23.1482 C   0  0  0  0  0  0  0  0  0  0  0  0
   11.8027  -18.6918   24.4412 O   0  0  0  0  0  0  0  0  0  0  0  0
   12.1689  -19.8960   24.4139 C   0  0  0  0  0  0  0  0  0  0  0  0
    9.3920  -16.3047   23.3271 O   0  0  0  0  0  0  0  0  0  0  0  0
   10.2613  -15.4077   23.1576 O   0  0  0  0  0  0  0  0  0  0  0  0
   11.7254  -18.0634   25.6566 N   0  0  0  0  0  0  0  0  0  0  0  0
    8.6153  -16.2131   24.5114 C   0  0  2  0  0  0  0  0  0  0  0  0
    8.8017  -15.1876   25.5156 C   0  0  0  0  0  0  0  0  0  0  0  0
    7.4323  -14.5469   25.7814 C   0  0  0  0  0  0  0  0  0  0  0  0
    7.5886  -13.3094   26.6062 C   0  0  0  0  0  0  0  0  0  0  0  0
    6.3356  -12.6119   26.9672 C   0  0  0  0  0  0  0  0  0  0  0  0
    6.4703  -11.3847   27.8058 N   0  0  0  0  0  0  0  0  0  0  0  0
    5.2472  -10.7446   28.1490 C   0  0  0  0  0  0  0  0  0  0  0  0
    9.3043  -15.7736   26.7979 O   0  0  0  0  0  0  0  0  0  0  0  0
   10.3845  -15.3541   27.2443 O   0  0  0  0  0  0  0  0  0  0  0  0
  1  2  1  0
  2  3  2  0
  4  2  1  0
  4  5  1  0
  5  6  1  0
  7  6  1  0
  8  9  1  6
  8  7  1  0
 10  8  1  0
 11 10  2  0
 12 10  1  0
 13 18  1  0
 13 12  1  0
 13 14  1  6
 15 14  1  0
 16 15  1  0
 17 16  2  0
 18 19  2  0
 20 16  1  0
 21 22  1  0
 21 18  1  0
 22 23  1  1
 23 24  1  0
 24 25  1  0
 25 26  1  0
 26 27  1  0
 28 30  1  0
 28 22  1  0
 29 28  2  0
M  END
$$$$
