REK.pdb
     RDKit          3D

 30 29  0  0  1  0  0  0  0  0999 V2000
    7.7932  -13.5127   14.2487 N   0  0  0  0  0  0  0  0  0  0  0  0
    8.4966  -14.0619   15.3538 C   0  0  0  0  0  0  0  0  0  0  0  0
    9.4313  -14.9216   15.1499 N   0  0  0  0  0  0  0  0  0  0  0  0
    8.1793  -13.6744   16.6792 N   0  0  0  0  0  0  0  0  0  0  0  0
    8.8915  -14.1871   17.8267 C   0  0  0  0  0  0  0  0  0  0  0  0
    8.3064  -13.6336   19.0971 C   0  0  0  0  0  0  0  0  0  0  0  0
    7.9674  -14.7081   20.0781 C   0  0  0  0  0  0  0  0  0  0  0  0
    9.0328  -15.7590   20.0882 C   0  0  2  0  0  0  0  0  0  0  0  0
    8.7933  -16.7321   19.0733 N   0  0  0  0  0  0  0  0  0  0  0  0
    9.2341  -16.3555   21.4340 C   0  0  0  0  0  0  0  0  0  0  0  0
    8.2137  -16.5619   22.1320 O   0  0  0  0  0  0  0  0  0  0  0  0
    9.9469  -15.3118   15.9501 N   0  0  0  0  0  0  0  0  0  0  0  0
   10.5072  -16.7000   21.9647 C   0  0  1  0  0  0  0  0  0  0  0  0
   10.6968  -17.2658   23.2821 C   0  0  0  0  0  0  0  0  0  0  0  0
   12.0479  -17.8606   23.5022 C   0  0  0  0  0  0  0  0  0  0  0  0
   12.2324  -18.4549   24.8625 C   0  0  0  0  0  0  0  0  0  0  0  0
   13.6150  -18.9933   24.9817 O   0  0  0  0  0  0  0  0  0  0  0  0
   13.9673  -19.9010   24.1837 C   0  0  0  0  0  0  0  0  0  0  0  0
   10.5132  -16.1639   24.2760 O   0  0  0  0  0  0  0  0  0  0  0  0
   11.0711  -15.0433   24.1279 O   0  0  0  0  0  0  0  0  0  0  0  0
   14.5230  -18.5559   25.9103 N   0  0  0  0  0  0  0  0  0  0  0  0
    9.7058  -16.3175   25.4331 C   0  0  1  0  0  0  0  0  0  0  0  0
    9.3958  -15.2363   26.3440 C   0  0  0  0  0  0  0  0  0  0  0  0
    8.1035  -14.5716   25.8491 C   0  0  0  0  0  0  0  0  0  0  0  0
    7.7207  -13.4428   26.7521 C   0  0  0  0  0  0  0  0  0  0  0  0
    6.4904  -12.7099   26.3833 C   0  0  0  0  0  0  0  0  0  0  0  0
    6.1205  -11.5474   27.2431 N   0  0  0  0  0  0  0  0  0  0  0  0
    4.8714  -10.9384   26.9390 C   0  0  0  0  0  0  0  0  0  0  0  0
    9.1602  -15.7497   27.7300 O   0  0  0  0  0  0  0  0  0  0  0  0
    9.3029  -14.9570   28.6752 O   0  0  0  0  0  0  0  0  0  0  0  0
  1  2  1  0
  2  3  2  0
  4  2  1  0
  4  5  1  0
  5  6  1  0
  7  6  1  0
  8  9  1  6
  8  7  1  0
 10  8  1  0
 11 10  2  0
 12 10  1  0
 13 18  1  0
 13 12  1  0
 13 14  1  6
 15 14  1  0
 16 15  1  0
 17 16  2  0
 18 19  2  0
 20 16  1  0
 21 22  1  0
 21 18  1  0
 22 23  1  1
 23 24  1  0
 24 25  1  0
 25 26  1  0
 26 27  1  0
 28 30  1  0
 28 22  1  0
 29 28  2  0
M  END
$$$$
