REK.pdb
     RDKit          3D

 30 29  0  0  1  0  0  0  0  0999 V2000
    8.8846  -14.3946   13.5125 N   0  0  0  0  0  0  0  0  0  0  0  0
    7.6891  -14.3716   14.2791 C   0  0  0  0  0  0  0  0  0  0  0  0
    6.7360  -15.1879   13.9967 N   0  0  0  0  0  0  0  0  0  0  0  0
    7.5336  -13.4583   15.3511 N   0  0  0  0  0  0  0  0  0  0  0  0
    8.1675  -13.6558   16.6340 C   0  0  0  0  0  0  0  0  0  0  0  0
    7.1314  -13.7792   17.7175 C   0  0  0  0  0  0  0  0  0  0  0  0
    7.4225  -14.9082   18.6516 C   0  0  0  0  0  0  0  0  0  0  0  0
    8.7722  -14.7342   19.2741 C   0  0  2  0  0  0  0  0  0  0  0  0
    9.8034  -15.0803   18.3515 N   0  0  0  0  0  0  0  0  0  0  0  0
    8.8947  -15.4361   20.5779 C   0  0  0  0  0  0  0  0  0  0  0  0
    7.9540  -15.3028   21.3955 O   0  0  0  0  0  0  0  0  0  0  0  0
    5.8980  -15.2171   14.5929 N   0  0  0  0  0  0  0  0  0  0  0  0
   10.0088  -16.2408   20.9419 C   0  0  1  0  0  0  0  0  0  0  0  0
   10.1043  -16.9515   22.1979 C   0  0  0  0  0  0  0  0  0  0  0  0
   11.3203  -17.8077   22.3238 C   0  0  0  0  0  0  0  0  0  0  0  0
   11.3765  -18.9271   21.3331 C   0  0  0  0  0  0  0  0  0  0  0  0
   12.6390  -19.6921   21.5250 O   0  0  0  0  0  0  0  0  0  0  0  0
   12.7222  -20.4561   22.5222 C   0  0  0  0  0  0  0  0  0  0  0  0
   10.1464  -15.9314   23.2903 O   0  0  0  0  0  0  0  0  0  0  0  0
   11.1262  -15.1498   23.4245 O   0  0  0  0  0  0  0  0  0  0  0  0
   13.7129  -19.6102   20.6776 N   0  0  0  0  0  0  0  0  0  0  0  0
    9.0926  -15.7873   24.2300 C   0  0  1  0  0  0  0  0  0  0  0  0
    9.0966  -14.8080   25.2957 C   0  0  0  0  0  0  0  0  0  0  0  0
    7.7441  -14.0825   25.2615 C   0  0  0  0  0  0  0  0  0  0  0  0
    7.6594  -13.0879   26.3748 C   0  0  0  0  0  0  0  0  0  0  0  0
    6.3776  -12.3601   26.4940 C   0  0  0  0  0  0  0  0  0  0  0  0
    6.3044  -11.3003   27.5423 N   0  0  0  0  0  0  0  0  0  0  0  0
    5.0677  -10.6013   27.6160 C   0  0  0  0  0  0  0  0  0  0  0  0
    9.2444  -15.4658   26.6320 O   0  0  0  0  0  0  0  0  0  0  0  0
    8.9486  -16.6684   26.7234 O   0  0  0  0  0  0  0  0  0  0  0  0
  1  2  1  0
  2  3  2  0
  4  2  1  0
  4  5  1  0
  5  6  1  0
  7  6  1  0
  8  9  1  6
  8  7  1  0
 10  8  1  0
 11 10  2  0
 12 10  1  0
 13 18  1  0
 13 12  1  0
 13 14  1  1
 15 14  1  0
 16 15  1  0
 17 16  2  0
 18 19  2  0
 20 16  1  0
 21 22  1  0
 21 18  1  0
 22 23  1  1
 23 24  1  0
 24 25  1  0
 25 26  1  0
 26 27  1  0
 28 30  1  0
 28 22  1  0
 29 28  2  0
M  END
$$$$
