REK.pdb
     RDKit          3D

 30 29  0  0  1  0  0  0  0  0999 V2000
    7.4787  -12.7444   16.5705 N   0  0  0  0  0  0  0  0  0  0  0  0
    7.7337  -13.9629   15.8866 C   0  0  0  0  0  0  0  0  0  0  0  0
    8.1766  -13.9348   14.6794 N   0  0  0  0  0  0  0  0  0  0  0  0
    7.5043  -15.2100   16.5188 N   0  0  0  0  0  0  0  0  0  0  0  0
    7.3895  -15.3411   17.9528 C   0  0  0  0  0  0  0  0  0  0  0  0
    7.5011  -13.9942   18.6131 C   0  0  0  0  0  0  0  0  0  0  0  0
    7.2173  -14.0580   20.0784 C   0  0  0  0  0  0  0  0  0  0  0  0
    8.4921  -13.9881   20.8592 C   0  0  2  0  0  0  0  0  0  0  0  0
    9.5380  -13.4235   20.0707 N   0  0  0  0  0  0  0  0  0  0  0  0
    8.8596  -15.2914   21.4707 C   0  0  0  0  0  0  0  0  0  0  0  0
    7.9693  -15.9007   22.1089 O   0  0  0  0  0  0  0  0  0  0  0  0
    8.3893  -14.8172   14.1950 N   0  0  0  0  0  0  0  0  0  0  0  0
   10.1517  -15.8761   21.3711 C   0  0  1  0  0  0  0  0  0  0  0  0
   10.5308  -17.0957   22.0497 C   0  0  0  0  0  0  0  0  0  0  0  0
   11.5337  -17.9185   21.3114 C   0  0  0  0  0  0  0  0  0  0  0  0
   11.9812  -17.3106   20.0199 C   0  0  0  0  0  0  0  0  0  0  0  0
   13.1773  -18.0417   19.5195 O   0  0  0  0  0  0  0  0  0  0  0  0
   12.9921  -19.0987   18.8612 C   0  0  0  0  0  0  0  0  0  0  0  0
   11.1309  -16.7116   23.3642 O   0  0  0  0  0  0  0  0  0  0  0  0
   12.0967  -15.9048   23.4371 O   0  0  0  0  0  0  0  0  0  0  0  0
   14.4658  -17.6280   19.7357 N   0  0  0  0  0  0  0  0  0  0  0  0
   10.6495  -17.2303   24.5945 C   0  0  1  0  0  0  0  0  0  0  0  0
   11.2950  -17.0003   25.8693 C   0  0  0  0  0  0  0  0  0  0  0  0
   10.4478  -15.9767   26.6381 C   0  0  0  0  0  0  0  0  0  0  0  0
   11.1064  -15.6249   27.9337 C   0  0  0  0  0  0  0  0  0  0  0  0
   10.4321  -14.5836   28.7387 C   0  0  0  0  0  0  0  0  0  0  0  0
   11.1064  -14.1764   30.0064 N   0  0  0  0  0  0  0  0  0  0  0  0
   10.4734  -13.1218   30.7210 C   0  0  0  0  0  0  0  0  0  0  0  0
   11.3591  -18.2593   26.6762 O   0  0  0  0  0  0  0  0  0  0  0  0
   10.5321  -19.1516   26.4272 O   0  0  0  0  0  0  0  0  0  0  0  0
  1  2  1  0
  2  3  2  0
  4  2  1  0
  4  5  1  0
  5  6  1  0
  7  6  1  0
  8  9  1  6
  8  7  1  0
 10  8  1  0
 11 10  2  0
 12 10  1  0
 13 18  1  0
 13 12  1  0
 13 14  1  1
 15 14  1  0
 16 15  1  0
 17 16  2  0
 18 19  2  0
 20 16  1  0
 21 22  1  0
 21 18  1  0
 22 23  1  1
 23 24  1  0
 24 25  1  0
 25 26  1  0
 26 27  1  0
 28 30  1  0
 28 22  1  0
 29 28  2  0
M  END
$$$$
