REK.pdb
     RDKit          3D

 30 29  0  0  1  0  0  0  0  0999 V2000
   10.2061  -13.3705   19.8227 N   0  0  0  0  0  0  0  0  0  0  0  0
    9.0464  -12.8175   19.2170 C   0  0  0  0  0  0  0  0  0  0  0  0
    8.9401  -11.5418   19.0921 N   0  0  0  0  0  0  0  0  0  0  0  0
    8.0039  -13.6555   18.7496 N   0  0  0  0  0  0  0  0  0  0  0  0
    7.1399  -14.3888   19.6456 C   0  0  0  0  0  0  0  0  0  0  0  0
    7.9539  -15.1175   20.6795 C   0  0  0  0  0  0  0  0  0  0  0  0
    7.0992  -15.8968   21.6251 C   0  0  0  0  0  0  0  0  0  0  0  0
    7.5360  -17.3277   21.6632 C   0  0  2  0  0  0  0  0  0  0  0  0
    6.5719  -18.1679   21.0316 N   0  0  0  0  0  0  0  0  0  0  0  0
    7.8967  -17.7786   23.0321 C   0  0  0  0  0  0  0  0  0  0  0  0
    7.0023  -18.3366   23.7102 O   0  0  0  0  0  0  0  0  0  0  0  0
    8.1315  -11.1450   18.5950 N   0  0  0  0  0  0  0  0  0  0  0  0
    9.1868  -17.6122   23.6059 C   0  0  2  0  0  0  0  0  0  0  0  0
    9.5991  -18.2429   24.8405 C   0  0  0  0  0  0  0  0  0  0  0  0
   10.3807  -19.5004   24.6520 C   0  0  0  0  0  0  0  0  0  0  0  0
   11.8489  -19.2783   24.4712 C   0  0  0  0  0  0  0  0  0  0  0  0
   12.5192  -20.5854   24.2311 O   0  0  0  0  0  0  0  0  0  0  0  0
   11.8012  -21.6183   24.1816 C   0  0  0  0  0  0  0  0  0  0  0  0
   10.4650  -17.2704   25.5754 O   0  0  0  0  0  0  0  0  0  0  0  0
   11.2755  -17.6498   26.4631 O   0  0  0  0  0  0  0  0  0  0  0  0
   13.8719  -20.7255   24.0614 N   0  0  0  0  0  0  0  0  0  0  0  0
   10.4228  -15.8757   25.3158 C   0  0  2  0  0  0  0  0  0  0  0  0
    9.6760  -14.9324   26.1204 C   0  0  0  0  0  0  0  0  0  0  0  0
    8.1958  -15.0687   25.7373 C   0  0  0  0  0  0  0  0  0  0  0  0
    7.3520  -14.1859   26.6004 C   0  0  0  0  0  0  0  0  0  0  0  0
    6.8220  -12.9664   25.9532 C   0  0  0  0  0  0  0  0  0  0  0  0
    6.0007  -12.0586   26.8068 N   0  0  0  0  0  0  0  0  0  0  0  0
    5.4870  -10.9056   26.1507 C   0  0  0  0  0  0  0  0  0  0  0  0
    9.8152  -15.2388   27.5788 O   0  0  0  0  0  0  0  0  0  0  0  0
   10.0069  -14.2896   28.3561 O   0  0  0  0  0  0  0  0  0  0  0  0
  1  2  1  0
  2  3  2  0
  4  2  1  0
  4  5  1  0
  5  6  1  0
  7  6  1  0
  8  9  1  1
  8  7  1  0
 10  8  1  0
 11 10  2  0
 12 10  1  0
 13 18  1  0
 13 12  1  0
 13 14  1  6
 15 14  1  0
 16 15  1  0
 17 16  2  0
 18 19  2  0
 20 16  1  0
 21 22  1  0
 21 18  1  0
 22 23  1  6
 23 24  1  0
 24 25  1  0
 25 26  1  0
 26 27  1  0
 28 30  1  0
 28 22  1  0
 29 28  2  0
M  END
$$$$
