REK.pdb
     RDKit          3D

 30 29  0  0  1  0  0  0  0  0999 V2000
    8.3273  -12.1936   18.9728 N   0  0  0  0  0  0  0  0  0  0  0  0
    8.2071  -13.2727   18.0571 C   0  0  0  0  0  0  0  0  0  0  0  0
    8.1273  -13.0319   16.7962 N   0  0  0  0  0  0  0  0  0  0  0  0
    8.1727  -14.6124   18.5171 N   0  0  0  0  0  0  0  0  0  0  0  0
    8.0947  -14.9471   19.9202 C   0  0  0  0  0  0  0  0  0  0  0  0
    6.6589  -15.0747   20.3498 C   0  0  0  0  0  0  0  0  0  0  0  0
    6.5301  -15.3808   21.8064 C   0  0  0  0  0  0  0  0  0  0  0  0
    7.0567  -16.7507   22.0991 C   0  0  2  0  0  0  0  0  0  0  0  0
    6.2963  -17.7426   21.4119 N   0  0  0  0  0  0  0  0  0  0  0  0
    7.1818  -17.0153   23.5558 C   0  0  0  0  0  0  0  0  0  0  0  0
    6.2329  -16.6550   24.2912 O   0  0  0  0  0  0  0  0  0  0  0  0
    8.0759  -13.8151   16.1310 N   0  0  0  0  0  0  0  0  0  0  0  0
    8.3071  -17.6477   24.1515 C   0  0  2  0  0  0  0  0  0  0  0  0
    8.4789  -17.7914   25.5804 C   0  0  0  0  0  0  0  0  0  0  0  0
    9.1393  -19.0655   25.9906 C   0  0  0  0  0  0  0  0  0  0  0  0
    9.3339  -19.1970   27.4679 C   0  0  0  0  0  0  0  0  0  0  0  0
   10.0693  -20.4583   27.7578 O   0  0  0  0  0  0  0  0  0  0  0  0
   10.3631  -21.2078   26.7898 C   0  0  0  0  0  0  0  0  0  0  0  0
    9.3370  -16.6592   26.0466 O   0  0  0  0  0  0  0  0  0  0  0  0
   10.4238  -16.3768   25.4739 O   0  0  0  0  0  0  0  0  0  0  0  0
   10.4429  -20.8473   29.0176 N   0  0  0  0  0  0  0  0  0  0  0  0
    8.9776  -15.8449   27.1522 C   0  0  2  0  0  0  0  0  0  0  0  0
    9.8324  -14.8135   27.7000 C   0  0  0  0  0  0  0  0  0  0  0  0
    8.9247  -13.6968   28.2345 C   0  0  0  0  0  0  0  0  0  0  0  0
    8.1362  -13.0890   27.1187 C   0  0  0  0  0  0  0  0  0  0  0  0
    7.1102  -12.1012   27.5169 C   0  0  0  0  0  0  0  0  0  0  0  0
    6.3377  -11.4569   26.4144 N   0  0  0  0  0  0  0  0  0  0  0  0
    5.3612  -10.5090   26.8284 C   0  0  0  0  0  0  0  0  0  0  0  0
   10.6513  -15.3394   28.8371 O   0  0  0  0  0  0  0  0  0  0  0  0
   11.6609  -14.6981   29.1713 O   0  0  0  0  0  0  0  0  0  0  0  0
  1  2  1  0
  2  3  2  0
  4  2  1  0
  4  5  1  0
  5  6  1  0
  7  6  1  0
  8  9  1  1
  8  7  1  0
 10  8  1  0
 11 10  2  0
 12 10  1  0
 13 18  1  0
 13 12  1  0
 13 14  1  6
 15 14  1  0
 16 15  1  0
 17 16  2  0
 18 19  2  0
 20 16  1  0
 21 22  1  0
 21 18  1  0
 22 23  1  6
 23 24  1  0
 24 25  1  0
 25 26  1  0
 26 27  1  0
 28 30  1  0
 28 22  1  0
 29 28  2  0
M  END
$$$$
