REK.pdb
     RDKit          3D

 30 29  0  0  1  0  0  0  0  0999 V2000
    9.3816  -14.5660   15.1056 N   0  0  0  0  0  0  0  0  0  0  0  0
    8.3446  -13.8604   15.7723 C   0  0  0  0  0  0  0  0  0  0  0  0
    7.1675  -13.8205   15.2556 N   0  0  0  0  0  0  0  0  0  0  0  0
    8.5925  -13.1983   17.0002 N   0  0  0  0  0  0  0  0  0  0  0  0
    8.5995  -13.8934   18.2665 C   0  0  0  0  0  0  0  0  0  0  0  0
    7.2079  -14.3330   18.6310 C   0  0  0  0  0  0  0  0  0  0  0  0
    7.1429  -14.9243   20.0014 C   0  0  0  0  0  0  0  0  0  0  0  0
    7.8155  -16.2610   20.0242 C   0  0  2  0  0  0  0  0  0  0  0  0
    6.9702  -17.2623   19.4610 N   0  0  0  0  0  0  0  0  0  0  0  0
    8.3284  -16.6194   21.3717 C   0  0  0  0  0  0  0  0  0  0  0  0
    7.4843  -16.8083   22.2789 O   0  0  0  0  0  0  0  0  0  0  0  0
    6.4485  -13.2152   15.6741 N   0  0  0  0  0  0  0  0  0  0  0  0
    9.7089  -16.7576   21.6821 C   0  0  2  0  0  0  0  0  0  0  0  0
   10.2013  -17.0984   22.9986 C   0  0  0  0  0  0  0  0  0  0  0  0
   11.6315  -17.5246   23.0238 C   0  0  0  0  0  0  0  0  0  0  0  0
   12.6021  -16.3873   22.9752 C   0  0  0  0  0  0  0  0  0  0  0  0
   13.9882  -16.9252   22.9048 O   0  0  0  0  0  0  0  0  0  0  0  0
   14.8219  -16.5261   23.7596 C   0  0  0  0  0  0  0  0  0  0  0  0
   10.0701  -15.8813   23.8572 O   0  0  0  0  0  0  0  0  0  0  0  0
   10.5827  -14.7797   23.5215 O   0  0  0  0  0  0  0  0  0  0  0  0
   14.4054  -17.8287   21.9627 N   0  0  0  0  0  0  0  0  0  0  0  0
    9.3657  -15.8987   25.0892 C   0  0  1  0  0  0  0  0  0  0  0  0
    9.3429  -14.7872   26.0158 C   0  0  0  0  0  0  0  0  0  0  0  0
    7.9250  -14.1992   25.9973 C   0  0  0  0  0  0  0  0  0  0  0  0
    7.8303  -13.0405   26.9378 C   0  0  0  0  0  0  0  0  0  0  0  0
    6.4952  -12.4166   27.0609 C   0  0  0  0  0  0  0  0  0  0  0  0
    6.4017  -11.1997   27.9199 N   0  0  0  0  0  0  0  0  0  0  0  0
    5.1307  -10.5610   27.9343 C   0  0  0  0  0  0  0  0  0  0  0  0
    9.6464  -15.2407   27.4095 O   0  0  0  0  0  0  0  0  0  0  0  0
    9.5513  -16.4533   27.6595 O   0  0  0  0  0  0  0  0  0  0  0  0
  1  2  1  0
  2  3  2  0
  4  2  1  0
  4  5  1  0
  5  6  1  0
  7  6  1  0
  8  9  1  1
  8  7  1  0
 10  8  1  0
 11 10  2  0
 12 10  1  0
 13 18  1  0
 13 12  1  0
 13 14  1  6
 15 14  1  0
 16 15  1  0
 17 16  2  0
 18 19  2  0
 20 16  1  0
 21 22  1  0
 21 18  1  0
 22 23  1  1
 23 24  1  0
 24 25  1  0
 25 26  1  0
 26 27  1  0
 28 30  1  0
 28 22  1  0
 29 28  2  0
M  END
$$$$
