REK.pdb
     RDKit          3D

 30 29  0  0  1  0  0  0  0  0999 V2000
   15.5297  -14.1310   17.9468 N   0  0  0  0  0  0  0  0  0  0  0  0
   15.1077  -14.6787   19.1875 C   0  0  0  0  0  0  0  0  0  0  0  0
   15.9380  -15.3545   19.9004 N   0  0  0  0  0  0  0  0  0  0  0  0
   13.7813  -14.4902   19.6487 N   0  0  0  0  0  0  0  0  0  0  0  0
   12.6465  -14.4724   18.7551 C   0  0  0  0  0  0  0  0  0  0  0  0
   11.8016  -15.7006   18.9559 C   0  0  0  0  0  0  0  0  0  0  0  0
   10.6117  -15.7217   18.0528 C   0  0  0  0  0  0  0  0  0  0  0  0
    9.8202  -16.9741   18.2636 C   0  0  2  0  0  0  0  0  0  0  0  0
    8.9105  -17.1852   17.1855 N   0  0  0  0  0  0  0  0  0  0  0  0
    9.1665  -17.0191   19.5972 C   0  0  0  0  0  0  0  0  0  0  0  0
    8.0169  -16.5288   19.6930 O   0  0  0  0  0  0  0  0  0  0  0  0
   15.6288  -15.7593   20.7943 N   0  0  0  0  0  0  0  0  0  0  0  0
    9.7691  -17.5819   20.7553 C   0  0  2  0  0  0  0  0  0  0  0  0
    9.0770  -17.7500   22.0141 C   0  0  0  0  0  0  0  0  0  0  0  0
    9.4636  -18.9815   22.7634 C   0  0  0  0  0  0  0  0  0  0  0  0
   10.9407  -19.2065   22.8356 C   0  0  0  0  0  0  0  0  0  0  0  0
   11.2097  -20.4929   23.5345 O   0  0  0  0  0  0  0  0  0  0  0  0
   11.8369  -20.4538   24.6253 C   0  0  0  0  0  0  0  0  0  0  0  0
    9.4069  -16.5695   22.8703 O   0  0  0  0  0  0  0  0  0  0  0  0
   10.5993  -16.2700   23.1486 O   0  0  0  0  0  0  0  0  0  0  0  0
   10.8129  -21.7144   23.0563 N   0  0  0  0  0  0  0  0  0  0  0  0
    8.4027  -15.7263   23.4134 C   0  0  2  0  0  0  0  0  0  0  0  0
    8.6710  -14.6700   24.3657 C   0  0  0  0  0  0  0  0  0  0  0  0
    7.3356  -13.9812   24.6802 C   0  0  0  0  0  0  0  0  0  0  0  0
    7.5351  -12.8969   25.6904 C   0  0  0  0  0  0  0  0  0  0  0  0
    6.3280  -12.1243   26.0549 C   0  0  0  0  0  0  0  0  0  0  0  0
    6.5099  -11.0297   27.0530 N   0  0  0  0  0  0  0  0  0  0  0  0
    5.3152  -10.3760   27.4641 C   0  0  0  0  0  0  0  0  0  0  0  0
    9.2278  -15.2220   25.6407 O   0  0  0  0  0  0  0  0  0  0  0  0
   10.0409  -14.5250   26.2693 O   0  0  0  0  0  0  0  0  0  0  0  0
  1  2  1  0
  2  3  2  0
  4  2  1  0
  4  5  1  0
  5  6  1  0
  7  6  1  0
  8  9  1  6
  8  7  1  0
 10  8  1  0
 11 10  2  0
 12 10  1  0
 13 18  1  0
 13 12  1  0
 13 14  1  6
 15 14  1  0
 16 15  1  0
 17 16  2  0
 18 19  2  0
 20 16  1  0
 21 22  1  0
 21 18  1  0
 22 23  1  6
 23 24  1  0
 24 25  1  0
 25 26  1  0
 26 27  1  0
 28 30  1  0
 28 22  1  0
 29 28  2  0
M  END
$$$$
