REK.pdb
     RDKit          3D

 30 29  0  0  1  0  0  0  0  0999 V2000
   12.2340  -15.0500   17.6515 N   0  0  0  0  0  0  0  0  0  0  0  0
   12.2209  -13.6678   17.9785 C   0  0  0  0  0  0  0  0  0  0  0  0
   13.3310  -13.0514   18.1831 N   0  0  0  0  0  0  0  0  0  0  0  0
   10.9980  -12.9599   18.0833 N   0  0  0  0  0  0  0  0  0  0  0  0
    9.7190  -13.6290   18.1408 C   0  0  0  0  0  0  0  0  0  0  0  0
    9.4627  -14.1518   19.5277 C   0  0  0  0  0  0  0  0  0  0  0  0
    8.1537  -14.8647   19.6299 C   0  0  0  0  0  0  0  0  0  0  0  0
    7.9653  -15.4123   21.0098 C   0  0  2  0  0  0  0  0  0  0  0  0
    7.6117  -14.3743   21.9220 N   0  0  0  0  0  0  0  0  0  0  0  0
    9.1246  -16.2217   21.4664 C   0  0  0  0  0  0  0  0  0  0  0  0
    9.3067  -17.3318   20.9134 O   0  0  0  0  0  0  0  0  0  0  0  0
   13.3198  -12.0557   18.4419 N   0  0  0  0  0  0  0  0  0  0  0  0
   10.0265  -15.8084   22.4847 C   0  0  1  0  0  0  0  0  0  0  0  0
   11.1715  -16.5874   22.9017 C   0  0  0  0  0  0  0  0  0  0  0  0
   12.4839  -15.9148   22.6714 C   0  0  0  0  0  0  0  0  0  0  0  0
   13.2036  -16.3953   21.4513 C   0  0  0  0  0  0  0  0  0  0  0  0
   14.5426  -15.7489   21.3824 O   0  0  0  0  0  0  0  0  0  0  0  0
   15.1646  -15.5598   22.4604 C   0  0  0  0  0  0  0  0  0  0  0  0
   11.0354  -16.8374   24.3695 O   0  0  0  0  0  0  0  0  0  0  0  0
   10.7963  -15.9004   25.1781 O   0  0  0  0  0  0  0  0  0  0  0  0
   15.1337  -15.3494   20.2123 N   0  0  0  0  0  0  0  0  0  0  0  0
   11.1667  -18.1347   24.9300 C   0  0  2  0  0  0  0  0  0  0  0  0
   11.0560  -18.4115   26.3462 C   0  0  0  0  0  0  0  0  0  0  0  0
   10.8836  -19.9283   26.5084 C   0  0  0  0  0  0  0  0  0  0  0  0
   10.8211  -20.2924   27.9574 C   0  0  0  0  0  0  0  0  0  0  0  0
   10.5843  -21.7217   28.2541 C   0  0  0  0  0  0  0  0  0  0  0  0
   10.5023  -22.1016   29.6951 N   0  0  0  0  0  0  0  0  0  0  0  0
   10.3493  -23.4927   29.9501 C   0  0  0  0  0  0  0  0  0  0  0  0
   12.2962  -17.9980   27.0751 O   0  0  0  0  0  0  0  0  0  0  0  0
   13.3848  -18.1357   26.4937 O   0  0  0  0  0  0  0  0  0  0  0  0
  1  2  1  0
  2  3  2  0
  4  2  1  0
  4  5  1  0
  5  6  1  0
  7  6  1  0
  8  9  1  1
  8  7  1  0
 10  8  1  0
 11 10  2  0
 12 10  1  0
 13 18  1  0
 13 12  1  0
 13 14  1  6
 15 14  1  0
 16 15  1  0
 17 16  2  0
 18 19  2  0
 20 16  1  0
 21 22  1  0
 21 18  1  0
 22 23  1  6
 23 24  1  0
 24 25  1  0
 25 26  1  0
 26 27  1  0
 28 30  1  0
 28 22  1  0
 29 28  2  0
M  END
$$$$
