REK.pdb
     RDKit          3D

 30 29  0  0  1  0  0  0  0  0999 V2000
   14.7716  -19.1440   16.8877 N   0  0  0  0  0  0  0  0  0  0  0  0
   16.0176  -18.7134   17.4164 C   0  0  0  0  0  0  0  0  0  0  0  0
   16.9769  -18.4067   16.6164 N   0  0  0  0  0  0  0  0  0  0  0  0
   16.2167  -18.6192   18.8161 N   0  0  0  0  0  0  0  0  0  0  0  0
   15.1952  -18.1281   19.7116 C   0  0  0  0  0  0  0  0  0  0  0  0
   14.1107  -17.4300   18.9376 C   0  0  0  0  0  0  0  0  0  0  0  0
   13.0647  -16.8470   19.8309 C   0  0  0  0  0  0  0  0  0  0  0  0
   12.1698  -17.9249   20.3572 C   0  0  2  0  0  0  0  0  0  0  0  0
   11.7806  -18.8144   19.3123 N   0  0  0  0  0  0  0  0  0  0  0  0
   11.0178  -17.3863   21.1256 C   0  0  0  0  0  0  0  0  0  0  0  0
   11.2499  -16.4653   21.9435 O   0  0  0  0  0  0  0  0  0  0  0  0
   17.8557  -18.0304   16.9966 N   0  0  0  0  0  0  0  0  0  0  0  0
    9.6832  -17.8550   20.9835 C   0  0  1  0  0  0  0  0  0  0  0  0
    8.5807  -17.3833   21.7922 C   0  0  0  0  0  0  0  0  0  0  0  0
    7.2870  -18.0781   21.5254 C   0  0  0  0  0  0  0  0  0  0  0  0
    6.1536  -17.5912   22.3715 C   0  0  0  0  0  0  0  0  0  0  0  0
    4.9099  -18.3168   21.9943 O   0  0  0  0  0  0  0  0  0  0  0  0
    4.9881  -19.2003   21.1008 C   0  0  0  0  0  0  0  0  0  0  0  0
    8.9405  -17.6178   23.2244 O   0  0  0  0  0  0  0  0  0  0  0  0
    9.4664  -18.6989   23.6033 O   0  0  0  0  0  0  0  0  0  0  0  0
    3.6874  -18.0762   22.5651 N   0  0  0  0  0  0  0  0  0  0  0  0
    8.7116  -16.6426   24.2299 C   0  0  2  0  0  0  0  0  0  0  0  0
    8.9897  -16.8576   25.6339 C   0  0  0  0  0  0  0  0  0  0  0  0
    9.0557  -15.4800   26.3081 C   0  0  0  0  0  0  0  0  0  0  0  0
    9.4062  -15.6253   27.7545 C   0  0  0  0  0  0  0  0  0  0  0  0
    9.5978  -14.3638   28.5020 C   0  0  0  0  0  0  0  0  0  0  0  0
    9.9867  -14.4887   29.9375 N   0  0  0  0  0  0  0  0  0  0  0  0
   10.1568  -13.2586   30.6314 C   0  0  0  0  0  0  0  0  0  0  0  0
    7.8985  -17.6486   26.2848 O   0  0  0  0  0  0  0  0  0  0  0  0
    6.7422  -17.5068   25.8546 O   0  0  0  0  0  0  0  0  0  0  0  0
  1  2  1  0
  2  3  2  0
  4  2  1  0
  4  5  1  0
  5  6  1  0
  7  6  1  0
  8  9  1  6
  8  7  1  0
 10  8  1  0
 11 10  2  0
 12 10  1  0
 13 18  1  0
 13 12  1  0
 13 14  1  6
 15 14  1  0
 16 15  1  0
 17 16  2  0
 18 19  2  0
 20 16  1  0
 21 22  1  0
 21 18  1  0
 22 23  1  6
 23 24  1  0
 24 25  1  0
 25 26  1  0
 26 27  1  0
 28 30  1  0
 28 22  1  0
 29 28  2  0
M  END
$$$$
