REK.pdb
     RDKit          3D

 30 29  0  0  1  0  0  0  0  0999 V2000
    9.2089  -11.8522   19.8346 N   0  0  0  0  0  0  0  0  0  0  0  0
    8.9661  -12.8292   18.8326 C   0  0  0  0  0  0  0  0  0  0  0  0
    9.3572  -12.6147   17.6262 N   0  0  0  0  0  0  0  0  0  0  0  0
    8.2963  -14.0376   19.1466 N   0  0  0  0  0  0  0  0  0  0  0  0
    8.0133  -14.4348   20.5063 C   0  0  0  0  0  0  0  0  0  0  0  0
    7.2990  -15.7584   20.5281 C   0  0  0  0  0  0  0  0  0  0  0  0
    7.0192  -16.2266   21.9189 C   0  0  0  0  0  0  0  0  0  0  0  0
    7.6218  -17.5778   22.1445 C   0  0  2  0  0  0  0  0  0  0  0  0
    6.6510  -18.6040   21.9473 N   0  0  0  0  0  0  0  0  0  0  0  0
    8.3229  -17.6797   23.4505 C   0  0  0  0  0  0  0  0  0  0  0  0
    7.6283  -17.5712   24.4882 O   0  0  0  0  0  0  0  0  0  0  0  0
    9.1649  -13.3147   16.8971 N   0  0  0  0  0  0  0  0  0  0  0  0
    9.7225  -17.8911   23.5830 C   0  0  2  0  0  0  0  0  0  0  0  0
   10.3916  -18.0336   24.8573 C   0  0  0  0  0  0  0  0  0  0  0  0
   11.7841  -18.5619   24.7598 C   0  0  0  0  0  0  0  0  0  0  0  0
   12.4508  -18.7569   26.0846 C   0  0  0  0  0  0  0  0  0  0  0  0
   13.8134  -19.3174   25.8728 O   0  0  0  0  0  0  0  0  0  0  0  0
   13.9417  -20.2694   25.0591 C   0  0  0  0  0  0  0  0  0  0  0  0
   10.4581  -16.6782   25.4849 O   0  0  0  0  0  0  0  0  0  0  0  0
   11.0150  -15.7089   24.9024 O   0  0  0  0  0  0  0  0  0  0  0  0
   14.9329  -18.8549   26.5138 N   0  0  0  0  0  0  0  0  0  0  0  0
    9.9013  -16.4094   26.7625 C   0  0  1  0  0  0  0  0  0  0  0  0
   10.0362  -15.1405   27.4454 C   0  0  0  0  0  0  0  0  0  0  0  0
    8.6252  -14.6643   27.8183 C   0  0  0  0  0  0  0  0  0  0  0  0
    8.1304  -13.6701   26.8169 C   0  0  0  0  0  0  0  0  0  0  0  0
    6.8055  -13.0761   27.0974 C   0  0  0  0  0  0  0  0  0  0  0  0
    6.3048  -12.0649   26.1206 N   0  0  0  0  0  0  0  0  0  0  0  0
    5.0613  -11.4599   26.4542 C   0  0  0  0  0  0  0  0  0  0  0  0
   10.8317  -15.2877   28.7046 O   0  0  0  0  0  0  0  0  0  0  0  0
   11.0668  -16.4369   29.1122 O   0  0  0  0  0  0  0  0  0  0  0  0
  1  2  1  0
  2  3  2  0
  4  2  1  0
  4  5  1  0
  5  6  1  0
  7  6  1  0
  8  9  1  1
  8  7  1  0
 10  8  1  0
 11 10  2  0
 12 10  1  0
 13 18  1  0
 13 12  1  0
 13 14  1  6
 15 14  1  0
 16 15  1  0
 17 16  2  0
 18 19  2  0
 20 16  1  0
 21 22  1  0
 21 18  1  0
 22 23  1  1
 23 24  1  0
 24 25  1  0
 25 26  1  0
 26 27  1  0
 28 30  1  0
 28 22  1  0
 29 28  2  0
M  END
$$$$
