REK.pdb
     RDKit          3D

 30 29  0  0  1  0  0  0  0  0999 V2000
    8.8943  -12.0631   20.9226 N   0  0  0  0  0  0  0  0  0  0  0  0
    9.1807  -12.8869   19.8015 C   0  0  0  0  0  0  0  0  0  0  0  0
   10.2412  -12.6703   19.1067 N   0  0  0  0  0  0  0  0  0  0  0  0
    8.3103  -13.9443   19.4385 N   0  0  0  0  0  0  0  0  0  0  0  0
    7.1114  -14.2503   20.1840 C   0  0  0  0  0  0  0  0  0  0  0  0
    7.3207  -15.4730   21.0349 C   0  0  0  0  0  0  0  0  0  0  0  0
    7.7385  -16.6584   20.2274 C   0  0  0  0  0  0  0  0  0  0  0  0
    7.9332  -17.8491   21.1129 C   0  0  2  0  0  0  0  0  0  0  0  0
    6.6771  -18.4082   21.4923 N   0  0  0  0  0  0  0  0  0  0  0  0
    8.8185  -17.5611   22.2709 C   0  0  0  0  0  0  0  0  0  0  0  0
    8.3240  -17.6739   23.4172 O   0  0  0  0  0  0  0  0  0  0  0  0
   10.4184  -13.2293   18.2613 N   0  0  0  0  0  0  0  0  0  0  0  0
   10.1796  -17.1693   22.1484 C   0  0  2  0  0  0  0  0  0  0  0  0
   11.0644  -16.9917   23.2786 C   0  0  0  0  0  0  0  0  0  0  0  0
   12.4856  -16.7293   22.9057 C   0  0  0  0  0  0  0  0  0  0  0  0
   13.1716  -17.9003   22.2766 C   0  0  0  0  0  0  0  0  0  0  0  0
   14.5089  -17.4783   21.7776 O   0  0  0  0  0  0  0  0  0  0  0  0
   15.2647  -16.8530   22.5667 C   0  0  0  0  0  0  0  0  0  0  0  0
   10.5696  -15.8151   24.0572 O   0  0  0  0  0  0  0  0  0  0  0  0
   10.2910  -14.7223   23.4940 O   0  0  0  0  0  0  0  0  0  0  0  0
   14.9612  -17.7326   20.5091 N   0  0  0  0  0  0  0  0  0  0  0  0
   10.3871  -15.8630   25.4639 C   0  0  1  0  0  0  0  0  0  0  0  0
    9.9051  -14.7465   26.2486 C   0  0  0  0  0  0  0  0  0  0  0  0
    8.4073  -14.5863   25.9527 C   0  0  0  0  0  0  0  0  0  0  0  0
    7.8243  -13.4976   26.7960 C   0  0  0  0  0  0  0  0  0  0  0  0
    6.3600  -13.3171   26.6950 C   0  0  0  0  0  0  0  0  0  0  0  0
    5.7537  -12.2660   27.5640 N   0  0  0  0  0  0  0  0  0  0  0  0
    4.3354  -12.1728   27.5072 C   0  0  0  0  0  0  0  0  0  0  0  0
   10.0706  -15.0056   27.7134 O   0  0  0  0  0  0  0  0  0  0  0  0
   10.1501  -16.1866   28.0891 O   0  0  0  0  0  0  0  0  0  0  0  0
  1  2  1  0
  2  3  2  0
  4  2  1  0
  4  5  1  0
  5  6  1  0
  7  6  1  0
  8  9  1  1
  8  7  1  0
 10  8  1  0
 11 10  2  0
 12 10  1  0
 13 18  1  0
 13 12  1  0
 13 14  1  6
 15 14  1  0
 16 15  1  0
 17 16  2  0
 18 19  2  0
 20 16  1  0
 21 22  1  0
 21 18  1  0
 22 23  1  1
 23 24  1  0
 24 25  1  0
 25 26  1  0
 26 27  1  0
 28 30  1  0
 28 22  1  0
 29 28  2  0
M  END
$$$$
