REK.pdb
     RDKit          3D

 30 29  0  0  1  0  0  0  0  0999 V2000
    6.8244  -13.6189   15.0684 N   0  0  0  0  0  0  0  0  0  0  0  0
    8.1130  -14.1332   14.7645 C   0  0  0  0  0  0  0  0  0  0  0  0
    8.7127  -13.7549   13.6914 N   0  0  0  0  0  0  0  0  0  0  0  0
    8.7455  -15.0600   15.6298 N   0  0  0  0  0  0  0  0  0  0  0  0
    8.5138  -15.0699   17.0557 C   0  0  0  0  0  0  0  0  0  0  0  0
    8.5815  -13.6723   17.6076 C   0  0  0  0  0  0  0  0  0  0  0  0
    8.2494  -13.6230   19.0634 C   0  0  0  0  0  0  0  0  0  0  0  0
    9.4280  -14.0495   19.8810 C   0  0  2  0  0  0  0  0  0  0  0  0
   10.4483  -14.5992   19.0495 N   0  0  0  0  0  0  0  0  0  0  0  0
    9.0491  -14.9408   21.0078 C   0  0  0  0  0  0  0  0  0  0  0  0
    7.9154  -14.7771   21.5167 O   0  0  0  0  0  0  0  0  0  0  0  0
    9.6363  -14.1451   13.4603 N   0  0  0  0  0  0  0  0  0  0  0  0
    9.8944  -15.9564   21.5323 C   0  0  1  0  0  0  0  0  0  0  0  0
    9.4984  -16.8559   22.5934 C   0  0  0  0  0  0  0  0  0  0  0  0
   10.2793  -18.1270   22.6392 C   0  0  0  0  0  0  0  0  0  0  0  0
    9.9785  -19.0622   21.5111 C   0  0  0  0  0  0  0  0  0  0  0  0
   10.8389  -20.2710   21.6303 O   0  0  0  0  0  0  0  0  0  0  0  0
   11.7170  -20.2858   22.5323 C   0  0  0  0  0  0  0  0  0  0  0  0
    9.7077  -16.1420   23.8903 O   0  0  0  0  0  0  0  0  0  0  0  0
   10.8410  -15.7040   24.2259 O   0  0  0  0  0  0  0  0  0  0  0  0
   10.7276  -21.3660   20.8137 N   0  0  0  0  0  0  0  0  0  0  0  0
    8.6491  -15.9190   24.8090 C   0  0  2  0  0  0  0  0  0  0  0  0
    8.8242  -15.2762   26.0939 C   0  0  0  0  0  0  0  0  0  0  0  0
    7.4836  -14.6327   26.4750 C   0  0  0  0  0  0  0  0  0  0  0  0
    7.5714  -13.1440   26.3644 C   0  0  0  0  0  0  0  0  0  0  0  0
    6.3353  -12.3988   26.6866 C   0  0  0  0  0  0  0  0  0  0  0  0
    6.3914  -10.9145   26.5413 N   0  0  0  0  0  0  0  0  0  0  0  0
    5.2141  -10.2195   26.9341 C   0  0  0  0  0  0  0  0  0  0  0  0
    9.1855  -16.2727   27.1506 O   0  0  0  0  0  0  0  0  0  0  0  0
    8.9145  -17.4663   26.9405 O   0  0  0  0  0  0  0  0  0  0  0  0
  1  2  1  0
  2  3  2  0
  4  2  1  0
  4  5  1  0
  5  6  1  0
  7  6  1  0
  8  9  1  6
  8  7  1  0
 10  8  1  0
 11 10  2  0
 12 10  1  0
 13 18  1  0
 13 12  1  0
 13 14  1  6
 15 14  1  0
 16 15  1  0
 17 16  2  0
 18 19  2  0
 20 16  1  0
 21 22  1  0
 21 18  1  0
 22 23  1  6
 23 24  1  0
 24 25  1  0
 25 26  1  0
 26 27  1  0
 28 30  1  0
 28 22  1  0
 29 28  2  0
M  END
$$$$
