ENQ.pdb
     RDKit          3D

 27 26  0  0  1  0  0  0  0  0999 V2000
   22.1732  -12.5789  -17.8036 N   0  0  0  0  0  0  0  0  0  0  0  0
   21.3223  -11.5558  -17.3165 C   0  0  1  0  0  0  0  0  0  0  0  0
   20.1397  -11.9629  -16.5259 C   0  0  0  0  0  0  0  0  0  0  0  0
   19.3113  -13.0798  -17.0097 C   0  0  0  0  0  0  0  0  0  0  0  0
   18.1885  -13.5186  -16.2093 C   0  0  0  0  0  0  0  0  0  0  0  0
   17.3372  -14.3741  -16.5168 O   0  0  0  0  0  0  0  0  0  0  0  0
   22.1482  -10.6421  -16.4285 C   0  0  0  0  0  0  0  0  0  0  0  0
   21.6149  -10.2798  -15.3690 O   0  0  0  0  0  0  0  0  0  0  0  0
   18.0151  -12.9316  -14.9395 O   0  0  0  0  0  0  0  0  0  0  0  0
   25.8500  -11.9611  -16.6525 N   0  0  0  0  0  0  0  0  0  0  0  0
   26.1813  -10.8201  -15.8887 C   0  0  0  0  0  0  0  0  0  0  0  0
   26.9046  -11.0392  -14.8549 O   0  0  0  0  0  0  0  0  0  0  0  0
   25.7413   -9.4496  -16.2278 C   0  0  0  0  0  0  0  0  0  0  0  0
   24.2475   -9.3102  -16.1384 C   0  0  2  0  0  0  0  0  0  0  0  0
   23.4208  -10.2324  -16.7697 N   0  0  0  0  0  0  0  0  0  0  0  0
   23.7504   -7.9307  -16.2601 C   0  0  0  0  0  0  0  0  0  0  0  0
   23.7635   -7.4247  -17.4223 O   0  0  0  0  0  0  0  0  0  0  0  0
   18.8222   -6.4880  -17.5515 N   0  0  0  0  0  0  0  0  0  0  0  0
   19.1628   -5.2027  -17.0589 C   0  0  0  0  0  0  0  0  0  0  0  0
   18.3120   -4.2764  -17.2050 O   0  0  0  0  0  0  0  0  0  0  0  0
   20.4527   -4.9673  -16.3988 C   0  0  0  0  0  0  0  0  0  0  0  0
   21.3473   -6.1298  -16.2186 C   0  0  0  0  0  0  0  0  0  0  0  0
   22.6226   -5.8506  -15.5166 C   0  0  2  0  0  0  0  0  0  0  0  0
   23.2723   -7.1547  -15.1975 N   0  0  0  0  0  0  0  0  0  0  0  0
   22.4860   -5.1155  -14.2692 C   0  0  0  0  0  0  0  0  0  0  0  0
   22.2672   -3.7336  -14.2361 O   0  0  0  0  0  0  0  0  0  0  0  0
   22.5721   -5.7106  -13.1375 O   0  0  0  0  0  0  0  0  0  0  0  0
  2  7  1  0
  2  1  1  1
  3  2  1  0
  4  3  1  0
  5  6  2  0
  5  4  1  0
  7  8  2  0
  9  5  1  0
 11 10  1  0
 11 13  1  0
 12 11  2  0
 14 13  1  6
 15 14  1  0
 15  7  1  0
 16 17  2  0
 16 14  1  0
 18 19  1  0
 19 20  2  0
 19 21  1  0
 21 22  1  0
 23 22  1  1
 23 24  1  0
 24 16  1  0
 25 23  1  0
 25 26  1  0
 27 25  2  0
M  END
$$$$
