ENQ.pdb
     RDKit          3D

 27 26  0  0  1  0  0  0  0  0999 V2000
   27.6568  -21.5776  -15.5438 N   0  0  0  0  0  0  0  0  0  0  0  0
   27.2822  -20.5022  -14.7004 C   0  0  1  0  0  0  0  0  0  0  0  0
   27.0906  -19.1739  -15.3232 C   0  0  0  0  0  0  0  0  0  0  0  0
   27.6427  -18.9322  -16.6665 C   0  0  0  0  0  0  0  0  0  0  0  0
   27.4416  -17.6399  -17.2857 C   0  0  0  0  0  0  0  0  0  0  0  0
   26.8989  -16.6409  -16.7769 O   0  0  0  0  0  0  0  0  0  0  0  0
   25.9679  -20.8656  -14.0326 C   0  0  0  0  0  0  0  0  0  0  0  0
   25.2275  -21.6349  -14.6637 O   0  0  0  0  0  0  0  0  0  0  0  0
   27.8998  -17.4640  -18.6071 O   0  0  0  0  0  0  0  0  0  0  0  0
   26.4587  -22.0915  -10.7524 N   0  0  0  0  0  0  0  0  0  0  0  0
   25.5847  -21.2897   -9.9854 C   0  0  0  0  0  0  0  0  0  0  0  0
   25.8124  -21.2749   -8.7252 O   0  0  0  0  0  0  0  0  0  0  0  0
   24.4709  -20.5064  -10.5623 C   0  0  0  0  0  0  0  0  0  0  0  0
   24.4474  -20.6003  -12.0622 C   0  0  2  0  0  0  0  0  0  0  0  0
   25.6073  -20.3751  -12.7945 N   0  0  0  0  0  0  0  0  0  0  0  0
   23.2567  -20.0129  -12.6963 C   0  0  0  0  0  0  0  0  0  0  0  0
   23.4382  -18.9550  -13.3706 O   0  0  0  0  0  0  0  0  0  0  0  0
   22.2990  -18.6614  -17.1156 N   0  0  0  0  0  0  0  0  0  0  0  0
   20.9935  -19.2142  -17.1426 C   0  0  0  0  0  0  0  0  0  0  0  0
   20.2543  -18.9197  -18.1275 O   0  0  0  0  0  0  0  0  0  0  0  0
   20.5290  -20.1001  -16.0680 C   0  0  0  0  0  0  0  0  0  0  0  0
   21.4654  -20.3717  -14.9573 C   0  0  0  0  0  0  0  0  0  0  0  0
   20.9479  -20.0763  -13.6001 C   0  0  2  0  0  0  0  0  0  0  0  0
   21.9611  -20.5355  -12.6065 N   0  0  0  0  0  0  0  0  0  0  0  0
   19.6892  -20.7260  -13.2705 C   0  0  0  0  0  0  0  0  0  0  0  0
   18.4548  -20.0839  -13.4205 O   0  0  0  0  0  0  0  0  0  0  0  0
   19.6621  -21.9232  -12.8143 O   0  0  0  0  0  0  0  0  0  0  0  0
  2  7  1  0
  2  1  1  6
  3  2  1  0
  4  3  1  0
  5  6  2  0
  5  4  1  0
  7  8  2  0
  9  5  1  0
 11 10  1  0
 11 13  1  0
 12 11  2  0
 14 13  1  1
 15 14  1  0
 15  7  1  0
 16 17  2  0
 16 14  1  0
 18 19  1  0
 19 20  2  0
 19 21  1  0
 21 22  1  0
 23 22  1  6
 23 24  1  0
 24 16  1  0
 25 23  1  0
 25 26  1  0
 27 25  2  0
M  END
$$$$
