ENQ.pdb
     RDKit          3D

 27 26  0  0  1  0  0  0  0  0999 V2000
   14.9249  -22.4243   -1.6707 N   0  0  0  0  0  0  0  0  0  0  0  0
   14.1956  -22.3826   -0.4564 C   0  0  1  0  0  0  0  0  0  0  0  0
   14.0023  -23.6546    0.2740 C   0  0  0  0  0  0  0  0  0  0  0  0
   15.1663  -24.5264    0.5040 C   0  0  0  0  0  0  0  0  0  0  0  0
   15.2212  -25.8125   -0.1569 C   0  0  0  0  0  0  0  0  0  0  0  0
   15.1641  -26.0291   -1.3820 O   0  0  0  0  0  0  0  0  0  0  0  0
   14.9157  -21.4396    0.4910 C   0  0  0  0  0  0  0  0  0  0  0  0
   16.1024  -21.1967    0.2248 O   0  0  0  0  0  0  0  0  0  0  0  0
   15.3542  -26.9618    0.6483 O   0  0  0  0  0  0  0  0  0  0  0  0
   11.7072  -18.3400    1.9783 N   0  0  0  0  0  0  0  0  0  0  0  0
   12.8214  -18.4232    2.8424 C   0  0  0  0  0  0  0  0  0  0  0  0
   12.5496  -18.4322    4.0938 O   0  0  0  0  0  0  0  0  0  0  0  0
   14.2213  -18.4965    2.3714 C   0  0  0  0  0  0  0  0  0  0  0  0
   14.7608  -19.8968    2.4559 C   0  0  2  0  0  0  0  0  0  0  0  0
   14.2955  -20.8782    1.5882 N   0  0  0  0  0  0  0  0  0  0  0  0
   14.9540  -20.3996    3.8251 C   0  0  0  0  0  0  0  0  0  0  0  0
   14.3271  -21.4574    4.1334 O   0  0  0  0  0  0  0  0  0  0  0  0
   19.0311  -23.6359    4.2393 N   0  0  0  0  0  0  0  0  0  0  0  0
   18.7404  -23.6272    5.6271 C   0  0  0  0  0  0  0  0  0  0  0  0
   19.3028  -24.5034    6.3476 O   0  0  0  0  0  0  0  0  0  0  0  0
   17.8264  -22.6304    6.1983 C   0  0  0  0  0  0  0  0  0  0  0  0
   17.1133  -21.7422    5.2566 C   0  0  0  0  0  0  0  0  0  0  0  0
   16.3179  -20.6581    5.8804 C   0  0  2  0  0  0  0  0  0  0  0  0
   15.7693  -19.7989    4.7916 N   0  0  0  0  0  0  0  0  0  0  0  0
   17.0627  -19.7946    6.7830 C   0  0  0  0  0  0  0  0  0  0  0  0
   17.3305  -18.4539    6.4838 O   0  0  0  0  0  0  0  0  0  0  0  0
   17.5173  -20.2363    7.8967 O   0  0  0  0  0  0  0  0  0  0  0  0
  2  7  1  0
  2  1  1  6
  3  2  1  0
  4  3  1  0
  5  6  2  0
  5  4  1  0
  7  8  2  0
  9  5  1  0
 11 10  1  0
 11 13  1  0
 12 11  2  0
 14 13  1  1
 15 14  1  0
 15  7  1  0
 16 17  2  0
 16 14  1  0
 18 19  1  0
 19 20  2  0
 19 21  1  0
 21 22  1  0
 23 22  1  6
 23 24  1  0
 24 16  1  0
 25 23  1  0
 25 26  1  0
 27 25  2  0
M  END
$$$$
