ENQ.pdb
     RDKit          3D

 27 26  0  0  1  0  0  0  0  0999 V2000
   23.6254  -16.4467  -18.2699 N   0  0  0  0  0  0  0  0  0  0  0  0
   23.5926  -15.1682  -18.8800 C   0  0  1  0  0  0  0  0  0  0  0  0
   22.2915  -14.6822  -19.3898 C   0  0  0  0  0  0  0  0  0  0  0  0
   21.0942  -14.8397  -18.5475 C   0  0  0  0  0  0  0  0  0  0  0  0
   19.8038  -14.4663  -19.0853 C   0  0  0  0  0  0  0  0  0  0  0  0
   19.2762  -13.3386  -19.0538 O   0  0  0  0  0  0  0  0  0  0  0  0
   24.0707  -14.1496  -17.8605 C   0  0  0  0  0  0  0  0  0  0  0  0
   23.6743  -14.3123  -16.6966 O   0  0  0  0  0  0  0  0  0  0  0  0
   19.0398  -15.4669  -19.7194 O   0  0  0  0  0  0  0  0  0  0  0  0
   27.6561  -11.0515  -15.0676 N   0  0  0  0  0  0  0  0  0  0  0  0
   27.3121  -10.8207  -16.4180 C   0  0  0  0  0  0  0  0  0  0  0  0
   27.3446   -9.5970  -16.7942 O   0  0  0  0  0  0  0  0  0  0  0  0
   26.9345  -11.8934  -17.3634 C   0  0  0  0  0  0  0  0  0  0  0  0
   25.4481  -12.1147  -17.3838 C   0  0  2  0  0  0  0  0  0  0  0  0
   24.8996  -13.0993  -18.1975 N   0  0  0  0  0  0  0  0  0  0  0  0
   24.6429  -10.8835  -17.3669 C   0  0  0  0  0  0  0  0  0  0  0  0
   24.1833  -10.4921  -18.4815 O   0  0  0  0  0  0  0  0  0  0  0  0
   20.3798   -9.1803  -13.2083 N   0  0  0  0  0  0  0  0  0  0  0  0
   20.3933   -8.0973  -14.1234 C   0  0  0  0  0  0  0  0  0  0  0  0
   19.4998   -7.2098  -13.9920 O   0  0  0  0  0  0  0  0  0  0  0  0
   21.4141   -8.0135  -15.1752 C   0  0  0  0  0  0  0  0  0  0  0  0
   22.3892   -9.1202  -15.2670 C   0  0  0  0  0  0  0  0  0  0  0  0
   23.3932   -8.9975  -16.3506 C   0  0  2  0  0  0  0  0  0  0  0  0
   24.3555  -10.1298  -16.2226 N   0  0  0  0  0  0  0  0  0  0  0  0
   24.1657   -7.7654  -16.3321 C   0  0  0  0  0  0  0  0  0  0  0  0
   23.6932   -6.5783  -16.9033 O   0  0  0  0  0  0  0  0  0  0  0  0
   25.3281   -7.7211  -15.7945 O   0  0  0  0  0  0  0  0  0  0  0  0
  2  7  1  0
  2  1  1  1
  3  2  1  0
  4  3  1  0
  5  6  2  0
  5  4  1  0
  7  8  2  0
  9  5  1  0
 11 10  1  0
 11 13  1  0
 12 11  2  0
 14 13  1  6
 15 14  1  0
 15  7  1  0
 16 17  2  0
 16 14  1  0
 18 19  1  0
 19 20  2  0
 19 21  1  0
 21 22  1  0
 23 22  1  1
 23 24  1  0
 24 16  1  0
 25 23  1  0
 25 26  1  0
 27 25  2  0
M  END
$$$$
