ENQ.pdb
     RDKit          3D

 27 26  0  0  1  0  0  0  0  0999 V2000
   15.4368  -12.2042  -11.3999 N   0  0  0  0  0  0  0  0  0  0  0  0
   15.1633  -10.8145  -11.4447 C   0  0  1  0  0  0  0  0  0  0  0  0
   14.1819  -10.2749  -10.4780 C   0  0  0  0  0  0  0  0  0  0  0  0
   12.7987  -10.7783  -10.5132 C   0  0  0  0  0  0  0  0  0  0  0  0
   11.8423  -10.2697   -9.5537 C   0  0  0  0  0  0  0  0  0  0  0  0
   11.7165  -10.6168   -8.3642 O   0  0  0  0  0  0  0  0  0  0  0  0
   16.4661  -10.0721  -11.2053 C   0  0  0  0  0  0  0  0  0  0  0  0
   17.2547  -10.5947  -10.4034 O   0  0  0  0  0  0  0  0  0  0  0  0
   10.9438   -9.2726   -9.9843 O   0  0  0  0  0  0  0  0  0  0  0  0
   21.1018   -7.5805  -11.1149 N   0  0  0  0  0  0  0  0  0  0  0  0
   20.2871   -7.6174  -12.2681 C   0  0  0  0  0  0  0  0  0  0  0  0
   20.5662   -6.7509  -13.1688 O   0  0  0  0  0  0  0  0  0  0  0  0
   19.1778   -8.5767  -12.4587 C   0  0  0  0  0  0  0  0  0  0  0  0
   17.9244   -8.1172  -11.7682 C   0  0  2  0  0  0  0  0  0  0  0  0
   16.7669   -8.8838  -11.8387 N   0  0  0  0  0  0  0  0  0  0  0  0
   17.6540   -6.6754  -11.8803 C   0  0  0  0  0  0  0  0  0  0  0  0
   16.9907   -6.3009  -12.8935 O   0  0  0  0  0  0  0  0  0  0  0  0
   17.0340   -2.5796   -7.2218 N   0  0  0  0  0  0  0  0  0  0  0  0
   15.9381   -3.1107   -7.9483 C   0  0  0  0  0  0  0  0  0  0  0  0
   14.8067   -3.1142   -7.3799 O   0  0  0  0  0  0  0  0  0  0  0  0
   16.1179   -3.6272   -9.3106 C   0  0  0  0  0  0  0  0  0  0  0  0
   17.4918   -3.6481   -9.8549 C   0  0  0  0  0  0  0  0  0  0  0  0
   17.6435   -4.2963  -11.1793 C   0  0  2  0  0  0  0  0  0  0  0  0
   18.0724   -5.7077  -10.9592 N   0  0  0  0  0  0  0  0  0  0  0  0
   18.6236   -3.6750  -12.0558 C   0  0  0  0  0  0  0  0  0  0  0  0
   18.4023   -2.4341  -12.6640 O   0  0  0  0  0  0  0  0  0  0  0  0
   19.7378   -4.2519  -12.3168 O   0  0  0  0  0  0  0  0  0  0  0  0
  2  7  1  0
  2  1  1  1
  3  2  1  0
  4  3  1  0
  5  6  2  0
  5  4  1  0
  7  8  2  0
  9  5  1  0
 11 10  1  0
 11 13  1  0
 12 11  2  0
 14 13  1  6
 15 14  1  0
 15  7  1  0
 16 17  2  0
 16 14  1  0
 18 19  1  0
 19 20  2  0
 19 21  1  0
 21 22  1  0
 23 22  1  1
 23 24  1  0
 24 16  1  0
 25 23  1  0
 25 26  1  0
 27 25  2  0
M  END
$$$$
