ENQ.pdb
     RDKit          3D

 27 26  0  0  1  0  0  0  0  0999 V2000
   18.3689  -12.3300  -16.9198 N   0  0  0  0  0  0  0  0  0  0  0  0
   17.5776  -11.5684  -16.0243 C   0  0  1  0  0  0  0  0  0  0  0  0
   16.7021  -12.3029  -15.0845 C   0  0  0  0  0  0  0  0  0  0  0  0
   15.5473  -13.0432  -15.6195 C   0  0  0  0  0  0  0  0  0  0  0  0
   15.7814  -14.1681  -16.4991 C   0  0  0  0  0  0  0  0  0  0  0  0
   15.5046  -14.2426  -17.7111 O   0  0  0  0  0  0  0  0  0  0  0  0
   18.5108  -10.7194  -15.1794 C   0  0  0  0  0  0  0  0  0  0  0  0
   19.6784  -11.1249  -15.0776 O   0  0  0  0  0  0  0  0  0  0  0  0
   16.3873  -15.3173  -15.9520 O   0  0  0  0  0  0  0  0  0  0  0  0
   20.2546   -6.6380  -12.4173 N   0  0  0  0  0  0  0  0  0  0  0  0
   20.8865   -7.2581  -13.5178 C   0  0  0  0  0  0  0  0  0  0  0  0
   22.1084   -6.9269  -13.7110 O   0  0  0  0  0  0  0  0  0  0  0  0
   20.2155   -8.2287  -14.4093 C   0  0  0  0  0  0  0  0  0  0  0  0
   18.8496   -8.5948  -13.9002 C   0  0  2  0  0  0  0  0  0  0  0  0
   18.0952   -9.5605  -14.5565 N   0  0  0  0  0  0  0  0  0  0  0  0
   18.0366   -7.4553  -13.4472 C   0  0  0  0  0  0  0  0  0  0  0  0
   17.5120   -6.7389  -14.3518 O   0  0  0  0  0  0  0  0  0  0  0  0
   15.1857   -6.8338   -7.7878 N   0  0  0  0  0  0  0  0  0  0  0  0
   14.3300   -6.9605   -8.9114 C   0  0  0  0  0  0  0  0  0  0  0  0
   13.1178   -7.2535   -8.6928 O   0  0  0  0  0  0  0  0  0  0  0  0
   14.8388   -6.7501  -10.2723 C   0  0  0  0  0  0  0  0  0  0  0  0
   16.2614   -6.3768  -10.4170 C   0  0  0  0  0  0  0  0  0  0  0  0
   16.7208   -6.1407  -11.8064 C   0  0  2  0  0  0  0  0  0  0  0  0
   17.8078   -7.1164  -12.1083 N   0  0  0  0  0  0  0  0  0  0  0  0
   17.2486   -4.8092  -12.0583 C   0  0  0  0  0  0  0  0  0  0  0  0
   18.5621   -4.5953  -12.4912 O   0  0  0  0  0  0  0  0  0  0  0  0
   16.5252   -3.7663  -11.8814 O   0  0  0  0  0  0  0  0  0  0  0  0
  2  7  1  0
  2  1  1  1
  3  2  1  0
  4  3  1  0
  5  6  2  0
  5  4  1  0
  7  8  2  0
  9  5  1  0
 11 10  1  0
 11 13  1  0
 12 11  2  0
 14 13  1  6
 15 14  1  0
 15  7  1  0
 16 17  2  0
 16 14  1  0
 18 19  1  0
 19 20  2  0
 19 21  1  0
 21 22  1  0
 23 22  1  1
 23 24  1  0
 24 16  1  0
 25 23  1  0
 25 26  1  0
 27 25  2  0
M  END
$$$$
