ENQ.pdb
     RDKit          3D

 27 26  0  0  1  0  0  0  0  0999 V2000
   19.2684  -14.6260  -18.9506 N   0  0  0  0  0  0  0  0  0  0  0  0
   18.3315  -13.6762  -18.4729 C   0  0  1  0  0  0  0  0  0  0  0  0
   17.9514  -13.7431  -17.0446 C   0  0  0  0  0  0  0  0  0  0  0  0
   17.3669  -14.9893  -16.5221 C   0  0  0  0  0  0  0  0  0  0  0  0
   18.2489  -16.0271  -16.0334 C   0  0  0  0  0  0  0  0  0  0  0  0
   18.9226  -16.0069  -14.9860 O   0  0  0  0  0  0  0  0  0  0  0  0
   18.9069  -12.2908  -18.7076 C   0  0  0  0  0  0  0  0  0  0  0  0
   20.0922  -12.1276  -18.3812 O   0  0  0  0  0  0  0  0  0  0  0  0
   18.3786  -17.1992  -16.8056 O   0  0  0  0  0  0  0  0  0  0  0  0
   19.6459   -7.4233  -20.1199 N   0  0  0  0  0  0  0  0  0  0  0  0
   18.6515   -7.9531  -20.9717 C   0  0  0  0  0  0  0  0  0  0  0  0
   18.3291   -7.2164  -21.9684 O   0  0  0  0  0  0  0  0  0  0  0  0
   18.0035   -9.2654  -20.7597 C   0  0  0  0  0  0  0  0  0  0  0  0
   18.5437   -9.9584  -19.5404 C   0  0  2  0  0  0  0  0  0  0  0  0
   18.1635  -11.2643  -19.2532 N   0  0  0  0  0  0  0  0  0  0  0  0
   18.6197   -9.1153  -18.3370 C   0  0  0  0  0  0  0  0  0  0  0  0
   17.8893   -9.4573  -17.3590 O   0  0  0  0  0  0  0  0  0  0  0  0
   21.8084   -9.7549  -14.0849 N   0  0  0  0  0  0  0  0  0  0  0  0
   21.3325   -8.4781  -13.6926 C   0  0  0  0  0  0  0  0  0  0  0  0
   21.6007   -8.0901  -12.5176 O   0  0  0  0  0  0  0  0  0  0  0  0
   20.5653   -7.6421  -14.6241 C   0  0  0  0  0  0  0  0  0  0  0  0
   20.2528   -8.2124  -15.9512 C   0  0  0  0  0  0  0  0  0  0  0  0
   19.5002   -7.3222  -16.8669 C   0  0  2  0  0  0  0  0  0  0  0  0
   19.4303   -7.9819  -18.2028 N   0  0  0  0  0  0  0  0  0  0  0  0
   20.0882   -6.0064  -17.0612 C   0  0  0  0  0  0  0  0  0  0  0  0
   20.0421   -5.0141  -16.0754 O   0  0  0  0  0  0  0  0  0  0  0  0
   20.6695   -5.6972  -18.1606 O   0  0  0  0  0  0  0  0  0  0  0  0
  2  7  1  0
  2  1  1  1
  3  2  1  0
  4  3  1  0
  5  6  2  0
  5  4  1  0
  7  8  2  0
  9  5  1  0
 11 10  1  0
 11 13  1  0
 12 11  2  0
 14 13  1  6
 15 14  1  0
 15  7  1  0
 16 17  2  0
 16 14  1  0
 18 19  1  0
 19 20  2  0
 19 21  1  0
 21 22  1  0
 23 22  1  1
 23 24  1  0
 24 16  1  0
 25 23  1  0
 25 26  1  0
 27 25  2  0
M  END
$$$$
