ENQ.pdb
     RDKit          3D

 27 26  0  0  1  0  0  0  0  0999 V2000
   17.5639  -13.4453  -16.2352 N   0  0  0  0  0  0  0  0  0  0  0  0
   17.5114  -12.1639  -16.8379 C   0  0  1  0  0  0  0  0  0  0  0  0
   16.1890  -11.5097  -16.9494 C   0  0  0  0  0  0  0  0  0  0  0  0
   15.1386  -12.1613  -17.7492 C   0  0  0  0  0  0  0  0  0  0  0  0
   13.8558  -11.5067  -17.8894 C   0  0  0  0  0  0  0  0  0  0  0  0
   13.5159  -10.4112  -17.4042 O   0  0  0  0  0  0  0  0  0  0  0  0
   18.3947  -11.2293  -16.0305 C   0  0  0  0  0  0  0  0  0  0  0  0
   17.9678  -10.9015  -14.9132 O   0  0  0  0  0  0  0  0  0  0  0  0
   12.8647  -12.1562  -18.6530 O   0  0  0  0  0  0  0  0  0  0  0  0
   22.2853   -8.0989  -14.6093 N   0  0  0  0  0  0  0  0  0  0  0  0
   22.7379   -9.3989  -14.9259 C   0  0  0  0  0  0  0  0  0  0  0  0
   23.8951   -9.7061  -14.4717 O   0  0  0  0  0  0  0  0  0  0  0  0
   21.9570  -10.3676  -15.7253 C   0  0  0  0  0  0  0  0  0  0  0  0
   20.5284   -9.9288  -15.8849 C   0  0  2  0  0  0  0  0  0  0  0  0
   19.6055  -10.7653  -16.5021 N   0  0  0  0  0  0  0  0  0  0  0  0
   20.3576   -8.5190  -16.2694 C   0  0  0  0  0  0  0  0  0  0  0  0
   20.5143   -8.2439  -17.4968 O   0  0  0  0  0  0  0  0  0  0  0  0
   16.0186   -4.4185  -14.9183 N   0  0  0  0  0  0  0  0  0  0  0  0
   16.9801   -3.6323  -15.6026 C   0  0  0  0  0  0  0  0  0  0  0  0
   16.6634   -2.4404  -15.8894 O   0  0  0  0  0  0  0  0  0  0  0  0
   18.2933   -4.1867  -15.9536 C   0  0  0  0  0  0  0  0  0  0  0  0
   18.5523   -5.5986  -15.6021 C   0  0  0  0  0  0  0  0  0  0  0  0
   19.9044   -6.1027  -15.9410 C   0  0  2  0  0  0  0  0  0  0  0  0
   20.0389   -7.4806  -15.3862 N   0  0  0  0  0  0  0  0  0  0  0  0
   21.0031   -5.3107  -15.4112 C   0  0  0  0  0  0  0  0  0  0  0  0
   21.5172   -5.5118  -14.1252 O   0  0  0  0  0  0  0  0  0  0  0  0
   21.5429   -4.3794  -16.1064 O   0  0  0  0  0  0  0  0  0  0  0  0
  2  7  1  0
  2  1  1  1
  3  2  1  0
  4  3  1  0
  5  6  2  0
  5  4  1  0
  7  8  2  0
  9  5  1  0
 11 10  1  0
 11 13  1  0
 12 11  2  0
 14 13  1  6
 15 14  1  0
 15  7  1  0
 16 17  2  0
 16 14  1  0
 18 19  1  0
 19 20  2  0
 19 21  1  0
 21 22  1  0
 23 22  1  1
 23 24  1  0
 24 16  1  0
 25 23  1  0
 25 26  1  0
 27 25  2  0
M  END
$$$$
