ENQ.pdb
     RDKit          3D

 27 26  0  0  1  0  0  0  0  0999 V2000
   18.9594  -11.4328  -16.0311 N   0  0  0  0  0  0  0  0  0  0  0  0
   18.1531  -10.4339  -15.4311 C   0  0  1  0  0  0  0  0  0  0  0  0
   16.8619  -10.8534  -14.8429 C   0  0  0  0  0  0  0  0  0  0  0  0
   15.9727  -11.7252  -15.6285 C   0  0  0  0  0  0  0  0  0  0  0  0
   14.6994  -12.1190  -15.0651 C   0  0  0  0  0  0  0  0  0  0  0  0
   14.3823  -13.2477  -14.6448 O   0  0  0  0  0  0  0  0  0  0  0  0
   18.9552   -9.7930  -14.3124 C   0  0  0  0  0  0  0  0  0  0  0  0
   20.0914  -10.2518  -14.1210 O   0  0  0  0  0  0  0  0  0  0  0  0
   13.6902  -11.1395  -14.9690 O   0  0  0  0  0  0  0  0  0  0  0  0
   21.5081   -5.0461  -12.6221 N   0  0  0  0  0  0  0  0  0  0  0  0
   21.1144   -6.3758  -12.3538 C   0  0  0  0  0  0  0  0  0  0  0  0
   21.3648   -6.7974  -11.1708 O   0  0  0  0  0  0  0  0  0  0  0  0
   20.4554   -7.2525  -13.3459 C   0  0  0  0  0  0  0  0  0  0  0  0
   19.1470   -7.7841  -12.8316 C   0  0  2  0  0  0  0  0  0  0  0  0
   18.4593   -8.7580  -13.5465 N   0  0  0  0  0  0  0  0  0  0  0  0
   18.2517   -6.7660  -12.2601 C   0  0  0  0  0  0  0  0  0  0  0  0
   17.8263   -5.8754  -13.0555 O   0  0  0  0  0  0  0  0  0  0  0  0
   14.7039   -7.1049   -7.0194 N   0  0  0  0  0  0  0  0  0  0  0  0
   14.4506   -7.6704   -8.2949 C   0  0  0  0  0  0  0  0  0  0  0  0
   13.5670   -8.5743   -8.3685 O   0  0  0  0  0  0  0  0  0  0  0  0
   15.1853   -7.2123   -9.4805 C   0  0  0  0  0  0  0  0  0  0  0  0
   16.1721   -6.1282   -9.2929 C   0  0  0  0  0  0  0  0  0  0  0  0
   16.8591   -5.6710  -10.5243 C   0  0  2  0  0  0  0  0  0  0  0  0
   17.8457   -6.7168  -10.9213 N   0  0  0  0  0  0  0  0  0  0  0  0
   17.5836   -4.4171  -10.3908 C   0  0  0  0  0  0  0  0  0  0  0  0
   16.9386   -3.2074  -10.1095 O   0  0  0  0  0  0  0  0  0  0  0  0
   18.8558   -4.3691  -10.5378 O   0  0  0  0  0  0  0  0  0  0  0  0
  2  7  1  0
  2  1  1  1
  3  2  1  0
  4  3  1  0
  5  6  2  0
  5  4  1  0
  7  8  2  0
  9  5  1  0
 11 10  1  0
 11 13  1  0
 12 11  2  0
 14 13  1  6
 15 14  1  0
 15  7  1  0
 16 17  2  0
 16 14  1  0
 18 19  1  0
 19 20  2  0
 19 21  1  0
 21 22  1  0
 23 22  1  1
 23 24  1  0
 24 16  1  0
 25 23  1  0
 25 26  1  0
 27 25  2  0
M  END
$$$$
