ENQ.pdb
     RDKit          3D

 27 26  0  0  1  0  0  0  0  0999 V2000
   20.7325  -12.5272  -16.6251 N   0  0  0  0  0  0  0  0  0  0  0  0
   21.4836  -11.6229  -15.8337 C   0  0  1  0  0  0  0  0  0  0  0  0
   22.9371  -11.5260  -16.0921 C   0  0  0  0  0  0  0  0  0  0  0  0
   23.7824  -12.7072  -15.8513 C   0  0  0  0  0  0  0  0  0  0  0  0
   25.2096  -12.6045  -16.0668 C   0  0  0  0  0  0  0  0  0  0  0  0
   25.8267  -11.6389  -16.5546 O   0  0  0  0  0  0  0  0  0  0  0  0
   20.9095  -10.2322  -16.0383 C   0  0  0  0  0  0  0  0  0  0  0  0
   20.6759   -9.9033  -17.2111 O   0  0  0  0  0  0  0  0  0  0  0  0
   26.0129  -13.7008  -15.6930 O   0  0  0  0  0  0  0  0  0  0  0  0
   16.7601   -9.7112  -14.7077 N   0  0  0  0  0  0  0  0  0  0  0  0
   17.6785   -8.8028  -15.2789 C   0  0  0  0  0  0  0  0  0  0  0  0
   17.6477   -8.7170  -16.5563 O   0  0  0  0  0  0  0  0  0  0  0  0
   18.6270   -7.9888  -14.4884 C   0  0  0  0  0  0  0  0  0  0  0  0
   20.0347   -8.1318  -14.9952 C   0  0  2  0  0  0  0  0  0  0  0  0
   20.6571   -9.3747  -14.9872 N   0  0  0  0  0  0  0  0  0  0  0  0
   20.9431   -7.0432  -14.6023 C   0  0  0  0  0  0  0  0  0  0  0  0
   21.6255   -7.2273  -13.5500 O   0  0  0  0  0  0  0  0  0  0  0  0
   23.9049   -2.8148  -18.1983 N   0  0  0  0  0  0  0  0  0  0  0  0
   24.0017   -4.2246  -18.0819 C   0  0  0  0  0  0  0  0  0  0  0  0
   24.6233   -4.8451  -18.9939 O   0  0  0  0  0  0  0  0  0  0  0  0
   23.4067   -4.9279  -16.9389 C   0  0  0  0  0  0  0  0  0  0  0  0
   22.6505   -4.1187  -15.9604 C   0  0  0  0  0  0  0  0  0  0  0  0
   22.1105   -4.8637  -14.7982 C   0  0  2  0  0  0  0  0  0  0  0  0
   21.1014   -5.8403  -15.3007 N   0  0  0  0  0  0  0  0  0  0  0  0
   21.4567   -4.0399  -13.7937 C   0  0  0  0  0  0  0  0  0  0  0  0
   22.1776   -3.2846  -12.8618 O   0  0  0  0  0  0  0  0  0  0  0  0
   20.1790   -3.9812  -13.7155 O   0  0  0  0  0  0  0  0  0  0  0  0
  2  7  1  0
  2  1  1  6
  3  2  1  0
  4  3  1  0
  5  6  2  0
  5  4  1  0
  7  8  2  0
  9  5  1  0
 11 10  1  0
 11 13  1  0
 12 11  2  0
 14 13  1  1
 15 14  1  0
 15  7  1  0
 16 17  2  0
 16 14  1  0
 18 19  1  0
 19 20  2  0
 19 21  1  0
 21 22  1  0
 23 22  1  6
 23 24  1  0
 24 16  1  0
 25 23  1  0
 25 26  1  0
 27 25  2  0
M  END
$$$$
