ENQ.pdb
     RDKit          3D

 27 26  0  0  1  0  0  0  0  0999 V2000
   22.3026  -13.7873  -17.5723 N   0  0  0  0  0  0  0  0  0  0  0  0
   22.5304  -12.4445  -17.9635 C   0  0  1  0  0  0  0  0  0  0  0  0
   21.4406  -11.7409  -18.6750 C   0  0  0  0  0  0  0  0  0  0  0  0
   20.8375  -12.3765  -19.8582 C   0  0  0  0  0  0  0  0  0  0  0  0
   19.7930  -11.6770  -20.5747 C   0  0  0  0  0  0  0  0  0  0  0  0
   18.5926  -11.9995  -20.6540 O   0  0  0  0  0  0  0  0  0  0  0  0
   22.8296  -11.6361  -16.7135 C   0  0  0  0  0  0  0  0  0  0  0  0
   22.0253  -11.7575  -15.7773 O   0  0  0  0  0  0  0  0  0  0  0  0
   20.1431  -10.4997  -21.2664 O   0  0  0  0  0  0  0  0  0  0  0  0
   26.2553  -11.5212  -16.8526 N   0  0  0  0  0  0  0  0  0  0  0  0
   26.4774  -11.0431  -15.5422 C   0  0  0  0  0  0  0  0  0  0  0  0
   27.5423  -11.4689  -14.9726 O   0  0  0  0  0  0  0  0  0  0  0  0
   25.5648  -10.1133  -14.8424 C   0  0  0  0  0  0  0  0  0  0  0  0
   24.2787   -9.9273  -15.5977 C   0  0  2  0  0  0  0  0  0  0  0  0
   23.9308  -10.8108  -16.6129 N   0  0  0  0  0  0  0  0  0  0  0  0
   23.9578   -8.5305  -15.9306 C   0  0  0  0  0  0  0  0  0  0  0  0
   24.5722   -8.0286  -16.9192 O   0  0  0  0  0  0  0  0  0  0  0  0
   19.4249   -6.4086  -18.5520 N   0  0  0  0  0  0  0  0  0  0  0  0
   19.9837   -5.1764  -18.1274 C   0  0  0  0  0  0  0  0  0  0  0  0
   19.4584   -4.1130  -18.5703 O   0  0  0  0  0  0  0  0  0  0  0  0
   21.1235   -5.1460  -17.2027 C   0  0  0  0  0  0  0  0  0  0  0  0
   21.6495   -6.4428  -16.7277 C   0  0  0  0  0  0  0  0  0  0  0  0
   22.7681   -6.3611  -15.7585 C   0  0  2  0  0  0  0  0  0  0  0  0
   23.0357   -7.7342  -15.2412 N   0  0  0  0  0  0  0  0  0  0  0  0
   22.5211   -5.5036  -14.6102 C   0  0  0  0  0  0  0  0  0  0  0  0
   22.6485   -4.1114  -14.6757 O   0  0  0  0  0  0  0  0  0  0  0  0
   22.1830   -5.9966  -13.4767 O   0  0  0  0  0  0  0  0  0  0  0  0
  2  7  1  0
  2  1  1  1
  3  2  1  0
  4  3  1  0
  5  6  2  0
  5  4  1  0
  7  8  2  0
  9  5  1  0
 11 10  1  0
 11 13  1  0
 12 11  2  0
 14 13  1  6
 15 14  1  0
 15  7  1  0
 16 17  2  0
 16 14  1  0
 18 19  1  0
 19 20  2  0
 19 21  1  0
 21 22  1  0
 23 22  1  6
 23 24  1  0
 24 16  1  0
 25 23  1  0
 25 26  1  0
 27 25  2  0
M  END
$$$$
