ENQ.pdb
     RDKit          3D

 27 26  0  0  1  0  0  0  0  0999 V2000
   26.3936  -20.3206  -15.9091 N   0  0  0  0  0  0  0  0  0  0  0  0
   25.7902  -21.5020  -16.4074 C   0  0  1  0  0  0  0  0  0  0  0  0
   26.6788  -22.6279  -16.7705 C   0  0  0  0  0  0  0  0  0  0  0  0
   27.9183  -22.8316  -16.0024 C   0  0  0  0  0  0  0  0  0  0  0  0
   29.1664  -22.3344  -16.5398 C   0  0  0  0  0  0  0  0  0  0  0  0
   29.5978  -21.1676  -16.4778 O   0  0  0  0  0  0  0  0  0  0  0  0
   24.8347  -22.0231  -15.3487 C   0  0  0  0  0  0  0  0  0  0  0  0
   24.1990  -23.0471  -15.6412 O   0  0  0  0  0  0  0  0  0  0  0  0
   30.0051  -23.2474  -17.2107 O   0  0  0  0  0  0  0  0  0  0  0  0
   25.2535  -20.6690   -9.8925 N   0  0  0  0  0  0  0  0  0  0  0  0
   25.3864  -21.1935  -11.1972 C   0  0  0  0  0  0  0  0  0  0  0  0
   26.3558  -20.7191  -11.8865 O   0  0  0  0  0  0  0  0  0  0  0  0
   24.4867  -22.2214  -11.7639 C   0  0  0  0  0  0  0  0  0  0  0  0
   23.8676  -21.7637  -13.0547 C   0  0  2  0  0  0  0  0  0  0  0  0
   24.6749  -21.4020  -14.1270 N   0  0  0  0  0  0  0  0  0  0  0  0
   22.7057  -20.8747  -12.8980 C   0  0  0  0  0  0  0  0  0  0  0  0
   22.9209  -19.6328  -13.0328 O   0  0  0  0  0  0  0  0  0  0  0  0
   20.4597  -17.8648  -15.3168 N   0  0  0  0  0  0  0  0  0  0  0  0
   19.4542  -18.6981  -15.8692 C   0  0  0  0  0  0  0  0  0  0  0  0
   18.5522  -18.1438  -16.5638 O   0  0  0  0  0  0  0  0  0  0  0  0
   19.4719  -20.1488  -15.6449 C   0  0  0  0  0  0  0  0  0  0  0  0
   20.5405  -20.6907  -14.7798 C   0  0  0  0  0  0  0  0  0  0  0  0
   20.2745  -20.6291  -13.3229 C   0  0  2  0  0  0  0  0  0  0  0  0
   21.4027  -21.3015  -12.6158 N   0  0  0  0  0  0  0  0  0  0  0  0
   19.0450  -21.2789  -12.8975 C   0  0  0  0  0  0  0  0  0  0  0  0
   18.8800  -22.6679  -12.9407 O   0  0  0  0  0  0  0  0  0  0  0  0
   18.0486  -20.5951  -12.4709 O   0  0  0  0  0  0  0  0  0  0  0  0
  2  7  1  0
  2  1  1  1
  3  2  1  0
  4  3  1  0
  5  6  2  0
  5  4  1  0
  7  8  2  0
  9  5  1  0
 11 10  1  0
 11 13  1  0
 12 11  2  0
 14 13  1  1
 15 14  1  0
 15  7  1  0
 16 17  2  0
 16 14  1  0
 18 19  1  0
 19 20  2  0
 19 21  1  0
 21 22  1  0
 23 22  1  6
 23 24  1  0
 24 16  1  0
 25 23  1  0
 25 26  1  0
 27 25  2  0
M  END
$$$$
