WSC.pdb
     RDKit          3D

 27 28  0  0  1  0  0  0  0  0999 V2000
   15.9784  -16.5925    5.5294 N   0  0  0  0  0  0  0  0  0  0  0  0
   17.1809  -16.1159    6.1644 C   0  0  1  0  0  0  0  0  0  0  0  0
   16.9580  -14.7361    6.6939 C   0  0  0  0  0  0  0  0  0  0  0  0
   17.8553  -13.7184    6.0925 C   0  0  0  0  0  0  0  0  0  0  0  0
   17.6726  -13.0637    4.8710 C   0  0  0  0  0  0  0  0  0  0  0  0
   18.7056  -12.2461    4.6673 N   0  0  0  0  0  0  0  0  0  0  0  0
   19.5754  -12.3035    5.6705 C   0  0  0  0  0  0  0  0  0  0  0  0
   20.7595  -11.6463    5.8918 C   0  0  0  0  0  0  0  0  0  0  0  0
   21.4814  -11.8846    7.0423 C   0  0  0  0  0  0  0  0  0  0  0  0
   20.9721  -12.7951    7.9451 C   0  0  0  0  0  0  0  0  0  0  0  0
   19.7816  -13.4477    7.7089 C   0  0  0  0  0  0  0  0  0  0  0  0
   19.0492  -13.2239    6.5681 C   0  0  0  0  0  0  0  0  0  0  0  0
   17.5659  -17.0797    7.2218 C   0  0  0  0  0  0  0  0  0  0  0  0
   16.6926  -17.6085    7.9643 O   0  0  0  0  0  0  0  0  0  0  0  0
   18.9806  -20.1732    7.3284 O   0  0  0  0  0  0  0  0  0  0  0  0
   18.5033  -19.5824    8.4774 C   0  0  0  0  0  0  0  0  0  0  0  0
   19.2652  -18.2678    8.6718 C   0  0  2  0  0  0  0  0  0  0  0  0
   18.9085  -17.4768    7.4802 N   0  0  0  0  0  0  0  0  0  0  0  0
   20.7096  -18.4553    8.7779 C   0  0  0  0  0  0  0  0  0  0  0  0
   21.4715  -18.7025    7.8080 O   0  0  0  0  0  0  0  0  0  0  0  0
   21.3352  -18.3584   10.0488 N   0  0  0  0  0  0  0  0  0  0  0  0
   22.7608  -18.5666   10.2106 C   0  0  1  0  0  0  0  0  0  0  0  0
   23.4567  -17.3340   10.7329 C   0  0  0  0  0  0  0  0  0  0  0  0
   23.6125  -16.1680    9.3412 S   0  0  0  0  0  0  0  0  0  0  0  0
   22.9338  -19.6673   11.1916 C   0  0  0  0  0  0  0  0  0  0  0  0
   22.0209  -20.0109   12.0089 O   0  0  0  0  0  0  0  0  0  0  0  0
   24.1235  -20.4082   11.2849 O   0  0  0  0  0  0  0  0  0  0  0  0
  2  1  1  1
  2 13  1  0
  3  2  1  0
  4  5  2  0
  4  3  1  0
  6  5  1  0
  7 12  2  0
  7  6  1  0
  8  7  1  0
  9 10  1  0
  9  8  2  0
 10 11  2  0
 11 12  1  0
 12  4  1  0
 13 14  2  0
 17 16  1  6
 16 15  1  0
 18 17  1  0
 18 13  1  0
 19 20  2  0
 19 17  1  0
 21 19  1  0
 22 25  1  0
 22 21  1  0
 22 23  1  1
 24 23  1  0
 25 27  1  0
 26 25  2  0
M  END
$$$$
