WSC.pdb
     RDKit          3D

 27 28  0  0  1  0  0  0  0  0999 V2000
   22.9281  -21.0560  -14.8125 N   0  0  0  0  0  0  0  0  0  0  0  0
   23.1317  -20.2632  -13.6266 C   0  0  1  0  0  0  0  0  0  0  0  0
   22.5121  -18.9154  -13.8092 C   0  0  0  0  0  0  0  0  0  0  0  0
   23.1129  -18.1322  -14.9173 C   0  0  0  0  0  0  0  0  0  0  0  0
   22.4256  -17.3844  -15.8777 C   0  0  0  0  0  0  0  0  0  0  0  0
   23.3129  -16.8516  -16.7179 N   0  0  0  0  0  0  0  0  0  0  0  0
   24.5556  -17.1888  -16.3895 C   0  0  0  0  0  0  0  0  0  0  0  0
   25.7669  -16.8740  -16.9525 C   0  0  0  0  0  0  0  0  0  0  0  0
   26.9352  -17.3558  -16.4008 C   0  0  0  0  0  0  0  0  0  0  0  0
   26.8368  -18.1532  -15.2792 C   0  0  0  0  0  0  0  0  0  0  0  0
   25.6132  -18.4611  -14.7252 C   0  0  0  0  0  0  0  0  0  0  0  0
   24.4387  -17.9912  -15.2615 C   0  0  0  0  0  0  0  0  0  0  0  0
   22.5711  -20.9991  -12.4692 C   0  0  0  0  0  0  0  0  0  0  0  0
   21.6896  -21.8877  -12.6329 O   0  0  0  0  0  0  0  0  0  0  0  0
   23.2626  -19.9786   -8.5897 O   0  0  0  0  0  0  0  0  0  0  0  0
   23.5126  -21.3014   -8.8810 C   0  0  0  0  0  0  0  0  0  0  0  0
   22.5925  -21.7015  -10.0386 C   0  0  2  0  0  0  0  0  0  0  0  0
   22.9668  -20.7728  -11.1204 N   0  0  0  0  0  0  0  0  0  0  0  0
   21.1749  -21.5923   -9.7051 C   0  0  0  0  0  0  0  0  0  0  0  0
   20.4652  -20.5770   -9.9236 O   0  0  0  0  0  0  0  0  0  0  0  0
   20.5154  -22.6892   -9.0905 N   0  0  0  0  0  0  0  0  0  0  0  0
   19.1456  -22.5878   -8.6266 C   0  0  1  0  0  0  0  0  0  0  0  0
   18.1964  -23.3847   -9.4871 C   0  0  0  0  0  0  0  0  0  0  0  0
   17.1103  -24.3271   -8.3679 S   0  0  0  0  0  0  0  0  0  0  0  0
   19.1102  -23.1294   -7.2448 C   0  0  0  0  0  0  0  0  0  0  0  0
   20.0915  -23.7491   -6.7230 O   0  0  0  0  0  0  0  0  0  0  0  0
   17.9850  -22.9937   -6.4150 O   0  0  0  0  0  0  0  0  0  0  0  0
  2  1  1  6
  2 13  1  0
  3  2  1  0
  4  5  2  0
  4  3  1  0
  6  5  1  0
  7 12  2  0
  7  6  1  0
  8  7  1  0
  9 10  1  0
  9  8  2  0
 10 11  2  0
 11 12  1  0
 12  4  1  0
 13 14  2  0
 17 16  1  1
 16 15  1  0
 18 17  1  0
 18 13  1  0
 19 20  2  0
 19 17  1  0
 21 19  1  0
 22 25  1  0
 22 21  1  0
 22 23  1  6
 24 23  1  0
 25 27  1  0
 26 25  2  0
M  END
$$$$
