WSC.pdb
     RDKit          3D

 27 28  0  0  1  0  0  0  0  0999 V2000
   24.9462  -21.1806  -14.0495 N   0  0  0  0  0  0  0  0  0  0  0  0
   24.5686  -21.0125  -12.6690 C   0  0  1  0  0  0  0  0  0  0  0  0
   23.3117  -21.7733  -12.3944 C   0  0  0  0  0  0  0  0  0  0  0  0
   22.0800  -20.9617  -12.5582 C   0  0  0  0  0  0  0  0  0  0  0  0
   21.4314  -20.6645  -13.7602 C   0  0  0  0  0  0  0  0  0  0  0  0
   20.3798  -19.8889  -13.4964 N   0  0  0  0  0  0  0  0  0  0  0  0
   20.2731  -19.6419  -12.1950 C   0  0  0  0  0  0  0  0  0  0  0  0
   19.3607  -18.9120  -11.4752 C   0  0  0  0  0  0  0  0  0  0  0  0
   19.4722  -18.8194  -10.1039 C   0  0  0  0  0  0  0  0  0  0  0  0
   20.5207  -19.4796   -9.4971 C   0  0  0  0  0  0  0  0  0  0  0  0
   21.4295  -20.2085  -10.2331 C   0  0  0  0  0  0  0  0  0  0  0  0
   21.3351  -20.3113  -11.6000 C   0  0  0  0  0  0  0  0  0  0  0  0
   25.6998  -21.4491  -11.8175 C   0  0  0  0  0  0  0  0  0  0  0  0
   25.9961  -22.6716  -11.7122 O   0  0  0  0  0  0  0  0  0  0  0  0
   28.6130  -19.1509  -11.0089 O   0  0  0  0  0  0  0  0  0  0  0  0
   28.8497  -20.4665  -10.6767 C   0  0  0  0  0  0  0  0  0  0  0  0
   27.5419  -21.0475  -10.1302 C   0  0  2  0  0  0  0  0  0  0  0  0
   26.5198  -20.5557  -11.0716 N   0  0  0  0  0  0  0  0  0  0  0  0
   27.2574  -20.6251   -8.7614 C   0  0  0  0  0  0  0  0  0  0  0  0
   26.3814  -19.7811   -8.4413 O   0  0  0  0  0  0  0  0  0  0  0  0
   28.0005  -21.1848   -7.6889 N   0  0  0  0  0  0  0  0  0  0  0  0
   27.9757  -20.6004   -6.3623 C   0  0  1  0  0  0  0  0  0  0  0  0
   28.7966  -21.3967   -5.3781 C   0  0  0  0  0  0  0  0  0  0  0  0
   28.8026  -20.4754   -3.8059 S   0  0  0  0  0  0  0  0  0  0  0  0
   28.5509  -19.2365   -6.4741 C   0  0  0  0  0  0  0  0  0  0  0  0
   29.4740  -18.9441   -7.2998 O   0  0  0  0  0  0  0  0  0  0  0  0
   28.1127  -18.1700   -5.6717 O   0  0  0  0  0  0  0  0  0  0  0  0
  2  1  1  6
  2 13  1  0
  3  2  1  0
  4  5  2  0
  4  3  1  0
  6  5  1  0
  7 12  2  0
  7  6  1  0
  8  7  1  0
  9 10  1  0
  9  8  2  0
 10 11  2  0
 11 12  1  0
 12  4  1  0
 13 14  2  0
 17 16  1  6
 16 15  1  0
 18 17  1  0
 18 13  1  0
 19 20  2  0
 19 17  1  0
 21 19  1  0
 22 25  1  0
 22 21  1  0
 22 23  1  1
 24 23  1  0
 25 27  1  0
 26 25  2  0
M  END
$$$$
