WSC.pdb
     RDKit          3D

 27 28  0  0  1  0  0  0  0  0999 V2000
   27.5593  -19.7773  -10.6307 N   0  0  0  0  0  0  0  0  0  0  0  0
   26.7887  -20.9940  -10.6787 C   0  0  1  0  0  0  0  0  0  0  0  0
   26.1328  -21.2273   -9.3561 C   0  0  0  0  0  0  0  0  0  0  0  0
   26.8639  -20.6194   -8.2167 C   0  0  0  0  0  0  0  0  0  0  0  0
   26.4057  -19.5944   -7.3838 C   0  0  0  0  0  0  0  0  0  0  0  0
   27.3602  -19.3055   -6.4992 N   0  0  0  0  0  0  0  0  0  0  0  0
   28.4342  -20.0675   -6.6776 C   0  0  0  0  0  0  0  0  0  0  0  0
   29.6330  -20.1271   -6.0124 C   0  0  0  0  0  0  0  0  0  0  0  0
   30.5976  -21.0334   -6.3994 C   0  0  0  0  0  0  0  0  0  0  0  0
   30.3116  -21.8629   -7.4642 C   0  0  0  0  0  0  0  0  0  0  0  0
   29.1032  -21.7912   -8.1227 C   0  0  0  0  0  0  0  0  0  0  0  0
   28.1307  -20.8941   -7.7521 C   0  0  0  0  0  0  0  0  0  0  0  0
   25.8145  -20.8878  -11.7900 C   0  0  0  0  0  0  0  0  0  0  0  0
   25.3069  -19.7748  -12.1013 O   0  0  0  0  0  0  0  0  0  0  0  0
   24.3462  -24.1816  -13.6225 O   0  0  0  0  0  0  0  0  0  0  0  0
   24.5680  -23.1287  -14.4823 C   0  0  0  0  0  0  0  0  0  0  0  0
   24.4190  -21.8346  -13.6763 C   0  0  2  0  0  0  0  0  0  0  0  0
   25.3840  -21.9958  -12.5737 N   0  0  0  0  0  0  0  0  0  0  0  0
   23.0630  -21.6268  -13.1756 C   0  0  0  0  0  0  0  0  0  0  0  0
   22.5897  -22.1724  -12.1458 O   0  0  0  0  0  0  0  0  0  0  0  0
   22.1871  -20.7534  -13.8726 N   0  0  0  0  0  0  0  0  0  0  0  0
   20.8249  -20.5316  -13.4286 C   0  0  1  0  0  0  0  0  0  0  0  0
   20.2819  -19.2084  -13.9089 C   0  0  0  0  0  0  0  0  0  0  0  0
   21.1129  -17.9005  -12.9500 S   0  0  0  0  0  0  0  0  0  0  0  0
   19.9961  -21.6247  -13.9960 C   0  0  0  0  0  0  0  0  0  0  0  0
   20.1874  -22.1002  -15.1608 O   0  0  0  0  0  0  0  0  0  0  0  0
   18.9387  -22.2118  -13.2816 O   0  0  0  0  0  0  0  0  0  0  0  0
  2  1  1  1
  2 13  1  0
  3  2  1  0
  4  5  2  0
  4  3  1  0
  6  5  1  0
  7 12  2  0
  7  6  1  0
  8  7  1  0
  9 10  1  0
  9  8  2  0
 10 11  2  0
 11 12  1  0
 12  4  1  0
 13 14  2  0
 17 16  1  6
 16 15  1  0
 18 17  1  0
 18 13  1  0
 19 20  2  0
 19 17  1  0
 21 19  1  0
 22 25  1  0
 22 21  1  0
 22 23  1  6
 24 23  1  0
 25 27  1  0
 26 25  2  0
M  END
$$$$
