WSC.pdb
     RDKit          3D

 27 28  0  0  1  0  0  0  0  0999 V2000
   26.4658  -21.9514  -12.9302 N   0  0  0  0  0  0  0  0  0  0  0  0
   25.6820  -21.4268  -11.8408 C   0  0  1  0  0  0  0  0  0  0  0  0
   26.3952  -20.2700  -11.2187 C   0  0  0  0  0  0  0  0  0  0  0  0
   27.5692  -20.6671  -10.4023 C   0  0  0  0  0  0  0  0  0  0  0  0
   28.8138  -21.0864  -10.8810 C   0  0  0  0  0  0  0  0  0  0  0  0
   29.5931  -21.3816   -9.8405 N   0  0  0  0  0  0  0  0  0  0  0  0
   28.9584  -21.1893   -8.6888 C   0  0  0  0  0  0  0  0  0  0  0  0
   29.3589  -21.3527   -7.3865 C   0  0  0  0  0  0  0  0  0  0  0  0
   28.4919  -21.0684   -6.3525 C   0  0  0  0  0  0  0  0  0  0  0  0
   27.2279  -20.6207   -6.6768 C   0  0  0  0  0  0  0  0  0  0  0  0
   26.8397  -20.4618   -7.9894 C   0  0  0  0  0  0  0  0  0  0  0  0
   27.6893  -20.7409   -9.0327 C   0  0  0  0  0  0  0  0  0  0  0  0
   24.3432  -21.0619  -12.3601 C   0  0  0  0  0  0  0  0  0  0  0  0
   24.1365  -19.9292  -12.8774 O   0  0  0  0  0  0  0  0  0  0  0  0
   22.7811  -22.4843  -14.8748 O   0  0  0  0  0  0  0  0  0  0  0  0
   22.2400  -21.3161  -14.3852 C   0  0  0  0  0  0  0  0  0  0  0  0
   21.9191  -21.5407  -12.9043 C   0  0  2  0  0  0  0  0  0  0  0  0
   23.2153  -21.9298  -12.3202 N   0  0  0  0  0  0  0  0  0  0  0  0
   20.9042  -22.5686  -12.6895 C   0  0  0  0  0  0  0  0  0  0  0  0
   21.0849  -23.8003  -12.8699 O   0  0  0  0  0  0  0  0  0  0  0  0
   19.6099  -22.1904  -12.2449 N   0  0  0  0  0  0  0  0  0  0  0  0
   18.5820  -23.1766  -11.9752 C   0  0  1  0  0  0  0  0  0  0  0  0
   17.6885  -22.7640  -10.8315 C   0  0  0  0  0  0  0  0  0  0  0  0
   18.7396  -22.6063   -9.3513 S   0  0  0  0  0  0  0  0  0  0  0  0
   17.7605  -23.3002  -13.2054 C   0  0  0  0  0  0  0  0  0  0  0  0
   16.8525  -24.1814  -13.3413 O   0  0  0  0  0  0  0  0  0  0  0  0
   17.9306  -22.4482  -14.3092 O   0  0  0  0  0  0  0  0  0  0  0  0
  2  1  1  6
  2 13  1  0
  3  2  1  0
  4  5  2  0
  4  3  1  0
  6  5  1  0
  7 12  2  0
  7  6  1  0
  8  7  1  0
  9 10  1  0
  9  8  2  0
 10 11  2  0
 11 12  1  0
 12  4  1  0
 13 14  2  0
 17 16  1  6
 16 15  1  0
 18 17  1  0
 18 13  1  0
 19 20  2  0
 19 17  1  0
 21 19  1  0
 22 25  1  0
 22 21  1  0
 22 23  1  1
 24 23  1  0
 25 27  1  0
 26 25  2  0
M  END
$$$$
