WSC.pdb
     RDKit          3D

 27 28  0  0  1  0  0  0  0  0999 V2000
   16.2026  -16.8753    7.5951 N   0  0  0  0  0  0  0  0  0  0  0  0
   17.6189  -16.6109    7.6225 C   0  0  1  0  0  0  0  0  0  0  0  0
   17.8664  -15.1629    7.3474 C   0  0  0  0  0  0  0  0  0  0  0  0
   17.8602  -14.8247    5.9024 C   0  0  0  0  0  0  0  0  0  0  0  0
   17.1655  -15.4963    4.8922 C   0  0  0  0  0  0  0  0  0  0  0  0
   17.4365  -14.9095    3.7262 N   0  0  0  0  0  0  0  0  0  0  0  0
   18.2683  -13.8846    3.8804 C   0  0  0  0  0  0  0  0  0  0  0  0
   18.8073  -13.0017    2.9786 C   0  0  0  0  0  0  0  0  0  0  0  0
   19.6543  -12.0015    3.4075 C   0  0  0  0  0  0  0  0  0  0  0  0
   19.9317  -11.9272    4.7569 C   0  0  0  0  0  0  0  0  0  0  0  0
   19.3831  -12.8213    5.6506 C   0  0  0  0  0  0  0  0  0  0  0  0
   18.5382  -13.8248    5.2418 C   0  0  0  0  0  0  0  0  0  0  0  0
   18.1508  -17.0433    8.9361 C   0  0  0  0  0  0  0  0  0  0  0  0
   17.7770  -16.4805   10.0024 O   0  0  0  0  0  0  0  0  0  0  0  0
   19.4273  -20.5552    9.7403 O   0  0  0  0  0  0  0  0  0  0  0  0
   19.2893  -19.7083   10.8177 C   0  0  0  0  0  0  0  0  0  0  0  0
   19.7828  -18.3245   10.3840 C   0  0  2  0  0  0  0  0  0  0  0  0
   19.0967  -18.0947    9.0998 N   0  0  0  0  0  0  0  0  0  0  0  0
   21.2341  -18.2565   10.2359 C   0  0  0  0  0  0  0  0  0  0  0  0
   21.8591  -18.5389    9.1814 O   0  0  0  0  0  0  0  0  0  0  0  0
   22.0303  -17.8461   11.3374 N   0  0  0  0  0  0  0  0  0  0  0  0
   23.4770  -17.8033   11.2538 C   0  0  1  0  0  0  0  0  0  0  0  0
   24.0485  -16.5945   11.9529 C   0  0  0  0  0  0  0  0  0  0  0  0
   23.9251  -15.1907   10.7975 S   0  0  0  0  0  0  0  0  0  0  0  0
   23.9902  -19.0283   11.9170 C   0  0  0  0  0  0  0  0  0  0  0  0
   23.2564  -19.7827   12.6324 O   0  0  0  0  0  0  0  0  0  0  0  0
   25.3279  -19.4401   11.7993 O   0  0  0  0  0  0  0  0  0  0  0  0
  2  1  1  1
  2 13  1  0
  3  2  1  0
  4  5  2  0
  4  3  1  0
  6  5  1  0
  7 12  2  0
  7  6  1  0
  8  7  1  0
  9 10  1  0
  9  8  2  0
 10 11  2  0
 11 12  1  0
 12  4  1  0
 13 14  2  0
 17 16  1  6
 16 15  1  0
 18 17  1  0
 18 13  1  0
 19 20  2  0
 19 17  1  0
 21 19  1  0
 22 25  1  0
 22 21  1  0
 22 23  1  1
 24 23  1  0
 25 27  1  0
 26 25  2  0
M  END
$$$$
