WSC.pdb
     RDKit          3D

 27 28  0  0  1  0  0  0  0  0999 V2000
   20.5031  -13.4396  -15.9811 N   0  0  0  0  0  0  0  0  0  0  0  0
   20.5743  -12.3225  -16.8886 C   0  0  1  0  0  0  0  0  0  0  0  0
   19.3987  -12.3474  -17.8111 C   0  0  0  0  0  0  0  0  0  0  0  0
   19.3518  -13.5504  -18.6790 C   0  0  0  0  0  0  0  0  0  0  0  0
   18.4851  -14.6394  -18.5480 C   0  0  0  0  0  0  0  0  0  0  0  0
   18.7723  -15.5291  -19.4983 N   0  0  0  0  0  0  0  0  0  0  0  0
   19.7758  -15.1142  -20.2645 C   0  0  0  0  0  0  0  0  0  0  0  0
   20.3951  -15.6855  -21.3476 C   0  0  0  0  0  0  0  0  0  0  0  0
   21.4280  -15.0290  -21.9831 C   0  0  0  0  0  0  0  0  0  0  0  0
   21.8054  -13.7959  -21.4929 C   0  0  0  0  0  0  0  0  0  0  0  0
   21.1742  -13.2348  -20.4039 C   0  0  0  0  0  0  0  0  0  0  0  0
   20.1442  -13.8743  -19.7574 C   0  0  0  0  0  0  0  0  0  0  0  0
   20.6504  -11.0757  -16.0917 C   0  0  0  0  0  0  0  0  0  0  0  0
   19.9380  -10.9221  -15.0610 O   0  0  0  0  0  0  0  0  0  0  0  0
   23.4193   -8.1819  -16.8270 O   0  0  0  0  0  0  0  0  0  0  0  0
   22.9155   -8.2915  -15.5497 C   0  0  0  0  0  0  0  0  0  0  0  0
   21.4471   -8.7122  -15.6668 C   0  0  2  0  0  0  0  0  0  0  0  0
   21.5052   -9.9830  -16.4114 N   0  0  0  0  0  0  0  0  0  0  0  0
   20.6233   -7.7236  -16.3572 C   0  0  0  0  0  0  0  0  0  0  0  0
   20.4147   -7.7077  -17.5975 O   0  0  0  0  0  0  0  0  0  0  0  0
   19.9960   -6.6923  -15.6097 N   0  0  0  0  0  0  0  0  0  0  0  0
   19.1166   -5.7266  -16.2389 C   0  0  1  0  0  0  0  0  0  0  0  0
   18.0317   -5.2552  -15.3023 C   0  0  0  0  0  0  0  0  0  0  0  0
   17.0373   -6.7126  -14.8464 S   0  0  0  0  0  0  0  0  0  0  0  0
   19.9521   -4.5633  -16.6295 C   0  0  0  0  0  0  0  0  0  0  0  0
   19.4792   -3.5478  -17.2332 O   0  0  0  0  0  0  0  0  0  0  0  0
   21.3289   -4.5042  -16.3576 O   0  0  0  0  0  0  0  0  0  0  0  0
  2  1  1  1
  2 13  1  0
  3  2  1  0
  4  5  2  0
  4  3  1  0
  6  5  1  0
  7 12  2  0
  7  6  1  0
  8  7  1  0
  9 10  1  0
  9  8  2  0
 10 11  2  0
 11 12  1  0
 12  4  1  0
 13 14  2  0
 17 16  1  6
 16 15  1  0
 18 17  1  0
 18 13  1  0
 19 20  2  0
 19 17  1  0
 21 19  1  0
 22 25  1  0
 22 21  1  0
 22 23  1  1
 24 23  1  0
 25 27  1  0
 26 25  2  0
M  END
$$$$
