WSC.pdb
     RDKit          3D

 27 28  0  0  1  0  0  0  0  0999 V2000
   27.3615  -21.7213  -11.1003 N   0  0  0  0  0  0  0  0  0  0  0  0
   26.2638  -21.1566  -11.8436 C   0  0  1  0  0  0  0  0  0  0  0  0
   25.7140  -19.9756  -11.1109 C   0  0  0  0  0  0  0  0  0  0  0  0
   24.9801  -20.3357   -9.8724 C   0  0  0  0  0  0  0  0  0  0  0  0
   25.4839  -20.3138   -8.5686 C   0  0  0  0  0  0  0  0  0  0  0  0
   24.5301  -20.7314   -7.7362 N   0  0  0  0  0  0  0  0  0  0  0  0
   23.4135  -21.0342   -8.3901 C   0  0  0  0  0  0  0  0  0  0  0  0
   22.1944  -21.4894   -7.9546 C   0  0  0  0  0  0  0  0  0  0  0  0
   21.1773  -21.7216   -8.8563 C   0  0  0  0  0  0  0  0  0  0  0  0
   21.4325  -21.4811  -10.1907 C   0  0  0  0  0  0  0  0  0  0  0  0
   22.6620  -21.0243  -10.6132 C   0  0  0  0  0  0  0  0  0  0  0  0
   23.6875  -20.7884   -9.7297 C   0  0  0  0  0  0  0  0  0  0  0  0
   26.7453  -20.8140  -13.2024 C   0  0  0  0  0  0  0  0  0  0  0  0
   27.7819  -20.1120  -13.3636 O   0  0  0  0  0  0  0  0  0  0  0  0
   26.2062  -22.8362  -16.4272 O   0  0  0  0  0  0  0  0  0  0  0  0
   27.0434  -21.7453  -16.5074 C   0  0  0  0  0  0  0  0  0  0  0  0
   26.4031  -20.6112  -15.7010 C   0  0  2  0  0  0  0  0  0  0  0  0
   26.1002  -21.2343  -14.4000 N   0  0  0  0  0  0  0  0  0  0  0  0
   25.2005  -20.0718  -16.3299 C   0  0  0  0  0  0  0  0  0  0  0  0
   24.0276  -20.4391  -16.0621 O   0  0  0  0  0  0  0  0  0  0  0  0
   25.3228  -19.0591  -17.3175 N   0  0  0  0  0  0  0  0  0  0  0  0
   24.1613  -18.5110  -17.9902 C   0  0  1  0  0  0  0  0  0  0  0  0
   24.4882  -17.2440  -18.7413 C   0  0  0  0  0  0  0  0  0  0  0  0
   22.9100  -16.5117  -19.2830 S   0  0  0  0  0  0  0  0  0  0  0  0
   23.6921  -19.5348  -18.9574 C   0  0  0  0  0  0  0  0  0  0  0  0
   24.4876  -20.3043  -19.5854 O   0  0  0  0  0  0  0  0  0  0  0  0
   22.3307  -19.7246  -19.2467 O   0  0  0  0  0  0  0  0  0  0  0  0
  2  1  1  1
  2 13  1  0
  3  2  1  0
  4  5  2  0
  4  3  1  0
  6  5  1  0
  7 12  2  0
  7  6  1  0
  8  7  1  0
  9 10  1  0
  9  8  2  0
 10 11  2  0
 11 12  1  0
 12  4  1  0
 13 14  2  0
 17 16  1  6
 16 15  1  0
 18 17  1  0
 18 13  1  0
 19 20  2  0
 19 17  1  0
 21 19  1  0
 22 25  1  0
 22 21  1  0
 22 23  1  6
 24 23  1  0
 25 27  1  0
 26 25  2  0
M  END
$$$$
