WSC.pdb
     RDKit          3D

 27 28  0  0  1  0  0  0  0  0999 V2000
   15.0988  -23.5680   -3.0492 N   0  0  0  0  0  0  0  0  0  0  0  0
   14.4166  -22.4925   -2.3753 C   0  0  1  0  0  0  0  0  0  0  0  0
   12.9735  -22.4892   -2.7644 C   0  0  0  0  0  0  0  0  0  0  0  0
   12.7311  -21.9802   -4.1372 C   0  0  0  0  0  0  0  0  0  0  0  0
   12.7067  -22.7347   -5.3137 C   0  0  0  0  0  0  0  0  0  0  0  0
   12.4874  -21.9144   -6.3414 N   0  0  0  0  0  0  0  0  0  0  0  0
   12.3612  -20.6543   -5.9383 C   0  0  0  0  0  0  0  0  0  0  0  0
   12.1254  -19.4929   -6.6302 C   0  0  0  0  0  0  0  0  0  0  0  0
   12.0274  -18.2924   -5.9589 C   0  0  0  0  0  0  0  0  0  0  0  0
   12.1736  -18.3080   -4.5871 C   0  0  0  0  0  0  0  0  0  0  0  0
   12.4105  -19.4822   -3.9059 C   0  0  0  0  0  0  0  0  0  0  0  0
   12.5122  -20.6875   -4.5577 C   0  0  0  0  0  0  0  0  0  0  0  0
   14.6157  -22.6531   -0.9159 C   0  0  0  0  0  0  0  0  0  0  0  0
   14.4100  -23.7642   -0.3532 O   0  0  0  0  0  0  0  0  0  0  0  0
   16.0861  -19.7325    0.7908 O   0  0  0  0  0  0  0  0  0  0  0  0
   15.7655  -20.4845    1.8994 C   0  0  0  0  0  0  0  0  0  0  0  0
   15.1216  -21.7839    1.4058 C   0  0  2  0  0  0  0  0  0  0  0  0
   15.0415  -21.6023   -0.0548 N   0  0  0  0  0  0  0  0  0  0  0  0
   13.8047  -22.0259    1.9888 C   0  0  0  0  0  0  0  0  0  0  0  0
   12.7229  -21.5917    1.5161 O   0  0  0  0  0  0  0  0  0  0  0  0
   13.6967  -22.8024    3.1725 N   0  0  0  0  0  0  0  0  0  0  0  0
   12.4217  -23.0086    3.8310 C   0  0  1  0  0  0  0  0  0  0  0  0
   12.1760  -24.4639    4.1449 C   0  0  0  0  0  0  0  0  0  0  0  0
   10.5908  -24.5663    5.0377 S   0  0  0  0  0  0  0  0  0  0  0  0
   12.4568  -22.2429    5.1023 C   0  0  0  0  0  0  0  0  0  0  0  0
   11.4065  -21.8017    5.6695 O   0  0  0  0  0  0  0  0  0  0  0  0
   13.6583  -21.9518    5.7692 O   0  0  0  0  0  0  0  0  0  0  0  0
  2  1  1  6
  2 13  1  0
  3  2  1  0
  4  5  2  0
  4  3  1  0
  6  5  1  0
  7 12  2  0
  7  6  1  0
  8  7  1  0
  9 10  1  0
  9  8  2  0
 10 11  2  0
 11 12  1  0
 12  4  1  0
 13 14  2  0
 17 16  1  1
 16 15  1  0
 18 17  1  0
 18 13  1  0
 19 20  2  0
 19 17  1  0
 21 19  1  0
 22 25  1  0
 22 21  1  0
 22 23  1  1
 24 23  1  0
 25 27  1  0
 26 25  2  0
M  END
$$$$
