WSC.pdb
     RDKit          3D

 27 28  0  0  1  0  0  0  0  0999 V2000
   26.4551  -22.5287  -12.8305 N   0  0  0  0  0  0  0  0  0  0  0  0
   25.6642  -21.6800  -11.9757 C   0  0  1  0  0  0  0  0  0  0  0  0
   26.3768  -20.3853  -11.7527 C   0  0  0  0  0  0  0  0  0  0  0  0
   27.5372  -20.4982  -10.8344 C   0  0  0  0  0  0  0  0  0  0  0  0
   28.8616  -20.7646  -11.1936 C   0  0  0  0  0  0  0  0  0  0  0  0
   29.6015  -20.8154  -10.0858 N   0  0  0  0  0  0  0  0  0  0  0  0
   28.8656  -20.6004   -9.0003 C   0  0  0  0  0  0  0  0  0  0  0  0
   29.1936  -20.5531   -7.6687 C   0  0  0  0  0  0  0  0  0  0  0  0
   28.2230  -20.2978   -6.7230 C   0  0  0  0  0  0  0  0  0  0  0  0
   26.9316  -20.0953   -7.1643 C   0  0  0  0  0  0  0  0  0  0  0  0
   26.6171  -20.1461   -8.5050 C   0  0  0  0  0  0  0  0  0  0  0  0
   27.5705  -20.4002   -9.4614 C   0  0  0  0  0  0  0  0  0  0  0  0
   24.3314  -21.5003  -12.5977 C   0  0  0  0  0  0  0  0  0  0  0  0
   24.1606  -21.7037  -13.8317 O   0  0  0  0  0  0  0  0  0  0  0  0
   21.1968  -19.7695  -10.6564 O   0  0  0  0  0  0  0  0  0  0  0  0
   20.8750  -20.9219  -11.3388 C   0  0  0  0  0  0  0  0  0  0  0  0
   21.8437  -21.0458  -12.5190 C   0  0  2  0  0  0  0  0  0  0  0  0
   23.1706  -21.0964  -11.8791 N   0  0  0  0  0  0  0  0  0  0  0  0
   21.7440  -19.9325  -13.4589 C   0  0  0  0  0  0  0  0  0  0  0  0
   22.2708  -18.8032  -13.2878 O   0  0  0  0  0  0  0  0  0  0  0  0
   21.0096  -20.0981  -14.6627 N   0  0  0  0  0  0  0  0  0  0  0  0
   20.8668  -19.0180  -15.6191 C   0  0  1  0  0  0  0  0  0  0  0  0
   20.8609  -19.5196  -17.0421 C   0  0  0  0  0  0  0  0  0  0  0  0
   22.5038  -20.2355  -17.3720 S   0  0  0  0  0  0  0  0  0  0  0  0
   19.5689  -18.3541  -15.3390 C   0  0  0  0  0  0  0  0  0  0  0  0
   18.6952  -18.8518  -14.5590 O   0  0  0  0  0  0  0  0  0  0  0  0
   19.2152  -17.1246  -15.9190 O   0  0  0  0  0  0  0  0  0  0  0  0
  2  1  1  6
  2 13  1  0
  3  2  1  0
  4  5  2  0
  4  3  1  0
  6  5  1  0
  7 12  2  0
  7  6  1  0
  8  7  1  0
  9 10  1  0
  9  8  2  0
 10 11  2  0
 11 12  1  0
 12  4  1  0
 13 14  2  0
 17 16  1  1
 16 15  1  0
 18 17  1  0
 18 13  1  0
 19 20  2  0
 19 17  1  0
 21 19  1  0
 22 25  1  0
 22 21  1  0
 22 23  1  6
 24 23  1  0
 25 27  1  0
 26 25  2  0
M  END
$$$$
