CRT.pdb
     RDKit          3D

 25 24  0  0  1  0  0  0  0  0999 V2000
   27.2664  -20.6841  -13.0183 N   0  0  0  0  0  0  0  0  0  0  0  0
   25.9760  -21.3344  -12.6951 C   0  0  1  0  0  0  0  0  0  0  0  0
   26.0096  -21.6989  -11.2542 C   0  0  0  0  0  0  0  0  0  0  0  0
   27.4475  -22.6558  -10.7385 S   0  0  0  0  0  0  0  0  0  0  0  0
   24.8634  -20.5119  -13.1608 C   0  0  0  0  0  0  0  0  0  0  0  0
   24.7937  -19.3053  -12.7751 O   0  0  0  0  0  0  0  0  0  0  0  0
   23.4395  -17.2284  -20.3404 N   0  0  0  0  0  0  0  0  0  0  0  0
   22.0666  -17.2061  -19.8982 C   0  0  0  0  0  0  0  0  0  0  0  0
   21.1497  -16.7089  -20.6457 N   0  0  0  0  0  0  0  0  0  0  0  0
   21.6941  -17.7247  -18.6340 N   0  0  0  0  0  0  0  0  0  0  0  0
   22.6854  -18.1486  -17.6919 C   0  0  0  0  0  0  0  0  0  0  0  0
   22.0661  -18.6049  -16.3711 C   0  0  0  0  0  0  0  0  0  0  0  0
   23.0687  -19.5291  -15.7383 C   0  0  0  0  0  0  0  0  0  0  0  0
   22.7215  -20.0897  -14.4137 C   0  0  2  0  0  0  0  0  0  0  0  0
   23.8525  -20.9516  -14.0194 N   0  0  0  0  0  0  0  0  0  0  0  0
   21.4673  -20.8370  -14.4461 C   0  0  0  0  0  0  0  0  0  0  0  0
   21.3861  -21.8826  -15.1453 O   0  0  0  0  0  0  0  0  0  0  0  0
   20.1727  -16.6321  -20.3228 C   0  0  0  0  0  0  0  0  0  0  0  0
   19.6566  -23.2196  -12.4027 C   0  0  2  0  0  0  0  0  0  0  0  0
   18.6873  -22.0646  -12.6603 O   0  0  0  0  0  0  0  0  0  0  0  0
   18.6006  -21.2578  -11.5159 C   0  0  2  0  0  0  0  0  0  0  0  0
   19.0627  -21.2791  -13.8698 N   0  0  0  0  0  0  0  0  0  0  0  0
   20.2682  -20.4985  -13.7446 C   0  0  0  0  0  0  0  0  0  0  0  0
   17.8837  -20.3832  -14.1588 O   0  0  0  0  0  0  0  0  0  0  0  0
   16.6260  -20.8412  -14.3945 O   0  0  0  0  0  0  0  0  0  0  0  0
  2  1  1  1
  2  3  1  0
  2  5  1  0
  4  3  1  0
  5  6  2  0
  7  8  1  0
  8 10  1  0
  8  9  2  0
 10 11  1  0
 11 12  1  0
 12 13  1  0
 14 13  1  6
 15 14  1  0
 15  5  1  0
 16 14  1  0
 16 17  2  0
 19 18  1  1
 19 21  1  0
 20 19  1  0
 21 22  1  6
 21 23  1  0
 22 16  1  0
 23 24  1  0
 25 23  2  0
M  END
$$$$
