CRT.pdb
     RDKit          3D

 25 24  0  0  1  0  0  0  0  0999 V2000
   22.4733  -12.4345  -18.0069 N   0  0  0  0  0  0  0  0  0  0  0  0
   22.8462  -11.6296  -16.8214 C   0  0  1  0  0  0  0  0  0  0  0  0
   24.3167  -11.4169  -16.8722 C   0  0  0  0  0  0  0  0  0  0  0  0
   25.0548  -10.7963  -15.3494 S   0  0  0  0  0  0  0  0  0  0  0  0
   21.9931  -10.4491  -16.7217 C   0  0  0  0  0  0  0  0  0  0  0  0
   21.7727   -9.7658  -17.7677 O   0  0  0  0  0  0  0  0  0  0  0  0
   14.3562  -10.9391  -15.0712 N   0  0  0  0  0  0  0  0  0  0  0  0
   15.4142  -11.8588  -14.7310 C   0  0  0  0  0  0  0  0  0  0  0  0
   15.1838  -13.1191  -14.6598 N   0  0  0  0  0  0  0  0  0  0  0  0
   16.7274  -11.4004  -14.4637 N   0  0  0  0  0  0  0  0  0  0  0  0
   17.0707  -10.0194  -14.6211 C   0  0  0  0  0  0  0  0  0  0  0  0
   18.2481   -9.8242  -15.5759 C   0  0  0  0  0  0  0  0  0  0  0  0
   19.3207   -9.1354  -14.7793 C   0  0  0  0  0  0  0  0  0  0  0  0
   20.5642   -8.7776  -15.4971 C   0  0  2  0  0  0  0  0  0  0  0  0
   21.3817  -10.0050  -15.5464 N   0  0  0  0  0  0  0  0  0  0  0  0
   21.2800   -7.6856  -14.8431 C   0  0  0  0  0  0  0  0  0  0  0  0
   21.8562   -7.8935  -13.7414 O   0  0  0  0  0  0  0  0  0  0  0  0
   15.9351  -13.7941  -14.4491 C   0  0  0  0  0  0  0  0  0  0  0  0
   24.3982   -5.5710  -15.8332 C   0  0  2  0  0  0  0  0  0  0  0  0
   23.2103   -4.6649  -15.5045 O   0  0  0  0  0  0  0  0  0  0  0  0
   22.6504   -4.1721  -16.6925 C   0  0  2  0  0  0  0  0  0  0  0  0
   22.1990   -5.3554  -14.6551 N   0  0  0  0  0  0  0  0  0  0  0  0
   21.4033   -6.3481  -15.3332 C   0  0  0  0  0  0  0  0  0  0  0  0
   21.3174   -4.2647  -14.0992 O   0  0  0  0  0  0  0  0  0  0  0  0
   19.9928   -4.1465  -14.3800 O   0  0  0  0  0  0  0  0  0  0  0  0
  2  1  1  6
  2  3  1  0
  2  5  1  0
  4  3  1  0
  5  6  2  0
  7  8  1  0
  8 10  1  0
  8  9  2  0
 10 11  1  0
 11 12  1  0
 12 13  1  0
 14 13  1  1
 15 14  1  0
 15  5  1  0
 16 14  1  0
 16 17  2  0
 19 18  1  1
 19 21  1  0
 20 19  1  0
 21 22  1  1
 21 23  1  0
 22 16  1  0
 23 24  1  0
 25 23  2  0
M  END
$$$$
