CRT.pdb
     RDKit          3D

 25 24  0  0  1  0  0  0  0  0999 V2000
   25.5684  -22.8240  -11.6911 N   0  0  0  0  0  0  0  0  0  0  0  0
   25.2621  -21.3776  -11.7713 C   0  0  1  0  0  0  0  0  0  0  0  0
   26.2703  -20.6624  -10.9454 C   0  0  0  0  0  0  0  0  0  0  0  0
   25.6814  -20.0918   -9.3402 S   0  0  0  0  0  0  0  0  0  0  0  0
   25.1127  -20.9679  -13.1645 C   0  0  0  0  0  0  0  0  0  0  0  0
   25.9939  -21.3269  -14.0037 O   0  0  0  0  0  0  0  0  0  0  0  0
   20.7826  -24.0274  -14.1995 N   0  0  0  0  0  0  0  0  0  0  0  0
   19.6662  -23.1783  -13.8624 C   0  0  0  0  0  0  0  0  0  0  0  0
   18.7924  -23.5615  -13.0044 N   0  0  0  0  0  0  0  0  0  0  0  0
   19.5010  -21.9084  -14.4674 N   0  0  0  0  0  0  0  0  0  0  0  0
   20.5088  -21.3671  -15.3282 C   0  0  0  0  0  0  0  0  0  0  0  0
   21.7167  -20.8510  -14.5468 C   0  0  0  0  0  0  0  0  0  0  0  0
   22.6556  -20.2699  -15.5668 C   0  0  0  0  0  0  0  0  0  0  0  0
   23.9692  -19.7970  -15.0769 C   0  0  2  0  0  0  0  0  0  0  0  0
   24.0539  -20.2030  -13.6608 N   0  0  0  0  0  0  0  0  0  0  0  0
   24.1232  -18.3527  -15.2278 C   0  0  0  0  0  0  0  0  0  0  0  0
   23.5897  -17.5805  -14.3863 O   0  0  0  0  0  0  0  0  0  0  0  0
   18.0485  -22.9284  -12.6721 C   0  0  0  0  0  0  0  0  0  0  0  0
   26.8776  -15.8286  -14.8182 C   0  0  2  0  0  0  0  0  0  0  0  0
   26.3139  -15.6987  -16.2343 O   0  0  0  0  0  0  0  0  0  0  0  0
   27.1915  -16.3010  -17.1480 C   0  0  2  0  0  0  0  0  0  0  0  0
   24.9336  -16.2507  -16.3391 N   0  0  0  0  0  0  0  0  0  0  0  0
   24.8407  -17.6877  -16.2707 C   0  0  0  0  0  0  0  0  0  0  0  0
   24.3913  -15.7508  -17.6551 O   0  0  0  0  0  0  0  0  0  0  0  0
   24.1979  -14.4366  -17.9429 O   0  0  0  0  0  0  0  0  0  0  0  0
  2  1  1  6
  2  3  1  0
  2  5  1  0
  4  3  1  0
  5  6  2  0
  7  8  1  0
  8 10  1  0
  8  9  2  0
 10 11  1  0
 11 12  1  0
 12 13  1  0
 14 13  1  1
 15 14  1  0
 15  5  1  0
 16 14  1  0
 16 17  2  0
 19 18  1  6
 19 21  1  0
 20 19  1  0
 21 22  1  6
 21 23  1  0
 22 16  1  0
 23 24  1  0
 25 23  2  0
M  END
$$$$
