CRT.pdb
     RDKit          3D

 25 24  0  0  1  0  0  0  0  0999 V2000
   27.3217  -23.4160  -16.8573 N   0  0  0  0  0  0  0  0  0  0  0  0
   27.2930  -22.0640  -16.2542 C   0  0  1  0  0  0  0  0  0  0  0  0
   27.2260  -21.0811  -17.3676 C   0  0  0  0  0  0  0  0  0  0  0  0
   28.7692  -20.8329  -18.2654 S   0  0  0  0  0  0  0  0  0  0  0  0
   26.2629  -21.9912  -15.2223 C   0  0  0  0  0  0  0  0  0  0  0  0
   25.1847  -22.6386  -15.3901 O   0  0  0  0  0  0  0  0  0  0  0  0
   22.5261  -21.0130   -8.6917 N   0  0  0  0  0  0  0  0  0  0  0  0
   23.7230  -21.1163   -7.8932 C   0  0  0  0  0  0  0  0  0  0  0  0
   23.6883  -21.6704   -6.7364 N   0  0  0  0  0  0  0  0  0  0  0  0
   24.9612  -20.6092   -8.3577 N   0  0  0  0  0  0  0  0  0  0  0  0
   25.0771  -20.0341   -9.6637 C   0  0  0  0  0  0  0  0  0  0  0  0
   25.7068  -21.0021  -10.6650 C   0  0  0  0  0  0  0  0  0  0  0  0
   25.7408  -20.2766  -11.9810 C   0  0  0  0  0  0  0  0  0  0  0  0
   25.2147  -21.0000  -13.1597 C   0  0  2  0  0  0  0  0  0  0  0  0
   26.3720  -21.2577  -14.0381 N   0  0  0  0  0  0  0  0  0  0  0  0
   24.1782  -20.2395  -13.8523 C   0  0  0  0  0  0  0  0  0  0  0  0
   24.4615  -19.1176  -14.3524 O   0  0  0  0  0  0  0  0  0  0  0  0
   24.5266  -21.7216   -6.1371 C   0  0  0  0  0  0  0  0  0  0  0  0
   20.8666  -21.7100  -16.0488 C   0  0  2  0  0  0  0  0  0  0  0  0
   21.4916  -20.3147  -16.0961 O   0  0  0  0  0  0  0  0  0  0  0  0
   20.6231  -19.4311  -16.7541 C   0  0  1  0  0  0  0  0  0  0  0  0
   21.8653  -19.8234  -14.7397 N   0  0  0  0  0  0  0  0  0  0  0  0
   22.8179  -20.6418  -14.0318 C   0  0  0  0  0  0  0  0  0  0  0  0
   20.5732  -19.7323  -13.9665 O   0  0  0  0  0  0  0  0  0  0  0  0
   20.3258  -20.4243  -12.8231 O   0  0  0  0  0  0  0  0  0  0  0  0
  2  1  1  6
  2  3  1  0
  2  5  1  0
  4  3  1  0
  5  6  2  0
  7  8  1  0
  8 10  1  0
  8  9  2  0
 10 11  1  0
 11 12  1  0
 12 13  1  0
 14 13  1  1
 15 14  1  0
 15  5  1  0
 16 14  1  0
 16 17  2  0
 19 18  1  6
 19 21  1  0
 20 19  1  0
 21 22  1  6
 21 23  1  0
 22 16  1  0
 23 24  1  0
 25 23  2  0
M  END
$$$$
