CRT.pdb
     RDKit          3D

 25 24  0  0  1  0  0  0  0  0999 V2000
   26.1879  -11.8987  -18.0348 N   0  0  0  0  0  0  0  0  0  0  0  0
   25.6223  -11.3747  -16.7707 C   0  0  1  0  0  0  0  0  0  0  0  0
   26.7559  -10.8740  -15.9494 C   0  0  0  0  0  0  0  0  0  0  0  0
   27.8869  -12.1425  -15.3489 S   0  0  0  0  0  0  0  0  0  0  0  0
   24.5272  -10.4507  -17.0502 C   0  0  0  0  0  0  0  0  0  0  0  0
   24.5846   -9.7356  -18.0966 O   0  0  0  0  0  0  0  0  0  0  0  0
   18.4483  -13.0348  -15.3760 N   0  0  0  0  0  0  0  0  0  0  0  0
   17.7626  -11.7962  -15.0996 C   0  0  0  0  0  0  0  0  0  0  0  0
   17.0791  -11.6566  -14.0225 N   0  0  0  0  0  0  0  0  0  0  0  0
   17.8198  -10.7078  -16.0041 N   0  0  0  0  0  0  0  0  0  0  0  0
   18.7280  -10.7182  -17.1108 C   0  0  0  0  0  0  0  0  0  0  0  0
   19.7674   -9.6020  -17.0128 C   0  0  0  0  0  0  0  0  0  0  0  0
   21.0777  -10.2774  -16.7187 C   0  0  0  0  0  0  0  0  0  0  0  0
   22.2739   -9.4111  -16.6293 C   0  0  2  0  0  0  0  0  0  0  0  0
   23.3950  -10.2910  -16.2470 N   0  0  0  0  0  0  0  0  0  0  0  0
   22.0949   -8.3267  -15.6677 C   0  0  0  0  0  0  0  0  0  0  0  0
   22.1021   -8.5843  -14.4338 O   0  0  0  0  0  0  0  0  0  0  0  0
   16.6210  -10.7628  -13.7861 C   0  0  0  0  0  0  0  0  0  0  0  0
   23.8790   -4.6606  -15.3011 C   0  0  2  0  0  0  0  0  0  0  0  0
   22.3501   -4.6138  -15.2849 O   0  0  0  0  0  0  0  0  0  0  0  0
   21.8808   -4.1113  -16.5076 C   0  0  2  0  0  0  0  0  0  0  0  0
   21.7538   -5.9405  -14.9608 N   0  0  0  0  0  0  0  0  0  0  0  0
   21.9013   -6.9457  -15.9836 C   0  0  0  0  0  0  0  0  0  0  0  0
   20.2934   -5.6779  -14.6883 O   0  0  0  0  0  0  0  0  0  0  0  0
   19.2797   -6.2153  -15.4170 O   0  0  0  0  0  0  0  0  0  0  0  0
  2  1  1  6
  2  3  1  0
  2  5  1  0
  4  3  1  0
  5  6  2  0
  7  8  1  0
  8 10  1  0
  8  9  2  0
 10 11  1  0
 11 12  1  0
 12 13  1  0
 14 13  1  1
 15 14  1  0
 15  5  1  0
 16 14  1  0
 16 17  2  0
 19 18  1  1
 19 21  1  0
 20 19  1  0
 21 22  1  1
 21 23  1  0
 22 16  1  0
 23 24  1  0
 25 23  2  0
M  END
$$$$
