CRT.pdb
     RDKit          3D

 25 24  0  0  1  0  0  0  0  0999 V2000
   28.2718  -22.3278  -17.3424 N   0  0  0  0  0  0  0  0  0  0  0  0
   27.7933  -21.1223  -16.6281 C   0  0  1  0  0  0  0  0  0  0  0  0
   27.4219  -20.1140  -17.6554 C   0  0  0  0  0  0  0  0  0  0  0  0
   28.8079  -19.3645  -18.5307 S   0  0  0  0  0  0  0  0  0  0  0  0
   26.7831  -21.4869  -15.6392 C   0  0  0  0  0  0  0  0  0  0  0  0
   25.8630  -22.2929  -15.9759 O   0  0  0  0  0  0  0  0  0  0  0  0
   23.1456  -20.1167   -9.4093 N   0  0  0  0  0  0  0  0  0  0  0  0
   23.8278  -20.8017   -8.3387 C   0  0  0  0  0  0  0  0  0  0  0  0
   23.2040  -21.1085   -7.2601 N   0  0  0  0  0  0  0  0  0  0  0  0
   25.1968  -21.1491   -8.4443 N   0  0  0  0  0  0  0  0  0  0  0  0
   25.9402  -20.8569   -9.6325 C   0  0  0  0  0  0  0  0  0  0  0  0
   25.2214  -21.3358  -10.8934 C   0  0  0  0  0  0  0  0  0  0  0  0
   26.1159  -20.9733  -12.0459 C   0  0  0  0  0  0  0  0  0  0  0  0
   25.6417  -21.3306  -13.4013 C   0  0  2  0  0  0  0  0  0  0  0  0
   26.7497  -21.0167  -14.3239 N   0  0  0  0  0  0  0  0  0  0  0  0
   24.4247  -20.6097  -13.7642 C   0  0  0  0  0  0  0  0  0  0  0  0
   24.4497  -19.3522  -13.8462 O   0  0  0  0  0  0  0  0  0  0  0  0
   23.6726  -21.6097   -6.4895 C   0  0  0  0  0  0  0  0  0  0  0  0
   22.5941  -19.7537  -16.7573 C   0  0  2  0  0  0  0  0  0  0  0  0
   21.6070  -20.4829  -15.8442 O   0  0  0  0  0  0  0  0  0  0  0  0
   21.4599  -21.8103  -16.2735 C   0  0  2  0  0  0  0  0  0  0  0  0
   22.0064  -20.4009  -14.4107 N   0  0  0  0  0  0  0  0  0  0  0  0
   23.1519  -21.1968  -14.0466 C   0  0  0  0  0  0  0  0  0  0  0  0
   20.7945  -20.8318  -13.6224 O   0  0  0  0  0  0  0  0  0  0  0  0
   19.5785  -20.2320  -13.7170 O   0  0  0  0  0  0  0  0  0  0  0  0
  2  1  1  6
  2  3  1  0
  2  5  1  0
  4  3  1  0
  5  6  2  0
  7  8  1  0
  8 10  1  0
  8  9  2  0
 10 11  1  0
 11 12  1  0
 12 13  1  0
 14 13  1  1
 15 14  1  0
 15  5  1  0
 16 14  1  0
 16 17  2  0
 19 18  1  6
 19 21  1  0
 20 19  1  0
 21 22  1  1
 21 23  1  0
 22 16  1  0
 23 24  1  0
 25 23  2  0
M  END
$$$$
