CRT.pdb
     RDKit          3D

 25 24  0  0  1  0  0  0  0  0999 V2000
   28.2149  -21.4284  -18.1906 N   0  0  0  0  0  0  0  0  0  0  0  0
   27.6598  -20.2968  -17.4137 C   0  0  1  0  0  0  0  0  0  0  0  0
   27.1554  -19.2929  -18.3874 C   0  0  0  0  0  0  0  0  0  0  0  0
   26.2121  -17.9350  -17.6698 S   0  0  0  0  0  0  0  0  0  0  0  0
   26.7295  -20.7858  -16.4004 C   0  0  0  0  0  0  0  0  0  0  0  0
   25.9625  -21.7532  -16.6928 O   0  0  0  0  0  0  0  0  0  0  0  0
   23.4511  -20.1858   -9.7618 N   0  0  0  0  0  0  0  0  0  0  0  0
   24.2903  -20.9330   -8.8572 C   0  0  0  0  0  0  0  0  0  0  0  0
   23.8333  -21.3366   -7.7281 N   0  0  0  0  0  0  0  0  0  0  0  0
   25.6342  -21.2371   -9.1847 N   0  0  0  0  0  0  0  0  0  0  0  0
   26.2343  -20.7241  -10.3791 C   0  0  0  0  0  0  0  0  0  0  0  0
   25.3905  -21.0180  -11.6191 C   0  0  0  0  0  0  0  0  0  0  0  0
   26.2086  -20.5659  -12.7964 C   0  0  0  0  0  0  0  0  0  0  0  0
   25.6235  -20.7741  -14.1395 C   0  0  2  0  0  0  0  0  0  0  0  0
   26.6170  -20.2698  -15.1068 N   0  0  0  0  0  0  0  0  0  0  0  0
   24.3398  -20.0943  -14.2897 C   0  0  0  0  0  0  0  0  0  0  0  0
   24.2864  -18.8393  -14.1848 O   0  0  0  0  0  0  0  0  0  0  0  0
   24.4279  -21.8458   -7.0560 C   0  0  0  0  0  0  0  0  0  0  0  0
   22.0532  -19.1017  -17.0172 C   0  0  2  0  0  0  0  0  0  0  0  0
   21.2526  -19.9581  -16.0346 O   0  0  0  0  0  0  0  0  0  0  0  0
   21.1056  -21.2544  -16.5503 C   0  0  2  0  0  0  0  0  0  0  0  0
   21.8609  -19.9641  -14.6742 N   0  0  0  0  0  0  0  0  0  0  0  0
   23.0816  -20.7211  -14.5514 C   0  0  0  0  0  0  0  0  0  0  0  0
   20.8023  -20.5205  -13.7545 O   0  0  0  0  0  0  0  0  0  0  0  0
   19.6043  -19.9193  -13.5294 O   0  0  0  0  0  0  0  0  0  0  0  0
  2  1  1  6
  2  3  1  0
  2  5  1  0
  4  3  1  0
  5  6  2  0
  7  8  1  0
  8 10  1  0
  8  9  2  0
 10 11  1  0
 11 12  1  0
 12 13  1  0
 14 13  1  1
 15 14  1  0
 15  5  1  0
 16 14  1  0
 16 17  2  0
 19 18  1  6
 19 21  1  0
 20 19  1  0
 21 22  1  1
 21 23  1  0
 22 16  1  0
 23 24  1  0
 25 23  2  0
M  END
$$$$
