CRT.pdb
     RDKit          3D

 25 24  0  0  1  0  0  0  0  0999 V2000
   35.8952  -11.0617  -17.0101 N   0  0  0  0  0  0  0  0  0  0  0  0
   34.7379  -10.5179  -16.2636 C   0  0  1  0  0  0  0  0  0  0  0  0
   35.2617   -9.5160  -15.2981 C   0  0  0  0  0  0  0  0  0  0  0  0
   36.2836  -10.1880  -13.9742 S   0  0  0  0  0  0  0  0  0  0  0  0
   33.6949  -10.0868  -17.1896 C   0  0  0  0  0  0  0  0  0  0  0  0
   34.0349   -9.6566  -18.3337 O   0  0  0  0  0  0  0  0  0  0  0  0
   25.9418  -13.4910  -18.4459 N   0  0  0  0  0  0  0  0  0  0  0  0
   25.9977  -12.4773  -19.4707 C   0  0  0  0  0  0  0  0  0  0  0  0
   25.2032  -12.5243  -20.4772 N   0  0  0  0  0  0  0  0  0  0  0  0
   26.9270  -11.4109  -19.3983 N   0  0  0  0  0  0  0  0  0  0  0  0
   28.0331  -11.4595  -18.4906 C   0  0  0  0  0  0  0  0  0  0  0  0
   29.0226  -10.3191  -18.7276 C   0  0  0  0  0  0  0  0  0  0  0  0
   30.1884  -10.5828  -17.8160 C   0  0  0  0  0  0  0  0  0  0  0  0
   31.3175   -9.6285  -17.8777 C   0  0  2  0  0  0  0  0  0  0  0  0
   32.3250  -10.1160  -16.9161 N   0  0  0  0  0  0  0  0  0  0  0  0
   30.8999   -8.2641  -17.5670 C   0  0  0  0  0  0  0  0  0  0  0  0
   30.4371   -8.0020  -16.4242 O   0  0  0  0  0  0  0  0  0  0  0  0
   25.1842  -11.7741  -21.1854 C   0  0  0  0  0  0  0  0  0  0  0  0
   32.2789   -5.0420  -16.5192 C   0  0  2  0  0  0  0  0  0  0  0  0
   31.5432   -4.8184  -17.8416 O   0  0  0  0  0  0  0  0  0  0  0  0
   32.4687   -4.7784  -18.8950 C   0  0  2  0  0  0  0  0  0  0  0  0
   30.4813   -5.8388  -18.0699 N   0  0  0  0  0  0  0  0  0  0  0  0
   30.9575   -7.1442  -18.4541 C   0  0  0  0  0  0  0  0  0  0  0  0
   29.5883   -5.2678  -19.1433 O   0  0  0  0  0  0  0  0  0  0  0  0
   28.8251   -4.1552  -18.9791 O   0  0  0  0  0  0  0  0  0  0  0  0
  2  1  1  6
  2  3  1  0
  2  5  1  0
  4  3  1  0
  5  6  2  0
  7  8  1  0
  8 10  1  0
  8  9  2  0
 10 11  1  0
 11 12  1  0
 12 13  1  0
 14 13  1  1
 15 14  1  0
 15  5  1  0
 16 14  1  0
 16 17  2  0
 19 18  1  1
 19 21  1  0
 20 19  1  0
 21 22  1  6
 21 23  1  0
 22 16  1  0
 23 24  1  0
 25 23  2  0
M  END
$$$$
