CRT.pdb
     RDKit          3D

 25 24  0  0  1  0  0  0  0  0999 V2000
   13.3514   -8.3388   -8.0632 N   0  0  0  0  0  0  0  0  0  0  0  0
   14.3161   -7.2618   -8.3821 C   0  0  1  0  0  0  0  0  0  0  0  0
   14.6158   -6.5430   -7.1157 C   0  0  0  0  0  0  0  0  0  0  0  0
   13.2600   -5.5565   -6.4543 S   0  0  0  0  0  0  0  0  0  0  0  0
   15.4423   -7.7984   -9.1403 C   0  0  0  0  0  0  0  0  0  0  0  0
   15.8685   -8.9600   -8.8594 O   0  0  0  0  0  0  0  0  0  0  0  0
   17.1535  -12.3301  -14.2886 N   0  0  0  0  0  0  0  0  0  0  0  0
   17.1190  -11.4537  -15.4338 C   0  0  0  0  0  0  0  0  0  0  0  0
   17.7206  -11.7774  -16.5200 N   0  0  0  0  0  0  0  0  0  0  0  0
   16.4288  -10.2176  -15.3916 N   0  0  0  0  0  0  0  0  0  0  0  0
   15.8872   -9.7192  -14.1635 C   0  0  0  0  0  0  0  0  0  0  0  0
   16.9532   -9.0565  -13.2915 C   0  0  0  0  0  0  0  0  0  0  0  0
   16.2264   -8.4882  -12.1047 C   0  0  0  0  0  0  0  0  0  0  0  0
   17.0464   -7.8049  -11.0800 C   0  0  2  0  0  0  0  0  0  0  0  0
   16.0982   -7.1268  -10.1752 N   0  0  0  0  0  0  0  0  0  0  0  0
   17.9879   -6.8588  -11.6724 C   0  0  0  0  0  0  0  0  0  0  0  0
   17.6261   -5.6687  -11.8760 O   0  0  0  0  0  0  0  0  0  0  0  0
   17.6533  -11.1945  -17.3687 C   0  0  0  0  0  0  0  0  0  0  0  0
   22.4809   -5.4087  -13.3495 C   0  0  1  0  0  0  0  0  0  0  0  0
   21.6132   -6.5540  -12.8250 O   0  0  0  0  0  0  0  0  0  0  0  0
   22.1778   -7.0736  -11.6506 C   0  0  1  0  0  0  0  0  0  0  0  0
   20.1966   -6.1361  -12.6258 N   0  0  0  0  0  0  0  0  0  0  0  0
   19.3321   -7.1453  -12.0669 C   0  0  0  0  0  0  0  0  0  0  0  0
   19.6995   -5.7120  -13.9855 O   0  0  0  0  0  0  0  0  0  0  0  0
   19.6843   -4.4231  -14.4169 O   0  0  0  0  0  0  0  0  0  0  0  0
  2  1  1  1
  2  3  1  0
  2  5  1  0
  4  3  1  0
  5  6  2  0
  7  8  1  0
  8 10  1  0
  8  9  2  0
 10 11  1  0
 11 12  1  0
 12 13  1  0
 14 13  1  6
 15 14  1  0
 15  5  1  0
 16 14  1  0
 16 17  2  0
 19 18  1  6
 19 21  1  0
 20 19  1  0
 21 22  1  6
 21 23  1  0
 22 16  1  0
 23 24  1  0
 25 23  2  0
M  END
$$$$
