CRT.pdb
     RDKit          3D

 25 24  0  0  1  0  0  0  0  0999 V2000
   24.9773  -11.9267  -17.6002 N   0  0  0  0  0  0  0  0  0  0  0  0
   24.8423  -11.1584  -16.3417 C   0  0  1  0  0  0  0  0  0  0  0  0
   26.1794  -10.5944  -16.0186 C   0  0  0  0  0  0  0  0  0  0  0  0
   27.4249  -11.8035  -15.5334 S   0  0  0  0  0  0  0  0  0  0  0  0
   23.7188  -10.2307  -16.4325 C   0  0  0  0  0  0  0  0  0  0  0  0
   23.5546   -9.5748  -17.5060 O   0  0  0  0  0  0  0  0  0  0  0  0
   15.9789  -11.9066  -13.8367 N   0  0  0  0  0  0  0  0  0  0  0  0
   16.1728  -11.9544  -15.2653 C   0  0  0  0  0  0  0  0  0  0  0  0
   15.3003  -12.5127  -16.0227 N   0  0  0  0  0  0  0  0  0  0  0  0
   17.3254  -11.3945  -15.8686 N   0  0  0  0  0  0  0  0  0  0  0  0
   18.3616  -10.8092  -15.0726 C   0  0  0  0  0  0  0  0  0  0  0  0
   19.4874  -10.2301  -15.9289 C   0  0  0  0  0  0  0  0  0  0  0  0
   20.4911   -9.6589  -14.9666 C   0  0  0  0  0  0  0  0  0  0  0  0
   21.6937   -9.0241  -15.5498 C   0  0  2  0  0  0  0  0  0  0  0  0
   22.7868  -10.0063  -15.4159 N   0  0  0  0  0  0  0  0  0  0  0  0
   22.0242   -7.7647  -14.8887 C   0  0  0  0  0  0  0  0  0  0  0  0
   22.6060   -7.7850  -13.7706 O   0  0  0  0  0  0  0  0  0  0  0  0
   15.4406  -12.5898  -17.0419 C   0  0  0  0  0  0  0  0  0  0  0  0
   24.4045   -4.8790  -15.7149 C   0  0  2  0  0  0  0  0  0  0  0  0
   23.0014   -4.3216  -15.4689 O   0  0  0  0  0  0  0  0  0  0  0  0
   22.4090   -3.9785  -16.6933 C   0  0  2  0  0  0  0  0  0  0  0  0
   22.1552   -5.2645  -14.6842 N   0  0  0  0  0  0  0  0  0  0  0  0
   21.7470   -6.4541  -15.3888 C   0  0  0  0  0  0  0  0  0  0  0  0
   20.9483   -4.4692  -14.2518 O   0  0  0  0  0  0  0  0  0  0  0  0
   21.0109   -3.3822  -13.4383 O   0  0  0  0  0  0  0  0  0  0  0  0
  2  1  1  6
  2  3  1  0
  2  5  1  0
  4  3  1  0
  5  6  2  0
  7  8  1  0
  8 10  1  0
  8  9  2  0
 10 11  1  0
 11 12  1  0
 12 13  1  0
 14 13  1  1
 15 14  1  0
 15  5  1  0
 16 14  1  0
 16 17  2  0
 19 18  1  1
 19 21  1  0
 20 19  1  0
 21 22  1  1
 21 23  1  0
 22 16  1  0
 23 24  1  0
 25 23  2  0
M  END
$$$$
