CRT.pdb
     RDKit          3D

 25 24  0  0  1  0  0  0  0  0999 V2000
   26.3920  -12.7734  -17.8146 N   0  0  0  0  0  0  0  0  0  0  0  0
   26.1105  -11.9746  -16.6002 C   0  0  1  0  0  0  0  0  0  0  0  0
   27.3888  -11.3462  -16.1743 C   0  0  0  0  0  0  0  0  0  0  0  0
   28.5736  -12.4645  -15.4031 S   0  0  0  0  0  0  0  0  0  0  0  0
   24.9654  -11.0975  -16.8247 C   0  0  0  0  0  0  0  0  0  0  0  0
   24.7879  -10.6106  -17.9828 O   0  0  0  0  0  0  0  0  0  0  0  0
   17.0069  -12.5110  -14.4859 N   0  0  0  0  0  0  0  0  0  0  0  0
   16.8399  -11.2529  -15.1715 C   0  0  0  0  0  0  0  0  0  0  0  0
   15.6671  -10.8184  -15.4585 N   0  0  0  0  0  0  0  0  0  0  0  0
   17.9572  -10.4686  -15.5488 N   0  0  0  0  0  0  0  0  0  0  0  0
   19.2810  -11.0133  -15.5217 C   0  0  0  0  0  0  0  0  0  0  0  0
   20.3338   -9.9880  -15.9419 C   0  0  0  0  0  0  0  0  0  0  0  0
   21.6624  -10.6799  -15.8167 C   0  0  0  0  0  0  0  0  0  0  0  0
   22.8663   -9.8853  -16.1463 C   0  0  2  0  0  0  0  0  0  0  0  0
   24.0260  -10.7486  -15.8509 N   0  0  0  0  0  0  0  0  0  0  0  0
   22.9237   -8.6375  -15.3900 C   0  0  0  0  0  0  0  0  0  0  0  0
   23.2462   -8.6647  -14.1717 O   0  0  0  0  0  0  0  0  0  0  0  0
   15.5262   -9.8969  -15.9008 C   0  0  0  0  0  0  0  0  0  0  0  0
   24.7121   -5.0431  -16.1964 C   0  0  2  0  0  0  0  0  0  0  0  0
   23.2397   -4.9322  -15.7965 O   0  0  0  0  0  0  0  0  0  0  0  0
   22.4635   -4.6489  -16.9301 C   0  0  2  0  0  0  0  0  0  0  0  0
   22.7614   -6.1497  -15.0825 N   0  0  0  0  0  0  0  0  0  0  0  0
   22.6399   -7.3317  -15.8988 C   0  0  0  0  0  0  0  0  0  0  0  0
   21.4238   -5.7790  -14.4915 O   0  0  0  0  0  0  0  0  0  0  0  0
   20.2461   -6.3378  -14.8764 O   0  0  0  0  0  0  0  0  0  0  0  0
  2  1  1  6
  2  3  1  0
  2  5  1  0
  4  3  1  0
  5  6  2  0
  7  8  1  0
  8 10  1  0
  8  9  2  0
 10 11  1  0
 11 12  1  0
 12 13  1  0
 14 13  1  1
 15 14  1  0
 15  5  1  0
 16 14  1  0
 16 17  2  0
 19 18  1  1
 19 21  1  0
 20 19  1  0
 21 22  1  1
 21 23  1  0
 22 16  1  0
 23 24  1  0
 25 23  2  0
M  END
$$$$
