VIK.pdb
     RDKit          3D

 25 24  0  0  1  0  0  0  0  0999 V2000
   24.2827  -19.6301  -18.9598 C   0  0  0  0  0  0  0  0  0  0  0  0
   24.6080  -18.4212  -18.1015 C   0  0  2  0  0  0  0  0  0  0  0  0
   24.8819  -17.2968  -19.0764 C   0  0  0  0  0  0  0  0  0  0  0  0
   25.8515  -18.6510  -17.2782 C   0  0  2  0  0  0  0  0  0  0  0  0
   26.9889  -18.9584  -18.1309 N   0  0  0  0  0  0  0  0  0  0  0  0
   25.6905  -19.7234  -16.3030 C   0  0  0  0  0  0  0  0  0  0  0  0
   25.7512  -20.9298  -16.7527 O   0  0  0  0  0  0  0  0  0  0  0  0
   27.9729  -21.4559  -13.0301 C   0  0  0  0  0  0  0  0  0  0  0  0
   27.1956  -20.2125  -12.5787 C   0  0  0  0  0  0  0  0  0  0  0  0
   25.7281  -20.4896  -12.6814 C   0  0  2  0  0  0  0  0  0  0  0  0
   25.4357  -21.6105  -11.6759 C   0  0  0  0  0  0  0  0  0  0  0  0
   25.2136  -20.7770  -14.0469 C   0  0  2  0  0  0  0  0  0  0  0  0
   25.4780  -19.6191  -14.9239 N   0  0  0  0  0  0  0  0  0  0  0  0
   23.7790  -21.0833  -14.0361 C   0  0  0  0  0  0  0  0  0  0  0  0
   22.9059  -20.2068  -13.7231 O   0  0  0  0  0  0  0  0  0  0  0  0
   23.3046  -22.3729  -14.3850 N   0  0  0  0  0  0  0  0  0  0  0  0
   21.8577  -22.6325  -14.3653 C   0  0  1  0  0  0  0  0  0  0  0  0
   21.6857  -24.0511  -14.8805 C   0  0  0  0  0  0  0  0  0  0  0  0
   20.2822  -24.5527  -14.8303 C   0  0  0  0  0  0  0  0  0  0  0  0
   20.3153  -26.0032  -15.3200 C   0  0  0  0  0  0  0  0  0  0  0  0
   18.8922  -26.5353  -15.4599 C   0  0  0  0  0  0  0  0  0  0  0  0
   18.9668  -27.8659  -16.0135 N   0  0  0  0  0  0  0  0  0  0  0  0
   21.3637  -22.4646  -13.0044 C   0  0  0  0  0  0  0  0  0  0  0  0
   22.0452  -22.8204  -12.0219 O   0  0  0  0  0  0  0  0  0  0  0  0
   20.1143  -21.9033  -12.6996 O   0  0  0  0  0  0  0  0  0  0  0  0
  2  1  1  6
  2  4  1  0
  2  3  1  0
  4  6  1  0
  4  5  1  6
  6  7  2  0
  6 13  1  0
  9  8  1  0
 10  9  1  0
 10 11  1  1
 12 14  1  0
 12 10  1  0
 12 13  1  6
 14 15  2  0
 16 17  1  0
 16 14  1  0
 17 18  1  1
 19 18  1  0
 20 21  1  0
 20 19  1  0
 22 21  1  0
 23 25  1  0
 23 17  1  0
 24 23  2  0
M  END
$$$$
