VIK.pdb
     RDKit          3D

 25 24  0  0  1  0  0  0  0  0999 V2000
   24.4093  -24.2237  -14.1538 C   0  0  0  0  0  0  0  0  0  0  0  0
   24.0423  -22.7601  -14.3186 C   0  0  2  0  0  0  0  0  0  0  0  0
   24.0263  -22.5144  -15.8116 C   0  0  0  0  0  0  0  0  0  0  0  0
   25.0829  -21.8600  -13.6991 C   0  0  2  0  0  0  0  0  0  0  0  0
   25.1962  -22.1047  -12.2699 N   0  0  0  0  0  0  0  0  0  0  0  0
   24.8027  -20.4449  -13.9139 C   0  0  0  0  0  0  0  0  0  0  0  0
   23.9564  -19.8936  -13.1133 O   0  0  0  0  0  0  0  0  0  0  0  0
   28.3360  -18.4688  -14.8483 C   0  0  0  0  0  0  0  0  0  0  0  0
   27.3118  -17.4242  -14.3858 C   0  0  0  0  0  0  0  0  0  0  0  0
   26.1836  -17.3774  -15.3685 C   0  0  2  0  0  0  0  0  0  0  0  0
   25.8889  -15.8910  -15.6070 C   0  0  0  0  0  0  0  0  0  0  0  0
   24.9742  -18.1653  -15.0099 C   0  0  2  0  0  0  0  0  0  0  0  0
   25.3376  -19.5908  -14.8845 N   0  0  0  0  0  0  0  0  0  0  0  0
   23.9042  -18.0037  -16.0003 C   0  0  0  0  0  0  0  0  0  0  0  0
   24.0135  -18.4547  -17.1890 O   0  0  0  0  0  0  0  0  0  0  0  0
   22.6949  -17.3427  -15.6679 N   0  0  0  0  0  0  0  0  0  0  0  0
   21.5968  -17.3256  -16.6453 C   0  0  1  0  0  0  0  0  0  0  0  0
   20.3197  -17.4609  -15.8342 C   0  0  0  0  0  0  0  0  0  0  0  0
   19.0722  -17.4336  -16.6508 C   0  0  0  0  0  0  0  0  0  0  0  0
   17.9032  -17.5900  -15.6741 C   0  0  0  0  0  0  0  0  0  0  0  0
   16.5820  -17.5438  -16.4359 C   0  0  0  0  0  0  0  0  0  0  0  0
   15.5128  -17.4759  -15.4692 N   0  0  0  0  0  0  0  0  0  0  0  0
   21.6536  -16.0807  -17.4013 C   0  0  0  0  0  0  0  0  0  0  0  0
   22.1692  -15.0537  -16.9158 O   0  0  0  0  0  0  0  0  0  0  0  0
   21.1461  -15.9429  -18.7023 O   0  0  0  0  0  0  0  0  0  0  0  0
  2  1  1  6
  2  4  1  0
  2  3  1  0
  4  6  1  0
  4  5  1  1
  6  7  2  0
  6 13  1  0
  9  8  1  0
 10  9  1  0
 10 11  1  1
 12 14  1  0
 12 10  1  0
 12 13  1  6
 14 15  2  0
 16 17  1  0
 16 14  1  0
 17 18  1  1
 19 18  1  0
 20 21  1  0
 20 19  1  0
 22 21  1  0
 23 25  1  0
 23 17  1  0
 24 23  2  0
M  END
$$$$
