VIK.pdb
     RDKit          3D

 25 24  0  0  1  0  0  0  0  0999 V2000
   26.2829  -19.8391  -16.9470 C   0  0  0  0  0  0  0  0  0  0  0  0
   27.1938  -19.2381  -15.8920 C   0  0  2  0  0  0  0  0  0  0  0  0
   28.3836  -18.6918  -16.6508 C   0  0  0  0  0  0  0  0  0  0  0  0
   27.6859  -20.2894  -14.9280 C   0  0  2  0  0  0  0  0  0  0  0  0
   28.2879  -21.4055  -15.6402 N   0  0  0  0  0  0  0  0  0  0  0  0
   26.6281  -20.7985  -14.0625 C   0  0  0  0  0  0  0  0  0  0  0  0
   26.0044  -21.8513  -14.4673 O   0  0  0  0  0  0  0  0  0  0  0  0
   26.5996  -20.4394   -8.5785 C   0  0  0  0  0  0  0  0  0  0  0  0
   26.4362  -21.0956   -9.9558 C   0  0  0  0  0  0  0  0  0  0  0  0
   25.2261  -20.5259  -10.6281 C   0  0  2  0  0  0  0  0  0  0  0  0
   24.0259  -20.9464   -9.7704 C   0  0  0  0  0  0  0  0  0  0  0  0
   25.0638  -20.8591  -12.0684 C   0  0  2  0  0  0  0  0  0  0  0  0
   26.1931  -20.2929  -12.8325 N   0  0  0  0  0  0  0  0  0  0  0  0
   23.7927  -20.3598  -12.6040 C   0  0  0  0  0  0  0  0  0  0  0  0
   23.5562  -19.1114  -12.7226 O   0  0  0  0  0  0  0  0  0  0  0  0
   22.7746  -21.2534  -13.0219 N   0  0  0  0  0  0  0  0  0  0  0  0
   21.5290  -20.7081  -13.5808 C   0  0  1  0  0  0  0  0  0  0  0  0
   21.0772  -21.7054  -14.6336 C   0  0  0  0  0  0  0  0  0  0  0  0
   19.8273  -21.3154  -15.3474 C   0  0  0  0  0  0  0  0  0  0  0  0
   19.4815  -22.4697  -16.2924 C   0  0  0  0  0  0  0  0  0  0  0  0
   18.3018  -22.0788  -17.1775 C   0  0  0  0  0  0  0  0  0  0  0  0
   18.0674  -23.1562  -18.1084 N   0  0  0  0  0  0  0  0  0  0  0  0
   20.5576  -20.5459  -12.5063 C   0  0  0  0  0  0  0  0  0  0  0  0
   20.5976  -21.2633  -11.4864 O   0  0  0  0  0  0  0  0  0  0  0  0
   19.5272  -19.5938  -12.5333 O   0  0  0  0  0  0  0  0  0  0  0  0
  2  1  1  6
  2  4  1  0
  2  3  1  0
  4  6  1  0
  4  5  1  6
  6  7  2  0
  6 13  1  0
  9  8  1  0
 10  9  1  0
 10 11  1  1
 12 14  1  0
 12 10  1  0
 12 13  1  6
 14 15  2  0
 16 17  1  0
 16 14  1  0
 17 18  1  6
 19 18  1  0
 20 21  1  0
 20 19  1  0
 22 21  1  0
 23 25  1  0
 23 17  1  0
 24 23  2  0
M  END
$$$$
