VIK.pdb
     RDKit          3D

 25 24  0  0  1  0  0  0  0  0999 V2000
   17.9661  -15.8025  -18.2779 C   0  0  0  0  0  0  0  0  0  0  0  0
   18.6521  -14.8440  -17.3215 C   0  0  2  0  0  0  0  0  0  0  0  0
   18.9160  -13.5907  -18.1274 C   0  0  0  0  0  0  0  0  0  0  0  0
   19.9755  -15.3934  -16.8486 C   0  0  2  0  0  0  0  0  0  0  0  0
   19.7893  -16.6354  -16.1150 N   0  0  0  0  0  0  0  0  0  0  0  0
   20.7061  -14.4537  -16.0059 C   0  0  0  0  0  0  0  0  0  0  0  0
   20.2928  -14.3211  -14.7923 O   0  0  0  0  0  0  0  0  0  0  0  0
   25.9443  -14.3053  -15.2987 C   0  0  0  0  0  0  0  0  0  0  0  0
   24.4306  -14.2457  -15.0556 C   0  0  0  0  0  0  0  0  0  0  0  0
   23.9251  -12.8932  -15.4506 C   0  0  2  0  0  0  0  0  0  0  0  0
   24.6829  -11.8847  -14.5779 C   0  0  0  0  0  0  0  0  0  0  0  0
   22.4494  -12.7121  -15.4102 C   0  0  2  0  0  0  0  0  0  0  0  0
   21.8132  -13.6661  -16.3402 N   0  0  0  0  0  0  0  0  0  0  0  0
   22.0586  -11.3399  -15.7511 C   0  0  0  0  0  0  0  0  0  0  0  0
   22.3396  -10.8213  -16.8828 O   0  0  0  0  0  0  0  0  0  0  0  0
   21.3400  -10.5351  -14.8315 N   0  0  0  0  0  0  0  0  0  0  0  0
   21.0041   -9.1524  -15.2010 C   0  0  1  0  0  0  0  0  0  0  0  0
   19.4892   -9.1083  -15.3023 C   0  0  0  0  0  0  0  0  0  0  0  0
   18.9332   -7.7468  -15.5496 C   0  0  0  0  0  0  0  0  0  0  0  0
   17.4088   -7.8903  -15.5674 C   0  0  0  0  0  0  0  0  0  0  0  0
   16.7631   -6.5289  -15.8070 C   0  0  0  0  0  0  0  0  0  0  0  0
   15.3357   -6.7220  -15.8931 N   0  0  0  0  0  0  0  0  0  0  0  0
   21.5262   -8.2488  -14.1835 C   0  0  0  0  0  0  0  0  0  0  0  0
   21.6078   -7.0213  -14.3909 O   0  0  0  0  0  0  0  0  0  0  0  0
   21.9667   -8.6774  -12.9220 O   0  0  0  0  0  0  0  0  0  0  0  0
  2  1  1  6
  2  4  1  0
  2  3  1  0
  4  6  1  0
  4  5  1  1
  6  7  2  0
  6 13  1  0
  9  8  1  0
 10  9  1  0
 10 11  1  1
 12 14  1  0
 12 10  1  0
 12 13  1  6
 14 15  2  0
 16 17  1  0
 16 14  1  0
 17 18  1  1
 19 18  1  0
 20 21  1  0
 20 19  1  0
 22 21  1  0
 23 25  1  0
 23 17  1  0
 24 23  2  0
M  END
$$$$
