VIK.pdb
     RDKit          3D

 25 24  0  0  1  0  0  0  0  0999 V2000
   27.1519  -10.0207  -17.1996 C   0  0  0  0  0  0  0  0  0  0  0  0
   27.2714  -10.7792  -15.8902 C   0  0  2  0  0  0  0  0  0  0  0  0
   28.7012  -11.2721  -15.8392 C   0  0  0  0  0  0  0  0  0  0  0  0
   26.3538  -11.9767  -15.8637 C   0  0  2  0  0  0  0  0  0  0  0  0
   26.7603  -12.9640  -16.8513 N   0  0  0  0  0  0  0  0  0  0  0  0
   24.9588  -11.6221  -16.0989 C   0  0  0  0  0  0  0  0  0  0  0  0
   24.5314  -11.7232  -17.3106 O   0  0  0  0  0  0  0  0  0  0  0  0
   20.8657  -14.1312  -14.3118 C   0  0  0  0  0  0  0  0  0  0  0  0
   21.8322  -13.3020  -15.1675 C   0  0  0  0  0  0  0  0  0  0  0  0
   21.7194  -11.8617  -14.7755 C   0  0  2  0  0  0  0  0  0  0  0  0
   20.2294  -11.5103  -14.8723 C   0  0  0  0  0  0  0  0  0  0  0  0
   22.5951  -10.9146  -15.5159 C   0  0  2  0  0  0  0  0  0  0  0  0
   24.0061  -11.1822  -15.1733 N   0  0  0  0  0  0  0  0  0  0  0  0
   22.2612   -9.5173  -15.2194 C   0  0  0  0  0  0  0  0  0  0  0  0
   22.4877   -8.9992  -14.0753 O   0  0  0  0  0  0  0  0  0  0  0  0
   21.6780   -8.6807  -16.2042 N   0  0  0  0  0  0  0  0  0  0  0  0
   21.4153   -7.2708  -15.8809 C   0  0  1  0  0  0  0  0  0  0  0  0
   21.2196   -6.5709  -17.2147 C   0  0  0  0  0  0  0  0  0  0  0  0
   20.8939   -5.1201  -17.1007 C   0  0  0  0  0  0  0  0  0  0  0  0
   20.6337   -4.6142  -18.5225 C   0  0  0  0  0  0  0  0  0  0  0  0
   20.4278   -3.1025  -18.5048 C   0  0  0  0  0  0  0  0  0  0  0  0
   20.2184   -2.6658  -19.8641 N   0  0  0  0  0  0  0  0  0  0  0  0
   20.2376   -7.1913  -15.0259 C   0  0  0  0  0  0  0  0  0  0  0  0
   19.2677   -7.9586  -15.1903 O   0  0  0  0  0  0  0  0  0  0  0  0
   20.1052   -6.2690  -13.9767 O   0  0  0  0  0  0  0  0  0  0  0  0
  2  1  1  6
  2  4  1  0
  2  3  1  0
  4  6  1  0
  4  5  1  6
  6  7  2  0
  6 13  1  0
  9  8  1  0
 10  9  1  0
 10 11  1  6
 12 14  1  0
 12 10  1  0
 12 13  1  1
 14 15  2  0
 16 17  1  0
 16 14  1  0
 17 18  1  6
 19 18  1  0
 20 21  1  0
 20 19  1  0
 22 21  1  0
 23 25  1  0
 23 17  1  0
 24 23  2  0
M  END
$$$$
