VIK.pdb
     RDKit          3D

 25 24  0  0  1  0  0  0  0  0999 V2000
   27.1996  -20.8694  -16.7493 C   0  0  0  0  0  0  0  0  0  0  0  0
   25.7398  -20.5020  -16.9444 C   0  0  2  0  0  0  0  0  0  0  0  0
   25.6990  -19.6700  -18.2077 C   0  0  0  0  0  0  0  0  0  0  0  0
   25.2284  -19.6589  -15.8023 C   0  0  2  0  0  0  0  0  0  0  0  0
   25.9814  -18.4193  -15.6946 N   0  0  0  0  0  0  0  0  0  0  0  0
   25.2810  -20.3548  -14.5216 C   0  0  0  0  0  0  0  0  0  0  0  0
   24.6557  -21.4793  -14.4468 O   0  0  0  0  0  0  0  0  0  0  0  0
   29.4919  -20.5653  -11.0722 C   0  0  0  0  0  0  0  0  0  0  0  0
   28.2799  -21.0538  -11.8762 C   0  0  0  0  0  0  0  0  0  0  0  0
   27.0312  -20.5029  -11.2614 C   0  0  2  0  0  0  0  0  0  0  0  0
   26.9403  -21.1185   -9.8594 C   0  0  0  0  0  0  0  0  0  0  0  0
   25.7856  -20.6685  -12.0570 C   0  0  2  0  0  0  0  0  0  0  0  0
   25.9299  -19.9625  -13.3457 N   0  0  0  0  0  0  0  0  0  0  0  0
   24.6085  -20.1687  -11.3382 C   0  0  0  0  0  0  0  0  0  0  0  0
   24.2161  -18.9594  -11.4478 O   0  0  0  0  0  0  0  0  0  0  0  0
   23.8515  -21.0205  -10.4948 N   0  0  0  0  0  0  0  0  0  0  0  0
   22.5643  -20.5450   -9.9674 C   0  0  1  0  0  0  0  0  0  0  0  0
   21.5869  -20.6272  -11.1272 C   0  0  0  0  0  0  0  0  0  0  0  0
   20.1838  -20.2705  -10.7696 C   0  0  0  0  0  0  0  0  0  0  0  0
   19.3416  -20.4774  -12.0316 C   0  0  0  0  0  0  0  0  0  0  0  0
   17.8943  -20.0780  -11.7598 C   0  0  0  0  0  0  0  0  0  0  0  0
   17.1595  -20.1984  -12.9959 N   0  0  0  0  0  0  0  0  0  0  0  0
   22.1732  -21.3844   -8.8418 C   0  0  0  0  0  0  0  0  0  0  0  0
   22.6665  -22.5190   -8.6808 O   0  0  0  0  0  0  0  0  0  0  0  0
   21.2351  -20.9924   -7.8747 O   0  0  0  0  0  0  0  0  0  0  0  0
  2  1  1  1
  2  4  1  0
  2  3  1  0
  4  6  1  0
  4  5  1  1
  6  7  2  0
  6 13  1  0
  9  8  1  0
 10  9  1  0
 10 11  1  1
 12 14  1  0
 12 10  1  0
 12 13  1  6
 14 15  2  0
 16 17  1  0
 16 14  1  0
 17 18  1  6
 19 18  1  0
 20 21  1  0
 20 19  1  0
 22 21  1  0
 23 25  1  0
 23 17  1  0
 24 23  2  0
M  END
$$$$
