VIK.pdb
     RDKit          3D

 25 24  0  0  1  0  0  0  0  0999 V2000
   19.7535  -14.0594  -18.7468 C   0  0  0  0  0  0  0  0  0  0  0  0
   21.1000  -14.3516  -19.3837 C   0  0  2  0  0  0  0  0  0  0  0  0
   20.8373  -15.4424  -20.3990 C   0  0  0  0  0  0  0  0  0  0  0  0
   22.0861  -14.8738  -18.3680 C   0  0  2  0  0  0  0  0  0  0  0  0
   21.5786  -16.0737  -17.7214 N   0  0  0  0  0  0  0  0  0  0  0  0
   22.4131  -13.8890  -17.3432 C   0  0  0  0  0  0  0  0  0  0  0  0
   21.6628  -13.8718  -16.2954 O   0  0  0  0  0  0  0  0  0  0  0  0
   27.0138  -10.6282  -14.9543 C   0  0  0  0  0  0  0  0  0  0  0  0
   25.4871  -10.7775  -14.9831 C   0  0  0  0  0  0  0  0  0  0  0  0
   25.1100  -11.7340  -16.0710 C   0  0  2  0  0  0  0  0  0  0  0  0
   25.8203  -11.2390  -17.3373 C   0  0  0  0  0  0  0  0  0  0  0  0
   23.6525  -11.9580  -16.2651 C   0  0  2  0  0  0  0  0  0  0  0  0
   23.4479  -12.9473  -17.3418 N   0  0  0  0  0  0  0  0  0  0  0  0
   22.9470  -10.7123  -16.5852 C   0  0  0  0  0  0  0  0  0  0  0  0
   23.0461  -10.1576  -17.7301 O   0  0  0  0  0  0  0  0  0  0  0  0
   22.1143  -10.0779  -15.6291 N   0  0  0  0  0  0  0  0  0  0  0  0
   21.3898   -8.8566  -16.0095 C   0  0  1  0  0  0  0  0  0  0  0  0
   19.9148   -9.2130  -15.9406 C   0  0  0  0  0  0  0  0  0  0  0  0
   18.9969   -8.0600  -16.1685 C   0  0  0  0  0  0  0  0  0  0  0  0
   17.5701   -8.6013  -16.0415 C   0  0  0  0  0  0  0  0  0  0  0  0
   16.5670   -7.4682  -16.2359 C   0  0  0  0  0  0  0  0  0  0  0  0
   15.2527   -7.9798  -15.9308 N   0  0  0  0  0  0  0  0  0  0  0  0
   21.7527   -7.7840  -15.0918 C   0  0  0  0  0  0  0  0  0  0  0  0
   22.2458   -8.0312  -13.9728 O   0  0  0  0  0  0  0  0  0  0  0  0
   21.5808   -6.4230  -15.3872 O   0  0  0  0  0  0  0  0  0  0  0  0
  2  1  1  1
  2  4  1  0
  2  3  1  0
  4  6  1  0
  4  5  1  1
  6  7  2  0
  6 13  1  0
  9  8  1  0
 10  9  1  0
 10 11  1  6
 12 14  1  0
 12 10  1  0
 12 13  1  6
 14 15  2  0
 16 17  1  0
 16 14  1  0
 17 18  1  1
 19 18  1  0
 20 21  1  0
 20 19  1  0
 22 21  1  0
 23 25  1  0
 23 17  1  0
 24 23  2  0
M  END
$$$$
