VIK.pdb
     RDKit          3D

 25 24  0  0  1  0  0  0  0  0999 V2000
   27.3253  -11.8625  -17.1049 C   0  0  0  0  0  0  0  0  0  0  0  0
   26.8658  -12.5009  -15.8067 C   0  0  2  0  0  0  0  0  0  0  0  0
   28.0197  -13.3686  -15.3538 C   0  0  0  0  0  0  0  0  0  0  0  0
   25.6626  -13.3848  -16.0252 C   0  0  2  0  0  0  0  0  0  0  0  0
   25.9599  -14.4387  -16.9824 N   0  0  0  0  0  0  0  0  0  0  0  0
   24.4959  -12.6426  -16.4892 C   0  0  0  0  0  0  0  0  0  0  0  0
   24.3241  -12.5711  -17.7646 O   0  0  0  0  0  0  0  0  0  0  0  0
   18.6588  -12.1394  -16.0279 C   0  0  0  0  0  0  0  0  0  0  0  0
   19.8605  -11.2733  -16.4275 C   0  0  0  0  0  0  0  0  0  0  0  0
   21.1219  -11.9719  -16.0254 C   0  0  2  0  0  0  0  0  0  0  0  0
   20.9527  -12.3358  -14.5448 C   0  0  0  0  0  0  0  0  0  0  0  0
   22.3880  -11.2455  -16.3103 C   0  0  2  0  0  0  0  0  0  0  0  0
   23.5217  -11.9895  -15.7263 N   0  0  0  0  0  0  0  0  0  0  0  0
   22.3611   -9.8757  -15.7859 C   0  0  0  0  0  0  0  0  0  0  0  0
   22.7222   -9.6046  -14.5924 O   0  0  0  0  0  0  0  0  0  0  0  0
   21.9379   -8.7917  -16.5956 N   0  0  0  0  0  0  0  0  0  0  0  0
   22.0064   -7.4260  -16.0558 C   0  0  1  0  0  0  0  0  0  0  0  0
   21.8056   -6.5016  -17.2442 C   0  0  0  0  0  0  0  0  0  0  0  0
   21.7311   -5.0556  -16.8871 C   0  0  0  0  0  0  0  0  0  0  0  0
   21.5459   -4.2871  -18.1986 C   0  0  0  0  0  0  0  0  0  0  0  0
   21.5266   -2.7869  -17.9216 C   0  0  0  0  0  0  0  0  0  0  0  0
   21.2408   -2.1086  -19.1628 N   0  0  0  0  0  0  0  0  0  0  0  0
   20.9755   -7.2655  -15.0380 C   0  0  0  0  0  0  0  0  0  0  0  0
   19.8203   -7.7020  -15.2151 O   0  0  0  0  0  0  0  0  0  0  0  0
   21.1956   -6.6241  -13.8096 O   0  0  0  0  0  0  0  0  0  0  0  0
  2  1  1  6
  2  4  1  0
  2  3  1  0
  4  6  1  0
  4  5  1  6
  6  7  2  0
  6 13  1  0
  9  8  1  0
 10  9  1  0
 10 11  1  1
 12 14  1  0
 12 10  1  0
 12 13  1  1
 14 15  2  0
 16 17  1  0
 16 14  1  0
 17 18  1  6
 19 18  1  0
 20 21  1  0
 20 19  1  0
 22 21  1  0
 23 25  1  0
 23 17  1  0
 24 23  2  0
M  END
$$$$
