VIK.pdb
     RDKit          3D

 25 24  0  0  1  0  0  0  0  0999 V2000
   22.8238  -20.2964   -4.8270 C   0  0  0  0  0  0  0  0  0  0  0  0
   22.0041  -20.5818   -6.0723 C   0  0  2  0  0  0  0  0  0  0  0  0
   20.7967  -21.3565   -5.5912 C   0  0  0  0  0  0  0  0  0  0  0  0
   22.7672  -21.4457   -7.0459 C   0  0  2  0  0  0  0  0  0  0  0  0
   23.1439  -22.7098   -6.4331 N   0  0  0  0  0  0  0  0  0  0  0  0
   23.9678  -20.7933   -7.5559 C   0  0  0  0  0  0  0  0  0  0  0  0
   23.7924  -19.8306   -8.3947 O   0  0  0  0  0  0  0  0  0  0  0  0
   27.4325  -18.5657   -5.8711 C   0  0  0  0  0  0  0  0  0  0  0  0
   27.6748  -20.0776   -5.7737 C   0  0  0  0  0  0  0  0  0  0  0  0
   27.6855  -20.6606   -7.1524 C   0  0  2  0  0  0  0  0  0  0  0  0
   28.9456  -20.1141   -7.8353 C   0  0  0  0  0  0  0  0  0  0  0  0
   26.4491  -20.4595   -7.9542 C   0  0  2  0  0  0  0  0  0  0  0  0
   25.3046  -21.0734   -7.2522 N   0  0  0  0  0  0  0  0  0  0  0  0
   26.5751  -21.0247   -9.3021 C   0  0  0  0  0  0  0  0  0  0  0  0
   26.7939  -22.2673   -9.4932 O   0  0  0  0  0  0  0  0  0  0  0  0
   26.4480  -20.2059  -10.4524 N   0  0  0  0  0  0  0  0  0  0  0  0
   26.4951  -20.8292  -11.7830 C   0  0  1  0  0  0  0  0  0  0  0  0
   25.3120  -20.2608  -12.5475 C   0  0  0  0  0  0  0  0  0  0  0  0
   25.2180  -20.7264  -13.9611 C   0  0  0  0  0  0  0  0  0  0  0  0
   24.0494  -19.9685  -14.5975 C   0  0  0  0  0  0  0  0  0  0  0  0
   23.8440  -20.4437  -16.0326 C   0  0  0  0  0  0  0  0  0  0  0  0
   22.7091  -19.7382  -16.5772 N   0  0  0  0  0  0  0  0  0  0  0  0
   27.7730  -20.5148  -12.4096 C   0  0  0  0  0  0  0  0  0  0  0  0
   28.4408  -19.5237  -12.0515 O   0  0  0  0  0  0  0  0  0  0  0  0
   28.3388  -21.2829  -13.4386 O   0  0  0  0  0  0  0  0  0  0  0  0
  2  1  1  1
  2  4  1  0
  2  3  1  0
  4  6  1  0
  4  5  1  1
  6  7  2  0
  6 13  1  0
  9  8  1  0
 10  9  1  0
 10 11  1  6
 12 14  1  0
 12 10  1  0
 12 13  1  1
 14 15  2  0
 16 17  1  0
 16 14  1  0
 17 18  1  6
 19 18  1  0
 20 21  1  0
 20 19  1  0
 22 21  1  0
 23 25  1  0
 23 17  1  0
 24 23  2  0
M  END
$$$$
