VIK.pdb
     RDKit          3D

 25 24  0  0  1  0  0  0  0  0999 V2000
   22.7012  -13.8986  -18.3285 C   0  0  0  0  0  0  0  0  0  0  0  0
   23.4959  -12.6099  -18.4376 C   0  0  2  0  0  0  0  0  0  0  0  0
   24.9395  -13.0070  -18.2182 C   0  0  0  0  0  0  0  0  0  0  0  0
   23.1028  -11.6295  -17.3601 C   0  0  2  0  0  0  0  0  0  0  0  0
   23.3755  -12.1733  -16.0391 N   0  0  0  0  0  0  0  0  0  0  0  0
   21.6968  -11.2487  -17.4316 C   0  0  0  0  0  0  0  0  0  0  0  0
   21.3134  -10.6456  -18.5042 O   0  0  0  0  0  0  0  0  0  0  0  0
   16.2263  -12.1479  -17.2715 C   0  0  0  0  0  0  0  0  0  0  0  0
   16.9213  -11.5565  -16.0381 C   0  0  0  0  0  0  0  0  0  0  0  0
   18.3643  -11.9544  -16.0525 C   0  0  2  0  0  0  0  0  0  0  0  0
   18.7110  -12.3485  -14.6111 C   0  0  0  0  0  0  0  0  0  0  0  0
   19.3079  -10.9620  -16.6327 C   0  0  2  0  0  0  0  0  0  0  0  0
   20.6915  -11.4541  -16.4803 N   0  0  0  0  0  0  0  0  0  0  0  0
   19.1698   -9.6446  -16.0023 C   0  0  0  0  0  0  0  0  0  0  0  0
   19.7498   -9.3609  -14.9016 O   0  0  0  0  0  0  0  0  0  0  0  0
   18.3876   -8.6259  -16.6025 N   0  0  0  0  0  0  0  0  0  0  0  0
   18.3254   -7.3025  -15.9653 C   0  0  1  0  0  0  0  0  0  0  0  0
   18.1974   -6.3026  -17.1016 C   0  0  0  0  0  0  0  0  0  0  0  0
   18.0524   -4.8870  -16.6555 C   0  0  0  0  0  0  0  0  0  0  0  0
   17.8551   -4.0452  -17.9194 C   0  0  0  0  0  0  0  0  0  0  0  0
   17.7541   -2.5688  -17.5479 C   0  0  0  0  0  0  0  0  0  0  0  0
   17.3292   -1.8427  -18.7203 N   0  0  0  0  0  0  0  0  0  0  0  0
   17.1881   -7.2672  -15.0544 C   0  0  0  0  0  0  0  0  0  0  0  0
   16.1467   -7.9101  -15.2969 O   0  0  0  0  0  0  0  0  0  0  0  0
   17.1752   -6.5265  -13.8627 O   0  0  0  0  0  0  0  0  0  0  0  0
  2  1  1  1
  2  4  1  0
  2  3  1  0
  4  6  1  0
  4  5  1  1
  6  7  2  0
  6 13  1  0
  9  8  1  0
 10  9  1  0
 10 11  1  1
 12 14  1  0
 12 10  1  0
 12 13  1  1
 14 15  2  0
 16 17  1  0
 16 14  1  0
 17 18  1  6
 19 18  1  0
 20 21  1  0
 20 19  1  0
 22 21  1  0
 23 25  1  0
 23 17  1  0
 24 23  2  0
M  END
$$$$
