VIK.pdb
     RDKit          3D

 25 24  0  0  1  0  0  0  0  0999 V2000
   27.5619  -12.7135  -16.1551 C   0  0  0  0  0  0  0  0  0  0  0  0
   26.4652  -11.6955  -16.4105 C   0  0  2  0  0  0  0  0  0  0  0  0
   26.6715  -10.6125  -15.3740 C   0  0  0  0  0  0  0  0  0  0  0  0
   25.0975  -12.2983  -16.2037 C   0  0  2  0  0  0  0  0  0  0  0  0
   24.8841  -13.4214  -17.1027 N   0  0  0  0  0  0  0  0  0  0  0  0
   24.0220  -11.3318  -16.3938 C   0  0  0  0  0  0  0  0  0  0  0  0
   23.7434  -11.0064  -17.6095 O   0  0  0  0  0  0  0  0  0  0  0  0
   19.7148  -12.3247  -15.1621 C   0  0  0  0  0  0  0  0  0  0  0  0
   20.1880  -11.1755  -16.0618 C   0  0  0  0  0  0  0  0  0  0  0  0
   20.8906  -10.1548  -15.2220 C   0  0  2  0  0  0  0  0  0  0  0  0
   19.8865   -9.0147  -15.0098 C   0  0  0  0  0  0  0  0  0  0  0  0
   22.2087   -9.6892  -15.7298 C   0  0  2  0  0  0  0  0  0  0  0  0
   23.2380  -10.7016  -15.4212 N   0  0  0  0  0  0  0  0  0  0  0  0
   22.5881   -8.3939  -15.1551 C   0  0  0  0  0  0  0  0  0  0  0  0
   22.8924   -8.2676  -13.9223 O   0  0  0  0  0  0  0  0  0  0  0  0
   22.6403   -7.2260  -15.9571 N   0  0  0  0  0  0  0  0  0  0  0  0
   22.9572   -5.9373  -15.3245 C   0  0  1  0  0  0  0  0  0  0  0  0
   23.1777   -4.9600  -16.4662 C   0  0  0  0  0  0  0  0  0  0  0  0
   23.4025   -3.5519  -16.0295 C   0  0  0  0  0  0  0  0  0  0  0  0
   23.5833   -2.7198  -17.3023 C   0  0  0  0  0  0  0  0  0  0  0  0
   23.6208   -1.2358  -16.9499 C   0  0  0  0  0  0  0  0  0  0  0  0
   23.9944   -0.5056  -18.1372 N   0  0  0  0  0  0  0  0  0  0  0  0
   21.8515   -5.5493  -14.4577 C   0  0  0  0  0  0  0  0  0  0  0  0
   20.6709   -5.8194  -14.7575 O   0  0  0  0  0  0  0  0  0  0  0  0
   22.0233   -4.8593  -13.2480 O   0  0  0  0  0  0  0  0  0  0  0  0
  2  1  1  1
  2  4  1  0
  2  3  1  0
  4  6  1  0
  4  5  1  6
  6  7  2  0
  6 13  1  0
  9  8  1  0
 10  9  1  0
 10 11  1  6
 12 14  1  0
 12 10  1  0
 12 13  1  1
 14 15  2  0
 16 17  1  0
 16 14  1  0
 17 18  1  6
 19 18  1  0
 20 21  1  0
 20 19  1  0
 22 21  1  0
 23 25  1  0
 23 17  1  0
 24 23  2  0
M  END
$$$$
