VIK.pdb
     RDKit          3D

 25 24  0  0  1  0  0  0  0  0999 V2000
   26.2822  -21.2915  -17.6665 C   0  0  0  0  0  0  0  0  0  0  0  0
   27.2954  -20.5127  -16.8475 C   0  0  2  0  0  0  0  0  0  0  0  0
   28.4105  -20.1660  -17.8100 C   0  0  0  0  0  0  0  0  0  0  0  0
   27.8702  -21.3576  -15.7374 C   0  0  2  0  0  0  0  0  0  0  0  0
   28.4063  -22.6049  -16.2590 N   0  0  0  0  0  0  0  0  0  0  0  0
   26.8927  -21.6629  -14.6989 C   0  0  0  0  0  0  0  0  0  0  0  0
   26.1176  -22.6707  -14.9107 O   0  0  0  0  0  0  0  0  0  0  0  0
   25.5323  -20.6020   -8.7608 C   0  0  0  0  0  0  0  0  0  0  0  0
   25.0070  -21.1859  -10.0788 C   0  0  0  0  0  0  0  0  0  0  0  0
   25.9975  -20.9072  -11.1660 C   0  0  2  0  0  0  0  0  0  0  0  0
   26.2923  -19.4034  -11.0973 C   0  0  0  0  0  0  0  0  0  0  0  0
   25.6173  -21.3691  -12.5277 C   0  0  2  0  0  0  0  0  0  0  0  0
   26.6802  -21.0017  -13.4842 N   0  0  0  0  0  0  0  0  0  0  0  0
   24.3346  -20.8019  -12.9578 C   0  0  0  0  0  0  0  0  0  0  0  0
   24.2469  -19.6221  -13.4360 O   0  0  0  0  0  0  0  0  0  0  0  0
   23.1361  -21.5534  -12.8661 N   0  0  0  0  0  0  0  0  0  0  0  0
   21.8779  -20.9535  -13.3335 C   0  0  1  0  0  0  0  0  0  0  0  0
   21.1323  -22.0649  -14.0519 C   0  0  0  0  0  0  0  0  0  0  0  0
   19.7463  -21.7019  -14.4655 C   0  0  0  0  0  0  0  0  0  0  0  0
   19.1639  -22.9269  -15.1765 C   0  0  0  0  0  0  0  0  0  0  0  0
   17.7497  -22.6212  -15.6605 C   0  0  0  0  0  0  0  0  0  0  0  0
   17.2197  -23.8167  -16.2705 N   0  0  0  0  0  0  0  0  0  0  0  0
   21.1443  -20.4346  -12.1859 C   0  0  0  0  0  0  0  0  0  0  0  0
   20.2829  -19.5422  -12.3204 O   0  0  0  0  0  0  0  0  0  0  0  0
   21.3435  -20.8867  -10.8726 O   0  0  0  0  0  0  0  0  0  0  0  0
  2  1  1  6
  2  4  1  0
  2  3  1  0
  4  6  1  0
  4  5  1  6
  6  7  2  0
  6 13  1  0
  9  8  1  0
 10  9  1  0
 10 11  1  6
 12 14  1  0
 12 10  1  0
 12 13  1  6
 14 15  2  0
 16 17  1  0
 16 14  1  0
 17 18  1  1
 19 18  1  0
 20 21  1  0
 20 19  1  0
 22 21  1  0
 23 25  1  0
 23 17  1  0
 24 23  2  0
M  END
$$$$
