VIK.pdb
     RDKit          3D

 25 24  0  0  1  0  0  0  0  0999 V2000
   28.7295  -18.7931  -16.5683 C   0  0  0  0  0  0  0  0  0  0  0  0
   27.5882  -19.4523  -15.8155 C   0  0  2  0  0  0  0  0  0  0  0  0
   26.7221  -18.3147  -15.3200 C   0  0  0  0  0  0  0  0  0  0  0  0
   28.0916  -20.2231  -14.6200 C   0  0  2  0  0  0  0  0  0  0  0  0
   28.9680  -21.3077  -15.0334 N   0  0  0  0  0  0  0  0  0  0  0  0
   27.0112  -20.7736  -13.8096 C   0  0  0  0  0  0  0  0  0  0  0  0
   26.4791  -21.8726  -14.2223 O   0  0  0  0  0  0  0  0  0  0  0  0
   26.8637  -20.3794   -8.3640 C   0  0  0  0  0  0  0  0  0  0  0  0
   26.7203  -21.1027   -9.7095 C   0  0  0  0  0  0  0  0  0  0  0  0
   25.5160  -20.5728  -10.4234 C   0  0  2  0  0  0  0  0  0  0  0  0
   24.3034  -21.0031   -9.5884 C   0  0  0  0  0  0  0  0  0  0  0  0
   25.3981  -20.9369  -11.8606 C   0  0  2  0  0  0  0  0  0  0  0  0
   26.4667  -20.2641  -12.6257 N   0  0  0  0  0  0  0  0  0  0  0  0
   24.0851  -20.5791  -12.4081 C   0  0  0  0  0  0  0  0  0  0  0  0
   23.6996  -19.3656  -12.4943 O   0  0  0  0  0  0  0  0  0  0  0  0
   23.1916  -21.5762  -12.8743 N   0  0  0  0  0  0  0  0  0  0  0  0
   21.9012  -21.1686  -13.4487 C   0  0  1  0  0  0  0  0  0  0  0  0
   21.4322  -22.3452  -14.2872 C   0  0  0  0  0  0  0  0  0  0  0  0
   20.0896  -22.1557  -14.9079 C   0  0  0  0  0  0  0  0  0  0  0  0
   19.8052  -23.4132  -15.7342 C   0  0  0  0  0  0  0  0  0  0  0  0
   18.4299  -23.3046  -16.3859 C   0  0  0  0  0  0  0  0  0  0  0  0
   18.1979  -24.5129  -17.1400 N   0  0  0  0  0  0  0  0  0  0  0  0
   20.9799  -20.8470  -12.3659 C   0  0  0  0  0  0  0  0  0  0  0  0
   21.0677  -21.4091  -11.2555 O   0  0  0  0  0  0  0  0  0  0  0  0
   19.9481  -19.9034  -12.4837 O   0  0  0  0  0  0  0  0  0  0  0  0
  2  1  1  1
  2  4  1  0
  2  3  1  0
  4  6  1  0
  4  5  1  6
  6  7  2  0
  6 13  1  0
  9  8  1  0
 10  9  1  0
 10 11  1  1
 12 14  1  0
 12 10  1  0
 12 13  1  6
 14 15  2  0
 16 17  1  0
 16 14  1  0
 17 18  1  1
 19 18  1  0
 20 21  1  0
 20 19  1  0
 22 21  1  0
 23 25  1  0
 23 17  1  0
 24 23  2  0
M  END
$$$$
