VIK.pdb
     RDKit          3D

 25 24  0  0  1  0  0  0  0  0999 V2000
   29.2023  -19.4892  -13.9648 C   0  0  0  0  0  0  0  0  0  0  0  0
   28.1994  -19.2289  -15.0741 C   0  0  2  0  0  0  0  0  0  0  0  0
   28.8195  -18.1480  -15.9324 C   0  0  0  0  0  0  0  0  0  0  0  0
   26.8941  -18.7095  -14.5235 C   0  0  2  0  0  0  0  0  0  0  0  0
   27.0936  -17.4588  -13.8085 N   0  0  0  0  0  0  0  0  0  0  0  0
   26.2401  -19.6618  -13.6334 C   0  0  0  0  0  0  0  0  0  0  0  0
   25.8105  -20.7535  -14.1672 O   0  0  0  0  0  0  0  0  0  0  0  0
   27.1637  -20.4605   -8.2311 C   0  0  0  0  0  0  0  0  0  0  0  0
   26.8860  -20.8270   -9.6948 C   0  0  0  0  0  0  0  0  0  0  0  0
   25.4971  -20.3972  -10.0513 C   0  0  2  0  0  0  0  0  0  0  0  0
   24.5564  -21.2148   -9.1571 C   0  0  0  0  0  0  0  0  0  0  0  0
   25.1437  -20.4676  -11.4943 C   0  0  2  0  0  0  0  0  0  0  0  0
   26.0139  -19.5508  -12.2571 N   0  0  0  0  0  0  0  0  0  0  0  0
   23.7342  -20.1347  -11.7276 C   0  0  0  0  0  0  0  0  0  0  0  0
   23.2722  -18.9666  -11.5026 O   0  0  0  0  0  0  0  0  0  0  0  0
   22.8272  -21.1042  -12.2248 N   0  0  0  0  0  0  0  0  0  0  0  0
   21.4466  -20.7020  -12.5305 C   0  0  1  0  0  0  0  0  0  0  0  0
   21.1424  -21.2791  -13.9023 C   0  0  0  0  0  0  0  0  0  0  0  0
   19.7340  -21.0794  -14.3499 C   0  0  0  0  0  0  0  0  0  0  0  0
   19.6079  -21.7520  -15.7198 C   0  0  0  0  0  0  0  0  0  0  0  0
   18.2134  -21.5097  -16.2895 C   0  0  0  0  0  0  0  0  0  0  0  0
   18.1959  -21.9984  -17.6471 N   0  0  0  0  0  0  0  0  0  0  0  0
   20.5611  -21.2185  -11.4943 C   0  0  0  0  0  0  0  0  0  0  0  0
   20.8819  -22.2082  -10.8057 O   0  0  0  0  0  0  0  0  0  0  0  0
   19.3100  -20.6572  -11.1965 O   0  0  0  0  0  0  0  0  0  0  0  0
  2  1  1  1
  2  4  1  0
  2  3  1  0
  4  6  1  0
  4  5  1  1
  6  7  2  0
  6 13  1  0
  9  8  1  0
 10  9  1  0
 10 11  1  1
 12 14  1  0
 12 10  1  0
 12 13  1  6
 14 15  2  0
 16 17  1  0
 16 14  1  0
 17 18  1  6
 19 18  1  0
 20 21  1  0
 20 19  1  0
 22 21  1  0
 23 25  1  0
 23 17  1  0
 24 23  2  0
M  END
$$$$
