VIK.pdb
     RDKit          3D

 25 24  0  0  1  0  0  0  0  0999 V2000
   20.6695  -22.6125   -9.0347 C   0  0  0  0  0  0  0  0  0  0  0  0
   21.4036  -23.0622   -7.7844 C   0  0  2  0  0  0  0  0  0  0  0  0
   20.3695  -23.7832   -6.9475 C   0  0  0  0  0  0  0  0  0  0  0  0
   21.9170  -21.8831   -6.9952 C   0  0  2  0  0  0  0  0  0  0  0  0
   20.8313  -20.9813   -6.6441 N   0  0  0  0  0  0  0  0  0  0  0  0
   22.9417  -21.1307   -7.7099 C   0  0  0  0  0  0  0  0  0  0  0  0
   22.5341  -20.1668   -8.4623 O   0  0  0  0  0  0  0  0  0  0  0  0
   27.9476  -19.6879   -5.8387 C   0  0  0  0  0  0  0  0  0  0  0  0
   26.5544  -19.6298   -6.4787 C   0  0  0  0  0  0  0  0  0  0  0  0
   26.5705  -20.4099   -7.7562 C   0  0  2  0  0  0  0  0  0  0  0  0
   27.6968  -19.8092   -8.6069 C   0  0  0  0  0  0  0  0  0  0  0  0
   25.2742  -20.5023   -8.4793 C   0  0  2  0  0  0  0  0  0  0  0  0
   24.3286  -21.3144   -7.6880 N   0  0  0  0  0  0  0  0  0  0  0  0
   25.4362  -21.0799   -9.8180 C   0  0  0  0  0  0  0  0  0  0  0  0
   25.5949  -22.3336   -9.9955 O   0  0  0  0  0  0  0  0  0  0  0  0
   25.4129  -20.2607  -10.9748 N   0  0  0  0  0  0  0  0  0  0  0  0
   25.4834  -20.8925  -12.3004 C   0  0  1  0  0  0  0  0  0  0  0  0
   24.7101  -19.9784  -13.2352 C   0  0  0  0  0  0  0  0  0  0  0  0
   24.6776  -20.4409  -14.6525 C   0  0  0  0  0  0  0  0  0  0  0  0
   23.9056  -19.3813  -15.4439 C   0  0  0  0  0  0  0  0  0  0  0  0
   23.8631  -19.7658  -16.9197 C   0  0  0  0  0  0  0  0  0  0  0  0
   23.1403  -18.7367  -17.6273 N   0  0  0  0  0  0  0  0  0  0  0  0
   26.8821  -21.0361  -12.6842 C   0  0  0  0  0  0  0  0  0  0  0  0
   27.7622  -20.2921  -12.2061 O   0  0  0  0  0  0  0  0  0  0  0  0
   27.3378  -21.9985  -13.5981 O   0  0  0  0  0  0  0  0  0  0  0  0
  2  1  1  6
  2  4  1  0
  2  3  1  0
  4  6  1  0
  4  5  1  6
  6  7  2  0
  6 13  1  0
  9  8  1  0
 10  9  1  0
 10 11  1  6
 12 14  1  0
 12 10  1  0
 12 13  1  1
 14 15  2  0
 16 17  1  0
 16 14  1  0
 17 18  1  6
 19 18  1  0
 20 21  1  0
 20 19  1  0
 22 21  1  0
 23 25  1  0
 23 17  1  0
 24 23  2  0
M  END
$$$$
