FPI.pdb
     RDKit          3D

 27 28  0  0  1  0  0  0  0  0999 V2000
    5.4691  -18.0632   24.2792 N   0  0  0  0  0  0  0  0  0  0  0  0
    6.1026  -16.8198   24.4557 C   0  0  1  0  0  0  0  0  0  0  0  0
    6.0236  -16.4386   25.9279 C   0  0  0  0  0  0  0  0  0  0  0  0
    6.2596  -15.0128   26.1788 C   0  0  0  0  0  0  0  0  0  0  0  0
    5.3100  -14.0447   25.9069 C   0  0  0  0  0  0  0  0  0  0  0  0
    5.5102  -12.7024   26.1363 C   0  0  0  0  0  0  0  0  0  0  0  0
    6.7100  -12.2705   26.6641 C   0  0  0  0  0  0  0  0  0  0  0  0
    7.6744  -13.2077   26.9453 C   0  0  0  0  0  0  0  0  0  0  0  0
    7.4653  -14.5445   26.7130 C   0  0  0  0  0  0  0  0  0  0  0  0
    7.4678  -16.6335   23.9749 C   0  0  0  0  0  0  0  0  0  0  0  0
    8.3479  -17.3727   24.5801 O   0  0  0  0  0  0  0  0  0  0  0  0
    7.9780  -15.8023   22.9832 N   0  0  0  0  0  0  0  0  0  0  0  0
    7.1394  -15.2082   21.9097 C   0  0  0  0  0  0  0  0  0  0  0  0
    7.5802  -13.7470   22.0128 C   0  0  0  0  0  0  0  0  0  0  0  0
    8.9395  -13.7673   22.7208 C   0  0  0  0  0  0  0  0  0  0  0  0
    9.2555  -15.2779   22.6248 C   0  0  1  0  0  0  0  0  0  0  0  0
   10.4470  -15.6541   23.3326 C   0  0  0  0  0  0  0  0  0  0  0  0
   11.6336  -15.7279   22.9536 O   0  0  0  0  0  0  0  0  0  0  0  0
   11.0427  -13.3195   28.7466 C   0  0  0  0  0  0  0  0  0  0  0  0
   11.6619  -14.2469   27.7347 C   0  0  0  0  0  0  0  0  0  0  0  0
   10.6676  -14.6489   26.6671 C   0  0  2  0  0  0  0  0  0  0  0  0
    9.4177  -15.0956   27.3454 C   0  0  0  0  0  0  0  0  0  0  0  0
   11.2560  -15.6872   25.7364 C   0  0  2  0  0  0  0  0  0  0  0  0
   10.2738  -16.0146   24.7241 N   0  0  0  0  0  0  0  0  0  0  0  0
   11.6776  -16.8713   26.5067 C   0  0  0  0  0  0  0  0  0  0  0  0
   10.9715  -18.0465   26.3914 O   0  0  0  0  0  0  0  0  0  0  0  0
   12.6673  -16.8129   27.2594 O   0  0  0  0  0  0  0  0  0  0  0  0
  2  3  1  0
  2  1  1  1
  4  3  1  0
  5  4  2  0
  6  5  1  0
  7  8  1  0
  7  6  2  0
  8  9  2  0
  9  4  1  0
 10 12  1  0
 10  2  1  0
 11 10  2  0
 12 13  1  0
 14 13  1  0
 15 16  1  0
 15 14  1  0
 16 12  1  0
 17 24  1  0
 16 17  1  1
 18 17  2  0
 20 19  1  0
 21 23  1  0
 21 20  1  0
 21 22  1  1
 23 24  1  6
 25 26  1  0
 25 23  1  0
 27 25  2  0
M  END
$$$$
