FPI.pdb
     RDKit          3D

 27 28  0  0  1  0  0  0  0  0999 V2000
    5.8102  -16.6486   26.0410 N   0  0  0  0  0  0  0  0  0  0  0  0
    6.6753  -15.8219   25.3016 C   0  0  1  0  0  0  0  0  0  0  0  0
    7.3888  -14.8813   26.2634 C   0  0  0  0  0  0  0  0  0  0  0  0
    6.6710  -13.6234   26.4954 C   0  0  0  0  0  0  0  0  0  0  0  0
    5.5383  -13.2734   25.7830 C   0  0  0  0  0  0  0  0  0  0  0  0
    4.8489  -12.0996   25.9859 C   0  0  0  0  0  0  0  0  0  0  0  0
    5.2866  -11.2063   26.9426 C   0  0  0  0  0  0  0  0  0  0  0  0
    6.4094  -11.5246   27.6676 C   0  0  0  0  0  0  0  0  0  0  0  0
    7.0902  -12.6980   27.4578 C   0  0  0  0  0  0  0  0  0  0  0  0
    7.6477  -16.4256   24.3962 C   0  0  0  0  0  0  0  0  0  0  0  0
    8.1321  -17.5553   24.8162 O   0  0  0  0  0  0  0  0  0  0  0  0
    8.1369  -15.9949   23.1674 N   0  0  0  0  0  0  0  0  0  0  0  0
    7.2610  -15.5167   22.0662 C   0  0  0  0  0  0  0  0  0  0  0  0
    7.9696  -14.2061   21.7195 C   0  0  0  0  0  0  0  0  0  0  0  0
    9.3972  -14.3447   22.2602 C   0  0  0  0  0  0  0  0  0  0  0  0
    9.4155  -15.8639   22.5480 C   0  0  1  0  0  0  0  0  0  0  0  0
   10.6157  -16.3024   23.2032 C   0  0  0  0  0  0  0  0  0  0  0  0
   11.7317  -16.6147   22.7405 O   0  0  0  0  0  0  0  0  0  0  0  0
   10.6288  -14.6816   28.6900 C   0  0  0  0  0  0  0  0  0  0  0  0
   10.6034  -15.6745   27.5582 C   0  0  0  0  0  0  0  0  0  0  0  0
   11.6437  -15.3483   26.5087 C   0  0  2  0  0  0  0  0  0  0  0  0
   11.3152  -14.0132   25.9328 C   0  0  0  0  0  0  0  0  0  0  0  0
   11.7380  -16.4481   25.4733 C   0  0  2  0  0  0  0  0  0  0  0  0
   10.5505  -16.4107   24.6455 N   0  0  0  0  0  0  0  0  0  0  0  0
   11.9115  -17.7517   26.1392 C   0  0  0  0  0  0  0  0  0  0  0  0
   10.9001  -18.6831   26.0889 O   0  0  0  0  0  0  0  0  0  0  0  0
   12.9667  -18.0132   26.7457 O   0  0  0  0  0  0  0  0  0  0  0  0
  2  3  1  0
  2  1  1  1
  4  3  1  0
  5  4  2  0
  6  5  1  0
  7  8  1  0
  7  6  2  0
  8  9  2  0
  9  4  1  0
 10 12  1  0
 10  2  1  0
 11 10  2  0
 12 13  1  0
 14 13  1  0
 15 16  1  0
 15 14  1  0
 16 12  1  0
 17 24  1  0
 16 17  1  1
 18 17  2  0
 20 19  1  0
 21 23  1  0
 21 20  1  0
 21 22  1  6
 23 24  1  1
 25 26  1  0
 25 23  1  0
 27 25  2  0
M  END
$$$$
