FPI.pdb
     RDKit          3D

 27 28  0  0  1  0  0  0  0  0999 V2000
   11.9837  -15.7945   20.5967 N   0  0  0  0  0  0  0  0  0  0  0  0
   10.6940  -15.3312   20.9135 C   0  0  1  0  0  0  0  0  0  0  0  0
    9.6998  -15.9621   19.9478 C   0  0  0  0  0  0  0  0  0  0  0  0
    8.4297  -15.2344   19.8540 C   0  0  0  0  0  0  0  0  0  0  0  0
    7.2567  -15.7154   20.4070 C   0  0  0  0  0  0  0  0  0  0  0  0
    6.0552  -15.0482   20.3321 C   0  0  0  0  0  0  0  0  0  0  0  0
    5.9866  -13.8349   19.6780 C   0  0  0  0  0  0  0  0  0  0  0  0
    7.1347  -13.3297   19.1176 C   0  0  0  0  0  0  0  0  0  0  0  0
    8.3285  -14.0027   19.1976 C   0  0  0  0  0  0  0  0  0  0  0  0
   10.1985  -15.4616   22.2800 C   0  0  0  0  0  0  0  0  0  0  0  0
   10.6137  -16.5281   22.8943 O   0  0  0  0  0  0  0  0  0  0  0  0
    9.3624  -14.6387   23.0274 N   0  0  0  0  0  0  0  0  0  0  0  0
    9.0046  -13.2558   22.6172 C   0  0  0  0  0  0  0  0  0  0  0  0
    7.4847  -13.3210   22.7780 C   0  0  0  0  0  0  0  0  0  0  0  0
    7.2128  -14.4921   23.7288 C   0  0  0  0  0  0  0  0  0  0  0  0
    8.6460  -14.7304   24.2578 C   0  0  1  0  0  0  0  0  0  0  0  0
    8.7532  -15.8851   25.1048 C   0  0  0  0  0  0  0  0  0  0  0  0
    8.6162  -17.0994   24.8520 O   0  0  0  0  0  0  0  0  0  0  0  0
   10.1669  -14.0134   30.0492 C   0  0  0  0  0  0  0  0  0  0  0  0
   10.1117  -14.6870   28.7035 C   0  0  0  0  0  0  0  0  0  0  0  0
    9.5547  -16.0903   28.8064 C   0  0  2  0  0  0  0  0  0  0  0  0
   10.4678  -16.8866   29.6747 C   0  0  0  0  0  0  0  0  0  0  0  0
    9.3423  -16.6949   27.4353 C   0  0  2  0  0  0  0  0  0  0  0  0
    9.0733  -15.6286   26.4933 N   0  0  0  0  0  0  0  0  0  0  0  0
    8.2490  -17.6824   27.4854 C   0  0  0  0  0  0  0  0  0  0  0  0
    8.5218  -18.9843   27.8370 O   0  0  0  0  0  0  0  0  0  0  0  0
    7.0826  -17.3447   27.2115 O   0  0  0  0  0  0  0  0  0  0  0  0
  2  3  1  0
  2  1  1  1
  4  3  1  0
  5  4  2  0
  6  5  1  0
  7  8  1  0
  7  6  2  0
  8  9  2  0
  9  4  1  0
 10 12  1  0
 10  2  1  0
 11 10  2  0
 12 13  1  0
 14 13  1  0
 15 16  1  0
 15 14  1  0
 16 12  1  0
 17 24  1  0
 16 17  1  6
 18 17  2  0
 20 19  1  0
 21 23  1  0
 21 20  1  0
 21 22  1  1
 23 24  1  6
 25 26  1  0
 25 23  1  0
 27 25  2  0
M  END
$$$$
