FPI.pdb
     RDKit          3D

 27 28  0  0  1  0  0  0  0  0999 V2000
    5.5157  -18.0947   24.4425 N   0  0  0  0  0  0  0  0  0  0  0  0
    6.1781  -16.8608   24.5732 C   0  0  1  0  0  0  0  0  0  0  0  0
    6.0759  -16.4053   26.0227 C   0  0  0  0  0  0  0  0  0  0  0  0
    6.2749  -14.9629   26.2004 C   0  0  0  0  0  0  0  0  0  0  0  0
    5.3192  -14.0319   25.8358 C   0  0  0  0  0  0  0  0  0  0  0  0
    5.4847  -12.6749   25.9954 C   0  0  0  0  0  0  0  0  0  0  0  0
    6.6538  -12.1886   26.5446 C   0  0  0  0  0  0  0  0  0  0  0  0
    7.6233  -13.0880   26.9171 C   0  0  0  0  0  0  0  0  0  0  0  0
    7.4488  -14.4398   26.7539 C   0  0  0  0  0  0  0  0  0  0  0  0
    7.5584  -16.7336   24.1167 C   0  0  0  0  0  0  0  0  0  0  0  0
    8.3939  -17.5143   24.7328 O   0  0  0  0  0  0  0  0  0  0  0  0
    8.1222  -15.9215   23.1383 N   0  0  0  0  0  0  0  0  0  0  0  0
    7.3475  -15.3636   21.9994 C   0  0  0  0  0  0  0  0  0  0  0  0
    7.7668  -13.8954   22.0929 C   0  0  0  0  0  0  0  0  0  0  0  0
    9.0788  -13.8830   22.8854 C   0  0  0  0  0  0  0  0  0  0  0  0
    9.4148  -15.3918   22.8479 C   0  0  1  0  0  0  0  0  0  0  0  0
   10.5627  -15.7370   23.6387 C   0  0  0  0  0  0  0  0  0  0  0  0
   11.7131  -16.0831   23.3014 O   0  0  0  0  0  0  0  0  0  0  0  0
    9.8576  -14.4166   29.1795 C   0  0  0  0  0  0  0  0  0  0  0  0
   10.0512  -15.2880   27.9668 C   0  0  0  0  0  0  0  0  0  0  0  0
   11.2587  -14.8598   27.1613 C   0  0  2  0  0  0  0  0  0  0  0  0
   11.0623  -13.4391   26.7551 C   0  0  0  0  0  0  0  0  0  0  0  0
   11.4972  -15.7956   25.9960 C   0  0  2  0  0  0  0  0  0  0  0  0
   10.3858  -15.6839   25.0747 N   0  0  0  0  0  0  0  0  0  0  0  0
   11.6769  -17.1739   26.4870 C   0  0  0  0  0  0  0  0  0  0  0  0
   10.7460  -18.1367   26.1719 O   0  0  0  0  0  0  0  0  0  0  0  0
   12.6649  -17.4701   27.1840 O   0  0  0  0  0  0  0  0  0  0  0  0
  2  3  1  0
  2  1  1  1
  4  3  1  0
  5  4  2  0
  6  5  1  0
  7  8  1  0
  7  6  2  0
  8  9  2  0
  9  4  1  0
 10 12  1  0
 10  2  1  0
 11 10  2  0
 12 13  1  0
 14 13  1  0
 15 16  1  0
 15 14  1  0
 16 12  1  0
 17 24  1  0
 16 17  1  1
 18 17  2  0
 20 19  1  0
 21 23  1  0
 21 20  1  0
 21 22  1  6
 23 24  1  6
 25 26  1  0
 25 23  1  0
 27 25  2  0
M  END
$$$$
