FPI.pdb
     RDKit          3D

 27 28  0  0  1  0  0  0  0  0999 V2000
    5.6356  -18.2636   24.2999 N   0  0  0  0  0  0  0  0  0  0  0  0
    6.0988  -16.9467   24.4718 C   0  0  1  0  0  0  0  0  0  0  0  0
    5.7306  -16.4809   25.8740 C   0  0  0  0  0  0  0  0  0  0  0  0
    5.8041  -15.0262   26.0478 C   0  0  0  0  0  0  0  0  0  0  0  0
    4.7499  -14.1876   25.7341 C   0  0  0  0  0  0  0  0  0  0  0  0
    4.7971  -12.8210   25.8911 C   0  0  0  0  0  0  0  0  0  0  0  0
    5.9417  -12.2287   26.3847 C   0  0  0  0  0  0  0  0  0  0  0  0
    7.0071  -13.0345   26.7058 C   0  0  0  0  0  0  0  0  0  0  0  0
    6.9504  -14.3968   26.5457 C   0  0  0  0  0  0  0  0  0  0  0  0
    7.4998  -16.6366   24.2055 C   0  0  0  0  0  0  0  0  0  0  0  0
    8.3376  -17.2834   24.9583 O   0  0  0  0  0  0  0  0  0  0  0  0
    8.0813  -15.7702   23.2856 N   0  0  0  0  0  0  0  0  0  0  0  0
    7.3058  -15.0588   22.2364 C   0  0  0  0  0  0  0  0  0  0  0  0
    7.8226  -13.6350   22.4503 C   0  0  0  0  0  0  0  0  0  0  0  0
    9.1590  -13.7795   23.1869 C   0  0  0  0  0  0  0  0  0  0  0  0
    9.3947  -15.2955   22.9943 C   0  0  1  0  0  0  0  0  0  0  0  0
   10.5443  -15.7850   23.7022 C   0  0  0  0  0  0  0  0  0  0  0  0
   11.7228  -15.9544   23.3288 O   0  0  0  0  0  0  0  0  0  0  0  0
   11.7729  -13.0298   28.2840 C   0  0  0  0  0  0  0  0  0  0  0  0
   12.0779  -14.0143   27.1861 C   0  0  0  0  0  0  0  0  0  0  0  0
   11.0576  -15.1310   27.1412 C   0  0  2  0  0  0  0  0  0  0  0  0
   10.9630  -15.7247   28.5053 C   0  0  0  0  0  0  0  0  0  0  0  0
   11.3982  -16.1385   26.0644 C   0  0  2  0  0  0  0  0  0  0  0  0
   10.3307  -16.1526   25.0862 N   0  0  0  0  0  0  0  0  0  0  0  0
   11.6175  -17.4651   26.6685 C   0  0  0  0  0  0  0  0  0  0  0  0
   12.7376  -17.6882   27.4355 O   0  0  0  0  0  0  0  0  0  0  0  0
   10.7956  -18.3825   26.4881 O   0  0  0  0  0  0  0  0  0  0  0  0
  2  3  1  0
  2  1  1  1
  4  3  1  0
  5  4  2  0
  6  5  1  0
  7  8  1  0
  7  6  2  0
  8  9  2  0
  9  4  1  0
 10 12  1  0
 10  2  1  0
 11 10  2  0
 12 13  1  0
 14 13  1  0
 15 16  1  0
 15 14  1  0
 16 12  1  0
 17 24  1  0
 16 17  1  1
 18 17  2  0
 20 19  1  0
 21 23  1  0
 21 20  1  0
 21 22  1  1
 23 24  1  6
 25 26  1  0
 25 23  1  0
 27 25  2  0
M  END
$$$$
