FPI.pdb
     RDKit          3D

 27 28  0  0  1  0  0  0  0  0999 V2000
    5.5414  -16.9326   25.9878 N   0  0  0  0  0  0  0  0  0  0  0  0
    6.0538  -16.4240   24.7806 C   0  0  1  0  0  0  0  0  0  0  0  0
    5.4724  -15.0351   24.5526 C   0  0  0  0  0  0  0  0  0  0  0  0
    6.0202  -14.0142   25.4521 C   0  0  0  0  0  0  0  0  0  0  0  0
    7.2991  -13.5077   25.3079 C   0  0  0  0  0  0  0  0  0  0  0  0
    7.8318  -12.5487   26.1392 C   0  0  0  0  0  0  0  0  0  0  0  0
    7.0745  -12.0480   27.1787 C   0  0  0  0  0  0  0  0  0  0  0  0
    5.7996  -12.5308   27.3490 C   0  0  0  0  0  0  0  0  0  0  0  0
    5.2772  -13.4875   26.5145 C   0  0  0  0  0  0  0  0  0  0  0  0
    7.4974  -16.3905   24.5695 C   0  0  0  0  0  0  0  0  0  0  0  0
    8.1946  -16.6408   25.6366 O   0  0  0  0  0  0  0  0  0  0  0  0
    8.2441  -16.1376   23.4235 N   0  0  0  0  0  0  0  0  0  0  0  0
    7.6522  -16.0940   22.0610 C   0  0  0  0  0  0  0  0  0  0  0  0
    8.2344  -14.7689   21.5659 C   0  0  0  0  0  0  0  0  0  0  0  0
    9.4582  -14.4927   22.4465 C   0  0  0  0  0  0  0  0  0  0  0  0
    9.6124  -15.8795   23.1127 C   0  0  1  0  0  0  0  0  0  0  0  0
   10.6313  -15.9126   24.1241 C   0  0  0  0  0  0  0  0  0  0  0  0
   11.8427  -15.6176   24.0736 O   0  0  0  0  0  0  0  0  0  0  0  0
    9.0329  -13.1975   28.0595 C   0  0  0  0  0  0  0  0  0  0  0  0
    9.9734  -13.9413   27.1485 C   0  0  0  0  0  0  0  0  0  0  0  0
   10.2040  -15.3591   27.6248 C   0  0  2  0  0  0  0  0  0  0  0  0
   10.8263  -15.2958   28.9778 C   0  0  0  0  0  0  0  0  0  0  0  0
   11.0169  -16.1468   26.6202 C   0  0  2  0  0  0  0  0  0  0  0  0
   10.2121  -16.3604   25.4356 N   0  0  0  0  0  0  0  0  0  0  0  0
   11.4686  -17.4142   27.2224 C   0  0  0  0  0  0  0  0  0  0  0  0
   12.6298  -17.4430   27.9597 O   0  0  0  0  0  0  0  0  0  0  0  0
   10.8057  -18.4563   27.0671 O   0  0  0  0  0  0  0  0  0  0  0  0
  2  3  1  0
  2  1  1  1
  4  3  1  0
  5  4  2  0
  6  5  1  0
  7  8  1  0
  7  6  2  0
  8  9  2  0
  9  4  1  0
 10 12  1  0
 10  2  1  0
 11 10  2  0
 12 13  1  0
 14 13  1  0
 15 16  1  0
 15 14  1  0
 16 12  1  0
 17 24  1  0
 16 17  1  1
 18 17  2  0
 20 19  1  0
 21 23  1  0
 21 20  1  0
 21 22  1  1
 23 24  1  6
 25 26  1  0
 25 23  1  0
 27 25  2  0
M  END
$$$$
