FPI.pdb
     RDKit          3D

 27 28  0  0  1  0  0  0  0  0999 V2000
    5.7777  -18.0150   25.0363 N   0  0  0  0  0  0  0  0  0  0  0  0
    6.1961  -17.1224   24.0330 C   0  0  1  0  0  0  0  0  0  0  0  0
    5.3802  -15.8420   24.1502 C   0  0  0  0  0  0  0  0  0  0  0  0
    6.0023  -14.8254   25.0051 C   0  0  0  0  0  0  0  0  0  0  0  0
    5.9763  -14.9005   26.3859 C   0  0  0  0  0  0  0  0  0  0  0  0
    6.5551  -13.9589   27.2063 C   0  0  0  0  0  0  0  0  0  0  0  0
    7.2015  -12.8732   26.6512 C   0  0  0  0  0  0  0  0  0  0  0  0
    7.2448  -12.7694   25.2820 C   0  0  0  0  0  0  0  0  0  0  0  0
    6.6645  -13.7138   24.4720 C   0  0  0  0  0  0  0  0  0  0  0  0
    7.6120  -16.7905   23.9105 C   0  0  0  0  0  0  0  0  0  0  0  0
    8.3306  -17.1513   24.9306 O   0  0  0  0  0  0  0  0  0  0  0  0
    8.3134  -16.1574   22.8898 N   0  0  0  0  0  0  0  0  0  0  0  0
    7.7395  -15.9098   21.5415 C   0  0  0  0  0  0  0  0  0  0  0  0
    8.0763  -14.4260   21.3831 C   0  0  0  0  0  0  0  0  0  0  0  0
    9.2188  -14.1473   22.3661 C   0  0  0  0  0  0  0  0  0  0  0  0
    9.6153  -15.6003   22.7162 C   0  0  1  0  0  0  0  0  0  0  0  0
   10.6113  -15.6836   23.7474 C   0  0  0  0  0  0  0  0  0  0  0  0
   11.8516  -15.5564   23.6976 O   0  0  0  0  0  0  0  0  0  0  0  0
    8.8473  -13.0036   27.9710 C   0  0  0  0  0  0  0  0  0  0  0  0
    9.8486  -13.6162   27.0277 C   0  0  0  0  0  0  0  0  0  0  0  0
   10.0652  -15.0845   27.3233 C   0  0  2  0  0  0  0  0  0  0  0  0
   10.6226  -15.2005   28.7009 C   0  0  0  0  0  0  0  0  0  0  0  0
   10.9295  -15.7328   26.2634 C   0  0  2  0  0  0  0  0  0  0  0  0
   10.1239  -15.9615   25.0822 N   0  0  0  0  0  0  0  0  0  0  0  0
   11.5164  -16.9795   26.7870 C   0  0  0  0  0  0  0  0  0  0  0  0
   11.1538  -18.1873   26.2370 O   0  0  0  0  0  0  0  0  0  0  0  0
   12.3369  -16.9446   27.7226 O   0  0  0  0  0  0  0  0  0  0  0  0
  2  3  1  0
  2  1  1  1
  4  3  1  0
  5  4  2  0
  6  5  1  0
  7  8  1  0
  7  6  2  0
  8  9  2  0
  9  4  1  0
 10 12  1  0
 10  2  1  0
 11 10  2  0
 12 13  1  0
 14 13  1  0
 15 16  1  0
 15 14  1  0
 16 12  1  0
 17 24  1  0
 16 17  1  1
 18 17  2  0
 20 19  1  0
 21 23  1  0
 21 20  1  0
 21 22  1  1
 23 24  1  6
 25 26  1  0
 25 23  1  0
 27 25  2  0
M  END
$$$$
