FPI.pdb
     RDKit          3D

 27 28  0  0  1  0  0  0  0  0999 V2000
    5.7430  -17.0679   25.7549 N   0  0  0  0  0  0  0  0  0  0  0  0
    6.3614  -16.6321   24.5690 C   0  0  1  0  0  0  0  0  0  0  0  0
    5.7456  -15.3005   24.1606 C   0  0  0  0  0  0  0  0  0  0  0  0
    6.1270  -14.1849   25.0333 C   0  0  0  0  0  0  0  0  0  0  0  0
    5.3838  -13.8233   26.1423 C   0  0  0  0  0  0  0  0  0  0  0  0
    5.7245  -12.7816   26.9749 C   0  0  0  0  0  0  0  0  0  0  0  0
    6.8605  -12.0421   26.7151 C   0  0  0  0  0  0  0  0  0  0  0  0
    7.6205  -12.3761   25.6205 C   0  0  0  0  0  0  0  0  0  0  0  0
    7.2724  -13.4170   24.7958 C   0  0  0  0  0  0  0  0  0  0  0  0
    7.8164  -16.5367   24.5098 C   0  0  0  0  0  0  0  0  0  0  0  0
    8.4084  -16.7607   25.6441 O   0  0  0  0  0  0  0  0  0  0  0  0
    8.6672  -16.2485   23.4477 N   0  0  0  0  0  0  0  0  0  0  0  0
    8.2499  -16.3398   22.0243 C   0  0  0  0  0  0  0  0  0  0  0  0
    8.7343  -14.9783   21.5226 C   0  0  0  0  0  0  0  0  0  0  0  0
    9.7982  -14.5157   22.5243 C   0  0  0  0  0  0  0  0  0  0  0  0
   10.0251  -15.8414   23.2871 C   0  0  1  0  0  0  0  0  0  0  0  0
   10.9060  -15.7043   24.4129 C   0  0  0  0  0  0  0  0  0  0  0  0
   11.9357  -15.0162   24.5656 O   0  0  0  0  0  0  0  0  0  0  0  0
    9.6471  -12.7545   27.4260 C   0  0  0  0  0  0  0  0  0  0  0  0
   10.5621  -13.8103   26.8641 C   0  0  0  0  0  0  0  0  0  0  0  0
   10.3805  -15.1366   27.5698 C   0  0  2  0  0  0  0  0  0  0  0  0
   10.7486  -14.9511   29.0023 C   0  0  0  0  0  0  0  0  0  0  0  0
   11.1631  -16.2333   26.8803 C   0  0  2  0  0  0  0  0  0  0  0  0
   10.5681  -16.4850   25.5845 N   0  0  0  0  0  0  0  0  0  0  0  0
   11.1878  -17.4406   27.7256 C   0  0  0  0  0  0  0  0  0  0  0  0
   10.4547  -18.5454   27.3581 O   0  0  0  0  0  0  0  0  0  0  0  0
   11.8674  -17.4652   28.7683 O   0  0  0  0  0  0  0  0  0  0  0  0
  2  3  1  0
  2  1  1  1
  4  3  1  0
  5  4  2  0
  6  5  1  0
  7  8  1  0
  7  6  2  0
  8  9  2  0
  9  4  1  0
 10 12  1  0
 10  2  1  0
 11 10  2  0
 12 13  1  0
 14 13  1  0
 15 16  1  0
 15 14  1  0
 16 12  1  0
 17 24  1  0
 16 17  1  1
 18 17  2  0
 20 19  1  0
 21 23  1  0
 21 20  1  0
 21 22  1  1
 23 24  1  6
 25 26  1  0
 25 23  1  0
 27 25  2  0
M  END
$$$$
