FPI.pdb
     RDKit          3D

 27 28  0  0  1  0  0  0  0  0999 V2000
    5.9420  -17.9905   26.5048 N   0  0  0  0  0  0  0  0  0  0  0  0
    6.9153  -16.9797   26.4078 C   0  0  1  0  0  0  0  0  0  0  0  0
    7.7837  -17.0193   27.6580 C   0  0  0  0  0  0  0  0  0  0  0  0
    8.5216  -15.7749   27.9002 C   0  0  0  0  0  0  0  0  0  0  0  0
    7.9162  -14.5323   27.8520 C   0  0  0  0  0  0  0  0  0  0  0  0
    8.5892  -13.3531   28.0777 C   0  0  0  0  0  0  0  0  0  0  0  0
    9.9379  -13.3807   28.3692 C   0  0  0  0  0  0  0  0  0  0  0  0
   10.5689  -14.5998   28.4245 C   0  0  0  0  0  0  0  0  0  0  0  0
    9.8889  -15.7706   28.1978 C   0  0  0  0  0  0  0  0  0  0  0  0
    7.7656  -16.9115   25.2237 C   0  0  0  0  0  0  0  0  0  0  0  0
    8.6108  -17.8925   25.1214 O   0  0  0  0  0  0  0  0  0  0  0  0
    7.8196  -15.9773   24.1945 N   0  0  0  0  0  0  0  0  0  0  0  0
    6.6405  -15.1901   23.7487 C   0  0  0  0  0  0  0  0  0  0  0  0
    7.2466  -13.7856   23.7560 C   0  0  0  0  0  0  0  0  0  0  0  0
    8.7648  -13.9829   23.6813 C   0  0  0  0  0  0  0  0  0  0  0  0
    8.8097  -15.4797   23.2959 C   0  0  1  0  0  0  0  0  0  0  0  0
   10.1403  -16.0191   23.2712 C   0  0  0  0  0  0  0  0  0  0  0  0
   11.0496  -15.9906   24.1252 O   0  0  0  0  0  0  0  0  0  0  0  0
   11.3668  -18.9171   18.4311 C   0  0  0  0  0  0  0  0  0  0  0  0
   11.4122  -17.8647   19.5072 C   0  0  0  0  0  0  0  0  0  0  0  0
   11.6608  -18.4734   20.8702 C   0  0  2  0  0  0  0  0  0  0  0  0
   10.5717  -19.4537   21.1435 C   0  0  0  0  0  0  0  0  0  0  0  0
   11.7914  -17.4016   21.9308 C   0  0  2  0  0  0  0  0  0  0  0  0
   10.5204  -16.7207   22.0630 N   0  0  0  0  0  0  0  0  0  0  0  0
   12.8844  -16.4771   21.5792 C   0  0  0  0  0  0  0  0  0  0  0  0
   14.1907  -16.8547   21.7885 O   0  0  0  0  0  0  0  0  0  0  0  0
   12.6314  -15.3586   21.0949 O   0  0  0  0  0  0  0  0  0  0  0  0
  2  3  1  0
  2  1  1  6
  4  3  1  0
  5  4  2  0
  6  5  1  0
  7  8  1  0
  7  6  2  0
  8  9  2  0
  9  4  1  0
 10 12  1  0
 10  2  1  0
 11 10  2  0
 12 13  1  0
 14 13  1  0
 15 16  1  0
 15 14  1  0
 16 12  1  0
 17 24  1  0
 16 17  1  1
 18 17  2  0
 20 19  1  0
 21 23  1  0
 21 20  1  0
 21 22  1  1
 23 24  1  6
 25 26  1  0
 25 23  1  0
 27 25  2  0
M  END
$$$$
