FPI.pdb
     RDKit          3D

 27 28  0  0  1  0  0  0  0  0999 V2000
    5.2041  -17.9501   24.0649 N   0  0  0  0  0  0  0  0  0  0  0  0
    5.9879  -16.8299   24.3954 C   0  0  1  0  0  0  0  0  0  0  0  0
    5.9440  -16.6340   25.9049 C   0  0  0  0  0  0  0  0  0  0  0  0
    6.4526  -15.3298   26.3429 C   0  0  0  0  0  0  0  0  0  0  0  0
    7.6157  -15.1966   27.0794 C   0  0  0  0  0  0  0  0  0  0  0  0
    8.1114  -13.9830   27.4987 C   0  0  0  0  0  0  0  0  0  0  0  0
    7.4348  -12.8222   27.1831 C   0  0  0  0  0  0  0  0  0  0  0  0
    6.2756  -12.9206   26.4524 C   0  0  0  0  0  0  0  0  0  0  0  0
    5.7891  -14.1359   26.0386 C   0  0  0  0  0  0  0  0  0  0  0  0
    7.3702  -16.7577   23.9330 C   0  0  0  0  0  0  0  0  0  0  0  0
    8.1827  -17.5485   24.5669 O   0  0  0  0  0  0  0  0  0  0  0  0
    7.9565  -15.9887   22.9331 N   0  0  0  0  0  0  0  0  0  0  0  0
    7.2341  -15.5635   21.7060 C   0  0  0  0  0  0  0  0  0  0  0  0
    7.5665  -14.0703   21.7118 C   0  0  0  0  0  0  0  0  0  0  0  0
    8.8174  -13.9219   22.5850 C   0  0  0  0  0  0  0  0  0  0  0  0
    9.2358  -15.4070   22.6874 C   0  0  1  0  0  0  0  0  0  0  0  0
   10.3427  -15.6243   23.5760 C   0  0  0  0  0  0  0  0  0  0  0  0
   11.5667  -15.7131   23.3501 O   0  0  0  0  0  0  0  0  0  0  0  0
    9.2661  -12.7653   27.9693 C   0  0  0  0  0  0  0  0  0  0  0  0
   10.0514  -13.4333   26.8717 C   0  0  0  0  0  0  0  0  0  0  0  0
   10.3347  -14.8844   27.1944 C   0  0  2  0  0  0  0  0  0  0  0  0
   11.1376  -14.9296   28.4495 C   0  0  0  0  0  0  0  0  0  0  0  0
   10.9960  -15.5841   26.0266 C   0  0  2  0  0  0  0  0  0  0  0  0
   10.0141  -15.7691   24.9786 N   0  0  0  0  0  0  0  0  0  0  0  0
   11.5820  -16.8611   26.4723 C   0  0  0  0  0  0  0  0  0  0  0  0
   11.0094  -18.0484   26.0781 O   0  0  0  0  0  0  0  0  0  0  0  0
   12.5903  -16.8703   27.2022 O   0  0  0  0  0  0  0  0  0  0  0  0
  2  3  1  0
  2  1  1  1
  4  3  1  0
  5  4  2  0
  6  5  1  0
  7  8  1  0
  7  6  2  0
  8  9  2  0
  9  4  1  0
 10 12  1  0
 10  2  1  0
 11 10  2  0
 12 13  1  0
 14 13  1  0
 15 16  1  0
 15 14  1  0
 16 12  1  0
 17 24  1  0
 16 17  1  1
 18 17  2  0
 20 19  1  0
 21 23  1  0
 21 20  1  0
 21 22  1  1
 23 24  1  6
 25 26  1  0
 25 23  1  0
 27 25  2  0
M  END
$$$$
