FPI.pdb
     RDKit          3D

 27 28  0  0  1  0  0  0  0  0999 V2000
    5.9423  -20.9074   24.8728 N   0  0  0  0  0  0  0  0  0  0  0  0
    6.2227  -19.5640   24.5640 C   0  0  1  0  0  0  0  0  0  0  0  0
    7.1979  -19.0204   25.5995 C   0  0  0  0  0  0  0  0  0  0  0  0
    7.3308  -17.5599   25.5712 C   0  0  0  0  0  0  0  0  0  0  0  0
    8.5562  -16.9248   25.6612 C   0  0  0  0  0  0  0  0  0  0  0  0
    8.7034  -15.5566   25.6348 C   0  0  0  0  0  0  0  0  0  0  0  0
    7.5892  -14.7513   25.5130 C   0  0  0  0  0  0  0  0  0  0  0  0
    6.3569  -15.3516   25.4215 C   0  0  0  0  0  0  0  0  0  0  0  0
    6.2203  -16.7174   25.4488 C   0  0  0  0  0  0  0  0  0  0  0  0
    6.6867  -19.2157   23.2250 C   0  0  0  0  0  0  0  0  0  0  0  0
    7.9794  -19.2044   23.0987 O   0  0  0  0  0  0  0  0  0  0  0  0
    5.9789  -18.8969   22.0707 N   0  0  0  0  0  0  0  0  0  0  0  0
    4.6721  -19.5130   21.7224 C   0  0  0  0  0  0  0  0  0  0  0  0
    3.8652  -18.2523   21.4067 C   0  0  0  0  0  0  0  0  0  0  0  0
    4.8957  -17.1603   21.0985 C   0  0  0  0  0  0  0  0  0  0  0  0
    6.1603  -18.0372   20.9467 C   0  0  1  0  0  0  0  0  0  0  0  0
    7.3631  -17.2723   20.7727 C   0  0  0  0  0  0  0  0  0  0  0  0
    8.2264  -17.3007   19.8721 O   0  0  0  0  0  0  0  0  0  0  0  0
    6.6275  -12.3988   23.2068 C   0  0  0  0  0  0  0  0  0  0  0  0
    7.2560  -13.7597   23.0636 C   0  0  0  0  0  0  0  0  0  0  0  0
    7.9635  -13.9084   21.7342 C   0  0  2  0  0  0  0  0  0  0  0  0
    6.9708  -13.6526   20.6520 C   0  0  0  0  0  0  0  0  0  0  0  0
    8.6439  -15.2560   21.6259 C   0  0  2  0  0  0  0  0  0  0  0  0
    7.6500  -16.2943   21.8010 N   0  0  0  0  0  0  0  0  0  0  0  0
    9.7299  -15.3518   22.6181 C   0  0  0  0  0  0  0  0  0  0  0  0
    9.6306  -16.2534   23.6526 O   0  0  0  0  0  0  0  0  0  0  0  0
   10.7342  -14.6223   22.5245 O   0  0  0  0  0  0  0  0  0  0  0  0
  2  3  1  0
  2  1  1  6
  4  3  1  0
  5  4  2  0
  6  5  1  0
  7  8  1  0
  7  6  2  0
  8  9  2  0
  9  4  1  0
 10 12  1  0
 10  2  1  0
 11 10  2  0
 12 13  1  0
 14 13  1  0
 15 16  1  0
 15 14  1  0
 16 12  1  0
 17 24  1  0
 16 17  1  1
 18 17  2  0
 20 19  1  0
 21 23  1  0
 21 20  1  0
 21 22  1  6
 23 24  1  1
 25 26  1  0
 25 23  1  0
 27 25  2  0
M  END
$$$$
