FPI.pdb
     RDKit          3D

 27 28  0  0  1  0  0  0  0  0999 V2000
    5.2939  -17.7858   24.2892 N   0  0  0  0  0  0  0  0  0  0  0  0
    6.0874  -16.6437   24.5000 C   0  0  1  0  0  0  0  0  0  0  0  0
    6.0696  -16.3067   25.9850 C   0  0  0  0  0  0  0  0  0  0  0  0
    6.3655  -14.8989   26.2713 C   0  0  0  0  0  0  0  0  0  0  0  0
    7.6139  -14.4731   26.6873 C   0  0  0  0  0  0  0  0  0  0  0  0
    7.9132  -13.1575   26.9594 C   0  0  0  0  0  0  0  0  0  0  0  0
    6.9378  -12.1913   26.8188 C   0  0  0  0  0  0  0  0  0  0  0  0
    5.6866  -12.5820   26.4072 C   0  0  0  0  0  0  0  0  0  0  0  0
    5.3978  -13.8968   26.1381 C   0  0  0  0  0  0  0  0  0  0  0  0
    7.4619  -16.6226   24.0102 C   0  0  0  0  0  0  0  0  0  0  0  0
    8.2645  -17.4184   24.6503 O   0  0  0  0  0  0  0  0  0  0  0  0
    8.0496  -15.8973   22.9789 N   0  0  0  0  0  0  0  0  0  0  0  0
    7.2881  -15.3812   21.8117 C   0  0  0  0  0  0  0  0  0  0  0  0
    7.7670  -13.9284   21.8095 C   0  0  0  0  0  0  0  0  0  0  0  0
    9.0852  -13.9195   22.5917 C   0  0  0  0  0  0  0  0  0  0  0  0
    9.3598  -15.4401   22.6478 C   0  0  1  0  0  0  0  0  0  0  0  0
   10.4997  -15.7812   23.4518 C   0  0  0  0  0  0  0  0  0  0  0  0
   11.7107  -15.8599   23.1611 O   0  0  0  0  0  0  0  0  0  0  0  0
   11.0899  -13.2177   28.7058 C   0  0  0  0  0  0  0  0  0  0  0  0
   11.6862  -14.2210   27.7542 C   0  0  0  0  0  0  0  0  0  0  0  0
   10.7220  -14.5745   26.6427 C   0  0  2  0  0  0  0  0  0  0  0  0
    9.3614  -14.7070   27.2370 C   0  0  0  0  0  0  0  0  0  0  0  0
   11.1794  -15.8086   25.8954 C   0  0  2  0  0  0  0  0  0  0  0  0
   10.2296  -16.0919   24.8399 N   0  0  0  0  0  0  0  0  0  0  0  0
   11.3248  -16.9380   26.8315 C   0  0  0  0  0  0  0  0  0  0  0  0
   10.4350  -17.9860   26.7789 O   0  0  0  0  0  0  0  0  0  0  0  0
   12.2469  -16.9477   27.6678 O   0  0  0  0  0  0  0  0  0  0  0  0
  2  3  1  0
  2  1  1  1
  4  3  1  0
  5  4  2  0
  6  5  1  0
  7  8  1  0
  7  6  2  0
  8  9  2  0
  9  4  1  0
 10 12  1  0
 10  2  1  0
 11 10  2  0
 12 13  1  0
 14 13  1  0
 15 16  1  0
 15 14  1  0
 16 12  1  0
 17 24  1  0
 16 17  1  1
 18 17  2  0
 20 19  1  0
 21 23  1  0
 21 20  1  0
 21 22  1  1
 23 24  1  6
 25 26  1  0
 25 23  1  0
 27 25  2  0
M  END
$$$$
