FPI.pdb
     RDKit          3D

 27 28  0  0  1  0  0  0  0  0999 V2000
    5.3975  -17.5576   24.5361 N   0  0  0  0  0  0  0  0  0  0  0  0
    6.3153  -16.4923   24.5707 C   0  0  1  0  0  0  0  0  0  0  0  0
    6.5185  -16.0726   26.0203 C   0  0  0  0  0  0  0  0  0  0  0  0
    6.6269  -14.6211   26.2017 C   0  0  0  0  0  0  0  0  0  0  0  0
    5.5211  -13.7904   26.2137 C   0  0  0  0  0  0  0  0  0  0  0  0
    5.6003  -12.4269   26.3841 C   0  0  0  0  0  0  0  0  0  0  0  0
    6.8328  -11.8296   26.5541 C   0  0  0  0  0  0  0  0  0  0  0  0
    7.9512  -12.6275   26.5470 C   0  0  0  0  0  0  0  0  0  0  0  0
    7.8620  -13.9867   26.3762 C   0  0  0  0  0  0  0  0  0  0  0  0
    7.6122  -16.6389   23.9177 C   0  0  0  0  0  0  0  0  0  0  0  0
    8.3804  -17.5345   24.4608 O   0  0  0  0  0  0  0  0  0  0  0  0
    8.1568  -15.9836   22.8182 N   0  0  0  0  0  0  0  0  0  0  0  0
    7.3598  -15.5995   21.6241 C   0  0  0  0  0  0  0  0  0  0  0  0
    7.7812  -14.1351   21.4893 C   0  0  0  0  0  0  0  0  0  0  0  0
    9.1086  -14.0087   22.2453 C   0  0  0  0  0  0  0  0  0  0  0  0
    9.4434  -15.5073   22.4269 C   0  0  1  0  0  0  0  0  0  0  0  0
   10.6067  -15.7343   23.2377 C   0  0  0  0  0  0  0  0  0  0  0  0
   11.8189  -15.5693   22.9919 O   0  0  0  0  0  0  0  0  0  0  0  0
   10.8027  -13.1353   28.3354 C   0  0  0  0  0  0  0  0  0  0  0  0
   11.5070  -14.1520   27.4763 C   0  0  0  0  0  0  0  0  0  0  0  0
   10.6202  -14.6393   26.3511 C   0  0  2  0  0  0  0  0  0  0  0  0
    9.2471  -14.8346   26.8973 C   0  0  0  0  0  0  0  0  0  0  0  0
   11.1954  -15.8790   25.7007 C   0  0  2  0  0  0  0  0  0  0  0  0
   10.3636  -16.2408   24.5721 N   0  0  0  0  0  0  0  0  0  0  0  0
   11.2939  -16.9664   26.6910 C   0  0  0  0  0  0  0  0  0  0  0  0
   12.3850  -17.0309   27.5266 O   0  0  0  0  0  0  0  0  0  0  0  0
   10.3963  -17.8249   26.7746 O   0  0  0  0  0  0  0  0  0  0  0  0
  2  3  1  0
  2  1  1  1
  4  3  1  0
  5  4  2  0
  6  5  1  0
  7  8  1  0
  7  6  2  0
  8  9  2  0
  9  4  1  0
 10 12  1  0
 10  2  1  0
 11 10  2  0
 12 13  1  0
 14 13  1  0
 15 16  1  0
 15 14  1  0
 16 12  1  0
 17 24  1  0
 16 17  1  1
 18 17  2  0
 20 19  1  0
 21 23  1  0
 21 20  1  0
 21 22  1  1
 23 24  1  6
 25 26  1  0
 25 23  1  0
 27 25  2  0
M  END
$$$$
