FPI.pdb
     RDKit          3D

 27 28  0  0  1  0  0  0  0  0999 V2000
    6.4011  -17.3552   19.2628 N   0  0  0  0  0  0  0  0  0  0  0  0
    7.3518  -17.3548   20.2993 C   0  0  1  0  0  0  0  0  0  0  0  0
    8.5154  -16.4610   19.8915 C   0  0  0  0  0  0  0  0  0  0  0  0
    8.1949  -15.0300   19.9208 C   0  0  0  0  0  0  0  0  0  0  0  0
    8.1465  -14.3047   21.0975 C   0  0  0  0  0  0  0  0  0  0  0  0
    7.8498  -12.9616   21.1473 C   0  0  0  0  0  0  0  0  0  0  0  0
    7.5826  -12.2768   19.9793 C   0  0  0  0  0  0  0  0  0  0  0  0
    7.6226  -12.9689   18.7931 C   0  0  0  0  0  0  0  0  0  0  0  0
    7.9195  -14.3086   18.7538 C   0  0  0  0  0  0  0  0  0  0  0  0
    6.9343  -17.0243   21.6581 C   0  0  0  0  0  0  0  0  0  0  0  0
    6.4727  -15.8175   21.7915 O   0  0  0  0  0  0  0  0  0  0  0  0
    6.9481  -17.7824   22.8243 N   0  0  0  0  0  0  0  0  0  0  0  0
    6.2706  -19.0995   22.9456 C   0  0  0  0  0  0  0  0  0  0  0  0
    7.4117  -19.9259   23.5416 C   0  0  0  0  0  0  0  0  0  0  0  0
    8.3810  -18.9154   24.1650 C   0  0  0  0  0  0  0  0  0  0  0  0
    7.4873  -17.6538   24.1389 C   0  0  1  0  0  0  0  0  0  0  0  0
    8.1742  -16.4636   24.5557 C   0  0  0  0  0  0  0  0  0  0  0  0
    9.1020  -15.8250   24.0185 O   0  0  0  0  0  0  0  0  0  0  0  0
    5.8824  -12.1687   26.3822 C   0  0  0  0  0  0  0  0  0  0  0  0
    6.8138  -13.2484   25.8980 C   0  0  0  0  0  0  0  0  0  0  0  0
    7.6503  -13.8090   27.0277 C   0  0  2  0  0  0  0  0  0  0  0  0
    8.3951  -12.6801   27.6544 C   0  0  0  0  0  0  0  0  0  0  0  0
    8.5446  -14.9287   26.5408 C   0  0  2  0  0  0  0  0  0  0  0  0
    7.7385  -15.8827   25.8083 N   0  0  0  0  0  0  0  0  0  0  0  0
    9.2406  -15.5487   27.6828 C   0  0  0  0  0  0  0  0  0  0  0  0
   10.4491  -15.0417   28.1017 O   0  0  0  0  0  0  0  0  0  0  0  0
    8.7410  -16.5269   28.2687 O   0  0  0  0  0  0  0  0  0  0  0  0
  2  3  1  0
  2  1  1  6
  4  3  1  0
  5  4  2  0
  6  5  1  0
  7  8  1  0
  7  6  2  0
  8  9  2  0
  9  4  1  0
 10 12  1  0
 10  2  1  0
 11 10  2  0
 12 13  1  0
 14 13  1  0
 15 16  1  0
 15 14  1  0
 16 12  1  0
 17 24  1  0
 16 17  1  6
 18 17  2  0
 20 19  1  0
 21 23  1  0
 21 20  1  0
 21 22  1  6
 23 24  1  1
 25 26  1  0
 25 23  1  0
 27 25  2  0
M  END
$$$$
