CGQ.pdb
     RDKit          3D

 20 19  0  0  1  0  0  0  0  0999 V2000
   21.2733  -12.0590  -15.8907 N   0  0  0  0  0  0  0  0  0  0  0  0
   20.5444  -11.4011  -16.9438 C   0  0  1  0  0  0  0  0  0  0  0  0
   19.3736  -12.2971  -17.3628 C   0  0  0  0  0  0  0  0  0  0  0  0
   19.7106  -14.0231  -17.0158 S   0  0  0  0  0  0  0  0  0  0  0  0
   20.0633  -10.0793  -16.4647 C   0  0  0  0  0  0  0  0  0  0  0  0
   19.5366   -9.2599  -17.2786 O   0  0  0  0  0  0  0  0  0  0  0  0
   20.1919   -9.7224  -15.0785 N   0  0  0  0  0  0  0  0  0  0  0  0
   19.7249   -8.4219  -14.6928 C   0  0  0  0  0  0  0  0  0  0  0  0
   20.7811   -7.4499  -14.4000 C   0  0  0  0  0  0  0  0  0  0  0  0
   21.3046   -7.3893  -13.2288 O   0  0  0  0  0  0  0  0  0  0  0  0
   24.7613   -5.5908  -18.5377 N   0  0  0  0  0  0  0  0  0  0  0  0
   25.1079   -6.5888  -17.5694 C   0  0  0  0  0  0  0  0  0  0  0  0
   26.0191   -7.4151  -17.7974 O   0  0  0  0  0  0  0  0  0  0  0  0
   24.3517   -6.6084  -16.2935 C   0  0  0  0  0  0  0  0  0  0  0  0
   23.3167   -5.5516  -16.1741 C   0  0  0  0  0  0  0  0  0  0  0  0
   22.4452   -5.6228  -14.9548 C   0  0  2  0  0  0  0  0  0  0  0  0
   21.3299   -6.5087  -15.3108 N   0  0  0  0  0  0  0  0  0  0  0  0
   21.9123   -4.3145  -14.5426 C   0  0  0  0  0  0  0  0  0  0  0  0
   22.6752   -3.4509  -14.0750 O   0  0  0  0  0  0  0  0  0  0  0  0
   20.5735   -4.0376  -14.6704 O   0  0  0  0  0  0  0  0  0  0  0  0
  2  3  1  0
  2  1  1  1
  4  3  1  0
  5  6  2  0
  5  2  1  0
  7  5  1  0
  8  9  1  0
  8  7  1  0
  9 10  2  0
 11 12  1  0
 12 14  1  0
 12 13  2  0
 14 15  1  0
 16 15  1  6
 17 16  1  0
 17  9  1  0
 18 20  1  0
 18 16  1  0
 19 18  2  0
M  END
$$$$
