CGQ.pdb
     RDKit          3D

 20 19  0  0  1  0  0  0  0  0999 V2000
   15.8556  -10.8294  -15.8637 N   0  0  0  0  0  0  0  0  0  0  0  0
   16.8583  -11.1892  -14.8950 C   0  0  1  0  0  0  0  0  0  0  0  0
   17.9961  -11.9202  -15.6163 C   0  0  0  0  0  0  0  0  0  0  0  0
   17.5937  -13.6437  -15.9000 S   0  0  0  0  0  0  0  0  0  0  0  0
   17.3541   -9.9648  -14.2146 C   0  0  0  0  0  0  0  0  0  0  0  0
   17.5436   -8.8995  -14.8784 O   0  0  0  0  0  0  0  0  0  0  0  0
   17.6214   -9.9805  -12.8026 N   0  0  0  0  0  0  0  0  0  0  0  0
   18.1196   -8.7686  -12.2185 C   0  0  0  0  0  0  0  0  0  0  0  0
   17.0940   -7.8954  -11.6424 C   0  0  0  0  0  0  0  0  0  0  0  0
   15.9222   -7.8339  -12.1644 O   0  0  0  0  0  0  0  0  0  0  0  0
   13.4398   -9.2532   -8.3727 N   0  0  0  0  0  0  0  0  0  0  0  0
   13.1044   -7.8852   -8.1085 C   0  0  0  0  0  0  0  0  0  0  0  0
   12.0884   -7.5910   -7.4407 O   0  0  0  0  0  0  0  0  0  0  0  0
   13.9994   -6.8349   -8.6526 C   0  0  0  0  0  0  0  0  0  0  0  0
   15.1973   -7.3517   -9.3600 C   0  0  0  0  0  0  0  0  0  0  0  0
   16.1288   -6.3145   -9.9149 C   0  0  2  0  0  0  0  0  0  0  0  0
   17.2484   -7.0571  -10.5067 N   0  0  0  0  0  0  0  0  0  0  0  0
   16.6463   -5.3902   -8.8934 C   0  0  0  0  0  0  0  0  0  0  0  0
   17.7541   -5.5995   -8.3684 O   0  0  0  0  0  0  0  0  0  0  0  0
   15.9131   -4.2934   -8.5129 O   0  0  0  0  0  0  0  0  0  0  0  0
  2  3  1  0
  2  1  1  6
  4  3  1  0
  5  6  2  0
  5  2  1  0
  7  5  1  0
  8  9  1  0
  8  7  1  0
  9 10  2  0
 11 12  1  0
 12 14  1  0
 12 13  2  0
 14 15  1  0
 16 15  1  1
 17 16  1  0
 17  9  1  0
 18 20  1  0
 18 16  1  0
 19 18  2  0
M  END
$$$$
