CGQ.pdb
     RDKit          3D

 20 19  0  0  1  0  0  0  0  0999 V2000
   21.6782  -14.3103  -17.4731 N   0  0  0  0  0  0  0  0  0  0  0  0
   21.0546  -13.0141  -17.5377 C   0  0  1  0  0  0  0  0  0  0  0  0
   19.5378  -13.1933  -17.4090 C   0  0  0  0  0  0  0  0  0  0  0  0
   18.8767  -14.1790  -18.7522 S   0  0  0  0  0  0  0  0  0  0  0  0
   21.5867  -12.1517  -16.4508 C   0  0  0  0  0  0  0  0  0  0  0  0
   22.0219  -12.6739  -15.3787 O   0  0  0  0  0  0  0  0  0  0  0  0
   21.6113  -10.7234  -16.6079 N   0  0  0  0  0  0  0  0  0  0  0  0
   22.1792   -9.9580  -15.5357 C   0  0  0  0  0  0  0  0  0  0  0  0
   22.1253   -8.5056  -15.7197 C   0  0  0  0  0  0  0  0  0  0  0  0
   21.9864   -8.0020  -16.8930 O   0  0  0  0  0  0  0  0  0  0  0  0
   17.1814   -7.0147  -14.5875 N   0  0  0  0  0  0  0  0  0  0  0  0
   18.1948   -6.0833  -14.9863 C   0  0  0  0  0  0  0  0  0  0  0  0
   17.9202   -5.1154  -15.7298 O   0  0  0  0  0  0  0  0  0  0  0  0
   19.5747   -6.3063  -14.4900 C   0  0  0  0  0  0  0  0  0  0  0  0
   20.6431   -5.9211  -15.4452 C   0  0  0  0  0  0  0  0  0  0  0  0
   22.0515   -6.0916  -14.9566 C   0  0  2  0  0  0  0  0  0  0  0  0
   22.2136   -7.5270  -14.6945 N   0  0  0  0  0  0  0  0  0  0  0  0
   22.3356   -5.3389  -13.7244 C   0  0  0  0  0  0  0  0  0  0  0  0
   22.5089   -5.9435  -12.6515 O   0  0  0  0  0  0  0  0  0  0  0  0
   22.4115   -3.9681  -13.7490 O   0  0  0  0  0  0  0  0  0  0  0  0
  2  3  1  0
  2  1  1  1
  4  3  1  0
  5  6  2  0
  5  2  1  0
  7  5  1  0
  8  9  1  0
  8  7  1  0
  9 10  2  0
 11 12  1  0
 12 14  1  0
 12 13  2  0
 14 15  1  0
 16 15  1  1
 17 16  1  0
 17  9  1  0
 18 20  1  0
 18 16  1  0
 19 18  2  0
M  END
$$$$
