CGQ.pdb
     RDKit          3D

 20 19  0  0  1  0  0  0  0  0999 V2000
   22.9809  -18.2556  -16.8903 N   0  0  0  0  0  0  0  0  0  0  0  0
   23.4561  -19.6103  -16.7797 C   0  0  1  0  0  0  0  0  0  0  0  0
   24.9782  -19.6116  -16.9602 C   0  0  0  0  0  0  0  0  0  0  0  0
   25.4771  -18.5790  -18.3378 S   0  0  0  0  0  0  0  0  0  0  0  0
   23.0728  -20.1651  -15.4556 C   0  0  0  0  0  0  0  0  0  0  0  0
   23.3771  -21.3598  -15.1532 O   0  0  0  0  0  0  0  0  0  0  0  0
   22.3562  -19.3524  -14.5115 N   0  0  0  0  0  0  0  0  0  0  0  0
   22.1025  -19.9220  -13.2194 C   0  0  0  0  0  0  0  0  0  0  0  0
   20.8591  -20.6902  -13.1183 C   0  0  0  0  0  0  0  0  0  0  0  0
   20.0480  -20.7511  -14.1121 O   0  0  0  0  0  0  0  0  0  0  0  0
   19.1917  -24.4035   -8.3135 N   0  0  0  0  0  0  0  0  0  0  0  0
   18.1567  -24.7395   -9.2459 C   0  0  0  0  0  0  0  0  0  0  0  0
   17.2926  -25.5988   -8.9634 O   0  0  0  0  0  0  0  0  0  0  0  0
   18.1460  -24.0366  -10.5521 C   0  0  0  0  0  0  0  0  0  0  0  0
   19.2477  -23.0595  -10.7353 C   0  0  0  0  0  0  0  0  0  0  0  0
   19.2182  -22.2703  -12.0111 C   0  0  2  0  0  0  0  0  0  0  0  0
   20.4151  -21.4205  -11.9843 N   0  0  0  0  0  0  0  0  0  0  0  0
   18.0237  -21.4210  -12.1431 C   0  0  0  0  0  0  0  0  0  0  0  0
   18.0113  -20.2821  -11.6436 O   0  0  0  0  0  0  0  0  0  0  0  0
   16.9173  -21.8771  -12.8162 O   0  0  0  0  0  0  0  0  0  0  0  0
  2  3  1  0
  2  1  1  1
  4  3  1  0
  5  6  2  0
  5  2  1  0
  7  5  1  0
  8  9  1  0
  8  7  1  0
  9 10  2  0
 11 12  1  0
 12 14  1  0
 12 13  2  0
 14 15  1  0
 16 15  1  1
 17 16  1  0
 17  9  1  0
 18 20  1  0
 18 16  1  0
 19 18  2  0
M  END
$$$$
