CGQ.pdb
     RDKit          3D

 20 19  0  0  1  0  0  0  0  0999 V2000
   24.6456  -11.0885  -17.1802 N   0  0  0  0  0  0  0  0  0  0  0  0
   23.7316  -11.7348  -16.2746 C   0  0  1  0  0  0  0  0  0  0  0  0
   24.5303  -12.6611  -15.3508 C   0  0  0  0  0  0  0  0  0  0  0  0
   25.5326  -13.8161  -16.2858 S   0  0  0  0  0  0  0  0  0  0  0  0
   22.9935  -10.7070  -15.4955 C   0  0  0  0  0  0  0  0  0  0  0  0
   22.0655  -11.0541  -14.7019 O   0  0  0  0  0  0  0  0  0  0  0  0
   23.3265   -9.3161  -15.6365 N   0  0  0  0  0  0  0  0  0  0  0  0
   22.5359   -8.3767  -14.8945 C   0  0  0  0  0  0  0  0  0  0  0  0
   21.6766   -7.5149  -15.7101 C   0  0  0  0  0  0  0  0  0  0  0  0
   22.1073   -7.0242  -16.8160 O   0  0  0  0  0  0  0  0  0  0  0  0
   15.7482   -9.4666  -17.0102 N   0  0  0  0  0  0  0  0  0  0  0  0
   16.6870   -8.8348  -16.1311 C   0  0  0  0  0  0  0  0  0  0  0  0
   16.5328   -8.8763  -14.8904 O   0  0  0  0  0  0  0  0  0  0  0  0
   17.8426   -8.1323  -16.7406 C   0  0  0  0  0  0  0  0  0  0  0  0
   18.1246   -6.7943  -16.1640 C   0  0  0  0  0  0  0  0  0  0  0  0
   19.5347   -6.3026  -16.3084 C   0  0  2  0  0  0  0  0  0  0  0  0
   20.3429   -7.1331  -15.4070 N   0  0  0  0  0  0  0  0  0  0  0  0
   19.6986   -4.8872  -15.9404 C   0  0  0  0  0  0  0  0  0  0  0  0
   20.2320   -4.5828  -14.8590 O   0  0  0  0  0  0  0  0  0  0  0  0
   19.2655   -3.8947  -16.7847 O   0  0  0  0  0  0  0  0  0  0  0  0
  2  3  1  0
  2  1  1  6
  4  3  1  0
  5  6  2  0
  5  2  1  0
  7  5  1  0
  8  9  1  0
  8  7  1  0
  9 10  2  0
 11 12  1  0
 12 14  1  0
 12 13  2  0
 14 15  1  0
 16 15  1  1
 17 16  1  0
 17  9  1  0
 18 20  1  0
 18 16  1  0
 19 18  2  0
M  END
$$$$
