CGQ.pdb
     RDKit          3D

 20 19  0  0  1  0  0  0  0  0999 V2000
   28.8483  -20.8598  -13.7003 N   0  0  0  0  0  0  0  0  0  0  0  0
   28.2131  -21.0559  -12.4230 C   0  0  1  0  0  0  0  0  0  0  0  0
   29.0381  -20.3365  -11.3502 C   0  0  0  0  0  0  0  0  0  0  0  0
   30.5414  -21.2339  -10.9661 S   0  0  0  0  0  0  0  0  0  0  0  0
   26.8239  -20.5308  -12.4729 C   0  0  0  0  0  0  0  0  0  0  0  0
   26.5793  -19.4307  -13.0572 O   0  0  0  0  0  0  0  0  0  0  0  0
   25.7512  -21.2653  -11.8603 N   0  0  0  0  0  0  0  0  0  0  0  0
   24.4532  -20.6543  -11.8682 C   0  0  0  0  0  0  0  0  0  0  0  0
   23.6464  -20.9372  -13.0578 C   0  0  0  0  0  0  0  0  0  0  0  0
   24.0739  -21.7479  -13.9575 O   0  0  0  0  0  0  0  0  0  0  0  0
   17.6615  -21.6243  -13.0683 N   0  0  0  0  0  0  0  0  0  0  0  0
   18.7047  -22.4919  -12.6074 C   0  0  0  0  0  0  0  0  0  0  0  0
   18.4559  -23.4348  -11.8238 O   0  0  0  0  0  0  0  0  0  0  0  0
   20.0838  -22.2338  -13.0888 C   0  0  0  0  0  0  0  0  0  0  0  0
   20.2066  -21.0853  -14.0206 C   0  0  0  0  0  0  0  0  0  0  0  0
   21.5890  -20.7985  -14.5284 C   0  0  2  0  0  0  0  0  0  0  0  0
   22.3702  -20.3897  -13.3546 N   0  0  0  0  0  0  0  0  0  0  0  0
   21.6288  -19.7254  -15.5347 C   0  0  0  0  0  0  0  0  0  0  0  0
   21.6915  -18.5366  -15.1749 O   0  0  0  0  0  0  0  0  0  0  0  0
   21.5971  -20.0266  -16.8739 O   0  0  0  0  0  0  0  0  0  0  0  0
  2  3  1  0
  2  1  1  6
  4  3  1  0
  5  6  2  0
  5  2  1  0
  7  5  1  0
  8  9  1  0
  8  7  1  0
  9 10  2  0
 11 12  1  0
 12 14  1  0
 12 13  2  0
 14 15  1  0
 16 15  1  1
 17 16  1  0
 17  9  1  0
 18 20  1  0
 18 16  1  0
 19 18  2  0
M  END
$$$$
