CGQ.pdb
     RDKit          3D

 20 19  0  0  1  0  0  0  0  0999 V2000
   27.3838  -21.6388  -15.0795 N   0  0  0  0  0  0  0  0  0  0  0  0
   28.0848  -20.5168  -15.6477 C   0  0  1  0  0  0  0  0  0  0  0  0
   28.5616  -20.8981  -17.0536 C   0  0  0  0  0  0  0  0  0  0  0  0
   29.1881  -22.5768  -17.1018 S   0  0  0  0  0  0  0  0  0  0  0  0
   27.1831  -19.3364  -15.6892 C   0  0  0  0  0  0  0  0  0  0  0  0
   27.5579  -18.2684  -16.2639 O   0  0  0  0  0  0  0  0  0  0  0  0
   25.8832  -19.3981  -15.0793 N   0  0  0  0  0  0  0  0  0  0  0  0
   25.0470  -18.2392  -15.2051 C   0  0  0  0  0  0  0  0  0  0  0  0
   23.7603  -18.4766  -15.8642 C   0  0  0  0  0  0  0  0  0  0  0  0
   23.7169  -18.9433  -17.0599 O   0  0  0  0  0  0  0  0  0  0  0  0
   20.2454  -20.7163  -12.5042 N   0  0  0  0  0  0  0  0  0  0  0  0
   21.1156  -21.4106  -13.4066 C   0  0  0  0  0  0  0  0  0  0  0  0
   21.7493  -22.4234  -13.0355 O   0  0  0  0  0  0  0  0  0  0  0  0
   21.2389  -20.8886  -14.7896 C   0  0  0  0  0  0  0  0  0  0  0  0
   20.5544  -19.5927  -15.0226 C   0  0  0  0  0  0  0  0  0  0  0  0
   21.2361  -18.6532  -15.9734 C   0  0  2  0  0  0  0  0  0  0  0  0
   22.4764  -18.2383  -15.3064 N   0  0  0  0  0  0  0  0  0  0  0  0
   20.4336  -17.4608  -16.2896 C   0  0  0  0  0  0  0  0  0  0  0  0
   20.7736  -16.3476  -15.8517 O   0  0  0  0  0  0  0  0  0  0  0  0
   19.3073  -17.5672  -17.0677 O   0  0  0  0  0  0  0  0  0  0  0  0
  2  3  1  0
  2  1  1  6
  4  3  1  0
  5  6  2  0
  5  2  1  0
  7  5  1  0
  8  9  1  0
  8  7  1  0
  9 10  2  0
 11 12  1  0
 12 14  1  0
 12 13  2  0
 14 15  1  0
 16 15  1  1
 17 16  1  0
 17  9  1  0
 18 20  1  0
 18 16  1  0
 19 18  2  0
M  END
$$$$
