CGQ.pdb
     RDKit          3D

 20 19  0  0  1  0  0  0  0  0999 V2000
   18.5949  -26.1726   -9.0112 N   0  0  0  0  0  0  0  0  0  0  0  0
   18.2182  -24.9386   -8.3720 C   0  0  1  0  0  0  0  0  0  0  0  0
   17.9487  -23.8883   -9.4553 C   0  0  0  0  0  0  0  0  0  0  0  0
   19.4499  -23.4462  -10.3293 S   0  0  0  0  0  0  0  0  0  0  0  0
   17.0140  -25.1620   -7.5305 C   0  0  0  0  0  0  0  0  0  0  0  0
   15.9628  -25.6571   -8.0415 O   0  0  0  0  0  0  0  0  0  0  0  0
   17.0337  -24.8191   -6.1350 N   0  0  0  0  0  0  0  0  0  0  0  0
   15.8171  -25.0083   -5.3986 C   0  0  0  0  0  0  0  0  0  0  0  0
   15.8570  -24.5380   -4.0117 C   0  0  0  0  0  0  0  0  0  0  0  0
   16.9690  -24.1848   -3.4751 O   0  0  0  0  0  0  0  0  0  0  0  0
   12.1409  -20.7262    0.9921 N   0  0  0  0  0  0  0  0  0  0  0  0
   12.6157  -21.0964   -0.3083 C   0  0  0  0  0  0  0  0  0  0  0  0
   12.1184  -20.5934   -1.3402 O   0  0  0  0  0  0  0  0  0  0  0  0
   13.7116  -22.0927   -0.3881 C   0  0  0  0  0  0  0  0  0  0  0  0
   13.7239  -22.8970   -1.6352 C   0  0  0  0  0  0  0  0  0  0  0  0
   14.8644  -23.8608   -1.7821 C   0  0  2  0  0  0  0  0  0  0  0  0
   14.7462  -24.4182   -3.1351 N   0  0  0  0  0  0  0  0  0  0  0  0
   14.8300  -24.9576   -0.8015 C   0  0  0  0  0  0  0  0  0  0  0  0
   14.3041  -26.0441   -1.1009 O   0  0  0  0  0  0  0  0  0  0  0  0
   15.3761  -24.7911    0.4473 O   0  0  0  0  0  0  0  0  0  0  0  0
  2  3  1  0
  2  1  1  6
  4  3  1  0
  5  6  2  0
  5  2  1  0
  7  5  1  0
  8  9  1  0
  8  7  1  0
  9 10  2  0
 11 12  1  0
 12 14  1  0
 12 13  2  0
 14 15  1  0
 16 15  1  1
 17 16  1  0
 17  9  1  0
 18 20  1  0
 18 16  1  0
 19 18  2  0
M  END
$$$$
