CGQ.pdb
     RDKit          3D

 20 19  0  0  1  0  0  0  0  0999 V2000
   21.5610  -12.1003  -18.6468 N   0  0  0  0  0  0  0  0  0  0  0  0
   20.5475  -12.0886  -17.6240 C   0  0  1  0  0  0  0  0  0  0  0  0
   20.0978  -13.5306  -17.3637 C   0  0  0  0  0  0  0  0  0  0  0  0
   19.5268  -14.3220  -18.8672 S   0  0  0  0  0  0  0  0  0  0  0  0
   21.0936  -11.4662  -16.3902 C   0  0  0  0  0  0  0  0  0  0  0  0
   20.3600  -11.3406  -15.3618 O   0  0  0  0  0  0  0  0  0  0  0  0
   22.4539  -11.0039  -16.3550 N   0  0  0  0  0  0  0  0  0  0  0  0
   22.8646  -10.2702  -15.1925 C   0  0  0  0  0  0  0  0  0  0  0  0
   22.9121   -8.8164  -15.3666 C   0  0  0  0  0  0  0  0  0  0  0  0
   23.2409   -8.3059  -16.4983 O   0  0  0  0  0  0  0  0  0  0  0  0
   19.4501   -5.4379  -17.3876 N   0  0  0  0  0  0  0  0  0  0  0  0
   19.0556   -6.1368  -16.2004 C   0  0  0  0  0  0  0  0  0  0  0  0
   17.8485   -6.3567  -15.9563 O   0  0  0  0  0  0  0  0  0  0  0  0
   20.1233   -6.5876  -15.2747 C   0  0  0  0  0  0  0  0  0  0  0  0
   21.4998   -6.2352  -15.7031 C   0  0  0  0  0  0  0  0  0  0  0  0
   22.5721   -6.4058  -14.6676 C   0  0  2  0  0  0  0  0  0  0  0  0
   22.6206   -7.8435  -14.3742 N   0  0  0  0  0  0  0  0  0  0  0  0
   22.3038   -5.6662  -13.4240 C   0  0  0  0  0  0  0  0  0  0  0  0
   22.4094   -4.4273  -13.4014 O   0  0  0  0  0  0  0  0  0  0  0  0
   21.9362   -6.3353  -12.2827 O   0  0  0  0  0  0  0  0  0  0  0  0
  2  3  1  0
  2  1  1  6
  4  3  1  0
  5  6  2  0
  5  2  1  0
  7  5  1  0
  8  9  1  0
  8  7  1  0
  9 10  2  0
 11 12  1  0
 12 14  1  0
 12 13  2  0
 14 15  1  0
 16 15  1  6
 17 16  1  0
 17  9  1  0
 18 20  1  0
 18 16  1  0
 19 18  2  0
M  END
$$$$
