CGQ.pdb
     RDKit          3D

 20 19  0  0  1  0  0  0  0  0999 V2000
   20.0969  -15.2617  -18.9394 N   0  0  0  0  0  0  0  0  0  0  0  0
   19.8395  -14.5630  -17.7071 C   0  0  1  0  0  0  0  0  0  0  0  0
   19.7440  -15.5894  -16.5728 C   0  0  0  0  0  0  0  0  0  0  0  0
   18.0387  -15.9780  -16.1807 S   0  0  0  0  0  0  0  0  0  0  0  0
   20.9284  -13.5840  -17.4540 C   0  0  0  0  0  0  0  0  0  0  0  0
   22.1165  -13.9881  -17.2627 O   0  0  0  0  0  0  0  0  0  0  0  0
   20.6420  -12.1760  -17.4246 N   0  0  0  0  0  0  0  0  0  0  0  0
   21.7488  -11.2886  -17.2105 C   0  0  0  0  0  0  0  0  0  0  0  0
   21.3845   -9.8804  -17.0363 C   0  0  0  0  0  0  0  0  0  0  0  0
   20.8704   -9.2153  -18.0073 O   0  0  0  0  0  0  0  0  0  0  0  0
   16.7206   -8.3870  -16.1415 N   0  0  0  0  0  0  0  0  0  0  0  0
   17.1426   -7.0530  -15.8319 C   0  0  0  0  0  0  0  0  0  0  0  0
   16.3110   -6.1239  -15.7307 O   0  0  0  0  0  0  0  0  0  0  0  0
   18.5934   -6.8129  -15.6372 C   0  0  0  0  0  0  0  0  0  0  0  0
   19.4525   -7.9982  -15.8811 C   0  0  0  0  0  0  0  0  0  0  0  0
   20.9247   -7.7935  -15.6766 C   0  0  2  0  0  0  0  0  0  0  0  0
   21.5408   -9.1147  -15.8506 N   0  0  0  0  0  0  0  0  0  0  0  0
   21.2606   -7.2744  -14.3412 C   0  0  0  0  0  0  0  0  0  0  0  0
   21.7050   -8.0412  -13.4688 O   0  0  0  0  0  0  0  0  0  0  0  0
   21.0868   -5.9441  -14.0485 O   0  0  0  0  0  0  0  0  0  0  0  0
  2  3  1  0
  2  1  1  6
  4  3  1  0
  5  6  2  0
  5  2  1  0
  7  5  1  0
  8  9  1  0
  8  7  1  0
  9 10  2  0
 11 12  1  0
 12 14  1  0
 12 13  2  0
 14 15  1  0
 16 15  1  1
 17 16  1  0
 17  9  1  0
 18 20  1  0
 18 16  1  0
 19 18  2  0
M  END
$$$$
