CGQ.pdb
     RDKit          3D

 20 19  0  0  1  0  0  0  0  0999 V2000
   17.9060  -14.3919  -16.5846 N   0  0  0  0  0  0  0  0  0  0  0  0
   16.9237  -13.3760  -16.3082 C   0  0  1  0  0  0  0  0  0  0  0  0
   16.3908  -13.5839  -14.8862 C   0  0  0  0  0  0  0  0  0  0  0  0
   16.0402  -15.3116  -14.5623 S   0  0  0  0  0  0  0  0  0  0  0  0
   17.5419  -12.0331  -16.4582 C   0  0  0  0  0  0  0  0  0  0  0  0
   16.8567  -10.9880  -16.2352 O   0  0  0  0  0  0  0  0  0  0  0  0
   18.9174  -11.9109  -16.8561 N   0  0  0  0  0  0  0  0  0  0  0  0
   19.4355  -10.5827  -17.0167 C   0  0  0  0  0  0  0  0  0  0  0  0
   20.2480  -10.0990  -15.8977 C   0  0  0  0  0  0  0  0  0  0  0  0
   20.0421  -10.5338  -14.7069 O   0  0  0  0  0  0  0  0  0  0  0  0
   26.1335   -9.5645  -16.1581 N   0  0  0  0  0  0  0  0  0  0  0  0
   25.4554  -10.6625  -15.5351 C   0  0  0  0  0  0  0  0  0  0  0  0
   26.0227  -11.7679  -15.3893 O   0  0  0  0  0  0  0  0  0  0  0  0
   24.0633  -10.4441  -15.0718 C   0  0  0  0  0  0  0  0  0  0  0  0
   23.5585   -9.0622  -15.2666 C   0  0  0  0  0  0  0  0  0  0  0  0
   22.1469   -8.8118  -14.8241 C   0  0  2  0  0  0  0  0  0  0  0  0
   21.3004   -9.1488  -15.9753 N   0  0  0  0  0  0  0  0  0  0  0  0
   21.8984   -7.4152  -14.4323 C   0  0  0  0  0  0  0  0  0  0  0  0
   21.6086   -6.5685  -15.2958 O   0  0  0  0  0  0  0  0  0  0  0  0
   21.9841   -7.0370  -13.1151 O   0  0  0  0  0  0  0  0  0  0  0  0
  2  3  1  0
  2  1  1  1
  4  3  1  0
  5  6  2  0
  5  2  1  0
  7  5  1  0
  8  9  1  0
  8  7  1  0
  9 10  2  0
 11 12  1  0
 12 14  1  0
 12 13  2  0
 14 15  1  0
 16 15  1  6
 17 16  1  0
 17  9  1  0
 18 20  1  0
 18 16  1  0
 19 18  2  0
M  END
$$$$
