CGQ.pdb
     RDKit          3D

 20 19  0  0  1  0  0  0  0  0999 V2000
   19.0161  -10.9010    7.9368 N   0  0  0  0  0  0  0  0  0  0  0  0
   19.5217  -12.0447    7.2229 C   0  0  1  0  0  0  0  0  0  0  0  0
   21.0514  -11.9583    7.1798 C   0  0  0  0  0  0  0  0  0  0  0  0
   21.6106  -10.8565    5.8813 S   0  0  0  0  0  0  0  0  0  0  0  0
   19.0739  -13.2902    7.8984 C   0  0  0  0  0  0  0  0  0  0  0  0
   18.8825  -13.3007    9.1533 O   0  0  0  0  0  0  0  0  0  0  0  0
   18.8553  -14.4880    7.1350 N   0  0  0  0  0  0  0  0  0  0  0  0
   18.4489  -15.6585    7.8582 C   0  0  0  0  0  0  0  0  0  0  0  0
   17.3107  -16.3762    7.2788 C   0  0  0  0  0  0  0  0  0  0  0  0
   16.6587  -15.8759    6.2920 O   0  0  0  0  0  0  0  0  0  0  0  0
   15.6799  -19.1418    2.1324 N   0  0  0  0  0  0  0  0  0  0  0  0
   16.3272  -19.6487    3.3061 C   0  0  0  0  0  0  0  0  0  0  0  0
   17.4151  -20.2611    3.2252 O   0  0  0  0  0  0  0  0  0  0  0  0
   15.6652  -19.4238    4.6143 C   0  0  0  0  0  0  0  0  0  0  0  0
   16.4731  -18.6496    5.5890 C   0  0  0  0  0  0  0  0  0  0  0  0
   15.8300  -18.3998    6.9214 C   0  0  2  0  0  0  0  0  0  0  0  0
   16.8105  -17.6359    7.7026 N   0  0  0  0  0  0  0  0  0  0  0  0
   15.4906  -19.6355    7.6450 C   0  0  0  0  0  0  0  0  0  0  0  0
   16.2636  -20.0822    8.5108 O   0  0  0  0  0  0  0  0  0  0  0  0
   14.3222  -20.3027    7.3714 O   0  0  0  0  0  0  0  0  0  0  0  0
  2  3  1  0
  2  1  1  1
  4  3  1  0
  5  6  2  0
  5  2  1  0
  7  5  1  0
  8  9  1  0
  8  7  1  0
  9 10  2  0
 11 12  1  0
 12 14  1  0
 12 13  2  0
 14 15  1  0
 16 15  1  6
 17 16  1  0
 17  9  1  0
 18 20  1  0
 18 16  1  0
 19 18  2  0
M  END
$$$$
