LVK.pdb
     RDKit          3D

 25 24  0  0  1  0  0  0  0  0999 V2000
    5.5125  -12.3220   26.7754 C   0  0  0  0  0  0  0  0  0  0  0  0
    6.7829  -12.9466   26.2218 C   0  0  1  0  0  0  0  0  0  0  0  0
    8.0083  -12.1740   26.6131 C   0  0  0  0  0  0  0  0  0  0  0  0
    6.8766  -14.4060   26.5408 C   0  0  0  0  0  0  0  0  0  0  0  0
    6.2830  -15.2756   25.4533 C   0  0  2  0  0  0  0  0  0  0  0  0
    5.6122  -16.4346   25.9984 N   0  0  0  0  0  0  0  0  0  0  0  0
    7.3181  -15.7384   24.5015 C   0  0  0  0  0  0  0  0  0  0  0  0
    8.1216  -16.6878   24.7961 O   0  0  0  0  0  0  0  0  0  0  0  0
    8.3560  -13.5679   20.9053 C   0  0  0  0  0  0  0  0  0  0  0  0
    8.1847  -15.0498   20.9340 C   0  0  2  0  0  0  0  0  0  0  0  0
    6.7360  -15.4408   20.6288 C   0  0  0  0  0  0  0  0  0  0  0  0
    8.5001  -15.6558   22.2945 C   0  0  2  0  0  0  0  0  0  0  0  0
    7.4871  -15.1648   23.2090 N   0  0  0  0  0  0  0  0  0  0  0  0
    9.8633  -15.2983   22.7445 C   0  0  0  0  0  0  0  0  0  0  0  0
    9.9968  -14.3413   23.5469 O   0  0  0  0  0  0  0  0  0  0  0  0
   10.9792  -16.0295   22.2709 N   0  0  0  0  0  0  0  0  0  0  0  0
   12.0040  -16.5516   23.1910 C   0  0  1  0  0  0  0  0  0  0  0  0
   11.4044  -17.2625   24.3350 C   0  0  0  0  0  0  0  0  0  0  0  0
   12.2857  -17.9411   25.3013 C   0  0  0  0  0  0  0  0  0  0  0  0
   11.6082  -18.6765   26.4251 C   0  0  0  0  0  0  0  0  0  0  0  0
   12.6089  -19.3420   27.3482 C   0  0  0  0  0  0  0  0  0  0  0  0
   11.8954  -19.9378   28.4537 N   0  0  0  0  0  0  0  0  0  0  0  0
   13.0393  -17.1893   22.4056 C   0  0  0  0  0  0  0  0  0  0  0  0
   14.3704  -16.9290   22.6919 O   0  0  0  0  0  0  0  0  0  0  0  0
   12.8472  -17.9879   21.4473 O   0  0  0  0  0  0  0  0  0  0  0  0
  2  1  1  1
  2  3  1  0
  4  2  1  0
  5  6  1  1
  5  4  1  0
  7  5  1  0
  8  7  2  0
 10  9  1  1
 10 11  1  0
 12 13  1  1
 12 10  1  0
 13  7  1  0
 14 12  1  0
 15 14  2  0
 16 14  1  0
 17 18  1  1
 17 16  1  0
 19 18  1  0
 20 21  1  0
 20 19  1  0
 22 21  1  0
 23 24  1  0
 23 17  1  0
 25 23  2  0
M  END
$$$$
