LVK.pdb
     RDKit          3D

 25 24  0  0  1  0  0  0  0  0999 V2000
    5.7961  -19.1410   21.4730 C   0  0  0  0  0  0  0  0  0  0  0  0
    5.8040  -17.6264   21.3457 C   0  0  1  0  0  0  0  0  0  0  0  0
    4.4166  -17.0584   21.2809 C   0  0  0  0  0  0  0  0  0  0  0  0
    6.6600  -16.9794   22.3893 C   0  0  0  0  0  0  0  0  0  0  0  0
    6.6598  -15.4694   22.2837 C   0  0  2  0  0  0  0  0  0  0  0  0
    7.0488  -15.0229   20.9648 N   0  0  0  0  0  0  0  0  0  0  0  0
    7.5726  -14.8548   23.2741 C   0  0  0  0  0  0  0  0  0  0  0  0
    8.8405  -14.8657   23.1127 O   0  0  0  0  0  0  0  0  0  0  0  0
    6.0122  -13.0684   26.8085 C   0  0  0  0  0  0  0  0  0  0  0  0
    7.3197  -12.6398   26.2314 C   0  0  2  0  0  0  0  0  0  0  0  0
    7.1274  -11.5095   25.2163 C   0  0  0  0  0  0  0  0  0  0  0  0
    8.0292  -13.7569   25.4788 C   0  0  2  0  0  0  0  0  0  0  0  0
    7.1063  -14.2176   24.4592 N   0  0  0  0  0  0  0  0  0  0  0  0
    8.4321  -14.8523   26.3877 C   0  0  0  0  0  0  0  0  0  0  0  0
    7.5600  -15.6802   26.7503 O   0  0  0  0  0  0  0  0  0  0  0  0
    9.7741  -14.9489   26.8281 N   0  0  0  0  0  0  0  0  0  0  0  0
   10.2613  -16.1316   27.5583 C   0  0  1  0  0  0  0  0  0  0  0  0
   11.2707  -16.8777   26.7847 C   0  0  0  0  0  0  0  0  0  0  0  0
   12.6431  -16.3490   26.6959 C   0  0  0  0  0  0  0  0  0  0  0  0
   13.6088  -17.1299   25.8473 C   0  0  0  0  0  0  0  0  0  0  0  0
   14.9927  -16.5124   25.8538 C   0  0  0  0  0  0  0  0  0  0  0  0
   15.8770  -17.3479   25.0753 N   0  0  0  0  0  0  0  0  0  0  0  0
   10.5405  -15.7411   28.9238 C   0  0  0  0  0  0  0  0  0  0  0  0
   10.9283  -16.7038   29.8428 O   0  0  0  0  0  0  0  0  0  0  0  0
   10.4618  -14.5680   29.3829 O   0  0  0  0  0  0  0  0  0  0  0  0
  2  1  1  1
  2  3  1  0
  4  2  1  0
  5  6  1  6
  5  4  1  0
  7  5  1  0
  8  7  2  0
 10  9  1  6
 10 11  1  0
 12 13  1  6
 12 10  1  0
 13  7  1  0
 14 12  1  0
 15 14  2  0
 16 14  1  0
 17 18  1  6
 17 16  1  0
 19 18  1  0
 20 21  1  0
 20 19  1  0
 22 21  1  0
 23 24  1  0
 23 17  1  0
 25 23  2  0
M  END
$$$$
