LVK.pdb
     RDKit          3D

 25 24  0  0  1  0  0  0  0  0999 V2000
    7.6980  -11.6141   27.5283 C   0  0  0  0  0  0  0  0  0  0  0  0
    6.7091  -12.6140   26.9516 C   0  0  1  0  0  0  0  0  0  0  0  0
    5.7530  -11.9715   25.9900 C   0  0  0  0  0  0  0  0  0  0  0  0
    7.3936  -13.8201   26.3884 C   0  0  0  0  0  0  0  0  0  0  0  0
    6.4564  -14.6946   25.5834 C   0  0  2  0  0  0  0  0  0  0  0  0
    5.8028  -15.6848   26.4096 N   0  0  0  0  0  0  0  0  0  0  0  0
    7.1692  -15.3937   24.4903 C   0  0  0  0  0  0  0  0  0  0  0  0
    7.7807  -16.4983   24.6892 O   0  0  0  0  0  0  0  0  0  0  0  0
    8.4755  -15.3823   19.6744 C   0  0  0  0  0  0  0  0  0  0  0  0
    7.7798  -14.7747   20.8462 C   0  0  2  0  0  0  0  0  0  0  0  0
    8.2741  -13.3474   21.0984 C   0  0  0  0  0  0  0  0  0  0  0  0
    8.0286  -15.5348   22.1416 C   0  0  2  0  0  0  0  0  0  0  0  0
    7.2215  -14.8896   23.1594 N   0  0  0  0  0  0  0  0  0  0  0  0
    9.4635  -15.5380   22.5015 C   0  0  0  0  0  0  0  0  0  0  0  0
    9.9942  -14.4556   22.8542 O   0  0  0  0  0  0  0  0  0  0  0  0
   10.2048  -16.7427   22.4436 N   0  0  0  0  0  0  0  0  0  0  0  0
   11.5855  -16.8218   22.9504 C   0  0  1  0  0  0  0  0  0  0  0  0
   11.7726  -17.9679   23.8587 C   0  0  0  0  0  0  0  0  0  0  0  0
   11.3543  -17.8451   25.2662 C   0  0  0  0  0  0  0  0  0  0  0  0
   11.5549  -19.0576   26.1334 C   0  0  0  0  0  0  0  0  0  0  0  0
   11.0335  -18.8382   27.5394 C   0  0  0  0  0  0  0  0  0  0  0  0
   11.2892  -20.0265   28.3196 N   0  0  0  0  0  0  0  0  0  0  0  0
   12.4910  -16.6255   21.8383 C   0  0  0  0  0  0  0  0  0  0  0  0
   12.0781  -16.9539   20.5564 O   0  0  0  0  0  0  0  0  0  0  0  0
   13.6654  -16.1701   21.9190 O   0  0  0  0  0  0  0  0  0  0  0  0
  2  1  1  6
  2  3  1  0
  4  2  1  0
  5  6  1  1
  5  4  1  0
  7  5  1  0
  8  7  2  0
 10  9  1  6
 10 11  1  0
 12 13  1  1
 12 10  1  0
 13  7  1  0
 14 12  1  0
 15 14  2  0
 16 14  1  0
 17 18  1  6
 17 16  1  0
 19 18  1  0
 20 21  1  0
 20 19  1  0
 22 21  1  0
 23 24  1  0
 23 17  1  0
 25 23  2  0
M  END
$$$$
