LVK.pdb
     RDKit          3D

 25 24  0  0  1  0  0  0  0  0999 V2000
    5.2340  -19.5893   21.9670 C   0  0  0  0  0  0  0  0  0  0  0  0
    5.4072  -18.1103   21.6620 C   0  0  1  0  0  0  0  0  0  0  0  0
    4.1621  -17.5038   21.0845 C   0  0  0  0  0  0  0  0  0  0  0  0
    5.9440  -17.3536   22.8365 C   0  0  0  0  0  0  0  0  0  0  0  0
    6.1526  -15.8854   22.5331 C   0  0  2  0  0  0  0  0  0  0  0  0
    6.6598  -15.6801   21.1949 N   0  0  0  0  0  0  0  0  0  0  0  0
    7.0925  -15.2602   23.4910 C   0  0  0  0  0  0  0  0  0  0  0  0
    8.3587  -15.3646   23.3510 O   0  0  0  0  0  0  0  0  0  0  0  0
    6.3670  -11.8688   25.6868 C   0  0  0  0  0  0  0  0  0  0  0  0
    6.8521  -13.0354   26.4806 C   0  0  2  0  0  0  0  0  0  0  0  0
    7.8452  -12.5910   27.5582 C   0  0  0  0  0  0  0  0  0  0  0  0
    7.5911  -14.0617   25.6333 C   0  0  2  0  0  0  0  0  0  0  0  0
    6.6556  -14.5094   24.6194 N   0  0  0  0  0  0  0  0  0  0  0  0
    8.0875  -15.1871   26.4551 C   0  0  0  0  0  0  0  0  0  0  0  0
    7.2510  -15.9902   26.9377 O   0  0  0  0  0  0  0  0  0  0  0  0
    9.4768  -15.3391   26.6815 N   0  0  0  0  0  0  0  0  0  0  0  0
   10.0218  -16.5347   27.3470 C   0  0  1  0  0  0  0  0  0  0  0  0
   10.5996  -17.4863   26.3803 C   0  0  0  0  0  0  0  0  0  0  0  0
   11.9306  -17.2129   25.8106 C   0  0  0  0  0  0  0  0  0  0  0  0
   12.4731  -18.2376   24.8524 C   0  0  0  0  0  0  0  0  0  0  0  0
   13.8895  -17.9133   24.4219 C   0  0  0  0  0  0  0  0  0  0  0  0
   14.3248  -18.9097   23.4711 N   0  0  0  0  0  0  0  0  0  0  0  0
   10.7979  -16.1055   28.4910 C   0  0  0  0  0  0  0  0  0  0  0  0
   11.3269  -17.0551   29.3513 O   0  0  0  0  0  0  0  0  0  0  0  0
   11.0507  -14.9080   28.7995 O   0  0  0  0  0  0  0  0  0  0  0  0
  2  1  1  1
  2  3  1  0
  4  2  1  0
  5  6  1  6
  5  4  1  0
  7  5  1  0
  8  7  2  0
 10  9  1  6
 10 11  1  0
 12 13  1  6
 12 10  1  0
 13  7  1  0
 14 12  1  0
 15 14  2  0
 16 14  1  0
 17 18  1  6
 17 16  1  0
 19 18  1  0
 20 21  1  0
 20 19  1  0
 22 21  1  0
 23 24  1  0
 23 17  1  0
 25 23  2  0
M  END
$$$$
