LVK.pdb
     RDKit          3D

 25 24  0  0  1  0  0  0  0  0999 V2000
    7.3631  -12.0434   18.9814 C   0  0  0  0  0  0  0  0  0  0  0  0
    7.4702  -13.4092   19.6398 C   0  0  1  0  0  0  0  0  0  0  0  0
    8.1429  -14.4131   18.7503 C   0  0  0  0  0  0  0  0  0  0  0  0
    8.0771  -13.3284   21.0056 C   0  0  0  0  0  0  0  0  0  0  0  0
    8.0131  -14.6468   21.7465 C   0  0  2  0  0  0  0  0  0  0  0  0
    6.6583  -15.1412   21.8476 N   0  0  0  0  0  0  0  0  0  0  0  0
    8.5723  -14.5308   23.1124 C   0  0  0  0  0  0  0  0  0  0  0  0
    9.8248  -14.3710   23.3114 O   0  0  0  0  0  0  0  0  0  0  0  0
    5.9615  -14.2604   26.3786 C   0  0  0  0  0  0  0  0  0  0  0  0
    7.3364  -13.6845   26.4454 C   0  0  2  0  0  0  0  0  0  0  0  0
    7.3577  -12.2511   25.9070 C   0  0  0  0  0  0  0  0  0  0  0  0
    8.3435  -14.4580   25.6058 C   0  0  2  0  0  0  0  0  0  0  0  0
    7.7633  -14.5884   24.2829 N   0  0  0  0  0  0  0  0  0  0  0  0
    8.6476  -15.7771   26.2025 C   0  0  0  0  0  0  0  0  0  0  0  0
    7.7128  -16.6063   26.3292 O   0  0  0  0  0  0  0  0  0  0  0  0
    9.9676  -16.0796   26.6152 N   0  0  0  0  0  0  0  0  0  0  0  0
   10.3438  -17.4322   27.0607 C   0  0  1  0  0  0  0  0  0  0  0  0
   11.5413  -17.9288   26.3585 C   0  0  0  0  0  0  0  0  0  0  0  0
   12.0979  -19.2420   26.7276 C   0  0  0  0  0  0  0  0  0  0  0  0
   13.3434  -19.6705   26.0012 C   0  0  0  0  0  0  0  0  0  0  0  0
   13.7248  -21.0998   26.3299 C   0  0  0  0  0  0  0  0  0  0  0  0
   14.9501  -21.4240   25.6371 N   0  0  0  0  0  0  0  0  0  0  0  0
   10.2867  -17.4681   28.5066 C   0  0  0  0  0  0  0  0  0  0  0  0
   10.3071  -16.2795   29.2197 O   0  0  0  0  0  0  0  0  0  0  0  0
   10.2200  -18.5117   29.2133 O   0  0  0  0  0  0  0  0  0  0  0  0
  2  1  1  6
  2  3  1  0
  4  2  1  0
  5  6  1  1
  5  4  1  0
  7  5  1  0
  8  7  2  0
 10  9  1  6
 10 11  1  0
 12 13  1  6
 12 10  1  0
 13  7  1  0
 14 12  1  0
 15 14  2  0
 16 14  1  0
 17 18  1  1
 17 16  1  0
 19 18  1  0
 20 21  1  0
 20 19  1  0
 22 21  1  0
 23 24  1  0
 23 17  1  0
 25 23  2  0
M  END
$$$$
