LVK.pdb
     RDKit          3D

 25 24  0  0  1  0  0  0  0  0999 V2000
    6.7014  -18.0399   19.9171 C   0  0  0  0  0  0  0  0  0  0  0  0
    6.1001  -16.8072   20.5722 C   0  0  1  0  0  0  0  0  0  0  0  0
    4.6381  -16.9791   20.8627 C   0  0  0  0  0  0  0  0  0  0  0  0
    6.8913  -16.3609   21.7619 C   0  0  0  0  0  0  0  0  0  0  0  0
    6.9304  -14.8539   21.8990 C   0  0  2  0  0  0  0  0  0  0  0  0
    7.4030  -14.2165   20.6904 N   0  0  0  0  0  0  0  0  0  0  0  0
    7.7992  -14.4323   23.0211 C   0  0  0  0  0  0  0  0  0  0  0  0
    9.0733  -14.4391   22.9200 O   0  0  0  0  0  0  0  0  0  0  0  0
    6.0350  -13.2243   26.6464 C   0  0  0  0  0  0  0  0  0  0  0  0
    7.4241  -12.7867   26.3215 C   0  0  2  0  0  0  0  0  0  0  0  0
    7.4181  -11.4466   25.5805 C   0  0  0  0  0  0  0  0  0  0  0  0
    8.1537  -13.7623   25.4086 C   0  0  2  0  0  0  0  0  0  0  0  0
    7.2812  -13.9958   24.2738 N   0  0  0  0  0  0  0  0  0  0  0  0
    8.4842  -15.0205   26.1129 C   0  0  0  0  0  0  0  0  0  0  0  0
    7.5485  -15.8050   26.4073 O   0  0  0  0  0  0  0  0  0  0  0  0
    9.8297  -15.3162   26.4394 N   0  0  0  0  0  0  0  0  0  0  0  0
   10.2340  -16.6569   26.8959 C   0  0  1  0  0  0  0  0  0  0  0  0
   11.3062  -17.2229   26.0569 C   0  0  0  0  0  0  0  0  0  0  0  0
   11.8552  -18.5489   26.3901 C   0  0  0  0  0  0  0  0  0  0  0  0
   13.0111  -19.0254   25.5539 C   0  0  0  0  0  0  0  0  0  0  0  0
   13.5326  -20.3681   26.0250 C   0  0  0  0  0  0  0  0  0  0  0  0
   14.7366  -20.6814   25.2912 N   0  0  0  0  0  0  0  0  0  0  0  0
   10.3845  -16.6221   28.3351 C   0  0  0  0  0  0  0  0  0  0  0  0
   10.3730  -15.4018   28.9927 O   0  0  0  0  0  0  0  0  0  0  0  0
   10.5333  -17.6282   29.0826 O   0  0  0  0  0  0  0  0  0  0  0  0
  2  1  1  1
  2  3  1  0
  4  2  1  0
  5  6  1  6
  5  4  1  0
  7  5  1  0
  8  7  2  0
 10  9  1  6
 10 11  1  0
 12 13  1  6
 12 10  1  0
 13  7  1  0
 14 12  1  0
 15 14  2  0
 16 14  1  0
 17 18  1  6
 17 16  1  0
 19 18  1  0
 20 21  1  0
 20 19  1  0
 22 21  1  0
 23 24  1  0
 23 17  1  0
 25 23  2  0
M  END
$$$$
