LVK.pdb
     RDKit          3D

 25 24  0  0  1  0  0  0  0  0999 V2000
    2.6747  -19.3271   22.5744 C   0  0  0  0  0  0  0  0  0  0  0  0
    3.3536  -18.8616   21.2965 C   0  0  1  0  0  0  0  0  0  0  0  0
    2.4348  -18.0471   20.4340 C   0  0  0  0  0  0  0  0  0  0  0  0
    4.6619  -18.1873   21.5690 C   0  0  0  0  0  0  0  0  0  0  0  0
    5.3394  -17.7054   20.3041 C   0  0  2  0  0  0  0  0  0  0  0  0
    5.5442  -18.7817   19.3607 N   0  0  0  0  0  0  0  0  0  0  0  0
    6.6499  -17.0806   20.5932 C   0  0  0  0  0  0  0  0  0  0  0  0
    7.6872  -17.7852   20.8408 O   0  0  0  0  0  0  0  0  0  0  0  0
    7.1345  -12.8943   21.5842 C   0  0  0  0  0  0  0  0  0  0  0  0
    8.0230  -13.6006   20.6156 C   0  0  2  0  0  0  0  0  0  0  0  0
    7.4777  -13.4897   19.1890 C   0  0  0  0  0  0  0  0  0  0  0  0
    8.1414  -15.0915   20.8997 C   0  0  2  0  0  0  0  0  0  0  0  0
    6.8421  -15.6697   20.6149 N   0  0  0  0  0  0  0  0  0  0  0  0
    8.5596  -15.3460   22.2957 C   0  0  0  0  0  0  0  0  0  0  0  0
    7.6698  -15.5342   23.1620 O   0  0  0  0  0  0  0  0  0  0  0  0
    9.9353  -15.3731   22.6285 N   0  0  0  0  0  0  0  0  0  0  0  0
   10.4320  -16.1345   23.7874 C   0  0  1  0  0  0  0  0  0  0  0  0
    9.9969  -17.5425   23.7473 C   0  0  0  0  0  0  0  0  0  0  0  0
   10.4967  -18.4786   24.7694 C   0  0  0  0  0  0  0  0  0  0  0  0
   10.0848  -19.9175   24.6195 C   0  0  0  0  0  0  0  0  0  0  0  0
   10.5251  -20.7566   25.8021 C   0  0  0  0  0  0  0  0  0  0  0  0
   10.1820  -22.1360   25.5456 N   0  0  0  0  0  0  0  0  0  0  0  0
   11.8311  -15.8153   23.9767 C   0  0  0  0  0  0  0  0  0  0  0  0
   12.3242  -15.6452   25.2611 O   0  0  0  0  0  0  0  0  0  0  0  0
   12.6818  -15.6676   23.0560 O   0  0  0  0  0  0  0  0  0  0  0  0
  2  1  1  1
  2  3  1  0
  4  2  1  0
  5  6  1  6
  5  4  1  0
  7  5  1  0
  8  7  2  0
 10  9  1  1
 10 11  1  0
 12 13  1  1
 12 10  1  0
 13  7  1  0
 14 12  1  0
 15 14  2  0
 16 14  1  0
 17 18  1  6
 17 16  1  0
 19 18  1  0
 20 21  1  0
 20 19  1  0
 22 21  1  0
 23 24  1  0
 23 17  1  0
 25 23  2  0
M  END
$$$$
