LVK.pdb
     RDKit          3D

 25 24  0  0  1  0  0  0  0  0999 V2000
    7.4323  -12.2382   28.1184 C   0  0  0  0  0  0  0  0  0  0  0  0
    6.5229  -13.1709   27.3351 C   0  0  1  0  0  0  0  0  0  0  0  0
    5.6233  -12.4237   26.3950 C   0  0  0  0  0  0  0  0  0  0  0  0
    7.2868  -14.2740   26.6717 C   0  0  0  0  0  0  0  0  0  0  0  0
    6.4617  -15.0085   25.6368 C   0  0  2  0  0  0  0  0  0  0  0  0
    5.6730  -16.0652   26.2297 N   0  0  0  0  0  0  0  0  0  0  0  0
    7.3144  -15.5976   24.5797 C   0  0  0  0  0  0  0  0  0  0  0  0
    7.8865  -16.7300   24.7351 O   0  0  0  0  0  0  0  0  0  0  0  0
    8.6857  -13.3532   21.1778 C   0  0  0  0  0  0  0  0  0  0  0  0
    8.1710  -14.7471   21.0417 C   0  0  2  0  0  0  0  0  0  0  0  0
    6.6649  -14.7514   20.7649 C   0  0  0  0  0  0  0  0  0  0  0  0
    8.3629  -15.5748   22.3049 C   0  0  2  0  0  0  0  0  0  0  0  0
    7.5524  -14.9512   23.3333 N   0  0  0  0  0  0  0  0  0  0  0  0
    9.7877  -15.6430   22.6972 C   0  0  0  0  0  0  0  0  0  0  0  0
   10.2547  -14.7255   23.4166 O   0  0  0  0  0  0  0  0  0  0  0  0
   10.5903  -16.7251   22.2623 N   0  0  0  0  0  0  0  0  0  0  0  0
   11.8890  -17.0214   22.8908 C   0  0  1  0  0  0  0  0  0  0  0  0
   11.8728  -18.3118   23.6038 C   0  0  0  0  0  0  0  0  0  0  0  0
   13.1072  -18.7917   24.2494 C   0  0  0  0  0  0  0  0  0  0  0  0
   13.0280  -20.1262   24.9388 C   0  0  0  0  0  0  0  0  0  0  0  0
   14.3537  -20.5211   25.5577 C   0  0  0  0  0  0  0  0  0  0  0  0
   14.1815  -21.7674   26.2672 N   0  0  0  0  0  0  0  0  0  0  0  0
   12.9349  -16.7389   21.9309 C   0  0  0  0  0  0  0  0  0  0  0  0
   12.6485  -16.7901   20.5754 O   0  0  0  0  0  0  0  0  0  0  0  0
   14.1289  -16.4414   22.2118 O   0  0  0  0  0  0  0  0  0  0  0  0
  2  1  1  6
  2  3  1  0
  4  2  1  0
  5  6  1  1
  5  4  1  0
  7  5  1  0
  8  7  2  0
 10  9  1  1
 10 11  1  0
 12 13  1  1
 12 10  1  0
 13  7  1  0
 14 12  1  0
 15 14  2  0
 16 14  1  0
 17 18  1  6
 17 16  1  0
 19 18  1  0
 20 21  1  0
 20 19  1  0
 22 21  1  0
 23 24  1  0
 23 17  1  0
 25 23  2  0
M  END
$$$$
