LVK.pdb
     RDKit          3D

 25 24  0  0  1  0  0  0  0  0999 V2000
    6.9515  -11.8633   28.0301 C   0  0  0  0  0  0  0  0  0  0  0  0
    6.1368  -12.7564   27.1086 C   0  0  1  0  0  0  0  0  0  0  0  0
    5.2117  -11.9663   26.2302 C   0  0  0  0  0  0  0  0  0  0  0  0
    6.9992  -13.7151   26.3487 C   0  0  0  0  0  0  0  0  0  0  0  0
    6.2009  -14.5899   25.4060 C   0  0  2  0  0  0  0  0  0  0  0  0
    5.4307  -15.5845   26.1186 N   0  0  0  0  0  0  0  0  0  0  0  0
    7.0768  -15.2835   24.4347 C   0  0  0  0  0  0  0  0  0  0  0  0
    7.5346  -16.4547   24.6639 O   0  0  0  0  0  0  0  0  0  0  0  0
    6.9458  -14.3638   20.4529 C   0  0  0  0  0  0  0  0  0  0  0  0
    8.3226  -14.6072   20.9741 C   0  0  2  0  0  0  0  0  0  0  0  0
    9.1509  -15.4219   19.9765 C   0  0  0  0  0  0  0  0  0  0  0  0
    8.3322  -15.4052   22.2705 C   0  0  2  0  0  0  0  0  0  0  0  0
    7.4640  -14.7007   23.1944 N   0  0  0  0  0  0  0  0  0  0  0  0
    9.7027  -15.5489   22.8087 C   0  0  0  0  0  0  0  0  0  0  0  0
   10.2512  -14.5438   23.3248 O   0  0  0  0  0  0  0  0  0  0  0  0
   10.3645  -16.7982   22.7347 N   0  0  0  0  0  0  0  0  0  0  0  0
   11.5527  -17.0895   23.5549 C   0  0  1  0  0  0  0  0  0  0  0  0
   11.2311  -17.9653   24.6964 C   0  0  0  0  0  0  0  0  0  0  0  0
   12.3112  -18.3864   25.6058 C   0  0  0  0  0  0  0  0  0  0  0  0
   11.9159  -19.2849   26.7455 C   0  0  0  0  0  0  0  0  0  0  0  0
   13.1103  -19.6879   27.5867 C   0  0  0  0  0  0  0  0  0  0  0  0
   12.6340  -20.2837   28.8132 N   0  0  0  0  0  0  0  0  0  0  0  0
   12.6461  -17.4286   22.6690 C   0  0  0  0  0  0  0  0  0  0  0  0
   12.3715  -17.9752   21.4250 O   0  0  0  0  0  0  0  0  0  0  0  0
   13.8726  -17.2741   22.9235 O   0  0  0  0  0  0  0  0  0  0  0  0
  2  1  1  6
  2  3  1  0
  4  2  1  0
  5  6  1  1
  5  4  1  0
  7  5  1  0
  8  7  2  0
 10  9  1  6
 10 11  1  0
 12 13  1  1
 12 10  1  0
 13  7  1  0
 14 12  1  0
 15 14  2  0
 16 14  1  0
 17 18  1  1
 17 16  1  0
 19 18  1  0
 20 21  1  0
 20 19  1  0
 22 21  1  0
 23 24  1  0
 23 17  1  0
 25 23  2  0
M  END
$$$$
