LVK.pdb
     RDKit          3D

 25 24  0  0  1  0  0  0  0  0999 V2000
    7.2699  -12.0154   27.6716 C   0  0  0  0  0  0  0  0  0  0  0  0
    6.4270  -13.0857   26.9975 C   0  0  1  0  0  0  0  0  0  0  0  0
    5.6048  -12.5304   25.8718 C   0  0  0  0  0  0  0  0  0  0  0  0
    7.2424  -14.2772   26.6029 C   0  0  0  0  0  0  0  0  0  0  0  0
    6.5139  -15.1816   25.6320 C   0  0  2  0  0  0  0  0  0  0  0  0
    5.8883  -16.2984   26.3040 N   0  0  0  0  0  0  0  0  0  0  0  0
    7.4259  -15.7114   24.5932 C   0  0  0  0  0  0  0  0  0  0  0  0
    8.1700  -16.7275   24.8111 O   0  0  0  0  0  0  0  0  0  0  0  0
    8.7314  -13.4894   21.2011 C   0  0  0  0  0  0  0  0  0  0  0  0
    8.2059  -14.8749   21.0253 C   0  0  2  0  0  0  0  0  0  0  0  0
    6.7047  -14.8582   20.7234 C   0  0  0  0  0  0  0  0  0  0  0  0
    8.3687  -15.7323   22.2726 C   0  0  2  0  0  0  0  0  0  0  0  0
    7.5351  -15.1325   23.2967 N   0  0  0  0  0  0  0  0  0  0  0  0
    9.7841  -15.8110   22.6956 C   0  0  0  0  0  0  0  0  0  0  0  0
   10.2897  -14.8209   23.2801 O   0  0  0  0  0  0  0  0  0  0  0  0
   10.5352  -16.9832   22.4390 N   0  0  0  0  0  0  0  0  0  0  0  0
   11.9316  -17.1164   22.8884 C   0  0  1  0  0  0  0  0  0  0  0  0
   12.1185  -18.2903   23.7607 C   0  0  0  0  0  0  0  0  0  0  0  0
   11.3977  -18.3539   25.0441 C   0  0  0  0  0  0  0  0  0  0  0  0
   11.6240  -19.5839   25.8799 C   0  0  0  0  0  0  0  0  0  0  0  0
   10.8113  -19.5546   27.1586 C   0  0  0  0  0  0  0  0  0  0  0  0
   11.0424  -20.7824   27.8834 N   0  0  0  0  0  0  0  0  0  0  0  0
   12.7987  -16.9190   21.7464 C   0  0  0  0  0  0  0  0  0  0  0  0
   14.1394  -16.6312   21.9497 O   0  0  0  0  0  0  0  0  0  0  0  0
   12.4453  -16.9819   20.5363 O   0  0  0  0  0  0  0  0  0  0  0  0
  2  1  1  6
  2  3  1  0
  4  2  1  0
  5  6  1  1
  5  4  1  0
  7  5  1  0
  8  7  2  0
 10  9  1  1
 10 11  1  0
 12 13  1  1
 12 10  1  0
 13  7  1  0
 14 12  1  0
 15 14  2  0
 16 14  1  0
 17 18  1  6
 17 16  1  0
 19 18  1  0
 20 21  1  0
 20 19  1  0
 22 21  1  0
 23 24  1  0
 23 17  1  0
 25 23  2  0
M  END
$$$$
