LVK.pdb
     RDKit          3D

 25 24  0  0  1  0  0  0  0  0999 V2000
    7.1472  -11.6496   27.7847 C   0  0  0  0  0  0  0  0  0  0  0  0
    6.3367  -12.6239   26.9456 C   0  0  1  0  0  0  0  0  0  0  0  0
    5.2525  -11.9345   26.1704 C   0  0  0  0  0  0  0  0  0  0  0  0
    7.2091  -13.4946   26.0963 C   0  0  0  0  0  0  0  0  0  0  0  0
    6.4132  -14.4859   25.2746 C   0  0  2  0  0  0  0  0  0  0  0  0
    5.7474  -15.4622   26.1075 N   0  0  0  0  0  0  0  0  0  0  0  0
    7.2728  -15.2044   24.3069 C   0  0  0  0  0  0  0  0  0  0  0  0
    7.8385  -16.3106   24.6070 O   0  0  0  0  0  0  0  0  0  0  0  0
    8.8270  -13.3572   20.7598 C   0  0  0  0  0  0  0  0  0  0  0  0
    8.2626  -14.7381   20.7271 C   0  0  2  0  0  0  0  0  0  0  0  0
    6.7706  -14.7130   20.3831 C   0  0  0  0  0  0  0  0  0  0  0  0
    8.3673  -15.4522   22.0674 C   0  0  2  0  0  0  0  0  0  0  0  0
    7.5250  -14.7183   22.9923 N   0  0  0  0  0  0  0  0  0  0  0  0
    9.7682  -15.5192   22.5381 C   0  0  0  0  0  0  0  0  0  0  0  0
   10.1945  -14.6001   23.2804 O   0  0  0  0  0  0  0  0  0  0  0  0
   10.5940  -16.6018   22.1504 N   0  0  0  0  0  0  0  0  0  0  0  0
   11.8024  -16.9595   22.9127 C   0  0  1  0  0  0  0  0  0  0  0  0
   11.5594  -18.0878   23.8301 C   0  0  0  0  0  0  0  0  0  0  0  0
   12.6688  -18.5927   24.6578 C   0  0  0  0  0  0  0  0  0  0  0  0
   12.3429  -19.7176   25.6018 C   0  0  0  0  0  0  0  0  0  0  0  0
   13.5669  -20.1905   26.3598 C   0  0  0  0  0  0  0  0  0  0  0  0
   13.1704  -21.2344   27.2760 N   0  0  0  0  0  0  0  0  0  0  0  0
   12.9231  -17.0005   21.9974 C   0  0  0  0  0  0  0  0  0  0  0  0
   12.7011  -17.2890   20.6598 O   0  0  0  0  0  0  0  0  0  0  0  0
   14.1299  -16.7946   22.3044 O   0  0  0  0  0  0  0  0  0  0  0  0
  2  1  1  6
  2  3  1  0
  4  2  1  0
  5  6  1  1
  5  4  1  0
  7  5  1  0
  8  7  2  0
 10  9  1  1
 10 11  1  0
 12 13  1  1
 12 10  1  0
 13  7  1  0
 14 12  1  0
 15 14  2  0
 16 14  1  0
 17 18  1  6
 17 16  1  0
 19 18  1  0
 20 21  1  0
 20 19  1  0
 22 21  1  0
 23 24  1  0
 23 17  1  0
 25 23  2  0
M  END
$$$$
