LVK.pdb
     RDKit          3D

 25 24  0  0  1  0  0  0  0  0999 V2000
    6.3536  -21.7926   24.7789 C   0  0  0  0  0  0  0  0  0  0  0  0
    5.6559  -20.5931   24.1587 C   0  0  1  0  0  0  0  0  0  0  0  0
    4.3324  -20.3124   24.8076 C   0  0  0  0  0  0  0  0  0  0  0  0
    6.5498  -19.3942   24.0953 C   0  0  0  0  0  0  0  0  0  0  0  0
    5.8316  -18.1627   23.5863 C   0  0  2  0  0  0  0  0  0  0  0  0
    5.4114  -18.3156   22.2115 N   0  0  0  0  0  0  0  0  0  0  0  0
    6.6844  -16.9565   23.6839 C   0  0  0  0  0  0  0  0  0  0  0  0
    7.6251  -16.7327   22.8481 O   0  0  0  0  0  0  0  0  0  0  0  0
    7.8032  -12.7360   26.0517 C   0  0  0  0  0  0  0  0  0  0  0  0
    6.8636  -13.8415   25.7029 C   0  0  2  0  0  0  0  0  0  0  0  0
    6.2438  -14.4528   26.9627 C   0  0  0  0  0  0  0  0  0  0  0  0
    7.5467  -14.9918   24.9765 C   0  0  2  0  0  0  0  0  0  0  0  0
    6.5169  -15.9757   24.7027 N   0  0  0  0  0  0  0  0  0  0  0  0
    8.6492  -15.5627   25.7810 C   0  0  0  0  0  0  0  0  0  0  0  0
    8.3624  -16.3574   26.7104 O   0  0  0  0  0  0  0  0  0  0  0  0
    9.9900  -15.2098   25.4950 N   0  0  0  0  0  0  0  0  0  0  0  0
   11.1156  -16.0675   25.9037 C   0  0  1  0  0  0  0  0  0  0  0  0
   12.2801  -15.9069   25.0138 C   0  0  0  0  0  0  0  0  0  0  0  0
   13.4162  -16.8362   25.1422 C   0  0  0  0  0  0  0  0  0  0  0  0
   14.5111  -16.7018   24.1197 C   0  0  0  0  0  0  0  0  0  0  0  0
   15.6258  -17.7018   24.3519 C   0  0  0  0  0  0  0  0  0  0  0  0
   15.7944  -18.4944   23.1562 N   0  0  0  0  0  0  0  0  0  0  0  0
   11.2797  -15.9517   27.3372 C   0  0  0  0  0  0  0  0  0  0  0  0
   11.8089  -17.0155   28.0512 O   0  0  0  0  0  0  0  0  0  0  0  0
   10.9763  -14.9426   28.0320 O   0  0  0  0  0  0  0  0  0  0  0  0
  2  1  1  1
  2  3  1  0
  4  2  1  0
  5  6  1  6
  5  4  1  0
  7  5  1  0
  8  7  2  0
 10  9  1  1
 10 11  1  0
 12 13  1  1
 12 10  1  0
 13  7  1  0
 14 12  1  0
 15 14  2  0
 16 14  1  0
 17 18  1  6
 17 16  1  0
 19 18  1  0
 20 21  1  0
 20 19  1  0
 22 21  1  0
 23 24  1  0
 23 17  1  0
 25 23  2  0
M  END
$$$$
