LVK.pdb
     RDKit          3D

 25 24  0  0  1  0  0  0  0  0999 V2000
    6.9224  -12.2819   28.2468 C   0  0  0  0  0  0  0  0  0  0  0  0
    6.1987  -12.7254   26.9858 C   0  0  1  0  0  0  0  0  0  0  0  0
    5.5559  -11.5740   26.2697 C   0  0  0  0  0  0  0  0  0  0  0  0
    7.0717  -13.5593   26.1010 C   0  0  0  0  0  0  0  0  0  0  0  0
    6.2859  -14.5861   25.3140 C   0  0  2  0  0  0  0  0  0  0  0  0
    5.7289  -15.6087   26.1710 N   0  0  0  0  0  0  0  0  0  0  0  0
    7.1253  -15.2427   24.2864 C   0  0  0  0  0  0  0  0  0  0  0  0
    7.6967  -16.3648   24.5060 O   0  0  0  0  0  0  0  0  0  0  0  0
    8.7346  -13.2027   20.8771 C   0  0  0  0  0  0  0  0  0  0  0  0
    8.0675  -14.5295   20.7323 C   0  0  2  0  0  0  0  0  0  0  0  0
    6.5763  -14.3636   20.4261 C   0  0  0  0  0  0  0  0  0  0  0  0
    8.1398  -15.3698   21.9997 C   0  0  2  0  0  0  0  0  0  0  0  0
    7.3506  -14.6762   22.9994 N   0  0  0  0  0  0  0  0  0  0  0  0
    9.5378  -15.5629   22.4432 C   0  0  0  0  0  0  0  0  0  0  0  0
   10.0549  -14.6934   23.1875 O   0  0  0  0  0  0  0  0  0  0  0  0
   10.2601  -16.7076   22.0281 N   0  0  0  0  0  0  0  0  0  0  0  0
   11.5712  -17.0431   22.6095 C   0  0  1  0  0  0  0  0  0  0  0  0
   11.5478  -18.3436   23.3037 C   0  0  0  0  0  0  0  0  0  0  0  0
   12.7973  -18.8757   23.8751 C   0  0  0  0  0  0  0  0  0  0  0  0
   12.7170  -20.2355   24.5131 C   0  0  0  0  0  0  0  0  0  0  0  0
   14.0665  -20.7004   25.0223 C   0  0  0  0  0  0  0  0  0  0  0  0
   13.9342  -22.0492   25.5218 N   0  0  0  0  0  0  0  0  0  0  0  0
   12.5918  -16.7700   21.6201 C   0  0  0  0  0  0  0  0  0  0  0  0
   13.8917  -16.5206   22.0322 O   0  0  0  0  0  0  0  0  0  0  0  0
   12.4126  -16.7316   20.3714 O   0  0  0  0  0  0  0  0  0  0  0  0
  2  1  1  1
  2  3  1  0
  4  2  1  0
  5  6  1  1
  5  4  1  0
  7  5  1  0
  8  7  2  0
 10  9  1  1
 10 11  1  0
 12 13  1  1
 12 10  1  0
 13  7  1  0
 14 12  1  0
 15 14  2  0
 16 14  1  0
 17 18  1  6
 17 16  1  0
 19 18  1  0
 20 21  1  0
 20 19  1  0
 22 21  1  0
 23 24  1  0
 23 17  1  0
 25 23  2  0
M  END
$$$$
