LVK.pdb
     RDKit          3D

 25 24  0  0  1  0  0  0  0  0999 V2000
    9.6965  -17.6009   14.0674 C   0  0  0  0  0  0  0  0  0  0  0  0
    9.6881  -17.9892   15.5370 C   0  0  1  0  0  0  0  0  0  0  0  0
   10.2899  -19.3446   15.7658 C   0  0  0  0  0  0  0  0  0  0  0  0
   10.2838  -16.9236   16.4030 C   0  0  0  0  0  0  0  0  0  0  0  0
   10.1101  -17.2124   17.8787 C   0  0  2  0  0  0  0  0  0  0  0  0
    8.8391  -17.8430   18.1568 N   0  0  0  0  0  0  0  0  0  0  0  0
   10.2075  -15.9778   18.6897 C   0  0  0  0  0  0  0  0  0  0  0  0
   11.3035  -15.3277   18.7899 O   0  0  0  0  0  0  0  0  0  0  0  0
    7.4671  -12.9813   18.9727 C   0  0  0  0  0  0  0  0  0  0  0  0
    7.8682  -13.5927   20.2733 C   0  0  2  0  0  0  0  0  0  0  0  0
    7.9522  -12.5327   21.3753 C   0  0  0  0  0  0  0  0  0  0  0  0
    9.2419  -14.2467   20.2213 C   0  0  2  0  0  0  0  0  0  0  0  0
    9.1010  -15.4370   19.4046 N   0  0  0  0  0  0  0  0  0  0  0  0
    9.7410  -14.5685   21.5762 C   0  0  0  0  0  0  0  0  0  0  0  0
    9.8743  -13.6322   22.4027 O   0  0  0  0  0  0  0  0  0  0  0  0
   10.0560  -15.9065   21.9149 N   0  0  0  0  0  0  0  0  0  0  0  0
   10.4201  -16.2869   23.2905 C   0  0  1  0  0  0  0  0  0  0  0  0
    9.9338  -17.6355   23.6346 C   0  0  0  0  0  0  0  0  0  0  0  0
   10.4788  -18.8009   22.9163 C   0  0  0  0  0  0  0  0  0  0  0  0
    9.8726  -20.1368   23.2486 C   0  0  0  0  0  0  0  0  0  0  0  0
   10.3951  -21.2342   22.3435 C   0  0  0  0  0  0  0  0  0  0  0  0
    9.7290  -22.4705   22.6814 N   0  0  0  0  0  0  0  0  0  0  0  0
   11.8094  -15.9425   23.5060 C   0  0  0  0  0  0  0  0  0  0  0  0
   12.6172  -15.6536   22.4171 O   0  0  0  0  0  0  0  0  0  0  0  0
   12.3846  -15.8779   24.6276 O   0  0  0  0  0  0  0  0  0  0  0  0
  2  1  1  6
  2  3  1  0
  4  2  1  0
  5  6  1  6
  5  4  1  0
  7  5  1  0
  8  7  2  0
 10  9  1  6
 10 11  1  0
 12 13  1  6
 12 10  1  0
 13  7  1  0
 14 12  1  0
 15 14  2  0
 16 14  1  0
 17 18  1  6
 17 16  1  0
 19 18  1  0
 20 21  1  0
 20 19  1  0
 22 21  1  0
 23 24  1  0
 23 17  1  0
 25 23  2  0
M  END
$$$$
