LVK.pdb
     RDKit          3D

 25 24  0  0  1  0  0  0  0  0999 V2000
    5.0759  -11.7742   26.7991 C   0  0  0  0  0  0  0  0  0  0  0  0
    6.4276  -12.3347   26.3879 C   0  0  1  0  0  0  0  0  0  0  0  0
    7.4646  -12.1475   27.4562 C   0  0  0  0  0  0  0  0  0  0  0  0
    6.3261  -13.7472   25.9030 C   0  0  0  0  0  0  0  0  0  0  0  0
    7.6649  -14.3108   25.4773 C   0  0  2  0  0  0  0  0  0  0  0  0
    8.6821  -13.2858   25.4087 N   0  0  0  0  0  0  0  0  0  0  0  0
    7.5802  -14.9755   24.1573 C   0  0  0  0  0  0  0  0  0  0  0  0
    6.7367  -15.9088   23.9308 O   0  0  0  0  0  0  0  0  0  0  0  0
    9.1354  -13.3156   20.6015 C   0  0  0  0  0  0  0  0  0  0  0  0
    8.1040  -14.3879   20.7144 C   0  0  2  0  0  0  0  0  0  0  0  0
    6.7305  -13.7958   21.0430 C   0  0  0  0  0  0  0  0  0  0  0  0
    8.4038  -15.3828   21.8269 C   0  0  2  0  0  0  0  0  0  0  0  0
    8.4221  -14.6250   23.0634 N   0  0  0  0  0  0  0  0  0  0  0  0
    9.6856  -16.0844   21.5960 C   0  0  0  0  0  0  0  0  0  0  0  0
   10.7554  -15.4576   21.7964 O   0  0  0  0  0  0  0  0  0  0  0  0
    9.6863  -17.4311   21.1594 N   0  0  0  0  0  0  0  0  0  0  0  0
   10.9408  -18.1831   20.9854 C   0  0  1  0  0  0  0  0  0  0  0  0
   10.8353  -19.5568   21.5101 C   0  0  0  0  0  0  0  0  0  0  0  0
   10.6002  -19.7599   22.9504 C   0  0  0  0  0  0  0  0  0  0  0  0
   10.5068  -21.1858   23.4199 C   0  0  0  0  0  0  0  0  0  0  0  0
   10.2127  -21.2730   24.9040 C   0  0  0  0  0  0  0  0  0  0  0  0
   10.0749  -22.6638   25.2687 N   0  0  0  0  0  0  0  0  0  0  0  0
   11.4239  -17.9584   19.6395 C   0  0  0  0  0  0  0  0  0  0  0  0
   10.5163  -17.7076   18.6221 O   0  0  0  0  0  0  0  0  0  0  0  0
   12.6343  -17.9701   19.2821 O   0  0  0  0  0  0  0  0  0  0  0  0
  2  1  1  1
  2  3  1  0
  4  2  1  0
  5  6  1  6
  5  4  1  0
  7  5  1  0
  8  7  2  0
 10  9  1  1
 10 11  1  0
 12 13  1  1
 12 10  1  0
 13  7  1  0
 14 12  1  0
 15 14  2  0
 16 14  1  0
 17 18  1  6
 17 16  1  0
 19 18  1  0
 20 21  1  0
 20 19  1  0
 22 21  1  0
 23 24  1  0
 23 17  1  0
 25 23  2  0
M  END
$$$$
