LVK.pdb
     RDKit          3D

 25 24  0  0  1  0  0  0  0  0999 V2000
    7.6375  -12.4197   18.6553 C   0  0  0  0  0  0  0  0  0  0  0  0
    8.1626  -13.3313   19.7524 C   0  0  1  0  0  0  0  0  0  0  0  0
    7.7259  -12.8824   21.1160 C   0  0  0  0  0  0  0  0  0  0  0  0
    7.8604  -14.7715   19.4787 C   0  0  0  0  0  0  0  0  0  0  0  0
    8.4656  -15.6967   20.5126 C   0  0  2  0  0  0  0  0  0  0  0  0
    8.5013  -15.0878   21.8234 N   0  0  0  0  0  0  0  0  0  0  0  0
    9.8426  -16.0968   20.1446 C   0  0  0  0  0  0  0  0  0  0  0  0
   10.0653  -17.0116   19.2801 O   0  0  0  0  0  0  0  0  0  0  0  0
   12.6416  -14.1529   18.6964 C   0  0  0  0  0  0  0  0  0  0  0  0
   13.1332  -14.7509   19.9720 C   0  0  2  0  0  0  0  0  0  0  0  0
   14.5805  -15.2307   19.8312 C   0  0  0  0  0  0  0  0  0  0  0  0
   12.3313  -15.9717   20.4010 C   0  0  2  0  0  0  0  0  0  0  0  0
   10.9986  -15.4975   20.7213 N   0  0  0  0  0  0  0  0  0  0  0  0
   12.9599  -16.6563   21.5519 C   0  0  0  0  0  0  0  0  0  0  0  0
   12.9150  -16.0995   22.6768 O   0  0  0  0  0  0  0  0  0  0  0  0
   13.5928  -17.9096   21.3701 N   0  0  0  0  0  0  0  0  0  0  0  0
   14.1151  -18.6807   22.5112 C   0  0  1  0  0  0  0  0  0  0  0  0
   13.6062  -20.0644   22.5183 C   0  0  0  0  0  0  0  0  0  0  0  0
   14.0989  -21.0061   23.5388 C   0  0  0  0  0  0  0  0  0  0  0  0
   13.6280  -22.4297   23.4204 C   0  0  0  0  0  0  0  0  0  0  0  0
   14.2221  -23.3121   24.4999 C   0  0  0  0  0  0  0  0  0  0  0  0
   13.5294  -24.5795   24.4962 N   0  0  0  0  0  0  0  0  0  0  0  0
   15.5374  -18.4331   22.6157 C   0  0  0  0  0  0  0  0  0  0  0  0
   16.1269  -18.3605   23.8683 O   0  0  0  0  0  0  0  0  0  0  0  0
   16.3273  -18.2674   21.6453 O   0  0  0  0  0  0  0  0  0  0  0  0
  2  1  1  6
  2  3  1  0
  4  2  1  0
  5  6  1  1
  5  4  1  0
  7  5  1  0
  8  7  2  0
 10  9  1  6
 10 11  1  0
 12 13  1  1
 12 10  1  0
 13  7  1  0
 14 12  1  0
 15 14  2  0
 16 14  1  0
 17 18  1  6
 17 16  1  0
 19 18  1  0
 20 21  1  0
 20 19  1  0
 22 21  1  0
 23 24  1  0
 23 17  1  0
 25 23  2  0
M  END
$$$$
