CFN.pdb
     RDKit          3D

 26 26  0  0  1  0  0  0  0  0999 V2000
    9.7474  -17.5354   20.1015 N   0  0  0  0  0  0  0  0  0  0  0  0
    8.6146  -17.5518   20.9800 C   0  0  1  0  0  0  0  0  0  0  0  0
    8.2718  -18.9443   21.4090 C   0  0  0  0  0  0  0  0  0  0  0  0
    9.6694  -19.5467   22.4341 S   0  0  0  0  0  0  0  0  0  0  0  0
    8.7575  -16.5976   22.0988 C   0  0  0  0  0  0  0  0  0  0  0  0
    9.8975  -16.0970   22.2920 O   0  0  0  0  0  0  0  0  0  0  0  0
    7.7159  -16.2113   22.9580 N   0  0  0  0  0  0  0  0  0  0  0  0
    7.8837  -15.2305   23.9991 C   0  0  1  0  0  0  0  0  0  0  0  0
    6.5900  -14.4940   24.2917 C   0  0  0  0  0  0  0  0  0  0  0  0
    6.7583  -13.4147   25.2717 C   0  0  0  0  0  0  0  0  0  0  0  0
    6.0156  -13.4476   26.4529 C   0  0  0  0  0  0  0  0  0  0  0  0
    6.1438  -12.4539   27.4010 C   0  0  0  0  0  0  0  0  0  0  0  0
    7.0054  -11.3918   27.2243 C   0  0  0  0  0  0  0  0  0  0  0  0
    7.7435  -11.3444   26.0677 C   0  0  0  0  0  0  0  0  0  0  0  0
    7.6115  -12.3507   25.1110 C   0  0  0  0  0  0  0  0  0  0  0  0
    8.5245  -15.7743   25.2161 C   0  0  0  0  0  0  0  0  0  0  0  0
    8.9719  -14.9630   26.0946 O   0  0  0  0  0  0  0  0  0  0  0  0
    6.7873  -19.5464   25.5928 N   0  0  0  0  0  0  0  0  0  0  0  0
    7.4861  -19.2842   26.8100 C   0  0  0  0  0  0  0  0  0  0  0  0
    6.7975  -19.1801   27.8409 O   0  0  0  0  0  0  0  0  0  0  0  0
    8.9388  -19.1524   26.7981 C   0  0  0  0  0  0  0  0  0  0  0  0
    9.3228  -17.6701   26.6909 C   0  0  2  0  0  0  0  0  0  0  0  0
    8.6646  -17.1506   25.4564 N   0  0  0  0  0  0  0  0  0  0  0  0
   10.7646  -17.6195   26.4079 C   0  0  0  0  0  0  0  0  0  0  0  0
   11.2142  -17.1838   25.3349 O   0  0  0  0  0  0  0  0  0  0  0  0
   11.6721  -18.0638   27.3494 O   0  0  0  0  0  0  0  0  0  0  0  0
  2  5  1  0
  2  1  1  1
  3  2  1  0
  4  3  1  0
  5  6  2  0
  7  8  1  0
  7  5  1  0
  8  9  1  1
  9 10  1  0
 10 15  2  0
 11 12  2  0
 11 10  1  0
 12 13  1  0
 13 14  2  0
 15 14  1  0
 16  8  1  0
 17 16  2  0
 18 19  1  0
 19 20  2  0
 21 19  1  0
 22 21  1  6
 22 23  1  0
 23 16  1  0
 24 26  1  0
 24 22  1  0
 25 24  2  0
M  END
$$$$
