CFN.pdb
     RDKit          3D

 26 26  0  0  1  0  0  0  0  0999 V2000
    7.9989  -17.8476   20.8295 N   0  0  0  0  0  0  0  0  0  0  0  0
    7.6743  -17.5085   22.1842 C   0  0  1  0  0  0  0  0  0  0  0  0
    6.9185  -18.6093   22.8605 C   0  0  0  0  0  0  0  0  0  0  0  0
    5.2393  -17.9622   23.2193 S   0  0  0  0  0  0  0  0  0  0  0  0
    8.8508  -17.0351   22.9420 C   0  0  0  0  0  0  0  0  0  0  0  0
    9.9600  -17.5766   22.6889 O   0  0  0  0  0  0  0  0  0  0  0  0
    8.8193  -16.0281   23.9205 N   0  0  0  0  0  0  0  0  0  0  0  0
    9.9710  -15.6621   24.7037 C   0  0  1  0  0  0  0  0  0  0  0  0
    9.8974  -14.2210   25.1725 C   0  0  0  0  0  0  0  0  0  0  0  0
    8.5588  -13.8417   25.6392 C   0  0  0  0  0  0  0  0  0  0  0  0
    7.6054  -13.4301   24.7066 C   0  0  0  0  0  0  0  0  0  0  0  0
    6.3352  -13.0657   25.1022 C   0  0  0  0  0  0  0  0  0  0  0  0
    5.9545  -13.0920   26.4273 C   0  0  0  0  0  0  0  0  0  0  0  0
    6.8803  -13.4946   27.3575 C   0  0  0  0  0  0  0  0  0  0  0  0
    8.1639  -13.8624   26.9543 C   0  0  0  0  0  0  0  0  0  0  0  0
   10.2562  -16.6108   25.8018 C   0  0  0  0  0  0  0  0  0  0  0  0
   11.1539  -16.3127   26.6593 O   0  0  0  0  0  0  0  0  0  0  0  0
    8.6056  -18.4206   29.3214 N   0  0  0  0  0  0  0  0  0  0  0  0
    8.0525  -19.4036   28.4461 C   0  0  0  0  0  0  0  0  0  0  0  0
    6.9886  -19.9394   28.8051 O   0  0  0  0  0  0  0  0  0  0  0  0
    8.7365  -19.7323   27.2003 C   0  0  0  0  0  0  0  0  0  0  0  0
    9.9495  -18.8097   27.0172 C   0  0  2  0  0  0  0  0  0  0  0  0
    9.5812  -17.8330   25.9507 N   0  0  0  0  0  0  0  0  0  0  0  0
   11.0256  -19.6256   26.4362 C   0  0  0  0  0  0  0  0  0  0  0  0
   10.7984  -20.5527   25.6412 O   0  0  0  0  0  0  0  0  0  0  0  0
   12.3426  -19.3738   26.7673 O   0  0  0  0  0  0  0  0  0  0  0  0
  2  5  1  0
  2  1  1  6
  3  2  1  0
  4  3  1  0
  5  6  2  0
  7  8  1  0
  7  5  1  0
  8  9  1  1
  9 10  1  0
 10 15  2  0
 11 12  2  0
 11 10  1  0
 12 13  1  0
 13 14  2  0
 15 14  1  0
 16  8  1  0
 17 16  2  0
 18 19  1  0
 19 20  2  0
 21 19  1  0
 22 21  1  6
 22 23  1  0
 23 16  1  0
 24 26  1  0
 24 22  1  0
 25 24  2  0
M  END
$$$$
