CFN.pdb
     RDKit          3D

 26 26  0  0  1  0  0  0  0  0999 V2000
   10.2616  -16.7045   19.3026 N   0  0  0  0  0  0  0  0  0  0  0  0
    9.0433  -16.8152   20.0502 C   0  0  1  0  0  0  0  0  0  0  0  0
    8.5936  -18.2386   20.1609 C   0  0  0  0  0  0  0  0  0  0  0  0
    7.0551  -18.3911   19.1726 S   0  0  0  0  0  0  0  0  0  0  0  0
    9.1118  -16.1055   21.3441 C   0  0  0  0  0  0  0  0  0  0  0  0
   10.1600  -16.2477   22.0287 O   0  0  0  0  0  0  0  0  0  0  0  0
    8.0948  -15.2871   21.8620 N   0  0  0  0  0  0  0  0  0  0  0  0
    8.1201  -14.7613   23.2024 C   0  0  1  0  0  0  0  0  0  0  0  0
    7.0810  -13.6735   23.3995 C   0  0  0  0  0  0  0  0  0  0  0  0
    7.0522  -13.1556   24.7723 C   0  0  0  0  0  0  0  0  0  0  0  0
    8.0171  -12.2286   25.1693 C   0  0  0  0  0  0  0  0  0  0  0  0
    8.0259  -11.7159   26.4498 C   0  0  0  0  0  0  0  0  0  0  0  0
    7.0881  -12.0944   27.3873 C   0  0  0  0  0  0  0  0  0  0  0  0
    6.1319  -13.0055   27.0131 C   0  0  0  0  0  0  0  0  0  0  0  0
    6.1257  -13.5221   25.7175 C   0  0  0  0  0  0  0  0  0  0  0  0
    8.0595  -15.8107   24.2428 C   0  0  0  0  0  0  0  0  0  0  0  0
    7.1883  -16.7379   24.1360 O   0  0  0  0  0  0  0  0  0  0  0  0
   10.1033  -19.2775   27.3875 N   0  0  0  0  0  0  0  0  0  0  0  0
   10.4656  -19.1572   26.0118 C   0  0  0  0  0  0  0  0  0  0  0  0
   11.1474  -20.0788   25.5285 O   0  0  0  0  0  0  0  0  0  0  0  0
   10.0349  -17.9915   25.2478 C   0  0  0  0  0  0  0  0  0  0  0  0
    9.1596  -17.0899   26.1294 C   0  0  2  0  0  0  0  0  0  0  0  0
    8.9214  -15.8393   25.3508 N   0  0  0  0  0  0  0  0  0  0  0  0
    9.9844  -16.6783   27.2747 C   0  0  0  0  0  0  0  0  0  0  0  0
   10.2588  -17.4533   28.2060 O   0  0  0  0  0  0  0  0  0  0  0  0
   10.4851  -15.3929   27.3424 O   0  0  0  0  0  0  0  0  0  0  0  0
  2  5  1  0
  2  1  1  1
  3  2  1  0
  4  3  1  0
  5  6  2  0
  7  8  1  0
  7  5  1  0
  8  9  1  6
  9 10  1  0
 10 15  2  0
 11 12  2  0
 11 10  1  0
 12 13  1  0
 13 14  2  0
 15 14  1  0
 16  8  1  0
 17 16  2  0
 18 19  1  0
 19 20  2  0
 21 19  1  0
 22 21  1  6
 22 23  1  0
 23 16  1  0
 24 26  1  0
 24 22  1  0
 25 24  2  0
M  END
$$$$
