CFN.pdb
     RDKit          3D

 26 26  0  0  1  0  0  0  0  0999 V2000
    9.8145  -15.9686   19.5846 N   0  0  0  0  0  0  0  0  0  0  0  0
    9.1829  -16.6662   20.6662 C   0  0  1  0  0  0  0  0  0  0  0  0
    9.4223  -18.1414   20.5833 C   0  0  0  0  0  0  0  0  0  0  0  0
    8.2579  -18.9382   21.7563 S   0  0  0  0  0  0  0  0  0  0  0  0
    9.5109  -16.0784   21.9813 C   0  0  0  0  0  0  0  0  0  0  0  0
   10.7107  -15.7542   22.1887 O   0  0  0  0  0  0  0  0  0  0  0  0
    8.5828  -15.8566   23.0118 N   0  0  0  0  0  0  0  0  0  0  0  0
    8.9660  -15.4169   24.3285 C   0  0  1  0  0  0  0  0  0  0  0  0
    7.7848  -14.8613   25.1018 C   0  0  0  0  0  0  0  0  0  0  0  0
    8.1658  -14.3191   26.4112 C   0  0  0  0  0  0  0  0  0  0  0  0
    8.2325  -12.9352   26.5803 C   0  0  0  0  0  0  0  0  0  0  0  0
    8.5855  -12.3837   27.7943 C   0  0  0  0  0  0  0  0  0  0  0  0
    8.8859  -13.1701   28.8865 C   0  0  0  0  0  0  0  0  0  0  0  0
    8.8250  -14.5334   28.7371 C   0  0  0  0  0  0  0  0  0  0  0  0
    8.4678  -15.0880   27.5082 C   0  0  0  0  0  0  0  0  0  0  0  0
    9.7229  -16.4360   25.0874 C   0  0  0  0  0  0  0  0  0  0  0  0
    9.2067  -17.5915   25.2559 O   0  0  0  0  0  0  0  0  0  0  0  0
   13.3623  -17.5128   23.6659 N   0  0  0  0  0  0  0  0  0  0  0  0
   13.5883  -16.5299   24.6764 C   0  0  0  0  0  0  0  0  0  0  0  0
   14.0396  -15.4330   24.3011 O   0  0  0  0  0  0  0  0  0  0  0  0
   13.2899  -16.8408   26.0700 C   0  0  0  0  0  0  0  0  0  0  0  0
   11.8292  -17.2950   26.1973 C   0  0  2  0  0  0  0  0  0  0  0  0
   10.9931  -16.1943   25.6348 N   0  0  0  0  0  0  0  0  0  0  0  0
   11.5120  -17.3234   27.6325 C   0  0  0  0  0  0  0  0  0  0  0  0
   12.0603  -18.1158   28.4166 O   0  0  0  0  0  0  0  0  0  0  0  0
   10.5776  -16.4500   28.1537 O   0  0  0  0  0  0  0  0  0  0  0  0
  2  5  1  0
  2  1  1  6
  3  2  1  0
  4  3  1  0
  5  6  2  0
  7  8  1  0
  7  5  1  0
  8  9  1  1
  9 10  1  0
 10 15  2  0
 11 12  2  0
 11 10  1  0
 12 13  1  0
 13 14  2  0
 15 14  1  0
 16  8  1  0
 17 16  2  0
 18 19  1  0
 19 20  2  0
 21 19  1  0
 22 21  1  1
 22 23  1  0
 23 16  1  0
 24 26  1  0
 24 22  1  0
 25 24  2  0
M  END
$$$$
