CFN.pdb
     RDKit          3D

 26 26  0  0  1  0  0  0  0  0999 V2000
    9.8847  -16.6631   19.1723 N   0  0  0  0  0  0  0  0  0  0  0  0
    9.1155  -17.1069   20.2978 C   0  0  1  0  0  0  0  0  0  0  0  0
    9.4241  -18.5290   20.6483 C   0  0  0  0  0  0  0  0  0  0  0  0
    8.5558  -19.5818   19.4217 S   0  0  0  0  0  0  0  0  0  0  0  0
    9.2033  -16.1749   21.4408 C   0  0  0  0  0  0  0  0  0  0  0  0
   10.3247  -15.6512   21.6772 O   0  0  0  0  0  0  0  0  0  0  0  0
    8.1290  -15.8333   22.2783 N   0  0  0  0  0  0  0  0  0  0  0  0
    8.2713  -14.9660   23.4190 C   0  0  1  0  0  0  0  0  0  0  0  0
    6.9331  -14.6660   24.0678 C   0  0  0  0  0  0  0  0  0  0  0  0
    7.0442  -13.7383   25.1995 C   0  0  0  0  0  0  0  0  0  0  0  0
    6.4334  -12.4862   25.1142 C   0  0  0  0  0  0  0  0  0  0  0  0
    6.5125  -11.5844   26.1550 C   0  0  0  0  0  0  0  0  0  0  0  0
    7.1938  -11.8786   27.3172 C   0  0  0  0  0  0  0  0  0  0  0  0
    7.8003  -13.1060   27.4174 C   0  0  0  0  0  0  0  0  0  0  0  0
    7.7186  -14.0157   26.3632 C   0  0  0  0  0  0  0  0  0  0  0  0
    9.2877  -15.4345   24.3858 C   0  0  0  0  0  0  0  0  0  0  0  0
   10.1355  -14.5981   24.8460 O   0  0  0  0  0  0  0  0  0  0  0  0
   11.5833  -18.2040   28.0598 N   0  0  0  0  0  0  0  0  0  0  0  0
   10.1833  -18.4823   28.0279 C   0  0  0  0  0  0  0  0  0  0  0  0
    9.7260  -19.1659   28.9613 O   0  0  0  0  0  0  0  0  0  0  0  0
    9.3667  -17.9691   26.9335 C   0  0  0  0  0  0  0  0  0  0  0  0
   10.2454  -17.1645   25.9657 C   0  0  2  0  0  0  0  0  0  0  0  0
    9.3660  -16.7648   24.8283 N   0  0  0  0  0  0  0  0  0  0  0  0
   11.2182  -18.1031   25.3879 C   0  0  0  0  0  0  0  0  0  0  0  0
   12.1480  -18.5874   26.0544 O   0  0  0  0  0  0  0  0  0  0  0  0
   11.1180  -18.4770   24.0622 O   0  0  0  0  0  0  0  0  0  0  0  0
  2  5  1  0
  2  1  1  6
  3  2  1  0
  4  3  1  0
  5  6  2  0
  7  8  1  0
  7  5  1  0
  8  9  1  1
  9 10  1  0
 10 15  2  0
 11 12  2  0
 11 10  1  0
 12 13  1  0
 13 14  2  0
 15 14  1  0
 16  8  1  0
 17 16  2  0
 18 19  1  0
 19 20  2  0
 21 19  1  0
 22 21  1  1
 22 23  1  0
 23 16  1  0
 24 26  1  0
 24 22  1  0
 25 24  2  0
M  END
$$$$
