CFN.pdb
     RDKit          3D

 26 26  0  0  1  0  0  0  0  0999 V2000
    7.1851  -19.2775   21.1929 N   0  0  0  0  0  0  0  0  0  0  0  0
    7.1238  -19.3160   22.6248 C   0  0  1  0  0  0  0  0  0  0  0  0
    7.7817  -20.5447   23.1704 C   0  0  0  0  0  0  0  0  0  0  0  0
    7.3669  -20.6246   24.9560 S   0  0  0  0  0  0  0  0  0  0  0  0
    7.5955  -18.0590   23.2413 C   0  0  0  0  0  0  0  0  0  0  0  0
    8.6592  -17.5557   22.7908 O   0  0  0  0  0  0  0  0  0  0  0  0
    6.9441  -17.3889   24.2896 N   0  0  0  0  0  0  0  0  0  0  0  0
    7.4947  -16.2262   24.9365 C   0  0  1  0  0  0  0  0  0  0  0  0
    6.4132  -15.3663   25.5633 C   0  0  0  0  0  0  0  0  0  0  0  0
    6.9150  -14.0665   26.0243 C   0  0  0  0  0  0  0  0  0  0  0  0
    7.3500  -13.9353   27.3440 C   0  0  0  0  0  0  0  0  0  0  0  0
    7.8296  -12.7320   27.8180 C   0  0  0  0  0  0  0  0  0  0  0  0
    7.8998  -11.6138   27.0142 C   0  0  0  0  0  0  0  0  0  0  0  0
    7.4759  -11.7257   25.7133 C   0  0  0  0  0  0  0  0  0  0  0  0
    6.9914  -12.9439   25.2370 C   0  0  0  0  0  0  0  0  0  0  0  0
    8.5927  -16.5447   25.8747 C   0  0  0  0  0  0  0  0  0  0  0  0
    8.4127  -17.4554   26.7513 O   0  0  0  0  0  0  0  0  0  0  0  0
   11.8959  -17.1489   24.2790 N   0  0  0  0  0  0  0  0  0  0  0  0
   12.5792  -16.0369   24.8579 C   0  0  0  0  0  0  0  0  0  0  0  0
   13.4716  -15.5077   24.1714 O   0  0  0  0  0  0  0  0  0  0  0  0
   12.2151  -15.5776   26.1937 C   0  0  0  0  0  0  0  0  0  0  0  0
   10.9818  -16.3468   26.6869 C   0  0  2  0  0  0  0  0  0  0  0  0
    9.8351  -15.8909   25.8477 N   0  0  0  0  0  0  0  0  0  0  0  0
   10.6847  -15.8587   28.0414 C   0  0  0  0  0  0  0  0  0  0  0  0
   10.0274  -14.8240   28.2433 O   0  0  0  0  0  0  0  0  0  0  0  0
   11.1385  -16.5548   29.1445 O   0  0  0  0  0  0  0  0  0  0  0  0
  2  5  1  0
  2  1  1  6
  3  2  1  0
  4  3  1  0
  5  6  2  0
  7  8  1  0
  7  5  1  0
  8  9  1  1
  9 10  1  0
 10 15  2  0
 11 12  2  0
 11 10  1  0
 12 13  1  0
 13 14  2  0
 15 14  1  0
 16  8  1  0
 17 16  2  0
 18 19  1  0
 19 20  2  0
 21 19  1  0
 22 21  1  6
 22 23  1  0
 23 16  1  0
 24 26  1  0
 24 22  1  0
 25 24  2  0
M  END
$$$$
