CFN.pdb
     RDKit          3D

 26 26  0  0  1  0  0  0  0  0999 V2000
    8.1723  -17.3918   20.2066 N   0  0  0  0  0  0  0  0  0  0  0  0
    8.5549  -16.0199   20.0427 C   0  0  1  0  0  0  0  0  0  0  0  0
    7.6660  -15.3140   19.0669 C   0  0  0  0  0  0  0  0  0  0  0  0
    8.4485  -13.6938   18.7068 S   0  0  0  0  0  0  0  0  0  0  0  0
    8.7022  -15.3195   21.3351 C   0  0  0  0  0  0  0  0  0  0  0  0
    9.6999  -14.5626   21.4741 O   0  0  0  0  0  0  0  0  0  0  0  0
    7.8118  -15.4379   22.4147 N   0  0  0  0  0  0  0  0  0  0  0  0
    7.9356  -14.6595   23.6199 C   0  0  1  0  0  0  0  0  0  0  0  0
    6.5865  -14.1771   24.1189 C   0  0  0  0  0  0  0  0  0  0  0  0
    6.6921  -13.3134   25.3006 C   0  0  0  0  0  0  0  0  0  0  0  0
    6.1430  -13.7451   26.5090 C   0  0  0  0  0  0  0  0  0  0  0  0
    6.2206  -12.9650   27.6440 C   0  0  0  0  0  0  0  0  0  0  0  0
    6.8399  -11.7330   27.6343 C   0  0  0  0  0  0  0  0  0  0  0  0
    7.3853  -11.2934   26.4537 C   0  0  0  0  0  0  0  0  0  0  0  0
    7.3050  -12.0845   25.3078 C   0  0  0  0  0  0  0  0  0  0  0  0
    8.7312  -15.3314   24.6701 C   0  0  0  0  0  0  0  0  0  0  0  0
    9.0324  -14.6829   25.7278 O   0  0  0  0  0  0  0  0  0  0  0  0
    6.9195  -18.7994   25.4222 N   0  0  0  0  0  0  0  0  0  0  0  0
    8.0362  -18.7116   26.3074 C   0  0  0  0  0  0  0  0  0  0  0  0
    7.7832  -18.6034   27.5207 O   0  0  0  0  0  0  0  0  0  0  0  0
    9.3919  -18.7509   25.7704 C   0  0  0  0  0  0  0  0  0  0  0  0
    9.9438  -17.3233   25.6541 C   0  0  2  0  0  0  0  0  0  0  0  0
    9.1737  -16.6595   24.5617 N   0  0  0  0  0  0  0  0  0  0  0  0
   11.3177  -17.4345   25.1430 C   0  0  0  0  0  0  0  0  0  0  0  0
   11.6342  -17.0501   24.0049 O   0  0  0  0  0  0  0  0  0  0  0  0
   12.3099  -17.9798   25.9339 O   0  0  0  0  0  0  0  0  0  0  0  0
  2  5  1  0
  2  1  1  1
  3  2  1  0
  4  3  1  0
  5  6  2  0
  7  8  1  0
  7  5  1  0
  8  9  1  1
  9 10  1  0
 10 15  2  0
 11 12  2  0
 11 10  1  0
 12 13  1  0
 13 14  2  0
 15 14  1  0
 16  8  1  0
 17 16  2  0
 18 19  1  0
 19 20  2  0
 21 19  1  0
 22 21  1  6
 22 23  1  0
 23 16  1  0
 24 26  1  0
 24 22  1  0
 25 24  2  0
M  END
$$$$
