CFN.pdb
     RDKit          3D

 26 26  0  0  1  0  0  0  0  0999 V2000
   10.2678  -16.1054   18.9802 N   0  0  0  0  0  0  0  0  0  0  0  0
    9.2093  -16.5375   19.8453 C   0  0  1  0  0  0  0  0  0  0  0  0
    9.1123  -18.0304   19.8920 C   0  0  0  0  0  0  0  0  0  0  0  0
    7.7023  -18.4398   20.9926 S   0  0  0  0  0  0  0  0  0  0  0  0
    9.2752  -15.8988   21.1758 C   0  0  0  0  0  0  0  0  0  0  0  0
   10.3884  -15.9017   21.7660 O   0  0  0  0  0  0  0  0  0  0  0  0
    8.1885  -15.2913   21.8258 N   0  0  0  0  0  0  0  0  0  0  0  0
    8.2757  -14.7528   23.1585 C   0  0  1  0  0  0  0  0  0  0  0  0
    7.1176  -13.8221   23.4658 C   0  0  0  0  0  0  0  0  0  0  0  0
    7.1922  -13.2460   24.8135 C   0  0  0  0  0  0  0  0  0  0  0  0
    6.2861  -13.6724   25.7858 C   0  0  0  0  0  0  0  0  0  0  0  0
    6.3217  -13.1576   27.0650 C   0  0  0  0  0  0  0  0  0  0  0  0
    7.2477  -12.2056   27.4365 C   0  0  0  0  0  0  0  0  0  0  0  0
    8.1462  -11.7754   26.4920 C   0  0  0  0  0  0  0  0  0  0  0  0
    8.1076  -12.2979   25.1994 C   0  0  0  0  0  0  0  0  0  0  0  0
    8.4725  -15.7887   24.1955 C   0  0  0  0  0  0  0  0  0  0  0  0
    7.5624  -16.6663   24.3736 O   0  0  0  0  0  0  0  0  0  0  0  0
   12.4864  -17.3959   23.5538 N   0  0  0  0  0  0  0  0  0  0  0  0
   11.5429  -17.9802   24.4521 C   0  0  0  0  0  0  0  0  0  0  0  0
   10.9340  -18.9873   24.0489 O   0  0  0  0  0  0  0  0  0  0  0  0
   11.3353  -17.3905   25.7701 C   0  0  0  0  0  0  0  0  0  0  0  0
    9.8610  -16.9957   25.9337 C   0  0  2  0  0  0  0  0  0  0  0  0
    9.6216  -15.8569   24.9995 N   0  0  0  0  0  0  0  0  0  0  0  0
    9.7165  -16.4248   27.2807 C   0  0  0  0  0  0  0  0  0  0  0  0
    9.8296  -17.1140   28.3080 O   0  0  0  0  0  0  0  0  0  0  0  0
    9.4469  -15.0794   27.4383 O   0  0  0  0  0  0  0  0  0  0  0  0
  2  5  1  0
  2  1  1  6
  3  2  1  0
  4  3  1  0
  5  6  2  0
  7  8  1  0
  7  5  1  0
  8  9  1  1
  9 10  1  0
 10 15  2  0
 11 12  2  0
 11 10  1  0
 12 13  1  0
 13 14  2  0
 15 14  1  0
 16  8  1  0
 17 16  2  0
 18 19  1  0
 19 20  2  0
 21 19  1  0
 22 21  1  1
 22 23  1  0
 23 16  1  0
 24 26  1  0
 24 22  1  0
 25 24  2  0
M  END
$$$$
