CFN.pdb
     RDKit          3D

 26 26  0  0  1  0  0  0  0  0999 V2000
   10.4752  -17.4016   20.4632 N   0  0  0  0  0  0  0  0  0  0  0  0
    9.2134  -17.3880   21.1437 C   0  0  1  0  0  0  0  0  0  0  0  0
    8.7678  -18.7709   21.5034 C   0  0  0  0  0  0  0  0  0  0  0  0
    9.4736  -19.1469   23.1549 S   0  0  0  0  0  0  0  0  0  0  0  0
    9.1959  -16.4388   22.2756 C   0  0  0  0  0  0  0  0  0  0  0  0
   10.3023  -16.1404   22.7994 O   0  0  0  0  0  0  0  0  0  0  0  0
    8.0373  -15.8483   22.8061 N   0  0  0  0  0  0  0  0  0  0  0  0
    8.0657  -14.9218   23.9082 C   0  0  1  0  0  0  0  0  0  0  0  0
    6.7902  -14.1044   23.9887 C   0  0  0  0  0  0  0  0  0  0  0  0
    6.8124  -13.1202   25.0770 C   0  0  0  0  0  0  0  0  0  0  0  0
    5.8026  -13.1492   26.0401 C   0  0  0  0  0  0  0  0  0  0  0  0
    5.7859  -12.2431   27.0801 C   0  0  0  0  0  0  0  0  0  0  0  0
    6.7595  -11.2757   27.2126 C   0  0  0  0  0  0  0  0  0  0  0  0
    7.7602  -11.2333   26.2737 C   0  0  0  0  0  0  0  0  0  0  0  0
    7.7741  -12.1510   25.2233 C   0  0  0  0  0  0  0  0  0  0  0  0
    8.4255  -15.5557   25.1950 C   0  0  0  0  0  0  0  0  0  0  0  0
    9.0725  -14.8752   26.0602 O   0  0  0  0  0  0  0  0  0  0  0  0
    8.4403  -20.5152   26.1318 N   0  0  0  0  0  0  0  0  0  0  0  0
    7.4089  -19.5368   25.9998 C   0  0  0  0  0  0  0  0  0  0  0  0
    6.7159  -19.5879   24.9679 O   0  0  0  0  0  0  0  0  0  0  0  0
    7.2131  -18.5435   27.0500 C   0  0  0  0  0  0  0  0  0  0  0  0
    8.2474  -17.4195   26.8982 C   0  0  2  0  0  0  0  0  0  0  0  0
    8.0862  -16.8798   25.5163 N   0  0  0  0  0  0  0  0  0  0  0  0
    9.5742  -18.0525   26.9111 C   0  0  0  0  0  0  0  0  0  0  0  0
   10.2637  -18.1668   25.8840 O   0  0  0  0  0  0  0  0  0  0  0  0
   10.0965  -18.5445   28.0912 O   0  0  0  0  0  0  0  0  0  0  0  0
  2  5  1  0
  2  1  1  1
  3  2  1  0
  4  3  1  0
  5  6  2  0
  7  8  1  0
  7  5  1  0
  8  9  1  1
  9 10  1  0
 10 15  2  0
 11 12  2  0
 11 10  1  0
 12 13  1  0
 13 14  2  0
 15 14  1  0
 16  8  1  0
 17 16  2  0
 18 19  1  0
 19 20  2  0
 21 19  1  0
 22 21  1  6
 22 23  1  0
 23 16  1  0
 24 26  1  0
 24 22  1  0
 25 24  2  0
M  END
$$$$
