CFN.pdb
     RDKit          3D

 26 26  0  0  1  0  0  0  0  0999 V2000
   10.8407  -16.6808   20.0350 N   0  0  0  0  0  0  0  0  0  0  0  0
    9.8868  -17.1235   21.0094 C   0  0  1  0  0  0  0  0  0  0  0  0
   10.1587  -18.5292   21.4458 C   0  0  0  0  0  0  0  0  0  0  0  0
    8.7055  -19.5334   20.9490 S   0  0  0  0  0  0  0  0  0  0  0  0
    9.7387  -16.1670   22.1255 C   0  0  0  0  0  0  0  0  0  0  0  0
   10.7926  -15.6835   22.6185 O   0  0  0  0  0  0  0  0  0  0  0  0
    8.5108  -15.7608   22.6728 N   0  0  0  0  0  0  0  0  0  0  0  0
    8.4124  -14.9655   23.8693 C   0  0  1  0  0  0  0  0  0  0  0  0
    7.0919  -14.2221   23.9434 C   0  0  0  0  0  0  0  0  0  0  0  0
    6.9826  -13.3729   25.1353 C   0  0  0  0  0  0  0  0  0  0  0  0
    7.7869  -12.2367   25.2361 C   0  0  0  0  0  0  0  0  0  0  0  0
    7.7155  -11.4109   26.3387 C   0  0  0  0  0  0  0  0  0  0  0  0
    6.8522  -11.6701   27.3823 C   0  0  0  0  0  0  0  0  0  0  0  0
    6.0539  -12.7838   27.2989 C   0  0  0  0  0  0  0  0  0  0  0  0
    6.1286  -13.6169   26.1827 C   0  0  0  0  0  0  0  0  0  0  0  0
    8.7158  -15.7244   25.1018 C   0  0  0  0  0  0  0  0  0  0  0  0
    8.8997  -15.0857   26.1920 O   0  0  0  0  0  0  0  0  0  0  0  0
    6.7830  -19.5683   24.4190 N   0  0  0  0  0  0  0  0  0  0  0  0
    7.1492  -19.3036   25.7734 C   0  0  0  0  0  0  0  0  0  0  0  0
    6.2218  -19.0773   26.5712 O   0  0  0  0  0  0  0  0  0  0  0  0
    8.5562  -19.3084   26.1583 C   0  0  0  0  0  0  0  0  0  0  0  0
    9.0291  -17.8696   26.4080 C   0  0  2  0  0  0  0  0  0  0  0  0
    8.8103  -17.1250   25.1334 N   0  0  0  0  0  0  0  0  0  0  0  0
   10.4885  -17.9209   26.5775 C   0  0  0  0  0  0  0  0  0  0  0  0
   11.2703  -17.4529   25.7330 O   0  0  0  0  0  0  0  0  0  0  0  0
   11.0358  -18.5020   27.7045 O   0  0  0  0  0  0  0  0  0  0  0  0
  2  5  1  0
  2  1  1  6
  3  2  1  0
  4  3  1  0
  5  6  2  0
  7  8  1  0
  7  5  1  0
  8  9  1  1
  9 10  1  0
 10 15  2  0
 11 12  2  0
 11 10  1  0
 12 13  1  0
 13 14  2  0
 15 14  1  0
 16  8  1  0
 17 16  2  0
 18 19  1  0
 19 20  2  0
 21 19  1  0
 22 21  1  6
 22 23  1  0
 23 16  1  0
 24 26  1  0
 24 22  1  0
 25 24  2  0
M  END
$$$$
