CFN.pdb
     RDKit          3D

 26 26  0  0  1  0  0  0  0  0999 V2000
    9.3626  -16.2085   18.4608 N   0  0  0  0  0  0  0  0  0  0  0  0
    8.2773  -16.4050   19.3767 C   0  0  1  0  0  0  0  0  0  0  0  0
    7.8783  -17.8455   19.4554 C   0  0  0  0  0  0  0  0  0  0  0  0
    9.3472  -18.7754   20.0422 S   0  0  0  0  0  0  0  0  0  0  0  0
    8.5315  -15.7804   20.6912 C   0  0  0  0  0  0  0  0  0  0  0  0
    9.7243  -15.4891   20.9739 O   0  0  0  0  0  0  0  0  0  0  0  0
    7.5408  -15.4899   21.6434 N   0  0  0  0  0  0  0  0  0  0  0  0
    7.8307  -14.8668   22.9088 C   0  0  1  0  0  0  0  0  0  0  0  0
    6.6136  -14.1659   23.4825 C   0  0  0  0  0  0  0  0  0  0  0  0
    6.8828  -13.5230   24.7740 C   0  0  0  0  0  0  0  0  0  0  0  0
    7.5923  -12.3214   24.8000 C   0  0  0  0  0  0  0  0  0  0  0  0
    7.8663  -11.6833   25.9919 C   0  0  0  0  0  0  0  0  0  0  0  0
    7.4539  -12.2013   27.2015 C   0  0  0  0  0  0  0  0  0  0  0  0
    6.7547  -13.3827   27.1936 C   0  0  0  0  0  0  0  0  0  0  0  0
    6.4793  -14.0254   25.9867 C   0  0  0  0  0  0  0  0  0  0  0  0
    8.4778  -15.7804   23.8752 C   0  0  0  0  0  0  0  0  0  0  0  0
    7.9616  -16.9300   24.0806 O   0  0  0  0  0  0  0  0  0  0  0  0
   12.3408  -18.1085   26.3376 N   0  0  0  0  0  0  0  0  0  0  0  0
   12.8405  -16.8584   25.8622 C   0  0  0  0  0  0  0  0  0  0  0  0
   14.0496  -16.6308   26.0468 O   0  0  0  0  0  0  0  0  0  0  0  0
   11.9399  -15.9231   25.1974 C   0  0  0  0  0  0  0  0  0  0  0  0
   10.5114  -16.4849   25.2073 C   0  0  2  0  0  0  0  0  0  0  0  0
    9.6430  -15.4442   24.5828 N   0  0  0  0  0  0  0  0  0  0  0  0
   10.0849  -16.5485   26.6127 C   0  0  0  0  0  0  0  0  0  0  0  0
    9.7304  -17.6111   27.1499 O   0  0  0  0  0  0  0  0  0  0  0  0
   10.0692  -15.4038   27.3852 O   0  0  0  0  0  0  0  0  0  0  0  0
  2  5  1  0
  2  1  1  6
  3  2  1  0
  4  3  1  0
  5  6  2  0
  7  8  1  0
  7  5  1  0
  8  9  1  1
  9 10  1  0
 10 15  2  0
 11 12  2  0
 11 10  1  0
 12 13  1  0
 13 14  2  0
 15 14  1  0
 16  8  1  0
 17 16  2  0
 18 19  1  0
 19 20  2  0
 21 19  1  0
 22 21  1  1
 22 23  1  0
 23 16  1  0
 24 26  1  0
 24 22  1  0
 25 24  2  0
M  END
$$$$
