CFN.pdb
     RDKit          3D

 26 26  0  0  1  0  0  0  0  0999 V2000
   10.7929  -17.6633   19.3788 N   0  0  0  0  0  0  0  0  0  0  0  0
    9.6131  -17.7390   20.1897 C   0  0  1  0  0  0  0  0  0  0  0  0
    9.2662  -19.1560   20.5246 C   0  0  0  0  0  0  0  0  0  0  0  0
   10.5752  -19.7742   21.6521 S   0  0  0  0  0  0  0  0  0  0  0  0
    9.6799  -16.8443   21.3635 C   0  0  0  0  0  0  0  0  0  0  0  0
   10.7704  -16.2511   21.5792 O   0  0  0  0  0  0  0  0  0  0  0  0
    8.6176  -16.6099   22.2517 N   0  0  0  0  0  0  0  0  0  0  0  0
    8.7192  -15.7127   23.3735 C   0  0  1  0  0  0  0  0  0  0  0  0
    7.6028  -14.6853   23.3749 C   0  0  0  0  0  0  0  0  0  0  0  0
    7.4332  -14.0270   22.0743 C   0  0  0  0  0  0  0  0  0  0  0  0
    8.1669  -12.8728   21.7962 C   0  0  0  0  0  0  0  0  0  0  0  0
    8.0384  -12.2231   20.5861 C   0  0  0  0  0  0  0  0  0  0  0  0
    7.1851  -12.6826   19.6051 C   0  0  0  0  0  0  0  0  0  0  0  0
    6.4560  -13.8169   19.8626 C   0  0  0  0  0  0  0  0  0  0  0  0
    6.5882  -14.4714   21.0872 C   0  0  0  0  0  0  0  0  0  0  0  0
    8.8602  -16.4113   24.6694 C   0  0  0  0  0  0  0  0  0  0  0  0
    8.9489  -15.7194   25.7387 O   0  0  0  0  0  0  0  0  0  0  0  0
    6.7342  -19.9392   24.1630 N   0  0  0  0  0  0  0  0  0  0  0  0
    7.0406  -19.6244   25.5214 C   0  0  0  0  0  0  0  0  0  0  0  0
    6.1105  -19.1794   26.2176 O   0  0  0  0  0  0  0  0  0  0  0  0
    8.3936  -19.8306   26.0262 C   0  0  0  0  0  0  0  0  0  0  0  0
    9.1311  -18.4861   26.0935 C   0  0  2  0  0  0  0  0  0  0  0  0
    8.8996  -17.8103   24.7833 N   0  0  0  0  0  0  0  0  0  0  0  0
   10.5699  -18.7867   26.1218 C   0  0  0  0  0  0  0  0  0  0  0  0
   11.3201  -18.5262   25.1665 O   0  0  0  0  0  0  0  0  0  0  0  0
   11.1331  -19.3776   27.2359 O   0  0  0  0  0  0  0  0  0  0  0  0
  2  5  1  0
  2  1  1  1
  3  2  1  0
  4  3  1  0
  5  6  2  0
  7  8  1  0
  7  5  1  0
  8  9  1  1
  9 10  1  0
 10 15  2  0
 11 12  2  0
 11 10  1  0
 12 13  1  0
 13 14  2  0
 15 14  1  0
 16  8  1  0
 17 16  2  0
 18 19  1  0
 19 20  2  0
 21 19  1  0
 22 21  1  6
 22 23  1  0
 23 16  1  0
 24 26  1  0
 24 22  1  0
 25 24  2  0
M  END
$$$$
