CFN.pdb
     RDKit          3D

 26 26  0  0  1  0  0  0  0  0999 V2000
    9.7931  -16.1588   18.7697 N   0  0  0  0  0  0  0  0  0  0  0  0
    8.6788  -16.4124   19.6354 C   0  0  1  0  0  0  0  0  0  0  0  0
    8.3355  -17.8687   19.6772 C   0  0  0  0  0  0  0  0  0  0  0  0
    6.7478  -18.0173   20.5850 S   0  0  0  0  0  0  0  0  0  0  0  0
    8.8515  -15.7984   20.9679 C   0  0  0  0  0  0  0  0  0  0  0  0
    9.9803  -15.9111   21.5165 O   0  0  0  0  0  0  0  0  0  0  0  0
    7.8501  -15.1008   21.6627 N   0  0  0  0  0  0  0  0  0  0  0  0
    8.0287  -14.6037   23.0024 C   0  0  1  0  0  0  0  0  0  0  0  0
    6.8810  -13.7069   23.4272 C   0  0  0  0  0  0  0  0  0  0  0  0
    7.0227  -13.2135   24.8021 C   0  0  0  0  0  0  0  0  0  0  0  0
    7.9834  -12.2396   25.0789 C   0  0  0  0  0  0  0  0  0  0  0  0
    8.1492  -11.7478   26.3569 C   0  0  0  0  0  0  0  0  0  0  0  0
    7.3783  -12.1939   27.4097 C   0  0  0  0  0  0  0  0  0  0  0  0
    6.4286  -13.1518   27.1545 C   0  0  0  0  0  0  0  0  0  0  0  0
    6.2634  -13.6470   25.8610 C   0  0  0  0  0  0  0  0  0  0  0  0
    8.3218  -15.6684   23.9863 C   0  0  0  0  0  0  0  0  0  0  0  0
    7.5416  -16.6765   24.0576 O   0  0  0  0  0  0  0  0  0  0  0  0
   12.4878  -19.0444   25.1150 N   0  0  0  0  0  0  0  0  0  0  0  0
   12.2276  -17.8575   25.8647 C   0  0  0  0  0  0  0  0  0  0  0  0
   12.6019  -17.8501   27.0511 O   0  0  0  0  0  0  0  0  0  0  0  0
   11.5522  -16.7317   25.2289 C   0  0  0  0  0  0  0  0  0  0  0  0
   10.0343  -16.8688   25.4120 C   0  0  2  0  0  0  0  0  0  0  0  0
    9.4266  -15.6262   24.8519 N   0  0  0  0  0  0  0  0  0  0  0  0
    9.7691  -16.8088   26.8567 C   0  0  0  0  0  0  0  0  0  0  0  0
    9.5254  -15.7403   27.4417 O   0  0  0  0  0  0  0  0  0  0  0  0
    9.7839  -17.9642   27.6131 O   0  0  0  0  0  0  0  0  0  0  0  0
  2  5  1  0
  2  1  1  6
  3  2  1  0
  4  3  1  0
  5  6  2  0
  7  8  1  0
  7  5  1  0
  8  9  1  1
  9 10  1  0
 10 15  2  0
 11 12  2  0
 11 10  1  0
 12 13  1  0
 13 14  2  0
 15 14  1  0
 16  8  1  0
 17 16  2  0
 18 19  1  0
 19 20  2  0
 21 19  1  0
 22 21  1  1
 22 23  1  0
 23 16  1  0
 24 26  1  0
 24 22  1  0
 25 24  2  0
M  END
$$$$
