CFN.pdb
     RDKit          3D

 26 26  0  0  1  0  0  0  0  0999 V2000
    9.0820  -18.1161   20.0314 N   0  0  0  0  0  0  0  0  0  0  0  0
    9.5239  -16.7653   19.8433 C   0  0  1  0  0  0  0  0  0  0  0  0
    8.8185  -16.1106   18.6969 C   0  0  0  0  0  0  0  0  0  0  0  0
    7.0345  -16.0641   19.1238 S   0  0  0  0  0  0  0  0  0  0  0  0
    9.4872  -15.9827   21.0958 C   0  0  0  0  0  0  0  0  0  0  0  0
   10.4821  -15.2536   21.3534 O   0  0  0  0  0  0  0  0  0  0  0  0
    8.4256  -15.9945   22.0152 N   0  0  0  0  0  0  0  0  0  0  0  0
    8.4480  -15.2467   23.2457 C   0  0  1  0  0  0  0  0  0  0  0  0
    7.1142  -14.5786   23.5221 C   0  0  0  0  0  0  0  0  0  0  0  0
    7.1349  -13.7433   24.7285 C   0  0  0  0  0  0  0  0  0  0  0  0
    6.6378  -14.2642   25.9242 C   0  0  0  0  0  0  0  0  0  0  0  0
    6.6390  -13.5136   27.0815 C   0  0  0  0  0  0  0  0  0  0  0  0
    7.1282  -12.2246   27.1074 C   0  0  0  0  0  0  0  0  0  0  0  0
    7.6210  -11.6970   25.9398 C   0  0  0  0  0  0  0  0  0  0  0  0
    7.6182  -12.4586   24.7712 C   0  0  0  0  0  0  0  0  0  0  0  0
    8.9490  -16.0296   24.3960 C   0  0  0  0  0  0  0  0  0  0  0  0
    8.3612  -17.1200   24.7051 O   0  0  0  0  0  0  0  0  0  0  0  0
   13.4032  -15.4629   24.0291 N   0  0  0  0  0  0  0  0  0  0  0  0
   12.8389  -16.4961   24.8369 C   0  0  0  0  0  0  0  0  0  0  0  0
   12.9085  -17.6563   24.3931 O   0  0  0  0  0  0  0  0  0  0  0  0
   12.2203  -16.1611   26.1148 C   0  0  0  0  0  0  0  0  0  0  0  0
   10.7419  -16.5736   26.0978 C   0  0  2  0  0  0  0  0  0  0  0  0
   10.0501  -15.6308   25.1707 N   0  0  0  0  0  0  0  0  0  0  0  0
   10.1968  -16.2723   27.4294 C   0  0  0  0  0  0  0  0  0  0  0  0
    9.3973  -15.3414   27.6229 O   0  0  0  0  0  0  0  0  0  0  0  0
   10.5684  -17.0346   28.5196 O   0  0  0  0  0  0  0  0  0  0  0  0
  2  5  1  0
  2  1  1  1
  3  2  1  0
  4  3  1  0
  5  6  2  0
  7  8  1  0
  7  5  1  0
  8  9  1  1
  9 10  1  0
 10 15  2  0
 11 12  2  0
 11 10  1  0
 12 13  1  0
 13 14  2  0
 15 14  1  0
 16  8  1  0
 17 16  2  0
 18 19  1  0
 19 20  2  0
 21 19  1  0
 22 21  1  1
 22 23  1  0
 23 16  1  0
 24 26  1  0
 24 22  1  0
 25 24  2  0
M  END
$$$$
