RGC.pdb
     RDKit          3D

 22 21  0  0  1  0  0  0  0  0999 V2000
   15.3522   -7.6131   -8.3122 N   0  0  0  0  0  0  0  0  0  0  0  0
   13.9516   -7.8188   -8.4576 C   0  0  0  0  0  0  0  0  0  0  0  0
   13.1152   -7.3854   -7.5995 N   0  0  0  0  0  0  0  0  0  0  0  0
   13.5235   -8.5333   -9.6147 N   0  0  0  0  0  0  0  0  0  0  0  0
   14.1985   -8.4159  -10.8664 C   0  0  0  0  0  0  0  0  0  0  0  0
   13.5192   -9.3812  -11.8571 C   0  0  0  0  0  0  0  0  0  0  0  0
   14.5248  -10.4507  -12.1726 C   0  0  0  0  0  0  0  0  0  0  0  0
   14.9732  -10.3904  -13.5947 C   0  0  2  0  0  0  0  0  0  0  0  0
   14.5029  -11.6132  -14.2536 N   0  0  0  0  0  0  0  0  0  0  0  0
   16.4271  -10.2256  -13.7856 C   0  0  0  0  0  0  0  0  0  0  0  0
   17.1442  -11.2384  -13.9355 O   0  0  0  0  0  0  0  0  0  0  0  0
   12.0934   -7.4314   -7.6357 N   0  0  0  0  0  0  0  0  0  0  0  0
   17.0287   -8.9224  -13.8028 C   0  0  0  0  0  0  0  0  0  0  0  0
   18.4369   -8.7437  -14.0880 C   0  0  0  0  0  0  0  0  0  0  0  0
   18.9174   -7.5130  -13.4086 O   0  0  0  0  0  0  0  0  0  0  0  0
   18.1012   -6.5631  -13.1436 N   0  0  0  0  0  0  0  0  0  0  0  0
   20.2608   -7.3181  -13.0252 C   0  0  1  0  0  0  0  0  0  0  0  0
   20.7373   -6.1084  -12.4230 C   0  0  0  0  0  0  0  0  0  0  0  0
   21.6988   -6.3638  -11.2819 S   0  0  0  0  0  0  0  0  0  0  0  0
   20.8340   -7.4260  -10.0941 C   0  0  0  0  0  0  0  0  0  0  0  0
   21.4021   -5.2049  -13.3654 O   0  0  0  0  0  0  0  0  0  0  0  0
   21.7483   -5.6211  -14.4985 O   0  0  0  0  0  0  0  0  0  0  0  0
  1  2  1  0
  2  3  2  0
  4  5  1  0
  4  2  1  0
  6  7  1  0
  6  5  1  0
  7  8  1  0
  8 10  1  0
  8  9  1  6
 10 12  1  0
 11 10  2  0
 12 13  1  0
 13 14  1  0
 14 15  2  0
 14 16  1  0
 16 17  1  0
 17 20  1  0
 17 18  1  6
 18 19  1  0
 20 21  2  0
 20 22  1  0
M  END
$$$$
