RGC.pdb
     RDKit          3D

 22 21  0  0  1  0  0  0  0  0999 V2000
   16.7994  -24.0242   -8.7915 N   0  0  0  0  0  0  0  0  0  0  0  0
   18.0658  -24.5655   -8.4330 C   0  0  0  0  0  0  0  0  0  0  0  0
   18.2367  -25.2189   -7.3525 N   0  0  0  0  0  0  0  0  0  0  0  0
   19.1403  -24.3452   -9.3439 N   0  0  0  0  0  0  0  0  0  0  0  0
   18.9264  -23.7991  -10.6447 C   0  0  0  0  0  0  0  0  0  0  0  0
   18.8813  -22.2649  -10.5068 C   0  0  0  0  0  0  0  0  0  0  0  0
   20.2290  -21.7558  -10.9304 C   0  0  0  0  0  0  0  0  0  0  0  0
   20.2346  -21.3171  -12.3567 C   0  0  2  0  0  0  0  0  0  0  0  0
   19.2081  -22.0954  -13.0575 N   0  0  0  0  0  0  0  0  0  0  0  0
   21.5352  -21.4384  -13.0432 C   0  0  0  0  0  0  0  0  0  0  0  0
   22.0652  -22.5647  -13.1571 O   0  0  0  0  0  0  0  0  0  0  0  0
   19.0807  -25.7030   -7.0349 N   0  0  0  0  0  0  0  0  0  0  0  0
   22.1987  -20.2851  -13.5818 C   0  0  0  0  0  0  0  0  0  0  0  0
   23.5211  -20.3771  -14.1641 C   0  0  0  0  0  0  0  0  0  0  0  0
   23.8971  -19.0542  -14.7259 O   0  0  0  0  0  0  0  0  0  0  0  0
   23.0563  -18.0889  -14.7191 N   0  0  0  0  0  0  0  0  0  0  0  0
   25.1638  -18.7858  -15.2857 C   0  0  1  0  0  0  0  0  0  0  0  0
   25.5037  -17.5335  -15.8934 C   0  0  0  0  0  0  0  0  0  0  0  0
   26.9784  -17.2108  -15.7798 S   0  0  0  0  0  0  0  0  0  0  0  0
   27.4121  -17.3467  -14.0248 C   0  0  0  0  0  0  0  0  0  0  0  0
   25.1425  -17.4509  -17.3109 O   0  0  0  0  0  0  0  0  0  0  0  0
   25.1817  -16.3464  -17.9070 O   0  0  0  0  0  0  0  0  0  0  0  0
  1  2  1  0
  2  3  2  0
  4  5  1  0
  4  2  1  0
  6  7  1  0
  6  5  1  0
  7  8  1  0
  8 10  1  0
  8  9  1  6
 10 12  1  0
 11 10  2  0
 12 13  1  0
 13 14  1  0
 14 15  2  0
 14 16  1  0
 16 17  1  0
 17 20  1  0
 17 18  1  6
 18 19  1  0
 20 21  2  0
 20 22  1  0
M  END
$$$$
