RGC.pdb
     RDKit          3D

 22 21  0  0  1  0  0  0  0  0999 V2000
   19.4953  -23.9974   -6.3565 N   0  0  0  0  0  0  0  0  0  0  0  0
   18.4379  -23.8441   -7.2965 C   0  0  0  0  0  0  0  0  0  0  0  0
   17.3203  -24.4396   -7.1551 N   0  0  0  0  0  0  0  0  0  0  0  0
   18.6856  -22.9870   -8.4086 N   0  0  0  0  0  0  0  0  0  0  0  0
   20.0022  -22.7675   -8.9133 C   0  0  0  0  0  0  0  0  0  0  0  0
   20.7435  -21.8632   -7.9096 C   0  0  0  0  0  0  0  0  0  0  0  0
   22.1234  -21.6496   -8.4620 C   0  0  0  0  0  0  0  0  0  0  0  0
   22.0913  -20.9797   -9.7951 C   0  0  2  0  0  0  0  0  0  0  0  0
   21.1936  -21.7586  -10.6542 N   0  0  0  0  0  0  0  0  0  0  0  0
   23.4070  -20.8085  -10.4408 C   0  0  0  0  0  0  0  0  0  0  0  0
   24.2704  -20.0904   -9.8917 O   0  0  0  0  0  0  0  0  0  0  0  0
   16.5290  -24.4582   -7.8040 N   0  0  0  0  0  0  0  0  0  0  0  0
   23.7100  -21.4537  -11.6868 C   0  0  0  0  0  0  0  0  0  0  0  0
   24.9746  -21.2426  -12.3594 C   0  0  0  0  0  0  0  0  0  0  0  0
   24.8129  -20.1660  -13.3703 O   0  0  0  0  0  0  0  0  0  0  0  0
   23.7056  -19.5301  -13.4627 N   0  0  0  0  0  0  0  0  0  0  0  0
   25.8358  -19.7882  -14.2651 C   0  0  1  0  0  0  0  0  0  0  0  0
   25.6444  -18.8363  -15.3189 C   0  0  0  0  0  0  0  0  0  0  0  0
   26.9496  -18.3651  -15.9240 S   0  0  0  0  0  0  0  0  0  0  0  0
   27.9467  -17.6954  -14.5659 C   0  0  0  0  0  0  0  0  0  0  0  0
   24.8050  -19.3314  -16.4128 O   0  0  0  0  0  0  0  0  0  0  0  0
   24.4707  -20.5411  -16.4517 O   0  0  0  0  0  0  0  0  0  0  0  0
  1  2  1  0
  2  3  2  0
  4  5  1  0
  4  2  1  0
  6  7  1  0
  6  5  1  0
  7  8  1  0
  8 10  1  0
  8  9  1  6
 10 12  1  0
 11 10  2  0
 12 13  1  0
 13 14  1  0
 14 15  2  0
 14 16  1  0
 16 17  1  0
 17 20  1  0
 17 18  1  6
 18 19  1  0
 20 21  2  0
 20 22  1  0
M  END
$$$$
