RGC.pdb
     RDKit          3D

 22 21  0  0  1  0  0  0  0  0999 V2000
   23.2927  -20.8703   -9.0767 N   0  0  0  0  0  0  0  0  0  0  0  0
   24.4062  -20.9173   -8.1919 C   0  0  0  0  0  0  0  0  0  0  0  0
   24.2668  -21.1495   -6.9467 N   0  0  0  0  0  0  0  0  0  0  0  0
   25.6926  -20.6944   -8.7649 N   0  0  0  0  0  0  0  0  0  0  0  0
   25.8518  -20.2524  -10.1123 C   0  0  0  0  0  0  0  0  0  0  0  0
   25.5403  -21.4456  -11.0363 C   0  0  0  0  0  0  0  0  0  0  0  0
   26.6879  -21.5547  -11.9985 C   0  0  0  0  0  0  0  0  0  0  0  0
   26.5969  -20.5410  -13.0899 C   0  0  2  0  0  0  0  0  0  0  0  0
   25.4121  -20.8661  -13.8907 N   0  0  0  0  0  0  0  0  0  0  0  0
   27.7915  -20.4392  -13.9501 C   0  0  0  0  0  0  0  0  0  0  0  0
   28.9252  -20.4169  -13.4242 O   0  0  0  0  0  0  0  0  0  0  0  0
   24.9796  -21.1062   -6.2134 N   0  0  0  0  0  0  0  0  0  0  0  0
   27.6714  -20.3667  -15.3787 C   0  0  0  0  0  0  0  0  0  0  0  0
   28.1072  -19.1991  -16.1155 C   0  0  0  0  0  0  0  0  0  0  0  0
   26.9841  -18.7077  -16.9548 O   0  0  0  0  0  0  0  0  0  0  0  0
   27.1204  -17.6447  -17.6550 N   0  0  0  0  0  0  0  0  0  0  0  0
   25.7354  -19.3595  -17.0308 C   0  0  1  0  0  0  0  0  0  0  0  0
   24.6380  -18.8645  -17.8079 C   0  0  0  0  0  0  0  0  0  0  0  0
   23.9803  -19.9429  -18.6422 S   0  0  0  0  0  0  0  0  0  0  0  0
   23.6918  -21.3551  -17.5425 C   0  0  0  0  0  0  0  0  0  0  0  0
   23.5903  -18.2273  -17.0061 O   0  0  0  0  0  0  0  0  0  0  0  0
   23.6604  -18.2426  -15.7525 O   0  0  0  0  0  0  0  0  0  0  0  0
  1  2  1  0
  2  3  2  0
  4  5  1  0
  4  2  1  0
  6  7  1  0
  6  5  1  0
  7  8  1  0
  8 10  1  0
  8  9  1  6
 10 12  1  0
 11 10  2  0
 12 13  1  0
 13 14  1  0
 14 15  2  0
 14 16  1  0
 16 17  1  0
 17 20  1  0
 17 18  1  1
 18 19  1  0
 20 21  2  0
 20 22  1  0
M  END
$$$$
