RGC.pdb
     RDKit          3D

 22 21  0  0  1  0  0  0  0  0999 V2000
   22.4033  -22.1694  -16.1413 N   0  0  0  0  0  0  0  0  0  0  0  0
   21.1571  -21.7119  -15.6286 C   0  0  0  0  0  0  0  0  0  0  0  0
   20.1354  -21.5646  -16.3757 N   0  0  0  0  0  0  0  0  0  0  0  0
   21.1019  -21.4269  -14.2327 N   0  0  0  0  0  0  0  0  0  0  0  0
   22.2763  -21.3923  -13.4229 C   0  0  0  0  0  0  0  0  0  0  0  0
   22.8584  -19.9677  -13.5029 C   0  0  0  0  0  0  0  0  0  0  0  0
   23.4891  -19.6860  -12.1697 C   0  0  0  0  0  0  0  0  0  0  0  0
   23.9460  -20.9363  -11.4952 C   0  0  2  0  0  0  0  0  0  0  0  0
   23.1956  -21.0557  -10.2409 N   0  0  0  0  0  0  0  0  0  0  0  0
   25.3973  -21.0148  -11.2401 C   0  0  0  0  0  0  0  0  0  0  0  0
   26.1911  -20.9956  -12.2055 O   0  0  0  0  0  0  0  0  0  0  0  0
   19.1922  -21.2740  -16.1044 N   0  0  0  0  0  0  0  0  0  0  0  0
   25.9099  -21.1114   -9.9028 C   0  0  0  0  0  0  0  0  0  0  0  0
   27.3330  -21.1562   -9.6402 C   0  0  0  0  0  0  0  0  0  0  0  0
   27.5534  -21.2482   -8.1739 O   0  0  0  0  0  0  0  0  0  0  0  0
   27.1594  -22.2800   -7.5268 N   0  0  0  0  0  0  0  0  0  0  0  0
   28.1896  -20.2364   -7.4246 C   0  0  2  0  0  0  0  0  0  0  0  0
   28.4190  -20.3318   -6.0134 C   0  0  0  0  0  0  0  0  0  0  0  0
   29.5819  -19.4794   -5.5522 S   0  0  0  0  0  0  0  0  0  0  0  0
   29.0180  -17.7567   -5.5902 C   0  0  0  0  0  0  0  0  0  0  0  0
   27.2551  -19.9651   -5.2027 O   0  0  0  0  0  0  0  0  0  0  0  0
   26.2837  -19.3689   -5.7296 O   0  0  0  0  0  0  0  0  0  0  0  0
  1  2  1  0
  2  3  2  0
  4  5  1  0
  4  2  1  0
  6  7  1  0
  6  5  1  0
  7  8  1  0
  8 10  1  0
  8  9  1  1
 10 12  1  0
 11 10  2  0
 12 13  1  0
 13 14  1  0
 14 15  2  0
 14 16  1  0
 16 17  1  0
 17 20  1  0
 17 18  1  6
 18 19  1  0
 20 21  2  0
 20 22  1  0
M  END
$$$$
