RGC.pdb
     RDKit          3D

 22 21  0  0  1  0  0  0  0  0999 V2000
   26.3888  -24.3198  -15.7801 N   0  0  0  0  0  0  0  0  0  0  0  0
   25.1965  -25.0567  -15.5341 C   0  0  0  0  0  0  0  0  0  0  0  0
   25.0289  -26.2360  -15.9867 N   0  0  0  0  0  0  0  0  0  0  0  0
   24.1932  -24.4135  -14.7515 N   0  0  0  0  0  0  0  0  0  0  0  0
   23.8188  -23.0546  -14.9740 C   0  0  0  0  0  0  0  0  0  0  0  0
   24.5573  -22.1893  -13.9345 C   0  0  0  0  0  0  0  0  0  0  0  0
   24.1579  -20.7662  -14.1988 C   0  0  0  0  0  0  0  0  0  0  0  0
   22.9626  -20.6800  -15.0880 C   0  0  2  0  0  0  0  0  0  0  0  0
   23.2728  -21.4276  -16.3110 N   0  0  0  0  0  0  0  0  0  0  0  0
   22.5244  -19.3096  -15.4158 C   0  0  0  0  0  0  0  0  0  0  0  0
   23.0263  -18.7246  -16.3998 O   0  0  0  0  0  0  0  0  0  0  0  0
   24.2217  -26.8521  -15.8581 N   0  0  0  0  0  0  0  0  0  0  0  0
   21.5319  -18.6402  -14.6238 C   0  0  0  0  0  0  0  0  0  0  0  0
   21.1526  -17.2683  -14.8888 C   0  0  0  0  0  0  0  0  0  0  0  0
   20.0207  -17.2548  -15.8510 O   0  0  0  0  0  0  0  0  0  0  0  0
   19.4217  -16.1572  -16.1255 N   0  0  0  0  0  0  0  0  0  0  0  0
   19.5480  -18.4134  -16.5021 C   0  0  1  0  0  0  0  0  0  0  0  0
   18.5182  -18.3888  -17.4980 C   0  0  0  0  0  0  0  0  0  0  0  0
   18.8065  -19.3168  -18.6588 S   0  0  0  0  0  0  0  0  0  0  0  0
   20.3658  -18.7628  -19.3994 C   0  0  0  0  0  0  0  0  0  0  0  0
   17.1911  -18.7306  -16.9798 O   0  0  0  0  0  0  0  0  0  0  0  0
   17.0511  -19.0597  -15.7761 O   0  0  0  0  0  0  0  0  0  0  0  0
  1  2  1  0
  2  3  2  0
  4  5  1  0
  4  2  1  0
  6  7  1  0
  6  5  1  0
  7  8  1  0
  8 10  1  0
  8  9  1  6
 10 12  1  0
 11 10  2  0
 12 13  1  0
 13 14  1  0
 14 15  2  0
 14 16  1  0
 16 17  1  0
 17 20  1  0
 17 18  1  6
 18 19  1  0
 20 21  2  0
 20 22  1  0
M  END
$$$$
