RGC.pdb
     RDKit          3D

 22 21  0  0  1  0  0  0  0  0999 V2000
   22.7177  -23.5271  -15.9945 N   0  0  0  0  0  0  0  0  0  0  0  0
   24.0871  -23.5109  -15.6078 C   0  0  0  0  0  0  0  0  0  0  0  0
   24.5606  -24.3497  -14.7735 N   0  0  0  0  0  0  0  0  0  0  0  0
   24.9109  -22.5099  -16.2011 N   0  0  0  0  0  0  0  0  0  0  0  0
   25.1799  -22.4875  -17.6023 C   0  0  0  0  0  0  0  0  0  0  0  0
   26.4992  -23.2482  -17.8379 C   0  0  0  0  0  0  0  0  0  0  0  0
   27.5363  -22.2156  -18.1740 C   0  0  0  0  0  0  0  0  0  0  0  0
   28.5003  -22.0103  -17.0535 C   0  0  2  0  0  0  0  0  0  0  0  0
   28.5988  -23.2785  -16.3237 N   0  0  0  0  0  0  0  0  0  0  0  0
   28.1631  -20.9076  -16.1326 C   0  0  0  0  0  0  0  0  0  0  0  0
   28.0034  -19.7551  -16.5892 O   0  0  0  0  0  0  0  0  0  0  0  0
   25.4843  -24.3478  -14.3326 N   0  0  0  0  0  0  0  0  0  0  0  0
   28.0151  -21.1386  -14.7236 C   0  0  0  0  0  0  0  0  0  0  0  0
   27.4684  -20.1259  -13.8450 C   0  0  0  0  0  0  0  0  0  0  0  0
   26.4077  -20.7357  -13.0024 O   0  0  0  0  0  0  0  0  0  0  0  0
   25.3318  -21.1753  -13.5391 N   0  0  0  0  0  0  0  0  0  0  0  0
   26.5141  -20.8644  -11.6017 C   0  0  2  0  0  0  0  0  0  0  0  0
   25.4804  -21.4274  -10.7847 C   0  0  0  0  0  0  0  0  0  0  0  0
   25.8105  -21.3762   -9.3081 S   0  0  0  0  0  0  0  0  0  0  0  0
   26.1108  -19.6362   -8.8971 C   0  0  0  0  0  0  0  0  0  0  0  0
   24.1743  -20.7891  -10.9666 O   0  0  0  0  0  0  0  0  0  0  0  0
   24.0975  -19.6517  -11.4931 O   0  0  0  0  0  0  0  0  0  0  0  0
  1  2  1  0
  2  3  2  0
  4  5  1  0
  4  2  1  0
  6  7  1  0
  6  5  1  0
  7  8  1  0
  8 10  1  0
  8  9  1  1
 10 12  1  0
 11 10  2  0
 12 13  1  0
 13 14  1  0
 14 15  2  0
 14 16  1  0
 16 17  1  0
 17 20  1  0
 17 18  1  6
 18 19  1  0
 20 21  2  0
 20 22  1  0
M  END
$$$$
