RGC.pdb
     RDKit          3D

 22 21  0  0  1  0  0  0  0  0999 V2000
   22.7449  -24.7022  -14.0922 N   0  0  0  0  0  0  0  0  0  0  0  0
   22.1541  -24.2291  -15.2973 C   0  0  0  0  0  0  0  0  0  0  0  0
   21.2665  -24.8989  -15.9196 N   0  0  0  0  0  0  0  0  0  0  0  0
   22.6004  -22.9634  -15.7785 N   0  0  0  0  0  0  0  0  0  0  0  0
   23.7189  -22.2894  -15.2033 C   0  0  0  0  0  0  0  0  0  0  0  0
   23.2308  -21.5772  -13.9269 C   0  0  0  0  0  0  0  0  0  0  0  0
   24.2619  -20.5376  -13.5941 C   0  0  0  0  0  0  0  0  0  0  0  0
   25.2544  -21.0375  -12.5980 C   0  0  2  0  0  0  0  0  0  0  0  0
   24.6248  -22.1452  -11.8718 N   0  0  0  0  0  0  0  0  0  0  0  0
   25.7605  -20.0214  -11.6553 C   0  0  0  0  0  0  0  0  0  0  0  0
   25.7565  -18.8175  -11.9917 O   0  0  0  0  0  0  0  0  0  0  0  0
   20.7993  -24.6626  -16.7991 N   0  0  0  0  0  0  0  0  0  0  0  0
   26.2550  -20.3937  -10.3603 C   0  0  0  0  0  0  0  0  0  0  0  0
   26.8079  -19.4118   -9.4513 C   0  0  0  0  0  0  0  0  0  0  0  0
   27.2021  -20.0873   -8.1882 O   0  0  0  0  0  0  0  0  0  0  0  0
   26.8856  -21.3112   -7.9863 N   0  0  0  0  0  0  0  0  0  0  0  0
   27.9262  -19.4438   -7.1628 C   0  0  2  0  0  0  0  0  0  0  0  0
   28.3464  -20.1068   -5.9641 C   0  0  0  0  0  0  0  0  0  0  0  0
   29.3533  -19.2994   -5.1728 S   0  0  0  0  0  0  0  0  0  0  0  0
   28.4850  -17.8293   -4.5630 C   0  0  0  0  0  0  0  0  0  0  0  0
   27.2431  -20.4425   -5.0605 O   0  0  0  0  0  0  0  0  0  0  0  0
   26.1142  -19.9176   -5.2235 O   0  0  0  0  0  0  0  0  0  0  0  0
  1  2  1  0
  2  3  2  0
  4  5  1  0
  4  2  1  0
  6  7  1  0
  6  5  1  0
  7  8  1  0
  8 10  1  0
  8  9  1  1
 10 12  1  0
 11 10  2  0
 12 13  1  0
 13 14  1  0
 14 15  2  0
 14 16  1  0
 16 17  1  0
 17 20  1  0
 17 18  1  6
 18 19  1  0
 20 21  2  0
 20 22  1  0
M  END
$$$$
