RGC.pdb
     RDKit          3D

 22 21  0  0  1  0  0  0  0  0999 V2000
   25.7272  -20.7491   -8.1990 N   0  0  0  0  0  0  0  0  0  0  0  0
   24.3983  -21.0497   -8.6099 C   0  0  0  0  0  0  0  0  0  0  0  0
   23.6268  -21.7827   -7.9088 N   0  0  0  0  0  0  0  0  0  0  0  0
   23.9653  -20.4886   -9.8469 N   0  0  0  0  0  0  0  0  0  0  0  0
   24.8711  -20.2426  -10.9217 C   0  0  0  0  0  0  0  0  0  0  0  0
   26.0123  -21.2729  -10.8173 C   0  0  0  0  0  0  0  0  0  0  0  0
   26.9542  -20.9868  -11.9512 C   0  0  0  0  0  0  0  0  0  0  0  0
   26.2264  -20.5903  -13.1922 C   0  0  2  0  0  0  0  0  0  0  0  0
   26.2608  -21.7379  -14.1047 N   0  0  0  0  0  0  0  0  0  0  0  0
   26.7436  -19.3810  -13.8612 C   0  0  0  0  0  0  0  0  0  0  0  0
   27.7476  -19.4715  -14.6002 O   0  0  0  0  0  0  0  0  0  0  0  0
   22.6509  -22.0293   -8.0941 N   0  0  0  0  0  0  0  0  0  0  0  0
   26.1115  -18.1054  -13.6773 C   0  0  0  0  0  0  0  0  0  0  0  0
   26.6607  -16.8988  -14.2594 C   0  0  0  0  0  0  0  0  0  0  0  0
   26.3408  -16.8705  -15.7099 O   0  0  0  0  0  0  0  0  0  0  0  0
   25.5893  -17.7718  -16.2215 N   0  0  0  0  0  0  0  0  0  0  0  0
   26.8297  -15.8810  -16.5884 C   0  0  1  0  0  0  0  0  0  0  0  0
   26.4193  -15.7749  -17.9571 C   0  0  0  0  0  0  0  0  0  0  0  0
   26.5539  -14.3679  -18.4994 S   0  0  0  0  0  0  0  0  0  0  0  0
   25.6983  -13.2724  -17.3355 C   0  0  0  0  0  0  0  0  0  0  0  0
   27.1501  -16.6671  -18.8607 O   0  0  0  0  0  0  0  0  0  0  0  0
   28.1953  -17.2418  -18.4682 O   0  0  0  0  0  0  0  0  0  0  0  0
  1  2  1  0
  2  3  2  0
  4  5  1  0
  4  2  1  0
  6  7  1  0
  6  5  1  0
  7  8  1  0
  8 10  1  0
  8  9  1  6
 10 12  1  0
 11 10  2  0
 12 13  1  0
 13 14  1  0
 14 15  2  0
 14 16  1  0
 16 17  1  0
 17 20  1  0
 17 18  1  6
 18 19  1  0
 20 21  2  0
 20 22  1  0
M  END
$$$$
