RGC.pdb
     RDKit          3D

 22 21  0  0  1  0  0  0  0  0999 V2000
   30.9044  -25.6034  -15.6832 N   0  0  0  0  0  0  0  0  0  0  0  0
   30.9801  -25.5224  -17.1020 C   0  0  0  0  0  0  0  0  0  0  0  0
   31.2027  -26.5488  -17.8236 N   0  0  0  0  0  0  0  0  0  0  0  0
   30.7918  -24.2343  -17.6834 N   0  0  0  0  0  0  0  0  0  0  0  0
   29.9464  -23.2528  -17.0848 C   0  0  0  0  0  0  0  0  0  0  0  0
   28.5908  -23.2935  -17.8166 C   0  0  0  0  0  0  0  0  0  0  0  0
   27.7769  -22.1529  -17.2766 C   0  0  0  0  0  0  0  0  0  0  0  0
   27.1607  -22.4846  -15.9585 C   0  0  2  0  0  0  0  0  0  0  0  0
   26.0155  -23.3627  -16.2200 N   0  0  0  0  0  0  0  0  0  0  0  0
   26.7472  -21.3208  -15.1509 C   0  0  0  0  0  0  0  0  0  0  0  0
   27.6105  -20.5000  -14.7721 O   0  0  0  0  0  0  0  0  0  0  0  0
   31.3491  -26.5884  -18.8358 N   0  0  0  0  0  0  0  0  0  0  0  0
   25.3714  -21.1171  -14.7958 C   0  0  0  0  0  0  0  0  0  0  0  0
   24.9446  -19.9392  -14.0701 C   0  0  0  0  0  0  0  0  0  0  0  0
   23.4717  -19.9914  -13.8833 O   0  0  0  0  0  0  0  0  0  0  0  0
   22.8671  -19.0482  -13.2639 N   0  0  0  0  0  0  0  0  0  0  0  0
   22.6707  -21.0500  -14.3604 C   0  0  1  0  0  0  0  0  0  0  0  0
   21.2702  -21.1626  -14.0794 C   0  0  0  0  0  0  0  0  0  0  0  0
   20.4235  -21.1903  -15.3340 S   0  0  0  0  0  0  0  0  0  0  0  0
   20.5377  -19.5424  -16.0812 C   0  0  0  0  0  0  0  0  0  0  0  0
   20.9230  -22.3452  -13.2873 O   0  0  0  0  0  0  0  0  0  0  0  0
   19.7572  -22.4841  -12.8417 O   0  0  0  0  0  0  0  0  0  0  0  0
  1  2  1  0
  2  3  2  0
  4  5  1  0
  4  2  1  0
  6  7  1  0
  6  5  1  0
  7  8  1  0
  8 10  1  0
  8  9  1  6
 10 12  1  0
 11 10  2  0
 12 13  1  0
 13 14  1  0
 14 15  2  0
 14 16  1  0
 16 17  1  0
 17 20  1  0
 17 18  1  1
 18 19  1  0
 20 21  2  0
 20 22  1  0
M  END
$$$$
