RGC.pdb
     RDKit          3D

 22 21  0  0  1  0  0  0  0  0999 V2000
   24.8872  -20.9825   -7.9651 N   0  0  0  0  0  0  0  0  0  0  0  0
   26.2812  -20.6964   -7.9693 C   0  0  0  0  0  0  0  0  0  0  0  0
   26.8703  -20.2050   -6.9518 N   0  0  0  0  0  0  0  0  0  0  0  0
   26.9939  -20.9887   -9.1691 N   0  0  0  0  0  0  0  0  0  0  0  0
   26.3892  -20.8625  -10.4554 C   0  0  0  0  0  0  0  0  0  0  0  0
   27.4533  -21.2223  -11.5103 C   0  0  0  0  0  0  0  0  0  0  0  0
   26.8269  -20.9777  -12.8529 C   0  0  0  0  0  0  0  0  0  0  0  0
   25.3391  -21.0807  -12.7995 C   0  0  2  0  0  0  0  0  0  0  0  0
   25.0063  -22.4910  -12.5739 N   0  0  0  0  0  0  0  0  0  0  0  0
   24.6335  -20.5659  -13.9889 C   0  0  0  0  0  0  0  0  0  0  0  0
   24.7087  -19.3496  -14.2674 O   0  0  0  0  0  0  0  0  0  0  0  0
   27.8669  -20.0021   -6.8369 N   0  0  0  0  0  0  0  0  0  0  0  0
   23.8648  -21.4392  -14.8296 C   0  0  0  0  0  0  0  0  0  0  0  0
   23.2531  -20.9652  -16.0533 C   0  0  0  0  0  0  0  0  0  0  0  0
   22.0847  -20.1129  -15.7133 O   0  0  0  0  0  0  0  0  0  0  0  0
   21.6564  -20.0579  -14.5082 N   0  0  0  0  0  0  0  0  0  0  0  0
   21.3941  -19.3352  -16.6662 C   0  0  1  0  0  0  0  0  0  0  0  0
   20.2186  -18.5765  -16.3567 C   0  0  0  0  0  0  0  0  0  0  0  0
   19.9595  -17.4683  -17.3549 S   0  0  0  0  0  0  0  0  0  0  0  0
   18.6522  -16.4256  -16.6544 C   0  0  0  0  0  0  0  0  0  0  0  0
   19.0012  -19.3872  -16.2724 O   0  0  0  0  0  0  0  0  0  0  0  0
   18.8474  -20.3729  -17.0350 O   0  0  0  0  0  0  0  0  0  0  0  0
  1  2  1  0
  2  3  2  0
  4  5  1  0
  4  2  1  0
  6  7  1  0
  6  5  1  0
  7  8  1  0
  8 10  1  0
  8  9  1  6
 10 12  1  0
 11 10  2  0
 12 13  1  0
 13 14  1  0
 14 15  2  0
 14 16  1  0
 16 17  1  0
 17 20  1  0
 17 18  1  6
 18 19  1  0
 20 21  2  0
 20 22  1  0
M  END
$$$$
