RGC.pdb
     RDKit          3D

 22 21  0  0  1  0  0  0  0  0999 V2000
   20.1237  -22.9783  -10.4715 N   0  0  0  0  0  0  0  0  0  0  0  0
   19.5310  -22.0151  -11.3352 C   0  0  0  0  0  0  0  0  0  0  0  0
   18.2670  -21.9066  -11.4552 N   0  0  0  0  0  0  0  0  0  0  0  0
   20.4198  -21.1701  -12.0622 N   0  0  0  0  0  0  0  0  0  0  0  0
   21.5530  -21.6879  -12.7579 C   0  0  0  0  0  0  0  0  0  0  0  0
   22.7333  -21.7254  -11.7678 C   0  0  0  0  0  0  0  0  0  0  0  0
   23.7218  -20.6979  -12.2390 C   0  0  0  0  0  0  0  0  0  0  0  0
   24.8444  -21.3158  -13.0038 C   0  0  2  0  0  0  0  0  0  0  0  0
   25.4385  -22.3493  -12.1496 N   0  0  0  0  0  0  0  0  0  0  0  0
   25.8782  -20.3715  -13.4696 C   0  0  0  0  0  0  0  0  0  0  0  0
   26.6550  -19.8541  -12.6381 O   0  0  0  0  0  0  0  0  0  0  0  0
   17.7437  -21.2994  -12.0917 N   0  0  0  0  0  0  0  0  0  0  0  0
   26.0055  -20.0398  -14.8604 C   0  0  0  0  0  0  0  0  0  0  0  0
   26.9787  -19.0716  -15.3205 C   0  0  0  0  0  0  0  0  0  0  0  0
   26.3777  -17.7142  -15.2628 O   0  0  0  0  0  0  0  0  0  0  0  0
   25.8546  -17.2871  -14.1753 N   0  0  0  0  0  0  0  0  0  0  0  0
   26.3450  -16.8376  -16.3675 C   0  0  1  0  0  0  0  0  0  0  0  0
   25.7452  -15.5372  -16.3197 C   0  0  0  0  0  0  0  0  0  0  0  0
   26.4294  -14.6147  -15.3334 S   0  0  0  0  0  0  0  0  0  0  0  0
   25.4905  -13.0638  -15.3265 C   0  0  0  0  0  0  0  0  0  0  0  0
   25.7180  -14.8545  -17.6157 O   0  0  0  0  0  0  0  0  0  0  0  0
   25.0440  -13.8049  -17.7601 O   0  0  0  0  0  0  0  0  0  0  0  0
  1  2  1  0
  2  3  2  0
  4  5  1  0
  4  2  1  0
  6  7  1  0
  6  5  1  0
  7  8  1  0
  8 10  1  0
  8  9  1  1
 10 12  1  0
 11 10  2  0
 12 13  1  0
 13 14  1  0
 14 15  2  0
 14 16  1  0
 16 17  1  0
 17 20  1  0
 17 18  1  6
 18 19  1  0
 20 21  2  0
 20 22  1  0
M  END
$$$$
