RGC.pdb
     RDKit          3D

 22 21  0  0  1  0  0  0  0  0999 V2000
   21.3716  -27.3681  -18.1628 N   0  0  0  0  0  0  0  0  0  0  0  0
   21.2455  -26.3653  -17.1611 C   0  0  0  0  0  0  0  0  0  0  0  0
   20.7241  -25.2291  -17.4083 N   0  0  0  0  0  0  0  0  0  0  0  0
   21.7289  -26.6917  -15.8601 N   0  0  0  0  0  0  0  0  0  0  0  0
   22.3384  -27.9503  -15.5757 C   0  0  0  0  0  0  0  0  0  0  0  0
   21.2110  -28.9802  -15.3686 C   0  0  0  0  0  0  0  0  0  0  0  0
   21.8776  -30.2923  -15.0703 C   0  0  0  0  0  0  0  0  0  0  0  0
   21.3805  -30.8919  -13.7973 C   0  0  2  0  0  0  0  0  0  0  0  0
   21.0069  -29.7858  -12.9098 N   0  0  0  0  0  0  0  0  0  0  0  0
   22.3274  -31.8004  -13.1224 C   0  0  0  0  0  0  0  0  0  0  0  0
   23.1498  -32.4469  -13.8066 O   0  0  0  0  0  0  0  0  0  0  0  0
   20.5610  -24.4552  -16.7586 N   0  0  0  0  0  0  0  0  0  0  0  0
   22.3190  -31.9515  -11.6950 C   0  0  0  0  0  0  0  0  0  0  0  0
   23.5252  -32.2739  -10.9619 C   0  0  0  0  0  0  0  0  0  0  0  0
   23.2222  -32.2804   -9.5075 O   0  0  0  0  0  0  0  0  0  0  0  0
   23.5720  -31.2926   -8.7723 N   0  0  0  0  0  0  0  0  0  0  0  0
   22.5519  -33.3417   -8.8640 C   0  0  1  0  0  0  0  0  0  0  0  0
   22.1413  -33.2935   -7.4921 C   0  0  0  0  0  0  0  0  0  0  0  0
   21.2804  -32.0874   -7.1826 S   0  0  0  0  0  0  0  0  0  0  0  0
   20.5662  -32.3597   -5.5386 C   0  0  0  0  0  0  0  0  0  0  0  0
   21.4058  -34.4833   -7.0565 O   0  0  0  0  0  0  0  0  0  0  0  0
   20.8985  -35.2558   -7.9066 O   0  0  0  0  0  0  0  0  0  0  0  0
  1  2  1  0
  2  3  2  0
  4  5  1  0
  4  2  1  0
  6  7  1  0
  6  5  1  0
  7  8  1  0
  8 10  1  0
  8  9  1  1
 10 12  1  0
 11 10  2  0
 12 13  1  0
 13 14  1  0
 14 15  2  0
 14 16  1  0
 16 17  1  0
 17 20  1  0
 17 18  1  1
 18 19  1  0
 20 21  2  0
 20 22  1  0
M  END
$$$$
