QYC.pdb
     RDKit          3D

 28 28  0  0  1  0  0  0  0  0999 V2000
   27.4376  -24.3711  -16.2608 N   0  0  0  0  0  0  0  0  0  0  0  0
   28.7774  -24.1734  -16.6360 C   0  0  0  0  0  0  0  0  0  0  0  0
   29.4281  -25.1235  -17.1062 O   0  0  0  0  0  0  0  0  0  0  0  0
   29.3871  -22.8491  -16.4703 C   0  0  0  0  0  0  0  0  0  0  0  0
   28.5244  -21.7703  -15.9456 C   0  0  0  0  0  0  0  0  0  0  0  0
   27.3560  -21.3571  -16.7964 C   0  0  2  0  0  0  0  0  0  0  0  0
   27.6099  -21.0671  -18.1461 N   0  0  0  0  0  0  0  0  0  0  0  0
   26.5139  -20.4112  -16.0394 C   0  0  0  0  0  0  0  0  0  0  0  0
   27.1071  -19.5171  -15.3824 O   0  0  0  0  0  0  0  0  0  0  0  0
   20.8383  -20.4473  -20.6934 O   0  0  0  0  0  0  0  0  0  0  0  0
   21.5798  -19.9453  -19.6291 C   0  0  0  0  0  0  0  0  0  0  0  0
   20.9415  -19.6945  -18.4339 C   0  0  0  0  0  0  0  0  0  0  0  0
   21.6285  -19.1970  -17.3481 C   0  0  0  0  0  0  0  0  0  0  0  0
   22.9962  -18.9426  -17.4615 C   0  0  0  0  0  0  0  0  0  0  0  0
   23.7786  -18.4127  -16.3170 C   0  0  0  0  0  0  0  0  0  0  0  0
   24.2712  -19.4755  -15.3900 C   0  0  2  0  0  0  0  0  0  0  0  0
   25.0988  -20.4820  -16.0319 N   0  0  0  0  0  0  0  0  0  0  0  0
   23.1518  -20.1086  -14.6398 C   0  0  0  0  0  0  0  0  0  0  0  0
   22.6560  -21.1764  -15.1327 O   0  0  0  0  0  0  0  0  0  0  0  0
   23.6160  -19.2017  -18.6707 C   0  0  0  0  0  0  0  0  0  0  0  0
   22.9425  -19.6988  -19.7640 C   0  0  0  0  0  0  0  0  0  0  0  0
   22.6540  -19.5539  -13.4295 N   0  0  0  0  0  0  0  0  0  0  0  0
   21.5513  -20.1735  -12.7607 C   0  0  1  0  0  0  0  0  0  0  0  0
   21.4320  -19.7460  -11.3126 C   0  0  0  0  0  0  0  0  0  0  0  0
   20.0142  -20.5727  -10.5412 S   0  0  0  0  0  0  0  0  0  0  0  0
   20.2796  -19.9099  -13.4877 C   0  0  0  0  0  0  0  0  0  0  0  0
   19.2688  -20.8672  -13.4284 O   0  0  0  0  0  0  0  0  0  0  0  0
   20.1073  -18.8405  -14.1509 O   0  0  0  0  0  0  0  0  0  0  0  0
  1  2  1  0
  2  4  1  0
  2  3  2  0
  4  5  1  0
  5  6  1  0
  6  7  1  6
  6  8  1  0
  8  9  2  0
 10 11  1  0
 11 21  2  0
 11 12  1  0
 12 13  2  0
 13 14  1  0
 14 15  1  0
 16 15  1  6
 17  8  1  0
 17 16  1  0
 18 22  1  0
 18 16  1  0
 19 18  2  0
 20 14  2  0
 21 20  1  0
 23 24  1  1
 23 26  1  0
 23 22  1  0
 24 25  1  0
 26 27  1  0
 28 26  2  0
M  END
$$$$
