QYC.pdb
     RDKit          3D

 28 28  0  0  1  0  0  0  0  0999 V2000
   28.0356  -10.7428  -16.0511 N   0  0  0  0  0  0  0  0  0  0  0  0
   27.8569  -12.1365  -16.0631 C   0  0  0  0  0  0  0  0  0  0  0  0
   28.8138  -12.8790  -15.7797 O   0  0  0  0  0  0  0  0  0  0  0  0
   26.5439  -12.6946  -16.4066 C   0  0  0  0  0  0  0  0  0  0  0  0
   25.4324  -11.7388  -16.5917 C   0  0  0  0  0  0  0  0  0  0  0  0
   24.2473  -11.8863  -15.6787 C   0  0  2  0  0  0  0  0  0  0  0  0
   23.7635  -13.1843  -15.4523 N   0  0  0  0  0  0  0  0  0  0  0  0
   23.2620  -10.8323  -15.9870 C   0  0  0  0  0  0  0  0  0  0  0  0
   23.6525   -9.8779  -16.7079 O   0  0  0  0  0  0  0  0  0  0  0  0
   15.6471   -6.5807  -17.3705 O   0  0  0  0  0  0  0  0  0  0  0  0
   16.5884   -7.5408  -17.0145 C   0  0  0  0  0  0  0  0  0  0  0  0
   17.9243   -7.2038  -17.0408 C   0  0  0  0  0  0  0  0  0  0  0  0
   18.8979   -8.1165  -16.6979 C   0  0  0  0  0  0  0  0  0  0  0  0
   18.5234   -9.4060  -16.3168 C   0  0  0  0  0  0  0  0  0  0  0  0
   19.5365  -10.4205  -15.9328 C   0  0  0  0  0  0  0  0  0  0  0  0
   20.9320   -9.8881  -15.9076 C   0  0  2  0  0  0  0  0  0  0  0  0
   21.9296  -10.8647  -15.5063 N   0  0  0  0  0  0  0  0  0  0  0  0
   21.0321   -8.6557  -15.0781 C   0  0  0  0  0  0  0  0  0  0  0  0
   21.0181   -8.8085  -13.8111 O   0  0  0  0  0  0  0  0  0  0  0  0
   17.1769   -9.7220  -16.2977 C   0  0  0  0  0  0  0  0  0  0  0  0
   16.1931   -8.8205  -16.6377 C   0  0  0  0  0  0  0  0  0  0  0  0
   21.1388   -7.3655  -15.6649 N   0  0  0  0  0  0  0  0  0  0  0  0
   21.2724   -6.2107  -14.8306 C   0  0  1  0  0  0  0  0  0  0  0  0
   22.5835   -5.4836  -15.0461 C   0  0  0  0  0  0  0  0  0  0  0  0
   22.6606   -4.0226  -13.9746 S   0  0  0  0  0  0  0  0  0  0  0  0
   20.1246   -5.2838  -15.0276 C   0  0  0  0  0  0  0  0  0  0  0  0
   19.4526   -4.8091  -13.9030 O   0  0  0  0  0  0  0  0  0  0  0  0
   19.7562   -4.9261  -16.1892 O   0  0  0  0  0  0  0  0  0  0  0  0
  1  2  1  0
  2  4  1  0
  2  3  2  0
  4  5  1  0
  5  6  1  0
  6  7  1  6
  6  8  1  0
  8  9  2  0
 10 11  1  0
 11 21  2  0
 11 12  1  0
 12 13  2  0
 13 14  1  0
 14 15  1  0
 16 15  1  1
 17  8  1  0
 17 16  1  0
 18 22  1  0
 18 16  1  0
 19 18  2  0
 20 14  2  0
 21 20  1  0
 23 24  1  6
 23 26  1  0
 23 22  1  0
 24 25  1  0
 26 27  1  0
 28 26  2  0
M  END
$$$$
