QYC.pdb
     RDKit          3D

 28 28  0  0  1  0  0  0  0  0999 V2000
   30.9658  -24.5298  -16.3564 N   0  0  0  0  0  0  0  0  0  0  0  0
   30.5000  -24.5896  -17.6808 C   0  0  0  0  0  0  0  0  0  0  0  0
   31.2907  -24.8822  -18.5953 O   0  0  0  0  0  0  0  0  0  0  0  0
   29.0879  -24.3089  -17.9643 C   0  0  0  0  0  0  0  0  0  0  0  0
   28.2340  -23.9241  -16.8215 C   0  0  0  0  0  0  0  0  0  0  0  0
   27.4186  -22.6702  -16.9714 C   0  0  2  0  0  0  0  0  0  0  0  0
   28.1002  -21.4941  -17.3214 N   0  0  0  0  0  0  0  0  0  0  0  0
   26.4395  -22.5924  -15.8706 C   0  0  0  0  0  0  0  0  0  0  0  0
   25.7468  -23.6190  -15.6480 O   0  0  0  0  0  0  0  0  0  0  0  0
   22.7658  -20.7865   -8.1277 O   0  0  0  0  0  0  0  0  0  0  0  0
   23.5027  -20.6883   -9.3033 C   0  0  0  0  0  0  0  0  0  0  0  0
   24.8022  -21.1467   -9.3135 C   0  0  0  0  0  0  0  0  0  0  0  0
   25.5764  -21.0733  -10.4509 C   0  0  0  0  0  0  0  0  0  0  0  0
   25.0338  -20.5244  -11.6139 C   0  0  0  0  0  0  0  0  0  0  0  0
   25.8277  -20.4305  -12.8644 C   0  0  0  0  0  0  0  0  0  0  0  0
   25.3973  -21.3994  -13.9168 C   0  0  2  0  0  0  0  0  0  0  0  0
   26.2629  -21.4281  -15.0828 N   0  0  0  0  0  0  0  0  0  0  0  0
   23.9790  -21.1810  -14.3140 C   0  0  0  0  0  0  0  0  0  0  0  0
   23.7337  -20.1668  -15.0488 O   0  0  0  0  0  0  0  0  0  0  0  0
   23.7275  -20.0705  -11.5804 C   0  0  0  0  0  0  0  0  0  0  0  0
   22.9421  -20.1375  -10.4514 C   0  0  0  0  0  0  0  0  0  0  0  0
   22.9417  -22.0588  -13.8970 N   0  0  0  0  0  0  0  0  0  0  0  0
   21.5919  -21.8122  -14.3029 C   0  0  1  0  0  0  0  0  0  0  0  0
   20.8753  -23.0722  -14.7422 C   0  0  0  0  0  0  0  0  0  0  0  0
   20.2590  -22.8714  -16.4359 S   0  0  0  0  0  0  0  0  0  0  0  0
   20.8323  -21.1324  -13.2185 C   0  0  0  0  0  0  0  0  0  0  0  0
   20.0418  -20.0334  -13.5483 O   0  0  0  0  0  0  0  0  0  0  0  0
   20.8947  -21.5352  -12.0156 O   0  0  0  0  0  0  0  0  0  0  0  0
  1  2  1  0
  2  4  1  0
  2  3  2  0
  4  5  1  0
  5  6  1  0
  6  7  1  1
  6  8  1  0
  8  9  2  0
 10 11  1  0
 11 21  2  0
 11 12  1  0
 12 13  2  0
 13 14  1  0
 14 15  1  0
 16 15  1  1
 17  8  1  0
 17 16  1  0
 18 22  1  0
 18 16  1  0
 19 18  2  0
 20 14  2  0
 21 20  1  0
 23 24  1  1
 23 26  1  0
 23 22  1  0
 24 25  1  0
 26 27  1  0
 28 26  2  0
M  END
$$$$
