QYC.pdb
     RDKit          3D

 28 28  0  0  1  0  0  0  0  0999 V2000
   26.9953  -12.4593  -15.8994 N   0  0  0  0  0  0  0  0  0  0  0  0
   26.8218  -13.4960  -16.8320 C   0  0  0  0  0  0  0  0  0  0  0  0
   27.5071  -14.5294  -16.7333 O   0  0  0  0  0  0  0  0  0  0  0  0
   25.8331  -13.3452  -17.9058 C   0  0  0  0  0  0  0  0  0  0  0  0
   25.0442  -12.0960  -17.9256 C   0  0  0  0  0  0  0  0  0  0  0  0
   23.6745  -12.1448  -17.3081 C   0  0  2  0  0  0  0  0  0  0  0  0
   22.9140  -13.3065  -17.5136 N   0  0  0  0  0  0  0  0  0  0  0  0
   23.0056  -10.8446  -17.5053 C   0  0  0  0  0  0  0  0  0  0  0  0
   23.6906   -9.8111  -17.2913 O   0  0  0  0  0  0  0  0  0  0  0  0
   17.4846   -4.4970  -20.1335 O   0  0  0  0  0  0  0  0  0  0  0  0
   18.0579   -5.7390  -19.8820 C   0  0  0  0  0  0  0  0  0  0  0  0
   19.3538   -5.9681  -20.2909 C   0  0  0  0  0  0  0  0  0  0  0  0
   19.9694   -7.1802  -20.0671 C   0  0  0  0  0  0  0  0  0  0  0  0
   19.2671   -8.1944  -19.4141 C   0  0  0  0  0  0  0  0  0  0  0  0
   19.8913   -9.5139  -19.1455 C   0  0  0  0  0  0  0  0  0  0  0  0
   21.0198   -9.4506  -18.1689 C   0  0  2  0  0  0  0  0  0  0  0  0
   21.6540  -10.7326  -17.9152 N   0  0  0  0  0  0  0  0  0  0  0  0
   20.6043   -8.8028  -16.8943 C   0  0  0  0  0  0  0  0  0  0  0  0
   19.7735   -9.4407  -16.1652 O   0  0  0  0  0  0  0  0  0  0  0  0
   17.9676   -7.9421  -19.0127 C   0  0  0  0  0  0  0  0  0  0  0  0
   17.3396   -6.7360  -19.2294 C   0  0  0  0  0  0  0  0  0  0  0  0
   21.1068   -7.5323  -16.5024 N   0  0  0  0  0  0  0  0  0  0  0  0
   20.7132   -6.9647  -15.2492 C   0  0  1  0  0  0  0  0  0  0  0  0
   21.8163   -7.0169  -14.2128 C   0  0  0  0  0  0  0  0  0  0  0  0
   22.0166   -8.7161  -13.6117 S   0  0  0  0  0  0  0  0  0  0  0  0
   20.2360   -5.5667  -15.4316 C   0  0  0  0  0  0  0  0  0  0  0  0
   19.6695   -4.9097  -14.3412 O   0  0  0  0  0  0  0  0  0  0  0  0
   20.3371   -4.9749  -16.5509 O   0  0  0  0  0  0  0  0  0  0  0  0
  1  2  1  0
  2  4  1  0
  2  3  2  0
  4  5  1  0
  5  6  1  0
  6  7  1  6
  6  8  1  0
  8  9  2  0
 10 11  1  0
 11 21  2  0
 11 12  1  0
 12 13  2  0
 13 14  1  0
 14 15  1  0
 16 15  1  6
 17  8  1  0
 17 16  1  0
 18 22  1  0
 18 16  1  0
 19 18  2  0
 20 14  2  0
 21 20  1  0
 23 24  1  1
 23 26  1  0
 23 22  1  0
 24 25  1  0
 26 27  1  0
 28 26  2  0
M  END
$$$$
