QYC.pdb
     RDKit          3D

 28 28  0  0  1  0  0  0  0  0999 V2000
   24.3384  -19.3792  -22.8497 N   0  0  0  0  0  0  0  0  0  0  0  0
   24.7703  -20.5198  -22.1518 C   0  0  0  0  0  0  0  0  0  0  0  0
   25.4967  -21.3504  -22.7260 O   0  0  0  0  0  0  0  0  0  0  0  0
   24.3606  -20.7121  -20.7559 C   0  0  0  0  0  0  0  0  0  0  0  0
   23.4814  -19.6830  -20.1632 C   0  0  0  0  0  0  0  0  0  0  0  0
   24.1112  -18.3603  -19.8260 C   0  0  2  0  0  0  0  0  0  0  0  0
   25.3758  -18.3831  -19.2173 N   0  0  0  0  0  0  0  0  0  0  0  0
   23.0884  -17.4684  -19.2470 C   0  0  0  0  0  0  0  0  0  0  0  0
   21.9389  -17.5101  -19.7567 O   0  0  0  0  0  0  0  0  0  0  0  0
   20.1185  -20.9737  -14.7114 O   0  0  0  0  0  0  0  0  0  0  0  0
   20.6377  -19.7319  -15.0619 C   0  0  0  0  0  0  0  0  0  0  0  0
   19.7705  -18.6773  -15.2479 C   0  0  0  0  0  0  0  0  0  0  0  0
   20.2316  -17.4264  -15.5958 C   0  0  0  0  0  0  0  0  0  0  0  0
   21.6026  -17.2243  -15.7626 C   0  0  0  0  0  0  0  0  0  0  0  0
   22.1458  -15.8930  -16.1306 C   0  0  0  0  0  0  0  0  0  0  0  0
   22.3466  -15.7177  -17.6004 C   0  0  2  0  0  0  0  0  0  0  0  0
   23.3586  -16.5924  -18.1667 N   0  0  0  0  0  0  0  0  0  0  0  0
   22.6184  -14.2960  -17.9494 C   0  0  0  0  0  0  0  0  0  0  0  0
   23.8424  -13.9503  -18.0556 O   0  0  0  0  0  0  0  0  0  0  0  0
   22.4544  -18.2972  -15.5708 C   0  0  0  0  0  0  0  0  0  0  0  0
   22.0080  -19.5525  -15.2230 C   0  0  0  0  0  0  0  0  0  0  0  0
   21.5670  -13.3622  -18.1562 N   0  0  0  0  0  0  0  0  0  0  0  0
   21.8704  -12.0238  -18.5613 C   0  0  1  0  0  0  0  0  0  0  0  0
   22.4679  -11.9561  -19.9514 C   0  0  0  0  0  0  0  0  0  0  0  0
   22.6631  -10.2247  -20.4541 S   0  0  0  0  0  0  0  0  0  0  0  0
   20.6615  -11.1602  -18.4716 C   0  0  0  0  0  0  0  0  0  0  0  0
   20.8084   -9.7883  -18.6657 O   0  0  0  0  0  0  0  0  0  0  0  0
   19.5163  -11.6505  -18.2244 O   0  0  0  0  0  0  0  0  0  0  0  0
  1  2  1  0
  2  4  1  0
  2  3  2  0
  4  5  1  0
  5  6  1  0
  6  7  1  1
  6  8  1  0
  8  9  2  0
 10 11  1  0
 11 21  2  0
 11 12  1  0
 12 13  2  0
 13 14  1  0
 14 15  1  0
 16 15  1  1
 17  8  1  0
 17 16  1  0
 18 22  1  0
 18 16  1  0
 19 18  2  0
 20 14  2  0
 21 20  1  0
 23 24  1  6
 23 26  1  0
 23 22  1  0
 24 25  1  0
 26 27  1  0
 28 26  2  0
M  END
$$$$
