QYC.pdb
     RDKit          3D

 28 28  0  0  1  0  0  0  0  0999 V2000
   27.7043  -15.6568  -19.7592 N   0  0  0  0  0  0  0  0  0  0  0  0
   27.1313  -16.5792  -20.6512 C   0  0  0  0  0  0  0  0  0  0  0  0
   26.9698  -16.2598  -21.8424 O   0  0  0  0  0  0  0  0  0  0  0  0
   26.7353  -17.9057  -20.1647 C   0  0  0  0  0  0  0  0  0  0  0  0
   26.9001  -18.1713  -18.7205 C   0  0  0  0  0  0  0  0  0  0  0  0
   27.6357  -19.4252  -18.3376 C   0  0  2  0  0  0  0  0  0  0  0  0
   27.9681  -20.3195  -19.3671 N   0  0  0  0  0  0  0  0  0  0  0  0
   27.0365  -19.9850  -17.1110 C   0  0  0  0  0  0  0  0  0  0  0  0
   26.0490  -20.7512  -17.2556 O   0  0  0  0  0  0  0  0  0  0  0  0
   24.6826  -20.9085   -8.6392 O   0  0  0  0  0  0  0  0  0  0  0  0
   25.4084  -20.6786   -9.8033 C   0  0  0  0  0  0  0  0  0  0  0  0
   25.6223  -19.3786  -10.2074 C   0  0  0  0  0  0  0  0  0  0  0  0
   26.3343  -19.0948  -11.3524 C   0  0  0  0  0  0  0  0  0  0  0  0
   26.8480  -20.1438  -12.1166 C   0  0  0  0  0  0  0  0  0  0  0  0
   27.6265  -19.8862  -13.3537 C   0  0  0  0  0  0  0  0  0  0  0  0
   26.8494  -20.1265  -14.6067 C   0  0  2  0  0  0  0  0  0  0  0  0
   27.5274  -19.6904  -15.8150 N   0  0  0  0  0  0  0  0  0  0  0  0
   25.4832  -19.5404  -14.5238 C   0  0  0  0  0  0  0  0  0  0  0  0
   25.3758  -18.2892  -14.7515 O   0  0  0  0  0  0  0  0  0  0  0  0
   26.6209  -21.4405  -11.6919 C   0  0  0  0  0  0  0  0  0  0  0  0
   25.9116  -21.7392  -10.5501 C   0  0  0  0  0  0  0  0  0  0  0  0
   24.3470  -20.3331  -14.2062 N   0  0  0  0  0  0  0  0  0  0  0  0
   23.0693  -19.7125  -14.0336 C   0  0  1  0  0  0  0  0  0  0  0  0
   22.3701  -19.4406  -15.3492 C   0  0  0  0  0  0  0  0  0  0  0  0
   22.1591  -20.9908  -16.2663 S   0  0  0  0  0  0  0  0  0  0  0  0
   22.2027  -20.5316  -13.1429 C   0  0  0  0  0  0  0  0  0  0  0  0
   20.9623  -20.0196  -12.7676 O   0  0  0  0  0  0  0  0  0  0  0  0
   22.5738  -21.6730  -12.7276 O   0  0  0  0  0  0  0  0  0  0  0  0
  1  2  1  0
  2  4  1  0
  2  3  2  0
  4  5  1  0
  5  6  1  0
  6  7  1  6
  6  8  1  0
  8  9  2  0
 10 11  1  0
 11 21  2  0
 11 12  1  0
 12 13  2  0
 13 14  1  0
 14 15  1  0
 16 15  1  1
 17  8  1  0
 17 16  1  0
 18 22  1  0
 18 16  1  0
 19 18  2  0
 20 14  2  0
 21 20  1  0
 23 24  1  6
 23 26  1  0
 23 22  1  0
 24 25  1  0
 26 27  1  0
 28 26  2  0
M  END
$$$$
