QYC.pdb
     RDKit          3D

 28 28  0  0  1  0  0  0  0  0999 V2000
   26.9996  -10.3001  -16.0352 N   0  0  0  0  0  0  0  0  0  0  0  0
   26.5389  -11.6148  -15.8507 C   0  0  0  0  0  0  0  0  0  0  0  0
   27.3607  -12.5346  -15.6896 O   0  0  0  0  0  0  0  0  0  0  0  0
   25.0961  -11.8821  -15.8479 C   0  0  0  0  0  0  0  0  0  0  0  0
   24.1967  -10.7318  -16.0740 C   0  0  0  0  0  0  0  0  0  0  0  0
   22.7191  -11.0081  -16.0575 C   0  0  2  0  0  0  0  0  0  0  0  0
   22.2542  -12.0844  -16.8292 N   0  0  0  0  0  0  0  0  0  0  0  0
   21.9847   -9.7318  -16.1496 C   0  0  0  0  0  0  0  0  0  0  0  0
   21.7594   -9.2840  -17.3037 O   0  0  0  0  0  0  0  0  0  0  0  0
   15.9042  -11.2736  -17.5397 O   0  0  0  0  0  0  0  0  0  0  0  0
   16.7457  -10.4483  -16.8013 C   0  0  0  0  0  0  0  0  0  0  0  0
   17.5032  -11.0028  -15.7926 C   0  0  0  0  0  0  0  0  0  0  0  0
   18.3528  -10.2307  -15.0306 C   0  0  0  0  0  0  0  0  0  0  0  0
   18.4474   -8.8617  -15.2857 C   0  0  0  0  0  0  0  0  0  0  0  0
   19.3535   -7.9917  -14.4952 C   0  0  0  0  0  0  0  0  0  0  0  0
   20.7079   -7.8330  -15.1050 C   0  0  2  0  0  0  0  0  0  0  0  0
   21.5418   -9.0185  -15.0084 N   0  0  0  0  0  0  0  0  0  0  0  0
   21.4157   -6.6408  -14.5624 C   0  0  0  0  0  0  0  0  0  0  0  0
   22.1159   -6.8133  -13.5094 O   0  0  0  0  0  0  0  0  0  0  0  0
   17.6776   -8.3268  -16.3029 C   0  0  0  0  0  0  0  0  0  0  0  0
   16.8246   -9.0859  -17.0724 C   0  0  0  0  0  0  0  0  0  0  0  0
   21.3196   -5.3663  -15.1844 N   0  0  0  0  0  0  0  0  0  0  0  0
   22.1027   -4.2728  -14.6960 C   0  0  1  0  0  0  0  0  0  0  0  0
   23.0995   -3.7666  -15.7179 C   0  0  0  0  0  0  0  0  0  0  0  0
   23.9143   -2.2711  -15.0949 S   0  0  0  0  0  0  0  0  0  0  0  0
   21.2256   -3.1641  -14.2307 C   0  0  0  0  0  0  0  0  0  0  0  0
   19.8883   -3.1651  -14.6220 O   0  0  0  0  0  0  0  0  0  0  0  0
   21.6738   -2.2321  -13.4934 O   0  0  0  0  0  0  0  0  0  0  0  0
  1  2  1  0
  2  4  1  0
  2  3  2  0
  4  5  1  0
  5  6  1  0
  6  7  1  6
  6  8  1  0
  8  9  2  0
 10 11  1  0
 11 21  2  0
 11 12  1  0
 12 13  2  0
 13 14  1  0
 14 15  1  0
 16 15  1  1
 17  8  1  0
 17 16  1  0
 18 22  1  0
 18 16  1  0
 19 18  2  0
 20 14  2  0
 21 20  1  0
 23 24  1  6
 23 26  1  0
 23 22  1  0
 24 25  1  0
 26 27  1  0
 28 26  2  0
M  END
$$$$
