QYC.pdb
     RDKit          3D

 28 28  0  0  1  0  0  0  0  0999 V2000
   30.2406  -23.0352  -15.9860 N   0  0  0  0  0  0  0  0  0  0  0  0
   29.4888  -24.0257  -16.6407 C   0  0  0  0  0  0  0  0  0  0  0  0
   30.0663  -25.0224  -17.1101 O   0  0  0  0  0  0  0  0  0  0  0  0
   28.0344  -23.8707  -16.7579 C   0  0  0  0  0  0  0  0  0  0  0  0
   27.4216  -22.7156  -16.0696 C   0  0  0  0  0  0  0  0  0  0  0  0
   27.0098  -21.5513  -16.9268 C   0  0  2  0  0  0  0  0  0  0  0  0
   27.9739  -21.0144  -17.7941 N   0  0  0  0  0  0  0  0  0  0  0  0
   26.2163  -20.6077  -16.1163 C   0  0  0  0  0  0  0  0  0  0  0  0
   26.8483  -19.8664  -15.3200 O   0  0  0  0  0  0  0  0  0  0  0  0
   20.3380  -19.7906  -20.6820 O   0  0  0  0  0  0  0  0  0  0  0  0
   21.1620  -19.4376  -19.6185 C   0  0  0  0  0  0  0  0  0  0  0  0
   20.5891  -19.1695  -18.3942 C   0  0  0  0  0  0  0  0  0  0  0  0
   21.3589  -18.8154  -17.3078 C   0  0  0  0  0  0  0  0  0  0  0  0
   22.7446  -18.7267  -17.4506 C   0  0  0  0  0  0  0  0  0  0  0  0
   23.6146  -18.3552  -16.3069 C   0  0  0  0  0  0  0  0  0  0  0  0
   24.0385  -19.5232  -15.4777 C   0  0  2  0  0  0  0  0  0  0  0  0
   24.8053  -20.5182  -16.2071 N   0  0  0  0  0  0  0  0  0  0  0  0
   22.8802  -20.1501  -14.7833 C   0  0  0  0  0  0  0  0  0  0  0  0
   22.4659  -21.2666  -15.2423 O   0  0  0  0  0  0  0  0  0  0  0  0
   23.2977  -19.0001  -18.6886 C   0  0  0  0  0  0  0  0  0  0  0  0
   22.5411  -19.3552  -19.7829 C   0  0  0  0  0  0  0  0  0  0  0  0
   22.2603  -19.5379  -13.6603 N   0  0  0  0  0  0  0  0  0  0  0  0
   21.1070  -20.1403  -13.0650 C   0  0  1  0  0  0  0  0  0  0  0  0
   21.1924  -20.1968  -11.5539 C   0  0  0  0  0  0  0  0  0  0  0  0
   19.6918  -20.9605  -10.8805 S   0  0  0  0  0  0  0  0  0  0  0  0
   19.8668  -19.4359  -13.4904 C   0  0  0  0  0  0  0  0  0  0  0  0
   18.6794  -20.1618  -13.5575 O   0  0  0  0  0  0  0  0  0  0  0  0
   19.8775  -18.2013  -13.7882 O   0  0  0  0  0  0  0  0  0  0  0  0
  1  2  1  0
  2  4  1  0
  2  3  2  0
  4  5  1  0
  5  6  1  0
  6  7  1  1
  6  8  1  0
  8  9  2  0
 10 11  1  0
 11 21  2  0
 11 12  1  0
 12 13  2  0
 13 14  1  0
 14 15  1  0
 16 15  1  6
 17  8  1  0
 17 16  1  0
 18 22  1  0
 18 16  1  0
 19 18  2  0
 20 14  2  0
 21 20  1  0
 23 24  1  1
 23 26  1  0
 23 22  1  0
 24 25  1  0
 26 27  1  0
 28 26  2  0
M  END
$$$$
