QYC.pdb
     RDKit          3D

 28 28  0  0  1  0  0  0  0  0999 V2000
   35.8342  -32.9026  -21.8206 N   0  0  0  0  0  0  0  0  0  0  0  0
   37.0486  -32.2730  -21.4986 C   0  0  0  0  0  0  0  0  0  0  0  0
   37.8148  -31.9175  -22.4116 O   0  0  0  0  0  0  0  0  0  0  0  0
   37.3927  -32.0420  -20.0910 C   0  0  0  0  0  0  0  0  0  0  0  0
   36.3435  -32.3141  -19.0867 C   0  0  0  0  0  0  0  0  0  0  0  0
   35.5103  -31.1462  -18.6378 C   0  0  2  0  0  0  0  0  0  0  0  0
   36.1891  -30.0057  -18.1807 N   0  0  0  0  0  0  0  0  0  0  0  0
   34.3780  -31.6387  -17.8302 C   0  0  0  0  0  0  0  0  0  0  0  0
   34.6436  -32.0789  -16.6819 O   0  0  0  0  0  0  0  0  0  0  0  0
   26.3087  -33.3744  -14.7146 O   0  0  0  0  0  0  0  0  0  0  0  0
   27.3783  -32.8863  -15.4578 C   0  0  0  0  0  0  0  0  0  0  0  0
   27.5870  -33.3814  -16.7267 C   0  0  0  0  0  0  0  0  0  0  0  0
   28.6314  -32.9328  -17.5054 C   0  0  0  0  0  0  0  0  0  0  0  0
   29.4935  -31.9588  -16.9991 C   0  0  0  0  0  0  0  0  0  0  0  0
   30.6280  -31.4408  -17.8038 C   0  0  0  0  0  0  0  0  0  0  0  0
   31.9293  -32.1061  -17.4951 C   0  0  2  0  0  0  0  0  0  0  0  0
   33.0412  -31.6308  -18.2998 N   0  0  0  0  0  0  0  0  0  0  0  0
   31.8164  -33.5889  -17.5690 C   0  0  0  0  0  0  0  0  0  0  0  0
   31.9145  -34.1195  -18.7256 O   0  0  0  0  0  0  0  0  0  0  0  0
   29.2649  -31.4764  -15.7230 C   0  0  0  0  0  0  0  0  0  0  0  0
   28.2256  -31.9151  -14.9335 C   0  0  0  0  0  0  0  0  0  0  0  0
   31.6092  -34.3823  -16.4081 N   0  0  0  0  0  0  0  0  0  0  0  0
   31.5989  -35.8094  -16.5113 C   0  0  1  0  0  0  0  0  0  0  0  0
   32.5062  -36.4744  -15.4971 C   0  0  0  0  0  0  0  0  0  0  0  0
   34.2408  -36.1720  -15.9310 S   0  0  0  0  0  0  0  0  0  0  0  0
   30.2116  -36.3355  -16.3927 C   0  0  0  0  0  0  0  0  0  0  0  0
   30.0185  -37.7150  -16.4243 O   0  0  0  0  0  0  0  0  0  0  0  0
   29.2178  -35.5549  -16.2650 O   0  0  0  0  0  0  0  0  0  0  0  0
  1  2  1  0
  2  4  1  0
  2  3  2  0
  4  5  1  0
  5  6  1  0
  6  7  1  1
  6  8  1  0
  8  9  2  0
 10 11  1  0
 11 21  2  0
 11 12  1  0
 12 13  2  0
 13 14  1  0
 14 15  1  0
 16 15  1  6
 17  8  1  0
 17 16  1  0
 18 22  1  0
 18 16  1  0
 19 18  2  0
 20 14  2  0
 21 20  1  0
 23 24  1  1
 23 26  1  0
 23 22  1  0
 24 25  1  0
 26 27  1  0
 28 26  2  0
M  END
$$$$
