QYC.pdb
     RDKit          3D

 28 28  0  0  1  0  0  0  0  0999 V2000
   26.5331  -23.0168  -21.9448 N   0  0  0  0  0  0  0  0  0  0  0  0
   27.1625  -21.7680  -22.0829 C   0  0  0  0  0  0  0  0  0  0  0  0
   27.6479  -21.4452  -23.1817 O   0  0  0  0  0  0  0  0  0  0  0  0
   27.2349  -20.8629  -20.9302 C   0  0  0  0  0  0  0  0  0  0  0  0
   26.6666  -21.3478  -19.6553 C   0  0  0  0  0  0  0  0  0  0  0  0
   27.6407  -21.7854  -18.5973 C   0  0  2  0  0  0  0  0  0  0  0  0
   28.5253  -22.8252  -18.9236 N   0  0  0  0  0  0  0  0  0  0  0  0
   26.9461  -21.8596  -17.2978 C   0  0  0  0  0  0  0  0  0  0  0  0
   25.8489  -22.4748  -17.2704 O   0  0  0  0  0  0  0  0  0  0  0  0
   24.6183  -20.6477   -8.8578 O   0  0  0  0  0  0  0  0  0  0  0  0
   25.3360  -20.7025  -10.0479 C   0  0  0  0  0  0  0  0  0  0  0  0
   25.6188  -19.5266  -10.7084 C   0  0  0  0  0  0  0  0  0  0  0  0
   26.3263  -19.5240  -11.8907 C   0  0  0  0  0  0  0  0  0  0  0  0
   26.7643  -20.7351  -12.4289 C   0  0  0  0  0  0  0  0  0  0  0  0
   27.5350  -20.7808  -13.6965 C   0  0  0  0  0  0  0  0  0  0  0  0
   26.7420  -21.2861  -14.8572 C   0  0  2  0  0  0  0  0  0  0  0  0
   27.4651  -21.2734  -16.1169 N   0  0  0  0  0  0  0  0  0  0  0  0
   25.4422  -20.5711  -14.9842 C   0  0  0  0  0  0  0  0  0  0  0  0
   25.4835  -19.3657  -15.4014 O   0  0  0  0  0  0  0  0  0  0  0  0
   26.4689  -21.9029  -11.7488 C   0  0  0  0  0  0  0  0  0  0  0  0
   25.7631  -21.9209  -10.5667 C   0  0  0  0  0  0  0  0  0  0  0  0
   24.2088  -21.1974  -14.6573 N   0  0  0  0  0  0  0  0  0  0  0  0
   23.0355  -20.4028  -14.4584 C   0  0  1  0  0  0  0  0  0  0  0  0
   22.1610  -20.3342  -15.6931 C   0  0  0  0  0  0  0  0  0  0  0  0
   20.5265  -19.6824  -15.2545 S   0  0  0  0  0  0  0  0  0  0  0  0
   22.2540  -20.9011  -13.2939 C   0  0  0  0  0  0  0  0  0  0  0  0
   21.2406  -20.0951  -12.7791 O   0  0  0  0  0  0  0  0  0  0  0  0
   22.4955  -22.0335  -12.7720 O   0  0  0  0  0  0  0  0  0  0  0  0
  1  2  1  0
  2  4  1  0
  2  3  2  0
  4  5  1  0
  5  6  1  0
  6  7  1  6
  6  8  1  0
  8  9  2  0
 10 11  1  0
 11 21  2  0
 11 12  1  0
 12 13  2  0
 13 14  1  0
 14 15  1  0
 16 15  1  1
 17  8  1  0
 17 16  1  0
 18 22  1  0
 18 16  1  0
 19 18  2  0
 20 14  2  0
 21 20  1  0
 23 24  1  6
 23 26  1  0
 23 22  1  0
 24 25  1  0
 26 27  1  0
 28 26  2  0
M  END
$$$$
