QYC.pdb
     RDKit          3D

 28 28  0  0  1  0  0  0  0  0999 V2000
   25.3945  -19.7319  -19.4333 N   0  0  0  0  0  0  0  0  0  0  0  0
   25.6766  -20.7701  -20.3373 C   0  0  0  0  0  0  0  0  0  0  0  0
   26.2361  -20.5070  -21.4166 O   0  0  0  0  0  0  0  0  0  0  0  0
   25.3096  -22.1486  -19.9932 C   0  0  0  0  0  0  0  0  0  0  0  0
   24.7615  -22.3831  -18.6412 C   0  0  0  0  0  0  0  0  0  0  0  0
   25.7034  -22.2045  -17.4833 C   0  0  2  0  0  0  0  0  0  0  0  0
   26.9451  -22.8552  -17.5540 N   0  0  0  0  0  0  0  0  0  0  0  0
   24.9469  -22.3080  -16.2209 C   0  0  0  0  0  0  0  0  0  0  0  0
   25.0527  -23.3842  -15.5776 O   0  0  0  0  0  0  0  0  0  0  0  0
   29.3624  -20.5653  -11.9964 O   0  0  0  0  0  0  0  0  0  0  0  0
   28.0294  -20.4720  -12.3823 C   0  0  0  0  0  0  0  0  0  0  0  0
   27.0745  -21.1315  -11.6393 C   0  0  0  0  0  0  0  0  0  0  0  0
   25.7401  -21.0725  -11.9774 C   0  0  0  0  0  0  0  0  0  0  0  0
   25.3490  -20.3308  -13.0933 C   0  0  0  0  0  0  0  0  0  0  0  0
   23.9226  -20.2332  -13.4920 C   0  0  0  0  0  0  0  0  0  0  0  0
   23.4904  -21.3158  -14.4261 C   0  0  2  0  0  0  0  0  0  0  0  0
   24.1287  -21.2608  -15.7298 N   0  0  0  0  0  0  0  0  0  0  0  0
   22.0084  -21.3611  -14.5624 C   0  0  0  0  0  0  0  0  0  0  0  0
   21.4837  -20.5888  -15.4324 O   0  0  0  0  0  0  0  0  0  0  0  0
   26.3246  -19.6771  -13.8243 C   0  0  0  0  0  0  0  0  0  0  0  0
   27.6615  -19.7270  -13.4984 C   0  0  0  0  0  0  0  0  0  0  0  0
   21.2096  -22.2231  -13.7629 N   0  0  0  0  0  0  0  0  0  0  0  0
   19.7926  -22.2665  -13.9565 C   0  0  1  0  0  0  0  0  0  0  0  0
   19.1283  -23.3703  -13.1601 C   0  0  0  0  0  0  0  0  0  0  0  0
   17.4599  -23.6747  -13.8025 S   0  0  0  0  0  0  0  0  0  0  0  0
   19.1772  -20.9499  -13.6351 C   0  0  0  0  0  0  0  0  0  0  0  0
   18.0989  -20.5147  -14.4029 O   0  0  0  0  0  0  0  0  0  0  0  0
   19.6157  -20.2300  -12.6851 O   0  0  0  0  0  0  0  0  0  0  0  0
  1  2  1  0
  2  4  1  0
  2  3  2  0
  4  5  1  0
  5  6  1  0
  6  7  1  1
  6  8  1  0
  8  9  2  0
 10 11  1  0
 11 21  2  0
 11 12  1  0
 12 13  2  0
 13 14  1  0
 14 15  1  0
 16 15  1  1
 17  8  1  0
 17 16  1  0
 18 22  1  0
 18 16  1  0
 19 18  2  0
 20 14  2  0
 21 20  1  0
 23 24  1  1
 23 26  1  0
 23 22  1  0
 24 25  1  0
 26 27  1  0
 28 26  2  0
M  END
$$$$
