QYC.pdb
     RDKit          3D

 28 28  0  0  1  0  0  0  0  0999 V2000
   28.8324  -22.0074  -21.6848 N   0  0  0  0  0  0  0  0  0  0  0  0
   27.7520  -21.3513  -21.0710 C   0  0  0  0  0  0  0  0  0  0  0  0
   26.6070  -21.4895  -21.5369 O   0  0  0  0  0  0  0  0  0  0  0  0
   27.9903  -20.5158  -19.8885 C   0  0  0  0  0  0  0  0  0  0  0  0
   27.2009  -20.8204  -18.6772 C   0  0  0  0  0  0  0  0  0  0  0  0
   27.7287  -21.8991  -17.7729 C   0  0  2  0  0  0  0  0  0  0  0  0
   28.1124  -23.1110  -18.3681 N   0  0  0  0  0  0  0  0  0  0  0  0
   26.8939  -21.9669  -16.5583 C   0  0  0  0  0  0  0  0  0  0  0  0
   25.8407  -22.6517  -16.6260 O   0  0  0  0  0  0  0  0  0  0  0  0
   23.7218  -20.9435   -8.3772 O   0  0  0  0  0  0  0  0  0  0  0  0
   24.5405  -20.8892   -9.5003 C   0  0  0  0  0  0  0  0  0  0  0  0
   25.0758  -22.0608   -9.9900 C   0  0  0  0  0  0  0  0  0  0  0  0
   25.8931  -22.0636  -11.0993 C   0  0  0  0  0  0  0  0  0  0  0  0
   26.1837  -20.8572  -11.7384 C   0  0  0  0  0  0  0  0  0  0  0  0
   27.0537  -20.8122  -12.9401 C   0  0  0  0  0  0  0  0  0  0  0  0
   26.4014  -21.3585  -14.1678 C   0  0  2  0  0  0  0  0  0  0  0  0
   27.2357  -21.3005  -15.3555 N   0  0  0  0  0  0  0  0  0  0  0  0
   25.0800  -20.7185  -14.4159 C   0  0  0  0  0  0  0  0  0  0  0  0
   25.0903  -19.5523  -14.9341 O   0  0  0  0  0  0  0  0  0  0  0  0
   25.6354  -19.6937  -11.2293 C   0  0  0  0  0  0  0  0  0  0  0  0
   24.8173  -19.6756  -10.1220 C   0  0  0  0  0  0  0  0  0  0  0  0
   23.8599  -21.3719  -14.0924 N   0  0  0  0  0  0  0  0  0  0  0  0
   22.6168  -20.6808  -14.2492 C   0  0  1  0  0  0  0  0  0  0  0  0
   22.0017  -20.8895  -15.6174 C   0  0  0  0  0  0  0  0  0  0  0  0
   20.3075  -20.2429  -15.6360 S   0  0  0  0  0  0  0  0  0  0  0  0
   21.6575  -21.0748  -13.1816 C   0  0  0  0  0  0  0  0  0  0  0  0
   20.4464  -20.3918  -13.0905 O   0  0  0  0  0  0  0  0  0  0  0  0
   21.9250  -22.0108  -12.3657 O   0  0  0  0  0  0  0  0  0  0  0  0
  1  2  1  0
  2  4  1  0
  2  3  2  0
  4  5  1  0
  5  6  1  0
  6  7  1  6
  6  8  1  0
  8  9  2  0
 10 11  1  0
 11 21  2  0
 11 12  1  0
 12 13  2  0
 13 14  1  0
 14 15  1  0
 16 15  1  1
 17  8  1  0
 17 16  1  0
 18 22  1  0
 18 16  1  0
 19 18  2  0
 20 14  2  0
 21 20  1  0
 23 24  1  6
 23 26  1  0
 23 22  1  0
 24 25  1  0
 26 27  1  0
 28 26  2  0
M  END
$$$$
