QYC.pdb
     RDKit          3D

 28 28  0  0  1  0  0  0  0  0999 V2000
   27.5850  -19.3928  -17.5443 N   0  0  0  0  0  0  0  0  0  0  0  0
   28.4329  -18.4089  -17.0080 C   0  0  0  0  0  0  0  0  0  0  0  0
   29.1058  -17.6966  -17.7742 O   0  0  0  0  0  0  0  0  0  0  0  0
   28.5095  -18.2347  -15.5530 C   0  0  0  0  0  0  0  0  0  0  0  0
   27.6283  -19.0838  -14.7248 C   0  0  0  0  0  0  0  0  0  0  0  0
   26.1505  -18.8222  -14.8128 C   0  0  2  0  0  0  0  0  0  0  0  0
   25.7115  -17.5096  -14.5794 N   0  0  0  0  0  0  0  0  0  0  0  0
   25.4224  -19.9171  -14.1435 C   0  0  0  0  0  0  0  0  0  0  0  0
   25.8194  -21.0895  -14.3693 O   0  0  0  0  0  0  0  0  0  0  0  0
   28.6150  -21.2193   -8.6461 O   0  0  0  0  0  0  0  0  0  0  0  0
   27.3673  -21.0666   -9.2415 C   0  0  0  0  0  0  0  0  0  0  0  0
   27.1430  -21.6441  -10.4724 C   0  0  0  0  0  0  0  0  0  0  0  0
   25.9256  -21.5237  -11.1065 C   0  0  0  0  0  0  0  0  0  0  0  0
   24.9012  -20.8033  -10.4901 C   0  0  0  0  0  0  0  0  0  0  0  0
   23.5716  -20.6523  -11.1322 C   0  0  0  0  0  0  0  0  0  0  0  0
   23.6124  -20.7724  -12.6206 C   0  0  2  0  0  0  0  0  0  0  0  0
   24.3212  -19.6903  -13.2813 N   0  0  0  0  0  0  0  0  0  0  0  0
   22.2483  -20.9409  -13.1932 C   0  0  0  0  0  0  0  0  0  0  0  0
   21.6174  -19.8769  -13.5073 O   0  0  0  0  0  0  0  0  0  0  0  0
   25.1490  -20.2322   -9.2549 C   0  0  0  0  0  0  0  0  0  0  0  0
   26.3601  -20.3442   -8.6094 C   0  0  0  0  0  0  0  0  0  0  0  0
   21.6703  -22.2253  -13.3837 N   0  0  0  0  0  0  0  0  0  0  0  0
   20.4050  -22.3484  -14.0406 C   0  0  1  0  0  0  0  0  0  0  0  0
   20.2746  -23.6414  -14.8183 C   0  0  0  0  0  0  0  0  0  0  0  0
   21.7428  -23.8879  -15.8539 S   0  0  0  0  0  0  0  0  0  0  0  0
   19.2900  -22.2135  -13.0640 C   0  0  0  0  0  0  0  0  0  0  0  0
   17.9826  -22.1953  -13.5457 O   0  0  0  0  0  0  0  0  0  0  0  0
   19.5119  -22.1164  -11.8172 O   0  0  0  0  0  0  0  0  0  0  0  0
  1  2  1  0
  2  4  1  0
  2  3  2  0
  4  5  1  0
  5  6  1  0
  6  7  1  1
  6  8  1  0
  8  9  2  0
 10 11  1  0
 11 21  2  0
 11 12  1  0
 12 13  2  0
 13 14  1  0
 14 15  1  0
 16 15  1  1
 17  8  1  0
 17 16  1  0
 18 22  1  0
 18 16  1  0
 19 18  2  0
 20 14  2  0
 21 20  1  0
 23 24  1  1
 23 26  1  0
 23 22  1  0
 24 25  1  0
 26 27  1  0
 28 26  2  0
M  END
$$$$
