CDV.pdb
     RDKit          3D

 22 21  0  0  1  0  0  0  0  0999 V2000
    6.6127  -15.8741   19.2035 N   0  0  0  0  0  0  0  0  0  0  0  0
    7.6894  -15.0623   19.7189 C   0  0  1  0  0  0  0  0  0  0  0  0
    7.3703  -13.5951   19.6762 C   0  0  0  0  0  0  0  0  0  0  0  0
    8.8414  -12.6890   20.2377 S   0  0  0  0  0  0  0  0  0  0  0  0
    7.9046  -15.4397   21.1446 C   0  0  0  0  0  0  0  0  0  0  0  0
    6.8585  -15.5279   21.8634 O   0  0  0  0  0  0  0  0  0  0  0  0
    9.1764  -15.6890   21.6901 N   0  0  0  0  0  0  0  0  0  0  0  0
    9.2647  -16.2464   23.0440 C   0  0  1  0  0  0  0  0  0  0  0  0
   10.4809  -17.1051   23.1808 C   0  0  0  0  0  0  0  0  0  0  0  0
   10.4975  -18.3422   22.4047 C   0  0  0  0  0  0  0  0  0  0  0  0
    9.5063  -19.0725   22.2485 O   0  0  0  0  0  0  0  0  0  0  0  0
    9.2813  -15.1205   24.0217 C   0  0  0  0  0  0  0  0  0  0  0  0
    9.9971  -14.1293   23.9201 O   0  0  0  0  0  0  0  0  0  0  0  0
   11.6852  -18.7405   21.7984 O   0  0  0  0  0  0  0  0  0  0  0  0
    7.2637  -12.3300   27.4673 C   0  0  0  0  0  0  0  0  0  0  0  0
    7.1227  -13.3960   26.3799 C   0  0  1  0  0  0  0  0  0  0  0  0
    6.4572  -12.8657   25.1540 C   0  0  0  0  0  0  0  0  0  0  0  0
    8.4109  -14.1054   26.1237 C   0  0  2  0  0  0  0  0  0  0  0  0
    8.4302  -15.1322   25.1798 N   0  0  0  0  0  0  0  0  0  0  0  0
    8.8924  -14.6233   27.4327 C   0  0  0  0  0  0  0  0  0  0  0  0
    8.9241  -15.8486   27.7057 O   0  0  0  0  0  0  0  0  0  0  0  0
    9.3266  -13.7356   28.4004 O   0  0  0  0  0  0  0  0  0  0  0  0
  2  1  1  1
  2  3  1  0
  3  4  1  0
  5  2  1  0
  5  7  1  0
  6  5  2  0
  8  7  1  0
  8 12  1  0
  8  9  1  6
 10  9  1  0
 11 10  2  0
 12 19  1  0
 13 12  2  0
 14 10  1  0
 16 15  1  1
 16 17  1  0
 18 20  1  0
 18 16  1  0
 18 19  1  6
 20 22  1  0
 21 20  2  0
M  END
$$$$
