CDV.pdb
     RDKit          3D

 22 21  0  0  1  0  0  0  0  0999 V2000
    7.8407  -15.2111   17.8286 N   0  0  0  0  0  0  0  0  0  0  0  0
    8.3587  -14.3668   18.8787 C   0  0  1  0  0  0  0  0  0  0  0  0
    7.6354  -13.0532   18.9654 C   0  0  0  0  0  0  0  0  0  0  0  0
    8.3196  -12.1330   20.3745 S   0  0  0  0  0  0  0  0  0  0  0  0
    8.1665  -15.0782   20.1741 C   0  0  0  0  0  0  0  0  0  0  0  0
    7.0661  -15.7022   20.3113 O   0  0  0  0  0  0  0  0  0  0  0  0
    9.1266  -15.0771   21.2015 N   0  0  0  0  0  0  0  0  0  0  0  0
    8.8700  -15.8744   22.4056 C   0  0  1  0  0  0  0  0  0  0  0  0
    9.7622  -17.0737   22.4419 C   0  0  0  0  0  0  0  0  0  0  0  0
    9.6078  -17.9681   23.5861 C   0  0  0  0  0  0  0  0  0  0  0  0
    8.6743  -17.8923   24.4005 O   0  0  0  0  0  0  0  0  0  0  0  0
    9.0745  -15.0083   23.6022 C   0  0  0  0  0  0  0  0  0  0  0  0
   10.0946  -14.3623   23.8198 O   0  0  0  0  0  0  0  0  0  0  0  0
   10.5529  -18.9691   23.7903 O   0  0  0  0  0  0  0  0  0  0  0  0
    7.3225  -12.3931   27.3874 C   0  0  0  0  0  0  0  0  0  0  0  0
    7.0420  -13.1739   26.1027 C   0  0  1  0  0  0  0  0  0  0  0  0
    6.5566  -12.2911   25.0016 C   0  0  0  0  0  0  0  0  0  0  0  0
    8.1848  -14.0570   25.7258 C   0  0  2  0  0  0  0  0  0  0  0  0
    8.0528  -14.8759   24.6043 N   0  0  0  0  0  0  0  0  0  0  0  0
    8.5038  -14.8907   26.9162 C   0  0  0  0  0  0  0  0  0  0  0  0
    8.1886  -16.1035   26.9974 O   0  0  0  0  0  0  0  0  0  0  0  0
    9.1737  -14.3254   27.9860 O   0  0  0  0  0  0  0  0  0  0  0  0
  2  1  1  6
  2  3  1  0
  3  4  1  0
  5  2  1  0
  5  7  1  0
  6  5  2  0
  8  7  1  0
  8 12  1  0
  8  9  1  1
 10  9  1  0
 11 10  2  0
 12 19  1  0
 13 12  2  0
 14 10  1  0
 16 15  1  1
 16 17  1  0
 18 20  1  0
 18 16  1  0
 18 19  1  6
 20 22  1  0
 21 20  2  0
M  END
$$$$
