CDV.pdb
     RDKit          3D

 22 21  0  0  1  0  0  0  0  0999 V2000
    7.2338  -16.2022   18.5184 N   0  0  0  0  0  0  0  0  0  0  0  0
    7.9043  -15.3158   19.4396 C   0  0  1  0  0  0  0  0  0  0  0  0
    7.5464  -13.8751   19.2100 C   0  0  0  0  0  0  0  0  0  0  0  0
    8.3353  -12.8904   20.5171 S   0  0  0  0  0  0  0  0  0  0  0  0
    7.4717  -15.6775   20.8192 C   0  0  0  0  0  0  0  0  0  0  0  0
    6.2239  -15.8654   20.9825 O   0  0  0  0  0  0  0  0  0  0  0  0
    8.3668  -15.8101   21.8955 N   0  0  0  0  0  0  0  0  0  0  0  0
    7.8445  -16.2415   23.1965 C   0  0  1  0  0  0  0  0  0  0  0  0
    8.2358  -17.6570   23.4769 C   0  0  0  0  0  0  0  0  0  0  0  0
    7.8106  -18.2101   24.7600 C   0  0  0  0  0  0  0  0  0  0  0  0
    6.7756  -17.8650   25.3515 O   0  0  0  0  0  0  0  0  0  0  0  0
    8.3601  -15.3166   24.2465 C   0  0  0  0  0  0  0  0  0  0  0  0
    9.5437  -15.0273   24.3899 O   0  0  0  0  0  0  0  0  0  0  0  0
    8.5999  -19.1813   25.3690 O   0  0  0  0  0  0  0  0  0  0  0  0
    7.4489  -11.8252   27.6825 C   0  0  0  0  0  0  0  0  0  0  0  0
    6.8352  -12.8651   26.7440 C   0  0  1  0  0  0  0  0  0  0  0  0
    5.8455  -12.2614   25.8042 C   0  0  0  0  0  0  0  0  0  0  0  0
    7.8776  -13.7057   26.0845 C   0  0  2  0  0  0  0  0  0  0  0  0
    7.4692  -14.6892   25.1836 N   0  0  0  0  0  0  0  0  0  0  0  0
    8.6869  -14.3274   27.1672 C   0  0  0  0  0  0  0  0  0  0  0  0
    8.6808  -15.5628   27.3926 O   0  0  0  0  0  0  0  0  0  0  0  0
    9.4839  -13.5297   27.9680 O   0  0  0  0  0  0  0  0  0  0  0  0
  2  1  1  6
  2  3  1  0
  3  4  1  0
  5  2  1  0
  5  7  1  0
  6  5  2  0
  8  7  1  0
  8 12  1  0
  8  9  1  1
 10  9  1  0
 11 10  2  0
 12 19  1  0
 13 12  2  0
 14 10  1  0
 16 15  1  6
 16 17  1  0
 18 20  1  0
 18 16  1  0
 18 19  1  1
 20 22  1  0
 21 20  2  0
M  END
$$$$
