CDV.pdb
     RDKit          3D

 22 21  0  0  1  0  0  0  0  0999 V2000
    6.7439  -16.2048   20.2006 N   0  0  0  0  0  0  0  0  0  0  0  0
    7.5907  -15.0361   20.1687 C   0  0  1  0  0  0  0  0  0  0  0  0
    6.8136  -13.7620   20.3395 C   0  0  0  0  0  0  0  0  0  0  0  0
    7.9540  -12.3739   20.0691 S   0  0  0  0  0  0  0  0  0  0  0  0
    8.5529  -15.1374   21.3023 C   0  0  0  0  0  0  0  0  0  0  0  0
    9.4967  -14.2842   21.3123 O   0  0  0  0  0  0  0  0  0  0  0  0
    8.4486  -16.1079   22.3145 N   0  0  0  0  0  0  0  0  0  0  0  0
    9.6177  -16.3712   23.1603 C   0  0  1  0  0  0  0  0  0  0  0  0
   10.8815  -16.1825   22.3839 C   0  0  0  0  0  0  0  0  0  0  0  0
   11.7205  -17.3644   22.2048 C   0  0  0  0  0  0  0  0  0  0  0  0
   12.4155  -17.8606   23.1054 O   0  0  0  0  0  0  0  0  0  0  0  0
    9.5646  -15.4626   24.3416 C   0  0  0  0  0  0  0  0  0  0  0  0
   10.5026  -15.2741   25.1095 O   0  0  0  0  0  0  0  0  0  0  0  0
   11.7549  -17.9829   20.9585 O   0  0  0  0  0  0  0  0  0  0  0  0
    7.1301  -12.0590   27.0614 C   0  0  0  0  0  0  0  0  0  0  0  0
    7.0303  -13.0446   25.8963 C   0  0  1  0  0  0  0  0  0  0  0  0
    6.5513  -12.3896   24.6438 C   0  0  0  0  0  0  0  0  0  0  0  0
    8.2798  -13.8449   25.7339 C   0  0  2  0  0  0  0  0  0  0  0  0
    8.3696  -14.7301   24.6596 N   0  0  0  0  0  0  0  0  0  0  0  0
    8.4937  -14.5841   27.0074 C   0  0  0  0  0  0  0  0  0  0  0  0
    8.1472  -15.7812   27.1616 O   0  0  0  0  0  0  0  0  0  0  0  0
    9.0966  -13.9445   28.0752 O   0  0  0  0  0  0  0  0  0  0  0  0
  2  1  1  1
  2  3  1  0
  3  4  1  0
  5  2  1  0
  5  7  1  0
  6  5  2  0
  8  7  1  0
  8 12  1  0
  8  9  1  6
 10  9  1  0
 11 10  2  0
 12 19  1  0
 13 12  2  0
 14 10  1  0
 16 15  1  1
 16 17  1  0
 18 20  1  0
 18 16  1  0
 18 19  1  6
 20 22  1  0
 21 20  2  0
M  END
$$$$
