CDV.pdb
     RDKit          3D

 22 21  0  0  1  0  0  0  0  0999 V2000
    7.9840  -15.0811   17.9334 N   0  0  0  0  0  0  0  0  0  0  0  0
    8.4386  -14.2228   19.0013 C   0  0  1  0  0  0  0  0  0  0  0  0
    7.7998  -12.8641   18.9542 C   0  0  0  0  0  0  0  0  0  0  0  0
    8.3502  -11.9392   20.4178 S   0  0  0  0  0  0  0  0  0  0  0  0
    8.0578  -14.8599   20.2937 C   0  0  0  0  0  0  0  0  0  0  0  0
    6.9533  -15.4915   20.3015 O   0  0  0  0  0  0  0  0  0  0  0  0
    8.8520  -14.7837   21.4516 N   0  0  0  0  0  0  0  0  0  0  0  0
    8.4732  -15.5868   22.6191 C   0  0  1  0  0  0  0  0  0  0  0  0
    9.1160  -16.9354   22.5605 C   0  0  0  0  0  0  0  0  0  0  0  0
    8.9016  -17.8115   23.7092 C   0  0  0  0  0  0  0  0  0  0  0  0
    7.8492  -17.8431   24.3664 O   0  0  0  0  0  0  0  0  0  0  0  0
    8.8694  -14.8488   23.8528 C   0  0  0  0  0  0  0  0  0  0  0  0
   10.0193  -14.5110   24.1151 O   0  0  0  0  0  0  0  0  0  0  0  0
    9.9260  -18.6669   24.1038 O   0  0  0  0  0  0  0  0  0  0  0  0
    7.1308  -11.5653   25.7602 C   0  0  0  0  0  0  0  0  0  0  0  0
    7.2256  -12.8471   26.5891 C   0  0  1  0  0  0  0  0  0  0  0  0
    5.8840  -13.4386   26.8671 C   0  0  0  0  0  0  0  0  0  0  0  0
    8.2163  -13.8076   26.0198 C   0  0  2  0  0  0  0  0  0  0  0  0
    7.8929  -14.4780   24.8401 N   0  0  0  0  0  0  0  0  0  0  0  0
    8.5274  -14.7977   27.0859 C   0  0  0  0  0  0  0  0  0  0  0  0
    8.2067  -16.0088   26.9994 O   0  0  0  0  0  0  0  0  0  0  0  0
    9.1957  -14.3873   28.2251 O   0  0  0  0  0  0  0  0  0  0  0  0
  2  1  1  6
  2  3  1  0
  3  4  1  0
  5  2  1  0
  5  7  1  0
  6  5  2  0
  8  7  1  0
  8 12  1  0
  8  9  1  6
 10  9  1  0
 11 10  2  0
 12 19  1  0
 13 12  2  0
 14 10  1  0
 16 15  1  6
 16 17  1  0
 18 20  1  0
 18 16  1  0
 18 19  1  6
 20 22  1  0
 21 20  2  0
M  END
$$$$
