CDV.pdb
     RDKit          3D

 22 21  0  0  1  0  0  0  0  0999 V2000
    7.3639  -15.1917   18.8372 N   0  0  0  0  0  0  0  0  0  0  0  0
    8.1594  -14.4321   19.7723 C   0  0  1  0  0  0  0  0  0  0  0  0
    7.6141  -13.0506   19.9968 C   0  0  0  0  0  0  0  0  0  0  0  0
    8.1488  -12.0086   18.6080 S   0  0  0  0  0  0  0  0  0  0  0  0
    8.1366  -15.1481   21.0792 C   0  0  0  0  0  0  0  0  0  0  0  0
    6.9892  -15.4924   21.5080 O   0  0  0  0  0  0  0  0  0  0  0  0
    9.2981  -15.4390   21.8165 N   0  0  0  0  0  0  0  0  0  0  0  0
    9.1615  -16.1415   23.0969 C   0  0  1  0  0  0  0  0  0  0  0  0
   10.0952  -17.3076   23.1589 C   0  0  0  0  0  0  0  0  0  0  0  0
    9.9416  -18.3232   22.1207 C   0  0  0  0  0  0  0  0  0  0  0  0
    8.9617  -19.0800   22.0349 O   0  0  0  0  0  0  0  0  0  0  0  0
    9.4256  -15.1742   24.2007 C   0  0  0  0  0  0  0  0  0  0  0  0
   10.4055  -14.4378   24.2527 O   0  0  0  0  0  0  0  0  0  0  0  0
   10.9424  -18.4644   21.1639 O   0  0  0  0  0  0  0  0  0  0  0  0
    7.8933  -11.9477   25.5665 C   0  0  0  0  0  0  0  0  0  0  0  0
    7.7432  -13.0690   26.5957 C   0  0  1  0  0  0  0  0  0  0  0  0
    6.3289  -13.5260   26.7286 C   0  0  0  0  0  0  0  0  0  0  0  0
    8.7274  -14.1685   26.3703 C   0  0  2  0  0  0  0  0  0  0  0  0
    8.5158  -15.0446   25.3057 N   0  0  0  0  0  0  0  0  0  0  0  0
    8.8190  -14.9398   27.6393 C   0  0  0  0  0  0  0  0  0  0  0  0
    8.4703  -16.1430   27.7268 O   0  0  0  0  0  0  0  0  0  0  0  0
    9.3051  -14.3247   28.7787 O   0  0  0  0  0  0  0  0  0  0  0  0
  2  1  1  6
  2  3  1  0
  3  4  1  0
  5  2  1  0
  5  7  1  0
  6  5  2  0
  8  7  1  0
  8 12  1  0
  8  9  1  6
 10  9  1  0
 11 10  2  0
 12 19  1  0
 13 12  2  0
 14 10  1  0
 16 15  1  6
 16 17  1  0
 18 20  1  0
 18 16  1  0
 18 19  1  6
 20 22  1  0
 21 20  2  0
M  END
$$$$
