CDV.pdb
     RDKit          3D

 22 21  0  0  1  0  0  0  0  0999 V2000
    6.8835  -15.5530   19.2890 N   0  0  0  0  0  0  0  0  0  0  0  0
    7.8296  -14.7916   20.0694 C   0  0  1  0  0  0  0  0  0  0  0  0
    7.3008  -13.4372   20.4469 C   0  0  0  0  0  0  0  0  0  0  0  0
    8.5569  -12.6145   21.4695 S   0  0  0  0  0  0  0  0  0  0  0  0
    8.0941  -15.5437   21.3285 C   0  0  0  0  0  0  0  0  0  0  0  0
    7.0868  -16.1046   21.8666 O   0  0  0  0  0  0  0  0  0  0  0  0
    9.3704  -15.6443   21.9101 N   0  0  0  0  0  0  0  0  0  0  0  0
    9.5334  -16.4698   23.1116 C   0  0  1  0  0  0  0  0  0  0  0  0
   10.5677  -17.5260   22.8873 C   0  0  0  0  0  0  0  0  0  0  0  0
   10.8783  -18.3878   24.0248 C   0  0  0  0  0  0  0  0  0  0  0  0
   10.0174  -18.9287   24.7364 O   0  0  0  0  0  0  0  0  0  0  0  0
    9.9010  -15.5823   24.2522 C   0  0  0  0  0  0  0  0  0  0  0  0
   10.8748  -14.8362   24.2595 O   0  0  0  0  0  0  0  0  0  0  0  0
   12.2117  -18.6270   24.3435 O   0  0  0  0  0  0  0  0  0  0  0  0
    8.7009  -12.9140   28.1592 C   0  0  0  0  0  0  0  0  0  0  0  0
    8.2483  -13.8276   27.0193 C   0  0  1  0  0  0  0  0  0  0  0  0
    7.5108  -13.0812   25.9582 C   0  0  0  0  0  0  0  0  0  0  0  0
    9.3634  -14.6799   26.5111 C   0  0  2  0  0  0  0  0  0  0  0  0
    9.1080  -15.5490   25.4505 N   0  0  0  0  0  0  0  0  0  0  0  0
    9.8880  -15.4502   27.6709 C   0  0  0  0  0  0  0  0  0  0  0  0
    9.7222  -16.6892   27.7914 O   0  0  0  0  0  0  0  0  0  0  0  0
   10.5887  -14.7936   28.6662 O   0  0  0  0  0  0  0  0  0  0  0  0
  2  1  1  6
  2  3  1  0
  3  4  1  0
  5  2  1  0
  5  7  1  0
  6  5  2  0
  8  7  1  0
  8 12  1  0
  8  9  1  6
 10  9  1  0
 11 10  2  0
 12 19  1  0
 13 12  2  0
 14 10  1  0
 16 15  1  1
 16 17  1  0
 18 20  1  0
 18 16  1  0
 18 19  1  6
 20 22  1  0
 21 20  2  0
M  END
$$$$
