CDV.pdb
     RDKit          3D

 22 21  0  0  1  0  0  0  0  0999 V2000
    7.9624  -14.6314   17.7643 N   0  0  0  0  0  0  0  0  0  0  0  0
    8.9185  -14.5322   18.8412 C   0  0  1  0  0  0  0  0  0  0  0  0
    9.2771  -13.1084   19.1583 C   0  0  0  0  0  0  0  0  0  0  0  0
    7.8110  -12.3120   19.8772 S   0  0  0  0  0  0  0  0  0  0  0  0
    8.2989  -15.1272   20.0591 C   0  0  0  0  0  0  0  0  0  0  0  0
    7.2683  -15.8480   19.8666 O   0  0  0  0  0  0  0  0  0  0  0  0
    8.8016  -14.9212   21.3561 N   0  0  0  0  0  0  0  0  0  0  0  0
    8.4858  -15.9043   22.3978 C   0  0  1  0  0  0  0  0  0  0  0  0
    9.1527  -17.2106   22.1074 C   0  0  0  0  0  0  0  0  0  0  0  0
    9.0274  -18.2487   23.1270 C   0  0  0  0  0  0  0  0  0  0  0  0
    8.1283  -18.2714   23.9823 O   0  0  0  0  0  0  0  0  0  0  0  0
    8.9160  -15.3554   23.7160 C   0  0  0  0  0  0  0  0  0  0  0  0
   10.0661  -15.0210   23.9816 O   0  0  0  0  0  0  0  0  0  0  0  0
    9.9616  -19.2798   23.1561 O   0  0  0  0  0  0  0  0  0  0  0  0
    7.3341  -12.4028   27.3023 C   0  0  0  0  0  0  0  0  0  0  0  0
    6.9855  -13.3726   26.1722 C   0  0  1  0  0  0  0  0  0  0  0  0
    6.3429  -12.6823   25.0158 C   0  0  0  0  0  0  0  0  0  0  0  0
    8.1428  -14.2412   25.8057 C   0  0  2  0  0  0  0  0  0  0  0  0
    7.9752  -15.1807   24.7884 N   0  0  0  0  0  0  0  0  0  0  0  0
    8.5852  -14.9276   27.0494 C   0  0  0  0  0  0  0  0  0  0  0  0
    8.2945  -16.1226   27.3032 O   0  0  0  0  0  0  0  0  0  0  0  0
    9.3477  -14.2388   27.9752 O   0  0  0  0  0  0  0  0  0  0  0  0
  2  1  1  6
  2  3  1  0
  3  4  1  0
  5  2  1  0
  5  7  1  0
  6  5  2  0
  8  7  1  0
  8 12  1  0
  8  9  1  6
 10  9  1  0
 11 10  2  0
 12 19  1  0
 13 12  2  0
 14 10  1  0
 16 15  1  1
 16 17  1  0
 18 20  1  0
 18 16  1  0
 18 19  1  6
 20 22  1  0
 21 20  2  0
M  END
$$$$
