CDV.pdb
     RDKit          3D

 22 21  0  0  1  0  0  0  0  0999 V2000
    7.0868  -15.5592   18.7238 N   0  0  0  0  0  0  0  0  0  0  0  0
    7.9292  -14.7519   19.5738 C   0  0  1  0  0  0  0  0  0  0  0  0
    7.3747  -13.3717   19.7836 C   0  0  0  0  0  0  0  0  0  0  0  0
    8.4872  -12.4915   20.9185 S   0  0  0  0  0  0  0  0  0  0  0  0
    8.0078  -15.4176   20.9049 C   0  0  0  0  0  0  0  0  0  0  0  0
    6.8984  -15.7610   21.4245 O   0  0  0  0  0  0  0  0  0  0  0  0
    9.2217  -15.6642   21.5703 N   0  0  0  0  0  0  0  0  0  0  0  0
    9.1805  -16.2232   22.9258 C   0  0  1  0  0  0  0  0  0  0  0  0
   10.3020  -17.1907   23.1299 C   0  0  0  0  0  0  0  0  0  0  0  0
   10.3577  -18.3281   22.2155 C   0  0  0  0  0  0  0  0  0  0  0  0
    9.4760  -19.1985   22.1418 O   0  0  0  0  0  0  0  0  0  0  0  0
    9.2457  -15.1007   23.9054 C   0  0  0  0  0  0  0  0  0  0  0  0
   10.2010  -14.3394   24.0193 O   0  0  0  0  0  0  0  0  0  0  0  0
   11.4559  -18.4594   21.3707 O   0  0  0  0  0  0  0  0  0  0  0  0
    7.0902  -11.9732   27.0636 C   0  0  0  0  0  0  0  0  0  0  0  0
    6.8873  -13.1230   26.0757 C   0  0  1  0  0  0  0  0  0  0  0  0
    6.0841  -12.7099   24.8878 C   0  0  0  0  0  0  0  0  0  0  0  0
    8.1722  -13.8062   25.7433 C   0  0  2  0  0  0  0  0  0  0  0  0
    8.1553  -14.8372   24.8039 N   0  0  0  0  0  0  0  0  0  0  0  0
    8.7443  -14.3071   27.0222 C   0  0  0  0  0  0  0  0  0  0  0  0
    9.0657  -13.5428   27.9653 O   0  0  0  0  0  0  0  0  0  0  0  0
    8.9374  -15.6652   27.1983 O   0  0  0  0  0  0  0  0  0  0  0  0
  2  1  1  6
  2  3  1  0
  3  4  1  0
  5  2  1  0
  5  7  1  0
  6  5  2  0
  8  7  1  0
  8 12  1  0
  8  9  1  1
 10  9  1  0
 11 10  2  0
 12 19  1  0
 13 12  2  0
 14 10  1  0
 16 15  1  6
 16 17  1  0
 18 20  1  0
 18 16  1  0
 18 19  1  6
 20 22  1  0
 21 20  2  0
M  END
$$$$
