CDV.pdb
     RDKit          3D

 22 21  0  0  1  0  0  0  0  0999 V2000
    8.2692  -13.8297   19.5157 N   0  0  0  0  0  0  0  0  0  0  0  0
    7.0645  -14.1453   20.2457 C   0  0  1  0  0  0  0  0  0  0  0  0
    6.1346  -15.0263   19.4612 C   0  0  0  0  0  0  0  0  0  0  0  0
    7.1129  -15.8711   18.1845 S   0  0  0  0  0  0  0  0  0  0  0  0
    7.4576  -14.8833   21.4795 C   0  0  0  0  0  0  0  0  0  0  0  0
    6.5067  -15.2274   22.2517 O   0  0  0  0  0  0  0  0  0  0  0  0
    8.7916  -15.1943   21.7969 N   0  0  0  0  0  0  0  0  0  0  0  0
    9.0659  -15.9450   23.0268 C   0  0  1  0  0  0  0  0  0  0  0  0
   10.2272  -16.8664   22.8324 C   0  0  0  0  0  0  0  0  0  0  0  0
   10.6670  -17.6190   24.0042 C   0  0  0  0  0  0  0  0  0  0  0  0
    9.9785  -17.7708   25.0256 O   0  0  0  0  0  0  0  0  0  0  0  0
    9.3208  -14.9742   24.1298 C   0  0  0  0  0  0  0  0  0  0  0  0
   10.2627  -14.1885   24.1530 O   0  0  0  0  0  0  0  0  0  0  0  0
   11.9286  -18.2065   23.9923 O   0  0  0  0  0  0  0  0  0  0  0  0
    7.6703  -11.9029   25.4697 C   0  0  0  0  0  0  0  0  0  0  0  0
    7.6659  -12.9474   26.5869 C   0  0  1  0  0  0  0  0  0  0  0  0
    6.2896  -13.4325   26.8990 C   0  0  0  0  0  0  0  0  0  0  0  0
    8.6604  -14.0328   26.3397 C   0  0  2  0  0  0  0  0  0  0  0  0
    8.4473  -14.9009   25.2688 N   0  0  0  0  0  0  0  0  0  0  0  0
    8.7752  -14.8155   27.5998 C   0  0  0  0  0  0  0  0  0  0  0  0
    8.4680  -16.0310   27.6721 O   0  0  0  0  0  0  0  0  0  0  0  0
    9.2365  -14.1976   28.7479 O   0  0  0  0  0  0  0  0  0  0  0  0
  2  1  1  6
  2  3  1  0
  3  4  1  0
  5  2  1  0
  5  7  1  0
  6  5  2  0
  8  7  1  0
  8 12  1  0
  8  9  1  6
 10  9  1  0
 11 10  2  0
 12 19  1  0
 13 12  2  0
 14 10  1  0
 16 15  1  6
 16 17  1  0
 18 20  1  0
 18 16  1  0
 18 19  1  6
 20 22  1  0
 21 20  2  0
M  END
$$$$
