CDV.pdb
     RDKit          3D

 22 21  0  0  1  0  0  0  0  0999 V2000
    7.3177  -15.1168   18.9501 N   0  0  0  0  0  0  0  0  0  0  0  0
    8.3389  -14.5171   19.7755 C   0  0  1  0  0  0  0  0  0  0  0  0
    8.0672  -13.0670   20.0582 C   0  0  0  0  0  0  0  0  0  0  0  0
    8.4080  -12.1304   18.5393 S   0  0  0  0  0  0  0  0  0  0  0  0
    8.3558  -15.2393   21.0791 C   0  0  0  0  0  0  0  0  0  0  0  0
    7.2192  -15.5267   21.5736 O   0  0  0  0  0  0  0  0  0  0  0  0
    9.5419  -15.5944   21.7457 N   0  0  0  0  0  0  0  0  0  0  0  0
    9.4448  -16.3228   23.0152 C   0  0  1  0  0  0  0  0  0  0  0  0
   10.5513  -17.3212   23.1344 C   0  0  0  0  0  0  0  0  0  0  0  0
   10.8536  -18.1064   21.9406 C   0  0  0  0  0  0  0  0  0  0  0  0
   10.1335  -19.0243   21.5173 O   0  0  0  0  0  0  0  0  0  0  0  0
    9.4796  -15.3365   24.1332 C   0  0  0  0  0  0  0  0  0  0  0  0
   10.3836  -14.5261   24.3100 O   0  0  0  0  0  0  0  0  0  0  0  0
   12.0126  -17.8227   21.2241 O   0  0  0  0  0  0  0  0  0  0  0  0
    7.1967  -12.4761   27.3606 C   0  0  0  0  0  0  0  0  0  0  0  0
    7.0759  -13.5569   26.2852 C   0  0  1  0  0  0  0  0  0  0  0  0
    6.4850  -13.0295   25.0205 C   0  0  0  0  0  0  0  0  0  0  0  0
    8.3532  -14.3073   26.1025 C   0  0  2  0  0  0  0  0  0  0  0  0
    8.4194  -15.2768   25.1018 N   0  0  0  0  0  0  0  0  0  0  0  0
    8.6902  -14.9224   27.4147 C   0  0  0  0  0  0  0  0  0  0  0  0
    8.5942  -16.1561   27.6286 O   0  0  0  0  0  0  0  0  0  0  0  0
    9.1284  -14.1201   28.4525 O   0  0  0  0  0  0  0  0  0  0  0  0
  2  1  1  6
  2  3  1  0
  3  4  1  0
  5  2  1  0
  5  7  1  0
  6  5  2  0
  8  7  1  0
  8 12  1  0
  8  9  1  1
 10  9  1  0
 11 10  2  0
 12 19  1  0
 13 12  2  0
 14 10  1  0
 16 15  1  1
 16 17  1  0
 18 20  1  0
 18 16  1  0
 18 19  1  6
 20 22  1  0
 21 20  2  0
M  END
$$$$
