CDV.pdb
     RDKit          3D

 22 21  0  0  1  0  0  0  0  0999 V2000
    7.9488  -15.9771   19.4148 N   0  0  0  0  0  0  0  0  0  0  0  0
    8.4227  -15.1291   20.4825 C   0  0  1  0  0  0  0  0  0  0  0  0
    7.5369  -13.9357   20.7009 C   0  0  0  0  0  0  0  0  0  0  0  0
    8.2622  -12.9413   22.0372 S   0  0  0  0  0  0  0  0  0  0  0  0
    8.4224  -15.9317   21.7384 C   0  0  0  0  0  0  0  0  0  0  0  0
    7.7840  -17.0316   21.6986 O   0  0  0  0  0  0  0  0  0  0  0  0
    9.0795  -15.5224   22.9122 N   0  0  0  0  0  0  0  0  0  0  0  0
    9.6395  -16.5476   23.7993 C   0  0  1  0  0  0  0  0  0  0  0  0
   10.5222  -17.4802   23.0336 C   0  0  0  0  0  0  0  0  0  0  0  0
   11.1488  -18.5583   23.7939 C   0  0  0  0  0  0  0  0  0  0  0  0
   10.5145  -19.4589   24.3657 O   0  0  0  0  0  0  0  0  0  0  0  0
   10.3872  -15.8697   24.8972 C   0  0  0  0  0  0  0  0  0  0  0  0
   11.3271  -15.1016   24.7195 O   0  0  0  0  0  0  0  0  0  0  0  0
   12.5365  -18.5933   23.8936 O   0  0  0  0  0  0  0  0  0  0  0  0
    9.1987  -13.1998   26.6634 C   0  0  0  0  0  0  0  0  0  0  0  0
    9.5625  -14.1730   27.7856 C   0  0  1  0  0  0  0  0  0  0  0  0
    8.3592  -14.6569   28.5238 C   0  0  0  0  0  0  0  0  0  0  0  0
   10.4713  -15.2577   27.3106 C   0  0  2  0  0  0  0  0  0  0  0  0
   10.0375  -16.0848   26.2745 N   0  0  0  0  0  0  0  0  0  0  0  0
   10.8199  -16.0862   28.4963 C   0  0  0  0  0  0  0  0  0  0  0  0
   11.3636  -15.6060   29.5214 O   0  0  0  0  0  0  0  0  0  0  0  0
   10.5421  -17.4410   28.4883 O   0  0  0  0  0  0  0  0  0  0  0  0
  2  1  1  6
  2  3  1  0
  3  4  1  0
  5  2  1  0
  5  7  1  0
  6  5  2  0
  8  7  1  0
  8 12  1  0
  8  9  1  6
 10  9  1  0
 11 10  2  0
 12 19  1  0
 13 12  2  0
 14 10  1  0
 16 15  1  6
 16 17  1  0
 18 20  1  0
 18 16  1  0
 18 19  1  6
 20 22  1  0
 21 20  2  0
M  END
$$$$
