CDV.pdb
     RDKit          3D

 22 21  0  0  1  0  0  0  0  0999 V2000
    6.9482  -15.4279   19.4375 N   0  0  0  0  0  0  0  0  0  0  0  0
    8.0433  -14.7700   20.1096 C   0  0  1  0  0  0  0  0  0  0  0  0
    7.8384  -13.2858   20.2188 C   0  0  0  0  0  0  0  0  0  0  0  0
    8.1753  -12.5561   18.5896 S   0  0  0  0  0  0  0  0  0  0  0  0
    8.1283  -15.3203   21.4921 C   0  0  0  0  0  0  0  0  0  0  0  0
    7.0195  -15.5214   22.0827 O   0  0  0  0  0  0  0  0  0  0  0  0
    9.3473  -15.6093   22.1306 N   0  0  0  0  0  0  0  0  0  0  0  0
    9.3171  -16.2835   23.4330 C   0  0  1  0  0  0  0  0  0  0  0  0
   10.4055  -17.3047   23.5216 C   0  0  0  0  0  0  0  0  0  0  0  0
   10.1185  -18.6165   22.9474 C   0  0  0  0  0  0  0  0  0  0  0  0
    9.0390  -18.9148   22.4125 O   0  0  0  0  0  0  0  0  0  0  0  0
    9.4485  -15.2545   24.5044 C   0  0  0  0  0  0  0  0  0  0  0  0
   10.4412  -14.5525   24.6683 O   0  0  0  0  0  0  0  0  0  0  0  0
   11.1008  -19.6013   22.9941 O   0  0  0  0  0  0  0  0  0  0  0  0
    7.4891  -12.3055   27.9471 C   0  0  0  0  0  0  0  0  0  0  0  0
    7.2240  -13.3283   26.8415 C   0  0  1  0  0  0  0  0  0  0  0  0
    6.4865  -12.7333   25.6887 C   0  0  0  0  0  0  0  0  0  0  0  0
    8.4606  -14.0739   26.4630 C   0  0  2  0  0  0  0  0  0  0  0  0
    8.3827  -15.0179   25.4391 N   0  0  0  0  0  0  0  0  0  0  0  0
    8.9759  -14.7217   27.6994 C   0  0  0  0  0  0  0  0  0  0  0  0
    8.9853  -15.9675   27.8573 O   0  0  0  0  0  0  0  0  0  0  0  0
    9.4682  -13.9376   28.7268 O   0  0  0  0  0  0  0  0  0  0  0  0
  2  1  1  1
  2  3  1  0
  3  4  1  0
  5  2  1  0
  5  7  1  0
  6  5  2  0
  8  7  1  0
  8 12  1  0
  8  9  1  6
 10  9  1  0
 11 10  2  0
 12 19  1  0
 13 12  2  0
 14 10  1  0
 16 15  1  1
 16 17  1  0
 18 20  1  0
 18 16  1  0
 18 19  1  6
 20 22  1  0
 21 20  2  0
M  END
$$$$
