CDV.pdb
     RDKit          3D

 22 21  0  0  1  0  0  0  0  0999 V2000
    7.4211  -15.2643   18.7838 N   0  0  0  0  0  0  0  0  0  0  0  0
    8.2871  -14.5392   19.6828 C   0  0  1  0  0  0  0  0  0  0  0  0
    7.8208  -13.1301   19.9137 C   0  0  0  0  0  0  0  0  0  0  0  0
    8.3537  -12.1281   18.4950 S   0  0  0  0  0  0  0  0  0  0  0  0
    8.2751  -15.2432   20.9964 C   0  0  0  0  0  0  0  0  0  0  0  0
    7.1277  -15.5139   21.4750 O   0  0  0  0  0  0  0  0  0  0  0  0
    9.4463  -15.5992   21.6883 N   0  0  0  0  0  0  0  0  0  0  0  0
    9.3206  -16.2880   22.9772 C   0  0  1  0  0  0  0  0  0  0  0  0
   10.3593  -17.3556   23.1063 C   0  0  0  0  0  0  0  0  0  0  0  0
   10.3411  -18.4100   22.0958 C   0  0  0  0  0  0  0  0  0  0  0  0
   11.1181  -18.4531   21.1290 O   0  0  0  0  0  0  0  0  0  0  0  0
    9.4392  -15.2793   24.0691 C   0  0  0  0  0  0  0  0  0  0  0  0
   10.4002  -14.5308   24.2152 O   0  0  0  0  0  0  0  0  0  0  0  0
    9.4048  -19.4335   22.2078 O   0  0  0  0  0  0  0  0  0  0  0  0
    7.3951  -12.2779   27.3617 C   0  0  0  0  0  0  0  0  0  0  0  0
    7.1785  -13.3594   26.3022 C   0  0  1  0  0  0  0  0  0  0  0  0
    6.5149  -12.8235   25.0777 C   0  0  0  0  0  0  0  0  0  0  0  0
    8.4241  -14.1381   26.0372 C   0  0  2  0  0  0  0  0  0  0  0  0
    8.3982  -15.1204   25.0472 N   0  0  0  0  0  0  0  0  0  0  0  0
    8.8436  -14.7445   27.3295 C   0  0  0  0  0  0  0  0  0  0  0  0
    8.8192  -15.9830   27.5356 O   0  0  0  0  0  0  0  0  0  0  0  0
    9.2808  -13.9283   28.3568 O   0  0  0  0  0  0  0  0  0  0  0  0
  2  1  1  6
  2  3  1  0
  3  4  1  0
  5  2  1  0
  5  7  1  0
  6  5  2  0
  8  7  1  0
  8 12  1  0
  8  9  1  1
 10  9  1  0
 11 10  2  0
 12 19  1  0
 13 12  2  0
 14 10  1  0
 16 15  1  1
 16 17  1  0
 18 20  1  0
 18 16  1  0
 18 19  1  6
 20 22  1  0
 21 20  2  0
M  END
$$$$
