WNH.pdb
     RDKit          3D

 33 35  0  0  1  0  0  0  0  0999 V2000
   22.9839   -8.0206  -18.0810 N   0  0  0  0  0  0  0  0  0  0  0  0
   21.8545   -8.4020  -17.2837 C   0  0  1  0  0  0  0  0  0  0  0  0
   21.0586   -7.2718  -16.7403 C   0  0  0  0  0  0  0  0  0  0  0  0
   21.5175   -6.7574  -15.4365 C   0  0  0  0  0  0  0  0  0  0  0  0
   22.1972   -5.5512  -15.2232 C   0  0  0  0  0  0  0  0  0  0  0  0
   22.4632   -5.4315  -13.9183 N   0  0  0  0  0  0  0  0  0  0  0  0
   21.9890   -6.5131  -13.2336 C   0  0  0  0  0  0  0  0  0  0  0  0
   22.0132   -6.8438  -11.8898 C   0  0  0  0  0  0  0  0  0  0  0  0
   21.4446   -8.0161  -11.4541 C   0  0  0  0  0  0  0  0  0  0  0  0
   20.8579   -8.8381  -12.3902 C   0  0  0  0  0  0  0  0  0  0  0  0
   20.8353   -8.5062  -13.7286 C   0  0  0  0  0  0  0  0  0  0  0  0
   21.4091   -7.3195  -14.1860 C   0  0  0  0  0  0  0  0  0  0  0  0
   21.0178   -9.4384  -17.9388 C   0  0  0  0  0  0  0  0  0  0  0  0
   20.7519   -9.2851  -19.1568 O   0  0  0  0  0  0  0  0  0  0  0  0
   21.8500  -12.4210  -19.5139 N   0  0  0  0  0  0  0  0  0  0  0  0
   21.5220  -13.3073  -18.4075 C   0  0  0  0  0  0  0  0  0  0  0  0
   22.2271  -14.3264  -18.2760 O   0  0  0  0  0  0  0  0  0  0  0  0
   20.4075  -12.9167  -17.5685 C   0  0  0  0  0  0  0  0  0  0  0  0
   19.7335  -11.6336  -17.9273 C   0  0  2  0  0  0  0  0  0  0  0  0
   20.5350  -10.5410  -17.2585 N   0  0  0  0  0  0  0  0  0  0  0  0
   18.3777  -11.5000  -17.3463 C   0  0  0  0  0  0  0  0  0  0  0  0
   18.2660  -11.2352  -16.0920 O   0  0  0  0  0  0  0  0  0  0  0  0
   17.1554  -11.6266  -18.0277 N   0  0  0  0  0  0  0  0  0  0  0  0
   15.8744  -11.5951  -17.2839 C   0  0  1  0  0  0  0  0  0  0  0  0
   14.8445  -11.1597  -18.3000 C   0  0  0  0  0  0  0  0  0  0  0  0
   13.5181  -11.0904  -17.6540 C   0  0  0  0  0  0  0  0  0  0  0  0
   13.2122  -10.6417  -16.3838 C   0  0  0  0  0  0  0  0  0  0  0  0
   11.8796  -10.7859  -16.2292 N   0  0  0  0  0  0  0  0  0  0  0  0
   11.3490  -11.3019  -17.3419 C   0  0  0  0  0  0  0  0  0  0  0  0
   12.3433  -11.4905  -18.2158 N   0  0  0  0  0  0  0  0  0  0  0  0
   15.5724  -12.9609  -16.8054 C   0  0  0  0  0  0  0  0  0  0  0  0
   15.0882  -13.2306  -15.5476 O   0  0  0  0  0  0  0  0  0  0  0  0
   15.7703  -13.9516  -17.5939 O   0  0  0  0  0  0  0  0  0  0  0  0
  2  1  1  6
  3  2  1  0
  4  3  1  0
  4  5  2  0
  6  5  1  0
  7  6  1  0
  8  7  2  0
  9  8  1  0
 10  9  2  0
 10 11  1  0
 11 12  2  0
 12  7  1  0
 12  4  1  0
 13 14  2  0
 13  2  1  0
 16 18  1  0
 16 15  1  0
 17 16  2  0
 19 18  1  1
 19 20  1  0
 20 13  1  0
 21 19  1  0
 22 21  2  0
 23 21  1  0
 24 23  1  0
 25 26  1  0
 24 25  1  6
 26 27  2  0
 28 27  1  0
 29 28  1  0
 30 29  2  0
 30 26  1  0
 31 24  1  0
 31 32  1  0
 33 31  2  0
M  END
$$$$
