WNH.pdb
     RDKit          3D

 33 35  0  0  1  0  0  0  0  0999 V2000
   27.4857  -19.5899  -11.5459 N   0  0  0  0  0  0  0  0  0  0  0  0
   26.6408  -20.7406  -11.4093 C   0  0  1  0  0  0  0  0  0  0  0  0
   25.9505  -20.8614  -10.0998 C   0  0  0  0  0  0  0  0  0  0  0  0
   26.7021  -20.3277   -8.9484 C   0  0  0  0  0  0  0  0  0  0  0  0
   26.2125  -19.4243   -7.9962 C   0  0  0  0  0  0  0  0  0  0  0  0
   27.1830  -19.1584   -7.1158 N   0  0  0  0  0  0  0  0  0  0  0  0
   28.3174  -19.8484   -7.4332 C   0  0  0  0  0  0  0  0  0  0  0  0
   29.5638  -19.9098   -6.8348 C   0  0  0  0  0  0  0  0  0  0  0  0
   30.5491  -20.7068   -7.3654 C   0  0  0  0  0  0  0  0  0  0  0  0
   30.2548  -21.4321   -8.4983 C   0  0  0  0  0  0  0  0  0  0  0  0
   29.0118  -21.3691   -9.0926 C   0  0  0  0  0  0  0  0  0  0  0  0
   28.0017  -20.5638   -8.5655 C   0  0  0  0  0  0  0  0  0  0  0  0
   25.7265  -20.9172  -12.5653 C   0  0  0  0  0  0  0  0  0  0  0  0
   25.5698  -19.9380  -13.3362 O   0  0  0  0  0  0  0  0  0  0  0  0
   26.2316  -23.3977  -15.5524 N   0  0  0  0  0  0  0  0  0  0  0  0
   25.2233  -24.3379  -15.0872 C   0  0  0  0  0  0  0  0  0  0  0  0
   25.3521  -25.5239  -15.4476 O   0  0  0  0  0  0  0  0  0  0  0  0
   24.1689  -23.8013  -14.2511 C   0  0  0  0  0  0  0  0  0  0  0  0
   24.1947  -22.3252  -14.0282 C   0  0  2  0  0  0  0  0  0  0  0  0
   25.0588  -22.1033  -12.8085 N   0  0  0  0  0  0  0  0  0  0  0  0
   22.8769  -21.7654  -13.6490 C   0  0  0  0  0  0  0  0  0  0  0  0
   22.3727  -22.0883  -12.5100 O   0  0  0  0  0  0  0  0  0  0  0  0
   22.0866  -20.8876  -14.4100 N   0  0  0  0  0  0  0  0  0  0  0  0
   20.7982  -20.3849  -13.8783 C   0  0  1  0  0  0  0  0  0  0  0  0
   20.4577  -19.1941  -14.7436 C   0  0  0  0  0  0  0  0  0  0  0  0
   20.0839  -18.0539  -13.8825 C   0  0  0  0  0  0  0  0  0  0  0  0
   19.9410  -18.0356  -12.5086 C   0  0  0  0  0  0  0  0  0  0  0  0
   19.5696  -16.7830  -12.1713 N   0  0  0  0  0  0  0  0  0  0  0  0
   19.4761  -16.0283  -13.2702 C   0  0  0  0  0  0  0  0  0  0  0  0
   19.7885  -16.7975  -14.3185 N   0  0  0  0  0  0  0  0  0  0  0  0
   19.7763  -21.4410  -14.0397 C   0  0  0  0  0  0  0  0  0  0  0  0
   18.6882  -21.5720  -13.2102 O   0  0  0  0  0  0  0  0  0  0  0  0
   19.9023  -22.2839  -14.9967 O   0  0  0  0  0  0  0  0  0  0  0  0
  2  1  1  6
  3  2  1  0
  4  3  1  0
  4  5  2  0
  6  5  1  0
  7  6  1  0
  8  7  2  0
  9  8  1  0
 10  9  2  0
 10 11  1  0
 11 12  2  0
 12  7  1  0
 12  4  1  0
 13 14  2  0
 13  2  1  0
 16 18  1  0
 16 15  1  0
 17 16  2  0
 19 18  1  1
 19 20  1  0
 20 13  1  0
 21 19  1  0
 22 21  2  0
 23 21  1  0
 24 23  1  0
 25 26  1  0
 24 25  1  6
 26 27  2  0
 28 27  1  0
 29 28  1  0
 30 29  2  0
 30 26  1  0
 31 24  1  0
 31 32  1  0
 33 31  2  0
M  END
$$$$
