WNH.pdb
     RDKit          3D

 33 35  0  0  1  0  0  0  0  0999 V2000
   26.0678  -18.9309  -10.5857 N   0  0  0  0  0  0  0  0  0  0  0  0
   26.1637  -20.0671  -11.4554 C   0  0  1  0  0  0  0  0  0  0  0  0
   26.6068  -21.3242  -10.8002 C   0  0  0  0  0  0  0  0  0  0  0  0
   27.5343  -21.1425   -9.6680 C   0  0  0  0  0  0  0  0  0  0  0  0
   27.1956  -20.6521   -8.4002 C   0  0  0  0  0  0  0  0  0  0  0  0
   28.2981  -20.6133   -7.6447 N   0  0  0  0  0  0  0  0  0  0  0  0
   29.3770  -21.0600   -8.3518 C   0  0  0  0  0  0  0  0  0  0  0  0
   30.7103  -21.2114   -8.0126 C   0  0  0  0  0  0  0  0  0  0  0  0
   31.6079  -21.7002   -8.9306 C   0  0  0  0  0  0  0  0  0  0  0  0
   31.1388  -22.0295  -10.1827 C   0  0  0  0  0  0  0  0  0  0  0  0
   29.8097  -21.8776  -10.5180 C   0  0  0  0  0  0  0  0  0  0  0  0
   28.8867  -21.3819   -9.5966 C   0  0  0  0  0  0  0  0  0  0  0  0
   24.9527  -20.2465  -12.2950 C   0  0  0  0  0  0  0  0  0  0  0  0
   23.8428  -19.9597  -11.7816 O   0  0  0  0  0  0  0  0  0  0  0  0
   25.5576  -17.2121  -16.8342 N   0  0  0  0  0  0  0  0  0  0  0  0
   25.3109  -17.8240  -15.5373 C   0  0  0  0  0  0  0  0  0  0  0  0
   24.9968  -17.0585  -14.6054 O   0  0  0  0  0  0  0  0  0  0  0  0
   25.4553  -19.2633  -15.4582 C   0  0  0  0  0  0  0  0  0  0  0  0
   24.3601  -19.9956  -14.7556 C   0  0  2  0  0  0  0  0  0  0  0  0
   25.0143  -20.7105  -13.5961 N   0  0  0  0  0  0  0  0  0  0  0  0
   23.7660  -21.0829  -15.5670 C   0  0  0  0  0  0  0  0  0  0  0  0
   23.5048  -20.8573  -16.8066 O   0  0  0  0  0  0  0  0  0  0  0  0
   23.4482  -22.3799  -15.1297 N   0  0  0  0  0  0  0  0  0  0  0  0
   22.2460  -22.6179  -14.2969 C   0  0  1  0  0  0  0  0  0  0  0  0
   22.2832  -21.5375  -13.2414 C   0  0  0  0  0  0  0  0  0  0  0  0
   21.2003  -21.7700  -12.2642 C   0  0  0  0  0  0  0  0  0  0  0  0
   20.2643  -22.7859  -12.2566 C   0  0  0  0  0  0  0  0  0  0  0  0
   19.4691  -22.5761  -11.1869 N   0  0  0  0  0  0  0  0  0  0  0  0
   19.8690  -21.4801  -10.5350 C   0  0  0  0  0  0  0  0  0  0  0  0
   20.9252  -20.9829  -11.1870 N   0  0  0  0  0  0  0  0  0  0  0  0
   21.0453  -22.4608  -15.1449 C   0  0  0  0  0  0  0  0  0  0  0  0
   20.7114  -21.2834  -15.7705 O   0  0  0  0  0  0  0  0  0  0  0  0
   20.2679  -23.4660  -15.3104 O   0  0  0  0  0  0  0  0  0  0  0  0
  2  1  1  1
  3  2  1  0
  4  3  1  0
  4  5  2  0
  6  5  1  0
  7  6  1  0
  8  7  2  0
  9  8  1  0
 10  9  2  0
 10 11  1  0
 11 12  2  0
 12  7  1  0
 12  4  1  0
 13 14  2  0
 13  2  1  0
 16 18  1  0
 16 15  1  0
 17 16  2  0
 19 18  1  6
 19 20  1  0
 20 13  1  0
 21 19  1  0
 22 21  2  0
 23 21  1  0
 24 23  1  0
 25 26  1  0
 24 25  1  1
 26 27  2  0
 28 27  1  0
 29 28  1  0
 30 29  2  0
 30 26  1  0
 31 24  1  0
 31 32  1  0
 33 31  2  0
M  END
$$$$
