WNH.pdb
     RDKit          3D

 33 35  0  0  1  0  0  0  0  0999 V2000
   26.7030  -19.6208  -11.8174 N   0  0  0  0  0  0  0  0  0  0  0  0
   26.2166  -20.9682  -11.7496 C   0  0  1  0  0  0  0  0  0  0  0  0
   25.8556  -21.4380  -10.3876 C   0  0  0  0  0  0  0  0  0  0  0  0
   26.7439  -20.9639   -9.3099 C   0  0  0  0  0  0  0  0  0  0  0  0
   26.3588  -20.1815   -8.2135 C   0  0  0  0  0  0  0  0  0  0  0  0
   27.4358  -19.9358   -7.4602 N   0  0  0  0  0  0  0  0  0  0  0  0
   28.5421  -20.5229   -8.0035 C   0  0  0  0  0  0  0  0  0  0  0  0
   29.8653  -20.5601   -7.5996 C   0  0  0  0  0  0  0  0  0  0  0  0
   30.7977  -21.2437   -8.3417 C   0  0  0  0  0  0  0  0  0  0  0  0
   30.3731  -21.8817   -9.4858 C   0  0  0  0  0  0  0  0  0  0  0  0
   29.0538  -21.8429   -9.8860 C   0  0  0  0  0  0  0  0  0  0  0  0
   28.0959  -21.1523   -9.1430 C   0  0  0  0  0  0  0  0  0  0  0  0
   25.1620  -21.2452  -12.7570 C   0  0  0  0  0  0  0  0  0  0  0  0
   24.4846  -20.2717  -13.1707 O   0  0  0  0  0  0  0  0  0  0  0  0
   26.0341  -25.6716  -15.6214 N   0  0  0  0  0  0  0  0  0  0  0  0
   25.3188  -24.4089  -15.7262 C   0  0  0  0  0  0  0  0  0  0  0  0
   25.7094  -23.6128  -16.6019 O   0  0  0  0  0  0  0  0  0  0  0  0
   24.2232  -24.2024  -14.8012 C   0  0  0  0  0  0  0  0  0  0  0  0
   23.9698  -22.7900  -14.3882 C   0  0  2  0  0  0  0  0  0  0  0  0
   24.9126  -22.5168  -13.2392 N   0  0  0  0  0  0  0  0  0  0  0  0
   22.6215  -22.5794  -13.8125 C   0  0  0  0  0  0  0  0  0  0  0  0
   22.2980  -23.2209  -12.7450 O   0  0  0  0  0  0  0  0  0  0  0  0
   21.6203  -21.7273  -14.3080 N   0  0  0  0  0  0  0  0  0  0  0  0
   20.3067  -21.6376  -13.6285 C   0  0  1  0  0  0  0  0  0  0  0  0
   19.7176  -20.3254  -14.0909 C   0  0  0  0  0  0  0  0  0  0  0  0
   18.3689  -20.1627  -13.5111 C   0  0  0  0  0  0  0  0  0  0  0  0
   17.7383  -20.9686  -12.5832 C   0  0  0  0  0  0  0  0  0  0  0  0
   16.5159  -20.4379  -12.3718 N   0  0  0  0  0  0  0  0  0  0  0  0
   16.3619  -19.3444  -13.1245 C   0  0  0  0  0  0  0  0  0  0  0  0
   17.4890  -19.1704  -13.8227 N   0  0  0  0  0  0  0  0  0  0  0  0
   19.4624  -22.7632  -14.0820 C   0  0  0  0  0  0  0  0  0  0  0  0
   19.4792  -23.2497  -15.3674 O   0  0  0  0  0  0  0  0  0  0  0  0
   18.6692  -23.3199  -13.2434 O   0  0  0  0  0  0  0  0  0  0  0  0
  2  1  1  1
  3  2  1  0
  4  3  1  0
  4  5  2  0
  6  5  1  0
  7  6  1  0
  8  7  2  0
  9  8  1  0
 10  9  2  0
 10 11  1  0
 11 12  2  0
 12  7  1  0
 12  4  1  0
 13 14  2  0
 13  2  1  0
 16 18  1  0
 16 15  1  0
 17 16  2  0
 19 18  1  1
 19 20  1  0
 20 13  1  0
 21 19  1  0
 22 21  2  0
 23 21  1  0
 24 23  1  0
 25 26  1  0
 24 25  1  6
 26 27  2  0
 28 27  1  0
 29 28  1  0
 30 29  2  0
 30 26  1  0
 31 24  1  0
 31 32  1  0
 33 31  2  0
M  END
$$$$
