WNH.pdb
     RDKit          3D

 33 35  0  0  1  0  0  0  0  0999 V2000
   26.6992  -22.2583  -10.5740 N   0  0  0  0  0  0  0  0  0  0  0  0
   26.0637  -21.0049  -10.2879 C   0  0  1  0  0  0  0  0  0  0  0  0
   26.9816  -19.9180   -9.8614 C   0  0  0  0  0  0  0  0  0  0  0  0
   28.0242  -20.3249   -8.9008 C   0  0  0  0  0  0  0  0  0  0  0  0
   29.1942  -21.0308   -9.2095 C   0  0  0  0  0  0  0  0  0  0  0  0
   29.8855  -21.2325   -8.0829 N   0  0  0  0  0  0  0  0  0  0  0  0
   29.2290  -20.6890   -7.0165 C   0  0  0  0  0  0  0  0  0  0  0  0
   29.5367  -20.6328   -5.6682 C   0  0  0  0  0  0  0  0  0  0  0  0
   28.6879  -20.0052   -4.7890 C   0  0  0  0  0  0  0  0  0  0  0  0
   27.5362  -19.4419   -5.2915 C   0  0  0  0  0  0  0  0  0  0  0  0
   27.2320  -19.4994   -6.6355 C   0  0  0  0  0  0  0  0  0  0  0  0
   28.0840  -20.1338   -7.5401 C   0  0  0  0  0  0  0  0  0  0  0  0
   25.1246  -20.5843  -11.3578 C   0  0  0  0  0  0  0  0  0  0  0  0
   24.4971  -19.5093  -11.1896 O   0  0  0  0  0  0  0  0  0  0  0  0
   27.2257  -21.3634  -15.1800 N   0  0  0  0  0  0  0  0  0  0  0  0
   26.0455  -20.5183  -15.0797 C   0  0  0  0  0  0  0  0  0  0  0  0
   26.2270  -19.2879  -15.1590 O   0  0  0  0  0  0  0  0  0  0  0  0
   24.7759  -21.1917  -14.8970 C   0  0  0  0  0  0  0  0  0  0  0  0
   24.0377  -20.8715  -13.6392 C   0  0  2  0  0  0  0  0  0  0  0  0
   24.9276  -21.3283  -12.5065 N   0  0  0  0  0  0  0  0  0  0  0  0
   22.7962  -21.6612  -13.4697 C   0  0  0  0  0  0  0  0  0  0  0  0
   22.8570  -22.9412  -13.5865 O   0  0  0  0  0  0  0  0  0  0  0  0
   21.5155  -21.1611  -13.1801 N   0  0  0  0  0  0  0  0  0  0  0  0
   20.5641  -21.9573  -12.3699 C   0  0  1  0  0  0  0  0  0  0  0  0
   21.2371  -22.1197  -11.0270 C   0  0  0  0  0  0  0  0  0  0  0  0
   20.3745  -22.9281  -10.1415 C   0  0  0  0  0  0  0  0  0  0  0  0
   19.1014  -23.4011  -10.3937 C   0  0  0  0  0  0  0  0  0  0  0  0
   18.7070  -24.0684   -9.2892 N   0  0  0  0  0  0  0  0  0  0  0  0
   19.6747  -24.0294   -8.3683 C   0  0  0  0  0  0  0  0  0  0  0  0
   20.6955  -23.3348   -8.8816 N   0  0  0  0  0  0  0  0  0  0  0  0
   19.3105  -21.1878  -12.2219 C   0  0  0  0  0  0  0  0  0  0  0  0
   18.0720  -21.7747  -12.1178 O   0  0  0  0  0  0  0  0  0  0  0  0
   19.3692  -19.9080  -12.1902 O   0  0  0  0  0  0  0  0  0  0  0  0
  2  1  1  6
  3  2  1  0
  4  3  1  0
  4  5  2  0
  6  5  1  0
  7  6  1  0
  8  7  2  0
  9  8  1  0
 10  9  2  0
 10 11  1  0
 11 12  2  0
 12  7  1  0
 12  4  1  0
 13 14  2  0
 13  2  1  0
 16 18  1  0
 16 15  1  0
 17 16  2  0
 19 18  1  6
 19 20  1  0
 20 13  1  0
 21 19  1  0
 22 21  2  0
 23 21  1  0
 24 23  1  0
 25 26  1  0
 24 25  1  1
 26 27  2  0
 28 27  1  0
 29 28  1  0
 30 29  2  0
 30 26  1  0
 31 24  1  0
 31 32  1  0
 33 31  2  0
M  END
$$$$
