WNH.pdb
     RDKit          3D

 33 35  0  0  1  0  0  0  0  0999 V2000
   21.4293  -31.6670  -11.4548 N   0  0  0  0  0  0  0  0  0  0  0  0
   22.3801  -31.1379  -10.5206 C   0  0  1  0  0  0  0  0  0  0  0  0
   21.9152  -29.9543   -9.7532 C   0  0  0  0  0  0  0  0  0  0  0  0
   21.3248  -28.8765  -10.5687 C   0  0  0  0  0  0  0  0  0  0  0  0
   21.8702  -28.3439  -11.7441 C   0  0  0  0  0  0  0  0  0  0  0  0
   21.0650  -27.3750  -12.1921 N   0  0  0  0  0  0  0  0  0  0  0  0
   19.9894  -27.2277  -11.3645 C   0  0  0  0  0  0  0  0  0  0  0  0
   18.8975  -26.3782  -11.4047 C   0  0  0  0  0  0  0  0  0  0  0  0
   17.9325  -26.4429  -10.4290 C   0  0  0  0  0  0  0  0  0  0  0  0
   18.0895  -27.3710   -9.4239 C   0  0  0  0  0  0  0  0  0  0  0  0
   19.1786  -28.2163   -9.3862 C   0  0  0  0  0  0  0  0  0  0  0  0
   20.1667  -28.1618  -10.3697 C   0  0  0  0  0  0  0  0  0  0  0  0
   22.9790  -32.1885   -9.6597 C   0  0  0  0  0  0  0  0  0  0  0  0
   22.2107  -33.0687   -9.1986 O   0  0  0  0  0  0  0  0  0  0  0  0
   26.5414  -35.5668   -7.9542 N   0  0  0  0  0  0  0  0  0  0  0  0
   27.1491  -34.6428   -8.8997 C   0  0  0  0  0  0  0  0  0  0  0  0
   28.2858  -34.9346   -9.3190 O   0  0  0  0  0  0  0  0  0  0  0  0
   26.3718  -33.4745   -9.2598 C   0  0  0  0  0  0  0  0  0  0  0  0
   24.9932  -33.4022   -8.6908 C   0  0  2  0  0  0  0  0  0  0  0  0
   24.3283  -32.2213   -9.3595 N   0  0  0  0  0  0  0  0  0  0  0  0
   24.9700  -33.0660   -7.2486 C   0  0  0  0  0  0  0  0  0  0  0  0
   25.4472  -31.9324   -6.8703 O   0  0  0  0  0  0  0  0  0  0  0  0
   24.4653  -33.8640   -6.2080 N   0  0  0  0  0  0  0  0  0  0  0  0
   24.6245  -33.4450   -4.7957 C   0  0  1  0  0  0  0  0  0  0  0  0
   23.7621  -34.4017   -4.0060 C   0  0  0  0  0  0  0  0  0  0  0  0
   22.4001  -33.8441   -3.8810 C   0  0  0  0  0  0  0  0  0  0  0  0
   21.9412  -32.6139   -4.3104 C   0  0  0  0  0  0  0  0  0  0  0  0
   20.6404  -32.5384   -3.9600 N   0  0  0  0  0  0  0  0  0  0  0  0
   20.2751  -33.6618   -3.3350 C   0  0  0  0  0  0  0  0  0  0  0  0
   21.3442  -34.4633   -3.2831 N   0  0  0  0  0  0  0  0  0  0  0  0
   26.0436  -33.6038   -4.4131 C   0  0  0  0  0  0  0  0  0  0  0  0
   26.6303  -32.9084   -3.3828 O   0  0  0  0  0  0  0  0  0  0  0  0
   26.7740  -34.4270   -5.0696 O   0  0  0  0  0  0  0  0  0  0  0  0
  2  1  1  1
  3  2  1  0
  4  3  1  0
  4  5  2  0
  6  5  1  0
  7  6  1  0
  8  7  2  0
  9  8  1  0
 10  9  2  0
 10 11  1  0
 11 12  2  0
 12  7  1  0
 12  4  1  0
 13 14  2  0
 13  2  1  0
 16 18  1  0
 16 15  1  0
 17 16  2  0
 19 18  1  6
 19 20  1  0
 20 13  1  0
 21 19  1  0
 22 21  2  0
 23 21  1  0
 24 23  1  0
 25 26  1  0
 24 25  1  1
 26 27  2  0
 28 27  1  0
 29 28  1  0
 30 29  2  0
 30 26  1  0
 31 24  1  0
 31 32  1  0
 33 31  2  0
M  END
$$$$
