WNH.pdb
     RDKit          3D

 33 35  0  0  1  0  0  0  0  0999 V2000
   12.9136  -16.7698    4.3729 N   0  0  0  0  0  0  0  0  0  0  0  0
   14.3255  -17.0048    4.2840 C   0  0  1  0  0  0  0  0  0  0  0  0
   15.0648  -16.0646    3.4034 C   0  0  0  0  0  0  0  0  0  0  0  0
   16.1082  -16.6858    2.5663 C   0  0  0  0  0  0  0  0  0  0  0  0
   16.0956  -17.9993    2.0794 C   0  0  0  0  0  0  0  0  0  0  0  0
   17.2130  -18.2084    1.3754 N   0  0  0  0  0  0  0  0  0  0  0  0
   17.9874  -17.0842    1.3645 C   0  0  0  0  0  0  0  0  0  0  0  0
   19.2099  -16.8056    0.7784 C   0  0  0  0  0  0  0  0  0  0  0  0
   19.7791  -15.5632    0.9191 C   0  0  0  0  0  0  0  0  0  0  0  0
   19.0981  -14.6187    1.6542 C   0  0  0  0  0  0  0  0  0  0  0  0
   17.8801  -14.8990    2.2373 C   0  0  0  0  0  0  0  0  0  0  0  0
   17.2900  -16.1563    2.1035 C   0  0  0  0  0  0  0  0  0  0  0  0
   14.9605  -17.1733    5.6151 C   0  0  0  0  0  0  0  0  0  0  0  0
   14.6287  -16.3704    6.5223 O   0  0  0  0  0  0  0  0  0  0  0  0
   15.1292  -20.4267    8.2946 N   0  0  0  0  0  0  0  0  0  0  0  0
   16.4343  -20.7651    7.7475 C   0  0  0  0  0  0  0  0  0  0  0  0
   16.7742  -21.9628    7.8049 O   0  0  0  0  0  0  0  0  0  0  0  0
   17.2094  -19.6754    7.1903 C   0  0  0  0  0  0  0  0  0  0  0  0
   16.5632  -18.3296    7.2161 C   0  0  2  0  0  0  0  0  0  0  0  0
   15.8857  -18.1674    5.8751 N   0  0  0  0  0  0  0  0  0  0  0  0
   17.5344  -17.2129    7.2723 C   0  0  0  0  0  0  0  0  0  0  0  0
   17.8991  -16.6548    6.1716 O   0  0  0  0  0  0  0  0  0  0  0  0
   18.1210  -16.6670    8.4264 N   0  0  0  0  0  0  0  0  0  0  0  0
   19.0400  -15.5091    8.3257 C   0  0  1  0  0  0  0  0  0  0  0  0
   18.1987  -14.3928    7.7523 C   0  0  0  0  0  0  0  0  0  0  0  0
   18.9955  -13.1498    7.7126 C   0  0  0  0  0  0  0  0  0  0  0  0
   20.3310  -12.9844    8.0248 C   0  0  0  0  0  0  0  0  0  0  0  0
   20.6110  -11.6747    7.8609 N   0  0  0  0  0  0  0  0  0  0  0  0
   19.5132  -11.0245    7.4634 C   0  0  0  0  0  0  0  0  0  0  0  0
   18.5232  -11.9186    7.3709 N   0  0  0  0  0  0  0  0  0  0  0  0
   19.5018  -15.1529    9.6841 C   0  0  0  0  0  0  0  0  0  0  0  0
   19.1446  -15.8539   10.8112 O   0  0  0  0  0  0  0  0  0  0  0  0
   20.2729  -14.1399    9.8307 O   0  0  0  0  0  0  0  0  0  0  0  0
  2  1  1  1
  3  2  1  0
  4  3  1  0
  4  5  2  0
  6  5  1  0
  7  6  1  0
  8  7  2  0
  9  8  1  0
 10  9  2  0
 10 11  1  0
 11 12  2  0
 12  7  1  0
 12  4  1  0
 13 14  2  0
 13  2  1  0
 16 18  1  0
 16 15  1  0
 17 16  2  0
 19 18  1  6
 19 20  1  0
 20 13  1  0
 21 19  1  0
 22 21  2  0
 23 21  1  0
 24 23  1  0
 25 26  1  0
 24 25  1  1
 26 27  2  0
 28 27  1  0
 29 28  1  0
 30 29  2  0
 30 26  1  0
 31 24  1  0
 31 32  1  0
 33 31  2  0
M  END
$$$$
