WNH.pdb
     RDKit          3D

 33 35  0  0  1  0  0  0  0  0999 V2000
   21.7290  -29.7717  -15.3104 N   0  0  0  0  0  0  0  0  0  0  0  0
   21.2733  -28.6423  -14.5532 C   0  0  1  0  0  0  0  0  0  0  0  0
   20.3385  -27.7395  -15.2723 C   0  0  0  0  0  0  0  0  0  0  0  0
   20.8505  -27.1999  -16.5459 C   0  0  0  0  0  0  0  0  0  0  0  0
   21.8781  -26.2578  -16.6841 C   0  0  0  0  0  0  0  0  0  0  0  0
   22.0535  -25.9995  -17.9842 N   0  0  0  0  0  0  0  0  0  0  0  0
   21.1824  -26.7319  -18.7380 C   0  0  0  0  0  0  0  0  0  0  0  0
   20.9824  -26.8162  -20.1050 C   0  0  0  0  0  0  0  0  0  0  0  0
   20.0224  -27.6563  -20.6147 C   0  0  0  0  0  0  0  0  0  0  0  0
   19.2771  -28.4010  -19.7280 C   0  0  0  0  0  0  0  0  0  0  0  0
   19.4783  -28.3150  -18.3663 C   0  0  0  0  0  0  0  0  0  0  0  0
   20.4491  -27.4659  -17.8341 C   0  0  0  0  0  0  0  0  0  0  0  0
   20.7902  -29.0195  -13.2012 C   0  0  0  0  0  0  0  0  0  0  0  0
   19.7059  -29.6491  -13.1271 O   0  0  0  0  0  0  0  0  0  0  0  0
   21.7336  -31.2496   -9.1183 N   0  0  0  0  0  0  0  0  0  0  0  0
   22.5575  -30.0592   -8.9716 C   0  0  0  0  0  0  0  0  0  0  0  0
   23.5163  -30.1337   -8.1789 O   0  0  0  0  0  0  0  0  0  0  0  0
   22.1808  -28.9050   -9.7619 C   0  0  0  0  0  0  0  0  0  0  0  0
   21.0077  -29.0841  -10.6679 C   0  0  2  0  0  0  0  0  0  0  0  0
   21.4866  -28.7026  -12.0495 N   0  0  0  0  0  0  0  0  0  0  0  0
   19.9018  -28.1387  -10.3906 C   0  0  0  0  0  0  0  0  0  0  0  0
   19.7421  -27.1281  -11.1709 O   0  0  0  0  0  0  0  0  0  0  0  0
   18.9694  -28.2207   -9.3427 N   0  0  0  0  0  0  0  0  0  0  0  0
   17.5187  -28.0958   -9.6170 C   0  0  1  0  0  0  0  0  0  0  0  0
   17.2624  -29.0183  -10.7857 C   0  0  0  0  0  0  0  0  0  0  0  0
   15.8319  -28.9622  -11.1494 C   0  0  0  0  0  0  0  0  0  0  0  0
   14.9265  -27.9519  -10.8894 C   0  0  0  0  0  0  0  0  0  0  0  0
   13.7398  -28.3524  -11.3914 N   0  0  0  0  0  0  0  0  0  0  0  0
   13.8694  -29.5605  -11.9477 C   0  0  0  0  0  0  0  0  0  0  0  0
   15.1437  -29.9390  -11.8037 N   0  0  0  0  0  0  0  0  0  0  0  0
   16.7716  -28.5592   -8.4285 C   0  0  0  0  0  0  0  0  0  0  0  0
   17.0819  -29.7092   -7.7426 O   0  0  0  0  0  0  0  0  0  0  0  0
   15.7811  -27.8627   -8.0088 O   0  0  0  0  0  0  0  0  0  0  0  0
  2  1  1  6
  3  2  1  0
  4  3  1  0
  4  5  2  0
  6  5  1  0
  7  6  1  0
  8  7  2  0
  9  8  1  0
 10  9  2  0
 10 11  1  0
 11 12  2  0
 12  7  1  0
 12  4  1  0
 13 14  2  0
 13  2  1  0
 16 18  1  0
 16 15  1  0
 17 16  2  0
 19 18  1  1
 19 20  1  0
 20 13  1  0
 21 19  1  0
 22 21  2  0
 23 21  1  0
 24 23  1  0
 25 26  1  0
 24 25  1  6
 26 27  2  0
 28 27  1  0
 29 28  1  0
 30 29  2  0
 30 26  1  0
 31 24  1  0
 31 32  1  0
 33 31  2  0
M  END
$$$$
