WNH.pdb
     RDKit          3D

 33 35  0  0  1  0  0  0  0  0999 V2000
   26.1751  -22.1688  -11.5431 N   0  0  0  0  0  0  0  0  0  0  0  0
   25.4029  -20.9613  -11.5921 C   0  0  1  0  0  0  0  0  0  0  0  0
   26.1606  -19.7465  -11.9873 C   0  0  0  0  0  0  0  0  0  0  0  0
   26.9404  -19.8770  -13.2324 C   0  0  0  0  0  0  0  0  0  0  0  0
   27.6239  -21.0240  -13.6563 C   0  0  0  0  0  0  0  0  0  0  0  0
   28.2274  -20.7604  -14.8200 N   0  0  0  0  0  0  0  0  0  0  0  0
   27.9797  -19.4744  -15.2054 C   0  0  0  0  0  0  0  0  0  0  0  0
   28.3712  -18.7470  -16.3158 C   0  0  0  0  0  0  0  0  0  0  0  0
   27.9681  -17.4425  -16.4676 C   0  0  0  0  0  0  0  0  0  0  0  0
   27.1712  -16.8932  -15.4880 C   0  0  0  0  0  0  0  0  0  0  0  0
   26.7825  -17.6203  -14.3824 C   0  0  0  0  0  0  0  0  0  0  0  0
   27.1846  -18.9457  -14.2144 C   0  0  0  0  0  0  0  0  0  0  0  0
   24.1354  -21.1252  -12.3470 C   0  0  0  0  0  0  0  0  0  0  0  0
   23.8874  -22.2598  -12.8255 O   0  0  0  0  0  0  0  0  0  0  0  0
   19.1535  -20.8098  -12.6544 N   0  0  0  0  0  0  0  0  0  0  0  0
   19.6062  -19.4819  -12.2687 C   0  0  0  0  0  0  0  0  0  0  0  0
   18.7436  -18.7025  -11.8198 O   0  0  0  0  0  0  0  0  0  0  0  0
   21.0157  -19.1976  -12.4452 C   0  0  0  0  0  0  0  0  0  0  0  0
   21.8362  -20.2914  -13.0451 C   0  0  2  0  0  0  0  0  0  0  0  0
   23.2428  -20.0857  -12.5327 N   0  0  0  0  0  0  0  0  0  0  0  0
   21.9649  -20.1892  -14.5170 C   0  0  0  0  0  0  0  0  0  0  0  0
   20.9425  -20.4657  -15.2477 O   0  0  0  0  0  0  0  0  0  0  0  0
   23.1102  -19.8066  -15.2356 N   0  0  0  0  0  0  0  0  0  0  0  0
   23.1198  -19.8592  -16.7163 C   0  0  1  0  0  0  0  0  0  0  0  0
   24.2225  -18.9138  -17.1325 C   0  0  0  0  0  0  0  0  0  0  0  0
   23.7650  -17.5204  -16.9573 C   0  0  0  0  0  0  0  0  0  0  0  0
   23.8349  -16.7380  -15.8210 C   0  0  0  0  0  0  0  0  0  0  0  0
   23.2764  -15.5493  -16.1305 N   0  0  0  0  0  0  0  0  0  0  0  0
   22.8652  -15.5609  -17.4020 C   0  0  0  0  0  0  0  0  0  0  0  0
   23.1600  -16.7610  -17.9129 N   0  0  0  0  0  0  0  0  0  0  0  0
   23.4448  -21.2383  -17.1379 C   0  0  0  0  0  0  0  0  0  0  0  0
   23.0965  -21.7555  -18.3628 O   0  0  0  0  0  0  0  0  0  0  0  0
   24.0815  -22.0001  -16.3275 O   0  0  0  0  0  0  0  0  0  0  0  0
  2  1  1  6
  3  2  1  0
  4  3  1  0
  4  5  2  0
  6  5  1  0
  7  6  1  0
  8  7  2  0
  9  8  1  0
 10  9  2  0
 10 11  1  0
 11 12  2  0
 12  7  1  0
 12  4  1  0
 13 14  2  0
 13  2  1  0
 16 18  1  0
 16 15  1  0
 17 16  2  0
 19 18  1  1
 19 20  1  0
 20 13  1  0
 21 19  1  0
 22 21  2  0
 23 21  1  0
 24 23  1  0
 25 26  1  0
 24 25  1  6
 26 27  2  0
 28 27  1  0
 29 28  1  0
 30 29  2  0
 30 26  1  0
 31 24  1  0
 31 32  1  0
 33 31  2  0
M  END
$$$$
