WNH.pdb
     RDKit          3D

 33 35  0  0  1  0  0  0  0  0999 V2000
   26.5163  -20.6997  -12.4884 N   0  0  0  0  0  0  0  0  0  0  0  0
   25.5548  -21.1984  -11.5484 C   0  0  1  0  0  0  0  0  0  0  0  0
   25.8628  -20.9135  -10.1236 C   0  0  0  0  0  0  0  0  0  0  0  0
   27.2811  -21.0695   -9.7502 C   0  0  0  0  0  0  0  0  0  0  0  0
   28.2454  -21.7864  -10.4706 C   0  0  0  0  0  0  0  0  0  0  0  0
   29.4100  -21.7179   -9.8173 N   0  0  0  0  0  0  0  0  0  0  0  0
   29.2749  -20.9795   -8.6771 C   0  0  0  0  0  0  0  0  0  0  0  0
   30.1771  -20.6244   -7.6895 C   0  0  0  0  0  0  0  0  0  0  0  0
   29.7744  -19.8506   -6.6282 C   0  0  0  0  0  0  0  0  0  0  0  0
   28.4586  -19.4470   -6.5840 C   0  0  0  0  0  0  0  0  0  0  0  0
   27.5615  -19.8024   -7.5694 C   0  0  0  0  0  0  0  0  0  0  0  0
   27.9558  -20.5882   -8.6528 C   0  0  0  0  0  0  0  0  0  0  0  0
   24.1603  -20.8517  -11.9207 C   0  0  0  0  0  0  0  0  0  0  0  0
   23.7733  -19.6787  -11.6927 O   0  0  0  0  0  0  0  0  0  0  0  0
   22.0117  -19.2839  -15.0456 N   0  0  0  0  0  0  0  0  0  0  0  0
   22.4351  -20.6743  -15.1137 C   0  0  0  0  0  0  0  0  0  0  0  0
   23.3862  -20.9353  -15.8754 O   0  0  0  0  0  0  0  0  0  0  0  0
   21.7082  -21.6176  -14.2888 C   0  0  0  0  0  0  0  0  0  0  0  0
   21.8542  -21.4476  -12.8126 C   0  0  2  0  0  0  0  0  0  0  0  0
   23.2976  -21.7653  -12.4976 N   0  0  0  0  0  0  0  0  0  0  0  0
   21.0824  -22.4389  -12.0281 C   0  0  0  0  0  0  0  0  0  0  0  0
   21.3362  -23.6897  -12.1920 O   0  0  0  0  0  0  0  0  0  0  0  0
   20.0743  -22.1655  -11.0883 N   0  0  0  0  0  0  0  0  0  0  0  0
   19.3303  -23.2720  -10.4420 C   0  0  1  0  0  0  0  0  0  0  0  0
   18.9056  -22.7239   -9.0996 C   0  0  0  0  0  0  0  0  0  0  0  0
   18.0863  -23.7316   -8.3962 C   0  0  0  0  0  0  0  0  0  0  0  0
   17.7321  -24.9943   -8.8303 C   0  0  0  0  0  0  0  0  0  0  0  0
   16.9639  -25.5383   -7.8635 N   0  0  0  0  0  0  0  0  0  0  0  0
   16.8269  -24.6724   -6.8549 C   0  0  0  0  0  0  0  0  0  0  0  0
   17.5093  -23.5674   -7.1732 N   0  0  0  0  0  0  0  0  0  0  0  0
   18.1419  -23.5853  -11.2636 C   0  0  0  0  0  0  0  0  0  0  0  0
   17.6646  -24.8614  -11.4451 O   0  0  0  0  0  0  0  0  0  0  0  0
   17.5186  -22.6268  -11.8423 O   0  0  0  0  0  0  0  0  0  0  0  0
  2  1  1  6
  3  2  1  0
  4  3  1  0
  4  5  2  0
  6  5  1  0
  7  6  1  0
  8  7  2  0
  9  8  1  0
 10  9  2  0
 10 11  1  0
 11 12  2  0
 12  7  1  0
 12  4  1  0
 13 14  2  0
 13  2  1  0
 16 18  1  0
 16 15  1  0
 17 16  2  0
 19 18  1  6
 19 20  1  0
 20 13  1  0
 21 19  1  0
 22 21  2  0
 23 21  1  0
 24 23  1  0
 25 26  1  0
 24 25  1  1
 26 27  2  0
 28 27  1  0
 29 28  1  0
 30 29  2  0
 30 26  1  0
 31 24  1  0
 31 32  1  0
 33 31  2  0
M  END
$$$$
