WNH.pdb
     RDKit          3D

 33 35  0  0  1  0  0  0  0  0999 V2000
   28.4153  -21.3168  -10.0736 N   0  0  0  0  0  0  0  0  0  0  0  0
   27.0230  -21.0499   -9.8570 C   0  0  1  0  0  0  0  0  0  0  0  0
   26.7343  -19.9973   -8.8496 C   0  0  0  0  0  0  0  0  0  0  0  0
   27.7249  -19.8879   -7.7623 C   0  0  0  0  0  0  0  0  0  0  0  0
   29.0200  -19.3674   -7.8813 C   0  0  0  0  0  0  0  0  0  0  0  0
   29.6271  -19.4471   -6.6926 N   0  0  0  0  0  0  0  0  0  0  0  0
   28.7922  -20.0033   -5.7668 C   0  0  0  0  0  0  0  0  0  0  0  0
   28.9552  -20.2855   -4.4217 C   0  0  0  0  0  0  0  0  0  0  0  0
   27.9306  -20.8526   -3.7032 C   0  0  0  0  0  0  0  0  0  0  0  0
   26.7523  -21.1257   -4.3614 C   0  0  0  0  0  0  0  0  0  0  0  0
   26.5926  -20.8435   -5.7019 C   0  0  0  0  0  0  0  0  0  0  0  0
   27.6243  -20.2683   -6.4445 C   0  0  0  0  0  0  0  0  0  0  0  0
   26.2747  -20.8599  -11.1248 C   0  0  0  0  0  0  0  0  0  0  0  0
   26.6052  -19.8923  -11.8544 O   0  0  0  0  0  0  0  0  0  0  0  0
   26.4612  -22.2747  -14.4563 N   0  0  0  0  0  0  0  0  0  0  0  0
   25.4142  -23.2529  -14.2031 C   0  0  0  0  0  0  0  0  0  0  0  0
   25.5773  -24.3889  -14.6889 O   0  0  0  0  0  0  0  0  0  0  0  0
   24.2855  -22.8085  -13.4112 C   0  0  0  0  0  0  0  0  0  0  0  0
   24.4256  -21.4720  -12.7603 C   0  0  2  0  0  0  0  0  0  0  0  0
   25.2480  -21.7005  -11.5133 N   0  0  0  0  0  0  0  0  0  0  0  0
   23.1437  -20.9264  -12.2577 C   0  0  0  0  0  0  0  0  0  0  0  0
   23.1414  -20.2775  -11.1465 O   0  0  0  0  0  0  0  0  0  0  0  0
   21.8860  -21.0317  -12.8754 N   0  0  0  0  0  0  0  0  0  0  0  0
   20.9615  -19.8741  -12.8982 C   0  0  1  0  0  0  0  0  0  0  0  0
   21.6874  -18.8113  -13.6896 C   0  0  0  0  0  0  0  0  0  0  0  0
   20.8959  -17.5644  -13.6761 C   0  0  0  0  0  0  0  0  0  0  0  0
   19.6683  -17.3417  -13.0831 C   0  0  0  0  0  0  0  0  0  0  0  0
   19.3308  -16.0633  -13.3522 N   0  0  0  0  0  0  0  0  0  0  0  0
   20.2903  -15.4872  -14.0827 C   0  0  0  0  0  0  0  0  0  0  0  0
   21.2487  -16.3976  -14.2843 N   0  0  0  0  0  0  0  0  0  0  0  0
   19.7220  -20.2732  -13.5982 C   0  0  0  0  0  0  0  0  0  0  0  0
   18.4691  -20.1439  -13.0482 O   0  0  0  0  0  0  0  0  0  0  0  0
   19.8082  -20.7680  -14.7772 O   0  0  0  0  0  0  0  0  0  0  0  0
  2  1  1  6
  3  2  1  0
  4  3  1  0
  4  5  2  0
  6  5  1  0
  7  6  1  0
  8  7  2  0
  9  8  1  0
 10  9  2  0
 10 11  1  0
 11 12  2  0
 12  7  1  0
 12  4  1  0
 13 14  2  0
 13  2  1  0
 16 18  1  0
 16 15  1  0
 17 16  2  0
 19 18  1  1
 19 20  1  0
 20 13  1  0
 21 19  1  0
 22 21  2  0
 23 21  1  0
 24 23  1  0
 25 26  1  0
 24 25  1  6
 26 27  2  0
 28 27  1  0
 29 28  1  0
 30 29  2  0
 30 26  1  0
 31 24  1  0
 31 32  1  0
 33 31  2  0
M  END
$$$$
