WNH.pdb
     RDKit          3D

 33 35  0  0  1  0  0  0  0  0999 V2000
   27.3093  -18.3917  -20.1607 N   0  0  0  0  0  0  0  0  0  0  0  0
   27.1357  -18.8194  -18.8029 C   0  0  1  0  0  0  0  0  0  0  0  0
   26.1909  -17.9998  -18.0019 C   0  0  0  0  0  0  0  0  0  0  0  0
   26.3922  -16.5421  -18.1019 C   0  0  0  0  0  0  0  0  0  0  0  0
   25.3851  -15.5849  -18.2806 C   0  0  0  0  0  0  0  0  0  0  0  0
   25.9481  -14.3736  -18.3417 N   0  0  0  0  0  0  0  0  0  0  0  0
   27.3035  -14.4703  -18.2108 C   0  0  0  0  0  0  0  0  0  0  0  0
   28.3051  -13.5152  -18.2032 C   0  0  0  0  0  0  0  0  0  0  0  0
   29.6177  -13.8884  -18.0444 C   0  0  0  0  0  0  0  0  0  0  0  0
   29.8959  -15.2288  -17.8948 C   0  0  0  0  0  0  0  0  0  0  0  0
   28.8959  -16.1784  -17.9028 C   0  0  0  0  0  0  0  0  0  0  0  0
   27.5586  -15.8145  -18.0637 C   0  0  0  0  0  0  0  0  0  0  0  0
   26.8762  -20.2768  -18.6928 C   0  0  0  0  0  0  0  0  0  0  0  0
   26.5683  -20.8925  -19.7434 O   0  0  0  0  0  0  0  0  0  0  0  0
   29.2906  -22.9678  -18.2476 N   0  0  0  0  0  0  0  0  0  0  0  0
   29.0456  -23.1937  -16.8313 C   0  0  0  0  0  0  0  0  0  0  0  0
   30.0109  -23.5907  -16.1504 O   0  0  0  0  0  0  0  0  0  0  0  0
   27.7028  -22.9346  -16.3532 C   0  0  0  0  0  0  0  0  0  0  0  0
   26.7265  -22.4447  -17.3712 C   0  0  2  0  0  0  0  0  0  0  0  0
   26.9625  -20.9570  -17.4921 N   0  0  0  0  0  0  0  0  0  0  0  0
   25.3160  -22.5564  -16.9335 C   0  0  0  0  0  0  0  0  0  0  0  0
   24.8273  -23.7266  -16.7154 O   0  0  0  0  0  0  0  0  0  0  0  0
   24.4180  -21.4982  -16.7145 N   0  0  0  0  0  0  0  0  0  0  0  0
   23.0111  -21.7728  -16.3393 C   0  0  1  0  0  0  0  0  0  0  0  0
   22.6770  -20.7346  -15.2938 C   0  0  0  0  0  0  0  0  0  0  0  0
   21.2294  -20.7792  -15.0044 C   0  0  0  0  0  0  0  0  0  0  0  0
   20.2616  -21.5494  -15.6196 C   0  0  0  0  0  0  0  0  0  0  0  0
   19.0854  -21.2377  -15.0364 N   0  0  0  0  0  0  0  0  0  0  0  0
   19.2809  -20.3126  -14.0919 C   0  0  0  0  0  0  0  0  0  0  0  0
   20.5871  -20.0279  -14.0669 N   0  0  0  0  0  0  0  0  0  0  0  0
   22.1589  -21.5867  -17.5329 C   0  0  0  0  0  0  0  0  0  0  0  0
   20.9191  -22.1632  -17.6729 O   0  0  0  0  0  0  0  0  0  0  0  0
   22.5886  -20.8545  -18.4929 O   0  0  0  0  0  0  0  0  0  0  0  0
  2  1  1  6
  3  2  1  0
  4  3  1  0
  4  5  2  0
  6  5  1  0
  7  6  1  0
  8  7  2  0
  9  8  1  0
 10  9  2  0
 10 11  1  0
 11 12  2  0
 12  7  1  0
 12  4  1  0
 13 14  2  0
 13  2  1  0
 16 18  1  0
 16 15  1  0
 17 16  2  0
 19 18  1  1
 19 20  1  0
 20 13  1  0
 21 19  1  0
 22 21  2  0
 23 21  1  0
 24 23  1  0
 25 26  1  0
 24 25  1  1
 26 27  2  0
 28 27  1  0
 29 28  1  0
 30 29  2  0
 30 26  1  0
 31 24  1  0
 31 32  1  0
 33 31  2  0
M  END
$$$$
