WNH.pdb
     RDKit          3D

 33 35  0  0  1  0  0  0  0  0999 V2000
   28.0532  -19.9782  -10.5122 N   0  0  0  0  0  0  0  0  0  0  0  0
   26.9495  -20.8631  -10.2764 C   0  0  1  0  0  0  0  0  0  0  0  0
   26.2674  -20.6825   -8.9695 C   0  0  0  0  0  0  0  0  0  0  0  0
   27.0511  -19.9548   -7.9537 C   0  0  0  0  0  0  0  0  0  0  0  0
   27.6328  -18.6908   -8.1164 C   0  0  0  0  0  0  0  0  0  0  0  0
   28.2759  -18.3646   -6.9904 N   0  0  0  0  0  0  0  0  0  0  0  0
   28.1535  -19.3609   -6.0651 C   0  0  0  0  0  0  0  0  0  0  0  0
   28.6273  -19.4884   -4.7710 C   0  0  0  0  0  0  0  0  0  0  0  0
   28.3482  -20.6165   -4.0385 C   0  0  0  0  0  0  0  0  0  0  0  0
   27.5901  -21.6018   -4.6309 C   0  0  0  0  0  0  0  0  0  0  0  0
   27.1191  -21.4722   -5.9207 C   0  0  0  0  0  0  0  0  0  0  0  0
   27.3951  -20.3326   -6.6769 C   0  0  0  0  0  0  0  0  0  0  0  0
   26.0055  -20.9148  -11.4209 C   0  0  0  0  0  0  0  0  0  0  0  0
   25.9625  -19.9174  -12.1832 O   0  0  0  0  0  0  0  0  0  0  0  0
   23.5417  -25.4382  -14.5945 N   0  0  0  0  0  0  0  0  0  0  0  0
   23.9517  -24.0426  -14.5567 C   0  0  0  0  0  0  0  0  0  0  0  0
   23.6588  -23.3440  -15.5463 O   0  0  0  0  0  0  0  0  0  0  0  0
   24.6604  -23.6038  -13.3719 C   0  0  0  0  0  0  0  0  0  0  0  0
   24.4249  -22.1906  -12.9515 C   0  0  2  0  0  0  0  0  0  0  0  0
   25.1919  -22.0063  -11.6626 N   0  0  0  0  0  0  0  0  0  0  0  0
   23.0176  -21.9147  -12.5818 C   0  0  0  0  0  0  0  0  0  0  0  0
   22.5825  -22.3365  -11.4466 O   0  0  0  0  0  0  0  0  0  0  0  0
   22.0690  -21.2168  -13.3482 N   0  0  0  0  0  0  0  0  0  0  0  0
   20.6507  -21.1655  -12.9226 C   0  0  1  0  0  0  0  0  0  0  0  0
   20.0189  -20.1094  -13.7990 C   0  0  0  0  0  0  0  0  0  0  0  0
   20.3633  -18.7707  -13.2785 C   0  0  0  0  0  0  0  0  0  0  0  0
   20.9957  -18.4558  -12.0914 C   0  0  0  0  0  0  0  0  0  0  0  0
   21.0753  -17.1099  -12.0366 N   0  0  0  0  0  0  0  0  0  0  0  0
   20.5224  -16.5798  -13.1317 C   0  0  0  0  0  0  0  0  0  0  0  0
   20.0856  -17.5877  -13.8942 N   0  0  0  0  0  0  0  0  0  0  0  0
   20.0311  -22.4821  -13.1839 C   0  0  0  0  0  0  0  0  0  0  0  0
   19.2861  -23.1644  -12.2520 O   0  0  0  0  0  0  0  0  0  0  0  0
   20.1920  -23.0253  -14.3334 O   0  0  0  0  0  0  0  0  0  0  0  0
  2  1  1  6
  3  2  1  0
  4  3  1  0
  4  5  2  0
  6  5  1  0
  7  6  1  0
  8  7  2  0
  9  8  1  0
 10  9  2  0
 10 11  1  0
 11 12  2  0
 12  7  1  0
 12  4  1  0
 13 14  2  0
 13  2  1  0
 16 18  1  0
 16 15  1  0
 17 16  2  0
 19 18  1  1
 19 20  1  0
 20 13  1  0
 21 19  1  0
 22 21  2  0
 23 21  1  0
 24 23  1  0
 25 26  1  0
 24 25  1  6
 26 27  2  0
 28 27  1  0
 29 28  1  0
 30 29  2  0
 30 26  1  0
 31 24  1  0
 31 32  1  0
 33 31  2  0
M  END
$$$$
