WNH.pdb
     RDKit          3D

 33 35  0  0  1  0  0  0  0  0999 V2000
   26.8874  -18.5416   -9.1571 N   0  0  0  0  0  0  0  0  0  0  0  0
   27.0087  -19.9159   -9.5487 C   0  0  1  0  0  0  0  0  0  0  0  0
   26.6254  -20.9024   -8.5067 C   0  0  0  0  0  0  0  0  0  0  0  0
   26.9056  -20.4840   -7.1204 C   0  0  0  0  0  0  0  0  0  0  0  0
   26.0106  -19.8299   -6.2638 C   0  0  0  0  0  0  0  0  0  0  0  0
   26.6222  -19.5978   -5.0977 N   0  0  0  0  0  0  0  0  0  0  0  0
   27.9025  -20.0705   -5.1280 C   0  0  0  0  0  0  0  0  0  0  0  0
   28.9129  -20.0736   -4.1821 C   0  0  0  0  0  0  0  0  0  0  0  0
   30.1334  -20.6330   -4.4731 C   0  0  0  0  0  0  0  0  0  0  0  0
   30.3118  -21.1829   -5.7229 C   0  0  0  0  0  0  0  0  0  0  0  0
   29.3034  -21.1784   -6.6637 C   0  0  0  0  0  0  0  0  0  0  0  0
   28.0590  -20.6135   -6.3827 C   0  0  0  0  0  0  0  0  0  0  0  0
   26.3822  -20.1909  -10.8660 C   0  0  0  0  0  0  0  0  0  0  0  0
   25.2270  -19.7394  -11.0649 O   0  0  0  0  0  0  0  0  0  0  0  0
   28.5734  -20.7535  -16.2880 N   0  0  0  0  0  0  0  0  0  0  0  0
   27.6341  -21.5389  -15.5020 C   0  0  0  0  0  0  0  0  0  0  0  0
   26.7858  -22.1978  -16.1340 O   0  0  0  0  0  0  0  0  0  0  0  0
   27.7782  -21.4766  -14.0618 C   0  0  0  0  0  0  0  0  0  0  0  0
   26.6856  -20.7777  -13.3221 C   0  0  2  0  0  0  0  0  0  0  0  0
   27.0223  -20.9144  -11.8553 N   0  0  0  0  0  0  0  0  0  0  0  0
   25.3678  -21.4398  -13.4578 C   0  0  0  0  0  0  0  0  0  0  0  0
   25.1409  -22.5099  -12.7801 O   0  0  0  0  0  0  0  0  0  0  0  0
   24.2954  -21.0197  -14.2627 N   0  0  0  0  0  0  0  0  0  0  0  0
   22.9279  -21.5365  -14.0212 C   0  0  1  0  0  0  0  0  0  0  0  0
   22.2432  -20.4620  -13.2092 C   0  0  0  0  0  0  0  0  0  0  0  0
   20.8299  -20.8347  -12.9966 C   0  0  0  0  0  0  0  0  0  0  0  0
   20.1999  -22.0151  -13.3402 C   0  0  0  0  0  0  0  0  0  0  0  0
   18.9086  -21.8909  -12.9690 N   0  0  0  0  0  0  0  0  0  0  0  0
   18.7118  -20.6913  -12.4136 C   0  0  0  0  0  0  0  0  0  0  0  0
   19.8802  -20.0412  -12.4273 N   0  0  0  0  0  0  0  0  0  0  0  0
   22.2486  -21.7017  -15.3237 C   0  0  0  0  0  0  0  0  0  0  0  0
   21.2405  -22.6107  -15.5397 O   0  0  0  0  0  0  0  0  0  0  0  0
   22.6111  -20.9670  -16.3092 O   0  0  0  0  0  0  0  0  0  0  0  0
  2  1  1  1
  3  2  1  0
  4  3  1  0
  4  5  2  0
  6  5  1  0
  7  6  1  0
  8  7  2  0
  9  8  1  0
 10  9  2  0
 10 11  1  0
 11 12  2  0
 12  7  1  0
 12  4  1  0
 13 14  2  0
 13  2  1  0
 16 18  1  0
 16 15  1  0
 17 16  2  0
 19 18  1  6
 19 20  1  0
 20 13  1  0
 21 19  1  0
 22 21  2  0
 23 21  1  0
 24 23  1  0
 25 26  1  0
 24 25  1  1
 26 27  2  0
 28 27  1  0
 29 28  1  0
 30 29  2  0
 30 26  1  0
 31 24  1  0
 31 32  1  0
 33 31  2  0
M  END
$$$$
