WNH.pdb
     RDKit          3D

 33 35  0  0  1  0  0  0  0  0999 V2000
   26.8196  -19.8187  -12.9252 N   0  0  0  0  0  0  0  0  0  0  0  0
   26.4464  -21.1999  -13.0233 C   0  0  1  0  0  0  0  0  0  0  0  0
   27.1944  -22.1181  -12.1270 C   0  0  0  0  0  0  0  0  0  0  0  0
   27.9292  -21.4573  -11.0321 C   0  0  0  0  0  0  0  0  0  0  0  0
   29.2794  -21.0845  -11.0576 C   0  0  0  0  0  0  0  0  0  0  0  0
   29.5951  -20.5290   -9.8830 N   0  0  0  0  0  0  0  0  0  0  0  0
   28.5083  -20.5093   -9.0571 C   0  0  0  0  0  0  0  0  0  0  0  0
   28.3323  -20.0411   -7.7666 C   0  0  0  0  0  0  0  0  0  0  0  0
   27.1062  -20.1389   -7.1548 C   0  0  0  0  0  0  0  0  0  0  0  0
   26.0733  -20.7116   -7.8629 C   0  0  0  0  0  0  0  0  0  0  0  0
   26.2514  -21.1774   -9.1487 C   0  0  0  0  0  0  0  0  0  0  0  0
   27.4909  -21.0855   -9.7827 C   0  0  0  0  0  0  0  0  0  0  0  0
   24.9767  -21.3993  -12.9618 C   0  0  0  0  0  0  0  0  0  0  0  0
   24.5565  -22.5708  -12.7929 O   0  0  0  0  0  0  0  0  0  0  0  0
   19.9104  -21.0926  -12.7008 N   0  0  0  0  0  0  0  0  0  0  0  0
   20.7429  -21.0239  -11.5094 C   0  0  0  0  0  0  0  0  0  0  0  0
   20.1722  -21.1936  -10.4146 O   0  0  0  0  0  0  0  0  0  0  0  0
   22.1533  -20.7645  -11.7145 C   0  0  0  0  0  0  0  0  0  0  0  0
   22.5835  -20.5545  -13.1288 C   0  0  2  0  0  0  0  0  0  0  0  0
   24.0805  -20.3534  -13.0832 N   0  0  0  0  0  0  0  0  0  0  0  0
   22.0641  -19.3000  -13.7204 C   0  0  0  0  0  0  0  0  0  0  0  0
   22.8425  -18.2772  -13.7824 O   0  0  0  0  0  0  0  0  0  0  0  0
   20.7785  -19.0885  -14.2464 N   0  0  0  0  0  0  0  0  0  0  0  0
   20.6054  -18.4501  -15.5722 C   0  0  1  0  0  0  0  0  0  0  0  0
   21.5645  -19.1793  -16.4839 C   0  0  0  0  0  0  0  0  0  0  0  0
   22.6515  -18.2632  -16.8847 C   0  0  0  0  0  0  0  0  0  0  0  0
   22.7864  -16.9209  -16.5878 C   0  0  0  0  0  0  0  0  0  0  0  0
   23.9220  -16.5014  -17.1837 N   0  0  0  0  0  0  0  0  0  0  0  0
   24.4935  -17.5195  -17.8339 C   0  0  0  0  0  0  0  0  0  0  0  0
   23.7235  -18.5981  -17.6558 N   0  0  0  0  0  0  0  0  0  0  0  0
   19.2132  -18.6639  -16.0213 C   0  0  0  0  0  0  0  0  0  0  0  0
   18.3515  -17.6370  -16.3249 O   0  0  0  0  0  0  0  0  0  0  0  0
   18.7761  -19.8632  -16.1348 O   0  0  0  0  0  0  0  0  0  0  0  0
  2  1  1  1
  3  2  1  0
  4  3  1  0
  4  5  2  0
  6  5  1  0
  7  6  1  0
  8  7  2  0
  9  8  1  0
 10  9  2  0
 10 11  1  0
 11 12  2  0
 12  7  1  0
 12  4  1  0
 13 14  2  0
 13  2  1  0
 16 18  1  0
 16 15  1  0
 17 16  2  0
 19 18  1  1
 19 20  1  0
 20 13  1  0
 21 19  1  0
 22 21  2  0
 23 21  1  0
 24 23  1  0
 25 26  1  0
 24 25  1  6
 26 27  2  0
 28 27  1  0
 29 28  1  0
 30 29  2  0
 30 26  1  0
 31 24  1  0
 31 32  1  0
 33 31  2  0
M  END
$$$$
