WNH.pdb
     RDKit          3D

 33 35  0  0  1  0  0  0  0  0999 V2000
   32.1789  -32.1211  -16.5256 N   0  0  0  0  0  0  0  0  0  0  0  0
   30.7634  -32.2338  -16.7268 C   0  0  1  0  0  0  0  0  0  0  0  0
   30.0717  -33.1766  -15.8111 C   0  0  0  0  0  0  0  0  0  0  0  0
   30.5506  -34.5701  -15.8746 C   0  0  0  0  0  0  0  0  0  0  0  0
   31.6145  -35.1067  -15.1379 C   0  0  0  0  0  0  0  0  0  0  0  0
   31.7647  -36.3926  -15.4724 N   0  0  0  0  0  0  0  0  0  0  0  0
   30.8410  -36.7525  -16.4109 C   0  0  0  0  0  0  0  0  0  0  0  0
   30.5923  -37.9518  -17.0555 C   0  0  0  0  0  0  0  0  0  0  0  0
   29.5739  -38.0478  -17.9726 C   0  0  0  0  0  0  0  0  0  0  0  0
   28.8204  -36.9228  -18.2231 C   0  0  0  0  0  0  0  0  0  0  0  0
   29.0704  -35.7290  -17.5794 C   0  0  0  0  0  0  0  0  0  0  0  0
   30.1014  -35.6162  -16.6462 C   0  0  0  0  0  0  0  0  0  0  0  0
   30.0927  -30.9123  -16.8134 C   0  0  0  0  0  0  0  0  0  0  0  0
   30.7742  -29.8959  -16.5301 O   0  0  0  0  0  0  0  0  0  0  0  0
   30.8147  -27.3291  -18.8617 N   0  0  0  0  0  0  0  0  0  0  0  0
   29.5718  -27.5656  -18.1432 C   0  0  0  0  0  0  0  0  0  0  0  0
   29.2469  -26.7188  -17.2886 O   0  0  0  0  0  0  0  0  0  0  0  0
   28.8352  -28.7631  -18.4928 C   0  0  0  0  0  0  0  0  0  0  0  0
   28.1025  -29.4325  -17.3773 C   0  0  2  0  0  0  0  0  0  0  0  0
   28.7689  -30.7756  -17.1883 N   0  0  0  0  0  0  0  0  0  0  0  0
   26.6988  -29.7652  -17.7128 C   0  0  0  0  0  0  0  0  0  0  0  0
   26.4452  -30.2905  -18.8598 O   0  0  0  0  0  0  0  0  0  0  0  0
   25.5718  -29.5740  -16.8958 N   0  0  0  0  0  0  0  0  0  0  0  0
   24.4084  -30.4861  -16.9959 C   0  0  1  0  0  0  0  0  0  0  0  0
   24.9215  -31.8254  -16.5210 C   0  0  0  0  0  0  0  0  0  0  0  0
   23.8026  -32.7882  -16.4693 C   0  0  0  0  0  0  0  0  0  0  0  0
   22.4889  -32.5483  -16.1158 C   0  0  0  0  0  0  0  0  0  0  0  0
   21.8410  -33.7292  -16.1967 N   0  0  0  0  0  0  0  0  0  0  0  0
   22.6913  -34.6853  -16.5823 C   0  0  0  0  0  0  0  0  0  0  0  0
   23.8905  -34.1182  -16.7505 N   0  0  0  0  0  0  0  0  0  0  0  0
   23.3459  -29.9975  -16.0915 C   0  0  0  0  0  0  0  0  0  0  0  0
   23.5084  -28.9275  -15.2443 O   0  0  0  0  0  0  0  0  0  0  0  0
   22.2126  -30.5957  -16.0871 O   0  0  0  0  0  0  0  0  0  0  0  0
  2  1  1  1
  3  2  1  0
  4  3  1  0
  4  5  2  0
  6  5  1  0
  7  6  1  0
  8  7  2  0
  9  8  1  0
 10  9  2  0
 10 11  1  0
 11 12  2  0
 12  7  1  0
 12  4  1  0
 13 14  2  0
 13  2  1  0
 16 18  1  0
 16 15  1  0
 17 16  2  0
 19 18  1  6
 19 20  1  0
 20 13  1  0
 21 19  1  0
 22 21  2  0
 23 21  1  0
 24 23  1  0
 25 26  1  0
 24 25  1  1
 26 27  2  0
 28 27  1  0
 29 28  1  0
 30 29  2  0
 30 26  1  0
 31 24  1  0
 31 32  1  0
 33 31  2  0
M  END
$$$$
