KMA.pdb
     RDKit          3D

 23 22  0  0  1  0  0  0  0  0999 V2000
   24.4708  -25.4403  -15.7983 N   0  0  0  0  0  0  0  0  0  0  0  0
   25.2069  -24.1933  -15.7073 C   0  0  1  0  0  0  0  0  0  0  0  0
   24.9343  -23.3934  -16.9365 C   0  0  0  0  0  0  0  0  0  0  0  0
   23.9820  -24.2217  -17.8036 C   0  0  0  0  0  0  0  0  0  0  0  0
   23.6024  -23.4675  -19.0546 C   0  0  0  0  0  0  0  0  0  0  0  0
   22.6691  -24.3632  -19.8454 C   0  0  0  0  0  0  0  0  0  0  0  0
   22.2986  -23.7119  -21.0741 N   0  0  0  0  0  0  0  0  0  0  0  0
   24.8019  -23.4923  -14.4599 C   0  0  0  0  0  0  0  0  0  0  0  0
   23.7503  -23.8121  -13.8479 O   0  0  0  0  0  0  0  0  0  0  0  0
   24.8056  -19.9083   -8.2208 C   0  0  0  0  0  0  0  0  0  0  0  0
   25.3494  -20.9742   -9.5640 S   0  0  0  0  0  0  0  0  0  0  0  0
   25.8980  -20.0396  -10.9902 C   0  0  0  0  0  0  0  0  0  0  0  0
   26.3402  -20.9253  -12.1315 C   0  0  0  0  0  0  0  0  0  0  0  0
   25.1733  -21.7020  -12.7106 C   0  0  2  0  0  0  0  0  0  0  0  0
   25.5711  -22.4365  -13.8989 N   0  0  0  0  0  0  0  0  0  0  0  0
   24.0578  -20.7975  -13.0906 C   0  0  0  0  0  0  0  0  0  0  0  0
   23.4071  -20.1219  -12.2380 O   0  0  0  0  0  0  0  0  0  0  0  0
   23.0244  -19.0400  -16.1688 C   0  0  0  0  0  0  0  0  0  0  0  0
   22.6608  -19.6149  -14.8173 C   0  0  2  0  0  0  0  0  0  0  0  0
   23.6511  -20.6364  -14.4528 N   0  0  0  0  0  0  0  0  0  0  0  0
   21.3481  -20.2826  -14.9365 C   0  0  0  0  0  0  0  0  0  0  0  0
   20.2338  -19.5039  -15.2048 O   0  0  0  0  0  0  0  0  0  0  0  0
   21.2169  -21.5174  -14.8034 O   0  0  0  0  0  0  0  0  0  0  0  0
  2  1  1  6
  3  2  1  0
  4  3  1  0
  5  4  1  0
  6  5  1  0
  7  6  1  0
  8  9  2  0
  8  2  1  0
 10 11  1  0
 11 12  1  0
 14 13  1  6
 13 12  1  0
 14 15  1  0
 15  8  1  0
 16 14  1  0
 17 16  2  0
 19 18  1  6
 19 20  1  0
 20 16  1  0
 21 19  1  0
 22 21  1  0
 23 21  2  0
M  END
$$$$
