KMA.pdb
     RDKit          3D

 23 22  0  0  1  0  0  0  0  0999 V2000
   22.7258  -22.3842  -13.2581 N   0  0  0  0  0  0  0  0  0  0  0  0
   22.5015  -20.9531  -13.1743 C   0  0  1  0  0  0  0  0  0  0  0  0
   21.6328  -20.6799  -11.9928 C   0  0  0  0  0  0  0  0  0  0  0  0
   20.2560  -21.2718  -12.3070 C   0  0  0  0  0  0  0  0  0  0  0  0
   19.7324  -20.7442  -13.6206 C   0  0  0  0  0  0  0  0  0  0  0  0
   18.2849  -20.3533  -13.3951 C   0  0  0  0  0  0  0  0  0  0  0  0
   17.4449  -21.5155  -13.5173 N   0  0  0  0  0  0  0  0  0  0  0  0
   23.8196  -20.2695  -13.0930 C   0  0  0  0  0  0  0  0  0  0  0  0
   23.8961  -19.0251  -12.9253 O   0  0  0  0  0  0  0  0  0  0  0  0
   29.7405  -21.4154   -9.7396 C   0  0  0  0  0  0  0  0  0  0  0  0
   29.9457  -21.4809  -11.5255 S   0  0  0  0  0  0  0  0  0  0  0  0
   28.7153  -20.5029  -12.3846 C   0  0  0  0  0  0  0  0  0  0  0  0
   27.3784  -21.2006  -12.4777 C   0  0  0  0  0  0  0  0  0  0  0  0
   26.3482  -20.3281  -13.1688 C   0  0  2  0  0  0  0  0  0  0  0  0
   25.0486  -20.9761  -13.1991 N   0  0  0  0  0  0  0  0  0  0  0  0
   26.7409  -20.0368  -14.5715 C   0  0  0  0  0  0  0  0  0  0  0  0
   26.6155  -20.8852  -15.5049 O   0  0  0  0  0  0  0  0  0  0  0  0
   27.9872  -17.0237  -16.4832 C   0  0  0  0  0  0  0  0  0  0  0  0
   27.5427  -18.4651  -16.3657 C   0  0  2  0  0  0  0  0  0  0  0  0
   27.2880  -18.7707  -14.9519 N   0  0  0  0  0  0  0  0  0  0  0  0
   28.6512  -19.3297  -16.8206 C   0  0  0  0  0  0  0  0  0  0  0  0
   28.9116  -19.4083  -18.1793 O   0  0  0  0  0  0  0  0  0  0  0  0
   29.3529  -19.9849  -16.0218 O   0  0  0  0  0  0  0  0  0  0  0  0
  2  1  1  1
  3  2  1  0
  4  3  1  0
  5  4  1  0
  6  5  1  0
  7  6  1  0
  8  9  2  0
  8  2  1  0
 10 11  1  0
 11 12  1  0
 14 13  1  6
 13 12  1  0
 14 15  1  0
 15  8  1  0
 16 14  1  0
 17 16  2  0
 19 18  1  1
 19 20  1  0
 20 16  1  0
 21 19  1  0
 22 21  1  0
 23 21  2  0
M  END
$$$$
