KMA.pdb
     RDKit          3D

 23 22  0  0  1  0  0  0  0  0999 V2000
   18.4812  -12.8450  -16.5611 N   0  0  0  0  0  0  0  0  0  0  0  0
   18.1181  -11.4489  -16.7161 C   0  0  1  0  0  0  0  0  0  0  0  0
   17.0912  -11.1113  -15.6881 C   0  0  0  0  0  0  0  0  0  0  0  0
   15.8210  -11.8819  -16.0590 C   0  0  0  0  0  0  0  0  0  0  0  0
   14.7309  -11.6398  -15.0436 C   0  0  0  0  0  0  0  0  0  0  0  0
   13.5521  -12.5047  -15.4451 C   0  0  0  0  0  0  0  0  0  0  0  0
   12.4737  -12.3172  -14.5106 N   0  0  0  0  0  0  0  0  0  0  0  0
   19.3483  -10.6219  -16.5976 C   0  0  0  0  0  0  0  0  0  0  0  0
   20.2969  -10.9732  -15.8498 O   0  0  0  0  0  0  0  0  0  0  0  0
   24.1071   -5.1920  -19.8635 C   0  0  0  0  0  0  0  0  0  0  0  0
   22.6116   -6.1852  -19.9787 S   0  0  0  0  0  0  0  0  0  0  0  0
   22.2517   -7.0467  -18.4500 C   0  0  0  0  0  0  0  0  0  0  0  0
   20.9997   -7.8879  -18.5368 C   0  0  0  0  0  0  0  0  0  0  0  0
   20.7089   -8.5811  -17.2196 C   0  0  2  0  0  0  0  0  0  0  0  0
   19.5166   -9.4052  -17.3135 N   0  0  0  0  0  0  0  0  0  0  0  0
   20.4936   -7.5973  -16.1275 C   0  0  0  0  0  0  0  0  0  0  0  0
   19.5099   -6.7980  -16.1140 O   0  0  0  0  0  0  0  0  0  0  0  0
   21.6776   -7.0577  -12.6500 C   0  0  0  0  0  0  0  0  0  0  0  0
   21.1570   -6.5063  -13.9592 C   0  0  2  0  0  0  0  0  0  0  0  0
   21.3926   -7.4953  -15.0192 N   0  0  0  0  0  0  0  0  0  0  0  0
   21.9344   -5.2949  -14.2928 C   0  0  0  0  0  0  0  0  0  0  0  0
   22.7192   -5.3084  -15.4348 O   0  0  0  0  0  0  0  0  0  0  0  0
   21.9039   -4.2694  -13.5806 O   0  0  0  0  0  0  0  0  0  0  0  0
  2  1  1  1
  3  2  1  0
  4  3  1  0
  5  4  1  0
  6  5  1  0
  7  6  1  0
  8  9  2  0
  8  2  1  0
 10 11  1  0
 11 12  1  0
 14 13  1  6
 13 12  1  0
 14 15  1  0
 15  8  1  0
 16 14  1  0
 17 16  2  0
 19 18  1  1
 19 20  1  0
 20 16  1  0
 21 19  1  0
 22 21  1  0
 23 21  2  0
M  END
$$$$
