KMA.pdb
     RDKit          3D

 23 22  0  0  1  0  0  0  0  0999 V2000
   20.0815  -20.9600  -12.0502 N   0  0  0  0  0  0  0  0  0  0  0  0
   21.0693  -21.4395  -12.9986 C   0  0  1  0  0  0  0  0  0  0  0  0
   20.5145  -21.2885  -14.3750 C   0  0  0  0  0  0  0  0  0  0  0  0
   19.5935  -22.4877  -14.6169 C   0  0  0  0  0  0  0  0  0  0  0  0
   19.0715  -23.0353  -13.3110 C   0  0  0  0  0  0  0  0  0  0  0  0
   18.1587  -24.1971  -13.6514 C   0  0  0  0  0  0  0  0  0  0  0  0
   18.7077  -25.4162  -13.1189 N   0  0  0  0  0  0  0  0  0  0  0  0
   22.3305  -20.6779  -12.7971 C   0  0  0  0  0  0  0  0  0  0  0  0
   22.3107  -19.4768  -12.4235 O   0  0  0  0  0  0  0  0  0  0  0  0
   30.0910  -20.8644  -11.2434 C   0  0  0  0  0  0  0  0  0  0  0  0
   28.5126  -21.7216  -11.3441 S   0  0  0  0  0  0  0  0  0  0  0  0
   27.2278  -20.6934  -12.0515 C   0  0  0  0  0  0  0  0  0  0  0  0
   25.9076  -21.4168  -12.1790 C   0  0  0  0  0  0  0  0  0  0  0  0
   24.8568  -20.5362  -12.8276 C   0  0  2  0  0  0  0  0  0  0  0  0
   23.6102  -21.2583  -13.0130 N   0  0  0  0  0  0  0  0  0  0  0  0
   25.3031  -20.0552  -14.1603 C   0  0  0  0  0  0  0  0  0  0  0  0
   25.2924  -20.7937  -15.1905 O   0  0  0  0  0  0  0  0  0  0  0  0
   26.5036  -16.7887  -15.6345 C   0  0  0  0  0  0  0  0  0  0  0  0
   26.1967  -18.2692  -15.6913 C   0  0  2  0  0  0  0  0  0  0  0  0
   25.7747  -18.7190  -14.3583 N   0  0  0  0  0  0  0  0  0  0  0  0
   27.4414  -18.9869  -16.0356 C   0  0  0  0  0  0  0  0  0  0  0  0
   27.8024  -19.0785  -17.3703 O   0  0  0  0  0  0  0  0  0  0  0  0
   28.1697  -19.5081  -15.1652 O   0  0  0  0  0  0  0  0  0  0  0  0
  2  1  1  1
  3  2  1  0
  4  3  1  0
  5  4  1  0
  6  5  1  0
  7  6  1  0
  8  9  2  0
  8  2  1  0
 10 11  1  0
 11 12  1  0
 14 13  1  6
 13 12  1  0
 14 15  1  0
 15  8  1  0
 16 14  1  0
 17 16  2  0
 19 18  1  1
 19 20  1  0
 20 16  1  0
 21 19  1  0
 22 21  1  0
 23 21  2  0
M  END
$$$$
