KMA.pdb
     RDKit          3D

 23 22  0  0  1  0  0  0  0  0999 V2000
   26.8039  -22.0720  -14.9408 N   0  0  0  0  0  0  0  0  0  0  0  0
   25.6658  -22.9681  -14.8586 C   0  0  1  0  0  0  0  0  0  0  0  0
   26.1513  -24.3661  -15.0452 C   0  0  0  0  0  0  0  0  0  0  0  0
   26.6013  -24.4893  -16.5037 C   0  0  0  0  0  0  0  0  0  0  0  0
   25.9144  -25.6503  -17.1808 C   0  0  0  0  0  0  0  0  0  0  0  0
   24.6974  -25.0911  -17.8915 C   0  0  0  0  0  0  0  0  0  0  0  0
   24.6137  -25.6454  -19.2170 N   0  0  0  0  0  0  0  0  0  0  0  0
   24.9911  -22.7604  -13.5497 C   0  0  0  0  0  0  0  0  0  0  0  0
   24.0000  -23.4580  -13.2125 O   0  0  0  0  0  0  0  0  0  0  0  0
   27.7126  -19.5338   -8.4633 C   0  0  0  0  0  0  0  0  0  0  0  0
   26.1159  -20.0033   -7.7805 S   0  0  0  0  0  0  0  0  0  0  0  0
   25.0050  -20.6405   -9.0329 C   0  0  0  0  0  0  0  0  0  0  0  0
   25.7028  -20.9153  -10.3445 C   0  0  0  0  0  0  0  0  0  0  0  0
   24.7494  -21.5131  -11.3614 C   0  0  2  0  0  0  0  0  0  0  0  0
   25.4239  -21.7751  -12.6208 N   0  0  0  0  0  0  0  0  0  0  0  0
   23.6128  -20.5978  -11.6393 C   0  0  0  0  0  0  0  0  0  0  0  0
   22.8550  -20.1546  -10.7249 O   0  0  0  0  0  0  0  0  0  0  0  0
   22.3275  -18.6016  -14.5467 C   0  0  0  0  0  0  0  0  0  0  0  0
   22.1444  -19.2977  -13.2158 C   0  0  2  0  0  0  0  0  0  0  0  0
   23.3062  -20.1611  -12.9667 N   0  0  0  0  0  0  0  0  0  0  0  0
   20.9509  -20.1639  -13.3071 C   0  0  0  0  0  0  0  0  0  0  0  0
   19.7007  -19.5665  -13.3073 O   0  0  0  0  0  0  0  0  0  0  0  0
   21.0374  -21.4075  -13.3832 O   0  0  0  0  0  0  0  0  0  0  0  0
  2  1  1  1
  3  2  1  0
  4  3  1  0
  5  4  1  0
  6  5  1  0
  7  6  1  0
  8  9  2  0
  8  2  1  0
 10 11  1  0
 11 12  1  0
 14 13  1  1
 13 12  1  0
 14 15  1  0
 15  8  1  0
 16 14  1  0
 17 16  2  0
 19 18  1  6
 19 20  1  0
 20 16  1  0
 21 19  1  0
 22 21  1  0
 23 21  2  0
M  END
$$$$
