KMA.pdb
     RDKit          3D

 23 22  0  0  1  0  0  0  0  0999 V2000
   17.8147   -9.6515  -16.7963 N   0  0  0  0  0  0  0  0  0  0  0  0
   17.6512   -9.3926  -15.3780 C   0  0  1  0  0  0  0  0  0  0  0  0
   16.8828  -10.5214  -14.7776 C   0  0  0  0  0  0  0  0  0  0  0  0
   15.6308  -10.7140  -15.6380 C   0  0  0  0  0  0  0  0  0  0  0  0
   14.8135  -11.8820  -15.1421 C   0  0  0  0  0  0  0  0  0  0  0  0
   13.6176  -12.0091  -16.0654 C   0  0  0  0  0  0  0  0  0  0  0  0
   12.8415  -13.1634  -15.6961 N   0  0  0  0  0  0  0  0  0  0  0  0
   18.9965   -9.2204  -14.7683 C   0  0  0  0  0  0  0  0  0  0  0  0
   19.1317   -9.0674  -13.5269 O   0  0  0  0  0  0  0  0  0  0  0  0
   26.7511  -10.5303  -14.8897 C   0  0  0  0  0  0  0  0  0  0  0  0
   25.1983  -10.5892  -15.7961 S   0  0  0  0  0  0  0  0  0  0  0  0
   23.9028   -9.6589  -14.9808 C   0  0  0  0  0  0  0  0  0  0  0  0
   22.5572   -9.8285  -15.6465 C   0  0  0  0  0  0  0  0  0  0  0  0
   21.5035   -8.9576  -14.9896 C   0  0  2  0  0  0  0  0  0  0  0  0
   20.1872   -9.2192  -15.5451 N   0  0  0  0  0  0  0  0  0  0  0  0
   21.7976   -7.5145  -15.1842 C   0  0  0  0  0  0  0  0  0  0  0  0
   21.5060   -6.8972  -16.2521 O   0  0  0  0  0  0  0  0  0  0  0  0
   23.4576   -5.1955  -15.7404 C   0  0  0  0  0  0  0  0  0  0  0  0
   22.7519   -5.3194  -14.4078 C   0  0  2  0  0  0  0  0  0  0  0  0
   22.4326   -6.7328  -14.1680 N   0  0  0  0  0  0  0  0  0  0  0  0
   21.4768   -4.5772  -14.4887 C   0  0  0  0  0  0  0  0  0  0  0  0
   21.3089   -3.4642  -13.6805 O   0  0  0  0  0  0  0  0  0  0  0  0
   20.5555   -4.9223  -15.2579 O   0  0  0  0  0  0  0  0  0  0  0  0
  2  1  1  6
  3  2  1  0
  4  3  1  0
  5  4  1  0
  6  5  1  0
  7  6  1  0
  8  9  2  0
  8  2  1  0
 10 11  1  0
 11 12  1  0
 14 13  1  6
 13 12  1  0
 14 15  1  0
 15  8  1  0
 16 14  1  0
 17 16  2  0
 19 18  1  6
 19 20  1  0
 20 16  1  0
 21 19  1  0
 22 21  1  0
 23 21  2  0
M  END
$$$$
