KMA.pdb
     RDKit          3D

 23 22  0  0  1  0  0  0  0  0999 V2000
   28.1070  -21.2851  -15.1615 N   0  0  0  0  0  0  0  0  0  0  0  0
   27.5310  -20.2645  -14.3061 C   0  0  1  0  0  0  0  0  0  0  0  0
   26.8627  -19.2475  -15.1689 C   0  0  0  0  0  0  0  0  0  0  0  0
   27.9289  -18.2155  -15.5467 C   0  0  0  0  0  0  0  0  0  0  0  0
   28.5486  -18.5485  -16.8820 C   0  0  0  0  0  0  0  0  0  0  0  0
   29.5495  -17.4524  -17.1911 C   0  0  0  0  0  0  0  0  0  0  0  0
   28.9625  -16.5029  -18.0994 N   0  0  0  0  0  0  0  0  0  0  0  0
   26.5958  -20.9168  -13.3514 C   0  0  0  0  0  0  0  0  0  0  0  0
   26.0462  -22.0139  -13.6285 O   0  0  0  0  0  0  0  0  0  0  0  0
   28.3273  -20.2717   -6.7546 C   0  0  0  0  0  0  0  0  0  0  0  0
   26.7636  -19.8496   -7.5375 S   0  0  0  0  0  0  0  0  0  0  0  0
   26.5397  -20.6943   -9.1011 C   0  0  0  0  0  0  0  0  0  0  0  0
   25.3090  -20.2283   -9.8433 C   0  0  0  0  0  0  0  0  0  0  0  0
   25.2283  -20.8523  -11.2234 C   0  0  2  0  0  0  0  0  0  0  0  0
   26.2766  -20.3433  -12.0904 N   0  0  0  0  0  0  0  0  0  0  0  0
   23.9240  -20.5613  -11.8722 C   0  0  0  0  0  0  0  0  0  0  0  0
   23.5412  -19.3819  -12.1349 O   0  0  0  0  0  0  0  0  0  0  0  0
   21.3117  -22.5150  -13.7060 C   0  0  0  0  0  0  0  0  0  0  0  0
   21.7664  -21.2908  -12.9419 C   0  0  2  0  0  0  0  0  0  0  0  0
   23.0178  -21.6054  -12.2405 N   0  0  0  0  0  0  0  0  0  0  0  0
   20.7450  -20.9765  -11.9216 C   0  0  0  0  0  0  0  0  0  0  0  0
   19.6066  -20.2925  -12.3166 O   0  0  0  0  0  0  0  0  0  0  0  0
   20.8785  -21.3072  -10.7247 O   0  0  0  0  0  0  0  0  0  0  0  0
  2  1  1  6
  3  2  1  0
  4  3  1  0
  5  4  1  0
  6  5  1  0
  7  6  1  0
  8  9  2  0
  8  2  1  0
 10 11  1  0
 11 12  1  0
 14 13  1  1
 13 12  1  0
 14 15  1  0
 15  8  1  0
 16 14  1  0
 17 16  2  0
 19 18  1  1
 19 20  1  0
 20 16  1  0
 21 19  1  0
 22 21  1  0
 23 21  2  0
M  END
$$$$
