KMA.pdb
     RDKit          3D

 23 22  0  0  1  0  0  0  0  0999 V2000
   15.1408  -18.4663    3.2637 N   0  0  0  0  0  0  0  0  0  0  0  0
   15.1102  -17.2008    3.9729 C   0  0  1  0  0  0  0  0  0  0  0  0
   14.1218  -17.3068    5.0851 C   0  0  0  0  0  0  0  0  0  0  0  0
   12.7340  -17.3731    4.4414 C   0  0  0  0  0  0  0  0  0  0  0  0
   11.6584  -17.4780    5.4950 C   0  0  0  0  0  0  0  0  0  0  0  0
   10.3329  -17.5791    4.7658 C   0  0  0  0  0  0  0  0  0  0  0  0
    9.2640  -17.7110    5.7205 N   0  0  0  0  0  0  0  0  0  0  0  0
   16.4843  -16.8894    4.4486 C   0  0  0  0  0  0  0  0  0  0  0  0
   17.4327  -17.6956    4.2659 O   0  0  0  0  0  0  0  0  0  0  0  0
   21.6911  -11.3043    6.6043 C   0  0  0  0  0  0  0  0  0  0  0  0
   19.9969  -11.7113    6.1571 S   0  0  0  0  0  0  0  0  0  0  0  0
   19.7109  -13.4793    6.1267 C   0  0  0  0  0  0  0  0  0  0  0  0
   18.3332  -13.8374    5.6205 C   0  0  0  0  0  0  0  0  0  0  0  0
   18.1337  -15.3404    5.5813 C   0  0  2  0  0  0  0  0  0  0  0  0
   16.7965  -15.6796    5.1269 N   0  0  0  0  0  0  0  0  0  0  0  0
   18.3215  -15.9453    6.9251 C   0  0  0  0  0  0  0  0  0  0  0  0
   17.3809  -16.0347    7.7701 O   0  0  0  0  0  0  0  0  0  0  0  0
   19.1081  -16.0669    9.6902 C   0  0  0  0  0  0  0  0  0  0  0  0
   19.7534  -17.0105    8.6991 C   0  0  2  0  0  0  0  0  0  0  0  0
   19.5862  -16.4658    7.3453 N   0  0  0  0  0  0  0  0  0  0  0  0
   19.0379  -18.3020    8.7564 C   0  0  0  0  0  0  0  0  0  0  0  0
   19.0635  -19.0182    9.9423 O   0  0  0  0  0  0  0  0  0  0  0  0
   18.4169  -18.7610    7.7749 O   0  0  0  0  0  0  0  0  0  0  0  0
  2  1  1  1
  3  2  1  0
  4  3  1  0
  5  4  1  0
  6  5  1  0
  7  6  1  0
  8  9  2  0
  8  2  1  0
 10 11  1  0
 11 12  1  0
 14 13  1  1
 13 12  1  0
 14 15  1  0
 15  8  1  0
 16 14  1  0
 17 16  2  0
 19 18  1  1
 19 20  1  0
 20 16  1  0
 21 19  1  0
 22 21  1  0
 23 21  2  0
M  END
$$$$
