KMA.pdb
     RDKit          3D

 23 22  0  0  1  0  0  0  0  0999 V2000
   28.6429  -21.7618  -15.9773 N   0  0  0  0  0  0  0  0  0  0  0  0
   27.7654  -20.7006  -15.5203 C   0  0  1  0  0  0  0  0  0  0  0  0
   27.0643  -20.1250  -16.7046 C   0  0  0  0  0  0  0  0  0  0  0  0
   28.0854  -19.2592  -17.4480 C   0  0  0  0  0  0  0  0  0  0  0  0
   28.0746  -17.8450  -16.9207 C   0  0  0  0  0  0  0  0  0  0  0  0
   29.0675  -17.0555  -17.7511 C   0  0  0  0  0  0  0  0  0  0  0  0
   29.2819  -15.7648  -17.1515 N   0  0  0  0  0  0  0  0  0  0  0  0
   26.8288  -21.2604  -14.5100 C   0  0  0  0  0  0  0  0  0  0  0  0
   26.1613  -22.2996  -14.7493 O   0  0  0  0  0  0  0  0  0  0  0  0
   27.0478  -19.9338   -8.0529 C   0  0  0  0  0  0  0  0  0  0  0  0
   25.3599  -20.5392   -8.1960 S   0  0  0  0  0  0  0  0  0  0  0  0
   24.9667  -21.0602   -9.8641 C   0  0  0  0  0  0  0  0  0  0  0  0
   26.0175  -20.6441  -10.8667 C   0  0  0  0  0  0  0  0  0  0  0  0
   25.6798  -21.1433  -12.2585 C   0  0  2  0  0  0  0  0  0  0  0  0
   26.6394  -20.6594  -13.2357 N   0  0  0  0  0  0  0  0  0  0  0  0
   24.3319  -20.6861  -12.6839 C   0  0  0  0  0  0  0  0  0  0  0  0
   24.0669  -19.4687  -12.9171 O   0  0  0  0  0  0  0  0  0  0  0  0
   21.2643  -22.2200  -14.1108 C   0  0  0  0  0  0  0  0  0  0  0  0
   21.9348  -21.1243  -13.3114 C   0  0  2  0  0  0  0  0  0  0  0  0
   23.2467  -21.6024  -12.8559 N   0  0  0  0  0  0  0  0  0  0  0  0
   21.1124  -20.8562  -12.1135 C   0  0  0  0  0  0  0  0  0  0  0  0
   19.8960  -20.2135  -12.2787 O   0  0  0  0  0  0  0  0  0  0  0  0
   21.4801  -21.1898  -10.9675 O   0  0  0  0  0  0  0  0  0  0  0  0
  2  1  1  6
  3  2  1  0
  4  3  1  0
  5  4  1  0
  6  5  1  0
  7  6  1  0
  8  9  2  0
  8  2  1  0
 10 11  1  0
 11 12  1  0
 14 13  1  1
 13 12  1  0
 14 15  1  0
 15  8  1  0
 16 14  1  0
 17 16  2  0
 19 18  1  6
 19 20  1  0
 20 16  1  0
 21 19  1  0
 22 21  1  0
 23 21  2  0
M  END
$$$$
