KMA.pdb
     RDKit          3D

 23 22  0  0  1  0  0  0  0  0999 V2000
   28.4440  -20.6762  -16.2257 N   0  0  0  0  0  0  0  0  0  0  0  0
   28.2397  -19.8569  -15.0458 C   0  0  1  0  0  0  0  0  0  0  0  0
   27.7702  -18.5099  -15.4820 C   0  0  0  0  0  0  0  0  0  0  0  0
   27.2663  -18.6591  -16.9202 C   0  0  0  0  0  0  0  0  0  0  0  0
   25.9876  -17.8837  -17.1239 C   0  0  0  0  0  0  0  0  0  0  0  0
   25.6689  -17.9367  -18.6052 C   0  0  0  0  0  0  0  0  0  0  0  0
   24.4203  -17.2664  -18.8561 N   0  0  0  0  0  0  0  0  0  0  0  0
   27.2713  -20.5449  -14.1513 C   0  0  0  0  0  0  0  0  0  0  0  0
   26.5218  -21.4573  -14.5855 O   0  0  0  0  0  0  0  0  0  0  0  0
   24.5997  -21.5570   -6.6935 C   0  0  0  0  0  0  0  0  0  0  0  0
   25.6463  -20.6109   -7.8096 S   0  0  0  0  0  0  0  0  0  0  0  0
   25.4126  -21.0843   -9.5212 C   0  0  0  0  0  0  0  0  0  0  0  0
   26.3958  -20.4117  -10.4506 C   0  0  0  0  0  0  0  0  0  0  0  0
   26.1790  -20.8433  -11.8883 C   0  0  2  0  0  0  0  0  0  0  0  0
   27.1416  -20.2132  -12.7750 N   0  0  0  0  0  0  0  0  0  0  0  0
   24.8199  -20.4770  -12.3631 C   0  0  0  0  0  0  0  0  0  0  0  0
   24.4729  -19.2768  -12.5772 O   0  0  0  0  0  0  0  0  0  0  0  0
   22.0247  -22.1684  -14.0853 C   0  0  0  0  0  0  0  0  0  0  0  0
   22.5075  -21.0812  -13.1504 C   0  0  2  0  0  0  0  0  0  0  0  0
   23.8166  -21.4671  -12.6076 N   0  0  0  0  0  0  0  0  0  0  0  0
   21.5607  -20.9889  -12.0199 C   0  0  0  0  0  0  0  0  0  0  0  0
   20.2670  -20.5636  -12.2759 O   0  0  0  0  0  0  0  0  0  0  0  0
   21.8913  -21.2809  -10.8515 O   0  0  0  0  0  0  0  0  0  0  0  0
  2  1  1  6
  3  2  1  0
  4  3  1  0
  5  4  1  0
  6  5  1  0
  7  6  1  0
  8  9  2  0
  8  2  1  0
 10 11  1  0
 11 12  1  0
 14 13  1  1
 13 12  1  0
 14 15  1  0
 15  8  1  0
 16 14  1  0
 17 16  2  0
 19 18  1  6
 19 20  1  0
 20 16  1  0
 21 19  1  0
 22 21  1  0
 23 21  2  0
M  END
$$$$
