KMA.pdb
     RDKit          3D

 23 22  0  0  1  0  0  0  0  0999 V2000
   26.8469  -23.4425  -14.4945 N   0  0  0  0  0  0  0  0  0  0  0  0
   26.7730  -22.0877  -13.9805 C   0  0  1  0  0  0  0  0  0  0  0  0
   26.2707  -21.1974  -15.0670 C   0  0  0  0  0  0  0  0  0  0  0  0
   26.8881  -21.7005  -16.3748 C   0  0  0  0  0  0  0  0  0  0  0  0
   26.7929  -20.6482  -17.4526 C   0  0  0  0  0  0  0  0  0  0  0  0
   27.7027  -19.5079  -17.0394 C   0  0  0  0  0  0  0  0  0  0  0  0
   27.6782  -18.4799  -18.0464 N   0  0  0  0  0  0  0  0  0  0  0  0
   25.8978  -22.0827  -12.7783 C   0  0  0  0  0  0  0  0  0  0  0  0
   24.9151  -22.8629  -12.6876 O   0  0  0  0  0  0  0  0  0  0  0  0
   26.9480  -18.8495   -6.8643 C   0  0  0  0  0  0  0  0  0  0  0  0
   27.9185  -20.2397   -7.4656 S   0  0  0  0  0  0  0  0  0  0  0  0
   27.0465  -21.1850   -8.7125 C   0  0  0  0  0  0  0  0  0  0  0  0
   25.9440  -20.3943   -9.3771 C   0  0  0  0  0  0  0  0  0  0  0  0
   25.2892  -21.1896  -10.4902 C   0  0  2  0  0  0  0  0  0  0  0  0
   26.1213  -21.2072  -11.6807 N   0  0  0  0  0  0  0  0  0  0  0  0
   23.9741  -20.6102  -10.8665 C   0  0  0  0  0  0  0  0  0  0  0  0
   23.0416  -20.4330  -10.0264 O   0  0  0  0  0  0  0  0  0  0  0  0
   22.5166  -18.9596  -13.9274 C   0  0  0  0  0  0  0  0  0  0  0  0
   22.4255  -19.5264  -12.5275 C   0  0  2  0  0  0  0  0  0  0  0  0
   23.6830  -20.2158  -12.2106 N   0  0  0  0  0  0  0  0  0  0  0  0
   21.3428  -20.5316  -12.5048 C   0  0  0  0  0  0  0  0  0  0  0  0
   21.6875  -21.8704  -12.4106 O   0  0  0  0  0  0  0  0  0  0  0  0
   20.1375  -20.2107  -12.5677 O   0  0  0  0  0  0  0  0  0  0  0  0
  2  1  1  6
  3  2  1  0
  4  3  1  0
  5  4  1  0
  6  5  1  0
  7  6  1  0
  8  9  2  0
  8  2  1  0
 10 11  1  0
 11 12  1  0
 14 13  1  1
 13 12  1  0
 14 15  1  0
 15  8  1  0
 16 14  1  0
 17 16  2  0
 19 18  1  6
 19 20  1  0
 20 16  1  0
 21 19  1  0
 22 21  1  0
 23 21  2  0
M  END
$$$$
