KMA.pdb
     RDKit          3D

 23 22  0  0  1  0  0  0  0  0999 V2000
   27.7927  -19.1770  -14.5237 N   0  0  0  0  0  0  0  0  0  0  0  0
   27.2693  -20.3031  -15.2741 C   0  0  1  0  0  0  0  0  0  0  0  0
   28.4134  -21.1628  -15.6948 C   0  0  0  0  0  0  0  0  0  0  0  0
   29.2868  -20.3163  -16.6251 C   0  0  0  0  0  0  0  0  0  0  0  0
   28.5549  -19.9984  -17.9061 C   0  0  0  0  0  0  0  0  0  0  0  0
   29.5575  -20.1376  -19.0349 C   0  0  0  0  0  0  0  0  0  0  0  0
   29.7653  -21.5310  -19.3288 N   0  0  0  0  0  0  0  0  0  0  0  0
   26.2860  -21.0250  -14.4236 C   0  0  0  0  0  0  0  0  0  0  0  0
   25.7574  -22.0988  -14.8114 O   0  0  0  0  0  0  0  0  0  0  0  0
   25.4889  -19.9590   -7.9416 C   0  0  0  0  0  0  0  0  0  0  0  0
   26.7765  -21.0015   -8.6424 S   0  0  0  0  0  0  0  0  0  0  0  0
   26.4060  -21.4974  -10.3233 C   0  0  0  0  0  0  0  0  0  0  0  0
   25.1263  -20.8846  -10.8422 C   0  0  0  0  0  0  0  0  0  0  0  0
   24.9119  -21.2137  -12.3072 C   0  0  2  0  0  0  0  0  0  0  0  0
   25.8951  -20.5471  -13.1430 N   0  0  0  0  0  0  0  0  0  0  0  0
   23.5649  -20.7863  -12.7652 C   0  0  0  0  0  0  0  0  0  0  0  0
   23.2288  -19.5671  -12.8504 O   0  0  0  0  0  0  0  0  0  0  0  0
   20.6209  -22.3682  -14.4502 C   0  0  0  0  0  0  0  0  0  0  0  0
   21.2442  -21.2808  -13.6028 C   0  0  2  0  0  0  0  0  0  0  0  0
   22.5617  -21.7352  -13.1393 N   0  0  0  0  0  0  0  0  0  0  0  0
   20.3935  -21.0775  -12.4119 C   0  0  0  0  0  0  0  0  0  0  0  0
   19.1854  -20.4172  -12.5692 O   0  0  0  0  0  0  0  0  0  0  0  0
   20.7302  -21.4804  -11.2788 O   0  0  0  0  0  0  0  0  0  0  0  0
  2  1  1  1
  3  2  1  0
  4  3  1  0
  5  4  1  0
  6  5  1  0
  7  6  1  0
  8  9  2  0
  8  2  1  0
 10 11  1  0
 11 12  1  0
 14 13  1  1
 13 12  1  0
 14 15  1  0
 15  8  1  0
 16 14  1  0
 17 16  2  0
 19 18  1  6
 19 20  1  0
 20 16  1  0
 21 19  1  0
 22 21  1  0
 23 21  2  0
M  END
$$$$
