KMA.pdb
     RDKit          3D

 23 22  0  0  1  0  0  0  0  0999 V2000
   21.4368  -21.7323  -14.4562 N   0  0  0  0  0  0  0  0  0  0  0  0
   21.2959  -20.3380  -14.0803 C   0  0  1  0  0  0  0  0  0  0  0  0
   20.2608  -20.2398  -13.0107 C   0  0  0  0  0  0  0  0  0  0  0  0
   19.3049  -21.4198  -13.2076 C   0  0  0  0  0  0  0  0  0  0  0  0
   19.6312  -22.5401  -12.2503 C   0  0  0  0  0  0  0  0  0  0  0  0
   18.4977  -23.5431  -12.3399 C   0  0  0  0  0  0  0  0  0  0  0  0
   18.7175  -24.6075  -11.3966 N   0  0  0  0  0  0  0  0  0  0  0  0
   22.6235  -19.8257  -13.6486 C   0  0  0  0  0  0  0  0  0  0  0  0
   22.7477  -18.6710  -13.1650 O   0  0  0  0  0  0  0  0  0  0  0  0
   29.8635  -20.7814  -10.8308 C   0  0  0  0  0  0  0  0  0  0  0  0
   28.2779  -21.5140  -11.2612 S   0  0  0  0  0  0  0  0  0  0  0  0
   27.3252  -20.4687  -12.3603 C   0  0  0  0  0  0  0  0  0  0  0  0
   25.9511  -21.0267  -12.6486 C   0  0  0  0  0  0  0  0  0  0  0  0
   25.1375  -20.0742  -13.5036 C   0  0  2  0  0  0  0  0  0  0  0  0
   23.8088  -20.6031  -13.7576 N   0  0  0  0  0  0  0  0  0  0  0  0
   25.7887  -19.8377  -14.8177 C   0  0  0  0  0  0  0  0  0  0  0  0
   25.7277  -20.6732  -15.7691 O   0  0  0  0  0  0  0  0  0  0  0  0
   27.8000  -17.0642  -16.4192 C   0  0  0  0  0  0  0  0  0  0  0  0
   27.0930  -18.4019  -16.4205 C   0  0  2  0  0  0  0  0  0  0  0  0
   26.5284  -18.6429  -15.0863 N   0  0  0  0  0  0  0  0  0  0  0  0
   28.0958  -19.4550  -16.6821 C   0  0  0  0  0  0  0  0  0  0  0  0
   28.4415  -19.7249  -17.9965 O   0  0  0  0  0  0  0  0  0  0  0  0
   28.6349  -20.1021  -15.7599 O   0  0  0  0  0  0  0  0  0  0  0  0
  2  1  1  1
  3  2  1  0
  4  3  1  0
  5  4  1  0
  6  5  1  0
  7  6  1  0
  8  9  2  0
  8  2  1  0
 10 11  1  0
 11 12  1  0
 14 13  1  1
 13 12  1  0
 14 15  1  0
 15  8  1  0
 16 14  1  0
 17 16  2  0
 19 18  1  1
 19 20  1  0
 20 16  1  0
 21 19  1  0
 22 21  1  0
 23 21  2  0
M  END
$$$$
