APY.pdb
     RDKit          3D

 25 26  0  0  1  0  0  0  0  0999 V2000
   26.3239  -14.8920  -15.2359 C   0  0  0  0  0  0  0  0  0  0  0  0
   25.6766  -15.9107  -16.1527 C   0  0  2  0  0  0  0  0  0  0  0  0
   24.4021  -15.4020  -16.5410 N   0  0  0  0  0  0  0  0  0  0  0  0
   25.7021  -17.2662  -15.6094 C   0  0  0  0  0  0  0  0  0  0  0  0
   24.8779  -17.6064  -14.6988 O   0  0  0  0  0  0  0  0  0  0  0  0
   26.6179  -18.3035  -16.0289 N   0  0  0  0  0  0  0  0  0  0  0  0
   27.3796  -18.1731  -17.2261 C   0  0  0  0  0  0  0  0  0  0  0  0
   28.3215  -19.3378  -17.2396 C   0  0  0  0  0  0  0  0  0  0  0  0
   28.1511  -20.0635  -15.9527 C   0  0  0  0  0  0  0  0  0  0  0  0
   26.8760  -19.5360  -15.3878 C   0  0  1  0  0  0  0  0  0  0  0  0
   27.0055  -19.4639  -13.8971 C   0  0  0  0  0  0  0  0  0  0  0  0
   27.7610  -18.6374  -13.3484 O   0  0  0  0  0  0  0  0  0  0  0  0
   27.1583  -19.9979   -5.3786 O   0  0  0  0  0  0  0  0  0  0  0  0
   26.8002  -19.9295   -6.7129 C   0  0  0  0  0  0  0  0  0  0  0  0
   27.3057  -18.9314   -7.4933 C   0  0  0  0  0  0  0  0  0  0  0  0
   26.9622  -18.8380   -8.8399 C   0  0  0  0  0  0  0  0  0  0  0  0
   26.1084  -19.7475   -9.4121 C   0  0  0  0  0  0  0  0  0  0  0  0
   25.7094  -19.6572  -10.8156 C   0  0  0  0  0  0  0  0  0  0  0  0
   26.5256  -20.5819  -11.6644 C   0  0  2  0  0  0  0  0  0  0  0  0
   26.2530  -20.3527  -13.0850 N   0  0  0  0  0  0  0  0  0  0  0  0
   26.2853  -21.9746  -11.2891 C   0  0  0  0  0  0  0  0  0  0  0  0
   27.0805  -22.6763  -10.4250 O   0  0  0  0  0  0  0  0  0  0  0  0
   25.6110  -20.7427   -8.6104 C   0  0  0  0  0  0  0  0  0  0  0  0
   25.9403  -20.8543   -7.2660 C   0  0  0  0  0  0  0  0  0  0  0  0
   25.2868  -22.6081  -11.7780 O   0  0  0  0  0  0  0  0  0  0  0  0
  2  1  1  1
  3  2  1  0
  4  6  1  0
  4  2  1  0
  5  4  2  0
  6 10  1  0
  7  6  1  0
  7  8  1  0
  8  9  1  0
  9 10  1  0
 10 11  1  1
 11 12  2  0
 13 14  1  0
 14 15  2  0
 15 16  1  0
 17 18  1  0
 17 16  2  0
 19 18  1  1
 19 21  1  0
 20 19  1  0
 20 11  1  0
 21 22  1  0
 23 17  1  0
 24 23  2  0
 24 14  1  0
 25 21  2  0
M  END
$$$$
