APY.pdb
     RDKit          3D

 25 26  0  0  1  0  0  0  0  0999 V2000
   27.7854  -16.9445  -17.0148 C   0  0  0  0  0  0  0  0  0  0  0  0
   27.0195  -18.1446  -17.5349 C   0  0  2  0  0  0  0  0  0  0  0  0
   25.9466  -17.6625  -18.3415 N   0  0  0  0  0  0  0  0  0  0  0  0
   26.6714  -19.0990  -16.4856 C   0  0  0  0  0  0  0  0  0  0  0  0
   25.7351  -18.8326  -15.6629 O   0  0  0  0  0  0  0  0  0  0  0  0
   27.3209  -20.3753  -16.2859 N   0  0  0  0  0  0  0  0  0  0  0  0
   28.1763  -20.9298  -17.2816 C   0  0  0  0  0  0  0  0  0  0  0  0
   28.7888  -22.1480  -16.6614 C   0  0  0  0  0  0  0  0  0  0  0  0
   28.3454  -22.1963  -15.2426 C   0  0  0  0  0  0  0  0  0  0  0  0
   27.2089  -21.2340  -15.1693 C   0  0  1  0  0  0  0  0  0  0  0  0
   27.2429  -20.5524  -13.8357 C   0  0  0  0  0  0  0  0  0  0  0  0
   27.9599  -19.5524  -13.6336 O   0  0  0  0  0  0  0  0  0  0  0  0
   20.2907  -20.5823  -12.8751 O   0  0  0  0  0  0  0  0  0  0  0  0
   21.5879  -20.2766  -12.5046 C   0  0  0  0  0  0  0  0  0  0  0  0
   21.9388  -20.3246  -11.1873 C   0  0  0  0  0  0  0  0  0  0  0  0
   23.2376  -20.0217  -10.7855 C   0  0  0  0  0  0  0  0  0  0  0  0
   24.1934  -19.6688  -11.7050 C   0  0  0  0  0  0  0  0  0  0  0  0
   25.5563  -19.3193  -11.3085 C   0  0  0  0  0  0  0  0  0  0  0  0
   26.4652  -20.5044  -11.4153 C   0  0  2  0  0  0  0  0  0  0  0  0
   26.4423  -21.0504  -12.7741 N   0  0  0  0  0  0  0  0  0  0  0  0
   26.1107  -21.5182  -10.4229 C   0  0  0  0  0  0  0  0  0  0  0  0
   26.1991  -21.3220   -9.0720 O   0  0  0  0  0  0  0  0  0  0  0  0
   23.8202  -19.6262  -13.0239 C   0  0  0  0  0  0  0  0  0  0  0  0
   22.5313  -19.9243  -13.4461 C   0  0  0  0  0  0  0  0  0  0  0  0
   25.6933  -22.6675  -10.8002 O   0  0  0  0  0  0  0  0  0  0  0  0
  2  1  1  1
  3  2  1  0
  4  6  1  0
  4  2  1  0
  5  4  2  0
  6 10  1  0
  7  6  1  0
  7  8  1  0
  8  9  1  0
  9 10  1  0
 10 11  1  1
 11 12  2  0
 13 14  1  0
 14 15  2  0
 15 16  1  0
 17 18  1  0
 17 16  2  0
 19 18  1  6
 19 21  1  0
 20 19  1  0
 20 11  1  0
 21 22  1  0
 23 17  1  0
 24 23  2  0
 24 14  1  0
 25 21  2  0
M  END
$$$$
