APY.pdb
     RDKit          3D

 25 26  0  0  1  0  0  0  0  0999 V2000
   23.9853  -21.1562  -18.1226 C   0  0  0  0  0  0  0  0  0  0  0  0
   24.2918  -19.7037  -17.8170 C   0  0  2  0  0  0  0  0  0  0  0  0
   25.7011  -19.5197  -17.9359 N   0  0  0  0  0  0  0  0  0  0  0  0
   23.6733  -19.2373  -16.5788 C   0  0  0  0  0  0  0  0  0  0  0  0
   24.2178  -19.4935  -15.4553 O   0  0  0  0  0  0  0  0  0  0  0  0
   22.4450  -18.4777  -16.5080 N   0  0  0  0  0  0  0  0  0  0  0  0
   21.8266  -17.9666  -17.6856 C   0  0  0  0  0  0  0  0  0  0  0  0
   20.5135  -17.3976  -17.2431 C   0  0  0  0  0  0  0  0  0  0  0  0
   20.3563  -17.7117  -15.7979 C   0  0  0  0  0  0  0  0  0  0  0  0
   21.7185  -18.1202  -15.3500 C   0  0  1  0  0  0  0  0  0  0  0  0
   21.5812  -19.2034  -14.3243 C   0  0  0  0  0  0  0  0  0  0  0  0
   21.3869  -20.3905  -14.6529 O   0  0  0  0  0  0  0  0  0  0  0  0
   21.1334  -23.0299   -6.4253 O   0  0  0  0  0  0  0  0  0  0  0  0
   21.2959  -22.0914   -7.4284 C   0  0  0  0  0  0  0  0  0  0  0  0
   20.1963  -21.5100   -7.9883 C   0  0  0  0  0  0  0  0  0  0  0  0
   20.3300  -20.5621   -9.0000 C   0  0  0  0  0  0  0  0  0  0  0  0
   21.5702  -20.1912   -9.4561 C   0  0  0  0  0  0  0  0  0  0  0  0
   21.7386  -19.2196  -10.5353 C   0  0  0  0  0  0  0  0  0  0  0  0
   21.4632  -19.8461  -11.8670 C   0  0  2  0  0  0  0  0  0  0  0  0
   21.6748  -18.8781  -12.9454 N   0  0  0  0  0  0  0  0  0  0  0  0
   20.1129  -20.4060  -11.9049 C   0  0  0  0  0  0  0  0  0  0  0  0
   18.9888  -19.6626  -12.1393 O   0  0  0  0  0  0  0  0  0  0  0  0
   22.6626  -20.7876   -8.8805 C   0  0  0  0  0  0  0  0  0  0  0  0
   22.5520  -21.7346   -7.8708 C   0  0  0  0  0  0  0  0  0  0  0  0
   19.9311  -21.6574  -11.7091 O   0  0  0  0  0  0  0  0  0  0  0  0
  2  1  1  1
  3  2  1  0
  4  6  1  0
  4  2  1  0
  5  4  2  0
  6 10  1  0
  7  6  1  0
  7  8  1  0
  8  9  1  0
  9 10  1  0
 10 11  1  1
 11 12  2  0
 13 14  1  0
 14 15  2  0
 15 16  1  0
 17 18  1  0
 17 16  2  0
 19 18  1  1
 19 21  1  0
 20 19  1  0
 20 11  1  0
 21 22  1  0
 23 17  1  0
 24 23  2  0
 24 14  1  0
 25 21  2  0
M  END
$$$$
