APY.pdb
     RDKit          3D

 25 26  0  0  1  0  0  0  0  0999 V2000
   23.6042  -13.0224  -19.1990 C   0  0  0  0  0  0  0  0  0  0  0  0
   24.0334  -13.4002  -17.7953 C   0  0  2  0  0  0  0  0  0  0  0  0
   23.2457  -14.5150  -17.3823 N   0  0  0  0  0  0  0  0  0  0  0  0
   24.0797  -12.2589  -16.8851 C   0  0  0  0  0  0  0  0  0  0  0  0
   22.9987  -11.7452  -16.4471 O   0  0  0  0  0  0  0  0  0  0  0  0
   25.2940  -11.6304  -16.4148 N   0  0  0  0  0  0  0  0  0  0  0  0
   26.5702  -12.2096  -16.6726 C   0  0  0  0  0  0  0  0  0  0  0  0
   27.5769  -11.2090  -16.1938 C   0  0  0  0  0  0  0  0  0  0  0  0
   26.8306   -9.9949  -15.7684 C   0  0  0  0  0  0  0  0  0  0  0  0
   25.4125  -10.4424  -15.6590 C   0  0  1  0  0  0  0  0  0  0  0  0
   24.5206   -9.3197  -16.0929 C   0  0  0  0  0  0  0  0  0  0  0  0
   24.1575   -9.1979  -17.2796 O   0  0  0  0  0  0  0  0  0  0  0  0
   18.6835   -2.7875  -15.6172 O   0  0  0  0  0  0  0  0  0  0  0  0
   19.5741   -3.7979  -15.3024 C   0  0  0  0  0  0  0  0  0  0  0  0
   19.3256   -5.0691  -15.7301 C   0  0  0  0  0  0  0  0  0  0  0  0
   20.2049   -6.1062  -15.4277 C   0  0  0  0  0  0  0  0  0  0  0  0
   21.3408   -5.8730  -14.6936 C   0  0  0  0  0  0  0  0  0  0  0  0
   22.2664   -6.9473  -14.3384 C   0  0  0  0  0  0  0  0  0  0  0  0
   23.2124   -7.2322  -15.4635 C   0  0  2  0  0  0  0  0  0  0  0  0
   24.0741   -8.3703  -15.1363 N   0  0  0  0  0  0  0  0  0  0  0  0
   23.9959   -6.0424  -15.7933 C   0  0  0  0  0  0  0  0  0  0  0  0
   23.6562   -5.1592  -16.7811 O   0  0  0  0  0  0  0  0  0  0  0  0
   21.5719   -4.5884  -14.2729 C   0  0  0  0  0  0  0  0  0  0  0  0
   20.7089   -3.5400  -14.5631 C   0  0  0  0  0  0  0  0  0  0  0  0
   25.0680   -5.7800  -15.1459 O   0  0  0  0  0  0  0  0  0  0  0  0
  2  1  1  6
  3  2  1  0
  4  6  1  0
  4  2  1  0
  5  4  2  0
  6 10  1  0
  7  6  1  0
  7  8  1  0
  8  9  1  0
  9 10  1  0
 10 11  1  6
 11 12  2  0
 13 14  1  0
 14 15  2  0
 15 16  1  0
 17 18  1  0
 17 16  2  0
 19 18  1  1
 19 21  1  0
 20 19  1  0
 20 11  1  0
 21 22  1  0
 23 17  1  0
 24 23  2  0
 24 14  1  0
 25 21  2  0
M  END
$$$$
