APY.pdb
     RDKit          3D

 25 26  0  0  1  0  0  0  0  0999 V2000
   23.9312  -19.6161  -15.6794 C   0  0  0  0  0  0  0  0  0  0  0  0
   25.0797  -20.5699  -15.9411 C   0  0  2  0  0  0  0  0  0  0  0  0
   24.5908  -21.6276  -16.7635 N   0  0  0  0  0  0  0  0  0  0  0  0
   25.7868  -20.9606  -14.7244 C   0  0  0  0  0  0  0  0  0  0  0  0
   25.3374  -21.9071  -13.9987 O   0  0  0  0  0  0  0  0  0  0  0  0
   27.0043  -20.3442  -14.2465 N   0  0  0  0  0  0  0  0  0  0  0  0
   27.7733  -19.4862  -15.0850 C   0  0  0  0  0  0  0  0  0  0  0  0
   28.8444  -18.9122  -14.2091 C   0  0  0  0  0  0  0  0  0  0  0  0
   28.5828  -19.3790  -12.8214 C   0  0  0  0  0  0  0  0  0  0  0  0
   27.6049  -20.4939  -12.9762 C   0  0  1  0  0  0  0  0  0  0  0  0
   26.6574  -20.4651  -11.8162 C   0  0  0  0  0  0  0  0  0  0  0  0
   25.5859  -19.8293  -11.8663 O   0  0  0  0  0  0  0  0  0  0  0  0
   29.3323  -18.3154   -4.8862 O   0  0  0  0  0  0  0  0  0  0  0  0
   28.6920  -19.2057   -5.7292 C   0  0  0  0  0  0  0  0  0  0  0  0
   29.2768  -20.4065   -6.0066 C   0  0  0  0  0  0  0  0  0  0  0  0
   28.6549  -21.3222   -6.8521 C   0  0  0  0  0  0  0  0  0  0  0  0
   27.4404  -21.0380   -7.4245 C   0  0  0  0  0  0  0  0  0  0  0  0
   26.7786  -21.9688   -8.3369 C   0  0  0  0  0  0  0  0  0  0  0  0
   26.1073  -21.2347   -9.4561 C   0  0  2  0  0  0  0  0  0  0  0  0
   26.9801  -21.1767  -10.6307 N   0  0  0  0  0  0  0  0  0  0  0  0
   25.6973  -19.8990   -9.0249 C   0  0  0  0  0  0  0  0  0  0  0  0
   24.4864  -19.6247   -8.4507 O   0  0  0  0  0  0  0  0  0  0  0  0
   26.8698  -19.8255   -7.1332 C   0  0  0  0  0  0  0  0  0  0  0  0
   27.4722  -18.8982   -6.2932 C   0  0  0  0  0  0  0  0  0  0  0  0
   26.4869  -18.9040   -9.1795 O   0  0  0  0  0  0  0  0  0  0  0  0
  2  1  1  1
  3  2  1  0
  4  6  1  0
  4  2  1  0
  5  4  2  0
  6 10  1  0
  7  6  1  0
  7  8  1  0
  8  9  1  0
  9 10  1  0
 10 11  1  1
 11 12  2  0
 13 14  1  0
 14 15  2  0
 15 16  1  0
 17 18  1  0
 17 16  2  0
 19 18  1  1
 19 21  1  0
 20 19  1  0
 20 11  1  0
 21 22  1  0
 23 17  1  0
 24 23  2  0
 24 14  1  0
 25 21  2  0
M  END
$$$$
