APY.pdb
     RDKit          3D

 25 26  0  0  1  0  0  0  0  0999 V2000
   28.1258  -17.3717  -14.2496 C   0  0  0  0  0  0  0  0  0  0  0  0
   26.8922  -18.0710  -14.7850 C   0  0  2  0  0  0  0  0  0  0  0  0
   26.0736  -17.0898  -15.4183 N   0  0  0  0  0  0  0  0  0  0  0  0
   26.2426  -18.9235  -13.7928 C   0  0  0  0  0  0  0  0  0  0  0  0
   25.5910  -18.4023  -12.8294 O   0  0  0  0  0  0  0  0  0  0  0  0
   26.2728  -20.3691  -13.8040 N   0  0  0  0  0  0  0  0  0  0  0  0
   26.6415  -21.0886  -14.9774 C   0  0  0  0  0  0  0  0  0  0  0  0
   26.7235  -22.5265  -14.5657 C   0  0  0  0  0  0  0  0  0  0  0  0
   26.5077  -22.5818  -13.0952 C   0  0  0  0  0  0  0  0  0  0  0  0
   25.9449  -21.2461  -12.7458 C   0  0  1  0  0  0  0  0  0  0  0  0
   26.4657  -20.8434  -11.4001 C   0  0  0  0  0  0  0  0  0  0  0  0
   27.6498  -20.4868  -11.2403 O   0  0  0  0  0  0  0  0  0  0  0  0
   29.1725  -19.3995   -3.5645 O   0  0  0  0  0  0  0  0  0  0  0  0
   28.5714  -19.4000   -4.8103 C   0  0  0  0  0  0  0  0  0  0  0  0
   27.2932  -19.8587   -4.9388 C   0  0  0  0  0  0  0  0  0  0  0  0
   26.6631  -19.8709   -6.1810 C   0  0  0  0  0  0  0  0  0  0  0  0
   27.3131  -19.4216   -7.3031 C   0  0  0  0  0  0  0  0  0  0  0  0
   26.6859  -19.4487   -8.6233 C   0  0  0  0  0  0  0  0  0  0  0  0
   26.0598  -20.7823   -8.8908 C   0  0  2  0  0  0  0  0  0  0  0  0
   25.5965  -20.8650  -10.2776 N   0  0  0  0  0  0  0  0  0  0  0  0
   24.9749  -21.0424   -7.9455 C   0  0  0  0  0  0  0  0  0  0  0  0
   25.1424  -21.7061   -6.7611 O   0  0  0  0  0  0  0  0  0  0  0  0
   28.5974  -18.9651   -7.1526 C   0  0  0  0  0  0  0  0  0  0  0  0
   29.2442  -18.9440   -5.9239 C   0  0  0  0  0  0  0  0  0  0  0  0
   23.7868  -20.6454   -8.2067 O   0  0  0  0  0  0  0  0  0  0  0  0
  2  1  1  1
  3  2  1  0
  4  6  1  0
  4  2  1  0
  5  4  2  0
  6 10  1  0
  7  6  1  0
  7  8  1  0
  8  9  1  0
  9 10  1  0
 10 11  1  1
 11 12  2  0
 13 14  1  0
 14 15  2  0
 15 16  1  0
 17 18  1  0
 17 16  2  0
 19 18  1  1
 19 21  1  0
 20 19  1  0
 20 11  1  0
 21 22  1  0
 23 17  1  0
 24 23  2  0
 24 14  1  0
 25 21  2  0
M  END
$$$$
