APY.pdb
     RDKit          3D

 25 26  0  0  1  0  0  0  0  0999 V2000
   22.7527  -19.2145  -16.2528 C   0  0  0  0  0  0  0  0  0  0  0  0
   23.9370  -19.9550  -16.8413 C   0  0  2  0  0  0  0  0  0  0  0  0
   23.4383  -20.8851  -17.8006 N   0  0  0  0  0  0  0  0  0  0  0  0
   24.8420  -20.4853  -15.8250 C   0  0  0  0  0  0  0  0  0  0  0  0
   24.5755  -21.5873  -15.2428 O   0  0  0  0  0  0  0  0  0  0  0  0
   26.0671  -19.8457  -15.3999 N   0  0  0  0  0  0  0  0  0  0  0  0
   26.6487  -18.7901  -16.1602 C   0  0  0  0  0  0  0  0  0  0  0  0
   27.7876  -18.2729  -15.3361 C   0  0  0  0  0  0  0  0  0  0  0  0
   27.7559  -18.9891  -14.0331 C   0  0  0  0  0  0  0  0  0  0  0  0
   26.8480  -20.1494  -14.2621 C   0  0  1  0  0  0  0  0  0  0  0  0
   26.0717  -20.4060  -13.0068 C   0  0  0  0  0  0  0  0  0  0  0  0
   24.9649  -19.8685  -12.8043 O   0  0  0  0  0  0  0  0  0  0  0  0
   26.8401  -19.4284   -4.5359 O   0  0  0  0  0  0  0  0  0  0  0  0
   27.0275  -19.8931   -5.8252 C   0  0  0  0  0  0  0  0  0  0  0  0
   27.8532  -19.2122   -6.6708 C   0  0  0  0  0  0  0  0  0  0  0  0
   28.0604  -19.6570   -7.9744 C   0  0  0  0  0  0  0  0  0  0  0  0
   27.4394  -20.7900   -8.4374 C   0  0  0  0  0  0  0  0  0  0  0  0
   27.6172  -21.2639   -9.8088 C   0  0  0  0  0  0  0  0  0  0  0  0
   26.3442  -21.1389  -10.5873 C   0  0  2  0  0  0  0  0  0  0  0  0
   26.6018  -21.2807  -12.0220 N   0  0  0  0  0  0  0  0  0  0  0  0
   25.6754  -19.8744  -10.2839 C   0  0  0  0  0  0  0  0  0  0  0  0
   24.4633  -19.7880   -9.6557 O   0  0  0  0  0  0  0  0  0  0  0  0
   26.6131  -21.4596   -7.5718 C   0  0  0  0  0  0  0  0  0  0  0  0
   26.3926  -21.0338   -6.2685 C   0  0  0  0  0  0  0  0  0  0  0  0
   26.2215  -18.7646  -10.6117 O   0  0  0  0  0  0  0  0  0  0  0  0
  2  1  1  1
  3  2  1  0
  4  6  1  0
  4  2  1  0
  5  4  2  0
  6 10  1  0
  7  6  1  0
  7  8  1  0
  8  9  1  0
  9 10  1  0
 10 11  1  1
 11 12  2  0
 13 14  1  0
 14 15  2  0
 15 16  1  0
 17 18  1  0
 17 16  2  0
 19 18  1  1
 19 21  1  0
 20 19  1  0
 20 11  1  0
 21 22  1  0
 23 17  1  0
 24 23  2  0
 24 14  1  0
 25 21  2  0
M  END
$$$$
