APY.pdb
     RDKit          3D

 25 26  0  0  1  0  0  0  0  0999 V2000
   25.3674  -13.6846  -15.4153 C   0  0  0  0  0  0  0  0  0  0  0  0
   25.1813  -14.2981  -16.7887 C   0  0  2  0  0  0  0  0  0  0  0  0
   23.8305  -14.0746  -17.1881 N   0  0  0  0  0  0  0  0  0  0  0  0
   25.6691  -15.6723  -16.8717 C   0  0  0  0  0  0  0  0  0  0  0  0
   24.9904  -16.6242  -16.3640 O   0  0  0  0  0  0  0  0  0  0  0  0
   26.9068  -16.0691  -17.5052 N   0  0  0  0  0  0  0  0  0  0  0  0
   27.5989  -15.1876  -18.3853 C   0  0  0  0  0  0  0  0  0  0  0  0
   28.8970  -15.8642  -18.7030 C   0  0  0  0  0  0  0  0  0  0  0  0
   28.9685  -17.1003  -17.8790 C   0  0  0  0  0  0  0  0  0  0  0  0
   27.5759  -17.3082  -17.3887 C   0  0  1  0  0  0  0  0  0  0  0  0
   27.6349  -17.8724  -16.0022 C   0  0  0  0  0  0  0  0  0  0  0  0
   27.9941  -17.1774  -15.0312 O   0  0  0  0  0  0  0  0  0  0  0  0
   25.0839  -21.4067   -8.6783 O   0  0  0  0  0  0  0  0  0  0  0  0
   25.2927  -20.8348   -9.9203 C   0  0  0  0  0  0  0  0  0  0  0  0
   24.4980  -21.1968  -10.9682 C   0  0  0  0  0  0  0  0  0  0  0  0
   24.6856  -20.6373  -12.2299 C   0  0  0  0  0  0  0  0  0  0  0  0
   25.6731  -19.7093  -12.4474 C   0  0  0  0  0  0  0  0  0  0  0  0
   25.9099  -19.1268  -13.7671 C   0  0  0  0  0  0  0  0  0  0  0  0
   27.0559  -19.8036  -14.4529 C   0  0  2  0  0  0  0  0  0  0  0  0
   27.2739  -19.2277  -15.7817 N   0  0  0  0  0  0  0  0  0  0  0  0
   26.8360  -21.2476  -14.5226 C   0  0  0  0  0  0  0  0  0  0  0  0
   27.4330  -22.1481  -13.6836 O   0  0  0  0  0  0  0  0  0  0  0  0
   26.4612  -19.3594  -11.3811 C   0  0  0  0  0  0  0  0  0  0  0  0
   26.2914  -19.9046  -10.1153 C   0  0  0  0  0  0  0  0  0  0  0  0
   26.0502  -21.7353  -15.4070 O   0  0  0  0  0  0  0  0  0  0  0  0
  2  1  1  1
  3  2  1  0
  4  6  1  0
  4  2  1  0
  5  4  2  0
  6 10  1  0
  7  6  1  0
  7  8  1  0
  8  9  1  0
  9 10  1  0
 10 11  1  1
 11 12  2  0
 13 14  1  0
 14 15  2  0
 15 16  1  0
 17 18  1  0
 17 16  2  0
 19 18  1  6
 19 21  1  0
 20 19  1  0
 20 11  1  0
 21 22  1  0
 23 17  1  0
 24 23  2  0
 24 14  1  0
 25 21  2  0
M  END
$$$$
