APY.pdb
     RDKit          3D

 25 26  0  0  1  0  0  0  0  0999 V2000
   25.3835  -21.3229  -17.7659 C   0  0  0  0  0  0  0  0  0  0  0  0
   26.8600  -21.3996  -17.4322 C   0  0  2  0  0  0  0  0  0  0  0  0
   27.3815  -22.5867  -18.0261 N   0  0  0  0  0  0  0  0  0  0  0  0
   27.1358  -21.2034  -16.0114 C   0  0  0  0  0  0  0  0  0  0  0  0
   27.1197  -22.1968  -15.2131 O   0  0  0  0  0  0  0  0  0  0  0  0
   27.4386  -19.9283  -15.4005 N   0  0  0  0  0  0  0  0  0  0  0  0
   27.7584  -18.7891  -16.1945 C   0  0  0  0  0  0  0  0  0  0  0  0
   27.8394  -17.6366  -15.2410 C   0  0  0  0  0  0  0  0  0  0  0  0
   27.4363  -18.1386  -13.9003 C   0  0  0  0  0  0  0  0  0  0  0  0
   27.4891  -19.6237  -14.0216 C   0  0  1  0  0  0  0  0  0  0  0  0
   26.3841  -20.2116  -13.1985 C   0  0  0  0  0  0  0  0  0  0  0  0
   25.2160  -20.2788  -13.6296 O   0  0  0  0  0  0  0  0  0  0  0  0
   28.0612  -18.3753   -6.0848 O   0  0  0  0  0  0  0  0  0  0  0  0
   27.6336  -19.2958   -7.0246 C   0  0  0  0  0  0  0  0  0  0  0  0
   28.5426  -20.1235   -7.6155 C   0  0  0  0  0  0  0  0  0  0  0  0
   28.1404  -21.0597   -8.5652 C   0  0  0  0  0  0  0  0  0  0  0  0
   26.8213  -21.1712   -8.9274 C   0  0  0  0  0  0  0  0  0  0  0  0
   26.3756  -22.1257   -9.9409 C   0  0  0  0  0  0  0  0  0  0  0  0
   25.6921  -21.4237  -11.0731 C   0  0  2  0  0  0  0  0  0  0  0  0
   26.6667  -20.7065  -11.8980 N   0  0  0  0  0  0  0  0  0  0  0  0
   24.6502  -20.5285  -10.5719 C   0  0  0  0  0  0  0  0  0  0  0  0
   24.7602  -19.1650  -10.5628 O   0  0  0  0  0  0  0  0  0  0  0  0
   25.9237  -20.3297   -8.3220 C   0  0  0  0  0  0  0  0  0  0  0  0
   26.3030  -19.3895   -7.3730 C   0  0  0  0  0  0  0  0  0  0  0  0
   23.5606  -21.0098  -10.1043 O   0  0  0  0  0  0  0  0  0  0  0  0
  2  1  1  1
  3  2  1  0
  4  6  1  0
  4  2  1  0
  5  4  2  0
  6 10  1  0
  7  6  1  0
  7  8  1  0
  8  9  1  0
  9 10  1  0
 10 11  1  1
 11 12  2  0
 13 14  1  0
 14 15  2  0
 15 16  1  0
 17 18  1  0
 17 16  2  0
 19 18  1  1
 19 21  1  0
 20 19  1  0
 20 11  1  0
 21 22  1  0
 23 17  1  0
 24 23  2  0
 24 14  1  0
 25 21  2  0
M  END
$$$$
