APY.pdb
     RDKit          3D

 25 26  0  0  1  0  0  0  0  0999 V2000
   22.2485   -6.1856  -21.6127 C   0  0  0  0  0  0  0  0  0  0  0  0
   23.3127   -6.1481  -20.5342 C   0  0  2  0  0  0  0  0  0  0  0  0
   23.2858   -7.3990  -19.8497 N   0  0  0  0  0  0  0  0  0  0  0  0
   23.2447   -4.9473  -19.7056 C   0  0  0  0  0  0  0  0  0  0  0  0
   22.5185   -4.9326  -18.6583 O   0  0  0  0  0  0  0  0  0  0  0  0
   23.9577   -3.7190  -19.9770 N   0  0  0  0  0  0  0  0  0  0  0  0
   24.9497   -3.6538  -20.9979 C   0  0  0  0  0  0  0  0  0  0  0  0
   25.3361   -2.2101  -21.1000 C   0  0  0  0  0  0  0  0  0  0  0  0
   24.4440   -1.4447  -20.1888 C   0  0  0  0  0  0  0  0  0  0  0  0
   23.8211   -2.4788  -19.3138 C   0  0  1  0  0  0  0  0  0  0  0  0
   22.4118   -2.0682  -19.0147 C   0  0  0  0  0  0  0  0  0  0  0  0
   21.4747   -2.3446  -19.7894 O   0  0  0  0  0  0  0  0  0  0  0  0
   14.8274    0.0044  -15.6212 O   0  0  0  0  0  0  0  0  0  0  0  0
   16.0839   -0.4805  -15.9364 C   0  0  0  0  0  0  0  0  0  0  0  0
   17.0457   -0.5313  -14.9704 C   0  0  0  0  0  0  0  0  0  0  0  0
   18.3196   -1.0147  -15.2595 C   0  0  0  0  0  0  0  0  0  0  0  0
   18.6360   -1.4512  -16.5216 C   0  0  0  0  0  0  0  0  0  0  0  0
   19.9725   -1.9374  -16.8594 C   0  0  0  0  0  0  0  0  0  0  0  0
   20.7984   -0.8495  -17.4729 C   0  0  2  0  0  0  0  0  0  0  0  0
   22.1298   -1.3489  -17.8234 N   0  0  0  0  0  0  0  0  0  0  0  0
   20.8759    0.3059  -16.5800 C   0  0  0  0  0  0  0  0  0  0  0  0
   21.9544    0.5799  -15.7844 O   0  0  0  0  0  0  0  0  0  0  0  0
   17.6553   -1.3914  -17.4782 C   0  0  0  0  0  0  0  0  0  0  0  0
   16.3790   -0.9133  -17.2117 C   0  0  0  0  0  0  0  0  0  0  0  0
   19.8982    1.1284  -16.5083 O   0  0  0  0  0  0  0  0  0  0  0  0
  2  1  1  6
  3  2  1  0
  4  6  1  0
  4  2  1  0
  5  4  2  0
  6 10  1  0
  7  6  1  0
  7  8  1  0
  8  9  1  0
  9 10  1  0
 10 11  1  6
 11 12  2  0
 13 14  1  0
 14 15  2  0
 15 16  1  0
 17 18  1  0
 17 16  2  0
 19 18  1  1
 19 21  1  0
 20 19  1  0
 20 11  1  0
 21 22  1  0
 23 17  1  0
 24 23  2  0
 24 14  1  0
 25 21  2  0
M  END
$$$$
