APY.pdb
     RDKit          3D

 25 26  0  0  1  0  0  0  0  0999 V2000
   28.4692  -17.7775  -14.4004 C   0  0  0  0  0  0  0  0  0  0  0  0
   27.0565  -18.1238  -14.8267 C   0  0  2  0  0  0  0  0  0  0  0  0
   26.3986  -16.9107  -15.1864 N   0  0  0  0  0  0  0  0  0  0  0  0
   26.3654  -18.9840  -13.8698 C   0  0  0  0  0  0  0  0  0  0  0  0
   25.8549  -18.4857  -12.8136 O   0  0  0  0  0  0  0  0  0  0  0  0
   26.2003  -20.4128  -14.0177 N   0  0  0  0  0  0  0  0  0  0  0  0
   26.3835  -21.0483  -15.2800 C   0  0  0  0  0  0  0  0  0  0  0  0
   26.3011  -22.5197  -15.0120 C   0  0  0  0  0  0  0  0  0  0  0  0
   26.1865  -22.6987  -13.5400 C   0  0  0  0  0  0  0  0  0  0  0  0
   25.8348  -21.3458  -13.0214 C   0  0  1  0  0  0  0  0  0  0  0  0
   26.5007  -21.1532  -11.6934 C   0  0  0  0  0  0  0  0  0  0  0  0
   27.7421  -21.1768  -11.5779 O   0  0  0  0  0  0  0  0  0  0  0  0
   29.3834  -19.6204   -3.8103 O   0  0  0  0  0  0  0  0  0  0  0  0
   28.8458  -19.6596   -5.0842 C   0  0  0  0  0  0  0  0  0  0  0  0
   29.2396  -20.6380   -5.9492 C   0  0  0  0  0  0  0  0  0  0  0  0
   28.7150  -20.7017   -7.2380 C   0  0  0  0  0  0  0  0  0  0  0  0
   27.7902  -19.7826   -7.6665 C   0  0  0  0  0  0  0  0  0  0  0  0
   27.2440  -19.8094   -9.0222 C   0  0  0  0  0  0  0  0  0  0  0  0
   26.2452  -20.9145   -9.1749 C   0  0  2  0  0  0  0  0  0  0  0  0
   25.7064  -20.9373  -10.5365 N   0  0  0  0  0  0  0  0  0  0  0  0
   25.1822  -20.7910   -8.1784 C   0  0  0  0  0  0  0  0  0  0  0  0
   25.2726  -21.2857   -6.9062 O   0  0  0  0  0  0  0  0  0  0  0  0
   27.4080  -18.8070   -6.7818 C   0  0  0  0  0  0  0  0  0  0  0  0
   27.9181  -18.7252   -5.4929 C   0  0  0  0  0  0  0  0  0  0  0  0
   24.0891  -20.1963   -8.4762 O   0  0  0  0  0  0  0  0  0  0  0  0
  2  1  1  1
  3  2  1  0
  4  6  1  0
  4  2  1  0
  5  4  2  0
  6 10  1  0
  7  6  1  0
  7  8  1  0
  8  9  1  0
  9 10  1  0
 10 11  1  1
 11 12  2  0
 13 14  1  0
 14 15  2  0
 15 16  1  0
 17 18  1  0
 17 16  2  0
 19 18  1  6
 19 21  1  0
 20 19  1  0
 20 11  1  0
 21 22  1  0
 23 17  1  0
 24 23  2  0
 24 14  1  0
 25 21  2  0
M  END
$$$$
