APY.pdb
     RDKit          3D

 25 26  0  0  1  0  0  0  0  0999 V2000
   24.6798  -18.5857  -18.1391 C   0  0  0  0  0  0  0  0  0  0  0  0
   25.8903  -19.4910  -18.0288 C   0  0  2  0  0  0  0  0  0  0  0  0
   25.8636  -20.3934  -19.1329 N   0  0  0  0  0  0  0  0  0  0  0  0
   26.0415  -20.0841  -16.7027 C   0  0  0  0  0  0  0  0  0  0  0  0
   25.2487  -21.0054  -16.3193 O   0  0  0  0  0  0  0  0  0  0  0  0
   27.0536  -19.7046  -15.7422 N   0  0  0  0  0  0  0  0  0  0  0  0
   28.1462  -18.8694  -16.1153 C   0  0  0  0  0  0  0  0  0  0  0  0
   28.8747  -18.5581  -14.8440 C   0  0  0  0  0  0  0  0  0  0  0  0
   28.0893  -19.1445  -13.7254 C   0  0  0  0  0  0  0  0  0  0  0  0
   27.1389  -20.0857  -14.3842 C   0  0  1  0  0  0  0  0  0  0  0  0
   25.8429  -20.0622  -13.6333 C   0  0  0  0  0  0  0  0  0  0  0  0
   24.9968  -19.1660  -13.8227 O   0  0  0  0  0  0  0  0  0  0  0  0
   19.8460  -22.4226   -7.5862 O   0  0  0  0  0  0  0  0  0  0  0  0
   20.9579  -22.3884   -8.4083 C   0  0  0  0  0  0  0  0  0  0  0  0
   20.8062  -22.5767   -9.7507 C   0  0  0  0  0  0  0  0  0  0  0  0
   21.9081  -22.5475  -10.6023 C   0  0  0  0  0  0  0  0  0  0  0  0
   23.1705  -22.3282  -10.1107 C   0  0  0  0  0  0  0  0  0  0  0  0
   24.3475  -22.3199  -10.9776 C   0  0  0  0  0  0  0  0  0  0  0  0
   24.3973  -21.0698  -11.8002 C   0  0  2  0  0  0  0  0  0  0  0  0
   25.5649  -21.0809  -12.6842 N   0  0  0  0  0  0  0  0  0  0  0  0
   24.3845  -19.8860  -10.9419 C   0  0  0  0  0  0  0  0  0  0  0  0
   25.4793  -19.4307  -10.2597 O   0  0  0  0  0  0  0  0  0  0  0  0
   23.3015  -22.1417   -8.7584 C   0  0  0  0  0  0  0  0  0  0  0  0
   22.2168  -22.1667   -7.8918 C   0  0  0  0  0  0  0  0  0  0  0  0
   23.3064  -19.2132  -10.7923 O   0  0  0  0  0  0  0  0  0  0  0  0
  2  1  1  1
  3  2  1  0
  4  6  1  0
  4  2  1  0
  5  4  2  0
  6 10  1  0
  7  6  1  0
  7  8  1  0
  8  9  1  0
  9 10  1  0
 10 11  1  1
 11 12  2  0
 13 14  1  0
 14 15  2  0
 15 16  1  0
 17 18  1  0
 17 16  2  0
 19 18  1  1
 19 21  1  0
 20 19  1  0
 20 11  1  0
 21 22  1  0
 23 17  1  0
 24 23  2  0
 24 14  1  0
 25 21  2  0
M  END
$$$$
