APY.pdb
     RDKit          3D

 25 26  0  0  1  0  0  0  0  0999 V2000
   25.7474  -21.5219  -18.1937 C   0  0  0  0  0  0  0  0  0  0  0  0
   27.1731  -21.6759  -17.7030 C   0  0  2  0  0  0  0  0  0  0  0  0
   27.6734  -22.9173  -18.1956 N   0  0  0  0  0  0  0  0  0  0  0  0
   27.3129  -21.4370  -16.2689 C   0  0  0  0  0  0  0  0  0  0  0  0
   27.2049  -22.4037  -15.4454 O   0  0  0  0  0  0  0  0  0  0  0  0
   27.5740  -20.1464  -15.6715 N   0  0  0  0  0  0  0  0  0  0  0  0
   27.9751  -19.0344  -16.4672 C   0  0  0  0  0  0  0  0  0  0  0  0
   27.9836  -17.8542  -15.5447 C   0  0  0  0  0  0  0  0  0  0  0  0
   27.4579  -18.3120  -14.2309 C   0  0  0  0  0  0  0  0  0  0  0  0
   27.5053  -19.8005  -14.3032 C   0  0  1  0  0  0  0  0  0  0  0  0
   26.3254  -20.3542  -13.5646 C   0  0  0  0  0  0  0  0  0  0  0  0
   25.1847  -20.3569  -14.0682 O   0  0  0  0  0  0  0  0  0  0  0  0
   28.1595  -18.5090   -6.6136 O   0  0  0  0  0  0  0  0  0  0  0  0
   27.6381  -19.4135   -7.5211 C   0  0  0  0  0  0  0  0  0  0  0  0
   26.2854  -19.5533   -7.6277 C   0  0  0  0  0  0  0  0  0  0  0  0
   25.7327  -20.4564   -8.5327 C   0  0  0  0  0  0  0  0  0  0  0  0
   26.5356  -21.2252   -9.3376 C   0  0  0  0  0  0  0  0  0  0  0  0
   25.9832  -22.2003  -10.2762 C   0  0  0  0  0  0  0  0  0  0  0  0
   25.4299  -21.5204  -11.4901 C   0  0  2  0  0  0  0  0  0  0  0  0
   26.5034  -20.8907  -12.2621 N   0  0  0  0  0  0  0  0  0  0  0  0
   24.3989  -20.5534  -11.1157 C   0  0  0  0  0  0  0  0  0  0  0  0
   23.1179  -20.8995  -10.7835 O   0  0  0  0  0  0  0  0  0  0  0  0
   27.8926  -21.0698   -9.2146 C   0  0  0  0  0  0  0  0  0  0  0  0
   28.4645  -20.1756   -8.3192 C   0  0  0  0  0  0  0  0  0  0  0  0
   24.6708  -19.3033  -11.0886 O   0  0  0  0  0  0  0  0  0  0  0  0
  2  1  1  1
  3  2  1  0
  4  6  1  0
  4  2  1  0
  5  4  2  0
  6 10  1  0
  7  6  1  0
  7  8  1  0
  8  9  1  0
  9 10  1  0
 10 11  1  6
 11 12  2  0
 13 14  1  0
 14 15  2  0
 15 16  1  0
 17 18  1  0
 17 16  2  0
 19 18  1  1
 19 21  1  0
 20 19  1  0
 20 11  1  0
 21 22  1  0
 23 17  1  0
 24 23  2  0
 24 14  1  0
 25 21  2  0
M  END
$$$$
