APY.pdb
     RDKit          3D

 25 26  0  0  1  0  0  0  0  0999 V2000
   23.0619  -19.0988  -14.9759 C   0  0  0  0  0  0  0  0  0  0  0  0
   24.1849  -19.9087  -15.5925 C   0  0  2  0  0  0  0  0  0  0  0  0
   23.6244  -20.7193  -16.6234 N   0  0  0  0  0  0  0  0  0  0  0  0
   25.0095  -20.5915  -14.5990 C   0  0  0  0  0  0  0  0  0  0  0  0
   24.5787  -21.6441  -14.0238 O   0  0  0  0  0  0  0  0  0  0  0  0
   26.3286  -20.1632  -14.1900 N   0  0  0  0  0  0  0  0  0  0  0  0
   27.0559  -19.1975  -14.9444 C   0  0  0  0  0  0  0  0  0  0  0  0
   28.2781  -18.8847  -14.1368 C   0  0  0  0  0  0  0  0  0  0  0  0
   28.1578  -19.6138  -12.8461 C   0  0  0  0  0  0  0  0  0  0  0  0
   27.0728  -20.6105  -13.0753 C   0  0  1  0  0  0  0  0  0  0  0  0
   26.2897  -20.7669  -11.8078 C   0  0  0  0  0  0  0  0  0  0  0  0
   25.1949  -20.1930  -11.6438 O   0  0  0  0  0  0  0  0  0  0  0  0
   28.0287  -19.4044   -3.4075 O   0  0  0  0  0  0  0  0  0  0  0  0
   28.0394  -19.7562   -4.7453 C   0  0  0  0  0  0  0  0  0  0  0  0
   28.5380  -20.9705   -5.1161 C   0  0  0  0  0  0  0  0  0  0  0  0
   28.5613  -21.3509   -6.4558 C   0  0  0  0  0  0  0  0  0  0  0  0
   28.0832  -20.5138   -7.4326 C   0  0  0  0  0  0  0  0  0  0  0  0
   28.1208  -20.8761   -8.8483 C   0  0  0  0  0  0  0  0  0  0  0  0
   26.7524  -21.2205   -9.3490 C   0  0  2  0  0  0  0  0  0  0  0  0
   26.7994  -21.5864  -10.7663 N   0  0  0  0  0  0  0  0  0  0  0  0
   25.8221  -20.1181   -9.1092 C   0  0  0  0  0  0  0  0  0  0  0  0
   24.7011  -20.2256   -8.3327 O   0  0  0  0  0  0  0  0  0  0  0  0
   27.5867  -19.2976   -7.0389 C   0  0  0  0  0  0  0  0  0  0  0  0
   27.5539  -18.8984   -5.7093 C   0  0  0  0  0  0  0  0  0  0  0  0
   26.0325  -18.9734   -9.6411 O   0  0  0  0  0  0  0  0  0  0  0  0
  2  1  1  1
  3  2  1  0
  4  6  1  0
  4  2  1  0
  5  4  2  0
  6 10  1  0
  7  6  1  0
  7  8  1  0
  8  9  1  0
  9 10  1  0
 10 11  1  1
 11 12  2  0
 13 14  1  0
 14 15  2  0
 15 16  1  0
 17 18  1  0
 17 16  2  0
 19 18  1  6
 19 21  1  0
 20 19  1  0
 20 11  1  0
 21 22  1  0
 23 17  1  0
 24 23  2  0
 24 14  1  0
 25 21  2  0
M  END
$$$$
