IED.pdb
     RDKit          3D

 26 25  0  0  1  0  0  0  0  0999 V2000
    8.8893  -12.2746   20.9376 C   0  0  0  0  0  0  0  0  0  0  0  0
    8.6604  -13.6538   21.5099 C   0  0  0  0  0  0  0  0  0  0  0  0
    8.1904  -14.6562   20.4927 C   0  0  2  0  0  0  0  0  0  0  0  0
    6.8799  -14.1342   19.9156 C   0  0  0  0  0  0  0  0  0  0  0  0
    8.0137  -16.0406   21.0464 C   0  0  2  0  0  0  0  0  0  0  0  0
    7.1919  -15.8767   22.2722 N   0  0  0  0  0  0  0  0  0  0  0  0
    9.2782  -16.6947   21.4793 C   0  0  0  0  0  0  0  0  0  0  0  0
    9.5864  -17.8036   20.9209 O   0  0  0  0  0  0  0  0  0  0  0  0
   10.1663  -16.2055   22.4419 N   0  0  0  0  0  0  0  0  0  0  0  0
   11.3988  -16.7541   22.8849 C   0  0  1  0  0  0  0  0  0  0  0  0
   12.6568  -15.9761   22.6056 C   0  0  0  0  0  0  0  0  0  0  0  0
   13.9352  -16.6441   22.9416 C   0  0  0  0  0  0  0  0  0  0  0  0
   15.0382  -15.7106   22.5056 C   0  0  0  0  0  0  0  0  0  0  0  0
   15.5766  -14.8946   23.2941 O   0  0  0  0  0  0  0  0  0  0  0  0
   11.3503  -17.1695   24.2781 C   0  0  0  0  0  0  0  0  0  0  0  0
   11.0207  -16.2927   25.1441 O   0  0  0  0  0  0  0  0  0  0  0  0
   15.5055  -15.7210   21.1917 O   0  0  0  0  0  0  0  0  0  0  0  0
   11.6330  -18.4558   24.7733 N   0  0  0  0  0  0  0  0  0  0  0  0
   11.5974  -18.8176   26.1772 C   0  0  1  0  0  0  0  0  0  0  0  0
   11.0662  -20.2479   26.3334 C   0  0  0  0  0  0  0  0  0  0  0  0
    9.6043  -20.3160   26.1152 C   0  0  0  0  0  0  0  0  0  0  0  0
    8.7849  -19.5994   26.7628 O   0  0  0  0  0  0  0  0  0  0  0  0
   12.9670  -18.6728   26.7196 C   0  0  0  0  0  0  0  0  0  0  0  0
   13.2084  -18.6817   28.1045 O   0  0  0  0  0  0  0  0  0  0  0  0
    9.0281  -21.1756   25.1795 O   0  0  0  0  0  0  0  0  0  0  0  0
   13.9934  -18.5341   26.0038 O   0  0  0  0  0  0  0  0  0  0  0  0
  2  1  1  0
  2  3  1  0
  3  4  1  1
  5  3  1  0
  5  6  1  1
  7  5  1  0
  8  7  2  0
  9  7  1  0
 10  9  1  0
 11 12  1  0
 10 11  1  1
 12 13  1  0
 13 17  1  0
 14 13  2  0
 15 10  1  0
 15 18  1  0
 16 15  2  0
 19 23  1  0
 19 18  1  0
 20 21  1  0
 19 20  1  6
 21 22  2  0
 23 24  1  0
 25 21  1  0
 26 23  2  0
M  END
$$$$
