IED.pdb
     RDKit          3D

 26 25  0  0  1  0  0  0  0  0999 V2000
    6.3840  -11.1972   27.1790 C   0  0  0  0  0  0  0  0  0  0  0  0
    5.8545  -12.3481   26.3562 C   0  0  0  0  0  0  0  0  0  0  0  0
    6.9170  -13.3250   25.9352 C   0  0  2  0  0  0  0  0  0  0  0  0
    7.9746  -12.5399   25.1684 C   0  0  0  0  0  0  0  0  0  0  0  0
    6.3959  -14.4641   25.1075 C   0  0  2  0  0  0  0  0  0  0  0  0
    5.4851  -15.2220   26.0026 N   0  0  0  0  0  0  0  0  0  0  0  0
    7.4389  -15.4285   24.6645 C   0  0  0  0  0  0  0  0  0  0  0  0
    7.8054  -16.3227   25.5028 O   0  0  0  0  0  0  0  0  0  0  0  0
    8.0557  -15.4500   23.4101 N   0  0  0  0  0  0  0  0  0  0  0  0
    8.9813  -16.3889   22.8827 C   0  0  1  0  0  0  0  0  0  0  0  0
    9.2607  -16.3479   21.4042 C   0  0  0  0  0  0  0  0  0  0  0  0
    8.0911  -16.4878   20.5065 C   0  0  0  0  0  0  0  0  0  0  0  0
    8.6138  -16.3759   19.0950 C   0  0  0  0  0  0  0  0  0  0  0  0
    9.8249  -16.1579   18.8438 O   0  0  0  0  0  0  0  0  0  0  0  0
   10.2230  -16.4262   23.6394 C   0  0  0  0  0  0  0  0  0  0  0  0
   10.7321  -15.3112   23.9932 O   0  0  0  0  0  0  0  0  0  0  0  0
    7.7573  -16.5123   18.0029 O   0  0  0  0  0  0  0  0  0  0  0  0
   10.9279  -17.5811   24.0255 N   0  0  0  0  0  0  0  0  0  0  0  0
   12.1294  -17.5725   24.8377 C   0  0  1  0  0  0  0  0  0  0  0  0
   12.1995  -18.8535   25.6779 C   0  0  0  0  0  0  0  0  0  0  0  0
   13.4836  -18.9617   26.4052 C   0  0  0  0  0  0  0  0  0  0  0  0
   13.8344  -18.1313   27.2949 O   0  0  0  0  0  0  0  0  0  0  0  0
   13.2913  -17.4406   23.9302 C   0  0  0  0  0  0  0  0  0  0  0  0
   13.2684  -17.9795   22.6319 O   0  0  0  0  0  0  0  0  0  0  0  0
   14.3967  -19.9876   26.1599 O   0  0  0  0  0  0  0  0  0  0  0  0
   14.3604  -16.8526   24.2409 O   0  0  0  0  0  0  0  0  0  0  0  0
  2  1  1  0
  2  3  1  0
  3  4  1  6
  5  3  1  0
  5  6  1  1
  7  5  1  0
  8  7  2  0
  9  7  1  0
 10  9  1  0
 11 12  1  0
 10 11  1  6
 12 13  1  0
 13 17  1  0
 14 13  2  0
 15 10  1  0
 15 18  1  0
 16 15  2  0
 19 23  1  0
 19 18  1  0
 20 21  1  0
 19 20  1  6
 21 22  2  0
 23 24  1  0
 25 21  1  0
 26 23  2  0
M  END
$$$$
