IED.pdb
     RDKit          3D

 26 25  0  0  1  0  0  0  0  0999 V2000
    7.0029  -11.1981   27.3264 C   0  0  0  0  0  0  0  0  0  0  0  0
    6.2926  -12.2903   26.5617 C   0  0  0  0  0  0  0  0  0  0  0  0
    7.2160  -13.3532   26.0346 C   0  0  2  0  0  0  0  0  0  0  0  0
    8.2247  -12.6643   25.1232 C   0  0  0  0  0  0  0  0  0  0  0  0
    6.5094  -14.4595   25.3058 C   0  0  2  0  0  0  0  0  0  0  0  0
    5.5600  -15.0405   26.2888 N   0  0  0  0  0  0  0  0  0  0  0  0
    7.3951  -15.5751   24.8757 C   0  0  0  0  0  0  0  0  0  0  0  0
    7.8204  -16.3702   25.7832 O   0  0  0  0  0  0  0  0  0  0  0  0
    7.8048  -15.8379   23.5650 N   0  0  0  0  0  0  0  0  0  0  0  0
    8.6462  -16.8737   23.0800 C   0  0  1  0  0  0  0  0  0  0  0  0
    8.5696  -17.2158   21.6161 C   0  0  0  0  0  0  0  0  0  0  0  0
    7.2164  -17.4523   21.0627 C   0  0  0  0  0  0  0  0  0  0  0  0
    7.2017  -16.8433   19.6817 C   0  0  0  0  0  0  0  0  0  0  0  0
    7.9436  -17.2592   18.7576 O   0  0  0  0  0  0  0  0  0  0  0  0
   10.0296  -16.7029   23.4959 C   0  0  0  0  0  0  0  0  0  0  0  0
   10.8483  -16.2272   22.6410 O   0  0  0  0  0  0  0  0  0  0  0  0
    6.3509  -15.7807   19.3785 O   0  0  0  0  0  0  0  0  0  0  0  0
   10.5626  -17.0124   24.7608 N   0  0  0  0  0  0  0  0  0  0  0  0
   11.9521  -17.3500   25.0022 C   0  0  1  0  0  0  0  0  0  0  0  0
   12.8317  -16.1093   24.8044 C   0  0  0  0  0  0  0  0  0  0  0  0
   13.6359  -16.2001   23.5657 C   0  0  0  0  0  0  0  0  0  0  0  0
   13.5341  -17.1696   22.7571 O   0  0  0  0  0  0  0  0  0  0  0  0
   12.0572  -17.8904   26.3763 C   0  0  0  0  0  0  0  0  0  0  0  0
   13.2048  -18.5809   26.8033 O   0  0  0  0  0  0  0  0  0  0  0  0
   14.5626  -15.2221   23.2036 O   0  0  0  0  0  0  0  0  0  0  0  0
   11.1529  -17.7774   27.2450 O   0  0  0  0  0  0  0  0  0  0  0  0
  2  1  1  0
  2  3  1  0
  3  4  1  6
  5  3  1  0
  5  6  1  1
  7  5  1  0
  8  7  2  0
  9  7  1  0
 10  9  1  0
 11 12  1  0
 10 11  1  6
 12 13  1  0
 13 17  1  0
 14 13  2  0
 15 10  1  0
 15 18  1  0
 16 15  2  0
 19 23  1  0
 19 18  1  0
 20 21  1  0
 19 20  1  1
 21 22  2  0
 23 24  1  0
 25 21  1  0
 26 23  2  0
M  END
$$$$
