IED.pdb
     RDKit          3D

 26 25  0  0  1  0  0  0  0  0999 V2000
    6.3425  -10.9528   26.9967 C   0  0  0  0  0  0  0  0  0  0  0  0
    5.7550  -12.2192   26.4196 C   0  0  0  0  0  0  0  0  0  0  0  0
    6.7843  -13.1507   25.8421 C   0  0  2  0  0  0  0  0  0  0  0  0
    7.5516  -12.3733   24.7792 C   0  0  0  0  0  0  0  0  0  0  0  0
    6.2034  -14.4092   25.2651 C   0  0  2  0  0  0  0  0  0  0  0  0
    5.5920  -15.1273   26.4121 N   0  0  0  0  0  0  0  0  0  0  0  0
    7.2089  -15.3386   24.6826 C   0  0  0  0  0  0  0  0  0  0  0  0
    7.7412  -16.1955   25.4693 O   0  0  0  0  0  0  0  0  0  0  0  0
    7.6252  -15.3643   23.3482 N   0  0  0  0  0  0  0  0  0  0  0  0
    8.4795  -16.2907   22.6938 C   0  0  1  0  0  0  0  0  0  0  0  0
    8.4227  -16.3610   21.1912 C   0  0  0  0  0  0  0  0  0  0  0  0
    9.3187  -17.3450   20.5414 C   0  0  0  0  0  0  0  0  0  0  0  0
    9.1389  -17.1758   19.0523 C   0  0  0  0  0  0  0  0  0  0  0  0
   10.0975  -17.2699   18.2463 O   0  0  0  0  0  0  0  0  0  0  0  0
    9.8565  -16.1922   23.1519 C   0  0  0  0  0  0  0  0  0  0  0  0
   10.4219  -15.0508   23.0803 O   0  0  0  0  0  0  0  0  0  0  0  0
    7.8829  -16.9046   18.5105 O   0  0  0  0  0  0  0  0  0  0  0  0
   10.6374  -17.2405   23.6725 N   0  0  0  0  0  0  0  0  0  0  0  0
   12.0056  -17.0917   24.1296 C   0  0  1  0  0  0  0  0  0  0  0  0
   12.3940  -18.2867   25.0091 C   0  0  0  0  0  0  0  0  0  0  0  0
   11.4837  -18.4336   26.1663 C   0  0  0  0  0  0  0  0  0  0  0  0
   11.1660  -17.4594   26.9109 O   0  0  0  0  0  0  0  0  0  0  0  0
   12.8742  -16.9762   22.9366 C   0  0  0  0  0  0  0  0  0  0  0  0
   14.2355  -16.6455   23.0541 O   0  0  0  0  0  0  0  0  0  0  0  0
   10.9125  -19.6573   26.5165 O   0  0  0  0  0  0  0  0  0  0  0  0
   12.4734  -17.1596   21.7573 O   0  0  0  0  0  0  0  0  0  0  0  0
  2  1  1  0
  2  3  1  0
  3  4  1  6
  5  3  1  0
  5  6  1  1
  7  5  1  0
  8  7  2  0
  9  7  1  0
 10  9  1  0
 11 12  1  0
 10 11  1  6
 12 13  1  0
 13 17  1  0
 14 13  2  0
 15 10  1  0
 15 18  1  0
 16 15  2  0
 19 23  1  0
 19 18  1  0
 20 21  1  0
 19 20  1  6
 21 22  2  0
 23 24  1  0
 25 21  1  0
 26 23  2  0
M  END
$$$$
