IED.pdb
     RDKit          3D

 26 25  0  0  1  0  0  0  0  0999 V2000
    6.9959  -11.4764   27.0655 C   0  0  0  0  0  0  0  0  0  0  0  0
    6.3119  -12.6527   26.4090 C   0  0  0  0  0  0  0  0  0  0  0  0
    7.2682  -13.6500   25.8164 C   0  0  2  0  0  0  0  0  0  0  0  0
    8.1618  -12.8944   24.8401 C   0  0  0  0  0  0  0  0  0  0  0  0
    6.5913  -14.8037   25.1344 C   0  0  2  0  0  0  0  0  0  0  0  0
    5.8002  -15.4823   26.1920 N   0  0  0  0  0  0  0  0  0  0  0  0
    7.5234  -15.8288   24.5918 C   0  0  0  0  0  0  0  0  0  0  0  0
    8.0264  -16.6625   25.4216 O   0  0  0  0  0  0  0  0  0  0  0  0
    7.8995  -15.9679   23.2525 N   0  0  0  0  0  0  0  0  0  0  0  0
    8.7273  -16.9530   22.6519 C   0  0  1  0  0  0  0  0  0  0  0  0
    8.6371  -17.1345   21.1604 C   0  0  0  0  0  0  0  0  0  0  0  0
    9.5029  -18.1802   20.5684 C   0  0  0  0  0  0  0  0  0  0  0  0
    9.2487  -18.1605   19.0807 C   0  0  0  0  0  0  0  0  0  0  0  0
   10.0125  -17.5693   18.2778 O   0  0  0  0  0  0  0  0  0  0  0  0
   10.1151  -16.8405   23.0728 C   0  0  0  0  0  0  0  0  0  0  0  0
   10.7585  -15.7995   22.7124 O   0  0  0  0  0  0  0  0  0  0  0  0
    8.1396  -18.8077   18.5367 O   0  0  0  0  0  0  0  0  0  0  0  0
   10.8284  -17.7744   23.8466 N   0  0  0  0  0  0  0  0  0  0  0  0
   12.2290  -17.6443   24.1995 C   0  0  1  0  0  0  0  0  0  0  0  0
   12.6479  -16.1704   24.1348 C   0  0  0  0  0  0  0  0  0  0  0  0
   13.8445  -15.9780   23.2860 C   0  0  0  0  0  0  0  0  0  0  0  0
   14.3682  -16.9216   22.6230 O   0  0  0  0  0  0  0  0  0  0  0  0
   12.4121  -18.2135   25.5535 C   0  0  0  0  0  0  0  0  0  0  0  0
   11.8305  -17.6118   26.6831 O   0  0  0  0  0  0  0  0  0  0  0  0
   14.4784  -14.7418   23.1580 O   0  0  0  0  0  0  0  0  0  0  0  0
   13.0838  -19.2512   25.7928 O   0  0  0  0  0  0  0  0  0  0  0  0
  2  1  1  0
  2  3  1  0
  3  4  1  6
  5  3  1  0
  5  6  1  1
  7  5  1  0
  8  7  2  0
  9  7  1  0
 10  9  1  0
 11 12  1  0
 10 11  1  6
 12 13  1  0
 13 17  1  0
 14 13  2  0
 15 10  1  0
 15 18  1  0
 16 15  2  0
 19 23  1  0
 19 18  1  0
 20 21  1  0
 19 20  1  1
 21 22  2  0
 23 24  1  0
 25 21  1  0
 26 23  2  0
M  END
$$$$
