IED.pdb
     RDKit          3D

 26 25  0  0  1  0  0  0  0  0999 V2000
    6.8414  -12.1945   19.6223 C   0  0  0  0  0  0  0  0  0  0  0  0
    7.6720  -12.8708   18.5569 C   0  0  0  0  0  0  0  0  0  0  0  0
    8.8530  -13.6239   19.1033 C   0  0  2  0  0  0  0  0  0  0  0  0
    9.7669  -12.6058   19.7749 C   0  0  0  0  0  0  0  0  0  0  0  0
    9.6022  -14.4077   18.0647 C   0  0  2  0  0  0  0  0  0  0  0  0
    8.6173  -15.3667   17.5031 N   0  0  0  0  0  0  0  0  0  0  0  0
   10.7198  -15.2292   18.6034 C   0  0  0  0  0  0  0  0  0  0  0  0
   10.4257  -16.3783   19.0826 O   0  0  0  0  0  0  0  0  0  0  0  0
   12.0683  -14.8610   18.6313 N   0  0  0  0  0  0  0  0  0  0  0  0
   13.1979  -15.6260   19.0253 C   0  0  1  0  0  0  0  0  0  0  0  0
   14.5019  -15.3719   18.3175 C   0  0  0  0  0  0  0  0  0  0  0  0
   15.0531  -14.0011   18.4198 C   0  0  0  0  0  0  0  0  0  0  0  0
   16.3503  -13.9983   17.6480 C   0  0  0  0  0  0  0  0  0  0  0  0
   17.2279  -14.8822   17.8087 O   0  0  0  0  0  0  0  0  0  0  0  0
   13.3881  -15.6291   20.4674 C   0  0  0  0  0  0  0  0  0  0  0  0
   13.1012  -14.5606   21.1026 O   0  0  0  0  0  0  0  0  0  0  0  0
   16.6245  -12.9985   16.7153 O   0  0  0  0  0  0  0  0  0  0  0  0
   13.8619  -16.7039   21.2420 N   0  0  0  0  0  0  0  0  0  0  0  0
   14.0427  -16.6581   22.6802 C   0  0  1  0  0  0  0  0  0  0  0  0
   13.5107  -17.9495   23.3136 C   0  0  0  0  0  0  0  0  0  0  0  0
   13.8092  -18.0126   24.7615 C   0  0  0  0  0  0  0  0  0  0  0  0
   13.2280  -17.2730   25.6096 O   0  0  0  0  0  0  0  0  0  0  0  0
   15.4843  -16.4607   22.9517 C   0  0  0  0  0  0  0  0  0  0  0  0
   15.9375  -16.0277   24.2100 O   0  0  0  0  0  0  0  0  0  0  0  0
   14.7528  -18.8928   25.2917 O   0  0  0  0  0  0  0  0  0  0  0  0
   16.3914  -16.6593   22.1015 O   0  0  0  0  0  0  0  0  0  0  0  0
  2  1  1  0
  2  3  1  0
  3  4  1  6
  5  3  1  0
  5  6  1  1
  7  5  1  0
  8  7  2  0
  9  7  1  0
 10  9  1  0
 11 12  1  0
 10 11  1  6
 12 13  1  0
 13 17  1  0
 14 13  2  0
 15 10  1  0
 15 18  1  0
 16 15  2  0
 19 23  1  0
 19 18  1  0
 20 21  1  0
 19 20  1  1
 21 22  2  0
 23 24  1  0
 25 21  1  0
 26 23  2  0
M  END
$$$$
