IED.pdb
     RDKit          3D

 26 25  0  0  1  0  0  0  0  0999 V2000
    7.7385  -11.9112   22.4139 C   0  0  0  0  0  0  0  0  0  0  0  0
    7.4566  -13.2961   21.8802 C   0  0  0  0  0  0  0  0  0  0  0  0
    8.2042  -13.6168   20.6158 C   0  0  2  0  0  0  0  0  0  0  0  0
    7.7820  -12.5928   19.5690 C   0  0  0  0  0  0  0  0  0  0  0  0
    7.9742  -15.0139   20.1164 C   0  0  2  0  0  0  0  0  0  0  0  0
    6.5219  -15.0954   19.8176 N   0  0  0  0  0  0  0  0  0  0  0  0
    8.2515  -16.0778   21.1191 C   0  0  0  0  0  0  0  0  0  0  0  0
    7.3570  -16.2943   22.0077 O   0  0  0  0  0  0  0  0  0  0  0  0
    9.4029  -16.8685   21.1782 N   0  0  0  0  0  0  0  0  0  0  0  0
    9.7744  -17.8395   22.1455 C   0  0  1  0  0  0  0  0  0  0  0  0
    9.5184  -19.2875   21.8240 C   0  0  0  0  0  0  0  0  0  0  0  0
    8.4843  -19.5644   20.8005 C   0  0  0  0  0  0  0  0  0  0  0  0
    7.7530  -20.8060   21.2499 C   0  0  0  0  0  0  0  0  0  0  0  0
    8.3394  -21.9027   21.4260 O   0  0  0  0  0  0  0  0  0  0  0  0
   11.1356  -17.6520   22.6227 C   0  0  0  0  0  0  0  0  0  0  0  0
   12.0508  -17.4932   21.7483 O   0  0  0  0  0  0  0  0  0  0  0  0
    6.3794  -20.7790   21.4888 O   0  0  0  0  0  0  0  0  0  0  0  0
   11.5502  -17.6275   23.9670 N   0  0  0  0  0  0  0  0  0  0  0  0
   12.9332  -17.6992   24.3977 C   0  0  1  0  0  0  0  0  0  0  0  0
   13.5380  -16.2906   24.4444 C   0  0  0  0  0  0  0  0  0  0  0  0
   14.4900  -16.0664   23.3341 C   0  0  0  0  0  0  0  0  0  0  0  0
   14.6421  -16.8961   22.3893 O   0  0  0  0  0  0  0  0  0  0  0  0
   12.9640  -18.3597   25.7220 C   0  0  0  0  0  0  0  0  0  0  0  0
   14.1543  -18.8972   26.2421 O   0  0  0  0  0  0  0  0  0  0  0  0
   15.2862  -14.9237   23.2523 O   0  0  0  0  0  0  0  0  0  0  0  0
   11.9556  -18.4882   26.4649 O   0  0  0  0  0  0  0  0  0  0  0  0
  2  1  1  0
  2  3  1  0
  3  4  1  6
  5  3  1  0
  5  6  1  1
  7  5  1  0
  8  7  2  0
  9  7  1  0
 10  9  1  0
 11 12  1  0
 10 11  1  6
 12 13  1  0
 13 17  1  0
 14 13  2  0
 15 10  1  0
 15 18  1  0
 16 15  2  0
 19 23  1  0
 19 18  1  0
 20 21  1  0
 19 20  1  1
 21 22  2  0
 23 24  1  0
 25 21  1  0
 26 23  2  0
M  END
$$$$
