IED.pdb
     RDKit          3D

 26 25  0  0  1  0  0  0  0  0999 V2000
    6.6244  -11.2013   26.9085 C   0  0  0  0  0  0  0  0  0  0  0  0
    6.0396  -12.4092   26.2149 C   0  0  0  0  0  0  0  0  0  0  0  0
    7.0533  -13.4769   25.9103 C   0  0  2  0  0  0  0  0  0  0  0  0
    8.2177  -12.8033   25.1939 C   0  0  0  0  0  0  0  0  0  0  0  0
    6.5083  -14.6104   25.0903 C   0  0  2  0  0  0  0  0  0  0  0  0
    5.4621  -15.2436   25.9327 N   0  0  0  0  0  0  0  0  0  0  0  0
    7.4980  -15.6789   24.7855 C   0  0  0  0  0  0  0  0  0  0  0  0
    7.8474  -16.4469   25.7471 O   0  0  0  0  0  0  0  0  0  0  0  0
    8.0815  -15.9244   23.5389 N   0  0  0  0  0  0  0  0  0  0  0  0
    9.0557  -16.8935   23.1809 C   0  0  1  0  0  0  0  0  0  0  0  0
    9.4632  -16.9813   21.7345 C   0  0  0  0  0  0  0  0  0  0  0  0
   10.5081  -17.9767   21.4016 C   0  0  0  0  0  0  0  0  0  0  0  0
   10.7590  -17.8601   19.9178 C   0  0  0  0  0  0  0  0  0  0  0  0
    9.9972  -17.2122   19.1579 O   0  0  0  0  0  0  0  0  0  0  0  0
   10.2266  -16.8450   24.0425 C   0  0  0  0  0  0  0  0  0  0  0  0
   10.8074  -15.7182   24.1859 O   0  0  0  0  0  0  0  0  0  0  0  0
   11.8622  -18.4773   19.3290 O   0  0  0  0  0  0  0  0  0  0  0  0
   10.7902  -17.9276   24.7425 N   0  0  0  0  0  0  0  0  0  0  0  0
   11.9268  -17.8204   25.6368 C   0  0  1  0  0  0  0  0  0  0  0  0
   11.4434  -17.7830   27.0918 C   0  0  0  0  0  0  0  0  0  0  0  0
   10.7850  -19.0491   27.4828 C   0  0  0  0  0  0  0  0  0  0  0  0
   10.5803  -19.9920   26.6623 O   0  0  0  0  0  0  0  0  0  0  0  0
   12.8193  -18.9729   25.3789 C   0  0  0  0  0  0  0  0  0  0  0  0
   12.4628  -19.9827   24.4681 O   0  0  0  0  0  0  0  0  0  0  0  0
   10.3443  -19.2908   28.7842 O   0  0  0  0  0  0  0  0  0  0  0  0
   13.9353  -19.1344   25.9389 O   0  0  0  0  0  0  0  0  0  0  0  0
  2  1  1  0
  2  3  1  0
  3  4  1  6
  5  3  1  0
  5  6  1  1
  7  5  1  0
  8  7  2  0
  9  7  1  0
 10  9  1  0
 11 12  1  0
 10 11  1  6
 12 13  1  0
 13 17  1  0
 14 13  2  0
 15 10  1  0
 15 18  1  0
 16 15  2  0
 19 23  1  0
 19 18  1  0
 20 21  1  0
 19 20  1  1
 21 22  2  0
 23 24  1  0
 25 21  1  0
 26 23  2  0
M  END
$$$$
