IED.pdb
     RDKit          3D

 26 25  0  0  1  0  0  0  0  0999 V2000
    6.6818  -11.8985   27.5829 C   0  0  0  0  0  0  0  0  0  0  0  0
    6.1232  -12.9318   26.6329 C   0  0  0  0  0  0  0  0  0  0  0  0
    7.1757  -13.8040   26.0069 C   0  0  2  0  0  0  0  0  0  0  0  0
    8.1362  -12.8872   25.2588 C   0  0  0  0  0  0  0  0  0  0  0  0
    6.6211  -14.8555   25.0898 C   0  0  2  0  0  0  0  0  0  0  0  0
    5.7403  -15.6983   25.9377 N   0  0  0  0  0  0  0  0  0  0  0  0
    7.6440  -15.7713   24.5161 C   0  0  0  0  0  0  0  0  0  0  0  0
    8.0576  -16.7278   25.2581 O   0  0  0  0  0  0  0  0  0  0  0  0
    8.1950  -15.6847   23.2341 N   0  0  0  0  0  0  0  0  0  0  0  0
    9.1705  -16.5141   22.6203 C   0  0  1  0  0  0  0  0  0  0  0  0
    9.0834  -16.7204   21.1318 C   0  0  0  0  0  0  0  0  0  0  0  0
    7.8206  -17.2985   20.6175 C   0  0  0  0  0  0  0  0  0  0  0  0
    7.9711  -17.4016   19.1192 C   0  0  0  0  0  0  0  0  0  0  0  0
    7.9777  -16.3900   18.3749 O   0  0  0  0  0  0  0  0  0  0  0  0
   10.5253  -16.1566   23.0110 C   0  0  0  0  0  0  0  0  0  0  0  0
   10.7418  -14.9458   23.3493 O   0  0  0  0  0  0  0  0  0  0  0  0
    8.1098  -18.6428   18.4988 O   0  0  0  0  0  0  0  0  0  0  0  0
   11.6344  -17.0213   23.0545 N   0  0  0  0  0  0  0  0  0  0  0  0
   12.6451  -17.0033   24.0944 C   0  0  1  0  0  0  0  0  0  0  0  0
   12.2636  -17.9855   25.2087 C   0  0  0  0  0  0  0  0  0  0  0  0
   13.3249  -18.0888   26.2346 C   0  0  0  0  0  0  0  0  0  0  0  0
   14.3904  -17.4058   26.1835 O   0  0  0  0  0  0  0  0  0  0  0  0
   13.9438  -17.3472   23.4731 C   0  0  0  0  0  0  0  0  0  0  0  0
   14.0458  -18.3689   22.5127 O   0  0  0  0  0  0  0  0  0  0  0  0
   13.2239  -18.9471   27.3298 O   0  0  0  0  0  0  0  0  0  0  0  0
   15.0276  -16.7686   23.7481 O   0  0  0  0  0  0  0  0  0  0  0  0
  2  1  1  0
  2  3  1  0
  3  4  1  6
  5  3  1  0
  5  6  1  1
  7  5  1  0
  8  7  2  0
  9  7  1  0
 10  9  1  0
 11 12  1  0
 10 11  1  6
 12 13  1  0
 13 17  1  0
 14 13  2  0
 15 10  1  0
 15 18  1  0
 16 15  2  0
 19 23  1  0
 19 18  1  0
 20 21  1  0
 19 20  1  1
 21 22  2  0
 23 24  1  0
 25 21  1  0
 26 23  2  0
M  END
$$$$
