IED.pdb
     RDKit          3D

 26 25  0  0  1  0  0  0  0  0999 V2000
    7.1694  -11.7435   20.6008 C   0  0  0  0  0  0  0  0  0  0  0  0
    7.1764  -13.0967   19.9293 C   0  0  0  0  0  0  0  0  0  0  0  0
    8.1302  -14.0746   20.5573 C   0  0  2  0  0  0  0  0  0  0  0  0
    9.5164  -13.4423   20.5185 C   0  0  0  0  0  0  0  0  0  0  0  0
    8.1405  -15.4203   19.8915 C   0  0  2  0  0  0  0  0  0  0  0  0
    6.7362  -15.9003   19.9431 N   0  0  0  0  0  0  0  0  0  0  0  0
    8.9557  -16.4471   20.5951 C   0  0  0  0  0  0  0  0  0  0  0  0
    8.3858  -17.1102   21.5290 O   0  0  0  0  0  0  0  0  0  0  0  0
   10.2921  -16.7581   20.3266 N   0  0  0  0  0  0  0  0  0  0  0  0
   11.1041  -17.7799   20.8860 C   0  0  1  0  0  0  0  0  0  0  0  0
   12.2674  -18.2797   20.0719 C   0  0  0  0  0  0  0  0  0  0  0  0
   11.9395  -18.9446   18.7898 C   0  0  0  0  0  0  0  0  0  0  0  0
   13.2297  -19.0456   18.0130 C   0  0  0  0  0  0  0  0  0  0  0  0
   13.4419  -19.9632   17.1821 O   0  0  0  0  0  0  0  0  0  0  0  0
   11.5224  -17.4722   22.2447 C   0  0  0  0  0  0  0  0  0  0  0  0
   11.8342  -16.2632   22.5066 O   0  0  0  0  0  0  0  0  0  0  0  0
   14.2475  -18.1095   18.1934 O   0  0  0  0  0  0  0  0  0  0  0  0
   11.6188  -18.3836   23.3123 N   0  0  0  0  0  0  0  0  0  0  0  0
   11.9755  -18.0183   24.6697 C   0  0  1  0  0  0  0  0  0  0  0  0
   10.9933  -18.6601   25.6572 C   0  0  0  0  0  0  0  0  0  0  0  0
   11.3276  -18.3237   27.0588 C   0  0  0  0  0  0  0  0  0  0  0  0
   12.2883  -17.5571   27.3647 O   0  0  0  0  0  0  0  0  0  0  0  0
   13.3685  -18.4583   24.9085 C   0  0  0  0  0  0  0  0  0  0  0  0
   14.1288  -17.9323   25.9675 O   0  0  0  0  0  0  0  0  0  0  0  0
   10.6060  -18.8290   28.1406 O   0  0  0  0  0  0  0  0  0  0  0  0
   13.9643  -19.3135   24.2022 O   0  0  0  0  0  0  0  0  0  0  0  0
  2  1  1  0
  2  3  1  0
  3  4  1  6
  5  3  1  0
  5  6  1  1
  7  5  1  0
  8  7  2  0
  9  7  1  0
 10  9  1  0
 11 12  1  0
 10 11  1  6
 12 13  1  0
 13 17  1  0
 14 13  2  0
 15 10  1  0
 15 18  1  0
 16 15  2  0
 19 23  1  0
 19 18  1  0
 20 21  1  0
 19 20  1  1
 21 22  2  0
 23 24  1  0
 25 21  1  0
 26 23  2  0
M  END
$$$$
