IED.pdb
     RDKit          3D

 26 25  0  0  1  0  0  0  0  0999 V2000
    7.4764  -11.6381   27.6582 C   0  0  0  0  0  0  0  0  0  0  0  0
    6.5588  -12.6036   26.9455 C   0  0  0  0  0  0  0  0  0  0  0  0
    7.2808  -13.5603   26.0378 C   0  0  2  0  0  0  0  0  0  0  0  0
    8.0441  -12.7254   25.0164 C   0  0  0  0  0  0  0  0  0  0  0  0
    6.3750  -14.5420   25.3521 C   0  0  2  0  0  0  0  0  0  0  0  0
    5.7903  -15.3691   26.4380 N   0  0  0  0  0  0  0  0  0  0  0  0
    7.0731  -15.4882   24.4403 C   0  0  0  0  0  0  0  0  0  0  0  0
    7.6532  -16.4964   24.9729 O   0  0  0  0  0  0  0  0  0  0  0  0
    7.1513  -15.3787   23.0487 N   0  0  0  0  0  0  0  0  0  0  0  0
    7.8616  -16.1898   22.1246 C   0  0  1  0  0  0  0  0  0  0  0  0
    7.5996  -15.9802   20.6572 C   0  0  0  0  0  0  0  0  0  0  0  0
    8.3516  -16.8473   19.7212 C   0  0  0  0  0  0  0  0  0  0  0  0
    7.4808  -18.0505   19.4524 C   0  0  0  0  0  0  0  0  0  0  0  0
    7.7713  -19.1965   19.8764 O   0  0  0  0  0  0  0  0  0  0  0  0
    9.2910  -16.2121   22.3932 C   0  0  0  0  0  0  0  0  0  0  0  0
    9.9266  -15.1101   22.2979 O   0  0  0  0  0  0  0  0  0  0  0  0
    6.3050  -17.9305   18.7122 O   0  0  0  0  0  0  0  0  0  0  0  0
   10.0529  -17.3393   22.7520 N   0  0  0  0  0  0  0  0  0  0  0  0
   11.4864  -17.3215   22.9707 C   0  0  1  0  0  0  0  0  0  0  0  0
   11.9043  -18.5509   23.7868 C   0  0  0  0  0  0  0  0  0  0  0  0
   12.1298  -18.2129   25.2096 C   0  0  0  0  0  0  0  0  0  0  0  0
   12.1015  -17.0218   25.6394 O   0  0  0  0  0  0  0  0  0  0  0  0
   12.1484  -17.2837   21.6473 C   0  0  0  0  0  0  0  0  0  0  0  0
   13.5211  -17.0061   21.5253 O   0  0  0  0  0  0  0  0  0  0  0  0
   12.3894  -19.1849   26.1760 O   0  0  0  0  0  0  0  0  0  0  0  0
   11.5510  -17.4911   20.5585 O   0  0  0  0  0  0  0  0  0  0  0  0
  2  1  1  0
  2  3  1  0
  3  4  1  6
  5  3  1  0
  5  6  1  1
  7  5  1  0
  8  7  2  0
  9  7  1  0
 10  9  1  0
 11 12  1  0
 10 11  1  6
 12 13  1  0
 13 17  1  0
 14 13  2  0
 15 10  1  0
 15 18  1  0
 16 15  2  0
 19 23  1  0
 19 18  1  0
 20 21  1  0
 19 20  1  6
 21 22  2  0
 23 24  1  0
 25 21  1  0
 26 23  2  0
M  END
$$$$
