IED.pdb
     RDKit          3D

 26 25  0  0  1  0  0  0  0  0999 V2000
    6.8181  -11.7137   27.3774 C   0  0  0  0  0  0  0  0  0  0  0  0
    6.1769  -12.7819   26.5230 C   0  0  0  0  0  0  0  0  0  0  0  0
    7.1599  -13.7675   25.9548 C   0  0  2  0  0  0  0  0  0  0  0  0
    8.1864  -12.9729   25.1562 C   0  0  0  0  0  0  0  0  0  0  0  0
    6.5265  -14.8277   25.1009 C   0  0  2  0  0  0  0  0  0  0  0  0
    5.6130  -15.5726   26.0040 N   0  0  0  0  0  0  0  0  0  0  0  0
    7.4821  -15.8310   24.5583 C   0  0  0  0  0  0  0  0  0  0  0  0
    7.9047  -16.7330   25.3611 O   0  0  0  0  0  0  0  0  0  0  0  0
    7.9605  -15.8813   23.2456 N   0  0  0  0  0  0  0  0  0  0  0  0
    8.9022  -16.7739   22.6688 C   0  0  1  0  0  0  0  0  0  0  0  0
    9.0361  -16.7839   21.1695 C   0  0  0  0  0  0  0  0  0  0  0  0
    9.8998  -17.8383   20.5902 C   0  0  0  0  0  0  0  0  0  0  0  0
    9.8703  -17.6471   19.0933 C   0  0  0  0  0  0  0  0  0  0  0  0
    9.5850  -18.5812   18.3036 O   0  0  0  0  0  0  0  0  0  0  0  0
   10.2092  -16.6833   23.3007 C   0  0  0  0  0  0  0  0  0  0  0  0
   10.7205  -15.5222   23.4347 O   0  0  0  0  0  0  0  0  0  0  0  0
   10.1636  -16.4077   18.5253 O   0  0  0  0  0  0  0  0  0  0  0  0
   10.9758  -17.7591   23.7852 N   0  0  0  0  0  0  0  0  0  0  0  0
   12.2751  -17.6196   24.4140 C   0  0  1  0  0  0  0  0  0  0  0  0
   12.5522  -18.8315   25.3120 C   0  0  0  0  0  0  0  0  0  0  0  0
   11.9675  -18.6591   26.6603 C   0  0  0  0  0  0  0  0  0  0  0  0
   11.4370  -17.5730   27.0388 O   0  0  0  0  0  0  0  0  0  0  0  0
   13.2869  -17.4809   23.3425 C   0  0  0  0  0  0  0  0  0  0  0  0
   14.5970  -17.0574   23.6260 O   0  0  0  0  0  0  0  0  0  0  0  0
   11.9608  -19.6829   27.6079 O   0  0  0  0  0  0  0  0  0  0  0  0
   13.0598  -17.7243   22.1282 O   0  0  0  0  0  0  0  0  0  0  0  0
  2  1  1  0
  2  3  1  0
  3  4  1  6
  5  3  1  0
  5  6  1  1
  7  5  1  0
  8  7  2  0
  9  7  1  0
 10  9  1  0
 11 12  1  0
 10 11  1  6
 12 13  1  0
 13 17  1  0
 14 13  2  0
 15 10  1  0
 15 18  1  0
 16 15  2  0
 19 23  1  0
 19 18  1  0
 20 21  1  0
 19 20  1  6
 21 22  2  0
 23 24  1  0
 25 21  1  0
 26 23  2  0
M  END
$$$$
