IED.pdb
     RDKit          3D

 26 25  0  0  1  0  0  0  0  0999 V2000
    6.5238  -11.2025   27.1591 C   0  0  0  0  0  0  0  0  0  0  0  0
    5.9354  -12.2863   26.2866 C   0  0  0  0  0  0  0  0  0  0  0  0
    6.9249  -13.3500   25.8996 C   0  0  2  0  0  0  0  0  0  0  0  0
    8.0778  -12.6560   25.1840 C   0  0  0  0  0  0  0  0  0  0  0  0
    6.3409  -14.4340   25.0405 C   0  0  2  0  0  0  0  0  0  0  0  0
    5.3231  -15.1071   25.8866 N   0  0  0  0  0  0  0  0  0  0  0  0
    7.3106  -15.4892   24.6399 C   0  0  0  0  0  0  0  0  0  0  0  0
    7.5440  -16.4225   25.4832 O   0  0  0  0  0  0  0  0  0  0  0  0
    7.9908  -15.5571   23.4203 N   0  0  0  0  0  0  0  0  0  0  0  0
    8.9033  -16.5415   22.9570 C   0  0  1  0  0  0  0  0  0  0  0  0
    9.2133  -16.5768   21.4844 C   0  0  0  0  0  0  0  0  0  0  0  0
   10.1357  -17.6421   21.0286 C   0  0  0  0  0  0  0  0  0  0  0  0
   10.2454  -17.5065   19.5294 C   0  0  0  0  0  0  0  0  0  0  0  0
   11.3367  -17.2660   18.9561 O   0  0  0  0  0  0  0  0  0  0  0  0
   10.1283  -16.5726   23.7408 C   0  0  0  0  0  0  0  0  0  0  0  0
   10.7576  -15.4737   23.8958 O   0  0  0  0  0  0  0  0  0  0  0  0
    9.1217  -17.6451   18.7153 O   0  0  0  0  0  0  0  0  0  0  0  0
   10.6962  -17.7051   24.3529 N   0  0  0  0  0  0  0  0  0  0  0  0
   11.9576  -17.7018   25.0683 C   0  0  1  0  0  0  0  0  0  0  0  0
   12.0367  -18.9244   25.9908 C   0  0  0  0  0  0  0  0  0  0  0  0
   11.3936  -18.6663   27.2982 C   0  0  0  0  0  0  0  0  0  0  0  0
   10.9630  -17.5228   27.6315 O   0  0  0  0  0  0  0  0  0  0  0  0
   13.0484  -17.6912   24.0676 C   0  0  0  0  0  0  0  0  0  0  0  0
   14.3435  -17.2601   24.4042 O   0  0  0  0  0  0  0  0  0  0  0  0
   11.2177  -19.6669   28.2544 O   0  0  0  0  0  0  0  0  0  0  0  0
   12.9058  -18.0566   22.8713 O   0  0  0  0  0  0  0  0  0  0  0  0
  2  1  1  0
  2  3  1  0
  3  4  1  6
  5  3  1  0
  5  6  1  1
  7  5  1  0
  8  7  2  0
  9  7  1  0
 10  9  1  0
 11 12  1  0
 10 11  1  6
 12 13  1  0
 13 17  1  0
 14 13  2  0
 15 10  1  0
 15 18  1  0
 16 15  2  0
 19 23  1  0
 19 18  1  0
 20 21  1  0
 19 20  1  6
 21 22  2  0
 23 24  1  0
 25 21  1  0
 26 23  2  0
M  END
$$$$
