VGV.pdb
     RDKit          3D

 19 18  0  0  1  0  0  0  0  0999 V2000
   17.6088   -9.7261  -18.2687 C   0  0  0  0  0  0  0  0  0  0  0  0
   18.2453  -10.8867  -18.9678 C   0  0  2  0  0  0  0  0  0  0  0  0
   17.1662  -11.9013  -19.2986 C   0  0  0  0  0  0  0  0  0  0  0  0
   19.2690  -11.5924  -18.1213 C   0  0  2  0  0  0  0  0  0  0  0  0
   18.6351  -12.0487  -16.9252 N   0  0  0  0  0  0  0  0  0  0  0  0
   20.4781  -10.7784  -17.8744 C   0  0  0  0  0  0  0  0  0  0  0  0
   21.1970  -10.4616  -18.8568 O   0  0  0  0  0  0  0  0  0  0  0  0
   20.8862  -10.3261  -16.5927 N   0  0  0  0  0  0  0  0  0  0  0  0
   22.1052   -9.6259  -16.3373 C   0  0  0  0  0  0  0  0  0  0  0  0
   21.9401   -8.1444  -16.4254 C   0  0  0  0  0  0  0  0  0  0  0  0
   22.9332   -7.3631  -16.4377 O   0  0  0  0  0  0  0  0  0  0  0  0
   19.9433   -6.4330  -19.1087 C   0  0  0  0  0  0  0  0  0  0  0  0
   19.4320   -5.9464  -17.7917 C   0  0  1  0  0  0  0  0  0  0  0  0
   18.1352   -6.6321  -17.4426 C   0  0  0  0  0  0  0  0  0  0  0  0
   20.4539   -6.1123  -16.6713 C   0  0  2  0  0  0  0  0  0  0  0  0
   20.6563   -7.5384  -16.5000 N   0  0  0  0  0  0  0  0  0  0  0  0
   20.0057   -5.4820  -15.4249 C   0  0  0  0  0  0  0  0  0  0  0  0
   20.1156   -4.1159  -15.2769 O   0  0  0  0  0  0  0  0  0  0  0  0
   19.5101   -6.1194  -14.4446 O   0  0  0  0  0  0  0  0  0  0  0  0
  2  3  1  1
  2  4  1  0
  2  1  1  0
  4  5  1  1
  6  4  1  0
  6  7  2  0
  8  6  1  0
  9  8  1  0
  9 10  1  0
 10 16  1  0
 11 10  2  0
 13 12  1  6
 13 15  1  0
 13 14  1  0
 15 17  1  0
 15 16  1  1
 17 19  2  0
 17 18  1  0
M  END
$$$$
