VGV.pdb
     RDKit          3D

 19 18  0  0  1  0  0  0  0  0999 V2000
   28.8205  -18.7675  -14.0936 C   0  0  0  0  0  0  0  0  0  0  0  0
   28.0917  -19.5315  -15.1547 C   0  0  2  0  0  0  0  0  0  0  0  0
   28.7092  -19.1967  -16.5002 C   0  0  0  0  0  0  0  0  0  0  0  0
   26.6330  -19.1744  -15.2383 C   0  0  2  0  0  0  0  0  0  0  0  0
   26.5199  -17.8178  -15.6714 N   0  0  0  0  0  0  0  0  0  0  0  0
   25.8941  -19.4584  -13.9898 C   0  0  0  0  0  0  0  0  0  0  0  0
   25.7241  -20.6590  -13.6551 O   0  0  0  0  0  0  0  0  0  0  0  0
   25.3588  -18.4595  -13.1357 N   0  0  0  0  0  0  0  0  0  0  0  0
   24.7191  -18.7275  -11.8865 C   0  0  0  0  0  0  0  0  0  0  0  0
   25.4445  -19.7577  -11.0848 C   0  0  0  0  0  0  0  0  0  0  0  0
   25.8640  -20.8311  -11.6031 O   0  0  0  0  0  0  0  0  0  0  0  0
   28.0581  -19.0960   -8.1819 C   0  0  0  0  0  0  0  0  0  0  0  0
   26.9424  -19.9620   -7.6943 C   0  0  1  0  0  0  0  0  0  0  0  0
   26.0006  -19.1695   -6.8232 C   0  0  0  0  0  0  0  0  0  0  0  0
   26.1886  -20.6401   -8.8341 C   0  0  2  0  0  0  0  0  0  0  0  0
   25.6995  -19.5821   -9.6974 N   0  0  0  0  0  0  0  0  0  0  0  0
   25.0908  -21.4787   -8.3408 C   0  0  0  0  0  0  0  0  0  0  0  0
   23.7878  -21.0659   -8.5196 O   0  0  0  0  0  0  0  0  0  0  0  0
   25.2564  -22.5877   -7.7446 O   0  0  0  0  0  0  0  0  0  0  0  0
  2  3  1  6
  2  4  1  0
  2  1  1  0
  4  5  1  1
  6  4  1  0
  6  7  2  0
  8  6  1  0
  9  8  1  0
  9 10  1  0
 10 16  1  0
 11 10  2  0
 13 12  1  6
 13 15  1  0
 13 14  1  0
 15 17  1  0
 15 16  1  6
 17 19  2  0
 17 18  1  0
M  END
$$$$
