VGV.pdb
     RDKit          3D

 19 18  0  0  1  0  0  0  0  0999 V2000
   22.1617  -15.1753  -19.8895 C   0  0  0  0  0  0  0  0  0  0  0  0
   22.4829  -14.0630  -18.9406 C   0  0  2  0  0  0  0  0  0  0  0  0
   23.7874  -13.4202  -19.3749 C   0  0  0  0  0  0  0  0  0  0  0  0
   22.6740  -14.5352  -17.5254 C   0  0  2  0  0  0  0  0  0  0  0  0
   21.3972  -14.8731  -16.9812 N   0  0  0  0  0  0  0  0  0  0  0  0
   23.4357  -13.5798  -16.6932 C   0  0  0  0  0  0  0  0  0  0  0  0
   24.6553  -13.4053  -16.9471 O   0  0  0  0  0  0  0  0  0  0  0  0
   22.8793  -12.8398  -15.6179 N   0  0  0  0  0  0  0  0  0  0  0  0
   23.5915  -11.8567  -14.8643 C   0  0  0  0  0  0  0  0  0  0  0  0
   23.3226  -10.4678  -15.3426 C   0  0  0  0  0  0  0  0  0  0  0  0
   24.0780   -9.8927  -16.1765 O   0  0  0  0  0  0  0  0  0  0  0  0
   21.0071   -9.4125  -17.5383 C   0  0  0  0  0  0  0  0  0  0  0  0
   20.6579   -8.6118  -16.3260 C   0  0  1  0  0  0  0  0  0  0  0  0
   19.5016   -9.2423  -15.5917 C   0  0  0  0  0  0  0  0  0  0  0  0
   21.8497   -8.4120  -15.3950 C   0  0  2  0  0  0  0  0  0  0  0  0
   22.2026   -9.7226  -14.8832 N   0  0  0  0  0  0  0  0  0  0  0  0
   21.5426   -7.4776  -14.3067 C   0  0  0  0  0  0  0  0  0  0  0  0
   21.5290   -6.1225  -14.5587 O   0  0  0  0  0  0  0  0  0  0  0  0
   21.2810   -7.8346  -13.1163 O   0  0  0  0  0  0  0  0  0  0  0  0
  2  3  1  6
  2  4  1  0
  2  1  1  0
  4  5  1  1
  6  4  1  0
  6  7  2  0
  8  6  1  0
  9  8  1  0
  9 10  1  0
 10 16  1  0
 11 10  2  0
 13 12  1  6
 13 15  1  0
 13 14  1  0
 15 17  1  0
 15 16  1  1
 17 19  2  0
 17 18  1  0
M  END
$$$$
