VGV.pdb
     RDKit          3D

 19 18  0  0  1  0  0  0  0  0999 V2000
   21.2892  -17.8074  -16.2371 C   0  0  0  0  0  0  0  0  0  0  0  0
   20.5495  -18.7319  -17.1529 C   0  0  2  0  0  0  0  0  0  0  0  0
   19.4252  -17.9570  -17.8154 C   0  0  0  0  0  0  0  0  0  0  0  0
   19.9198  -19.8924  -16.4325 C   0  0  2  0  0  0  0  0  0  0  0  0
   18.8257  -19.4059  -15.6535 N   0  0  0  0  0  0  0  0  0  0  0  0
   20.8920  -20.6871  -15.6522 C   0  0  0  0  0  0  0  0  0  0  0  0
   21.7405  -21.3749  -16.2762 O   0  0  0  0  0  0  0  0  0  0  0  0
   20.9334  -20.7268  -14.2343 N   0  0  0  0  0  0  0  0  0  0  0  0
   21.8592  -21.5095  -13.4781 C   0  0  0  0  0  0  0  0  0  0  0  0
   23.1500  -20.7960  -13.2441 C   0  0  0  0  0  0  0  0  0  0  0  0
   23.3393  -19.6129  -13.6456 O   0  0  0  0  0  0  0  0  0  0  0  0
   27.2730  -20.6307  -10.5258 C   0  0  0  0  0  0  0  0  0  0  0  0
   25.9643  -21.2312  -10.9249 C   0  0  1  0  0  0  0  0  0  0  0  0
   24.9182  -20.9654   -9.8719 C   0  0  0  0  0  0  0  0  0  0  0  0
   25.4936  -20.7487  -12.2934 C   0  0  2  0  0  0  0  0  0  0  0  0
   24.2313  -21.4127  -12.5575 N   0  0  0  0  0  0  0  0  0  0  0  0
   26.4783  -21.0348  -13.3423 C   0  0  0  0  0  0  0  0  0  0  0  0
   27.3268  -20.0353  -13.7681 O   0  0  0  0  0  0  0  0  0  0  0  0
   26.6107  -22.1666  -13.9029 O   0  0  0  0  0  0  0  0  0  0  0  0
  2  3  1  1
  2  4  1  0
  2  1  1  0
  4  5  1  1
  6  4  1  0
  6  7  2  0
  8  6  1  0
  9  8  1  0
  9 10  1  0
 10 16  1  0
 11 10  2  0
 13 12  1  1
 13 15  1  0
 13 14  1  0
 15 17  1  0
 15 16  1  6
 17 19  2  0
 17 18  1  0
M  END
$$$$
