VGV.pdb
     RDKit          3D

 19 18  0  0  1  0  0  0  0  0999 V2000
   15.3418  -10.3691  -21.0897 C   0  0  0  0  0  0  0  0  0  0  0  0
   14.9939  -11.2416  -19.9242 C   0  0  2  0  0  0  0  0  0  0  0  0
   13.5310  -11.6311  -20.0331 C   0  0  0  0  0  0  0  0  0  0  0  0
   15.1682  -10.5497  -18.6001 C   0  0  2  0  0  0  0  0  0  0  0  0
   14.0899   -9.6299  -18.4210 N   0  0  0  0  0  0  0  0  0  0  0  0
   16.5021   -9.9332  -18.4392 C   0  0  0  0  0  0  0  0  0  0  0  0
   16.6578   -8.7399  -18.8054 O   0  0  0  0  0  0  0  0  0  0  0  0
   17.6289  -10.6023  -17.8947 N   0  0  0  0  0  0  0  0  0  0  0  0
   18.9513  -10.0619  -17.8706 C   0  0  0  0  0  0  0  0  0  0  0  0
   19.4750   -9.8998  -16.4814 C   0  0  0  0  0  0  0  0  0  0  0  0
   18.7347  -10.0522  -15.4687 O   0  0  0  0  0  0  0  0  0  0  0  0
   23.6906   -9.5640  -15.8891 C   0  0  0  0  0  0  0  0  0  0  0  0
   22.7322  -10.1506  -14.9043 C   0  0  1  0  0  0  0  0  0  0  0  0
   23.3400  -10.1720  -13.5244 C   0  0  0  0  0  0  0  0  0  0  0  0
   21.3885   -9.4284  -14.8957 C   0  0  2  0  0  0  0  0  0  0  0  0
   20.8334   -9.5658  -16.2288 N   0  0  0  0  0  0  0  0  0  0  0  0
   21.5283   -8.0181  -14.5172 C   0  0  0  0  0  0  0  0  0  0  0  0
   21.3302   -7.6442  -13.2053 O   0  0  0  0  0  0  0  0  0  0  0  0
   21.8266   -7.0901  -15.3313 O   0  0  0  0  0  0  0  0  0  0  0  0
  2  3  1  6
  2  4  1  0
  2  1  1  0
  4  5  1  6
  6  4  1  0
  6  7  2  0
  8  6  1  0
  9  8  1  0
  9 10  1  0
 10 16  1  0
 11 10  2  0
 13 12  1  6
 13 15  1  0
 13 14  1  0
 15 17  1  0
 15 16  1  6
 17 19  2  0
 17 18  1  0
M  END
$$$$
