VGV.pdb
     RDKit          3D

 19 18  0  0  1  0  0  0  0  0999 V2000
   25.5119  -19.4184  -18.6014 C   0  0  0  0  0  0  0  0  0  0  0  0
   25.9772  -18.0302  -18.9131 C   0  0  2  0  0  0  0  0  0  0  0  0
   26.5490  -18.0176  -20.3189 C   0  0  0  0  0  0  0  0  0  0  0  0
   27.0657  -17.5548  -17.9904 C   0  0  2  0  0  0  0  0  0  0  0  0
   28.2516  -18.3042  -18.2601 N   0  0  0  0  0  0  0  0  0  0  0  0
   26.6679  -17.5725  -16.5667 C   0  0  0  0  0  0  0  0  0  0  0  0
   25.6211  -16.9614  -16.2303 O   0  0  0  0  0  0  0  0  0  0  0  0
   27.3934  -18.2381  -15.5448 N   0  0  0  0  0  0  0  0  0  0  0  0
   27.0239  -18.2368  -14.1645 C   0  0  0  0  0  0  0  0  0  0  0  0
   26.1769  -19.4117  -13.8007 C   0  0  0  0  0  0  0  0  0  0  0  0
   25.7631  -20.2292  -14.6709 O   0  0  0  0  0  0  0  0  0  0  0  0
   27.1361  -21.5591  -10.7713 C   0  0  0  0  0  0  0  0  0  0  0  0
   25.6708  -21.2770  -10.6951 C   0  0  1  0  0  0  0  0  0  0  0  0
   25.3876  -20.2339   -9.6437 C   0  0  0  0  0  0  0  0  0  0  0  0
   25.0847  -20.8650  -12.0420 C   0  0  2  0  0  0  0  0  0  0  0  0
   25.7936  -19.6692  -12.4563 N   0  0  0  0  0  0  0  0  0  0  0  0
   23.6393  -20.6287  -11.9599 C   0  0  0  0  0  0  0  0  0  0  0  0
   22.7707  -21.6954  -12.0482 O   0  0  0  0  0  0  0  0  0  0  0  0
   23.1142  -19.4822  -11.8094 O   0  0  0  0  0  0  0  0  0  0  0  0
  2  3  1  6
  2  4  1  0
  2  1  1  0
  4  5  1  1
  6  4  1  0
  6  7  2  0
  8  6  1  0
  9  8  1  0
  9 10  1  0
 10 16  1  0
 11 10  2  0
 13 12  1  6
 13 15  1  0
 13 14  1  0
 15 17  1  0
 15 16  1  1
 17 19  2  0
 17 18  1  0
M  END
$$$$
