VGV.pdb
     RDKit          3D

 19 18  0  0  1  0  0  0  0  0999 V2000
   24.4316  -18.0258  -16.6529 C   0  0  0  0  0  0  0  0  0  0  0  0
   25.9178  -17.9806  -16.4794 C   0  0  2  0  0  0  0  0  0  0  0  0
   26.5680  -18.1808  -17.8361 C   0  0  0  0  0  0  0  0  0  0  0  0
   26.4369  -19.0666  -15.5775 C   0  0  2  0  0  0  0  0  0  0  0  0
   26.0350  -20.3306  -16.1080 N   0  0  0  0  0  0  0  0  0  0  0  0
   26.0589  -18.8743  -14.1613 C   0  0  0  0  0  0  0  0  0  0  0  0
   24.8592  -19.0604  -13.8317 O   0  0  0  0  0  0  0  0  0  0  0  0
   26.9657  -18.4906  -13.1394 N   0  0  0  0  0  0  0  0  0  0  0  0
   26.5901  -18.2363  -11.7845 C   0  0  0  0  0  0  0  0  0  0  0  0
   26.6223  -19.4700  -10.9436 C   0  0  0  0  0  0  0  0  0  0  0  0
   26.8336  -20.6112  -11.4433 O   0  0  0  0  0  0  0  0  0  0  0  0
   28.4577  -19.7057   -7.5228 C   0  0  0  0  0  0  0  0  0  0  0  0
   27.0495  -20.1790   -7.3633 C   0  0  1  0  0  0  0  0  0  0  0  0
   26.2129  -19.1269   -6.6799 C   0  0  0  0  0  0  0  0  0  0  0  0
   26.4207  -20.5980   -8.6885 C   0  0  2  0  0  0  0  0  0  0  0  0
   26.4167  -19.4221   -9.5378 N   0  0  0  0  0  0  0  0  0  0  0  0
   25.0663  -21.1311   -8.5066 C   0  0  0  0  0  0  0  0  0  0  0  0
   23.9876  -20.4268   -8.9971 O   0  0  0  0  0  0  0  0  0  0  0  0
   24.8065  -22.2240   -7.9140 O   0  0  0  0  0  0  0  0  0  0  0  0
  2  3  1  6
  2  4  1  0
  2  1  1  0
  4  5  1  6
  6  4  1  0
  6  7  2  0
  8  6  1  0
  9  8  1  0
  9 10  1  0
 10 16  1  0
 11 10  2  0
 13 12  1  6
 13 15  1  0
 13 14  1  0
 15 17  1  0
 15 16  1  6
 17 19  2  0
 17 18  1  0
M  END
$$$$
