VGV.pdb
     RDKit          3D

 19 18  0  0  1  0  0  0  0  0999 V2000
   16.4166  -11.8488  -18.4603 C   0  0  0  0  0  0  0  0  0  0  0  0
   17.5104  -12.6386  -19.1089 C   0  0  2  0  0  0  0  0  0  0  0  0
   17.3963  -14.0827  -18.6559 C   0  0  0  0  0  0  0  0  0  0  0  0
   18.8848  -12.1636  -18.7245 C   0  0  2  0  0  0  0  0  0  0  0  0
   19.1198  -12.5063  -17.3577 N   0  0  0  0  0  0  0  0  0  0  0  0
   19.1075  -10.7324  -19.0203 C   0  0  0  0  0  0  0  0  0  0  0  0
   19.2577  -10.3858  -20.2202 O   0  0  0  0  0  0  0  0  0  0  0  0
   19.1638   -9.7140  -18.0336 N   0  0  0  0  0  0  0  0  0  0  0  0
   19.3530   -8.3269  -18.3191 C   0  0  0  0  0  0  0  0  0  0  0  0
   19.5327   -7.5102  -17.0818 C   0  0  0  0  0  0  0  0  0  0  0  0
   18.9522   -6.3985  -16.9275 O   0  0  0  0  0  0  0  0  0  0  0  0
   21.5671   -9.5788  -14.0444 C   0  0  0  0  0  0  0  0  0  0  0  0
   20.2513   -8.9035  -13.8318 C   0  0  1  0  0  0  0  0  0  0  0  0
   20.0134   -8.6609  -12.3626 C   0  0  0  0  0  0  0  0  0  0  0  0
   20.1259   -7.6063  -14.6247 C   0  0  2  0  0  0  0  0  0  0  0  0
   20.3665   -7.9431  -16.0149 N   0  0  0  0  0  0  0  0  0  0  0  0
   21.0651   -6.5836  -14.1518 C   0  0  0  0  0  0  0  0  0  0  0  0
   20.7689   -5.8635  -13.0142 O   0  0  0  0  0  0  0  0  0  0  0  0
   22.1615   -6.3044  -14.7288 O   0  0  0  0  0  0  0  0  0  0  0  0
  2  3  1  1
  2  4  1  0
  2  1  1  0
  4  5  1  1
  6  4  1  0
  6  7  2  0
  8  6  1  0
  9  8  1  0
  9 10  1  0
 10 16  1  0
 11 10  2  0
 13 12  1  1
 13 15  1  0
 13 14  1  0
 15 17  1  0
 15 16  1  6
 17 19  2  0
 17 18  1  0
M  END
$$$$
