VGV.pdb
     RDKit          3D

 19 18  0  0  1  0  0  0  0  0999 V2000
   16.1025  -11.1730  -16.8229 C   0  0  0  0  0  0  0  0  0  0  0  0
   15.8372  -10.7386  -15.4152 C   0  0  2  0  0  0  0  0  0  0  0  0
   15.8598   -9.2218  -15.3662 C   0  0  0  0  0  0  0  0  0  0  0  0
   16.8774  -11.2263  -14.4444 C   0  0  2  0  0  0  0  0  0  0  0  0
   16.9316  -12.6522  -14.5125 N   0  0  0  0  0  0  0  0  0  0  0  0
   16.6795  -10.7084  -13.0739 C   0  0  0  0  0  0  0  0  0  0  0  0
   15.6758  -11.1009  -12.4251 O   0  0  0  0  0  0  0  0  0  0  0  0
   17.5529   -9.7904  -12.4350 N   0  0  0  0  0  0  0  0  0  0  0  0
   17.4089   -9.3507  -11.0831 C   0  0  0  0  0  0  0  0  0  0  0  0
   16.6507   -8.0683  -10.9792 C   0  0  0  0  0  0  0  0  0  0  0  0
   16.3612   -7.3813  -11.9996 O   0  0  0  0  0  0  0  0  0  0  0  0
   13.4413   -7.7447   -8.9259 C   0  0  0  0  0  0  0  0  0  0  0  0
   14.3662   -6.6417   -8.5254 C   0  0  1  0  0  0  0  0  0  0  0  0
   15.0102   -6.9486   -7.1969 C   0  0  0  0  0  0  0  0  0  0  0  0
   15.4219   -6.3504   -9.5874 C   0  0  2  0  0  0  0  0  0  0  0  0
   16.2165   -7.5559   -9.7263 N   0  0  0  0  0  0  0  0  0  0  0  0
   16.2558   -5.1985   -9.2277 C   0  0  0  0  0  0  0  0  0  0  0  0
   15.8171   -3.9248   -9.5200 O   0  0  0  0  0  0  0  0  0  0  0  0
   17.3835   -5.2902   -8.6509 O   0  0  0  0  0  0  0  0  0  0  0  0
  2  3  1  6
  2  4  1  0
  2  1  1  0
  4  5  1  1
  6  4  1  0
  6  7  2  0
  8  6  1  0
  9  8  1  0
  9 10  1  0
 10 16  1  0
 11 10  2  0
 13 12  1  6
 13 15  1  0
 13 14  1  0
 15 17  1  0
 15 16  1  1
 17 19  2  0
 17 18  1  0
M  END
$$$$
