VGV.pdb
     RDKit          3D

 19 18  0  0  1  0  0  0  0  0999 V2000
   33.6723   -6.0823  -17.3057 C   0  0  0  0  0  0  0  0  0  0  0  0
   33.1183   -6.8691  -18.4523 C   0  0  2  0  0  0  0  0  0  0  0  0
   31.7749   -6.2779  -18.8385 C   0  0  0  0  0  0  0  0  0  0  0  0
   32.8820   -8.3151  -18.1124 C   0  0  2  0  0  0  0  0  0  0  0  0
   31.8151   -8.3923  -17.1656 N   0  0  0  0  0  0  0  0  0  0  0  0
   34.1085   -9.0165  -17.6773 C   0  0  0  0  0  0  0  0  0  0  0  0
   35.0672   -9.1032  -18.4869 O   0  0  0  0  0  0  0  0  0  0  0  0
   34.2789   -9.6038  -16.3967 N   0  0  0  0  0  0  0  0  0  0  0  0
   35.4869  -10.2222  -15.9497 C   0  0  0  0  0  0  0  0  0  0  0  0
   35.9745   -9.6518  -14.6585 C   0  0  0  0  0  0  0  0  0  0  0  0
   35.4355   -8.6369  -14.1330 O   0  0  0  0  0  0  0  0  0  0  0  0
   36.4433  -11.6835  -11.5890 C   0  0  0  0  0  0  0  0  0  0  0  0
   37.7183  -10.9251  -11.7673 C   0  0  1  0  0  0  0  0  0  0  0  0
   38.8101  -11.8375  -12.2665 C   0  0  0  0  0  0  0  0  0  0  0  0
   37.5560   -9.7177  -12.6854 C   0  0  2  0  0  0  0  0  0  0  0  0
   37.0704  -10.2227  -13.9555 N   0  0  0  0  0  0  0  0  0  0  0  0
   38.8143   -8.9817  -12.8482 C   0  0  0  0  0  0  0  0  0  0  0  0
   39.5110   -9.0814  -14.0335 O   0  0  0  0  0  0  0  0  0  0  0  0
   39.3238   -8.2386  -11.9531 O   0  0  0  0  0  0  0  0  0  0  0  0
  2  3  1  1
  2  4  1  0
  2  1  1  0
  4  5  1  1
  6  4  1  0
  6  7  2  0
  8  6  1  0
  9  8  1  0
  9 10  1  0
 10 16  1  0
 11 10  2  0
 13 12  1  6
 13 15  1  0
 13 14  1  0
 15 17  1  0
 15 16  1  6
 17 19  2  0
 17 18  1  0
M  END
$$$$
