VGV.pdb
     RDKit          3D

 19 18  0  0  1  0  0  0  0  0999 V2000
   19.2114  -12.8941  -20.3585 C   0  0  0  0  0  0  0  0  0  0  0  0
   20.1256  -13.2428  -21.4914 C   0  0  2  0  0  0  0  0  0  0  0  0
   19.9188  -14.7040  -21.8457 C   0  0  0  0  0  0  0  0  0  0  0  0
   21.5797  -13.0750  -21.1453 C   0  0  2  0  0  0  0  0  0  0  0  0
   21.9604  -14.1248  -20.2544 N   0  0  0  0  0  0  0  0  0  0  0  0
   21.9029  -11.7246  -20.6378 C   0  0  0  0  0  0  0  0  0  0  0  0
   21.7066  -10.7385  -21.3937 O   0  0  0  0  0  0  0  0  0  0  0  0
   22.4243  -11.4631  -19.3441 N   0  0  0  0  0  0  0  0  0  0  0  0
   22.6112  -10.1546  -18.8015 C   0  0  0  0  0  0  0  0  0  0  0  0
   21.7639   -9.9118  -17.5959 C   0  0  0  0  0  0  0  0  0  0  0  0
   20.5973  -10.3869  -17.4951 O   0  0  0  0  0  0  0  0  0  0  0  0
   21.7171  -11.4714  -14.9163 C   0  0  0  0  0  0  0  0  0  0  0  0
   21.9753  -10.1174  -14.3396 C   0  0  1  0  0  0  0  0  0  0  0  0
   23.4366   -9.9560  -14.0043 C   0  0  0  0  0  0  0  0  0  0  0  0
   21.4995   -8.9929  -15.2541 C   0  0  2  0  0  0  0  0  0  0  0  0
   22.2279   -9.1334  -16.5006 N   0  0  0  0  0  0  0  0  0  0  0  0
   21.7157   -7.6719  -14.6542 C   0  0  0  0  0  0  0  0  0  0  0  0
   20.9222   -7.2653  -13.6029 O   0  0  0  0  0  0  0  0  0  0  0  0
   22.6047   -6.8521  -15.0423 O   0  0  0  0  0  0  0  0  0  0  0  0
  2  3  1  1
  2  4  1  0
  2  1  1  0
  4  5  1  1
  6  4  1  0
  6  7  2  0
  8  6  1  0
  9  8  1  0
  9 10  1  0
 10 16  1  0
 11 10  2  0
 13 12  1  6
 13 15  1  0
 13 14  1  0
 15 17  1  0
 15 16  1  6
 17 19  2  0
 17 18  1  0
M  END
$$$$
