VGV.pdb
     RDKit          3D

 19 18  0  0  1  0  0  0  0  0999 V2000
   23.6119  -21.4013  -16.3270 C   0  0  0  0  0  0  0  0  0  0  0  0
   24.3836  -20.4137  -17.1454 C   0  0  2  0  0  0  0  0  0  0  0  0
   24.1807  -20.7408  -18.6135 C   0  0  0  0  0  0  0  0  0  0  0  0
   25.8639  -20.4634  -16.8835 C   0  0  2  0  0  0  0  0  0  0  0  0
   26.3423  -21.7676  -17.2169 N   0  0  0  0  0  0  0  0  0  0  0  0
   26.2255  -20.0345  -15.5157 C   0  0  0  0  0  0  0  0  0  0  0  0
   25.9037  -18.8755  -15.1475 O   0  0  0  0  0  0  0  0  0  0  0  0
   26.9172  -20.8488  -14.5818 N   0  0  0  0  0  0  0  0  0  0  0  0
   27.1984  -20.4663  -13.2342 C   0  0  0  0  0  0  0  0  0  0  0  0
   26.1697  -20.9660  -12.2739 C   0  0  0  0  0  0  0  0  0  0  0  0
   25.2437  -21.7459  -12.6361 O   0  0  0  0  0  0  0  0  0  0  0  0
   27.1394  -21.2232   -8.3477 C   0  0  0  0  0  0  0  0  0  0  0  0
   25.7523  -20.7088   -8.5573 C   0  0  1  0  0  0  0  0  0  0  0  0
   25.6983  -19.2215   -8.3146 C   0  0  0  0  0  0  0  0  0  0  0  0
   25.2035  -21.0551   -9.9379 C   0  0  2  0  0  0  0  0  0  0  0  0
   26.1806  -20.5890  -10.9033 N   0  0  0  0  0  0  0  0  0  0  0  0
   23.8888  -20.4479  -10.1716 C   0  0  0  0  0  0  0  0  0  0  0  0
   22.7608  -21.0526   -9.6596 O   0  0  0  0  0  0  0  0  0  0  0  0
   23.7077  -19.3765  -10.8290 O   0  0  0  0  0  0  0  0  0  0  0  0
  2  3  1  6
  2  4  1  0
  2  1  1  0
  4  5  1  1
  6  4  1  0
  6  7  2  0
  8  6  1  0
  9  8  1  0
  9 10  1  0
 10 16  1  0
 11 10  2  0
 13 12  1  6
 13 15  1  0
 13 14  1  0
 15 17  1  0
 15 16  1  6
 17 19  2  0
 17 18  1  0
M  END
$$$$
