VGV.pdb
     RDKit          3D

 19 18  0  0  1  0  0  0  0  0999 V2000
   22.8224  -22.7997  -17.9468 C   0  0  0  0  0  0  0  0  0  0  0  0
   23.0553  -21.7491  -18.9873 C   0  0  2  0  0  0  0  0  0  0  0  0
   23.0757  -22.4164  -20.3503 C   0  0  0  0  0  0  0  0  0  0  0  0
   24.3728  -21.0421  -18.8233 C   0  0  2  0  0  0  0  0  0  0  0  0
   25.4216  -21.9439  -19.1805 N   0  0  0  0  0  0  0  0  0  0  0  0
   24.5442  -20.4387  -17.4846 C   0  0  0  0  0  0  0  0  0  0  0  0
   23.7159  -19.5694  -17.1096 O   0  0  0  0  0  0  0  0  0  0  0  0
   25.5893  -20.7766  -16.5860 N   0  0  0  0  0  0  0  0  0  0  0  0
   25.7786  -20.1683  -15.3071 C   0  0  0  0  0  0  0  0  0  0  0  0
   24.9621  -20.8202  -14.2400 C   0  0  0  0  0  0  0  0  0  0  0  0
   24.0498  -21.6506  -14.5135 O   0  0  0  0  0  0  0  0  0  0  0  0
   26.5808  -21.6697  -10.7007 C   0  0  0  0  0  0  0  0  0  0  0  0
   25.2325  -21.0490  -10.5304 C   0  0  1  0  0  0  0  0  0  0  0  0
   25.3635  -19.6204  -10.0660 C   0  0  0  0  0  0  0  0  0  0  0  0
   24.3864  -21.1338  -11.7970 C   0  0  2  0  0  0  0  0  0  0  0  0
   25.1707  -20.5388  -12.8623 N   0  0  0  0  0  0  0  0  0  0  0  0
   23.0961  -20.4543  -11.6390 C   0  0  0  0  0  0  0  0  0  0  0  0
   22.0409  -21.1264  -11.0601 O   0  0  0  0  0  0  0  0  0  0  0  0
   22.8727  -19.2592  -12.0062 O   0  0  0  0  0  0  0  0  0  0  0  0
  2  3  1  6
  2  4  1  0
  2  1  1  0
  4  5  1  1
  6  4  1  0
  6  7  2  0
  8  6  1  0
  9  8  1  0
  9 10  1  0
 10 16  1  0
 11 10  2  0
 13 12  1  6
 13 15  1  0
 13 14  1  0
 15 17  1  0
 15 16  1  6
 17 19  2  0
 17 18  1  0
M  END
$$$$
