PQD.pdb
     RDKit          3D

 25 25  0  0  1  0  0  0  0  0999 V2000
   20.2726  -13.0326  -16.6978 N   0  0  0  0  0  0  0  0  0  0  0  0
   19.0587  -13.8293  -16.6598 C   0  0  0  0  0  0  0  0  0  0  0  0
   17.9186  -12.9094  -17.0220 C   0  0  0  0  0  0  0  0  0  0  0  0
   18.5231  -11.5266  -16.9207 C   0  0  0  0  0  0  0  0  0  0  0  0
   19.9526  -11.7926  -17.3415 C   0  0  1  0  0  0  0  0  0  0  0  0
   20.8120  -10.6955  -16.7684 C   0  0  0  0  0  0  0  0  0  0  0  0
   21.0223  -10.6120  -15.5330 O   0  0  0  0  0  0  0  0  0  0  0  0
   25.9306   -8.1161  -18.7147 N   0  0  0  0  0  0  0  0  0  0  0  0
   25.7227   -7.4025  -17.5267 C   0  0  0  0  0  0  0  0  0  0  0  0
   26.6055   -6.7332  -16.9708 O   0  0  0  0  0  0  0  0  0  0  0  0
   24.3365   -7.4668  -16.9062 C   0  0  0  0  0  0  0  0  0  0  0  0
   23.4931   -8.4556  -17.6643 C   0  0  0  0  0  0  0  0  0  0  0  0
   22.1669   -8.6199  -17.0184 C   0  0  2  0  0  0  0  0  0  0  0  0
   21.4111   -9.7224  -17.6021 N   0  0  0  0  0  0  0  0  0  0  0  0
   21.3183   -7.3947  -16.9885 C   0  0  0  0  0  0  0  0  0  0  0  0
   20.4730   -7.0827  -17.8375 O   0  0  0  0  0  0  0  0  0  0  0  0
   21.4591   -6.4756  -15.9075 N   0  0  0  0  0  0  0  0  0  0  0  0
   20.6610   -5.3318  -15.6806 C   0  0  1  0  0  0  0  0  0  0  0  0
   19.1983   -5.5283  -15.5591 C   0  0  0  0  0  0  0  0  0  0  0  0
   18.4601   -4.2536  -15.3105 C   0  0  0  0  0  0  0  0  0  0  0  0
   18.8191   -3.1488  -15.7950 O   0  0  0  0  0  0  0  0  0  0  0  0
   21.1285   -4.6659  -14.4158 C   0  0  0  0  0  0  0  0  0  0  0  0
   22.0024   -5.2229  -13.6733 O   0  0  0  0  0  0  0  0  0  0  0  0
   17.3194   -4.2133  -14.5194 O   0  0  0  0  0  0  0  0  0  0  0  0
   20.6465   -3.4411  -13.9995 O   0  0  0  0  0  0  0  0  0  0  0  0
  1  5  1  0
  2  1  1  0
  3  4  1  0
  3  2  1  0
  4  5  1  0
  5  6  1  1
  6 14  1  0
  6  7  2  0
  9 10  2  0
  9  8  1  0
 11  9  1  0
 12 11  1  0
 13 12  1  6
 14 13  1  0
 15 13  1  0
 15 17  1  0
 16 15  2  0
 18 19  1  1
 18 17  1  0
 18 22  1  0
 19 20  1  0
 20 21  2  0
 20 24  1  0
 22 25  1  0
 23 22  2  0
M  END
$$$$
