PQD.pdb
     RDKit          3D

 25 25  0  0  1  0  0  0  0  0999 V2000
   25.1245  -12.8601  -15.6695 N   0  0  0  0  0  0  0  0  0  0  0  0
   25.7500  -14.1695  -15.7316 C   0  0  0  0  0  0  0  0  0  0  0  0
   25.7760  -14.5748  -17.1850 C   0  0  0  0  0  0  0  0  0  0  0  0
   24.8398  -13.5915  -17.8517 C   0  0  0  0  0  0  0  0  0  0  0  0
   25.0551  -12.3532  -17.0083 C   0  0  1  0  0  0  0  0  0  0  0  0
   23.8336  -11.4823  -17.1505 C   0  0  0  0  0  0  0  0  0  0  0  0
   23.5557  -10.9245  -18.2410 O   0  0  0  0  0  0  0  0  0  0  0  0
   18.1676  -12.3870  -16.2111 N   0  0  0  0  0  0  0  0  0  0  0  0
   18.0744  -11.0115  -16.4621 C   0  0  0  0  0  0  0  0  0  0  0  0
   17.0040  -10.4334  -16.6994 O   0  0  0  0  0  0  0  0  0  0  0  0
   19.3642  -10.2075  -16.4370 C   0  0  0  0  0  0  0  0  0  0  0  0
   20.5293  -11.1351  -16.2227 C   0  0  0  0  0  0  0  0  0  0  0  0
   21.8071  -10.3802  -16.2096 C   0  0  2  0  0  0  0  0  0  0  0  0
   22.9584  -11.2633  -16.0610 N   0  0  0  0  0  0  0  0  0  0  0  0
   21.8872   -9.2833  -15.2032 C   0  0  0  0  0  0  0  0  0  0  0  0
   21.9945   -9.4348  -13.9792 O   0  0  0  0  0  0  0  0  0  0  0  0
   21.8399   -7.9282  -15.6440 N   0  0  0  0  0  0  0  0  0  0  0  0
   21.8709   -6.7838  -14.8157 C   0  0  1  0  0  0  0  0  0  0  0  0
   22.1699   -5.4818  -15.4546 C   0  0  0  0  0  0  0  0  0  0  0  0
   22.2575   -4.3598  -14.4722 C   0  0  0  0  0  0  0  0  0  0  0  0
   22.7629   -4.4905  -13.3269 O   0  0  0  0  0  0  0  0  0  0  0  0
   20.5370   -6.6507  -14.1341 C   0  0  0  0  0  0  0  0  0  0  0  0
   19.4605   -6.6089  -14.8159 O   0  0  0  0  0  0  0  0  0  0  0  0
   21.7798   -3.0902  -14.7699 O   0  0  0  0  0  0  0  0  0  0  0  0
   20.4090   -6.5685  -12.7620 O   0  0  0  0  0  0  0  0  0  0  0  0
  1  5  1  0
  2  1  1  0
  3  4  1  0
  3  2  1  0
  4  5  1  0
  5  6  1  1
  6 14  1  0
  6  7  2  0
  9 10  2  0
  9  8  1  0
 11  9  1  0
 12 11  1  0
 13 12  1  1
 14 13  1  0
 15 13  1  0
 15 17  1  0
 16 15  2  0
 18 19  1  6
 18 17  1  0
 18 22  1  0
 19 20  1  0
 20 21  2  0
 20 24  1  0
 22 25  1  0
 23 22  2  0
M  END
$$$$
