PQD.pdb
     RDKit          3D

 25 25  0  0  1  0  0  0  0  0999 V2000
   24.1755  -13.4299  -15.4376 N   0  0  0  0  0  0  0  0  0  0  0  0
   24.5806  -14.7912  -15.7420 C   0  0  0  0  0  0  0  0  0  0  0  0
   24.9722  -14.8170  -17.1991 C   0  0  0  0  0  0  0  0  0  0  0  0
   24.4392  -13.5090  -17.7403 C   0  0  0  0  0  0  0  0  0  0  0  0
   24.5846  -12.6044  -16.5354 C   0  0  1  0  0  0  0  0  0  0  0  0
   23.6102  -11.4660  -16.6952 C   0  0  0  0  0  0  0  0  0  0  0  0
   23.7647  -10.5983  -17.5900 O   0  0  0  0  0  0  0  0  0  0  0  0
   17.6558  -11.9054  -16.5989 N   0  0  0  0  0  0  0  0  0  0  0  0
   17.7544  -10.5309  -16.8535 C   0  0  0  0  0  0  0  0  0  0  0  0
   16.7974   -9.8370  -17.2264 O   0  0  0  0  0  0  0  0  0  0  0  0
   19.1133   -9.8791  -16.6558 C   0  0  0  0  0  0  0  0  0  0  0  0
   20.1335  -10.9357  -16.3293 C   0  0  0  0  0  0  0  0  0  0  0  0
   21.4709  -10.3278  -16.1174 C   0  0  2  0  0  0  0  0  0  0  0  0
   22.4887  -11.3359  -15.8432 N   0  0  0  0  0  0  0  0  0  0  0  0
   21.5280   -9.2651  -15.0735 C   0  0  0  0  0  0  0  0  0  0  0  0
   21.5160   -9.4553  -13.8502 O   0  0  0  0  0  0  0  0  0  0  0  0
   21.6036   -7.8986  -15.4734 N   0  0  0  0  0  0  0  0  0  0  0  0
   21.6995   -6.7845  -14.6095 C   0  0  1  0  0  0  0  0  0  0  0  0
   22.2898   -5.5411  -15.1557 C   0  0  0  0  0  0  0  0  0  0  0  0
   22.3706   -4.4442  -14.1448 C   0  0  0  0  0  0  0  0  0  0  0  0
   22.8472   -4.6096  -12.9917 O   0  0  0  0  0  0  0  0  0  0  0  0
   20.3211   -6.4440  -14.1138 C   0  0  0  0  0  0  0  0  0  0  0  0
   19.3226   -6.4635  -14.9062 O   0  0  0  0  0  0  0  0  0  0  0  0
   21.9182   -3.1609  -14.4227 O   0  0  0  0  0  0  0  0  0  0  0  0
   20.0682   -6.0991  -12.8012 O   0  0  0  0  0  0  0  0  0  0  0  0
  1  5  1  0
  2  1  1  0
  3  4  1  0
  3  2  1  0
  4  5  1  0
  5  6  1  6
  6 14  1  0
  6  7  2  0
  9 10  2  0
  9  8  1  0
 11  9  1  0
 12 11  1  0
 13 12  1  1
 14 13  1  0
 15 13  1  0
 15 17  1  0
 16 15  2  0
 18 19  1  6
 18 17  1  0
 18 22  1  0
 19 20  1  0
 20 21  2  0
 20 24  1  0
 22 25  1  0
 23 22  2  0
M  END
$$$$
