PQD.pdb
     RDKit          3D

 25 25  0  0  1  0  0  0  0  0999 V2000
   24.0721  -12.7096  -15.2927 N   0  0  0  0  0  0  0  0  0  0  0  0
   24.5510  -14.0758  -15.4110 C   0  0  0  0  0  0  0  0  0  0  0  0
   24.5918  -14.4004  -16.8842 C   0  0  0  0  0  0  0  0  0  0  0  0
   23.7984  -13.2823  -17.5233 C   0  0  0  0  0  0  0  0  0  0  0  0
   24.1145  -12.1248  -16.6005 C   0  0  1  0  0  0  0  0  0  0  0  0
   23.0038  -11.1151  -16.7329 C   0  0  0  0  0  0  0  0  0  0  0  0
   22.8935  -10.4001  -17.7596 O   0  0  0  0  0  0  0  0  0  0  0  0
   17.1818  -11.7094  -15.7028 N   0  0  0  0  0  0  0  0  0  0  0  0
   17.8794  -11.9542  -16.8932 C   0  0  0  0  0  0  0  0  0  0  0  0
   17.4030  -12.5924  -17.8429 O   0  0  0  0  0  0  0  0  0  0  0  0
   19.2904  -11.3996  -17.0031 C   0  0  0  0  0  0  0  0  0  0  0  0
   19.6288  -10.6377  -15.7505 C   0  0  0  0  0  0  0  0  0  0  0  0
   20.9562   -9.9853  -15.8742 C   0  0  2  0  0  0  0  0  0  0  0  0
   22.0477  -10.9380  -15.7056 N   0  0  0  0  0  0  0  0  0  0  0  0
   21.1746   -8.8136  -14.9789 C   0  0  0  0  0  0  0  0  0  0  0  0
   21.5628   -8.8665  -13.8046 O   0  0  0  0  0  0  0  0  0  0  0  0
   20.9273   -7.5005  -15.4765 N   0  0  0  0  0  0  0  0  0  0  0  0
   21.0858   -6.2956  -14.7556 C   0  0  1  0  0  0  0  0  0  0  0  0
   22.3368   -5.5309  -14.9631 C   0  0  0  0  0  0  0  0  0  0  0  0
   22.3934   -4.2789  -14.1501 C   0  0  0  0  0  0  0  0  0  0  0  0
   22.1856   -4.2587  -12.9089 O   0  0  0  0  0  0  0  0  0  0  0  0
   19.9417   -5.3808  -15.0960 C   0  0  0  0  0  0  0  0  0  0  0  0
   19.5160   -5.2913  -16.2944 O   0  0  0  0  0  0  0  0  0  0  0  0
   22.6826   -3.0481  -14.7246 O   0  0  0  0  0  0  0  0  0  0  0  0
   19.3042   -4.6048  -14.1489 O   0  0  0  0  0  0  0  0  0  0  0  0
  1  5  1  0
  2  1  1  0
  3  4  1  0
  3  2  1  0
  4  5  1  0
  5  6  1  1
  6 14  1  0
  6  7  2  0
  9 10  2  0
  9  8  1  0
 11  9  1  0
 12 11  1  0
 13 12  1  1
 14 13  1  0
 15 13  1  0
 15 17  1  0
 16 15  2  0
 18 19  1  6
 18 17  1  0
 18 22  1  0
 19 20  1  0
 20 21  2  0
 20 24  1  0
 22 25  1  0
 23 22  2  0
M  END
$$$$
