PQD.pdb
     RDKit          3D

 25 25  0  0  1  0  0  0  0  0999 V2000
   16.4345  -11.6999  -12.7856 N   0  0  0  0  0  0  0  0  0  0  0  0
   15.5980  -12.8201  -13.1797 C   0  0  0  0  0  0  0  0  0  0  0  0
   14.7911  -12.3670  -14.3717 C   0  0  0  0  0  0  0  0  0  0  0  0
   14.9775  -10.8660  -14.3856 C   0  0  0  0  0  0  0  0  0  0  0  0
   16.3842  -10.7334  -13.8427 C   0  0  1  0  0  0  0  0  0  0  0  0
   16.5242   -9.3499  -13.2623 C   0  0  0  0  0  0  0  0  0  0  0  0
   16.4949   -8.3306  -13.9957 O   0  0  0  0  0  0  0  0  0  0  0  0
   14.9313   -7.3153   -7.6386 N   0  0  0  0  0  0  0  0  0  0  0  0
   14.0542   -7.6124   -8.6903 C   0  0  0  0  0  0  0  0  0  0  0  0
   12.8244   -7.6826   -8.5523 O   0  0  0  0  0  0  0  0  0  0  0  0
   14.6639   -7.8575  -10.0609 C   0  0  0  0  0  0  0  0  0  0  0  0
   16.1593   -7.7132   -9.9777 C   0  0  0  0  0  0  0  0  0  0  0  0
   16.7721   -7.8012  -11.3266 C   0  0  2  0  0  0  0  0  0  0  0  0
   16.6934   -9.1517  -11.8720 N   0  0  0  0  0  0  0  0  0  0  0  0
   18.1752   -7.3066  -11.4210 C   0  0  0  0  0  0  0  0  0  0  0  0
   19.1651   -7.8449  -10.9083 O   0  0  0  0  0  0  0  0  0  0  0  0
   18.4460   -6.1147  -12.1551 N   0  0  0  0  0  0  0  0  0  0  0  0
   19.7257   -5.5864  -12.4385 C   0  0  1  0  0  0  0  0  0  0  0  0
   20.7134   -6.4856  -13.0777 C   0  0  0  0  0  0  0  0  0  0  0  0
   22.0058   -5.8027  -13.3859 C   0  0  0  0  0  0  0  0  0  0  0  0
   22.5842   -5.0336  -12.5747 O   0  0  0  0  0  0  0  0  0  0  0  0
   19.5615   -4.3923  -13.3378 C   0  0  0  0  0  0  0  0  0  0  0  0
   20.5637   -3.6651  -13.6414 O   0  0  0  0  0  0  0  0  0  0  0  0
   22.6525   -5.9793  -14.6021 O   0  0  0  0  0  0  0  0  0  0  0  0
   18.3421   -4.0270  -13.8720 O   0  0  0  0  0  0  0  0  0  0  0  0
  1  5  1  0
  2  1  1  0
  3  4  1  0
  3  2  1  0
  4  5  1  0
  5  6  1  1
  6 14  1  0
  6  7  2  0
  9 10  2  0
  9  8  1  0
 11  9  1  0
 12 11  1  0
 13 12  1  1
 14 13  1  0
 15 13  1  0
 15 17  1  0
 16 15  2  0
 18 19  1  6
 18 17  1  0
 18 22  1  0
 19 20  1  0
 20 21  2  0
 20 24  1  0
 22 25  1  0
 23 22  2  0
M  END
$$$$
