PQD.pdb
     RDKit          3D

 25 25  0  0  1  0  0  0  0  0999 V2000
   27.0692  -18.5514  -15.8319 N   0  0  0  0  0  0  0  0  0  0  0  0
   28.3041  -17.9061  -16.2424 C   0  0  0  0  0  0  0  0  0  0  0  0
   29.3616  -18.9809  -16.3032 C   0  0  0  0  0  0  0  0  0  0  0  0
   28.7290  -20.1521  -15.5849 C   0  0  0  0  0  0  0  0  0  0  0  0
   27.2686  -19.9668  -15.9372 C   0  0  1  0  0  0  0  0  0  0  0  0
   26.4494  -20.6667  -14.8838 C   0  0  0  0  0  0  0  0  0  0  0  0
   26.4295  -21.9199  -14.8013 O   0  0  0  0  0  0  0  0  0  0  0  0
   26.1869  -20.0828   -9.0588 N   0  0  0  0  0  0  0  0  0  0  0  0
   25.1083  -20.9681   -9.1879 C   0  0  0  0  0  0  0  0  0  0  0  0
   24.5955  -21.5613   -8.2280 O   0  0  0  0  0  0  0  0  0  0  0  0
   24.5556  -21.1974  -10.5852 C   0  0  0  0  0  0  0  0  0  0  0  0
   25.4056  -20.4644  -11.5873 C   0  0  0  0  0  0  0  0  0  0  0  0
   24.8672  -20.6367  -12.9596 C   0  0  2  0  0  0  0  0  0  0  0  0
   25.6750  -19.9367  -13.9520 N   0  0  0  0  0  0  0  0  0  0  0  0
   23.4339  -20.2648  -13.1316 C   0  0  0  0  0  0  0  0  0  0  0  0
   22.9630  -19.1281  -12.9950 O   0  0  0  0  0  0  0  0  0  0  0  0
   22.4896  -21.2735  -13.4834 N   0  0  0  0  0  0  0  0  0  0  0  0
   21.1580  -21.0546  -13.9027 C   0  0  1  0  0  0  0  0  0  0  0  0
   20.7549  -21.5983  -15.2198 C   0  0  0  0  0  0  0  0  0  0  0  0
   19.3368  -21.2832  -15.5683 C   0  0  0  0  0  0  0  0  0  0  0  0
   18.7284  -20.2776  -15.1181 O   0  0  0  0  0  0  0  0  0  0  0  0
   20.2305  -21.6416  -12.8747 C   0  0  0  0  0  0  0  0  0  0  0  0
   20.6778  -22.4050  -11.9568 O   0  0  0  0  0  0  0  0  0  0  0  0
   18.5977  -22.0928  -16.4209 O   0  0  0  0  0  0  0  0  0  0  0  0
   18.8731  -21.3905  -12.8697 O   0  0  0  0  0  0  0  0  0  0  0  0
  1  5  1  0
  2  1  1  0
  3  4  1  0
  3  2  1  0
  4  5  1  0
  5  6  1  1
  6 14  1  0
  6  7  2  0
  9 10  2  0
  9  8  1  0
 11  9  1  0
 12 11  1  0
 13 12  1  1
 14 13  1  0
 15 13  1  0
 15 17  1  0
 16 15  2  0
 18 19  1  6
 18 17  1  0
 18 22  1  0
 19 20  1  0
 20 21  2  0
 20 24  1  0
 22 25  1  0
 23 22  2  0
M  END
$$$$
