PQD.pdb
     RDKit          3D

 25 25  0  0  1  0  0  0  0  0999 V2000
   23.9241   -9.6231  -21.4474 N   0  0  0  0  0  0  0  0  0  0  0  0
   24.4446  -10.6297  -22.3560 C   0  0  0  0  0  0  0  0  0  0  0  0
   24.9593  -11.7647  -21.5051 C   0  0  0  0  0  0  0  0  0  0  0  0
   25.0047  -11.1800  -20.1108 C   0  0  0  0  0  0  0  0  0  0  0  0
   23.8329  -10.2226  -20.1488 C   0  0  1  0  0  0  0  0  0  0  0  0
   24.0647   -9.1706  -19.0951 C   0  0  0  0  0  0  0  0  0  0  0  0
   24.0539   -9.4604  -17.8730 O   0  0  0  0  0  0  0  0  0  0  0  0
   27.4851   -4.1119  -19.5024 N   0  0  0  0  0  0  0  0  0  0  0  0
   27.9234   -5.4377  -19.3841 C   0  0  0  0  0  0  0  0  0  0  0  0
   29.0852   -5.7951  -19.6264 O   0  0  0  0  0  0  0  0  0  0  0  0
   26.9052   -6.4730  -18.9346 C   0  0  0  0  0  0  0  0  0  0  0  0
   25.5522   -5.8260  -18.8133 C   0  0  0  0  0  0  0  0  0  0  0  0
   24.5278   -6.8209  -18.4087 C   0  0  2  0  0  0  0  0  0  0  0  0
   24.3024   -7.8211  -19.4462 N   0  0  0  0  0  0  0  0  0  0  0  0
   23.2212   -6.2482  -17.9763 C   0  0  0  0  0  0  0  0  0  0  0  0
   22.2156   -6.1291  -18.6884 O   0  0  0  0  0  0  0  0  0  0  0  0
   23.0725   -5.7856  -16.6358 N   0  0  0  0  0  0  0  0  0  0  0  0
   21.8790   -5.3069  -16.0500 C   0  0  1  0  0  0  0  0  0  0  0  0
   20.7103   -6.2161  -16.0321 C   0  0  0  0  0  0  0  0  0  0  0  0
   19.5172   -5.6145  -15.3641 C   0  0  0  0  0  0  0  0  0  0  0  0
   19.3114   -4.3737  -15.3180 O   0  0  0  0  0  0  0  0  0  0  0  0
   22.1669   -4.9219  -14.6250 C   0  0  0  0  0  0  0  0  0  0  0  0
   23.3108   -5.1481  -14.1094 O   0  0  0  0  0  0  0  0  0  0  0  0
   18.5529   -6.4004  -14.7468 O   0  0  0  0  0  0  0  0  0  0  0  0
   21.2276   -4.3154  -13.8154 O   0  0  0  0  0  0  0  0  0  0  0  0
  1  5  1  0
  2  1  1  0
  3  4  1  0
  3  2  1  0
  4  5  1  0
  5  6  1  1
  6 14  1  0
  6  7  2  0
  9 10  2  0
  9  8  1  0
 11  9  1  0
 12 11  1  0
 13 12  1  6
 14 13  1  0
 15 13  1  0
 15 17  1  0
 16 15  2  0
 18 19  1  1
 18 17  1  0
 18 22  1  0
 19 20  1  0
 20 21  2  0
 20 24  1  0
 22 25  1  0
 23 22  2  0
M  END
$$$$
