PQD.pdb
     RDKit          3D

 25 25  0  0  1  0  0  0  0  0999 V2000
   21.9354  -11.6969  -15.8561 N   0  0  0  0  0  0  0  0  0  0  0  0
   22.6205  -12.9328  -16.1922 C   0  0  0  0  0  0  0  0  0  0  0  0
   21.9053  -13.5208  -17.3839 C   0  0  0  0  0  0  0  0  0  0  0  0
   20.6157  -12.7338  -17.4566 C   0  0  0  0  0  0  0  0  0  0  0  0
   21.0613  -11.3800  -16.9468 C   0  0  1  0  0  0  0  0  0  0  0  0
   19.8444  -10.6638  -16.4205 C   0  0  0  0  0  0  0  0  0  0  0  0
   18.9447  -10.2543  -17.1953 O   0  0  0  0  0  0  0  0  0  0  0  0
   17.1038  -11.1575  -10.9071 N   0  0  0  0  0  0  0  0  0  0  0  0
   16.3208  -10.1394  -11.4674 C   0  0  0  0  0  0  0  0  0  0  0  0
   15.3265   -9.6575  -10.9057 O   0  0  0  0  0  0  0  0  0  0  0  0
   16.7301   -9.6148  -12.8341 C   0  0  0  0  0  0  0  0  0  0  0  0
   17.9684  -10.3333  -13.2968 C   0  0  0  0  0  0  0  0  0  0  0  0
   18.4881   -9.7317  -14.5502 C   0  0  2  0  0  0  0  0  0  0  0  0
   19.6739  -10.4283  -15.0362 N   0  0  0  0  0  0  0  0  0  0  0  0
   18.7611   -8.2676  -14.4871 C   0  0  0  0  0  0  0  0  0  0  0  0
   17.9075   -7.3804  -14.3569 O   0  0  0  0  0  0  0  0  0  0  0  0
   20.1064   -7.8048  -14.5810 N   0  0  0  0  0  0  0  0  0  0  0  0
   20.5292   -6.4588  -14.5009 C   0  0  1  0  0  0  0  0  0  0  0  0
   21.4573   -6.0947  -13.4060 C   0  0  0  0  0  0  0  0  0  0  0  0
   21.8323   -4.6487  -13.4197 C   0  0  0  0  0  0  0  0  0  0  0  0
   21.0281   -3.7360  -13.7429 O   0  0  0  0  0  0  0  0  0  0  0  0
   21.1999   -6.0906  -15.7956 C   0  0  0  0  0  0  0  0  0  0  0  0
   21.7708   -6.9808  -16.5076 O   0  0  0  0  0  0  0  0  0  0  0  0
   23.1073   -4.2221  -13.0719 O   0  0  0  0  0  0  0  0  0  0  0  0
   21.2328   -4.7956  -16.2728 O   0  0  0  0  0  0  0  0  0  0  0  0
  1  5  1  0
  2  1  1  0
  3  4  1  0
  3  2  1  0
  4  5  1  0
  5  6  1  1
  6 14  1  0
  6  7  2  0
  9 10  2  0
  9  8  1  0
 11  9  1  0
 12 11  1  0
 13 12  1  1
 14 13  1  0
 15 13  1  0
 15 17  1  0
 16 15  2  0
 18 19  1  1
 18 17  1  0
 18 22  1  0
 19 20  1  0
 20 21  2  0
 20 24  1  0
 22 25  1  0
 23 22  2  0
M  END
$$$$
