PQD.pdb
     RDKit          3D

 25 25  0  0  1  0  0  0  0  0999 V2000
   13.5043  -24.6149   -2.5578 N   0  0  0  0  0  0  0  0  0  0  0  0
   13.8322  -24.3776   -3.9528 C   0  0  0  0  0  0  0  0  0  0  0  0
   15.2598  -23.8901   -3.9911 C   0  0  0  0  0  0  0  0  0  0  0  0
   15.5660  -23.5531   -2.5487 C   0  0  0  0  0  0  0  0  0  0  0  0
   14.7305  -24.5812   -1.8166 C   0  0  1  0  0  0  0  0  0  0  0  0
   14.4627  -24.0533   -0.4308 C   0  0  0  0  0  0  0  0  0  0  0  0
   13.5286  -23.2424   -0.2128 O   0  0  0  0  0  0  0  0  0  0  0  0
   13.9323  -27.1747    4.5209 N   0  0  0  0  0  0  0  0  0  0  0  0
   13.9178  -25.9195    5.1438 C   0  0  0  0  0  0  0  0  0  0  0  0
   13.5454  -25.7436    6.3129 O   0  0  0  0  0  0  0  0  0  0  0  0
   14.3867  -24.7276    4.3253 C   0  0  0  0  0  0  0  0  0  0  0  0
   14.7734  -25.1874    2.9459 C   0  0  0  0  0  0  0  0  0  0  0  0
   14.8978  -24.0324    2.0221 C   0  0  2  0  0  0  0  0  0  0  0  0
   15.2539  -24.4528    0.6715 N   0  0  0  0  0  0  0  0  0  0  0  0
   15.8273  -22.9568    2.4706 C   0  0  0  0  0  0  0  0  0  0  0  0
   17.0582  -22.9671    2.3393 O   0  0  0  0  0  0  0  0  0  0  0  0
   15.2960  -21.7986    3.1104 N   0  0  0  0  0  0  0  0  0  0  0  0
   16.0332  -20.6657    3.5227 C   0  0  1  0  0  0  0  0  0  0  0  0
   15.3818  -19.3414    3.4013 C   0  0  0  0  0  0  0  0  0  0  0  0
   16.2866  -18.2131    3.7753 C   0  0  0  0  0  0  0  0  0  0  0  0
   17.4846  -18.3824    4.1223 O   0  0  0  0  0  0  0  0  0  0  0  0
   16.4164  -20.8441    4.9660 C   0  0  0  0  0  0  0  0  0  0  0  0
   15.5405  -21.1615    5.8362 O   0  0  0  0  0  0  0  0  0  0  0  0
   15.8523  -16.8941    3.7616 O   0  0  0  0  0  0  0  0  0  0  0  0
   17.7105  -20.6772    5.4167 O   0  0  0  0  0  0  0  0  0  0  0  0
  1  5  1  0
  2  1  1  0
  3  4  1  0
  3  2  1  0
  4  5  1  0
  5  6  1  1
  6 14  1  0
  6  7  2  0
  9 10  2  0
  9  8  1  0
 11  9  1  0
 12 11  1  0
 13 12  1  1
 14 13  1  0
 15 13  1  0
 15 17  1  0
 16 15  2  0
 18 19  1  1
 18 17  1  0
 18 22  1  0
 19 20  1  0
 20 21  2  0
 20 24  1  0
 22 25  1  0
 23 22  2  0
M  END
$$$$
