PQD.pdb
     RDKit          3D

 25 25  0  0  1  0  0  0  0  0999 V2000
   24.7171  -11.8991  -15.8711 N   0  0  0  0  0  0  0  0  0  0  0  0
   25.2436  -13.2412  -16.0482 C   0  0  0  0  0  0  0  0  0  0  0  0
   24.9163  -13.6580  -17.4611 C   0  0  0  0  0  0  0  0  0  0  0  0
   23.9046  -12.6299  -17.9166 C   0  0  0  0  0  0  0  0  0  0  0  0
   24.3703  -11.3991  -17.1687 C   0  0  1  0  0  0  0  0  0  0  0  0
   23.1951  -10.4638  -17.0463 C   0  0  0  0  0  0  0  0  0  0  0  0
   22.8123   -9.7692  -18.0203 O   0  0  0  0  0  0  0  0  0  0  0  0
   17.8359  -11.4445  -14.6313 N   0  0  0  0  0  0  0  0  0  0  0  0
   18.2921  -11.7576  -15.9187 C   0  0  0  0  0  0  0  0  0  0  0  0
   17.7036  -12.5407  -16.6782 O   0  0  0  0  0  0  0  0  0  0  0  0
   19.5759  -11.0915  -16.3866 C   0  0  0  0  0  0  0  0  0  0  0  0
   20.1090  -10.2063  -15.2930 C   0  0  0  0  0  0  0  0  0  0  0  0
   21.3126   -9.4695  -15.7526 C   0  0  2  0  0  0  0  0  0  0  0  0
   22.4833  -10.3360  -15.8307 N   0  0  0  0  0  0  0  0  0  0  0  0
   21.6484   -8.2477  -14.9673 C   0  0  0  0  0  0  0  0  0  0  0  0
   22.3977   -8.2073  -13.9826 O   0  0  0  0  0  0  0  0  0  0  0  0
   21.0802   -6.9965  -15.3478 N   0  0  0  0  0  0  0  0  0  0  0  0
   21.2655   -5.7636  -14.6827 C   0  0  1  0  0  0  0  0  0  0  0  0
   22.1996   -4.7889  -15.2911 C   0  0  0  0  0  0  0  0  0  0  0  0
   22.2101   -3.4743  -14.5816 C   0  0  0  0  0  0  0  0  0  0  0  0
   22.1954   -3.3734  -13.3271 O   0  0  0  0  0  0  0  0  0  0  0  0
   19.9302   -5.0833  -14.5564 C   0  0  0  0  0  0  0  0  0  0  0  0
   19.5708   -4.5581  -13.4517 O   0  0  0  0  0  0  0  0  0  0  0  0
   22.2371   -2.2712  -15.2746 O   0  0  0  0  0  0  0  0  0  0  0  0
   19.0404   -4.9928  -15.6079 O   0  0  0  0  0  0  0  0  0  0  0  0
  1  5  1  0
  2  1  1  0
  3  4  1  0
  3  2  1  0
  4  5  1  0
  5  6  1  1
  6 14  1  0
  6  7  2  0
  9 10  2  0
  9  8  1  0
 11  9  1  0
 12 11  1  0
 13 12  1  1
 14 13  1  0
 15 13  1  0
 15 17  1  0
 16 15  2  0
 18 19  1  6
 18 17  1  0
 18 22  1  0
 19 20  1  0
 20 21  2  0
 20 24  1  0
 22 25  1  0
 23 22  2  0
M  END
$$$$
