TIP.pdb
     RDKit          3D

 23 23  0  0  1  0  0  0  0  0999 V2000
   27.8109  -16.4981  -15.2961 C   0  0  0  0  0  0  0  0  0  0  0  0
   27.0084  -17.7555  -14.9647 C   0  0  1  0  0  0  0  0  0  0  0  0
   26.2816  -18.2033  -16.0454 O   0  0  0  0  0  0  0  0  0  0  0  0
   28.0058  -18.7783  -14.4634 C   0  0  2  0  0  0  0  0  0  0  0  0
   28.9094  -19.1755  -15.5256 N   0  0  0  0  0  0  0  0  0  0  0  0
   27.3332  -19.9562  -13.8574 C   0  0  0  0  0  0  0  0  0  0  0  0
   27.3473  -21.0424  -14.4889 O   0  0  0  0  0  0  0  0  0  0  0  0
   26.9584  -20.4111   -8.6228 C   0  0  0  0  0  0  0  0  0  0  0  0
   26.9197  -20.7487  -10.0969 C   0  0  0  0  0  0  0  0  0  0  0  0
   25.5587  -20.5786  -10.6902 C   0  0  2  0  0  0  0  0  0  0  0  0
   24.4416  -21.2234   -9.9768 C   0  0  0  0  0  0  0  0  0  0  0  0
   25.6582  -20.8740  -12.1844 C   0  0  2  0  0  0  0  0  0  0  0  0
   26.6906  -19.8926  -12.6162 N   0  0  0  0  0  0  0  0  0  0  0  0
   24.4098  -20.6441  -12.9099 C   0  0  0  0  0  0  0  0  0  0  0  0
   24.0567  -19.4201  -13.0388 O   0  0  0  0  0  0  0  0  0  0  0  0
   23.5808  -21.6406  -13.4721 N   0  0  0  0  0  0  0  0  0  0  0  0
   23.7715  -23.0890  -13.2377 C   0  0  0  0  0  0  0  0  0  0  0  0
   23.3813  -23.7362  -14.5518 C   0  0  0  0  0  0  0  0  0  0  0  0
   22.7840  -22.6225  -15.4026 C   0  0  0  0  0  0  0  0  0  0  0  0
   22.4402  -21.6006  -14.3443 C   0  0  1  0  0  0  0  0  0  0  0  0
   21.1843  -21.9894  -13.6321 C   0  0  0  0  0  0  0  0  0  0  0  0
   21.2070  -22.4699  -12.4979 O   0  0  0  0  0  0  0  0  0  0  0  0
   19.9803  -21.7963  -14.2803 O   0  0  0  0  0  0  0  0  0  0  0  0
  2  1  1  6
  2  3  1  0
  4  5  1  6
  4  6  1  0
  4  2  1  0
  6  7  2  0
  9 10  1  0
  9  8  1  0
 10 12  1  0
 10 11  1  1
 12 14  1  0
 12 13  1  6
 13  6  1  0
 14 15  2  0
 14 16  1  0
 16 20  1  0
 16 17  1  0
 17 18  1  0
 19 18  1  0
 20 19  1  0
 21 23  1  0
 20 21  1  1
 22 21  2  0
M  END
$$$$
