TIP.pdb
     RDKit          3D

 23 23  0  0  1  0  0  0  0  0999 V2000
   25.8261  -21.1401  -16.7827 C   0  0  0  0  0  0  0  0  0  0  0  0
   26.3496  -22.5686  -16.9250 C   0  0  1  0  0  0  0  0  0  0  0  0
   27.5068  -22.6222  -17.6698 O   0  0  0  0  0  0  0  0  0  0  0  0
   26.5317  -23.0982  -15.5183 C   0  0  2  0  0  0  0  0  0  0  0  0
   26.9466  -24.4873  -15.5440 N   0  0  0  0  0  0  0  0  0  0  0  0
   25.3085  -22.9147  -14.6953 C   0  0  0  0  0  0  0  0  0  0  0  0
   24.3897  -23.7662  -14.7930 O   0  0  0  0  0  0  0  0  0  0  0  0
   26.2287  -20.9728  -10.0695 C   0  0  0  0  0  0  0  0  0  0  0  0
   25.5530  -21.6621  -11.2342 C   0  0  0  0  0  0  0  0  0  0  0  0
   24.4495  -20.8451  -11.8243 C   0  0  2  0  0  0  0  0  0  0  0  0
   23.4408  -20.3210  -10.8858 C   0  0  0  0  0  0  0  0  0  0  0  0
   23.9083  -21.5952  -13.0385 C   0  0  2  0  0  0  0  0  0  0  0  0
   25.1507  -21.8321  -13.8231 N   0  0  0  0  0  0  0  0  0  0  0  0
   22.9543  -20.8179  -13.8280 C   0  0  0  0  0  0  0  0  0  0  0  0
   23.4162  -19.7554  -14.3732 O   0  0  0  0  0  0  0  0  0  0  0  0
   21.5942  -21.1385  -14.0376 N   0  0  0  0  0  0  0  0  0  0  0  0
   20.9071  -22.2620  -13.3634 C   0  0  0  0  0  0  0  0  0  0  0  0
   19.9353  -22.7852  -14.4026 C   0  0  0  0  0  0  0  0  0  0  0  0
   19.9769  -21.7855  -15.5514 C   0  0  0  0  0  0  0  0  0  0  0  0
   20.5620  -20.5749  -14.8624 C   0  0  1  0  0  0  0  0  0  0  0  0
   19.5172  -19.8831  -14.0468 C   0  0  0  0  0  0  0  0  0  0  0  0
   19.5287  -19.9209  -12.8154 O   0  0  0  0  0  0  0  0  0  0  0  0
   18.5241  -19.1902  -14.7107 O   0  0  0  0  0  0  0  0  0  0  0  0
  2  1  1  1
  2  3  1  0
  4  5  1  6
  4  6  1  0
  4  2  1  0
  6  7  2  0
  9 10  1  0
  9  8  1  0
 10 12  1  0
 10 11  1  1
 12 14  1  0
 12 13  1  6
 13  6  1  0
 14 15  2  0
 14 16  1  0
 16 20  1  0
 16 17  1  0
 17 18  1  0
 19 18  1  0
 20 19  1  0
 21 23  1  0
 20 21  1  1
 22 21  2  0
M  END
$$$$
