TIP.pdb
     RDKit          3D

 23 23  0  0  1  0  0  0  0  0999 V2000
   20.8046  -10.4679  -19.4273 C   0  0  0  0  0  0  0  0  0  0  0  0
   20.0737  -11.6853  -18.8629 C   0  0  1  0  0  0  0  0  0  0  0  0
   19.5245  -12.4640  -19.8572 O   0  0  0  0  0  0  0  0  0  0  0  0
   21.0827  -12.4354  -18.0194 C   0  0  2  0  0  0  0  0  0  0  0  0
   20.5328  -13.6981  -17.5658 N   0  0  0  0  0  0  0  0  0  0  0  0
   21.5682  -11.6165  -16.8787 C   0  0  0  0  0  0  0  0  0  0  0  0
   20.8096  -11.4618  -15.8891 O   0  0  0  0  0  0  0  0  0  0  0  0
   26.6074  -11.9813  -15.6966 C   0  0  0  0  0  0  0  0  0  0  0  0
   25.1219  -11.6984  -15.6541 C   0  0  0  0  0  0  0  0  0  0  0  0
   24.8047  -10.2554  -15.8783 C   0  0  2  0  0  0  0  0  0  0  0  0
   25.5999   -9.2775  -15.1138 C   0  0  0  0  0  0  0  0  0  0  0  0
   23.2891  -10.0910  -15.8027 C   0  0  2  0  0  0  0  0  0  0  0  0
   22.8329  -11.0183  -16.8739 N   0  0  0  0  0  0  0  0  0  0  0  0
   22.8339   -8.7309  -16.0862 C   0  0  0  0  0  0  0  0  0  0  0  0
   23.1370   -8.2706  -17.2420 O   0  0  0  0  0  0  0  0  0  0  0  0
   22.0991   -7.9016  -15.2094 N   0  0  0  0  0  0  0  0  0  0  0  0
   21.7006   -8.3079  -13.8437 C   0  0  0  0  0  0  0  0  0  0  0  0
   20.3424   -7.6655  -13.6425 C   0  0  0  0  0  0  0  0  0  0  0  0
   20.1354   -6.7469  -14.8401 C   0  0  0  0  0  0  0  0  0  0  0  0
   21.5561   -6.5768  -15.3251 C   0  0  1  0  0  0  0  0  0  0  0  0
   22.2888   -5.6005  -14.4617 C   0  0  0  0  0  0  0  0  0  0  0  0
   22.0306   -4.3961  -14.4854 O   0  0  0  0  0  0  0  0  0  0  0  0
   23.2757   -6.0826  -13.6245 O   0  0  0  0  0  0  0  0  0  0  0  0
  2  1  1  6
  2  3  1  0
  4  5  1  1
  4  6  1  0
  4  2  1  0
  6  7  2  0
  9 10  1  0
  9  8  1  0
 10 12  1  0
 10 11  1  1
 12 14  1  0
 12 13  1  6
 13  6  1  0
 14 15  2  0
 14 16  1  0
 16 20  1  0
 16 17  1  0
 17 18  1  0
 19 18  1  0
 20 19  1  0
 21 23  1  0
 20 21  1  1
 22 21  2  0
M  END
$$$$
