TIP.pdb
     RDKit          3D

 23 23  0  0  1  0  0  0  0  0999 V2000
   12.3157  -16.5067    5.1679 C   0  0  0  0  0  0  0  0  0  0  0  0
   11.7148  -17.1305    3.9091 C   0  0  1  0  0  0  0  0  0  0  0  0
   10.3922  -16.7846    3.7428 O   0  0  0  0  0  0  0  0  0  0  0  0
   12.5876  -16.6861    2.7545 C   0  0  2  0  0  0  0  0  0  0  0  0
   12.0044  -17.0858    1.4886 N   0  0  0  0  0  0  0  0  0  0  0  0
   13.9803  -17.1856    2.8896 C   0  0  0  0  0  0  0  0  0  0  0  0
   14.2761  -18.2823    2.3525 O   0  0  0  0  0  0  0  0  0  0  0  0
   17.6296  -13.4194    3.4013 C   0  0  0  0  0  0  0  0  0  0  0  0
   17.0049  -14.7572    3.0722 C   0  0  0  0  0  0  0  0  0  0  0  0
   17.0875  -15.7253    4.2077 C   0  0  2  0  0  0  0  0  0  0  0  0
   18.4173  -15.9227    4.8123 C   0  0  0  0  0  0  0  0  0  0  0  0
   16.3436  -16.9935    3.7979 C   0  0  2  0  0  0  0  0  0  0  0  0
   14.9629  -16.4777    3.5904 N   0  0  0  0  0  0  0  0  0  0  0  0
   16.3445  -18.0304    4.8286 C   0  0  0  0  0  0  0  0  0  0  0  0
   15.6431  -17.7819    5.8706 O   0  0  0  0  0  0  0  0  0  0  0  0
   17.0380  -19.2600    4.7686 N   0  0  0  0  0  0  0  0  0  0  0  0
   17.9694  -19.6194    3.6767 C   0  0  0  0  0  0  0  0  0  0  0  0
   17.7710  -21.1107    3.4900 C   0  0  0  0  0  0  0  0  0  0  0  0
   16.8795  -21.5589    4.6413 C   0  0  0  0  0  0  0  0  0  0  0  0
   17.0682  -20.4198    5.6156 C   0  0  1  0  0  0  0  0  0  0  0  0
   18.3769  -20.5525    6.3264 C   0  0  0  0  0  0  0  0  0  0  0  0
   19.3541  -19.8705    6.0139 O   0  0  0  0  0  0  0  0  0  0  0  0
   18.4702  -21.4684    7.3558 O   0  0  0  0  0  0  0  0  0  0  0  0
  2  1  1  1
  2  3  1  0
  4  5  1  6
  4  6  1  0
  4  2  1  0
  6  7  2  0
  9 10  1  0
  9  8  1  0
 10 12  1  0
 10 11  1  6
 12 14  1  0
 12 13  1  1
 13  6  1  0
 14 15  2  0
 14 16  1  0
 16 20  1  0
 16 17  1  0
 17 18  1  0
 19 18  1  0
 20 19  1  0
 21 23  1  0
 20 21  1  6
 22 21  2  0
M  END
$$$$
