TIP.pdb
     RDKit          3D

 23 23  0  0  1  0  0  0  0  0999 V2000
   21.2259  -12.4717  -19.3994 C   0  0  0  0  0  0  0  0  0  0  0  0
   20.9067  -13.8100  -18.7347 C   0  0  1  0  0  0  0  0  0  0  0  0
   20.5917  -14.7824  -19.6578 O   0  0  0  0  0  0  0  0  0  0  0  0
   22.1141  -14.1675  -17.8941 C   0  0  2  0  0  0  0  0  0  0  0  0
   21.9573  -15.4839  -17.3067 N   0  0  0  0  0  0  0  0  0  0  0  0
   22.3885  -13.1414  -16.8554 C   0  0  0  0  0  0  0  0  0  0  0  0
   21.6316  -13.0881  -15.8539 O   0  0  0  0  0  0  0  0  0  0  0  0
   27.3066  -12.3537  -15.6857 C   0  0  0  0  0  0  0  0  0  0  0  0
   25.7941  -12.3523  -15.6583 C   0  0  0  0  0  0  0  0  0  0  0  0
   25.2137  -11.0231  -16.0184 C   0  0  2  0  0  0  0  0  0  0  0  0
   25.7846   -9.8466  -15.3381 C   0  0  0  0  0  0  0  0  0  0  0  0
   23.6931  -11.1484  -15.9762 C   0  0  2  0  0  0  0  0  0  0  0  0
   23.4546  -12.2411  -16.9583 N   0  0  0  0  0  0  0  0  0  0  0  0
   22.9949   -9.9338  -16.3946 C   0  0  0  0  0  0  0  0  0  0  0  0
   23.1833   -9.5719  -17.6083 O   0  0  0  0  0  0  0  0  0  0  0  0
   22.1440   -9.1456  -15.5876 N   0  0  0  0  0  0  0  0  0  0  0  0
   21.8573   -9.4458  -14.1675 C   0  0  0  0  0  0  0  0  0  0  0  0
   20.4109   -9.0319  -13.9813 C   0  0  0  0  0  0  0  0  0  0  0  0
   20.0142   -8.3168  -15.2667 C   0  0  0  0  0  0  0  0  0  0  0  0
   21.3695   -7.9608  -15.8315 C   0  0  1  0  0  0  0  0  0  0  0  0
   21.9352   -6.7732  -15.1208 C   0  0  0  0  0  0  0  0  0  0  0  0
   22.8641   -6.8820  -14.3188 O   0  0  0  0  0  0  0  0  0  0  0  0
   21.3879   -5.5330  -15.3849 O   0  0  0  0  0  0  0  0  0  0  0  0
  2  1  1  6
  2  3  1  0
  4  5  1  1
  4  6  1  0
  4  2  1  0
  6  7  2  0
  9 10  1  0
  9  8  1  0
 10 12  1  0
 10 11  1  1
 12 14  1  0
 12 13  1  6
 13  6  1  0
 14 15  2  0
 14 16  1  0
 16 20  1  0
 16 17  1  0
 17 18  1  0
 19 18  1  0
 20 19  1  0
 21 23  1  0
 20 21  1  1
 22 21  2  0
M  END
$$$$
