TIP.pdb
     RDKit          3D

 23 23  0  0  1  0  0  0  0  0999 V2000
   22.0915  -19.3206  -15.6341 C   0  0  0  0  0  0  0  0  0  0  0  0
   22.5256  -17.9178  -16.0565 C   0  0  1  0  0  0  0  0  0  0  0  0
   21.4480  -17.0927  -16.2902 O   0  0  0  0  0  0  0  0  0  0  0  0
   23.4319  -17.4031  -14.9583 C   0  0  2  0  0  0  0  0  0  0  0  0
   23.7706  -16.0114  -15.1844 N   0  0  0  0  0  0  0  0  0  0  0  0
   24.6513  -18.2388  -14.8101 C   0  0  0  0  0  0  0  0  0  0  0  0
   25.6450  -17.9790  -15.5339 O   0  0  0  0  0  0  0  0  0  0  0  0
   25.2677  -20.3053  -10.0700 C   0  0  0  0  0  0  0  0  0  0  0  0
   25.5775  -19.7896  -11.4579 C   0  0  0  0  0  0  0  0  0  0  0  0
   25.6747  -20.8849  -12.4700 C   0  0  2  0  0  0  0  0  0  0  0  0
   26.5747  -22.0064  -12.1456 C   0  0  0  0  0  0  0  0  0  0  0  0
   25.8737  -20.2416  -13.8398 C   0  0  2  0  0  0  0  0  0  0  0  0
   24.7253  -19.2965  -13.8971 N   0  0  0  0  0  0  0  0  0  0  0  0
   25.7998  -21.1921  -14.9481 C   0  0  0  0  0  0  0  0  0  0  0  0
   24.6477  -21.7069  -15.1658 O   0  0  0  0  0  0  0  0  0  0  0  0
   26.8719  -21.5781  -15.7837 N   0  0  0  0  0  0  0  0  0  0  0  0
   28.2855  -21.2409  -15.5062 C   0  0  0  0  0  0  0  0  0  0  0  0
   28.8924  -21.0121  -16.8763 C   0  0  0  0  0  0  0  0  0  0  0  0
   27.8291  -21.4416  -17.8792 C   0  0  0  0  0  0  0  0  0  0  0  0
   26.9497  -22.3144  -17.0147 C   0  0  1  0  0  0  0  0  0  0  0  0
   27.5784  -23.6567  -16.8184 C   0  0  0  0  0  0  0  0  0  0  0  0
   28.1240  -23.9659  -15.7580 O   0  0  0  0  0  0  0  0  0  0  0  0
   27.5348  -24.5568  -17.8649 O   0  0  0  0  0  0  0  0  0  0  0  0
  2  1  1  1
  2  3  1  0
  4  5  1  6
  4  6  1  0
  4  2  1  0
  6  7  2  0
  9 10  1  0
  9  8  1  0
 10 12  1  0
 10 11  1  1
 12 14  1  0
 12 13  1  6
 13  6  1  0
 14 15  2  0
 14 16  1  0
 16 20  1  0
 16 17  1  0
 17 18  1  0
 19 18  1  0
 20 19  1  0
 21 23  1  0
 20 21  1  1
 22 21  2  0
M  END
$$$$
