TIP.pdb
     RDKit          3D

 23 23  0  0  1  0  0  0  0  0999 V2000
   19.1465  -11.2752  -19.7799 C   0  0  0  0  0  0  0  0  0  0  0  0
   18.5168  -12.5530  -19.2273 C   0  0  1  0  0  0  0  0  0  0  0  0
   18.2268  -13.4581  -20.2241 O   0  0  0  0  0  0  0  0  0  0  0  0
   19.4889  -13.0991  -18.2030 C   0  0  2  0  0  0  0  0  0  0  0  0
   19.0539  -14.3974  -17.7258 N   0  0  0  0  0  0  0  0  0  0  0  0
   19.6971  -12.1517  -17.0777 C   0  0  0  0  0  0  0  0  0  0  0  0
   18.7347  -11.9241  -16.3027 O   0  0  0  0  0  0  0  0  0  0  0  0
   24.1196  -12.4714  -14.5683 C   0  0  0  0  0  0  0  0  0  0  0  0
   22.7002  -12.1109  -14.9471 C   0  0  0  0  0  0  0  0  0  0  0  0
   22.5714  -10.6979  -15.4162 C   0  0  2  0  0  0  0  0  0  0  0  0
   23.1806   -9.6606  -14.5641 C   0  0  0  0  0  0  0  0  0  0  0  0
   21.1164  -10.4668  -15.8152 C   0  0  2  0  0  0  0  0  0  0  0  0
   20.9216  -11.5114  -16.8575 N   0  0  0  0  0  0  0  0  0  0  0  0
   20.8684   -9.1406  -16.3786 C   0  0  0  0  0  0  0  0  0  0  0  0
   21.4476   -8.8906  -17.4929 O   0  0  0  0  0  0  0  0  0  0  0  0
   20.0560   -8.1350  -15.8083 N   0  0  0  0  0  0  0  0  0  0  0  0
   19.3286   -8.3003  -14.5306 C   0  0  0  0  0  0  0  0  0  0  0  0
   18.0377   -7.5314  -14.7317 C   0  0  0  0  0  0  0  0  0  0  0  0
   18.1975   -6.7888  -16.0524 C   0  0  0  0  0  0  0  0  0  0  0  0
   19.6995   -6.8042  -16.2148 C   0  0  1  0  0  0  0  0  0  0  0  0
   20.3297   -5.7698  -15.3382 C   0  0  0  0  0  0  0  0  0  0  0  0
   20.9313   -6.0757  -14.3075 O   0  0  0  0  0  0  0  0  0  0  0  0
   20.2225   -4.4447  -15.7122 O   0  0  0  0  0  0  0  0  0  0  0  0
  2  1  1  6
  2  3  1  0
  4  5  1  1
  4  6  1  0
  4  2  1  0
  6  7  2  0
  9 10  1  0
  9  8  1  0
 10 12  1  0
 10 11  1  1
 12 14  1  0
 12 13  1  6
 13  6  1  0
 14 15  2  0
 14 16  1  0
 16 20  1  0
 16 17  1  0
 17 18  1  0
 19 18  1  0
 20 19  1  0
 21 23  1  0
 20 21  1  1
 22 21  2  0
M  END
$$$$
