TIP.pdb
     RDKit          3D

 23 23  0  0  1  0  0  0  0  0999 V2000
   25.3315  -19.1906  -13.2604 C   0  0  0  0  0  0  0  0  0  0  0  0
   25.0313  -19.8785  -11.9295 C   0  0  1  0  0  0  0  0  0  0  0  0
   24.0613  -20.8478  -12.0570 O   0  0  0  0  0  0  0  0  0  0  0  0
   26.3492  -20.4290  -11.4270 C   0  0  2  0  0  0  0  0  0  0  0  0
   26.8777  -21.4142  -12.3503 N   0  0  0  0  0  0  0  0  0  0  0  0
   26.2294  -20.9845  -10.0543 C   0  0  0  0  0  0  0  0  0  0  0  0
   26.0388  -22.2196   -9.9243 O   0  0  0  0  0  0  0  0  0  0  0  0
   29.0638  -18.7488   -6.3814 C   0  0  0  0  0  0  0  0  0  0  0  0
   28.1868  -19.7193   -7.1412 C   0  0  0  0  0  0  0  0  0  0  0  0
   26.7690  -19.7040   -6.6691 C   0  0  2  0  0  0  0  0  0  0  0  0
   26.5549  -19.8301   -5.2161 C   0  0  0  0  0  0  0  0  0  0  0  0
   25.9713  -20.6628   -7.5489 C   0  0  2  0  0  0  0  0  0  0  0  0
   26.3218  -20.1807   -8.9128 N   0  0  0  0  0  0  0  0  0  0  0  0
   24.5263  -20.5812   -7.3416 C   0  0  0  0  0  0  0  0  0  0  0  0
   23.9451  -19.5640   -7.8584 O   0  0  0  0  0  0  0  0  0  0  0  0
   23.7348  -21.5151   -6.6360 N   0  0  0  0  0  0  0  0  0  0  0  0
   24.2970  -22.6594   -5.8852 C   0  0  0  0  0  0  0  0  0  0  0  0
   23.2798  -23.7675   -6.0734 C   0  0  0  0  0  0  0  0  0  0  0  0
   22.0807  -23.1201   -6.7546 C   0  0  0  0  0  0  0  0  0  0  0  0
   22.3195  -21.6620   -6.4393 C   0  0  1  0  0  0  0  0  0  0  0  0
   21.9220  -21.3611   -5.0297 C   0  0  0  0  0  0  0  0  0  0  0  0
   20.7395  -21.2592   -4.6994 O   0  0  0  0  0  0  0  0  0  0  0  0
   22.9216  -21.1972   -4.0909 O   0  0  0  0  0  0  0  0  0  0  0  0
  2  1  1  6
  2  3  1  0
  4  5  1  6
  4  6  1  0
  4  2  1  0
  6  7  2  0
  9 10  1  0
  9  8  1  0
 10 12  1  0
 10 11  1  1
 12 14  1  0
 12 13  1  6
 13  6  1  0
 14 15  2  0
 14 16  1  0
 16 20  1  0
 16 17  1  0
 17 18  1  0
 19 18  1  0
 20 19  1  0
 21 23  1  0
 20 21  1  1
 22 21  2  0
M  END
$$$$
