TIP.pdb
     RDKit          3D

 23 23  0  0  1  0  0  0  0  0999 V2000
   25.4170  -17.3851  -14.6921 C   0  0  0  0  0  0  0  0  0  0  0  0
   26.6873  -17.7690  -15.4496 C   0  0  1  0  0  0  0  0  0  0  0  0
   27.2532  -16.6883  -16.0889 O   0  0  0  0  0  0  0  0  0  0  0  0
   27.6147  -18.4020  -14.4340 C   0  0  2  0  0  0  0  0  0  0  0  0
   28.9206  -18.6456  -15.0151 N   0  0  0  0  0  0  0  0  0  0  0  0
   27.0391  -19.6448  -13.8582 C   0  0  0  0  0  0  0  0  0  0  0  0
   27.2236  -20.7272  -14.4690 O   0  0  0  0  0  0  0  0  0  0  0  0
   26.7658  -19.9295   -8.7392 C   0  0  0  0  0  0  0  0  0  0  0  0
   26.7538  -20.3627  -10.1885 C   0  0  0  0  0  0  0  0  0  0  0  0
   25.3701  -20.5443  -10.7230 C   0  0  2  0  0  0  0  0  0  0  0  0
   24.4862  -21.4549   -9.9731 C   0  0  0  0  0  0  0  0  0  0  0  0
   25.4769  -20.8005  -12.2239 C   0  0  2  0  0  0  0  0  0  0  0  0
   26.3045  -19.6456  -12.6673 N   0  0  0  0  0  0  0  0  0  0  0  0
   24.1869  -20.7895  -12.9119 C   0  0  0  0  0  0  0  0  0  0  0  0
   23.6316  -19.6426  -13.0380 O   0  0  0  0  0  0  0  0  0  0  0  0
   23.5187  -21.9163  -13.4413 N   0  0  0  0  0  0  0  0  0  0  0  0
   23.9050  -23.3118  -13.1374 C   0  0  0  0  0  0  0  0  0  0  0  0
   23.6396  -24.0637  -14.4267 C   0  0  0  0  0  0  0  0  0  0  0  0
   22.9118  -23.0832  -15.3376 C   0  0  0  0  0  0  0  0  0  0  0  0
   22.4040  -22.0752  -14.3333 C   0  0  1  0  0  0  0  0  0  0  0  0
   21.1991  -22.6060  -13.6249 C   0  0  0  0  0  0  0  0  0  0  0  0
   20.0935  -22.6408  -14.1674 O   0  0  0  0  0  0  0  0  0  0  0  0
   21.3519  -23.0636  -12.3309 O   0  0  0  0  0  0  0  0  0  0  0  0
  2  1  1  1
  2  3  1  0
  4  5  1  6
  4  6  1  0
  4  2  1  0
  6  7  2  0
  9 10  1  0
  9  8  1  0
 10 12  1  0
 10 11  1  1
 12 14  1  0
 12 13  1  6
 13  6  1  0
 14 15  2  0
 14 16  1  0
 16 20  1  0
 16 17  1  0
 17 18  1  0
 19 18  1  0
 20 19  1  0
 21 23  1  0
 20 21  1  1
 22 21  2  0
M  END
$$$$
