TIP.pdb
     RDKit          3D

 23 23  0  0  1  0  0  0  0  0999 V2000
   19.8499   -9.2460  -19.9758 C   0  0  0  0  0  0  0  0  0  0  0  0
   18.9999  -10.5139  -19.9071 C   0  0  1  0  0  0  0  0  0  0  0  0
   18.6841  -10.9918  -21.1596 O   0  0  0  0  0  0  0  0  0  0  0  0
   19.7851  -11.5094  -19.0796 C   0  0  2  0  0  0  0  0  0  0  0  0
   19.0948  -12.7831  -19.0203 N   0  0  0  0  0  0  0  0  0  0  0  0
   20.0774  -10.9893  -17.7190 C   0  0  0  0  0  0  0  0  0  0  0  0
   19.1503  -10.9808  -16.8710 O   0  0  0  0  0  0  0  0  0  0  0  0
   23.7752  -12.8520  -15.0556 C   0  0  0  0  0  0  0  0  0  0  0  0
   22.5728  -12.0288  -15.4617 C   0  0  0  0  0  0  0  0  0  0  0  0
   22.8936  -10.5769  -15.6106 C   0  0  2  0  0  0  0  0  0  0  0  0
   23.6423   -9.9490  -14.5070 C   0  0  0  0  0  0  0  0  0  0  0  0
   21.6209   -9.8580  -16.0502 C   0  0  2  0  0  0  0  0  0  0  0  0
   21.3424  -10.5133  -17.3574 N   0  0  0  0  0  0  0  0  0  0  0  0
   21.7972   -8.4185  -16.2357 C   0  0  0  0  0  0  0  0  0  0  0  0
   22.6470   -8.0709  -17.1283 O   0  0  0  0  0  0  0  0  0  0  0  0
   21.1182   -7.4010  -15.5286 N   0  0  0  0  0  0  0  0  0  0  0  0
   20.1148   -7.6694  -14.4749 C   0  0  0  0  0  0  0  0  0  0  0  0
   19.0949   -6.5596  -14.6368 C   0  0  0  0  0  0  0  0  0  0  0  0
   19.6917   -5.5910  -15.6501 C   0  0  0  0  0  0  0  0  0  0  0  0
   21.1537   -5.9661  -15.5849 C   0  0  1  0  0  0  0  0  0  0  0  0
   21.7889   -5.3795  -14.3650 C   0  0  0  0  0  0  0  0  0  0  0  0
   22.0131   -6.0597  -13.3626 O   0  0  0  0  0  0  0  0  0  0  0  0
   22.1245   -4.0400  -14.3843 O   0  0  0  0  0  0  0  0  0  0  0  0
  2  1  1  6
  2  3  1  0
  4  5  1  1
  4  6  1  0
  4  2  1  0
  6  7  2  0
  9 10  1  0
  9  8  1  0
 10 12  1  0
 10 11  1  1
 12 14  1  0
 12 13  1  6
 13  6  1  0
 14 15  2  0
 14 16  1  0
 16 20  1  0
 16 17  1  0
 17 18  1  0
 19 18  1  0
 20 19  1  0
 21 23  1  0
 20 21  1  1
 22 21  2  0
M  END
$$$$
