TIP.pdb
     RDKit          3D

 23 23  0  0  1  0  0  0  0  0999 V2000
   24.0757  -19.3770  -10.6483 C   0  0  0  0  0  0  0  0  0  0  0  0
   24.7369  -20.2565  -11.7085 C   0  0  1  0  0  0  0  0  0  0  0  0
   24.5388  -19.7679  -12.9808 O   0  0  0  0  0  0  0  0  0  0  0  0
   26.2014  -20.3463  -11.3354 C   0  0  2  0  0  0  0  0  0  0  0  0
   26.9562  -21.0097  -12.3808 N   0  0  0  0  0  0  0  0  0  0  0  0
   26.3980  -21.0118  -10.0217 C   0  0  0  0  0  0  0  0  0  0  0  0
   26.4186  -22.2676   -9.9855 O   0  0  0  0  0  0  0  0  0  0  0  0
   28.2494  -18.2796   -5.3943 C   0  0  0  0  0  0  0  0  0  0  0  0
   27.3358  -18.8722   -6.4443 C   0  0  0  0  0  0  0  0  0  0  0  0
   27.6990  -20.2788   -6.7949 C   0  0  2  0  0  0  0  0  0  0  0  0
   29.0034  -20.4804   -7.4511 C   0  0  0  0  0  0  0  0  0  0  0  0
   26.4963  -20.9153   -7.4864 C   0  0  2  0  0  0  0  0  0  0  0  0
   26.5591  -20.2885   -8.8349 N   0  0  0  0  0  0  0  0  0  0  0  0
   25.2203  -20.6030   -6.8446 C   0  0  0  0  0  0  0  0  0  0  0  0
   24.6697  -19.5040   -7.2032 O   0  0  0  0  0  0  0  0  0  0  0  0
   24.5571  -21.3996   -5.8843 N   0  0  0  0  0  0  0  0  0  0  0  0
   25.2154  -22.4925   -5.1352 C   0  0  0  0  0  0  0  0  0  0  0  0
   24.1335  -23.5423   -4.9754 C   0  0  0  0  0  0  0  0  0  0  0  0
   22.8465  -22.8911   -5.4660 C   0  0  0  0  0  0  0  0  0  0  0  0
   23.2113  -21.4274   -5.3830 C   0  0  1  0  0  0  0  0  0  0  0  0
   23.1375  -20.9507   -3.9678 C   0  0  0  0  0  0  0  0  0  0  0  0
   24.1489  -20.8173   -3.2772 O   0  0  0  0  0  0  0  0  0  0  0  0
   21.8944  -20.6583   -3.4419 O   0  0  0  0  0  0  0  0  0  0  0  0
  2  1  1  1
  2  3  1  0
  4  5  1  6
  4  6  1  0
  4  2  1  0
  6  7  2  0
  9 10  1  0
  9  8  1  0
 10 12  1  0
 10 11  1  6
 12 14  1  0
 12 13  1  6
 13  6  1  0
 14 15  2  0
 14 16  1  0
 16 20  1  0
 16 17  1  0
 17 18  1  0
 19 18  1  0
 20 19  1  0
 21 23  1  0
 20 21  1  1
 22 21  2  0
M  END
$$$$
