TIP.pdb
     RDKit          3D

 23 23  0  0  1  0  0  0  0  0999 V2000
   19.2381  -10.4236  -19.9907 C   0  0  0  0  0  0  0  0  0  0  0  0
   18.7182  -11.7721  -19.4949 C   0  0  1  0  0  0  0  0  0  0  0  0
   18.7205  -12.7236  -20.4905 O   0  0  0  0  0  0  0  0  0  0  0  0
   19.5850  -12.1555  -18.3142 C   0  0  2  0  0  0  0  0  0  0  0  0
   19.2573  -13.4896  -17.8504 N   0  0  0  0  0  0  0  0  0  0  0  0
   19.4912  -11.1623  -17.2133 C   0  0  0  0  0  0  0  0  0  0  0  0
   18.4343  -11.1206  -16.5351 O   0  0  0  0  0  0  0  0  0  0  0  0
   23.4106  -11.0445  -14.2243 C   0  0  0  0  0  0  0  0  0  0  0  0
   22.0384  -10.7966  -14.8107 C   0  0  0  0  0  0  0  0  0  0  0  0
   21.8253   -9.3672  -15.1911 C   0  0  2  0  0  0  0  0  0  0  0  0
   22.1435   -8.3563  -14.1665 C   0  0  0  0  0  0  0  0  0  0  0  0
   20.4472   -9.2543  -15.8375 C   0  0  2  0  0  0  0  0  0  0  0  0
   20.5349  -10.2804  -16.9122 N   0  0  0  0  0  0  0  0  0  0  0  0
   20.1796   -7.9391  -16.4173 C   0  0  0  0  0  0  0  0  0  0  0  0
   20.9534   -7.5829  -17.3732 O   0  0  0  0  0  0  0  0  0  0  0  0
   19.1562   -7.0494  -16.0202 N   0  0  0  0  0  0  0  0  0  0  0  0
   18.2020   -7.3385  -14.9271 C   0  0  0  0  0  0  0  0  0  0  0  0
   16.9021   -6.7092  -15.3878 C   0  0  0  0  0  0  0  0  0  0  0  0
   17.2478   -5.9075  -16.6363 C   0  0  0  0  0  0  0  0  0  0  0  0
   18.7422   -5.7523  -16.4777 C   0  0  1  0  0  0  0  0  0  0  0  0
   19.0527   -4.6865  -15.4761 C   0  0  0  0  0  0  0  0  0  0  0  0
   18.8421   -3.4960  -15.7129 O   0  0  0  0  0  0  0  0  0  0  0  0
   19.5882   -5.0685  -14.2618 O   0  0  0  0  0  0  0  0  0  0  0  0
  2  1  1  6
  2  3  1  0
  4  5  1  1
  4  6  1  0
  4  2  1  0
  6  7  2  0
  9 10  1  0
  9  8  1  0
 10 12  1  0
 10 11  1  1
 12 14  1  0
 12 13  1  6
 13  6  1  0
 14 15  2  0
 14 16  1  0
 16 20  1  0
 16 17  1  0
 17 18  1  0
 19 18  1  0
 20 19  1  0
 21 23  1  0
 20 21  1  1
 22 21  2  0
M  END
$$$$
