TIP.pdb
     RDKit          3D

 23 23  0  0  1  0  0  0  0  0999 V2000
   22.1160  -19.4489  -11.3015 C   0  0  0  0  0  0  0  0  0  0  0  0
   21.6999  -20.6927  -12.0854 C   0  0  1  0  0  0  0  0  0  0  0  0
   20.4901  -20.5213  -12.7209 O   0  0  0  0  0  0  0  0  0  0  0  0
   22.8313  -20.9893  -13.0468 C   0  0  2  0  0  0  0  0  0  0  0  0
   22.4659  -22.0612  -13.9523 N   0  0  0  0  0  0  0  0  0  0  0  0
   24.0985  -21.2932  -12.3332 C   0  0  0  0  0  0  0  0  0  0  0  0
   24.2444  -22.4381  -11.8366 O   0  0  0  0  0  0  0  0  0  0  0  0
   28.4059  -19.6594  -14.3803 C   0  0  0  0  0  0  0  0  0  0  0  0
   27.3532  -20.3098  -13.5101 C   0  0  0  0  0  0  0  0  0  0  0  0
   27.4001  -19.8304  -12.0955 C   0  0  2  0  0  0  0  0  0  0  0  0
   28.7276  -19.7870  -11.4562 C   0  0  0  0  0  0  0  0  0  0  0  0
   26.3060  -20.5568  -11.3176 C   0  0  2  0  0  0  0  0  0  0  0  0
   25.1243  -20.3512  -12.1989 N   0  0  0  0  0  0  0  0  0  0  0  0
   26.0532  -19.9876   -9.9949 C   0  0  0  0  0  0  0  0  0  0  0  0
   25.2101  -19.0247   -9.9537 O   0  0  0  0  0  0  0  0  0  0  0  0
   26.6474  -20.4065   -8.7833 N   0  0  0  0  0  0  0  0  0  0  0  0
   27.7128  -21.4304   -8.7079 C   0  0  0  0  0  0  0  0  0  0  0  0
   27.4296  -22.1718   -7.4163 C   0  0  0  0  0  0  0  0  0  0  0  0
   26.3298  -21.3832   -6.7167 C   0  0  0  0  0  0  0  0  0  0  0  0
   26.4471  -20.0449   -7.4077 C   0  0  1  0  0  0  0  0  0  0  0  0
   27.6078  -19.2761   -6.8624 C   0  0  0  0  0  0  0  0  0  0  0  0
   28.6447  -19.1252   -7.5104 O   0  0  0  0  0  0  0  0  0  0  0  0
   27.4930  -18.7301   -5.5991 O   0  0  0  0  0  0  0  0  0  0  0  0
  2  1  1  6
  2  3  1  0
  4  5  1  1
  4  6  1  0
  4  2  1  0
  6  7  2  0
  9 10  1  0
  9  8  1  0
 10 12  1  0
 10 11  1  1
 12 14  1  0
 12 13  1  6
 13  6  1  0
 14 15  2  0
 14 16  1  0
 16 20  1  0
 16 17  1  0
 17 18  1  0
 19 18  1  0
 20 19  1  0
 21 23  1  0
 20 21  1  1
 22 21  2  0
M  END
$$$$
