TIP.pdb
     RDKit          3D

 23 23  0  0  1  0  0  0  0  0999 V2000
   27.5066  -16.0943  -14.8904 C   0  0  0  0  0  0  0  0  0  0  0  0
   26.7603  -17.3955  -14.5994 C   0  0  1  0  0  0  0  0  0  0  0  0
   26.0988  -17.8703  -15.7100 O   0  0  0  0  0  0  0  0  0  0  0  0
   27.7914  -18.3691  -14.0692 C   0  0  2  0  0  0  0  0  0  0  0  0
   28.7701  -18.6852  -15.0913 N   0  0  0  0  0  0  0  0  0  0  0  0
   27.1619  -19.5998  -13.5247 C   0  0  0  0  0  0  0  0  0  0  0  0
   27.2586  -20.6632  -14.1869 O   0  0  0  0  0  0  0  0  0  0  0  0
   26.8013  -20.0074   -8.3614 C   0  0  0  0  0  0  0  0  0  0  0  0
   26.7977  -20.4337   -9.8128 C   0  0  0  0  0  0  0  0  0  0  0  0
   25.4240  -20.4617  -10.4004 C   0  0  2  0  0  0  0  0  0  0  0  0
   24.4204  -21.2799   -9.6960 C   0  0  0  0  0  0  0  0  0  0  0  0
   25.5602  -20.7137  -11.8997 C   0  0  2  0  0  0  0  0  0  0  0  0
   26.4710  -19.6096  -12.3081 N   0  0  0  0  0  0  0  0  0  0  0  0
   24.2949  -20.6177  -12.6258 C   0  0  0  0  0  0  0  0  0  0  0  0
   23.8205  -19.4367  -12.7663 O   0  0  0  0  0  0  0  0  0  0  0  0
   23.5699  -21.6980  -13.1769 N   0  0  0  0  0  0  0  0  0  0  0  0
   23.8638  -23.1165  -12.8758 C   0  0  0  0  0  0  0  0  0  0  0  0
   23.5792  -23.8426  -14.1757 C   0  0  0  0  0  0  0  0  0  0  0  0
   22.9316  -22.8136  -15.0937 C   0  0  0  0  0  0  0  0  0  0  0  0
   22.4661  -21.7826  -14.0923 C   0  0  1  0  0  0  0  0  0  0  0  0
   21.2167  -22.2429  -13.4122 C   0  0  0  0  0  0  0  0  0  0  0  0
   21.2379  -22.7247  -12.2785 O   0  0  0  0  0  0  0  0  0  0  0  0
   20.0201  -22.1153  -14.0898 O   0  0  0  0  0  0  0  0  0  0  0  0
  2  1  1  6
  2  3  1  0
  4  5  1  6
  4  6  1  0
  4  2  1  0
  6  7  2  0
  9 10  1  0
  9  8  1  0
 10 12  1  0
 10 11  1  1
 12 14  1  0
 12 13  1  6
 13  6  1  0
 14 15  2  0
 14 16  1  0
 16 20  1  0
 16 17  1  0
 17 18  1  0
 19 18  1  0
 20 19  1  0
 21 23  1  0
 20 21  1  1
 22 21  2  0
M  END
$$$$
