NDK.pdb
     RDKit          3D

 26 25  0  0  1  0  0  0  0  0999 V2000
   27.0290  -11.5603  -15.4202 N   0  0  0  0  0  0  0  0  0  0  0  0
   25.6297  -11.7429  -15.4601 C   0  0  0  0  0  0  0  0  0  0  0  0
   25.1067  -12.6819  -16.1006 O   0  0  0  0  0  0  0  0  0  0  0  0
   24.7470  -10.8110  -14.7326 C   0  0  0  0  0  0  0  0  0  0  0  0
   23.6279  -10.3274  -15.6482 C   0  0  2  0  0  0  0  0  0  0  0  0
   24.2320   -9.7323  -16.8203 N   0  0  0  0  0  0  0  0  0  0  0  0
   22.7823   -9.3883  -14.9031 C   0  0  0  0  0  0  0  0  0  0  0  0
   22.1767   -9.7913  -13.8774 O   0  0  0  0  0  0  0  0  0  0  0  0
   22.6585   -8.0438  -15.3470 N   0  0  0  0  0  0  0  0  0  0  0  0
   21.7859   -7.0834  -14.6997 C   0  0  1  0  0  0  0  0  0  0  0  0
   22.4116   -5.7186  -14.8369 C   0  0  0  0  0  0  0  0  0  0  0  0
   21.6407   -4.7320  -14.0452 C   0  0  0  0  0  0  0  0  0  0  0  0
   20.5751   -4.9912  -13.4295 O   0  0  0  0  0  0  0  0  0  0  0  0
   20.4246   -7.1122  -15.3157 C   0  0  0  0  0  0  0  0  0  0  0  0
   20.2136   -7.0398  -16.5405 O   0  0  0  0  0  0  0  0  0  0  0  0
   22.0661   -3.3980  -13.9285 O   0  0  0  0  0  0  0  0  0  0  0  0
   19.3054   -7.2292  -14.4584 N   0  0  0  0  0  0  0  0  0  0  0  0
   17.9257   -7.2006  -15.0079 C   0  0  1  0  0  0  0  0  0  0  0  0
   17.2336   -8.4832  -14.6994 C   0  0  0  0  0  0  0  0  0  0  0  0
   15.8438   -8.4913  -15.2579 C   0  0  0  0  0  0  0  0  0  0  0  0
   15.0943   -9.7669  -14.8846 C   0  0  0  0  0  0  0  0  0  0  0  0
   13.7267   -9.8177  -15.4943 C   0  0  0  0  0  0  0  0  0  0  0  0
   13.0387  -11.0321  -15.0318 N   0  0  0  0  0  0  0  0  0  0  0  0
   17.2228   -6.0095  -14.5356 C   0  0  0  0  0  0  0  0  0  0  0  0
   17.5744   -5.2752  -13.5910 O   0  0  0  0  0  0  0  0  0  0  0  0
   16.0317   -5.6412  -15.2005 O   0  0  0  0  0  0  0  0  0  0  0  0
  2  3  2  0
  2  1  1  0
  4  5  1  0
  4  2  1  0
  5  7  1  0
  5  6  1  6
  7  8  2  0
  9 10  1  0
  9  7  1  0
 10 14  1  0
 11 12  1  0
 10 11  1  6
 12 16  1  0
 13 12  2  0
 14 17  1  0
 14 15  2  0
 17 18  1  0
 18 24  1  0
 18 19  1  1
 20 21  1  0
 20 19  1  0
 22 21  1  0
 23 22  1  0
 24 26  1  0
 25 24  2  0
M  END
$$$$
