NDK.pdb
     RDKit          3D

 26 25  0  0  1  0  0  0  0  0999 V2000
   29.3328  -19.8515  -11.2265 N   0  0  0  0  0  0  0  0  0  0  0  0
   28.8048  -19.6119  -12.5137 C   0  0  0  0  0  0  0  0  0  0  0  0
   29.4754  -19.0446  -13.4048 O   0  0  0  0  0  0  0  0  0  0  0  0
   27.4280  -20.0356  -12.8326 C   0  0  0  0  0  0  0  0  0  0  0  0
   26.7322  -20.5439  -11.5748 C   0  0  2  0  0  0  0  0  0  0  0  0
   27.4621  -21.6959  -11.0921 N   0  0  0  0  0  0  0  0  0  0  0  0
   25.3347  -20.8493  -11.9003 C   0  0  0  0  0  0  0  0  0  0  0  0
   25.0120  -22.0367  -12.1592 O   0  0  0  0  0  0  0  0  0  0  0  0
   24.3694  -19.8062  -11.9193 N   0  0  0  0  0  0  0  0  0  0  0  0
   22.9821  -20.0306  -12.2767 C   0  0  1  0  0  0  0  0  0  0  0  0
   22.1207  -19.2623  -11.3068 C   0  0  0  0  0  0  0  0  0  0  0  0
   21.9367  -20.0511  -10.0664 C   0  0  0  0  0  0  0  0  0  0  0  0
   22.4127  -19.7353   -8.9459 O   0  0  0  0  0  0  0  0  0  0  0  0
   22.7248  -19.5939  -13.6826 C   0  0  0  0  0  0  0  0  0  0  0  0
   22.9366  -18.4413  -14.1028 O   0  0  0  0  0  0  0  0  0  0  0  0
   21.1931  -21.2433  -10.0636 O   0  0  0  0  0  0  0  0  0  0  0  0
   22.2098  -20.5452  -14.5943 N   0  0  0  0  0  0  0  0  0  0  0  0
   21.9247  -20.1662  -16.0019 C   0  0  1  0  0  0  0  0  0  0  0  0
   21.7336  -21.3929  -16.8253 C   0  0  0  0  0  0  0  0  0  0  0  0
   21.5112  -21.0441  -18.2650 C   0  0  0  0  0  0  0  0  0  0  0  0
   21.2125  -22.2826  -19.1049 C   0  0  0  0  0  0  0  0  0  0  0  0
   21.1451  -21.9700  -20.5684 C   0  0  0  0  0  0  0  0  0  0  0  0
   20.9993  -23.2241  -21.3219 N   0  0  0  0  0  0  0  0  0  0  0  0
   20.8047  -19.2286  -16.0515 C   0  0  0  0  0  0  0  0  0  0  0  0
   20.7101  -18.2364  -16.8009 O   0  0  0  0  0  0  0  0  0  0  0  0
   19.7194  -19.4527  -15.1751 O   0  0  0  0  0  0  0  0  0  0  0  0
  2  3  2  0
  2  1  1  0
  4  5  1  0
  4  2  1  0
  5  7  1  0
  5  6  1  6
  7  8  2  0
  9 10  1  0
  9  7  1  0
 10 14  1  0
 11 12  1  0
 10 11  1  1
 12 16  1  0
 13 12  2  0
 14 17  1  0
 14 15  2  0
 17 18  1  0
 18 24  1  0
 18 19  1  6
 20 21  1  0
 20 19  1  0
 22 21  1  0
 23 22  1  0
 24 26  1  0
 25 24  2  0
M  END
$$$$
