NDK.pdb
     RDKit          3D

 26 25  0  0  1  0  0  0  0  0999 V2000
   29.3262   -2.1475  -21.1824 N   0  0  0  0  0  0  0  0  0  0  0  0
   28.6799   -1.9741  -19.9392 C   0  0  0  0  0  0  0  0  0  0  0  0
   28.2083   -0.8687  -19.5913 O   0  0  0  0  0  0  0  0  0  0  0  0
   28.5488   -3.1166  -19.0147 C   0  0  0  0  0  0  0  0  0  0  0  0
   29.0538   -4.3908  -19.6825 C   0  0  2  0  0  0  0  0  0  0  0  0
   27.9719   -4.9467  -20.4655 N   0  0  0  0  0  0  0  0  0  0  0  0
   29.5359   -5.3077  -18.6436 C   0  0  0  0  0  0  0  0  0  0  0  0
   29.0549   -5.2268  -17.4847 O   0  0  0  0  0  0  0  0  0  0  0  0
   30.5343   -6.2693  -18.9578 N   0  0  0  0  0  0  0  0  0  0  0  0
   31.0413   -7.2173  -17.9846 C   0  0  1  0  0  0  0  0  0  0  0  0
   30.6798   -8.6041  -18.4526 C   0  0  0  0  0  0  0  0  0  0  0  0
   31.1347   -9.6031  -17.4578 C   0  0  0  0  0  0  0  0  0  0  0  0
   31.4458   -9.3326  -16.2697 O   0  0  0  0  0  0  0  0  0  0  0  0
   32.5209   -7.0727  -17.8323 C   0  0  0  0  0  0  0  0  0  0  0  0
   33.3020   -6.8758  -18.7815 O   0  0  0  0  0  0  0  0  0  0  0  0
   31.2517  -10.9631  -17.7909 O   0  0  0  0  0  0  0  0  0  0  0  0
   33.0710   -7.1642  -16.5322 N   0  0  0  0  0  0  0  0  0  0  0  0
   34.5381   -7.0623  -16.3230 C   0  0  1  0  0  0  0  0  0  0  0  0
   34.8341   -6.9669  -14.8661 C   0  0  0  0  0  0  0  0  0  0  0  0
   36.2900   -6.7055  -14.6299 C   0  0  0  0  0  0  0  0  0  0  0  0
   36.5993   -6.5437  -13.1444 C   0  0  0  0  0  0  0  0  0  0  0  0
   38.0105   -6.1010  -12.9061 C   0  0  0  0  0  0  0  0  0  0  0  0
   38.1873   -5.8066  -11.4764 N   0  0  0  0  0  0  0  0  0  0  0  0
   35.2190   -8.1616  -17.0040 C   0  0  0  0  0  0  0  0  0  0  0  0
   34.8129   -9.3377  -17.0879 O   0  0  0  0  0  0  0  0  0  0  0  0
   36.4539   -7.8831  -17.6314 O   0  0  0  0  0  0  0  0  0  0  0  0
  2  3  2  0
  2  1  1  0
  4  5  1  0
  4  2  1  0
  5  7  1  0
  5  6  1  1
  7  8  2  0
  9 10  1  0
  9  7  1  0
 10 14  1  0
 11 12  1  0
 10 11  1  6
 12 16  1  0
 13 12  2  0
 14 17  1  0
 14 15  2  0
 17 18  1  0
 18 24  1  0
 18 19  1  1
 20 21  1  0
 20 19  1  0
 22 21  1  0
 23 22  1  0
 24 26  1  0
 25 24  2  0
M  END
$$$$
