NDK.pdb
     RDKit          3D

 26 25  0  0  1  0  0  0  0  0999 V2000
   26.9789  -21.5735  -15.3659 N   0  0  0  0  0  0  0  0  0  0  0  0
   27.1285  -20.1702  -15.3281 C   0  0  0  0  0  0  0  0  0  0  0  0
   28.2382  -19.6217  -15.5104 O   0  0  0  0  0  0  0  0  0  0  0  0
   25.9554  -19.3139  -15.0682 C   0  0  0  0  0  0  0  0  0  0  0  0
   24.6885  -20.1611  -15.0237 C   0  0  2  0  0  0  0  0  0  0  0  0
   24.7110  -21.0624  -16.1551 N   0  0  0  0  0  0  0  0  0  0  0  0
   23.5244  -19.2684  -15.0284 C   0  0  0  0  0  0  0  0  0  0  0  0
   23.3195  -18.5247  -14.0355 O   0  0  0  0  0  0  0  0  0  0  0  0
   22.6484  -19.2555  -16.1476 N   0  0  0  0  0  0  0  0  0  0  0  0
   21.4178  -18.4887  -16.1690 C   0  0  1  0  0  0  0  0  0  0  0  0
   21.3724  -17.7164  -17.4630 C   0  0  0  0  0  0  0  0  0  0  0  0
   22.2809  -16.5490  -17.3820 C   0  0  0  0  0  0  0  0  0  0  0  0
   22.6738  -16.0272  -16.3074 O   0  0  0  0  0  0  0  0  0  0  0  0
   20.2339  -19.3921  -16.0434 C   0  0  0  0  0  0  0  0  0  0  0  0
   20.2103  -20.5685  -16.4501 O   0  0  0  0  0  0  0  0  0  0  0  0
   22.7778  -15.9296  -18.5412 O   0  0  0  0  0  0  0  0  0  0  0  0
   19.0677  -18.8834  -15.4251 N   0  0  0  0  0  0  0  0  0  0  0  0
   17.9078  -19.7705  -15.1530 C   0  0  1  0  0  0  0  0  0  0  0  0
   18.3553  -20.9620  -14.3788 C   0  0  0  0  0  0  0  0  0  0  0  0
   17.2486  -21.9627  -14.2458 C   0  0  0  0  0  0  0  0  0  0  0  0
   17.7062  -23.2126  -13.4996 C   0  0  0  0  0  0  0  0  0  0  0  0
   16.6121  -24.2282  -13.3745 C   0  0  0  0  0  0  0  0  0  0  0  0
   17.1078  -25.3766  -12.6016 N   0  0  0  0  0  0  0  0  0  0  0  0
   16.8333  -19.0101  -14.5181 C   0  0  0  0  0  0  0  0  0  0  0  0
   16.9751  -18.0982  -13.6794 O   0  0  0  0  0  0  0  0  0  0  0  0
   15.5034  -19.3246  -14.8770 O   0  0  0  0  0  0  0  0  0  0  0  0
  2  3  2  0
  2  1  1  0
  4  5  1  0
  4  2  1  0
  5  7  1  0
  5  6  1  6
  7  8  2  0
  9 10  1  0
  9  7  1  0
 10 14  1  0
 11 12  1  0
 10 11  1  6
 12 16  1  0
 13 12  2  0
 14 17  1  0
 14 15  2  0
 17 18  1  0
 18 24  1  0
 18 19  1  1
 20 21  1  0
 20 19  1  0
 22 21  1  0
 23 22  1  0
 24 26  1  0
 25 24  2  0
M  END
$$$$
