NDK.pdb
     RDKit          3D

 26 25  0  0  1  0  0  0  0  0999 V2000
   20.2766  -14.2457  -15.9963 N   0  0  0  0  0  0  0  0  0  0  0  0
   19.8361  -13.0462  -16.5964 C   0  0  0  0  0  0  0  0  0  0  0  0
   19.6452  -12.9590  -17.8298 O   0  0  0  0  0  0  0  0  0  0  0  0
   19.5895  -11.8552  -15.7610 C   0  0  0  0  0  0  0  0  0  0  0  0
   19.9371  -10.5900  -16.5376 C   0  0  2  0  0  0  0  0  0  0  0  0
   21.2386  -10.7768  -17.1411 N   0  0  0  0  0  0  0  0  0  0  0  0
   19.8928   -9.4467  -15.6194 C   0  0  0  0  0  0  0  0  0  0  0  0
   18.8767   -9.2804  -14.8977 O   0  0  0  0  0  0  0  0  0  0  0  0
   20.9913   -8.5469  -15.5579 N   0  0  0  0  0  0  0  0  0  0  0  0
   20.9288   -7.2834  -14.8491 C   0  0  1  0  0  0  0  0  0  0  0  0
   22.3401   -6.8497  -14.5441 C   0  0  0  0  0  0  0  0  0  0  0  0
   22.3203   -5.5827  -13.7767 C   0  0  0  0  0  0  0  0  0  0  0  0
   22.1935   -5.5101  -12.5276 O   0  0  0  0  0  0  0  0  0  0  0  0
   20.2188   -6.2556  -15.6695 C   0  0  0  0  0  0  0  0  0  0  0  0
   20.4434   -6.0530  -16.8772 O   0  0  0  0  0  0  0  0  0  0  0  0
   22.4461   -4.3391  -14.4185 O   0  0  0  0  0  0  0  0  0  0  0  0
   19.2307   -5.4633  -15.0393 N   0  0  0  0  0  0  0  0  0  0  0  0
   18.4787   -4.4391  -15.8087 C   0  0  1  0  0  0  0  0  0  0  0  0
   17.0155   -4.6905  -15.6862 C   0  0  0  0  0  0  0  0  0  0  0  0
   16.2304   -3.6865  -16.4733 C   0  0  0  0  0  0  0  0  0  0  0  0
   14.7321   -3.9689  -16.4107 C   0  0  0  0  0  0  0  0  0  0  0  0
   13.9408   -3.0081  -17.2444 C   0  0  0  0  0  0  0  0  0  0  0  0
   12.5120   -3.3361  -17.1305 N   0  0  0  0  0  0  0  0  0  0  0  0
   18.8948   -3.0993  -15.3994 C   0  0  0  0  0  0  0  0  0  0  0  0
   19.0520   -2.7051  -14.2268 O   0  0  0  0  0  0  0  0  0  0  0  0
   19.1469   -2.1495  -16.4146 O   0  0  0  0  0  0  0  0  0  0  0  0
  2  3  2  0
  2  1  1  0
  4  5  1  0
  4  2  1  0
  5  7  1  0
  5  6  1  1
  7  8  2  0
  9 10  1  0
  9  7  1  0
 10 14  1  0
 11 12  1  0
 10 11  1  6
 12 16  1  0
 13 12  2  0
 14 17  1  0
 14 15  2  0
 17 18  1  0
 18 24  1  0
 18 19  1  1
 20 21  1  0
 20 19  1  0
 22 21  1  0
 23 22  1  0
 24 26  1  0
 25 24  2  0
M  END
$$$$
