NDK.pdb
     RDKit          3D

 26 25  0  0  1  0  0  0  0  0999 V2000
   19.0377  -13.4778  -18.6419 N   0  0  0  0  0  0  0  0  0  0  0  0
   18.3332  -12.4761  -19.3443 C   0  0  0  0  0  0  0  0  0  0  0  0
   17.8147  -12.6968  -20.4614 O   0  0  0  0  0  0  0  0  0  0  0  0
   18.1957  -11.1285  -18.7595 C   0  0  0  0  0  0  0  0  0  0  0  0
   19.4816  -10.7363  -18.0403 C   0  0  2  0  0  0  0  0  0  0  0  0
   19.7192  -11.6995  -16.9875 N   0  0  0  0  0  0  0  0  0  0  0  0
   19.3409   -9.3651  -17.5381 C   0  0  0  0  0  0  0  0  0  0  0  0
   18.3976   -8.6511  -17.9639 O   0  0  0  0  0  0  0  0  0  0  0  0
   20.2667   -8.8640  -16.5831 N   0  0  0  0  0  0  0  0  0  0  0  0
   20.1765   -7.5249  -16.0340 C   0  0  1  0  0  0  0  0  0  0  0  0
   21.0646   -7.4590  -14.8176 C   0  0  0  0  0  0  0  0  0  0  0  0
   20.4528   -8.2268  -13.7081 C   0  0  0  0  0  0  0  0  0  0  0  0
   19.2174   -8.4208  -13.5745 O   0  0  0  0  0  0  0  0  0  0  0  0
   20.5877   -6.5111  -17.0522 C   0  0  0  0  0  0  0  0  0  0  0  0
   21.4549   -6.7116  -17.9226 O   0  0  0  0  0  0  0  0  0  0  0  0
   21.2416   -8.8064  -12.7002 O   0  0  0  0  0  0  0  0  0  0  0  0
   19.9552   -5.2459  -17.0289 N   0  0  0  0  0  0  0  0  0  0  0  0
   20.2806   -4.2190  -18.0516 C   0  0  1  0  0  0  0  0  0  0  0  0
   19.8943   -4.7132  -19.4028 C   0  0  0  0  0  0  0  0  0  0  0  0
   20.1504   -3.6721  -20.4489 C   0  0  0  0  0  0  0  0  0  0  0  0
   19.7890   -4.1744  -21.8437 C   0  0  0  0  0  0  0  0  0  0  0  0
   20.0349   -3.1393  -22.8983 C   0  0  0  0  0  0  0  0  0  0  0  0
   19.7854   -3.7313  -24.2209 N   0  0  0  0  0  0  0  0  0  0  0  0
   19.6788   -2.9385  -17.6852 C   0  0  0  0  0  0  0  0  0  0  0  0
   18.7567   -2.7688  -16.8629 O   0  0  0  0  0  0  0  0  0  0  0  0
   20.1765   -1.7741  -18.3117 O   0  0  0  0  0  0  0  0  0  0  0  0
  2  3  2  0
  2  1  1  0
  4  5  1  0
  4  2  1  0
  5  7  1  0
  5  6  1  1
  7  8  2  0
  9 10  1  0
  9  7  1  0
 10 14  1  0
 11 12  1  0
 10 11  1  1
 12 16  1  0
 13 12  2  0
 14 17  1  0
 14 15  2  0
 17 18  1  0
 18 24  1  0
 18 19  1  6
 20 21  1  0
 20 19  1  0
 22 21  1  0
 23 22  1  0
 24 26  1  0
 25 24  2  0
M  END
$$$$
