NDK.pdb
     RDKit          3D

 26 25  0  0  1  0  0  0  0  0999 V2000
   14.9070  -11.8731  -15.2853 N   0  0  0  0  0  0  0  0  0  0  0  0
   16.2438  -11.7498  -14.8482 C   0  0  0  0  0  0  0  0  0  0  0  0
   17.1888  -12.2967  -15.4591 O   0  0  0  0  0  0  0  0  0  0  0  0
   16.5511  -10.9586  -13.6413 C   0  0  0  0  0  0  0  0  0  0  0  0
   16.7397   -9.4916  -14.0112 C   0  0  2  0  0  0  0  0  0  0  0  0
   17.8315   -9.4033  -14.9562 N   0  0  0  0  0  0  0  0  0  0  0  0
   16.9832   -8.7242  -12.7848 C   0  0  0  0  0  0  0  0  0  0  0  0
   16.4071   -9.0699  -11.7220 O   0  0  0  0  0  0  0  0  0  0  0  0
   17.8610   -7.6067  -12.8131 N   0  0  0  0  0  0  0  0  0  0  0  0
   18.1533   -6.8115  -11.6363 C   0  0  1  0  0  0  0  0  0  0  0  0
   19.4395   -6.0656  -11.8855 C   0  0  0  0  0  0  0  0  0  0  0  0
   20.5772   -7.0145  -11.8856 C   0  0  0  0  0  0  0  0  0  0  0  0
   20.6922   -7.9867  -11.0961 O   0  0  0  0  0  0  0  0  0  0  0  0
   17.0327   -5.8648  -11.3506 C   0  0  0  0  0  0  0  0  0  0  0  0
   16.4591   -5.1832  -12.2202 O   0  0  0  0  0  0  0  0  0  0  0  0
   21.6363   -6.8833  -12.7995 O   0  0  0  0  0  0  0  0  0  0  0  0
   16.5940   -5.7330  -10.0122 N   0  0  0  0  0  0  0  0  0  0  0  0
   15.5454   -4.7436   -9.6542 C   0  0  1  0  0  0  0  0  0  0  0  0
   14.9435   -5.1008   -8.3391 C   0  0  0  0  0  0  0  0  0  0  0  0
   13.8999   -4.1040   -7.9377 C   0  0  0  0  0  0  0  0  0  0  0  0
   13.2969   -4.4373   -6.5762 C   0  0  0  0  0  0  0  0  0  0  0  0
   12.2568   -3.4426   -6.1601 C   0  0  0  0  0  0  0  0  0  0  0  0
   11.7233   -3.8263   -4.8448 N   0  0  0  0  0  0  0  0  0  0  0  0
   16.0915   -3.3895   -9.7173 C   0  0  0  0  0  0  0  0  0  0  0  0
   17.2540   -3.0516   -9.4179 O   0  0  0  0  0  0  0  0  0  0  0  0
   15.2359   -2.3546  -10.1567 O   0  0  0  0  0  0  0  0  0  0  0  0
  2  3  2  0
  2  1  1  0
  4  5  1  0
  4  2  1  0
  5  7  1  0
  5  6  1  6
  7  8  2  0
  9 10  1  0
  9  7  1  0
 10 14  1  0
 11 12  1  0
 10 11  1  6
 12 16  1  0
 13 12  2  0
 14 17  1  0
 14 15  2  0
 17 18  1  0
 18 24  1  0
 18 19  1  1
 20 21  1  0
 20 19  1  0
 22 21  1  0
 23 22  1  0
 24 26  1  0
 25 24  2  0
M  END
$$$$
