NDK.pdb
     RDKit          3D

 26 25  0  0  1  0  0  0  0  0999 V2000
   13.7753   -9.4561  -16.4031 N   0  0  0  0  0  0  0  0  0  0  0  0
   13.9912  -10.3126  -15.3018 C   0  0  0  0  0  0  0  0  0  0  0  0
   13.8184  -11.5489  -15.3860 O   0  0  0  0  0  0  0  0  0  0  0  0
   14.4324   -9.7508  -14.0108 C   0  0  0  0  0  0  0  0  0  0  0  0
   15.9423   -9.5386  -14.0210 C   0  0  2  0  0  0  0  0  0  0  0  0
   16.5785  -10.8376  -13.9947 N   0  0  0  0  0  0  0  0  0  0  0  0
   16.3079   -8.7009  -12.8735 C   0  0  0  0  0  0  0  0  0  0  0  0
   16.0716   -9.1182  -11.7111 O   0  0  0  0  0  0  0  0  0  0  0  0
   16.9202   -7.4364  -13.0884 N   0  0  0  0  0  0  0  0  0  0  0  0
   17.2963   -6.5543  -12.0006 C   0  0  1  0  0  0  0  0  0  0  0  0
   18.4183   -5.6707  -12.4837 C   0  0  0  0  0  0  0  0  0  0  0  0
   19.6672   -6.4602  -12.5913 C   0  0  0  0  0  0  0  0  0  0  0  0
   19.9807   -7.4032  -11.8206 O   0  0  0  0  0  0  0  0  0  0  0  0
   16.1254   -5.7381  -11.5576 C   0  0  0  0  0  0  0  0  0  0  0  0
   15.3110   -5.2097  -12.3370 O   0  0  0  0  0  0  0  0  0  0  0  0
   20.6130   -6.1957  -13.5961 O   0  0  0  0  0  0  0  0  0  0  0  0
   15.9267   -5.5530  -10.1693 N   0  0  0  0  0  0  0  0  0  0  0  0
   14.8330   -4.6796   -9.6718 C   0  0  1  0  0  0  0  0  0  0  0  0
   14.6507   -4.8847   -8.2076 C   0  0  0  0  0  0  0  0  0  0  0  0
   13.5919   -3.9744   -7.6655 C   0  0  0  0  0  0  0  0  0  0  0  0
   13.3630   -4.2019   -6.1741 C   0  0  0  0  0  0  0  0  0  0  0  0
   12.2969   -3.3054   -5.6228 C   0  0  0  0  0  0  0  0  0  0  0  0
   12.0809   -3.6302   -4.2052 N   0  0  0  0  0  0  0  0  0  0  0  0
   15.0844   -3.2926  -10.0578 C   0  0  0  0  0  0  0  0  0  0  0  0
   14.2376   -2.4852  -10.4893 O   0  0  0  0  0  0  0  0  0  0  0  0
   16.4048   -2.8047   -9.9368 O   0  0  0  0  0  0  0  0  0  0  0  0
  2  3  2  0
  2  1  1  0
  4  5  1  0
  4  2  1  0
  5  7  1  0
  5  6  1  1
  7  8  2  0
  9 10  1  0
  9  7  1  0
 10 14  1  0
 11 12  1  0
 10 11  1  6
 12 16  1  0
 13 12  2  0
 14 17  1  0
 14 15  2  0
 17 18  1  0
 18 24  1  0
 18 19  1  1
 20 21  1  0
 20 19  1  0
 22 21  1  0
 23 22  1  0
 24 26  1  0
 25 24  2  0
M  END
$$$$
