NDK.pdb
     RDKit          3D

 26 25  0  0  1  0  0  0  0  0999 V2000
   21.4351  -12.5321  -18.7627 N   0  0  0  0  0  0  0  0  0  0  0  0
   20.4915  -12.7807  -17.7425 C   0  0  0  0  0  0  0  0  0  0  0  0
   19.9144  -13.8857  -17.6351 O   0  0  0  0  0  0  0  0  0  0  0  0
   20.1664  -11.7204  -16.7694 C   0  0  0  0  0  0  0  0  0  0  0  0
   20.9405  -10.4496  -17.1019 C   0  0  2  0  0  0  0  0  0  0  0  0
   22.3532  -10.7521  -17.0287 N   0  0  0  0  0  0  0  0  0  0  0  0
   20.5342   -9.3929  -16.1689 C   0  0  0  0  0  0  0  0  0  0  0  0
   19.4825   -9.5418  -15.4959 O   0  0  0  0  0  0  0  0  0  0  0  0
   21.3287   -8.2216  -16.0385 N   0  0  0  0  0  0  0  0  0  0  0  0
   20.9754   -7.1316  -15.1498 C   0  0  1  0  0  0  0  0  0  0  0  0
   22.2494   -6.4526  -14.7155 C   0  0  0  0  0  0  0  0  0  0  0  0
   21.9354   -5.3527  -13.7742 C   0  0  0  0  0  0  0  0  0  0  0  0
   20.9543   -5.3487  -12.9873 O   0  0  0  0  0  0  0  0  0  0  0  0
   20.0632   -6.1680  -15.8376 C   0  0  0  0  0  0  0  0  0  0  0  0
   20.2996   -5.6584  -16.9486 O   0  0  0  0  0  0  0  0  0  0  0  0
   22.7418   -4.2045  -13.6988 O   0  0  0  0  0  0  0  0  0  0  0  0
   18.8570   -5.8113  -15.1903 N   0  0  0  0  0  0  0  0  0  0  0  0
   17.9491   -4.7988  -15.7877 C   0  0  1  0  0  0  0  0  0  0  0  0
   16.6928   -5.4559  -16.2451 C   0  0  0  0  0  0  0  0  0  0  0  0
   15.7950   -5.7636  -15.0863 C   0  0  0  0  0  0  0  0  0  0  0  0
   14.4764   -6.3804  -15.5437 C   0  0  0  0  0  0  0  0  0  0  0  0
   13.6070   -6.7756  -14.3895 C   0  0  0  0  0  0  0  0  0  0  0  0
   12.3736   -7.3886  -14.9041 N   0  0  0  0  0  0  0  0  0  0  0  0
   17.7439   -3.6952  -14.8518 C   0  0  0  0  0  0  0  0  0  0  0  0
   18.1217   -3.6597  -13.6639 O   0  0  0  0  0  0  0  0  0  0  0  0
   17.0550   -2.5542  -15.3204 O   0  0  0  0  0  0  0  0  0  0  0  0
  2  3  2  0
  2  1  1  0
  4  5  1  0
  4  2  1  0
  5  7  1  0
  5  6  1  1
  7  8  2  0
  9 10  1  0
  9  7  1  0
 10 14  1  0
 11 12  1  0
 10 11  1  6
 12 16  1  0
 13 12  2  0
 14 17  1  0
 14 15  2  0
 17 18  1  0
 18 24  1  0
 18 19  1  1
 20 21  1  0
 20 19  1  0
 22 21  1  0
 23 22  1  0
 24 26  1  0
 25 24  2  0
M  END
$$$$
