NDK.pdb
     RDKit          3D

 26 25  0  0  1  0  0  0  0  0999 V2000
   22.0404  -13.5867  -18.8818 N   0  0  0  0  0  0  0  0  0  0  0  0
   22.1864  -12.1890  -18.7463 C   0  0  0  0  0  0  0  0  0  0  0  0
   22.7139  -11.4927  -19.6420 O   0  0  0  0  0  0  0  0  0  0  0  0
   21.7093  -11.5167  -17.5226 C   0  0  0  0  0  0  0  0  0  0  0  0
   22.7443  -10.5045  -17.0441 C   0  0  2  0  0  0  0  0  0  0  0  0
   23.9009  -11.2339  -16.5718 N   0  0  0  0  0  0  0  0  0  0  0  0
   22.1366   -9.6644  -16.0062 C   0  0  0  0  0  0  0  0  0  0  0  0
   21.6025  -10.2137  -15.0092 O   0  0  0  0  0  0  0  0  0  0  0  0
   22.1588   -8.2495  -16.1398 N   0  0  0  0  0  0  0  0  0  0  0  0
   21.5767   -7.3613  -15.1524 C   0  0  1  0  0  0  0  0  0  0  0  0
   22.5193   -6.2012  -14.9559 C   0  0  0  0  0  0  0  0  0  0  0  0
   22.0057   -5.3138  -13.8865 C   0  0  0  0  0  0  0  0  0  0  0  0
   21.4218   -4.2189  -14.0907 O   0  0  0  0  0  0  0  0  0  0  0  0
   20.2317   -6.8880  -15.5999 C   0  0  0  0  0  0  0  0  0  0  0  0
   19.9882   -6.4673  -16.7460 O   0  0  0  0  0  0  0  0  0  0  0  0
   22.1438   -5.6514  -12.5296 O   0  0  0  0  0  0  0  0  0  0  0  0
   19.1681   -6.9187  -14.6676 N   0  0  0  0  0  0  0  0  0  0  0  0
   17.8141   -6.4419  -15.0493 C   0  0  1  0  0  0  0  0  0  0  0  0
   16.7920   -7.4442  -14.6370 C   0  0  0  0  0  0  0  0  0  0  0  0
   15.4253   -7.0374  -15.0958 C   0  0  0  0  0  0  0  0  0  0  0  0
   14.3811   -8.1000  -14.7658 C   0  0  0  0  0  0  0  0  0  0  0  0
   13.0051   -7.6927  -15.1958 C   0  0  0  0  0  0  0  0  0  0  0  0
   12.0599   -8.7702  -14.8678 N   0  0  0  0  0  0  0  0  0  0  0  0
   17.5875   -5.0991  -14.5187 C   0  0  0  0  0  0  0  0  0  0  0  0
   18.1450   -4.5998  -13.5211 O   0  0  0  0  0  0  0  0  0  0  0  0
   16.6528   -4.2766  -15.1864 O   0  0  0  0  0  0  0  0  0  0  0  0
  2  3  2  0
  2  1  1  0
  4  5  1  0
  4  2  1  0
  5  7  1  0
  5  6  1  1
  7  8  2  0
  9 10  1  0
  9  7  1  0
 10 14  1  0
 11 12  1  0
 10 11  1  6
 12 16  1  0
 13 12  2  0
 14 17  1  0
 14 15  2  0
 17 18  1  0
 18 24  1  0
 18 19  1  1
 20 21  1  0
 20 19  1  0
 22 21  1  0
 23 22  1  0
 24 26  1  0
 25 24  2  0
M  END
$$$$
