NDK.pdb
     RDKit          3D

 26 25  0  0  1  0  0  0  0  0999 V2000
   22.9445   -3.4065  -15.3549 N   0  0  0  0  0  0  0  0  0  0  0  0
   22.4604   -4.5451  -14.6750 C   0  0  0  0  0  0  0  0  0  0  0  0
   22.3487   -4.5694  -13.4290 O   0  0  0  0  0  0  0  0  0  0  0  0
   22.0715   -5.7459  -15.4391 C   0  0  0  0  0  0  0  0  0  0  0  0
   20.5596   -5.9349  -15.3833 C   0  0  2  0  0  0  0  0  0  0  0  0
   20.1701   -6.0319  -13.9935 N   0  0  0  0  0  0  0  0  0  0  0  0
   20.2052   -7.1281  -16.1598 C   0  0  0  0  0  0  0  0  0  0  0  0
   20.5612   -7.2031  -17.3634 O   0  0  0  0  0  0  0  0  0  0  0  0
   19.4684   -8.1772  -15.5462 N   0  0  0  0  0  0  0  0  0  0  0  0
   19.1439   -9.4117  -16.2344 C   0  0  1  0  0  0  0  0  0  0  0  0
   20.4351  -10.1242  -16.5473 C   0  0  0  0  0  0  0  0  0  0  0  0
   20.1535  -11.3542  -17.3234 C   0  0  0  0  0  0  0  0  0  0  0  0
   19.9920  -12.4936  -16.8160 O   0  0  0  0  0  0  0  0  0  0  0  0
   18.2531  -10.2648  -15.3905 C   0  0  0  0  0  0  0  0  0  0  0  0
   18.5207  -10.6095  -14.2245 O   0  0  0  0  0  0  0  0  0  0  0  0
   20.0455  -11.3243  -18.7240 O   0  0  0  0  0  0  0  0  0  0  0  0
   17.0306  -10.7092  -15.9466 N   0  0  0  0  0  0  0  0  0  0  0  0
   16.0754  -11.5053  -15.1341 C   0  0  1  0  0  0  0  0  0  0  0  0
   14.6817  -11.2333  -15.5847 C   0  0  0  0  0  0  0  0  0  0  0  0
   13.6973  -12.0569  -14.8125 C   0  0  0  0  0  0  0  0  0  0  0  0
   12.2652  -11.8013  -15.2732 C   0  0  0  0  0  0  0  0  0  0  0  0
   11.2756  -12.6567  -14.5430 C   0  0  0  0  0  0  0  0  0  0  0  0
    9.9400  -12.4477  -15.1214 N   0  0  0  0  0  0  0  0  0  0  0  0
   16.4507  -12.9175  -15.1602 C   0  0  0  0  0  0  0  0  0  0  0  0
   16.3706  -13.7165  -14.2061 O   0  0  0  0  0  0  0  0  0  0  0  0
   16.9529  -13.4428  -16.3718 O   0  0  0  0  0  0  0  0  0  0  0  0
  2  3  2  0
  2  1  1  0
  4  5  1  0
  4  2  1  0
  5  7  1  0
  5  6  1  1
  7  8  2  0
  9 10  1  0
  9  7  1  0
 10 14  1  0
 11 12  1  0
 10 11  1  1
 12 16  1  0
 13 12  2  0
 14 17  1  0
 14 15  2  0
 17 18  1  0
 18 24  1  0
 18 19  1  6
 20 21  1  0
 20 19  1  0
 22 21  1  0
 23 22  1  0
 24 26  1  0
 25 24  2  0
M  END
$$$$
