NDK.pdb
     RDKit          3D

 26 25  0  0  1  0  0  0  0  0999 V2000
   17.9620  -13.5403  -14.2902 N   0  0  0  0  0  0  0  0  0  0  0  0
   18.8635  -13.9630  -15.2912 C   0  0  0  0  0  0  0  0  0  0  0  0
   19.3833  -15.1009  -15.2705 O   0  0  0  0  0  0  0  0  0  0  0  0
   19.2118  -13.0511  -16.3975 C   0  0  0  0  0  0  0  0  0  0  0  0
   18.4819  -11.7230  -16.2307 C   0  0  2  0  0  0  0  0  0  0  0  0
   17.0971  -11.9222  -16.5988 N   0  0  0  0  0  0  0  0  0  0  0  0
   19.1514  -10.7107  -17.0549 C   0  0  0  0  0  0  0  0  0  0  0  0
   19.5326  -11.0188  -18.2129 O   0  0  0  0  0  0  0  0  0  0  0  0
   19.3598   -9.4034  -16.5377 N   0  0  0  0  0  0  0  0  0  0  0  0
   19.9910   -8.3490  -17.3075 C   0  0  1  0  0  0  0  0  0  0  0  0
   18.9074   -7.4395  -17.8286 C   0  0  0  0  0  0  0  0  0  0  0  0
   18.2105   -6.7893  -16.6945 C   0  0  0  0  0  0  0  0  0  0  0  0
   18.7436   -6.5347  -15.5842 O   0  0  0  0  0  0  0  0  0  0  0  0
   20.9640   -7.5923  -16.4623 C   0  0  0  0  0  0  0  0  0  0  0  0
   20.9089   -7.5354  -15.2198 O   0  0  0  0  0  0  0  0  0  0  0  0
   16.8631   -6.4030  -16.7912 O   0  0  0  0  0  0  0  0  0  0  0  0
   22.0127   -6.8977  -17.1095 N   0  0  0  0  0  0  0  0  0  0  0  0
   22.9384   -6.0328  -16.3340 C   0  0  1  0  0  0  0  0  0  0  0  0
   23.8266   -5.2827  -17.2655 C   0  0  0  0  0  0  0  0  0  0  0  0
   24.8134   -4.4464  -16.5100 C   0  0  0  0  0  0  0  0  0  0  0  0
   25.7007   -3.6356  -17.4500 C   0  0  0  0  0  0  0  0  0  0  0  0
   26.7403   -2.8513  -16.7093 C   0  0  0  0  0  0  0  0  0  0  0  0
   27.6507   -2.2238  -17.6785 N   0  0  0  0  0  0  0  0  0  0  0  0
   22.1813   -5.1871  -15.4135 C   0  0  0  0  0  0  0  0  0  0  0  0
   21.1886   -4.4905  -15.7038 O   0  0  0  0  0  0  0  0  0  0  0  0
   22.5998   -5.1432  -14.0647 O   0  0  0  0  0  0  0  0  0  0  0  0
  2  3  2  0
  2  1  1  0
  4  5  1  0
  4  2  1  0
  5  7  1  0
  5  6  1  6
  7  8  2  0
  9 10  1  0
  9  7  1  0
 10 14  1  0
 11 12  1  0
 10 11  1  1
 12 16  1  0
 13 12  2  0
 14 17  1  0
 14 15  2  0
 17 18  1  0
 18 24  1  0
 18 19  1  6
 20 21  1  0
 20 19  1  0
 22 21  1  0
 23 22  1  0
 24 26  1  0
 25 24  2  0
M  END
$$$$
