RYV.pdb
     RDKit          3D

 31 31  0  0  1  0  0  0  0  0999 V2000
   25.1252  -20.1638  -19.7232 N   0  0  0  0  0  0  0  0  0  0  0  0
   24.2967  -21.2384  -20.1010 C   0  0  0  0  0  0  0  0  0  0  0  0
   23.5769  -21.1640  -21.1938 N   0  0  0  0  0  0  0  0  0  0  0  0
   24.2167  -22.4236  -19.3179 N   0  0  0  0  0  0  0  0  0  0  0  0
   24.9323  -22.5350  -18.0890 C   0  0  0  0  0  0  0  0  0  0  0  0
   26.2981  -21.8734  -18.2198 C   0  0  0  0  0  0  0  0  0  0  0  0
   27.0711  -22.0777  -16.9494 C   0  0  0  0  0  0  0  0  0  0  0  0
   26.9253  -20.9148  -15.9946 C   0  0  2  0  0  0  0  0  0  0  0  0
   28.1228  -20.0578  -16.0883 N   0  0  0  0  0  0  0  0  0  0  0  0
   26.7602  -21.3101  -14.5815 C   0  0  0  0  0  0  0  0  0  0  0  0
   26.1327  -22.3582  -14.2081 O   0  0  0  0  0  0  0  0  0  0  0  0
   22.9058  -21.9191  -21.4397 O   0  0  0  0  0  0  0  0  0  0  0  0
   27.3973  -19.7772   -5.7832 C   0  0  0  0  0  0  0  0  0  0  0  0
   27.5934  -19.8457   -7.1745 C   0  0  0  0  0  0  0  0  0  0  0  0
   28.2998  -20.8679   -7.7267 C   0  0  0  0  0  0  0  0  0  0  0  0
   28.4923  -20.9358   -9.0886 C   0  0  0  0  0  0  0  0  0  0  0  0
   27.9824  -19.9804   -9.9399 C   0  0  0  0  0  0  0  0  0  0  0  0
   28.1604  -20.0049  -11.3991 C   0  0  1  0  0  0  0  0  0  0  0  0
   27.0702  -20.7149  -12.1427 N   0  0  0  0  0  0  0  0  0  0  0  0
   27.3206  -20.4973  -13.5640 C   0  0  0  0  0  0  0  0  0  0  0  0
   25.7169  -20.1678  -11.8678 O   0  0  0  0  0  0  0  0  0  0  0  0
   25.4503  -18.9585  -12.0887 C   0  0  0  0  0  0  0  0  0  0  0  0
   27.2677  -18.9475   -9.3735 C   0  0  0  0  0  0  0  0  0  0  0  0
   27.0696  -18.8726   -8.0012 C   0  0  0  0  0  0  0  0  0  0  0  0
   22.7346  -20.5334  -13.4156 C   0  0  2  0  0  0  0  0  0  0  0  0
   22.2813  -20.9363  -12.0234 C   0  0  0  0  0  0  0  0  0  0  0  0
   22.2667  -22.4554  -12.0090 C   0  0  2  0  0  0  0  0  0  0  0  0
   23.3362  -20.4667  -11.0684 N   0  0  0  0  0  0  0  0  0  0  0  0
   24.6534  -20.9469  -11.3498 C   0  0  0  0  0  0  0  0  0  0  0  0
   22.9334  -20.7999   -9.6930 O   0  0  0  0  0  0  0  0  0  0  0  0
   21.8628  -20.3209   -9.2441 O   0  0  0  0  0  0  0  0  0  0  0  0
  2  1  1  0
  2  3  2  0
  4  5  1  0
  4  2  1  0
  6  5  1  0
  7  6  1  0
  8  9  1  1
  8  7  1  0
 10  8  1  0
 10 11  2  0
 12 13  1  0
 13 23  2  0
 14 15  2  0
 14 13  1  0
 15 16  1  0
 16 17  1  0
 16 22  2  0
 18 17  1  6
 18 19  1  0
 19 10  1  0
 20 18  1  0
 21 20  2  0
 23 22  1  0
 25 24  1  6
 25 27  1  0
 26 25  1  0
 27 29  1  0
 27 28  1  1
 28 20  1  0
 29 31  1  0
 30 29  2  0
M  END
$$$$
