RYV.pdb
     RDKit          3D

 31 31  0  0  1  0  0  0  0  0999 V2000
   28.6535  -16.8831  -22.1019 N   0  0  0  0  0  0  0  0  0  0  0  0
   27.3290  -16.4799  -21.8431 C   0  0  0  0  0  0  0  0  0  0  0  0
   26.5811  -16.0106  -22.8117 N   0  0  0  0  0  0  0  0  0  0  0  0
   26.7688  -16.5686  -20.5383 N   0  0  0  0  0  0  0  0  0  0  0  0
   27.0978  -17.6561  -19.6759 C   0  0  0  0  0  0  0  0  0  0  0  0
   26.4136  -18.9286  -20.1583 C   0  0  0  0  0  0  0  0  0  0  0  0
   25.2780  -19.2611  -19.2345 C   0  0  0  0  0  0  0  0  0  0  0  0
   25.7179  -20.1148  -18.0671 C   0  0  2  0  0  0  0  0  0  0  0  0
   25.3586  -21.5211  -18.3327 N   0  0  0  0  0  0  0  0  0  0  0  0
   25.1152  -19.7291  -16.7755 C   0  0  0  0  0  0  0  0  0  0  0  0
   25.2290  -18.5658  -16.2602 O   0  0  0  0  0  0  0  0  0  0  0  0
   25.5986  -15.7219  -22.6314 O   0  0  0  0  0  0  0  0  0  0  0  0
   19.1160  -16.8435  -17.6370 C   0  0  0  0  0  0  0  0  0  0  0  0
   19.8943  -17.8209  -16.9906 C   0  0  0  0  0  0  0  0  0  0  0  0
   20.4429  -18.8478  -17.6928 C   0  0  0  0  0  0  0  0  0  0  0  0
   21.2049  -19.8052  -17.0608 C   0  0  0  0  0  0  0  0  0  0  0  0
   21.4406  -19.7628  -15.7043 C   0  0  0  0  0  0  0  0  0  0  0  0
   22.2442  -20.7592  -14.9812 C   0  0  2  0  0  0  0  0  0  0  0  0
   23.6812  -20.3769  -14.7950 N   0  0  0  0  0  0  0  0  0  0  0  0
   24.3636  -20.6858  -16.0477 C   0  0  0  0  0  0  0  0  0  0  0  0
   24.3680  -21.1642  -13.7393 O   0  0  0  0  0  0  0  0  0  0  0  0
   24.4726  -22.4146  -13.8288 C   0  0  0  0  0  0  0  0  0  0  0  0
   20.8816  -18.7194  -14.9991 C   0  0  0  0  0  0  0  0  0  0  0  0
   20.1123  -17.7506  -15.6296 C   0  0  0  0  0  0  0  0  0  0  0  0
   27.7578  -20.8109  -12.3097 C   0  0  2  0  0  0  0  0  0  0  0  0
   26.8774  -20.8071  -11.0724 C   0  0  0  0  0  0  0  0  0  0  0  0
   26.7435  -19.3522  -10.6558 C   0  0  2  0  0  0  0  0  0  0  0  0
   25.5277  -21.3016  -11.4960 N   0  0  0  0  0  0  0  0  0  0  0  0
   24.9415  -20.5807  -12.5830 C   0  0  0  0  0  0  0  0  0  0  0  0
   24.6290  -21.3271  -10.3313 O   0  0  0  0  0  0  0  0  0  0  0  0
   24.9243  -22.0612   -9.3562 O   0  0  0  0  0  0  0  0  0  0  0  0
  2  1  1  0
  2  3  2  0
  4  5  1  0
  4  2  1  0
  6  5  1  0
  7  6  1  0
  8  9  1  6
  8  7  1  0
 10  8  1  0
 10 11  2  0
 12 13  1  0
 13 23  2  0
 14 15  2  0
 14 13  1  0
 15 16  1  0
 16 17  1  0
 16 22  2  0
 18 17  1  6
 18 19  1  0
 19 10  1  0
 20 18  1  0
 21 20  2  0
 23 22  1  0
 25 24  1  1
 25 27  1  0
 26 25  1  0
 27 29  1  0
 27 28  1  1
 28 20  1  0
 29 31  1  0
 30 29  2  0
M  END
$$$$
