RYV.pdb
     RDKit          3D

 31 31  0  0  1  0  0  0  0  0999 V2000
   28.6877  -16.7734  -20.3376 N   0  0  0  0  0  0  0  0  0  0  0  0
   29.1841  -16.9368  -19.0296 C   0  0  0  0  0  0  0  0  0  0  0  0
   29.9487  -16.0166  -18.4944 N   0  0  0  0  0  0  0  0  0  0  0  0
   28.8746  -18.0917  -18.2583 N   0  0  0  0  0  0  0  0  0  0  0  0
   29.4592  -19.3548  -18.5701 C   0  0  0  0  0  0  0  0  0  0  0  0
   28.3824  -20.3263  -19.0358 C   0  0  0  0  0  0  0  0  0  0  0  0
   27.4264  -20.5842  -17.9075 C   0  0  0  0  0  0  0  0  0  0  0  0
   27.8448  -21.7624  -17.0577 C   0  0  2  0  0  0  0  0  0  0  0  0
   27.8166  -22.9872  -17.8801 N   0  0  0  0  0  0  0  0  0  0  0  0
   26.9887  -21.9898  -15.8764 C   0  0  0  0  0  0  0  0  0  0  0  0
   26.1016  -22.9066  -15.8106 O   0  0  0  0  0  0  0  0  0  0  0  0
   30.2874  -16.1113  -17.5159 O   0  0  0  0  0  0  0  0  0  0  0  0
   24.2931  -20.5119   -7.4779 C   0  0  0  0  0  0  0  0  0  0  0  0
   24.9884  -20.5689   -8.6995 C   0  0  0  0  0  0  0  0  0  0  0  0
   25.6336  -21.7040   -9.0788 C   0  0  0  0  0  0  0  0  0  0  0  0
   26.3146  -21.7608  -10.2745 C   0  0  0  0  0  0  0  0  0  0  0  0
   26.3699  -20.6806  -11.1275 C   0  0  0  0  0  0  0  0  0  0  0  0
   27.0836  -20.6879  -12.4129 C   0  0  1  0  0  0  0  0  0  0  0  0
   26.3017  -21.2715  -13.5503 N   0  0  0  0  0  0  0  0  0  0  0  0
   27.1407  -21.1571  -14.7391 C   0  0  0  0  0  0  0  0  0  0  0  0
   25.0509  -20.5278  -13.8480 O   0  0  0  0  0  0  0  0  0  0  0  0
   25.0870  -19.3475  -14.2814 C   0  0  0  0  0  0  0  0  0  0  0  0
   25.7138  -19.5338  -10.7367 C   0  0  0  0  0  0  0  0  0  0  0  0
   25.0253  -19.4694   -9.5326 C   0  0  0  0  0  0  0  0  0  0  0  0
   22.6308  -20.5333  -16.2438 C   0  0  2  0  0  0  0  0  0  0  0  0
   21.7325  -20.7511  -15.0388 C   0  0  0  0  0  0  0  0  0  0  0  0
   21.4636  -22.2452  -14.9794 C   0  0  2  0  0  0  0  0  0  0  0  0
   22.5270  -20.3673  -13.8276 N   0  0  0  0  0  0  0  0  0  0  0  0
   23.7578  -21.0782  -13.6706 C   0  0  0  0  0  0  0  0  0  0  0  0
   21.6837  -20.4969  -12.6289 O   0  0  0  0  0  0  0  0  0  0  0  0
   21.9937  -21.3502  -11.7613 O   0  0  0  0  0  0  0  0  0  0  0  0
  2  1  1  0
  2  3  2  0
  4  5  1  0
  4  2  1  0
  6  5  1  0
  7  6  1  0
  8  9  1  6
  8  7  1  0
 10  8  1  0
 10 11  2  0
 12 13  1  0
 13 23  2  0
 14 15  2  0
 14 13  1  0
 15 16  1  0
 16 17  1  0
 16 22  2  0
 18 17  1  1
 18 19  1  0
 19 10  1  0
 20 18  1  0
 21 20  2  0
 23 22  1  0
 25 24  1  6
 25 27  1  0
 26 25  1  0
 27 29  1  0
 27 28  1  1
 28 20  1  0
 29 31  1  0
 30 29  2  0
M  END
$$$$
