RYV.pdb
     RDKit          3D

 31 31  0  0  1  0  0  0  0  0999 V2000
   24.1472  -23.8156  -20.5082 N   0  0  0  0  0  0  0  0  0  0  0  0
   25.1240  -23.2130  -21.3247 C   0  0  0  0  0  0  0  0  0  0  0  0
   24.8748  -22.9821  -22.5905 N   0  0  0  0  0  0  0  0  0  0  0  0
   26.3959  -22.8409  -20.8069 N   0  0  0  0  0  0  0  0  0  0  0  0
   26.7403  -23.1175  -19.4507 C   0  0  0  0  0  0  0  0  0  0  0  0
   27.6343  -24.3488  -19.3812 C   0  0  0  0  0  0  0  0  0  0  0  0
   26.9264  -25.4327  -18.6213 C   0  0  0  0  0  0  0  0  0  0  0  0
   27.0244  -25.2434  -17.1247 C   0  0  2  0  0  0  0  0  0  0  0  0
   28.3047  -25.8015  -16.6485 N   0  0  0  0  0  0  0  0  0  0  0  0
   25.9371  -25.8882  -16.3616 C   0  0  0  0  0  0  0  0  0  0  0  0
   25.8919  -27.1405  -16.1139 O   0  0  0  0  0  0  0  0  0  0  0  0
   25.5898  -22.5359  -23.1994 O   0  0  0  0  0  0  0  0  0  0  0  0
   18.9320  -25.7965  -10.8519 C   0  0  0  0  0  0  0  0  0  0  0  0
   20.0687  -25.4995  -11.6255 C   0  0  0  0  0  0  0  0  0  0  0  0
   20.1047  -24.3887  -12.4087 C   0  0  0  0  0  0  0  0  0  0  0  0
   21.2171  -24.0970  -13.1664 C   0  0  0  0  0  0  0  0  0  0  0  0
   22.3287  -24.9106  -13.1625 C   0  0  0  0  0  0  0  0  0  0  0  0
   23.5397  -24.6463  -13.9531 C   0  0  1  0  0  0  0  0  0  0  0  0
   23.7879  -25.6344  -15.0521 N   0  0  0  0  0  0  0  0  0  0  0  0
   24.8725  -25.0941  -15.8656 C   0  0  0  0  0  0  0  0  0  0  0  0
   22.6273  -25.8061  -15.9630 O   0  0  0  0  0  0  0  0  0  0  0  0
   22.2097  -24.8507  -16.6667 C   0  0  0  0  0  0  0  0  0  0  0  0
   22.2853  -26.0344  -12.3665 C   0  0  0  0  0  0  0  0  0  0  0  0
   21.1671  -26.3347  -11.5999 C   0  0  0  0  0  0  0  0  0  0  0  0
   21.8806  -28.8823  -18.2656 C   0  0  2  0  0  0  0  0  0  0  0  0
   20.6123  -28.5974  -17.4806 C   0  0  0  0  0  0  0  0  0  0  0  0
   20.5947  -29.5939  -16.3339 C   0  0  2  0  0  0  0  0  0  0  0  0
   20.7550  -27.2209  -16.9059 N   0  0  0  0  0  0  0  0  0  0  0  0
   21.9225  -27.0267  -16.1032 C   0  0  0  0  0  0  0  0  0  0  0  0
   19.5353  -26.8741  -16.1596 O   0  0  0  0  0  0  0  0  0  0  0  0
   19.4838  -27.1335  -14.9320 O   0  0  0  0  0  0  0  0  0  0  0  0
  2  1  1  0
  2  3  2  0
  4  5  1  0
  4  2  1  0
  6  5  1  0
  7  6  1  0
  8  9  1  1
  8  7  1  0
 10  8  1  0
 10 11  2  0
 12 13  1  0
 13 23  2  0
 14 15  2  0
 14 13  1  0
 15 16  1  0
 16 17  1  0
 16 22  2  0
 18 17  1  1
 18 19  1  0
 19 10  1  0
 20 18  1  0
 21 20  2  0
 23 22  1  0
 25 24  1  6
 25 27  1  0
 26 25  1  0
 27 29  1  0
 27 28  1  6
 28 20  1  0
 29 31  1  0
 30 29  2  0
M  END
$$$$
