RYV.pdb
     RDKit          3D

 31 31  0  0  1  0  0  0  0  0999 V2000
   30.4430  -21.0809  -20.1967 N   0  0  0  0  0  0  0  0  0  0  0  0
   29.7564  -22.1821  -20.7445 C   0  0  0  0  0  0  0  0  0  0  0  0
   29.9782  -22.5481  -21.9832 N   0  0  0  0  0  0  0  0  0  0  0  0
   28.8125  -22.9222  -19.9792 N   0  0  0  0  0  0  0  0  0  0  0  0
   28.3143  -22.4114  -18.7441 C   0  0  0  0  0  0  0  0  0  0  0  0
   29.4071  -22.4553  -17.6838 C   0  0  0  0  0  0  0  0  0  0  0  0
   28.7774  -22.4169  -16.3217 C   0  0  0  0  0  0  0  0  0  0  0  0
   27.6389  -21.4255  -16.2425 C   0  0  2  0  0  0  0  0  0  0  0  0
   28.1831  -20.0850  -15.9522 N   0  0  0  0  0  0  0  0  0  0  0  0
   26.6340  -21.7407  -15.2075 C   0  0  0  0  0  0  0  0  0  0  0  0
   25.9632  -22.8274  -15.1795 O   0  0  0  0  0  0  0  0  0  0  0  0
   29.5057  -23.3838  -22.3824 O   0  0  0  0  0  0  0  0  0  0  0  0
   22.2645  -20.5607   -7.5397 C   0  0  0  0  0  0  0  0  0  0  0  0
   23.1597  -20.4880   -8.6224 C   0  0  0  0  0  0  0  0  0  0  0  0
   24.4314  -20.9543   -8.5043 C   0  0  0  0  0  0  0  0  0  0  0  0
   25.3086  -20.8835   -9.5637 C   0  0  0  0  0  0  0  0  0  0  0  0
   24.9378  -20.3426  -10.7750 C   0  0  0  0  0  0  0  0  0  0  0  0
   25.8347  -20.2415  -11.9356 C   0  0  2  0  0  0  0  0  0  0  0  0
   25.3758  -21.0067  -13.1396 N   0  0  0  0  0  0  0  0  0  0  0  0
   26.3817  -20.8006  -14.1767 C   0  0  0  0  0  0  0  0  0  0  0  0
   24.0916  -20.5114  -13.6980 O   0  0  0  0  0  0  0  0  0  0  0  0
   23.9813  -19.3315  -14.1200 C   0  0  0  0  0  0  0  0  0  0  0  0
   23.6477  -19.8720  -10.8875 C   0  0  0  0  0  0  0  0  0  0  0  0
   22.7579  -19.9401   -9.8237 C   0  0  0  0  0  0  0  0  0  0  0  0
   19.8398  -21.0568  -15.8877 C   0  0  2  0  0  0  0  0  0  0  0  0
   21.0428  -21.7847  -15.3141 C   0  0  0  0  0  0  0  0  0  0  0  0
   22.0208  -21.9525  -16.4646 C   0  0  1  0  0  0  0  0  0  0  0  0
   21.6617  -20.8720  -14.2995 N   0  0  0  0  0  0  0  0  0  0  0  0
   22.9258  -21.3101  -13.7942 C   0  0  0  0  0  0  0  0  0  0  0  0
   20.7061  -20.6380  -13.2054 O   0  0  0  0  0  0  0  0  0  0  0  0
   19.7859  -19.8006  -13.3756 O   0  0  0  0  0  0  0  0  0  0  0  0
  2  1  1  0
  2  3  2  0
  4  5  1  0
  4  2  1  0
  6  5  1  0
  7  6  1  0
  8  9  1  1
  8  7  1  0
 10  8  1  0
 10 11  2  0
 12 13  1  0
 13 23  2  0
 14 15  2  0
 14 13  1  0
 15 16  1  0
 16 17  1  0
 16 22  2  0
 18 17  1  1
 18 19  1  0
 19 10  1  0
 20 18  1  0
 21 20  2  0
 23 22  1  0
 25 24  1  6
 25 27  1  0
 26 25  1  0
 27 29  1  0
 27 28  1  1
 28 20  1  0
 29 31  1  0
 30 29  2  0
M  END
$$$$
