RYV.pdb
     RDKit          3D

 31 31  0  0  1  0  0  0  0  0999 V2000
   29.2743  -17.6624  -18.0858 N   0  0  0  0  0  0  0  0  0  0  0  0
   28.6324  -16.5728  -17.4655 C   0  0  0  0  0  0  0  0  0  0  0  0
   28.7887  -15.3598  -17.9365 N   0  0  0  0  0  0  0  0  0  0  0  0
   27.8046  -16.7532  -16.3225 N   0  0  0  0  0  0  0  0  0  0  0  0
   27.8659  -17.9574  -15.5605 C   0  0  0  0  0  0  0  0  0  0  0  0
   27.5866  -19.1562  -16.4579 C   0  0  0  0  0  0  0  0  0  0  0  0
   26.5861  -20.0533  -15.7889 C   0  0  0  0  0  0  0  0  0  0  0  0
   27.1007  -20.6156  -14.4835 C   0  0  2  0  0  0  0  0  0  0  0  0
   28.0815  -21.6807  -14.7679 N   0  0  0  0  0  0  0  0  0  0  0  0
   26.0511  -21.1858  -13.6155 C   0  0  0  0  0  0  0  0  0  0  0  0
   25.6161  -22.3820  -13.7228 O   0  0  0  0  0  0  0  0  0  0  0  0
   28.3445  -14.5463  -17.4654 O   0  0  0  0  0  0  0  0  0  0  0  0
   29.1297  -21.1316   -7.3214 C   0  0  0  0  0  0  0  0  0  0  0  0
   27.9902  -20.8779   -8.1063 C   0  0  0  0  0  0  0  0  0  0  0  0
   27.7814  -21.5554   -9.2665 C   0  0  0  0  0  0  0  0  0  0  0  0
   26.6662  -21.3077  -10.0356 C   0  0  0  0  0  0  0  0  0  0  0  0
   25.7252  -20.3723   -9.6653 C   0  0  0  0  0  0  0  0  0  0  0  0
   24.5196  -20.0685  -10.4501 C   0  0  2  0  0  0  0  0  0  0  0  0
   24.4027  -20.8428  -11.7278 N   0  0  0  0  0  0  0  0  0  0  0  0
   25.4786  -20.3803  -12.5989 C   0  0  0  0  0  0  0  0  0  0  0  0
   23.1345  -20.5871  -12.4575 O   0  0  0  0  0  0  0  0  0  0  0  0
   22.8859  -19.4552  -12.9467 C   0  0  0  0  0  0  0  0  0  0  0  0
   25.9433  -19.6896   -8.4886 C   0  0  0  0  0  0  0  0  0  0  0  0
   27.0654  -19.9342   -7.7081 C   0  0  0  0  0  0  0  0  0  0  0  0
   21.8291  -22.3894  -15.3526 C   0  0  2  0  0  0  0  0  0  0  0  0
   20.6278  -22.3888  -14.4236 C   0  0  0  0  0  0  0  0  0  0  0  0
   20.5912  -23.7657  -13.7825 C   0  0  2  0  0  0  0  0  0  0  0  0
   20.9053  -21.3782  -13.3525 N   0  0  0  0  0  0  0  0  0  0  0  0
   22.1365  -21.5733  -12.6516 C   0  0  0  0  0  0  0  0  0  0  0  0
   19.7675  -21.3285  -12.4210 O   0  0  0  0  0  0  0  0  0  0  0  0
   19.9490  -21.6711  -11.2265 O   0  0  0  0  0  0  0  0  0  0  0  0
  2  1  1  0
  2  3  2  0
  4  5  1  0
  4  2  1  0
  6  5  1  0
  7  6  1  0
  8  9  1  6
  8  7  1  0
 10  8  1  0
 10 11  2  0
 12 13  1  0
 13 23  2  0
 14 15  2  0
 14 13  1  0
 15 16  1  0
 16 17  1  0
 16 22  2  0
 18 17  1  1
 18 19  1  0
 19 10  1  0
 20 18  1  0
 21 20  2  0
 23 22  1  0
 25 24  1  6
 25 27  1  0
 26 25  1  0
 27 29  1  0
 27 28  1  6
 28 20  1  0
 29 31  1  0
 30 29  2  0
M  END
$$$$
