RYV.pdb
     RDKit          3D

 31 31  0  0  1  0  0  0  0  0999 V2000
   30.4411  -23.7286  -18.4914 N   0  0  0  0  0  0  0  0  0  0  0  0
   30.5850  -24.2064  -17.1742 C   0  0  0  0  0  0  0  0  0  0  0  0
   31.4729  -25.1310  -16.9011 N   0  0  0  0  0  0  0  0  0  0  0  0
   29.7811  -23.7060  -16.1123 N   0  0  0  0  0  0  0  0  0  0  0  0
   28.8616  -22.6384  -16.3346 C   0  0  0  0  0  0  0  0  0  0  0  0
   29.3389  -21.7729  -17.4936 C   0  0  0  0  0  0  0  0  0  0  0  0
   29.0404  -20.3329  -17.1922 C   0  0  0  0  0  0  0  0  0  0  0  0
   27.8156  -19.8344  -17.9247 C   0  0  2  0  0  0  0  0  0  0  0  0
   28.2238  -18.8244  -18.9200 N   0  0  0  0  0  0  0  0  0  0  0  0
   26.7957  -19.2223  -17.0497 C   0  0  0  0  0  0  0  0  0  0  0  0
   26.8721  -18.0290  -16.6004 O   0  0  0  0  0  0  0  0  0  0  0  0
   31.6462  -25.4269  -15.9195 O   0  0  0  0  0  0  0  0  0  0  0  0
   18.8047  -18.2239  -13.3486 C   0  0  0  0  0  0  0  0  0  0  0  0
   19.9359  -18.5214  -14.1301 C   0  0  0  0  0  0  0  0  0  0  0  0
   20.4052  -19.7946  -14.2160 C   0  0  0  0  0  0  0  0  0  0  0  0
   21.5126  -20.0869  -14.9807 C   0  0  0  0  0  0  0  0  0  0  0  0
   22.1845  -19.1110  -15.6835 C   0  0  0  0  0  0  0  0  0  0  0  0
   23.3712  -19.3689  -16.5121 C   0  0  1  0  0  0  0  0  0  0  0  0
   24.6491  -19.4934  -15.7393 N   0  0  0  0  0  0  0  0  0  0  0  0
   25.6589  -19.9813  -16.6734 C   0  0  0  0  0  0  0  0  0  0  0  0
   24.5784  -20.4910  -14.6411 O   0  0  0  0  0  0  0  0  0  0  0  0
   24.3364  -21.7019  -14.8809 C   0  0  0  0  0  0  0  0  0  0  0  0
   21.7034  -17.8232  -15.5918 C   0  0  0  0  0  0  0  0  0  0  0  0
   20.5874  -17.5212  -14.8227 C   0  0  0  0  0  0  0  0  0  0  0  0
   25.1276  -19.4494  -10.4436 C   0  0  2  0  0  0  0  0  0  0  0  0
   25.5845  -20.7733  -11.0305 C   0  0  0  0  0  0  0  0  0  0  0  0
   25.3497  -21.8157   -9.9504 C   0  0  1  0  0  0  0  0  0  0  0  0
   24.6755  -21.0764  -12.1826 N   0  0  0  0  0  0  0  0  0  0  0  0
   24.7731  -20.1615  -13.2773 C   0  0  0  0  0  0  0  0  0  0  0  0
   23.2898  -21.1772  -11.6984 O   0  0  0  0  0  0  0  0  0  0  0  0
   22.5417  -20.1731  -11.7941 O   0  0  0  0  0  0  0  0  0  0  0  0
  2  1  1  0
  2  3  2  0
  4  5  1  0
  4  2  1  0
  6  5  1  0
  7  6  1  0
  8  9  1  6
  8  7  1  0
 10  8  1  0
 10 11  2  0
 12 13  1  0
 13 23  2  0
 14 15  2  0
 14 13  1  0
 15 16  1  0
 16 17  1  0
 16 22  2  0
 18 17  1  6
 18 19  1  0
 19 10  1  0
 20 18  1  0
 21 20  2  0
 23 22  1  0
 25 24  1  1
 25 27  1  0
 26 25  1  0
 27 29  1  0
 27 28  1  6
 28 20  1  0
 29 31  1  0
 30 29  2  0
M  END
$$$$
