RYV.pdb
     RDKit          3D

 31 31  0  0  1  0  0  0  0  0999 V2000
   32.4656  -24.8770  -15.2419 N   0  0  0  0  0  0  0  0  0  0  0  0
   32.9365  -24.8744  -16.5694 C   0  0  0  0  0  0  0  0  0  0  0  0
   34.1987  -25.1208  -16.8221 N   0  0  0  0  0  0  0  0  0  0  0  0
   32.0671  -24.6077  -17.6636 N   0  0  0  0  0  0  0  0  0  0  0  0
   30.6578  -24.5079  -17.4676 C   0  0  0  0  0  0  0  0  0  0  0  0
   30.1362  -23.2169  -18.0853 C   0  0  0  0  0  0  0  0  0  0  0  0
   29.8133  -22.2400  -16.9922 C   0  0  0  0  0  0  0  0  0  0  0  0
   28.5312  -22.5877  -16.2709 C   0  0  2  0  0  0  0  0  0  0  0  0
   27.4490  -22.7554  -17.2599 N   0  0  0  0  0  0  0  0  0  0  0  0
   28.0956  -21.5738  -15.2898 C   0  0  0  0  0  0  0  0  0  0  0  0
   28.8677  -21.0622  -14.4101 O   0  0  0  0  0  0  0  0  0  0  0  0
   34.5570  -25.1072  -17.7981 O   0  0  0  0  0  0  0  0  0  0  0  0
   28.8438  -15.4311  -17.9758 C   0  0  0  0  0  0  0  0  0  0  0  0
   28.0130  -16.3510  -17.3108 C   0  0  0  0  0  0  0  0  0  0  0  0
   27.4571  -17.3952  -17.9810 C   0  0  0  0  0  0  0  0  0  0  0  0
   26.6435  -18.2963  -17.3308 C   0  0  0  0  0  0  0  0  0  0  0  0
   26.3617  -18.1784  -15.9876 C   0  0  0  0  0  0  0  0  0  0  0  0
   25.4993  -19.1107  -15.2469 C   0  0  2  0  0  0  0  0  0  0  0  0
   26.2418  -20.1001  -14.4011 N   0  0  0  0  0  0  0  0  0  0  0  0
   26.7502  -21.1271  -15.3049 C   0  0  0  0  0  0  0  0  0  0  0  0
   25.3770  -20.7998  -13.4169 O   0  0  0  0  0  0  0  0  0  0  0  0
   24.4714  -21.5867  -13.7949 C   0  0  0  0  0  0  0  0  0  0  0  0
   26.9284  -17.1180  -15.3148 C   0  0  0  0  0  0  0  0  0  0  0  0
   27.7497  -16.2056  -15.9639 C   0  0  0  0  0  0  0  0  0  0  0  0
   26.7123  -21.3794   -9.7715 C   0  0  2  0  0  0  0  0  0  0  0  0
   25.2061  -21.2359   -9.6421 C   0  0  0  0  0  0  0  0  0  0  0  0
   24.9654  -19.8706   -9.0207 C   0  0  2  0  0  0  0  0  0  0  0  0
   24.6480  -21.2251  -11.0328 N   0  0  0  0  0  0  0  0  0  0  0  0
   25.5044  -20.6371  -12.0156 C   0  0  0  0  0  0  0  0  0  0  0  0
   23.3275  -20.5762  -11.0243 O   0  0  0  0  0  0  0  0  0  0  0  0
   23.2174  -19.4238  -11.5110 O   0  0  0  0  0  0  0  0  0  0  0  0
  2  1  1  0
  2  3  2  0
  4  5  1  0
  4  2  1  0
  6  5  1  0
  7  6  1  0
  8  9  1  6
  8  7  1  0
 10  8  1  0
 10 11  2  0
 12 13  1  0
 13 23  2  0
 14 15  2  0
 14 13  1  0
 15 16  1  0
 16 17  1  0
 16 22  2  0
 18 17  1  6
 18 19  1  0
 19 10  1  0
 20 18  1  0
 21 20  2  0
 23 22  1  0
 25 24  1  1
 25 27  1  0
 26 25  1  0
 27 29  1  0
 27 28  1  1
 28 20  1  0
 29 31  1  0
 30 29  2  0
M  END
$$$$
