RYV.pdb
     RDKit          3D

 31 31  0  0  1  0  0  0  0  0999 V2000
   31.0343  -26.0041  -15.9049 N   0  0  0  0  0  0  0  0  0  0  0  0
   31.8515  -25.4002  -16.8804 C   0  0  0  0  0  0  0  0  0  0  0  0
   32.8306  -26.0756  -17.4308 N   0  0  0  0  0  0  0  0  0  0  0  0
   31.6420  -24.0550  -17.2934 N   0  0  0  0  0  0  0  0  0  0  0  0
   30.5311  -23.3065  -16.8032 C   0  0  0  0  0  0  0  0  0  0  0  0
   29.6505  -22.8611  -17.9636 C   0  0  0  0  0  0  0  0  0  0  0  0
   28.2856  -22.5132  -17.4445 C   0  0  0  0  0  0  0  0  0  0  0  0
   27.5566  -23.7169  -16.8924 C   0  0  2  0  0  0  0  0  0  0  0  0
   27.2563  -24.6496  -17.9957 N   0  0  0  0  0  0  0  0  0  0  0  0
   26.2860  -23.3946  -16.2127 C   0  0  0  0  0  0  0  0  0  0  0  0
   25.1401  -23.4971  -16.7679 O   0  0  0  0  0  0  0  0  0  0  0  0
   33.4110  -25.6518  -18.1822 O   0  0  0  0  0  0  0  0  0  0  0  0
   21.5472  -20.4180   -9.1912 C   0  0  0  0  0  0  0  0  0  0  0  0
   22.5079  -20.9597  -10.0644 C   0  0  0  0  0  0  0  0  0  0  0  0
   22.1436  -21.8289  -11.0445 C   0  0  0  0  0  0  0  0  0  0  0  0
   23.0834  -22.3598  -11.8998 C   0  0  0  0  0  0  0  0  0  0  0  0
   24.4184  -22.0358  -11.7990 C   0  0  0  0  0  0  0  0  0  0  0  0
   25.4611  -22.5750  -12.6842 C   0  0  1  0  0  0  0  0  0  0  0  0
   25.1160  -22.5338  -14.1419 N   0  0  0  0  0  0  0  0  0  0  0  0
   26.3132  -22.9443  -14.8687 C   0  0  0  0  0  0  0  0  0  0  0  0
   24.7776  -21.1718  -14.6287 O   0  0  0  0  0  0  0  0  0  0  0  0
   25.5606  -20.2050  -14.4435 C   0  0  0  0  0  0  0  0  0  0  0  0
   24.7803  -21.1545  -10.8037 C   0  0  0  0  0  0  0  0  0  0  0  0
   23.8383  -20.6152   -9.9377 C   0  0  0  0  0  0  0  0  0  0  0  0
   22.5708  -20.8499  -17.7096 C   0  0  2  0  0  0  0  0  0  0  0  0
   22.8759  -19.4489  -17.2096 C   0  0  0  0  0  0  0  0  0  0  0  0
   21.5906  -18.6552  -17.3716 C   0  0  2  0  0  0  0  0  0  0  0  0
   23.1768  -19.5640  -15.7461 N   0  0  0  0  0  0  0  0  0  0  0  0
   23.5789  -20.8684  -15.3197 C   0  0  0  0  0  0  0  0  0  0  0  0
   22.0214  -19.0858  -14.9707 O   0  0  0  0  0  0  0  0  0  0  0  0
   21.7328  -17.8642  -15.0075 O   0  0  0  0  0  0  0  0  0  0  0  0
  2  1  1  0
  2  3  2  0
  4  5  1  0
  4  2  1  0
  6  5  1  0
  7  6  1  0
  8  9  1  6
  8  7  1  0
 10  8  1  0
 10 11  2  0
 12 13  1  0
 13 23  2  0
 14 15  2  0
 14 13  1  0
 15 16  1  0
 16 17  1  0
 16 22  2  0
 18 17  1  1
 18 19  1  0
 19 10  1  0
 20 18  1  0
 21 20  2  0
 23 22  1  0
 25 24  1  6
 25 27  1  0
 26 25  1  0
 27 29  1  0
 27 28  1  6
 28 20  1  0
 29 31  1  0
 30 29  2  0
M  END
$$$$
