RYV.pdb
     RDKit          3D

 31 31  0  0  1  0  0  0  0  0999 V2000
   29.3912  -23.9806  -17.7900 N   0  0  0  0  0  0  0  0  0  0  0  0
   29.1374  -23.1939  -18.9304 C   0  0  0  0  0  0  0  0  0  0  0  0
   29.2912  -23.7008  -20.1291 N   0  0  0  0  0  0  0  0  0  0  0  0
   28.7113  -21.8411  -18.8177 N   0  0  0  0  0  0  0  0  0  0  0  0
   28.3095  -21.3058  -17.5581 C   0  0  0  0  0  0  0  0  0  0  0  0
   26.8326  -20.9349  -17.5970 C   0  0  0  0  0  0  0  0  0  0  0  0
   26.0333  -22.0132  -16.9249 C   0  0  0  0  0  0  0  0  0  0  0  0
   26.4956  -22.2738  -15.5094 C   0  0  2  0  0  0  0  0  0  0  0  0
   27.0570  -23.6358  -15.4260 N   0  0  0  0  0  0  0  0  0  0  0  0
   25.4288  -22.1602  -14.4948 C   0  0  0  0  0  0  0  0  0  0  0  0
   24.6853  -23.1353  -14.1369 O   0  0  0  0  0  0  0  0  0  0  0  0
   29.0159  -23.1600  -20.9734 O   0  0  0  0  0  0  0  0  0  0  0  0
   27.6719  -21.3105   -7.3564 C   0  0  0  0  0  0  0  0  0  0  0  0
   26.9644  -20.8902   -8.4973 C   0  0  0  0  0  0  0  0  0  0  0  0
   27.6057  -20.7003   -9.6811 C   0  0  0  0  0  0  0  0  0  0  0  0
   26.9139  -20.2888  -10.7986 C   0  0  0  0  0  0  0  0  0  0  0  0
   25.5568  -20.0548  -10.7639 C   0  0  0  0  0  0  0  0  0  0  0  0
   24.7721  -19.6133  -11.9261 C   0  0  2  0  0  0  0  0  0  0  0  0
   24.2461  -20.7294  -12.7766 N   0  0  0  0  0  0  0  0  0  0  0  0
   25.1976  -20.9095  -13.8685 C   0  0  0  0  0  0  0  0  0  0  0  0
   22.9375  -20.4220  -13.4085 O   0  0  0  0  0  0  0  0  0  0  0  0
   22.8210  -19.4756  -14.2288 C   0  0  0  0  0  0  0  0  0  0  0  0
   24.9136  -20.2493   -9.5611 C   0  0  0  0  0  0  0  0  0  0  0  0
   25.6046  -20.6641   -8.4304 C   0  0  0  0  0  0  0  0  0  0  0  0
   20.9013  -22.4373  -15.4729 C   0  0  2  0  0  0  0  0  0  0  0  0
   19.8519  -21.9784  -14.4758 C   0  0  0  0  0  0  0  0  0  0  0  0
   19.6153  -23.1540  -13.5431 C   0  0  2  0  0  0  0  0  0  0  0  0
   20.4623  -20.8634  -13.6823 N   0  0  0  0  0  0  0  0  0  0  0  0
   21.7540  -21.1528  -13.1411 C   0  0  0  0  0  0  0  0  0  0  0  0
   19.5267  -20.4461  -12.6262 O   0  0  0  0  0  0  0  0  0  0  0  0
   19.8666  -20.5910  -11.4260 O   0  0  0  0  0  0  0  0  0  0  0  0
  2  1  1  0
  2  3  2  0
  4  5  1  0
  4  2  1  0
  6  5  1  0
  7  6  1  0
  8  9  1  6
  8  7  1  0
 10  8  1  0
 10 11  2  0
 12 13  1  0
 13 23  2  0
 14 15  2  0
 14 13  1  0
 15 16  1  0
 16 17  1  0
 16 22  2  0
 18 17  1  1
 18 19  1  0
 19 10  1  0
 20 18  1  0
 21 20  2  0
 23 22  1  0
 25 24  1  6
 25 27  1  0
 26 25  1  0
 27 29  1  0
 27 28  1  6
 28 20  1  0
 29 31  1  0
 30 29  2  0
M  END
$$$$
