RYV.pdb
     RDKit          3D

 31 31  0  0  1  0  0  0  0  0999 V2000
   27.4850  -21.1680  -14.7242 N   0  0  0  0  0  0  0  0  0  0  0  0
   28.5478  -21.1645  -15.6484 C   0  0  0  0  0  0  0  0  0  0  0  0
   29.0699  -22.2949  -16.0577 N   0  0  0  0  0  0  0  0  0  0  0  0
   29.0810  -19.9487  -16.1603 N   0  0  0  0  0  0  0  0  0  0  0  0
   28.2261  -18.9639  -16.7380 C   0  0  0  0  0  0  0  0  0  0  0  0
   27.9376  -17.8649  -15.7235 C   0  0  0  0  0  0  0  0  0  0  0  0
   26.4661  -17.8373  -15.4282 C   0  0  0  0  0  0  0  0  0  0  0  0
   25.6570  -18.5775  -16.4687 C   0  0  2  0  0  0  0  0  0  0  0  0
   25.0822  -17.6047  -17.4178 N   0  0  0  0  0  0  0  0  0  0  0  0
   24.5480  -19.3792  -15.9141 C   0  0  0  0  0  0  0  0  0  0  0  0
   23.3406  -19.2960  -16.3227 O   0  0  0  0  0  0  0  0  0  0  0  0
   29.9090  -22.3004  -16.6716 O   0  0  0  0  0  0  0  0  0  0  0  0
   25.8193  -19.8493   -8.3684 C   0  0  0  0  0  0  0  0  0  0  0  0
   25.5076  -20.4126   -9.6191 C   0  0  0  0  0  0  0  0  0  0  0  0
   26.4032  -20.3723  -10.6414 C   0  0  0  0  0  0  0  0  0  0  0  0
   26.0990  -20.9234  -11.8662 C   0  0  0  0  0  0  0  0  0  0  0  0
   24.8866  -21.5324  -12.1045 C   0  0  0  0  0  0  0  0  0  0  0  0
   24.5114  -22.1339  -13.3925 C   0  0  1  0  0  0  0  0  0  0  0  0
   23.8015  -21.2014  -14.3264 N   0  0  0  0  0  0  0  0  0  0  0  0
   24.8129  -20.2998  -14.8689 C   0  0  0  0  0  0  0  0  0  0  0  0
   22.7957  -20.3430  -13.6497 O   0  0  0  0  0  0  0  0  0  0  0  0
   23.1508  -19.3916  -12.9075 C   0  0  0  0  0  0  0  0  0  0  0  0
   23.9840  -21.5696  -11.0642 C   0  0  0  0  0  0  0  0  0  0  0  0
   24.2839  -21.0160   -9.8266 C   0  0  0  0  0  0  0  0  0  0  0  0
   20.7924  -17.9974  -14.9505 C   0  0  2  0  0  0  0  0  0  0  0  0
   19.7076  -18.7911  -14.2439 C   0  0  0  0  0  0  0  0  0  0  0  0
   19.0780  -19.6789  -15.3039 C   0  0  2  0  0  0  0  0  0  0  0  0
   20.3926  -19.6689  -13.2410 N   0  0  0  0  0  0  0  0  0  0  0  0
   21.3979  -20.5274  -13.7864 C   0  0  0  0  0  0  0  0  0  0  0  0
   19.3842  -20.4399  -12.4970 O   0  0  0  0  0  0  0  0  0  0  0  0
   19.4338  -21.6941  -12.5346 O   0  0  0  0  0  0  0  0  0  0  0  0
  2  1  1  0
  2  3  2  0
  4  5  1  0
  4  2  1  0
  6  5  1  0
  7  6  1  0
  8  9  1  6
  8  7  1  0
 10  8  1  0
 10 11  2  0
 12 13  1  0
 13 23  2  0
 14 15  2  0
 14 13  1  0
 15 16  1  0
 16 17  1  0
 16 22  2  0
 18 17  1  6
 18 19  1  0
 19 10  1  0
 20 18  1  0
 21 20  2  0
 23 22  1  0
 25 24  1  6
 25 27  1  0
 26 25  1  0
 27 29  1  0
 27 28  1  1
 28 20  1  0
 29 31  1  0
 30 29  2  0
M  END
$$$$
