YTR.pdb
     RDKit          3D

 31 31  0  0  1  0  0  0  0  0999 V2000
    4.6371   -9.5835   26.9629 O   0  0  0  0  0  0  0  0  0  0  0  0
    5.4152  -10.6891   26.5851 C   0  0  0  0  0  0  0  0  0  0  0  0
    5.5798  -10.9624   25.2610 C   0  0  0  0  0  0  0  0  0  0  0  0
    6.3373  -12.0406   24.8390 C   0  0  0  0  0  0  0  0  0  0  0  0
    6.9430  -12.8629   25.7581 C   0  0  0  0  0  0  0  0  0  0  0  0
    7.7426  -13.9992   25.3088 C   0  0  0  0  0  0  0  0  0  0  0  0
    6.9452  -15.0955   24.6309 C   0  0  2  0  0  0  0  0  0  0  0  0
    6.0872  -15.7490   25.6402 N   0  0  0  0  0  0  0  0  0  0  0  0
    7.7507  -16.1358   24.0013 C   0  0  0  0  0  0  0  0  0  0  0  0
    8.0782  -17.1834   24.6525 O   0  0  0  0  0  0  0  0  0  0  0  0
    6.7708  -12.5785   27.0953 C   0  0  0  0  0  0  0  0  0  0  0  0
    6.0134  -11.5004   27.5178 C   0  0  0  0  0  0  0  0  0  0  0  0
    8.0053  -16.4720   20.0166 C   0  0  0  0  0  0  0  0  0  0  0  0
    9.3381  -16.7105   20.6697 C   0  0  1  0  0  0  0  0  0  0  0  0
    9.9805  -15.4495   20.6958 O   0  0  0  0  0  0  0  0  0  0  0  0
    9.2017  -17.0871   22.1550 C   0  0  2  0  0  0  0  0  0  0  0  0
    8.2378  -16.1126   22.6637 N   0  0  0  0  0  0  0  0  0  0  0  0
   10.4616  -16.9224   22.8807 C   0  0  0  0  0  0  0  0  0  0  0  0
   10.6794  -15.7926   23.4453 O   0  0  0  0  0  0  0  0  0  0  0  0
   11.9088  -21.5408   28.5539 N   0  0  0  0  0  0  0  0  0  0  0  0
   12.4785  -20.4836   29.3107 C   0  0  0  0  0  0  0  0  0  0  0  0
   13.2480  -20.7554   30.2891 N   0  0  0  0  0  0  0  0  0  0  0  0
   12.1767  -19.1232   28.9600 N   0  0  0  0  0  0  0  0  0  0  0  0
   11.4118  -18.8424   27.7672 C   0  0  0  0  0  0  0  0  0  0  0  0
   12.3147  -18.5258   26.5919 C   0  0  0  0  0  0  0  0  0  0  0  0
   11.5164  -18.2725   25.3594 C   0  0  0  0  0  0  0  0  0  0  0  0
   12.3452  -17.9507   24.1470 C   0  0  2  0  0  0  0  0  0  0  0  0
   11.4477  -17.9429   22.9919 N   0  0  0  0  0  0  0  0  0  0  0  0
   13.3071  -19.0604   23.8925 C   0  0  0  0  0  0  0  0  0  0  0  0
   12.9325  -20.0291   23.1906 O   0  0  0  0  0  0  0  0  0  0  0  0
   14.5886  -19.1028   24.3743 O   0  0  0  0  0  0  0  0  0  0  0  0
  2  1  1  0
  3  2  2  0
  4  3  1  0
  5  4  2  0
  5 11  1  0
  6  5  1  0
  7  9  1  0
  7  6  1  0
  7  8  1  1
  9 10  2  0
 11 12  2  0
 12  2  1  0
 14 13  1  1
 15 14  1  0
 16 14  1  0
 16 17  1  1
 17  9  1  0
 18 16  1  0
 19 18  2  0
 20 21  1  0
 21 22  2  0
 23 24  1  0
 23 21  1  0
 24 25  1  0
 27 26  1  1
 26 25  1  0
 27 28  1  0
 28 18  1  0
 29 31  1  0
 29 27  1  0
 30 29  2  0
M  END
$$$$
