YTR.pdb
     RDKit          3D

 31 31  0  0  1  0  0  0  0  0999 V2000
    7.9384  -11.0987   18.2636 O   0  0  0  0  0  0  0  0  0  0  0  0
    8.0340  -12.3400   18.9119 C   0  0  0  0  0  0  0  0  0  0  0  0
    8.9142  -12.4842   19.9414 C   0  0  0  0  0  0  0  0  0  0  0  0
    9.0448  -13.6877   20.6114 C   0  0  0  0  0  0  0  0  0  0  0  0
    8.2807  -14.7696   20.2460 C   0  0  0  0  0  0  0  0  0  0  0  0
    8.4207  -16.0378   20.9563 C   0  0  0  0  0  0  0  0  0  0  0  0
    9.5437  -16.9189   20.4468 C   0  0  2  0  0  0  0  0  0  0  0  0
    9.2170  -17.3543   19.0736 N   0  0  0  0  0  0  0  0  0  0  0  0
    9.7862  -18.1185   21.2404 C   0  0  0  0  0  0  0  0  0  0  0  0
    9.2003  -19.2148   20.9513 O   0  0  0  0  0  0  0  0  0  0  0  0
    7.3932  -14.6142   19.2036 C   0  0  0  0  0  0  0  0  0  0  0  0
    7.2622  -13.4109   18.5333 C   0  0  0  0  0  0  0  0  0  0  0  0
   10.8201  -20.6325   20.7560 C   0  0  0  0  0  0  0  0  0  0  0  0
   11.7381  -20.2427   21.8808 C   0  0  1  0  0  0  0  0  0  0  0  0
   12.6217  -19.2810   21.3353 O   0  0  0  0  0  0  0  0  0  0  0  0
   11.0036  -19.4797   22.9965 C   0  0  2  0  0  0  0  0  0  0  0  0
   10.6556  -18.2083   22.3641 N   0  0  0  0  0  0  0  0  0  0  0  0
   11.8738  -19.2105   24.1417 C   0  0  0  0  0  0  0  0  0  0  0  0
   12.8000  -18.3372   23.9926 O   0  0  0  0  0  0  0  0  0  0  0  0
   11.5012  -21.9830   32.3971 N   0  0  0  0  0  0  0  0  0  0  0  0
   12.8037  -22.3192   31.9440 C   0  0  0  0  0  0  0  0  0  0  0  0
   13.5785  -22.9898   32.7013 N   0  0  0  0  0  0  0  0  0  0  0  0
   13.2269  -21.8964   30.6376 N   0  0  0  0  0  0  0  0  0  0  0  0
   12.6791  -20.6902   30.0614 C   0  0  0  0  0  0  0  0  0  0  0  0
   13.3619  -20.3411   28.7542 C   0  0  0  0  0  0  0  0  0  0  0  0
   12.4238  -20.4903   27.6062 C   0  0  0  0  0  0  0  0  0  0  0  0
   12.6734  -19.5254   26.4806 C   0  0  2  0  0  0  0  0  0  0  0  0
   11.7452  -19.8614   25.4011 N   0  0  0  0  0  0  0  0  0  0  0  0
   14.0340  -19.7574   25.9182 C   0  0  0  0  0  0  0  0  0  0  0  0
   14.1808  -20.6546   25.0551 O   0  0  0  0  0  0  0  0  0  0  0  0
   15.1532  -19.0543   26.2781 O   0  0  0  0  0  0  0  0  0  0  0  0
  2  1  1  0
  3  2  2  0
  4  3  1  0
  5  4  2  0
  5 11  1  0
  6  5  1  0
  7  9  1  0
  7  6  1  0
  7  8  1  6
  9 10  2  0
 11 12  2  0
 12  2  1  0
 14 13  1  6
 15 14  1  0
 16 14  1  0
 16 17  1  6
 17  9  1  0
 18 16  1  0
 19 18  2  0
 20 21  1  0
 21 22  2  0
 23 24  1  0
 23 21  1  0
 24 25  1  0
 27 26  1  1
 26 25  1  0
 27 28  1  0
 28 18  1  0
 29 31  1  0
 29 27  1  0
 30 29  2  0
M  END
$$$$
