YTR.pdb
     RDKit          3D

 31 31  0  0  1  0  0  0  0  0999 V2000
    7.7467  -10.9950   27.1855 O   0  0  0  0  0  0  0  0  0  0  0  0
    7.4209  -12.2611   26.6743 C   0  0  0  0  0  0  0  0  0  0  0  0
    7.8261  -12.5925   25.4168 C   0  0  0  0  0  0  0  0  0  0  0  0
    7.5295  -13.8280   24.8690 C   0  0  0  0  0  0  0  0  0  0  0  0
    6.8137  -14.7516   25.5916 C   0  0  0  0  0  0  0  0  0  0  0  0
    6.5036  -16.0548   25.0104 C   0  0  0  0  0  0  0  0  0  0  0  0
    7.3297  -17.1986   25.5638 C   0  0  2  0  0  0  0  0  0  0  0  0
    7.3910  -17.0694   27.0340 N   0  0  0  0  0  0  0  0  0  0  0  0
    8.7017  -17.2545   25.0717 C   0  0  0  0  0  0  0  0  0  0  0  0
    9.6531  -16.7388   25.7482 O   0  0  0  0  0  0  0  0  0  0  0  0
    6.4081  -14.4073   26.8627 C   0  0  0  0  0  0  0  0  0  0  0  0
    6.7045  -13.1720   27.4109 C   0  0  0  0  0  0  0  0  0  0  0  0
   10.9281  -20.1154   24.2895 C   0  0  0  0  0  0  0  0  0  0  0  0
   10.8296  -19.2672   23.0523 C   0  0  1  0  0  0  0  0  0  0  0  0
    9.6817  -19.7285   22.3647 O   0  0  0  0  0  0  0  0  0  0  0  0
   10.5028  -17.7991   23.3750 C   0  0  2  0  0  0  0  0  0  0  0  0
    9.1220  -17.8572   23.8524 N   0  0  0  0  0  0  0  0  0  0  0  0
   10.5509  -16.9515   22.1832 C   0  0  0  0  0  0  0  0  0  0  0  0
    9.4361  -16.6052   21.6542 O   0  0  0  0  0  0  0  0  0  0  0  0
    7.1957  -13.0592   17.5719 N   0  0  0  0  0  0  0  0  0  0  0  0
    8.1268  -14.0986   17.3116 C   0  0  0  0  0  0  0  0  0  0  0  0
    7.8728  -14.9569   16.4050 N   0  0  0  0  0  0  0  0  0  0  0  0
    9.3412  -14.1652   18.0768 N   0  0  0  0  0  0  0  0  0  0  0  0
    9.5690  -13.2200   19.1452 C   0  0  0  0  0  0  0  0  0  0  0  0
   10.9713  -13.3450   19.7059 C   0  0  0  0  0  0  0  0  0  0  0  0
   11.0225  -14.3644   20.7916 C   0  0  0  0  0  0  0  0  0  0  0  0
   11.6989  -15.6477   20.3968 C   0  0  2  0  0  0  0  0  0  0  0  0
   11.7605  -16.4952   21.5875 N   0  0  0  0  0  0  0  0  0  0  0  0
   13.1180  -15.3717   20.0343 C   0  0  0  0  0  0  0  0  0  0  0  0
   13.9942  -15.4709   20.9251 O   0  0  0  0  0  0  0  0  0  0  0  0
   13.5439  -15.0127   18.7829 O   0  0  0  0  0  0  0  0  0  0  0  0
  2  1  1  0
  3  2  2  0
  4  3  1  0
  5  4  2  0
  5 11  1  0
  6  5  1  0
  7  9  1  0
  7  6  1  0
  7  8  1  1
  9 10  2  0
 11 12  2  0
 12  2  1  0
 14 13  1  1
 15 14  1  0
 16 14  1  0
 16 17  1  6
 17  9  1  0
 18 16  1  0
 19 18  2  0
 20 21  1  0
 21 22  2  0
 23 24  1  0
 23 21  1  0
 24 25  1  0
 27 26  1  1
 26 25  1  0
 27 28  1  0
 28 18  1  0
 29 31  1  0
 29 27  1  0
 30 29  2  0
M  END
$$$$
