YTR.pdb
     RDKit          3D

 31 31  0  0  1  0  0  0  0  0999 V2000
    5.0885  -10.6023   28.0377 O   0  0  0  0  0  0  0  0  0  0  0  0
    5.8210  -11.5114   27.2583 C   0  0  0  0  0  0  0  0  0  0  0  0
    5.8047  -11.3856   25.9022 C   0  0  0  0  0  0  0  0  0  0  0  0
    6.5104  -12.2570   25.0916 C   0  0  0  0  0  0  0  0  0  0  0  0
    7.2476  -13.2750   25.6465 C   0  0  0  0  0  0  0  0  0  0  0  0
    7.9919  -14.1919   24.7876 C   0  0  0  0  0  0  0  0  0  0  0  0
    7.1369  -15.2379   24.1006 C   0  0  2  0  0  0  0  0  0  0  0  0
    6.5411  -16.1126   25.1311 N   0  0  0  0  0  0  0  0  0  0  0  0
    7.8551  -16.0932   23.1625 C   0  0  0  0  0  0  0  0  0  0  0  0
    7.3114  -17.1544   22.7078 O   0  0  0  0  0  0  0  0  0  0  0  0
    7.2581  -13.3943   27.0192 C   0  0  0  0  0  0  0  0  0  0  0  0
    6.5525  -12.5232   27.8302 C   0  0  0  0  0  0  0  0  0  0  0  0
    7.4154  -16.4945   20.6032 C   0  0  0  0  0  0  0  0  0  0  0  0
    8.8760  -16.2341   20.3608 C   0  0  1  0  0  0  0  0  0  0  0  0
    9.0058  -14.8263   20.2934 O   0  0  0  0  0  0  0  0  0  0  0  0
    9.7476  -16.6290   21.5653 C   0  0  2  0  0  0  0  0  0  0  0  0
    9.1695  -15.8611   22.6671 N   0  0  0  0  0  0  0  0  0  0  0  0
   11.1419  -16.2208   21.3909 C   0  0  0  0  0  0  0  0  0  0  0  0
   11.3714  -14.9901   21.1164 O   0  0  0  0  0  0  0  0  0  0  0  0
    9.4314  -18.6372   27.1552 N   0  0  0  0  0  0  0  0  0  0  0  0
   10.7334  -18.4987   27.7037 C   0  0  0  0  0  0  0  0  0  0  0  0
   10.8676  -18.1800   28.9300 N   0  0  0  0  0  0  0  0  0  0  0  0
   11.8790  -18.7200   26.8652 N   0  0  0  0  0  0  0  0  0  0  0  0
   11.6954  -19.0215   25.4644 C   0  0  0  0  0  0  0  0  0  0  0  0
   11.9306  -17.7997   24.5992 C   0  0  0  0  0  0  0  0  0  0  0  0
   12.9814  -18.0647   23.5765 C   0  0  0  0  0  0  0  0  0  0  0  0
   13.1952  -16.9339   22.6092 C   0  0  2  0  0  0  0  0  0  0  0  0
   12.2459  -17.1113   21.5105 N   0  0  0  0  0  0  0  0  0  0  0  0
   14.5448  -17.0575   21.9890 C   0  0  0  0  0  0  0  0  0  0  0  0
   15.5493  -16.7519   22.6739 O   0  0  0  0  0  0  0  0  0  0  0  0
   14.7746  -17.4860   20.7085 O   0  0  0  0  0  0  0  0  0  0  0  0
  2  1  1  0
  3  2  2  0
  4  3  1  0
  5  4  2  0
  5 11  1  0
  6  5  1  0
  7  9  1  0
  7  6  1  0
  7  8  1  1
  9 10  2  0
 11 12  2  0
 12  2  1  0
 14 13  1  1
 15 14  1  0
 16 14  1  0
 16 17  1  1
 17  9  1  0
 18 16  1  0
 19 18  2  0
 20 21  1  0
 21 22  2  0
 23 24  1  0
 23 21  1  0
 24 25  1  0
 27 26  1  1
 26 25  1  0
 27 28  1  0
 28 18  1  0
 29 31  1  0
 29 27  1  0
 30 29  2  0
M  END
$$$$
