YTR.pdb
     RDKit          3D

 31 31  0  0  1  0  0  0  0  0999 V2000
    5.7537  -12.9737   23.0653 O   0  0  0  0  0  0  0  0  0  0  0  0
    6.8648  -13.4036   22.3230 C   0  0  0  0  0  0  0  0  0  0  0  0
    6.8195  -13.3373   20.9633 C   0  0  0  0  0  0  0  0  0  0  0  0
    7.8890  -13.7491   20.1882 C   0  0  0  0  0  0  0  0  0  0  0  0
    9.0274  -14.2372   20.7829 C   0  0  0  0  0  0  0  0  0  0  0  0
   10.1545  -14.6698   19.9614 C   0  0  0  0  0  0  0  0  0  0  0  0
   10.1410  -16.1435   19.6078 C   0  0  2  0  0  0  0  0  0  0  0  0
    8.8911  -16.4435   18.8799 N   0  0  0  0  0  0  0  0  0  0  0  0
   10.2089  -17.0462   20.7514 C   0  0  0  0  0  0  0  0  0  0  0  0
    9.1641  -17.6571   21.1565 O   0  0  0  0  0  0  0  0  0  0  0  0
    9.0640  -14.3004   22.1588 C   0  0  0  0  0  0  0  0  0  0  0  0
    7.9947  -13.8887   22.9344 C   0  0  0  0  0  0  0  0  0  0  0  0
   13.0128  -19.6430   21.1673 C   0  0  0  0  0  0  0  0  0  0  0  0
   12.7969  -18.9476   22.4825 C   0  0  1  0  0  0  0  0  0  0  0  0
   13.6668  -17.8311   22.4702 O   0  0  0  0  0  0  0  0  0  0  0  0
   11.3951  -18.3235   22.5902 C   0  0  2  0  0  0  0  0  0  0  0  0
   11.3785  -17.3407   21.5078 N   0  0  0  0  0  0  0  0  0  0  0  0
   11.2019  -17.6241   23.8609 C   0  0  0  0  0  0  0  0  0  0  0  0
   11.2573  -16.3437   23.8493 O   0  0  0  0  0  0  0  0  0  0  0  0
    5.9597  -17.4097   22.4133 N   0  0  0  0  0  0  0  0  0  0  0  0
    5.8092  -18.4225   23.3965 C   0  0  0  0  0  0  0  0  0  0  0  0
    5.1130  -19.4562   23.1319 N   0  0  0  0  0  0  0  0  0  0  0  0
    6.4451  -18.2639   24.6752 N   0  0  0  0  0  0  0  0  0  0  0  0
    7.1475  -17.0390   24.9803 C   0  0  0  0  0  0  0  0  0  0  0  0
    8.6484  -17.2201   24.8748 C   0  0  0  0  0  0  0  0  0  0  0  0
    9.3141  -16.9227   26.1743 C   0  0  0  0  0  0  0  0  0  0  0  0
   10.7003  -17.4914   26.2980 C   0  0  2  0  0  0  0  0  0  0  0  0
   10.9569  -18.2861   25.0969 N   0  0  0  0  0  0  0  0  0  0  0  0
   10.7418  -18.4607   27.4294 C   0  0  0  0  0  0  0  0  0  0  0  0
   10.8402  -19.6828   27.1684 O   0  0  0  0  0  0  0  0  0  0  0  0
   10.6799  -18.1124   28.7528 O   0  0  0  0  0  0  0  0  0  0  0  0
  2  1  1  0
  3  2  2  0
  4  3  1  0
  5  4  2  0
  5 11  1  0
  6  5  1  0
  7  9  1  0
  7  6  1  0
  7  8  1  1
  9 10  2  0
 11 12  2  0
 12  2  1  0
 14 13  1  6
 15 14  1  0
 16 14  1  0
 16 17  1  6
 17  9  1  0
 18 16  1  0
 19 18  2  0
 20 21  1  0
 21 22  2  0
 23 24  1  0
 23 21  1  0
 24 25  1  0
 27 26  1  6
 26 25  1  0
 27 28  1  0
 28 18  1  0
 29 31  1  0
 29 27  1  0
 30 29  2  0
M  END
$$$$
