YTR.pdb
     RDKit          3D

 31 31  0  0  1  0  0  0  0  0999 V2000
    6.3193  -10.2571   27.9921 O   0  0  0  0  0  0  0  0  0  0  0  0
    6.6532  -11.5217   27.4826 C   0  0  0  0  0  0  0  0  0  0  0  0
    5.6577  -12.4102   27.2093 C   0  0  0  0  0  0  0  0  0  0  0  0
    5.9364  -13.6686   26.7060 C   0  0  0  0  0  0  0  0  0  0  0  0
    7.2360  -14.0476   26.4708 C   0  0  0  0  0  0  0  0  0  0  0  0
    7.5260  -15.3762   25.9386 C   0  0  0  0  0  0  0  0  0  0  0  0
    6.5760  -15.8346   24.8503 C   0  0  2  0  0  0  0  0  0  0  0  0
    5.7515  -16.9410   25.3777 N   0  0  0  0  0  0  0  0  0  0  0  0
    7.2254  -16.3134   23.6352 C   0  0  0  0  0  0  0  0  0  0  0  0
    7.5933  -17.5314   23.5351 O   0  0  0  0  0  0  0  0  0  0  0  0
    8.2362  -13.1420   26.7503 C   0  0  0  0  0  0  0  0  0  0  0  0
    7.9579  -11.8836   27.2535 C   0  0  0  0  0  0  0  0  0  0  0  0
    8.6631  -15.3450   18.9419 C   0  0  0  0  0  0  0  0  0  0  0  0
    7.9195  -15.0459   20.2137 C   0  0  1  0  0  0  0  0  0  0  0  0
    6.5562  -15.2939   19.9251 O   0  0  0  0  0  0  0  0  0  0  0  0
    8.2492  -16.0486   21.3328 C   0  0  2  0  0  0  0  0  0  0  0  0
    7.5083  -15.5291   22.4812 N   0  0  0  0  0  0  0  0  0  0  0  0
    9.6754  -16.0560   21.6601 C   0  0  0  0  0  0  0  0  0  0  0  0
   10.1686  -15.0004   22.1940 O   0  0  0  0  0  0  0  0  0  0  0  0
   12.6090  -20.7793   27.3290 N   0  0  0  0  0  0  0  0  0  0  0  0
   11.3289  -20.1902   27.1568 C   0  0  0  0  0  0  0  0  0  0  0  0
   10.3551  -20.5819   27.8789 N   0  0  0  0  0  0  0  0  0  0  0  0
   11.1532  -19.1615   26.1692 N   0  0  0  0  0  0  0  0  0  0  0  0
   11.8892  -19.2253   24.9278 C   0  0  0  0  0  0  0  0  0  0  0  0
   11.5614  -18.0505   24.0284 C   0  0  0  0  0  0  0  0  0  0  0  0
   12.2729  -18.1627   22.7240 C   0  0  0  0  0  0  0  0  0  0  0  0
   11.9546  -17.0586   21.7545 C   0  0  2  0  0  0  0  0  0  0  0  0
   10.5346  -17.1651   21.4194 N   0  0  0  0  0  0  0  0  0  0  0  0
   12.6813  -17.2946   20.4748 C   0  0  0  0  0  0  0  0  0  0  0  0
   12.0452  -17.7641   19.5021 O   0  0  0  0  0  0  0  0  0  0  0  0
   14.0115  -17.0334   20.2778 O   0  0  0  0  0  0  0  0  0  0  0  0
  2  1  1  0
  3  2  2  0
  4  3  1  0
  5  4  2  0
  5 11  1  0
  6  5  1  0
  7  9  1  0
  7  6  1  0
  7  8  1  1
  9 10  2  0
 11 12  2  0
 12  2  1  0
 14 13  1  6
 15 14  1  0
 16 14  1  0
 16 17  1  1
 17  9  1  0
 18 16  1  0
 19 18  2  0
 20 21  1  0
 21 22  2  0
 23 24  1  0
 23 21  1  0
 24 25  1  0
 27 26  1  1
 26 25  1  0
 27 28  1  0
 28 18  1  0
 29 31  1  0
 29 27  1  0
 30 29  2  0
M  END
$$$$
