YTR.pdb
     RDKit          3D

 31 31  0  0  1  0  0  0  0  0999 V2000
    5.5228  -10.3073   27.5742 O   0  0  0  0  0  0  0  0  0  0  0  0
    6.2362  -11.3920   27.0404 C   0  0  0  0  0  0  0  0  0  0  0  0
    7.2894  -11.9007   27.7385 C   0  0  0  0  0  0  0  0  0  0  0  0
    8.0232  -12.9690   27.2540 C   0  0  0  0  0  0  0  0  0  0  0  0
    7.6988  -13.5412   26.0478 C   0  0  0  0  0  0  0  0  0  0  0  0
    8.4751  -14.6692   25.5404 C   0  0  0  0  0  0  0  0  0  0  0  0
    7.6774  -15.6528   24.7078 C   0  0  2  0  0  0  0  0  0  0  0  0
    6.4668  -16.0376   25.4616 N   0  0  0  0  0  0  0  0  0  0  0  0
    8.3881  -16.8796   24.3652 C   0  0  0  0  0  0  0  0  0  0  0  0
    7.7626  -17.9892   24.2867 O   0  0  0  0  0  0  0  0  0  0  0  0
    6.6318  -13.0198   25.3489 C   0  0  0  0  0  0  0  0  0  0  0  0
    5.8977  -11.9516   25.8329 C   0  0  0  0  0  0  0  0  0  0  0  0
    8.0590  -17.9915   22.2961 C   0  0  0  0  0  0  0  0  0  0  0  0
    9.5352  -18.1077   22.0367 C   0  0  1  0  0  0  0  0  0  0  0  0
    9.9032  -16.9059   21.3859 O   0  0  0  0  0  0  0  0  0  0  0  0
   10.3595  -18.0929   23.3354 C   0  0  2  0  0  0  0  0  0  0  0  0
    9.7812  -16.9824   24.0903 N   0  0  0  0  0  0  0  0  0  0  0  0
   11.7720  -17.8039   23.0854 C   0  0  0  0  0  0  0  0  0  0  0  0
   12.0971  -16.5870   22.8482 O   0  0  0  0  0  0  0  0  0  0  0  0
   19.1263  -15.0511   20.8374 N   0  0  0  0  0  0  0  0  0  0  0  0
   18.0019  -14.3262   21.3119 C   0  0  0  0  0  0  0  0  0  0  0  0
   17.9610  -13.0616   21.1619 N   0  0  0  0  0  0  0  0  0  0  0  0
   16.9280  -15.0319   21.9547 N   0  0  0  0  0  0  0  0  0  0  0  0
   15.9118  -15.6754   21.1545 C   0  0  0  0  0  0  0  0  0  0  0  0
   15.7636  -17.1388   21.5193 C   0  0  0  0  0  0  0  0  0  0  0  0
   14.3492  -17.4635   21.8574 C   0  0  0  0  0  0  0  0  0  0  0  0
   14.1957  -18.3804   23.0389 C   0  0  2  0  0  0  0  0  0  0  0  0
   12.7938  -18.7948   23.0931 N   0  0  0  0  0  0  0  0  0  0  0  0
   14.4306  -17.6159   24.2965 C   0  0  0  0  0  0  0  0  0  0  0  0
   15.6024  -17.2706   24.5780 O   0  0  0  0  0  0  0  0  0  0  0  0
   13.4489  -17.2563   25.1814 O   0  0  0  0  0  0  0  0  0  0  0  0
  2  1  1  0
  3  2  2  0
  4  3  1  0
  5  4  2  0
  5 11  1  0
  6  5  1  0
  7  9  1  0
  7  6  1  0
  7  8  1  1
  9 10  2  0
 11 12  2  0
 12  2  1  0
 14 13  1  1
 15 14  1  0
 16 14  1  0
 16 17  1  1
 17  9  1  0
 18 16  1  0
 19 18  2  0
 20 21  1  0
 21 22  2  0
 23 24  1  0
 23 21  1  0
 24 25  1  0
 27 26  1  6
 26 25  1  0
 27 28  1  0
 28 18  1  0
 29 31  1  0
 29 27  1  0
 30 29  2  0
M  END
$$$$
