YTR.pdb
     RDKit          3D

 31 31  0  0  1  0  0  0  0  0999 V2000
    5.7175  -25.1184   17.7768 O   0  0  0  0  0  0  0  0  0  0  0  0
    6.7220  -24.7931   18.7018 C   0  0  0  0  0  0  0  0  0  0  0  0
    6.4824  -23.8223   19.6266 C   0  0  0  0  0  0  0  0  0  0  0  0
    7.4408  -23.4664   20.5589 C   0  0  0  0  0  0  0  0  0  0  0  0
    8.6636  -24.0927   20.5680 C   0  0  0  0  0  0  0  0  0  0  0  0
    9.6722  -23.7150   21.5542 C   0  0  0  0  0  0  0  0  0  0  0  0
   10.2963  -22.3538   21.3202 C   0  0  2  0  0  0  0  0  0  0  0  0
   10.9128  -22.3410   19.9779 N   0  0  0  0  0  0  0  0  0  0  0  0
   11.3298  -21.9830   22.2802 C   0  0  0  0  0  0  0  0  0  0  0  0
   12.5020  -21.6731   21.8816 O   0  0  0  0  0  0  0  0  0  0  0  0
    8.8968  -25.0735   19.6287 C   0  0  0  0  0  0  0  0  0  0  0  0
    7.9387  -25.4298   18.6962 C   0  0  0  0  0  0  0  0  0  0  0  0
   12.9012  -19.8515   22.7594 C   0  0  0  0  0  0  0  0  0  0  0  0
   12.4118  -19.9827   24.1747 C   0  0  1  0  0  0  0  0  0  0  0  0
   11.0991  -19.4531   24.1743 O   0  0  0  0  0  0  0  0  0  0  0  0
   12.2186  -21.4505   24.5923 C   0  0  2  0  0  0  0  0  0  0  0  0
   11.1666  -21.9222   23.6932 N   0  0  0  0  0  0  0  0  0  0  0  0
   11.7446  -21.5708   25.9714 C   0  0  0  0  0  0  0  0  0  0  0  0
   10.4779  -21.5947   26.1650 O   0  0  0  0  0  0  0  0  0  0  0  0
   15.9354  -24.7694   32.8821 N   0  0  0  0  0  0  0  0  0  0  0  0
   14.5678  -24.9530   33.2156 C   0  0  0  0  0  0  0  0  0  0  0  0
   14.2531  -25.7458   34.1619 N   0  0  0  0  0  0  0  0  0  0  0  0
   13.5606  -24.2410   32.4785 N   0  0  0  0  0  0  0  0  0  0  0  0
   13.9443  -23.3965   31.3711 C   0  0  0  0  0  0  0  0  0  0  0  0
   12.7451  -23.0060   30.5308 C   0  0  0  0  0  0  0  0  0  0  0  0
   13.1575  -22.1666   29.3707 C   0  0  0  0  0  0  0  0  0  0  0  0
   12.0340  -21.8204   28.4337 C   0  0  2  0  0  0  0  0  0  0  0  0
   12.6096  -21.6629   27.0981 N   0  0  0  0  0  0  0  0  0  0  0  0
   11.4850  -20.4808   28.7879 C   0  0  0  0  0  0  0  0  0  0  0  0
   11.9867  -19.4660   28.2495 O   0  0  0  0  0  0  0  0  0  0  0  0
   10.4584  -20.2710   29.6702 O   0  0  0  0  0  0  0  0  0  0  0  0
  2  1  1  0
  3  2  2  0
  4  3  1  0
  5  4  2  0
  5 11  1  0
  6  5  1  0
  7  9  1  0
  7  6  1  0
  7  8  1  6
  9 10  2  0
 11 12  2  0
 12  2  1  0
 14 13  1  6
 15 14  1  0
 16 14  1  0
 16 17  1  6
 17  9  1  0
 18 16  1  0
 19 18  2  0
 20 21  1  0
 21 22  2  0
 23 24  1  0
 23 21  1  0
 24 25  1  0
 27 26  1  1
 26 25  1  0
 27 28  1  0
 28 18  1  0
 29 31  1  0
 29 27  1  0
 30 29  2  0
M  END
$$$$
