YTR.pdb
     RDKit          3D

 31 31  0  0  1  0  0  0  0  0999 V2000
   17.2908  -21.6584    9.8730 O   0  0  0  0  0  0  0  0  0  0  0  0
   16.9070  -21.5045   11.2144 C   0  0  0  0  0  0  0  0  0  0  0  0
   16.1858  -22.4915   11.8151 C   0  0  0  0  0  0  0  0  0  0  0  0
   15.7842  -22.3860   13.1349 C   0  0  0  0  0  0  0  0  0  0  0  0
   16.1095  -21.2719   13.8702 C   0  0  0  0  0  0  0  0  0  0  0  0
   15.6848  -21.1647   15.2633 C   0  0  0  0  0  0  0  0  0  0  0  0
   14.2698  -20.6540   15.4478 C   0  0  2  0  0  0  0  0  0  0  0  0
   14.1786  -19.2961   14.8734 N   0  0  0  0  0  0  0  0  0  0  0  0
   13.8260  -20.5732   16.8348 C   0  0  0  0  0  0  0  0  0  0  0  0
   14.0761  -19.5357   17.5347 O   0  0  0  0  0  0  0  0  0  0  0  0
   16.8393  -20.2787   13.2541 C   0  0  0  0  0  0  0  0  0  0  0  0
   17.2411  -20.3838   11.9343 C   0  0  0  0  0  0  0  0  0  0  0  0
   10.4523  -20.5768   18.2829 C   0  0  0  0  0  0  0  0  0  0  0  0
   11.2103  -21.7010   18.9319 C   0  0  1  0  0  0  0  0  0  0  0  0
   11.0529  -22.8134   18.0709 O   0  0  0  0  0  0  0  0  0  0  0  0
   12.7284  -21.4527   18.9422 C   0  0  2  0  0  0  0  0  0  0  0  0
   13.1011  -21.5794   17.5341 N   0  0  0  0  0  0  0  0  0  0  0  0
   13.4457  -22.4711   19.7100 C   0  0  0  0  0  0  0  0  0  0  0  0
   14.0127  -23.4177   19.0580 O   0  0  0  0  0  0  0  0  0  0  0  0
   19.3351  -26.4956   20.8085 N   0  0  0  0  0  0  0  0  0  0  0  0
   18.8283  -25.7421   19.7174 C   0  0  0  0  0  0  0  0  0  0  0  0
   18.8528  -26.2402   18.5449 N   0  0  0  0  0  0  0  0  0  0  0  0
   18.2963  -24.4286   19.9542 N   0  0  0  0  0  0  0  0  0  0  0  0
   18.1788  -23.9351   21.3068 C   0  0  0  0  0  0  0  0  0  0  0  0
   16.7962  -24.1914   21.8719 C   0  0  0  0  0  0  0  0  0  0  0  0
   15.7951  -23.2644   21.2729 C   0  0  0  0  0  0  0  0  0  0  0  0
   14.3973  -23.4512   21.7939 C   0  0  2  0  0  0  0  0  0  0  0  0
   13.5462  -22.4639   21.1298 N   0  0  0  0  0  0  0  0  0  0  0  0
   14.3543  -23.0998   23.2417 C   0  0  0  0  0  0  0  0  0  0  0  0
   14.2192  -21.8955   23.5624 O   0  0  0  0  0  0  0  0  0  0  0  0
   14.4526  -24.0063   24.2639 O   0  0  0  0  0  0  0  0  0  0  0  0
  2  1  1  0
  3  2  2  0
  4  3  1  0
  5  4  2  0
  5 11  1  0
  6  5  1  0
  7  9  1  0
  7  6  1  0
  7  8  1  1
  9 10  2  0
 11 12  2  0
 12  2  1  0
 14 13  1  6
 15 14  1  0
 16 14  1  0
 16 17  1  6
 17  9  1  0
 18 16  1  0
 19 18  2  0
 20 21  1  0
 21 22  2  0
 23 24  1  0
 23 21  1  0
 24 25  1  0
 27 26  1  6
 26 25  1  0
 27 28  1  0
 28 18  1  0
 29 31  1  0
 29 27  1  0
 30 29  2  0
M  END
$$$$
