PCP.pdb
     RDKit          3D

 21 22  0  0  1  0  0  0  0  0999 V2000
    8.8596  -14.9889   20.2298 N   0  0  0  0  0  0  0  0  0  0  0  0
    8.2220  -15.1413   18.9442 C   0  0  0  0  0  0  0  0  0  0  0  0
    8.0242  -13.6981   18.4672 C   0  0  0  0  0  0  0  0  0  0  0  0
    7.5641  -13.0502   19.7801 C   0  0  0  0  0  0  0  0  0  0  0  0
    8.4800  -13.7168   20.7659 C   0  0  1  0  0  0  0  0  0  0  0  0
    7.8562  -13.9012   22.1017 C   0  0  0  0  0  0  0  0  0  0  0  0
    7.3301  -12.9264   22.7169 O   0  0  0  0  0  0  0  0  0  0  0  0
    7.8194  -15.1555   22.7432 N   0  0  0  0  0  0  0  0  0  0  0  0
    7.1899  -15.3813   24.0511 C   0  0  1  0  0  0  0  0  0  0  0  0
    6.7980  -16.8752   24.0877 C   0  0  0  0  0  0  0  0  0  0  0  0
    6.2709  -17.4546   25.6878 S   0  0  0  0  0  0  0  0  0  0  0  0
    8.3034  -15.2499   25.0632 C   0  0  0  0  0  0  0  0  0  0  0  0
    9.1287  -16.1985   25.0143 O   0  0  0  0  0  0  0  0  0  0  0  0
    8.3949  -14.1804   25.9503 N   0  0  0  0  0  0  0  0  0  0  0  0
    7.7237  -12.8719   25.7730 C   0  0  0  0  0  0  0  0  0  0  0  0
    7.1937  -12.6025   27.1477 C   0  0  0  0  0  0  0  0  0  0  0  0
    7.8540  -13.6088   28.0668 C   0  0  0  0  0  0  0  0  0  0  0  0
    9.0756  -14.0156   27.1738 C   0  0  1  0  0  0  0  0  0  0  0  0
    9.8001  -15.0857   27.7980 C   0  0  0  0  0  0  0  0  0  0  0  0
    9.2088  -16.3706   27.8240 O   0  0  0  0  0  0  0  0  0  0  0  0
   10.9014  -15.0011   28.3225 O   0  0  0  0  0  0  0  0  0  0  0  0
  2  1  1  0
  3  2  1  0
  4  3  1  0
  4  5  1  0
  5  1  1  0
  6  8  1  0
  5  6  1  1
  7  6  2  0
  9  8  1  0
  9 12  1  0
  9 10  1  6
 11 10  1  0
 12 13  2  0
 14 12  1  0
 14 15  1  0
 16 15  1  0
 17 16  1  0
 18 19  1  1
 18 17  1  0
 18 14  1  0
 19 20  1  0
 21 19  2  0
M  END
$$$$
