PCP.pdb
     RDKit          3D

 21 22  0  0  1  0  0  0  0  0999 V2000
    9.1834  -15.5879   20.3763 N   0  0  0  0  0  0  0  0  0  0  0  0
   10.1280  -16.5740   19.9093 C   0  0  0  0  0  0  0  0  0  0  0  0
    9.5335  -17.9005   20.3955 C   0  0  0  0  0  0  0  0  0  0  0  0
    9.0825  -17.4842   21.8022 C   0  0  0  0  0  0  0  0  0  0  0  0
    8.5241  -16.1167   21.5320 C   0  0  1  0  0  0  0  0  0  0  0  0
    8.6951  -15.1856   22.6770 C   0  0  0  0  0  0  0  0  0  0  0  0
    9.7116  -14.4338   22.7612 O   0  0  0  0  0  0  0  0  0  0  0  0
    7.7457  -15.0936   23.7144 N   0  0  0  0  0  0  0  0  0  0  0  0
    7.9068  -14.2265   24.8891 C   0  0  1  0  0  0  0  0  0  0  0  0
    6.4792  -13.8780   25.3657 C   0  0  0  0  0  0  0  0  0  0  0  0
    6.4167  -13.0302   26.9313 S   0  0  0  0  0  0  0  0  0  0  0  0
    8.4688  -15.1157   25.9732 C   0  0  0  0  0  0  0  0  0  0  0  0
    7.9026  -16.2377   26.0335 O   0  0  0  0  0  0  0  0  0  0  0  0
    9.5096  -14.7204   26.8097 N   0  0  0  0  0  0  0  0  0  0  0  0
   10.1794  -13.4000   26.7640 C   0  0  0  0  0  0  0  0  0  0  0  0
   10.2807  -13.0493   28.2166 C   0  0  0  0  0  0  0  0  0  0  0  0
    9.9482  -14.3103   28.9865 C   0  0  0  0  0  0  0  0  0  0  0  0
   10.1852  -15.3738   27.8604 C   0  0  1  0  0  0  0  0  0  0  0  0
    9.7983  -16.6737   28.3293 C   0  0  0  0  0  0  0  0  0  0  0  0
    8.5643  -17.2062   27.8878 O   0  0  0  0  0  0  0  0  0  0  0  0
   10.4388  -17.3865   29.0887 O   0  0  0  0  0  0  0  0  0  0  0  0
  2  1  1  0
  3  2  1  0
  4  3  1  0
  4  5  1  0
  5  1  1  0
  6  8  1  0
  5  6  1  1
  7  6  2  0
  9  8  1  0
  9 12  1  0
  9 10  1  1
 11 10  1  0
 12 13  2  0
 14 12  1  0
 14 15  1  0
 16 15  1  0
 17 16  1  0
 18 19  1  1
 18 17  1  0
 18 14  1  0
 19 20  1  0
 21 19  2  0
M  END
$$$$
