PCP.pdb
     RDKit          3D

 21 22  0  0  1  0  0  0  0  0999 V2000
    7.6355  -15.3991   21.0966 N   0  0  0  0  0  0  0  0  0  0  0  0
    6.7545  -14.9323   20.0533 C   0  0  0  0  0  0  0  0  0  0  0  0
    7.6820  -14.1359   19.1285 C   0  0  0  0  0  0  0  0  0  0  0  0
    8.5256  -13.3986   20.1774 C   0  0  0  0  0  0  0  0  0  0  0  0
    8.7320  -14.4837   21.1947 C   0  0  1  0  0  0  0  0  0  0  0  0
    8.8289  -13.9639   22.5832 C   0  0  0  0  0  0  0  0  0  0  0  0
    9.7359  -13.1421   22.9109 O   0  0  0  0  0  0  0  0  0  0  0  0
    7.9268  -14.3549   23.5928 N   0  0  0  0  0  0  0  0  0  0  0  0
    7.9173  -13.7762   24.9429 C   0  0  1  0  0  0  0  0  0  0  0  0
    6.4349  -13.7117   25.3730 C   0  0  0  0  0  0  0  0  0  0  0  0
    6.1738  -13.0384   27.0016 S   0  0  0  0  0  0  0  0  0  0  0  0
    8.5327  -14.8268   25.8369 C   0  0  0  0  0  0  0  0  0  0  0  0
    8.0756  -15.9806   25.6288 O   0  0  0  0  0  0  0  0  0  0  0  0
    9.5076  -14.5328   26.7868 N   0  0  0  0  0  0  0  0  0  0  0  0
   10.1006  -13.1934   27.0067 C   0  0  0  0  0  0  0  0  0  0  0  0
   10.1119  -13.0970   28.5013 C   0  0  0  0  0  0  0  0  0  0  0  0
    9.8172  -14.4878   29.0231 C   0  0  0  0  0  0  0  0  0  0  0  0
   10.1693  -15.3255   27.7466 C   0  0  1  0  0  0  0  0  0  0  0  0
    9.8370  -16.7048   27.9625 C   0  0  0  0  0  0  0  0  0  0  0  0
    8.4727  -17.0524   28.1010 O   0  0  0  0  0  0  0  0  0  0  0  0
   10.6285  -17.6334   28.0413 O   0  0  0  0  0  0  0  0  0  0  0  0
  2  1  1  0
  3  2  1  0
  4  3  1  0
  4  5  1  0
  5  1  1  0
  6  8  1  0
  5  6  1  1
  7  6  2  0
  9  8  1  0
  9 12  1  0
  9 10  1  1
 11 10  1  0
 12 13  2  0
 14 12  1  0
 14 15  1  0
 16 15  1  0
 17 16  1  0
 18 19  1  1
 18 17  1  0
 18 14  1  0
 19 20  1  0
 21 19  2  0
M  END
$$$$
