PCP.pdb
     RDKit          3D

 21 22  0  0  1  0  0  0  0  0999 V2000
    8.4734  -15.2479   20.0985 N   0  0  0  0  0  0  0  0  0  0  0  0
    7.8323  -14.9887   18.8318 C   0  0  0  0  0  0  0  0  0  0  0  0
    8.1285  -13.5068   18.5751 C   0  0  0  0  0  0  0  0  0  0  0  0
    7.8982  -12.9467   19.9853 C   0  0  0  0  0  0  0  0  0  0  0  0
    8.5326  -14.0166   20.8266 C   0  0  1  0  0  0  0  0  0  0  0  0
    7.8716  -14.1822   22.1469 C   0  0  0  0  0  0  0  0  0  0  0  0
    6.6300  -13.9713   22.2865 O   0  0  0  0  0  0  0  0  0  0  0  0
    8.5850  -14.5776   23.2961 N   0  0  0  0  0  0  0  0  0  0  0  0
    7.9547  -14.8199   24.6006 C   0  0  1  0  0  0  0  0  0  0  0  0
    7.0299  -16.0429   24.4111 C   0  0  0  0  0  0  0  0  0  0  0  0
    6.5430  -16.8348   25.9309 S   0  0  0  0  0  0  0  0  0  0  0  0
    9.0642  -15.3113   25.5001 C   0  0  0  0  0  0  0  0  0  0  0  0
    9.4619  -16.4682   25.2056 O   0  0  0  0  0  0  0  0  0  0  0  0
    9.5851  -14.5483   26.5421 N   0  0  0  0  0  0  0  0  0  0  0  0
    9.4696  -13.0758   26.6548 C   0  0  0  0  0  0  0  0  0  0  0  0
    9.1196  -12.8985   28.1003 C   0  0  0  0  0  0  0  0  0  0  0  0
    9.3605  -14.2366   28.7672 C   0  0  0  0  0  0  0  0  0  0  0  0
   10.3064  -14.8919   27.7036 C   0  0  1  0  0  0  0  0  0  0  0  0
   10.5744  -16.2547   28.0644 C   0  0  0  0  0  0  0  0  0  0  0  0
    9.5133  -17.1879   27.9962 O   0  0  0  0  0  0  0  0  0  0  0  0
   11.6497  -16.7048   28.4335 O   0  0  0  0  0  0  0  0  0  0  0  0
  2  1  1  0
  3  2  1  0
  4  3  1  0
  4  5  1  0
  5  1  1  0
  6  8  1  0
  5  6  1  1
  7  6  2  0
  9  8  1  0
  9 12  1  0
  9 10  1  6
 11 10  1  0
 12 13  2  0
 14 12  1  0
 14 15  1  0
 16 15  1  0
 17 16  1  0
 18 19  1  1
 18 17  1  0
 18 14  1  0
 19 20  1  0
 21 19  2  0
M  END
$$$$
