PCP.pdb
     RDKit          3D

 21 22  0  0  1  0  0  0  0  0999 V2000
    8.1973  -15.1563   19.4061 N   0  0  0  0  0  0  0  0  0  0  0  0
    7.6911  -14.5548   18.1959 C   0  0  0  0  0  0  0  0  0  0  0  0
    8.1423  -13.0939   18.3039 C   0  0  0  0  0  0  0  0  0  0  0  0
    7.8469  -12.8388   19.7882 C   0  0  0  0  0  0  0  0  0  0  0  0
    8.3079  -14.1308   20.3991 C   0  0  1  0  0  0  0  0  0  0  0  0
    7.5261  -14.5125   21.6035 C   0  0  0  0  0  0  0  0  0  0  0  0
    6.2826  -14.7437   21.5286 O   0  0  0  0  0  0  0  0  0  0  0  0
    8.1225  -14.6347   22.8745 N   0  0  0  0  0  0  0  0  0  0  0  0
    7.3950  -15.0655   24.0757 C   0  0  1  0  0  0  0  0  0  0  0  0
    7.0703  -16.5616   23.8686 C   0  0  0  0  0  0  0  0  0  0  0  0
    6.6303  -17.4285   25.3615 S   0  0  0  0  0  0  0  0  0  0  0  0
    8.4111  -15.0425   25.1931 C   0  0  0  0  0  0  0  0  0  0  0  0
    9.1380  -16.0692   25.2197 O   0  0  0  0  0  0  0  0  0  0  0  0
    8.5215  -13.9841   26.0914 N   0  0  0  0  0  0  0  0  0  0  0  0
    7.9981  -12.6178   25.8605 C   0  0  0  0  0  0  0  0  0  0  0  0
    7.3705  -12.2950   27.1815 C   0  0  0  0  0  0  0  0  0  0  0  0
    7.8429  -13.3574   28.1519 C   0  0  0  0  0  0  0  0  0  0  0  0
    9.0978  -13.8820   27.3739 C   0  0  1  0  0  0  0  0  0  0  0  0
    9.6552  -15.0148   28.0563 C   0  0  0  0  0  0  0  0  0  0  0  0
    9.0440  -16.2771   27.8709 O   0  0  0  0  0  0  0  0  0  0  0  0
   10.6263  -15.0031   28.7991 O   0  0  0  0  0  0  0  0  0  0  0  0
  2  1  1  0
  3  2  1  0
  4  3  1  0
  4  5  1  0
  5  1  1  0
  6  8  1  0
  5  6  1  1
  7  6  2  0
  9  8  1  0
  9 12  1  0
  9 10  1  6
 11 10  1  0
 12 13  2  0
 14 12  1  0
 14 15  1  0
 16 15  1  0
 17 16  1  0
 18 19  1  1
 18 17  1  0
 18 14  1  0
 19 20  1  0
 21 19  2  0
M  END
$$$$
