PCP.pdb
     RDKit          3D

 21 22  0  0  1  0  0  0  0  0999 V2000
    7.7075  -16.1482   21.4193 N   0  0  0  0  0  0  0  0  0  0  0  0
    6.7656  -15.8874   20.3574 C   0  0  0  0  0  0  0  0  0  0  0  0
    7.5887  -15.1001   19.3316 C   0  0  0  0  0  0  0  0  0  0  0  0
    8.3656  -14.1733   20.2766 C   0  0  0  0  0  0  0  0  0  0  0  0
    8.7019  -15.1185   21.3938 C   0  0  1  0  0  0  0  0  0  0  0  0
    8.7649  -14.4491   22.7186 C   0  0  0  0  0  0  0  0  0  0  0  0
    9.6465  -13.5733   22.9664 O   0  0  0  0  0  0  0  0  0  0  0  0
    7.8574  -14.7517   23.7534 N   0  0  0  0  0  0  0  0  0  0  0  0
    7.8898  -14.1125   25.0756 C   0  0  1  0  0  0  0  0  0  0  0  0
    6.4276  -14.0791   25.5733 C   0  0  0  0  0  0  0  0  0  0  0  0
    6.1743  -13.0929   27.0351 S   0  0  0  0  0  0  0  0  0  0  0  0
    8.5838  -15.0995   25.9843 C   0  0  0  0  0  0  0  0  0  0  0  0
    8.1033  -16.2600   25.9105 O   0  0  0  0  0  0  0  0  0  0  0  0
    9.6476  -14.7459   26.8106 N   0  0  0  0  0  0  0  0  0  0  0  0
   10.2683  -13.4021   26.8657 C   0  0  0  0  0  0  0  0  0  0  0  0
   10.4239  -13.1887   28.3400 C   0  0  0  0  0  0  0  0  0  0  0  0
   10.1711  -14.5299   28.9965 C   0  0  0  0  0  0  0  0  0  0  0  0
   10.3931  -15.4703   27.7630 C   0  0  1  0  0  0  0  0  0  0  0  0
   10.0735  -16.8233   28.1186 C   0  0  0  0  0  0  0  0  0  0  0  0
    8.7100  -17.1922   28.1970 O   0  0  0  0  0  0  0  0  0  0  0  0
   10.8755  -17.7122   28.3671 O   0  0  0  0  0  0  0  0  0  0  0  0
  2  1  1  0
  3  2  1  0
  4  3  1  0
  4  5  1  0
  5  1  1  0
  6  8  1  0
  5  6  1  1
  7  6  2  0
  9  8  1  0
  9 12  1  0
  9 10  1  1
 11 10  1  0
 12 13  2  0
 14 12  1  0
 14 15  1  0
 16 15  1  0
 17 16  1  0
 18 19  1  1
 18 17  1  0
 18 14  1  0
 19 20  1  0
 21 19  2  0
M  END
$$$$
