PCP.pdb
     RDKit          3D

 21 22  0  0  1  0  0  0  0  0999 V2000
    7.9732  -15.1033   19.9326 N   0  0  0  0  0  0  0  0  0  0  0  0
    7.4079  -14.3557   18.8353 C   0  0  0  0  0  0  0  0  0  0  0  0
    8.0799  -12.9829   18.9510 C   0  0  0  0  0  0  0  0  0  0  0  0
    8.0215  -12.7913   20.4727 C   0  0  0  0  0  0  0  0  0  0  0  0
    8.3624  -14.1738   20.9496 C   0  0  1  0  0  0  0  0  0  0  0  0
    7.6967  -14.5241   22.2308 C   0  0  0  0  0  0  0  0  0  0  0  0
    6.4373  -14.4552   22.3525 O   0  0  0  0  0  0  0  0  0  0  0  0
    8.4249  -14.9457   23.3612 N   0  0  0  0  0  0  0  0  0  0  0  0
    7.7974  -15.3999   24.6094 C   0  0  1  0  0  0  0  0  0  0  0  0
    7.1439  -16.7632   24.2911 C   0  0  0  0  0  0  0  0  0  0  0  0
    6.5845  -17.6594   25.7255 S   0  0  0  0  0  0  0  0  0  0  0  0
    8.9410  -15.7285   25.5399 C   0  0  0  0  0  0  0  0  0  0  0  0
    9.4503  -16.8571   25.3160 O   0  0  0  0  0  0  0  0  0  0  0  0
    9.3771  -14.8589   26.5363 N   0  0  0  0  0  0  0  0  0  0  0  0
    9.1071  -13.4028   26.5688 C   0  0  0  0  0  0  0  0  0  0  0  0
    8.7382  -13.1842   28.0039 C   0  0  0  0  0  0  0  0  0  0  0  0
    9.1176  -14.4510   28.7421 C   0  0  0  0  0  0  0  0  0  0  0  0
   10.1288  -15.0604   27.7119 C   0  0  1  0  0  0  0  0  0  0  0  0
   10.5382  -16.3657   28.1455 C   0  0  0  0  0  0  0  0  0  0  0  0
    9.7029  -17.4662   27.8417 O   0  0  0  0  0  0  0  0  0  0  0  0
   11.5580  -16.6328   28.7650 O   0  0  0  0  0  0  0  0  0  0  0  0
  2  1  1  0
  3  2  1  0
  4  3  1  0
  4  5  1  0
  5  1  1  0
  6  8  1  0
  5  6  1  1
  7  6  2  0
  9  8  1  0
  9 12  1  0
  9 10  1  6
 11 10  1  0
 12 13  2  0
 14 12  1  0
 14 15  1  0
 16 15  1  0
 17 16  1  0
 18 19  1  1
 18 17  1  0
 18 14  1  0
 19 20  1  0
 21 19  2  0
M  END
$$$$
