PCP.pdb
     RDKit          3D

 21 22  0  0  1  0  0  0  0  0999 V2000
    7.4753  -14.7695   19.5621 N   0  0  0  0  0  0  0  0  0  0  0  0
    7.4029  -13.6352   18.6728 C   0  0  0  0  0  0  0  0  0  0  0  0
    8.7426  -12.9223   18.8889 C   0  0  0  0  0  0  0  0  0  0  0  0
    8.8547  -13.0350   20.4154 C   0  0  0  0  0  0  0  0  0  0  0  0
    8.3596  -14.4352   20.6373 C   0  0  1  0  0  0  0  0  0  0  0  0
    7.6562  -14.6010   21.9354 C   0  0  0  0  0  0  0  0  0  0  0  0
    6.5751  -13.9852   22.1756 O   0  0  0  0  0  0  0  0  0  0  0  0
    8.1511  -15.4419   22.9522 N   0  0  0  0  0  0  0  0  0  0  0  0
    7.5501  -15.5415   24.2889 C   0  0  1  0  0  0  0  0  0  0  0  0
    7.0241  -16.9884   24.4174 C   0  0  0  0  0  0  0  0  0  0  0  0
    6.6562  -17.4877   26.0875 S   0  0  0  0  0  0  0  0  0  0  0  0
    8.7061  -15.4640   25.2580 C   0  0  0  0  0  0  0  0  0  0  0  0
    9.4913  -16.4431   25.1684 O   0  0  0  0  0  0  0  0  0  0  0  0
    8.8733  -14.4083   26.1507 N   0  0  0  0  0  0  0  0  0  0  0  0
    8.3401  -13.0402   25.9555 C   0  0  0  0  0  0  0  0  0  0  0  0
    7.7946  -12.7195   27.3130 C   0  0  0  0  0  0  0  0  0  0  0  0
    8.3225  -13.7856   28.2502 C   0  0  0  0  0  0  0  0  0  0  0  0
    9.5266  -14.3109   27.3962 C   0  0  1  0  0  0  0  0  0  0  0  0
   10.1217  -15.4467   28.0405 C   0  0  0  0  0  0  0  0  0  0  0  0
    9.3211  -16.5938   28.2518 O   0  0  0  0  0  0  0  0  0  0  0  0
   11.2758  -15.5290   28.4357 O   0  0  0  0  0  0  0  0  0  0  0  0
  2  1  1  0
  3  2  1  0
  4  3  1  0
  4  5  1  0
  5  1  1  0
  6  8  1  0
  5  6  1  1
  7  6  2  0
  9  8  1  0
  9 12  1  0
  9 10  1  6
 11 10  1  0
 12 13  2  0
 14 12  1  0
 14 15  1  0
 16 15  1  0
 17 16  1  0
 18 19  1  1
 18 17  1  0
 18 14  1  0
 19 20  1  0
 21 19  2  0
M  END
$$$$
