PCP.pdb
     RDKit          3D

 21 22  0  0  1  0  0  0  0  0999 V2000
    9.0573  -15.5650   20.3475 N   0  0  0  0  0  0  0  0  0  0  0  0
   10.0598  -16.4543   19.8117 C   0  0  0  0  0  0  0  0  0  0  0  0
    9.6215  -17.8348   20.3134 C   0  0  0  0  0  0  0  0  0  0  0  0
    9.2191  -17.4745   21.7500 C   0  0  0  0  0  0  0  0  0  0  0  0
    8.5207  -16.1631   21.5325 C   0  0  1  0  0  0  0  0  0  0  0  0
    8.6728  -15.2298   22.6785 C   0  0  0  0  0  0  0  0  0  0  0  0
    9.6449  -14.4191   22.7358 O   0  0  0  0  0  0  0  0  0  0  0  0
    7.7536  -15.2005   23.7462 N   0  0  0  0  0  0  0  0  0  0  0  0
    7.8803  -14.3046   24.9035 C   0  0  1  0  0  0  0  0  0  0  0  0
    6.4431  -14.0501   25.4100 C   0  0  0  0  0  0  0  0  0  0  0  0
    6.3575  -13.1812   26.9629 S   0  0  0  0  0  0  0  0  0  0  0  0
    8.5297  -15.1334   25.9865 C   0  0  0  0  0  0  0  0  0  0  0  0
    8.0413  -16.2890   26.0828 O   0  0  0  0  0  0  0  0  0  0  0  0
    9.5646  -14.6540   26.7857 N   0  0  0  0  0  0  0  0  0  0  0  0
   10.1653  -13.3045   26.6759 C   0  0  0  0  0  0  0  0  0  0  0  0
   10.2757  -12.8926   28.1117 C   0  0  0  0  0  0  0  0  0  0  0  0
   10.0222  -14.1377   28.9358 C   0  0  0  0  0  0  0  0  0  0  0  0
   10.2921  -15.2311   27.8464 C   0  0  1  0  0  0  0  0  0  0  0  0
    9.9806  -16.5296   28.3723 C   0  0  0  0  0  0  0  0  0  0  0  0
    8.6775  -16.7550   28.8746 O   0  0  0  0  0  0  0  0  0  0  0  0
   10.7419  -17.4844   28.4332 O   0  0  0  0  0  0  0  0  0  0  0  0
  2  1  1  0
  3  2  1  0
  4  3  1  0
  4  5  1  0
  5  1  1  0
  6  8  1  0
  5  6  1  1
  7  6  2  0
  9  8  1  0
  9 12  1  0
  9 10  1  1
 11 10  1  0
 12 13  2  0
 14 12  1  0
 14 15  1  0
 16 15  1  0
 17 16  1  0
 18 19  1  1
 18 17  1  0
 18 14  1  0
 19 20  1  0
 21 19  2  0
M  END
$$$$
