PCP.pdb
     RDKit          3D

 21 22  0  0  1  0  0  0  0  0999 V2000
    9.9296  -15.9565   20.7733 N   0  0  0  0  0  0  0  0  0  0  0  0
   10.4984  -17.1429   20.1802 C   0  0  0  0  0  0  0  0  0  0  0  0
    9.7065  -17.3094   18.8783 C   0  0  0  0  0  0  0  0  0  0  0  0
    8.2963  -16.9810   19.3870 C   0  0  0  0  0  0  0  0  0  0  0  0
    8.5831  -15.8272   20.3043 C   0  0  1  0  0  0  0  0  0  0  0  0
    7.6529  -15.7628   21.4610 C   0  0  0  0  0  0  0  0  0  0  0  0
    6.4345  -16.0882   21.3380 O   0  0  0  0  0  0  0  0  0  0  0  0
    8.0752  -15.3414   22.7377 N   0  0  0  0  0  0  0  0  0  0  0  0
    7.1926  -15.2936   23.9110 C   0  0  1  0  0  0  0  0  0  0  0  0
    6.8326  -16.7599   24.2386 C   0  0  0  0  0  0  0  0  0  0  0  0
    6.1905  -17.0062   25.8820 S   0  0  0  0  0  0  0  0  0  0  0  0
    8.0687  -14.8464   25.0573 C   0  0  0  0  0  0  0  0  0  0  0  0
    8.9692  -15.6774   25.3431 O   0  0  0  0  0  0  0  0  0  0  0  0
    7.8873  -13.6337   25.7175 N   0  0  0  0  0  0  0  0  0  0  0  0
    7.1788  -12.4603   25.1561 C   0  0  0  0  0  0  0  0  0  0  0  0
    6.3435  -12.0136   26.3163 C   0  0  0  0  0  0  0  0  0  0  0  0
    6.8577  -12.7620   27.5283 C   0  0  0  0  0  0  0  0  0  0  0  0
    8.2707  -13.1809   26.9963 C   0  0  1  0  0  0  0  0  0  0  0  0
    8.9163  -14.0364   27.9507 C   0  0  0  0  0  0  0  0  0  0  0  0
    9.8892  -13.4711   28.8081 O   0  0  0  0  0  0  0  0  0  0  0  0
    8.7086  -15.2316   28.1041 O   0  0  0  0  0  0  0  0  0  0  0  0
  2  1  1  0
  3  2  1  0
  4  3  1  0
  4  5  1  0
  5  1  1  0
  6  8  1  0
  5  6  1  1
  7  6  2  0
  9  8  1  0
  9 12  1  0
  9 10  1  1
 11 10  1  0
 12 13  2  0
 14 12  1  0
 14 15  1  0
 16 15  1  0
 17 16  1  0
 18 19  1  1
 18 17  1  0
 18 14  1  0
 19 20  1  0
 21 19  2  0
M  END
$$$$
