PCP.pdb
     RDKit          3D

 21 22  0  0  1  0  0  0  0  0999 V2000
    9.2206  -15.4945   20.5530 N   0  0  0  0  0  0  0  0  0  0  0  0
    9.9763  -16.6358   20.0959 C   0  0  0  0  0  0  0  0  0  0  0  0
    9.0859  -17.8280   20.4639 C   0  0  0  0  0  0  0  0  0  0  0  0
    8.6210  -17.3857   21.8581 C   0  0  0  0  0  0  0  0  0  0  0  0
    8.3781  -15.9217   21.6290 C   0  0  1  0  0  0  0  0  0  0  0  0
    8.6461  -15.0955   22.8344 C   0  0  0  0  0  0  0  0  0  0  0  0
    9.7648  -14.5236   22.9985 O   0  0  0  0  0  0  0  0  0  0  0  0
    7.6801  -14.9092   23.8433 N   0  0  0  0  0  0  0  0  0  0  0  0
    7.9026  -14.0864   25.0397 C   0  0  1  0  0  0  0  0  0  0  0  0
    6.5011  -13.7256   25.5805 C   0  0  0  0  0  0  0  0  0  0  0  0
    6.5056  -13.0358   27.2230 S   0  0  0  0  0  0  0  0  0  0  0  0
    8.4845  -15.0234   26.0717 C   0  0  0  0  0  0  0  0  0  0  0  0
    7.9208  -16.1482   26.0900 O   0  0  0  0  0  0  0  0  0  0  0  0
    9.5394  -14.6650   26.9072 N   0  0  0  0  0  0  0  0  0  0  0  0
   10.2244  -13.3517   26.8923 C   0  0  0  0  0  0  0  0  0  0  0  0
   10.3463  -13.0450   28.3532 C   0  0  0  0  0  0  0  0  0  0  0  0
   10.0074  -14.3241   29.0898 C   0  0  0  0  0  0  0  0  0  0  0  0
   10.2190  -15.3568   27.9305 C   0  0  1  0  0  0  0  0  0  0  0  0
    9.8218  -16.6654   28.3656 C   0  0  0  0  0  0  0  0  0  0  0  0
   10.7222  -17.7390   28.1711 O   0  0  0  0  0  0  0  0  0  0  0  0
    8.7611  -16.9566   28.8996 O   0  0  0  0  0  0  0  0  0  0  0  0
  2  1  1  0
  3  2  1  0
  4  3  1  0
  4  5  1  0
  5  1  1  0
  6  8  1  0
  5  6  1  1
  7  6  2  0
  9  8  1  0
  9 12  1  0
  9 10  1  1
 11 10  1  0
 12 13  2  0
 14 12  1  0
 14 15  1  0
 16 15  1  0
 17 16  1  0
 18 19  1  1
 18 17  1  0
 18 14  1  0
 19 20  1  0
 21 19  2  0
M  END
$$$$
