PCP.pdb
     RDKit          3D

 21 22  0  0  1  0  0  0  0  0999 V2000
    7.6141  -15.8301   21.2957 N   0  0  0  0  0  0  0  0  0  0  0  0
    6.6583  -15.4533   20.2823 C   0  0  0  0  0  0  0  0  0  0  0  0
    7.4986  -14.6675   19.2694 C   0  0  0  0  0  0  0  0  0  0  0  0
    8.3648  -13.8441   20.2321 C   0  0  0  0  0  0  0  0  0  0  0  0
    8.6733  -14.8668   21.2875 C   0  0  1  0  0  0  0  0  0  0  0  0
    8.8226  -14.2738   22.6415 C   0  0  0  0  0  0  0  0  0  0  0  0
    9.8359  -13.5738   22.9397 O   0  0  0  0  0  0  0  0  0  0  0  0
    7.8555  -14.4585   23.6497 N   0  0  0  0  0  0  0  0  0  0  0  0
    7.9446  -13.8485   24.9831 C   0  0  1  0  0  0  0  0  0  0  0  0
    6.4897  -13.6337   25.4560 C   0  0  0  0  0  0  0  0  0  0  0  0
    6.3465  -12.8751   27.0616 S   0  0  0  0  0  0  0  0  0  0  0  0
    8.4879  -14.9304   25.8864 C   0  0  0  0  0  0  0  0  0  0  0  0
    7.9621  -16.0549   25.6805 O   0  0  0  0  0  0  0  0  0  0  0  0
    9.4725  -14.6920   26.8419 N   0  0  0  0  0  0  0  0  0  0  0  0
   10.1134  -13.3798   27.0901 C   0  0  0  0  0  0  0  0  0  0  0  0
   10.1276  -13.3158   28.5864 C   0  0  0  0  0  0  0  0  0  0  0  0
    9.7828  -14.7059   29.0786 C   0  0  0  0  0  0  0  0  0  0  0  0
   10.1049  -15.5283   27.7843 C   0  0  1  0  0  0  0  0  0  0  0  0
    9.7230  -16.8990   27.9709 C   0  0  0  0  0  0  0  0  0  0  0  0
   10.7039  -17.8132   28.4220 O   0  0  0  0  0  0  0  0  0  0  0  0
    8.6120  -17.3710   27.7761 O   0  0  0  0  0  0  0  0  0  0  0  0
  2  1  1  0
  3  2  1  0
  4  3  1  0
  4  5  1  0
  5  1  1  0
  6  8  1  0
  5  6  1  1
  7  6  2  0
  9  8  1  0
  9 12  1  0
  9 10  1  1
 11 10  1  0
 12 13  2  0
 14 12  1  0
 14 15  1  0
 16 15  1  0
 17 16  1  0
 18 19  1  1
 18 17  1  0
 18 14  1  0
 19 20  1  0
 21 19  2  0
M  END
$$$$
