HIM.pdb
     RDKit          3D

 27 27  0  0  1  0  0  0  0  0999 V2000
    8.8659  -19.6313   19.0354 N   0  0  0  0  0  0  0  0  0  0  0  0
    8.3034  -19.2312   20.2974 C   0  0  1  0  0  0  0  0  0  0  0  0
    8.6477  -20.3164   21.2980 C   0  0  0  0  0  0  0  0  0  0  0  0
    7.9906  -21.5581   20.8155 C   0  0  0  0  0  0  0  0  0  0  0  0
    7.1553  -21.7385   19.7337 C   0  0  0  0  0  0  0  0  0  0  0  0
    6.7722  -23.0261   19.6454 N   0  0  0  0  0  0  0  0  0  0  0  0
    7.3662  -23.6688   20.6757 C   0  0  0  0  0  0  0  0  0  0  0  0
    8.1047  -22.7852   21.3871 N   0  0  0  0  0  0  0  0  0  0  0  0
    8.8672  -17.8948   20.7543 C   0  0  0  0  0  0  0  0  0  0  0  0
   10.0872  -17.8329   21.0678 O   0  0  0  0  0  0  0  0  0  0  0  0
    7.7651  -11.9040   19.8242 C   0  0  0  0  0  0  0  0  0  0  0  0
    8.3628  -12.9567   20.7572 C   0  0  0  0  0  0  0  0  0  0  0  0
    7.8072  -14.3246   20.4388 C   0  0  2  0  0  0  0  0  0  0  0  0
    6.3017  -14.2078   20.4005 C   0  0  0  0  0  0  0  0  0  0  0  0
    8.3199  -15.4436   21.2485 C   0  0  2  0  0  0  0  0  0  0  0  0
    8.0226  -16.7747   20.8152 N   0  0  0  0  0  0  0  0  0  0  0  0
    8.1144  -15.2321   22.6813 C   0  0  0  0  0  0  0  0  0  0  0  0
    6.9271  -15.3581   23.1383 O   0  0  0  0  0  0  0  0  0  0  0  0
    7.8698  -12.2249   28.3870 C   0  0  0  0  0  0  0  0  0  0  0  0
    6.8782  -12.7037   27.0083 S   0  0  0  0  0  0  0  0  0  0  0  0
    6.8719  -14.4279   26.5540 C   0  0  0  0  0  0  0  0  0  0  0  0
    7.3116  -14.7150   25.1539 C   0  0  0  0  0  0  0  0  0  0  0  0
    8.7899  -14.6569   24.9998 C   0  0  2  0  0  0  0  0  0  0  0  0
    9.1512  -14.8995   23.5812 N   0  0  0  0  0  0  0  0  0  0  0  0
    9.4851  -15.6978   25.8122 C   0  0  0  0  0  0  0  0  0  0  0  0
    9.6951  -16.9560   25.3663 O   0  0  0  0  0  0  0  0  0  0  0  0
    9.9026  -15.3869   26.9859 O   0  0  0  0  0  0  0  0  0  0  0  0
  2  1  1  6
  3  2  1  0
  4  8  1  0
  4  3  1  0
  5  4  2  0
  6  5  1  0
  6  7  1  0
  7  8  2  0
  9 10  2  0
  9  2  1  0
 12 11  1  0
 13 12  1  0
 13 14  1  1
 15 13  1  0
 15 16  1  6
 16  9  1  0
 17 15  1  0
 18 17  2  0
 20 21  1  0
 20 19  1  0
 22 21  1  0
 23 22  1  6
 23 24  1  0
 24 17  1  0
 25 26  1  0
 25 23  1  0
 27 25  2  0
M  END
$$$$
