HIM.pdb
     RDKit          3D

 27 27  0  0  1  0  0  0  0  0999 V2000
    8.2128  -17.6217   21.2676 N   0  0  0  0  0  0  0  0  0  0  0  0
    9.4259  -16.8619   21.1248 C   0  0  1  0  0  0  0  0  0  0  0  0
    9.2857  -16.0405   19.8587 C   0  0  0  0  0  0  0  0  0  0  0  0
    9.3306  -17.0008   18.7263 C   0  0  0  0  0  0  0  0  0  0  0  0
   10.4165  -17.4444   18.0022 C   0  0  0  0  0  0  0  0  0  0  0  0
   10.0245  -18.3153   17.0533 N   0  0  0  0  0  0  0  0  0  0  0  0
    8.6826  -18.4269   17.1736 C   0  0  0  0  0  0  0  0  0  0  0  0
    8.2574  -17.6335   18.1845 N   0  0  0  0  0  0  0  0  0  0  0  0
    9.6513  -15.9514   22.3217 C   0  0  0  0  0  0  0  0  0  0  0  0
   10.6196  -15.1442   22.2886 O   0  0  0  0  0  0  0  0  0  0  0  0
    5.8526  -13.0786   24.8110 C   0  0  0  0  0  0  0  0  0  0  0  0
    7.1105  -13.7068   24.2119 C   0  0  0  0  0  0  0  0  0  0  0  0
    7.7698  -14.6292   25.2098 C   0  0  2  0  0  0  0  0  0  0  0  0
    8.0573  -13.8237   26.4548 C   0  0  0  0  0  0  0  0  0  0  0  0
    8.9052  -15.4259   24.7133 C   0  0  2  0  0  0  0  0  0  0  0  0
    8.7838  -16.0326   23.4229 N   0  0  0  0  0  0  0  0  0  0  0  0
    9.4440  -16.3222   25.7360 C   0  0  0  0  0  0  0  0  0  0  0  0
    8.6612  -17.2060   26.2266 O   0  0  0  0  0  0  0  0  0  0  0  0
   10.1353  -12.7545   28.6786 C   0  0  0  0  0  0  0  0  0  0  0  0
   10.6853  -14.0627   29.7273 S   0  0  0  0  0  0  0  0  0  0  0  0
   11.5902  -15.4012   28.9732 C   0  0  0  0  0  0  0  0  0  0  0  0
   10.7675  -16.5963   28.6110 C   0  0  0  0  0  0  0  0  0  0  0  0
   11.1649  -17.1842   27.3039 C   0  0  2  0  0  0  0  0  0  0  0  0
   10.7747  -16.2648   26.2066 N   0  0  0  0  0  0  0  0  0  0  0  0
   10.4904  -18.4892   27.0415 C   0  0  0  0  0  0  0  0  0  0  0  0
   10.7259  -19.5970   27.7786 O   0  0  0  0  0  0  0  0  0  0  0  0
    9.6496  -18.5652   26.0741 O   0  0  0  0  0  0  0  0  0  0  0  0
  2  1  1  1
  3  2  1  0
  4  8  1  0
  4  3  1  0
  5  4  2  0
  6  5  1  0
  6  7  1  0
  7  8  2  0
  9 10  2  0
  9  2  1  0
 12 11  1  0
 13 12  1  0
 13 14  1  1
 15 13  1  0
 15 16  1  6
 16  9  1  0
 17 15  1  0
 18 17  2  0
 20 21  1  0
 20 19  1  0
 22 21  1  0
 23 22  1  1
 23 24  1  0
 24 17  1  0
 25 26  1  0
 25 23  1  0
 27 25  2  0
M  END
$$$$
