HIM.pdb
     RDKit          3D

 27 27  0  0  1  0  0  0  0  0999 V2000
    9.9403  -17.7997   17.9326 N   0  0  0  0  0  0  0  0  0  0  0  0
    9.9780  -18.1647   19.3235 C   0  0  1  0  0  0  0  0  0  0  0  0
   11.1745  -19.0767   19.5081 C   0  0  0  0  0  0  0  0  0  0  0  0
   10.9190  -20.2804   18.6760 C   0  0  0  0  0  0  0  0  0  0  0  0
    9.7269  -20.7542   18.1713 C   0  0  0  0  0  0  0  0  0  0  0  0
    9.9306  -21.8827   17.4660 N   0  0  0  0  0  0  0  0  0  0  0  0
   11.2588  -22.1288   17.5218 C   0  0  0  0  0  0  0  0  0  0  0  0
   11.8617  -21.1623   18.2528 N   0  0  0  0  0  0  0  0  0  0  0  0
   10.1080  -16.9380   20.2128 C   0  0  0  0  0  0  0  0  0  0  0  0
   11.2631  -16.5027   20.4711 O   0  0  0  0  0  0  0  0  0  0  0  0
    7.9727  -12.8116   19.6518 C   0  0  0  0  0  0  0  0  0  0  0  0
    7.1085  -13.9664   20.1571 C   0  0  0  0  0  0  0  0  0  0  0  0
    7.5713  -14.4177   21.5221 C   0  0  2  0  0  0  0  0  0  0  0  0
    7.5240  -13.2185   22.4394 C   0  0  0  0  0  0  0  0  0  0  0  0
    8.8310  -15.1804   21.5666 C   0  0  2  0  0  0  0  0  0  0  0  0
    8.9492  -16.3276   20.7192 N   0  0  0  0  0  0  0  0  0  0  0  0
    9.2928  -15.4105   22.9354 C   0  0  0  0  0  0  0  0  0  0  0  0
   10.4786  -15.0381   23.2351 O   0  0  0  0  0  0  0  0  0  0  0  0
    5.3230  -12.1631   27.3266 C   0  0  0  0  0  0  0  0  0  0  0  0
    6.9814  -12.7289   27.1190 S   0  0  0  0  0  0  0  0  0  0  0  0
    7.2744  -14.0017   25.9052 C   0  0  0  0  0  0  0  0  0  0  0  0
    8.7109  -14.3656   25.7041 C   0  0  0  0  0  0  0  0  0  0  0  0
    8.8895  -15.8000   25.3537 C   0  0  2  0  0  0  0  0  0  0  0  0
    8.5033  -16.0171   23.9376 N   0  0  0  0  0  0  0  0  0  0  0  0
    8.0320  -16.6965   26.1830 C   0  0  0  0  0  0  0  0  0  0  0  0
    8.3397  -17.0337   27.4550 O   0  0  0  0  0  0  0  0  0  0  0  0
    6.9550  -17.1692   25.6681 O   0  0  0  0  0  0  0  0  0  0  0  0
  2  1  1  6
  3  2  1  0
  4  8  1  0
  4  3  1  0
  5  4  2  0
  6  5  1  0
  6  7  1  0
  7  8  2  0
  9 10  2  0
  9  2  1  0
 12 11  1  0
 13 12  1  0
 13 14  1  1
 15 13  1  0
 15 16  1  1
 16  9  1  0
 17 15  1  0
 18 17  2  0
 20 21  1  0
 20 19  1  0
 22 21  1  0
 23 22  1  1
 23 24  1  0
 24 17  1  0
 25 26  1  0
 25 23  1  0
 27 25  2  0
M  END
$$$$
