HIM.pdb
     RDKit          3D

 27 27  0  0  1  0  0  0  0  0999 V2000
   10.2584  -18.0689   19.1271 N   0  0  0  0  0  0  0  0  0  0  0  0
   11.2778  -17.8908   20.1262 C   0  0  1  0  0  0  0  0  0  0  0  0
   12.5851  -17.6768   19.3896 C   0  0  0  0  0  0  0  0  0  0  0  0
   12.7410  -18.8286   18.4647 C   0  0  0  0  0  0  0  0  0  0  0  0
   12.8608  -20.1707   18.7563 C   0  0  0  0  0  0  0  0  0  0  0  0
   12.9853  -20.8882   17.6240 N   0  0  0  0  0  0  0  0  0  0  0  0
   12.9446  -19.9991   16.6065 C   0  0  0  0  0  0  0  0  0  0  0  0
   12.7968  -18.7512   17.1096 N   0  0  0  0  0  0  0  0  0  0  0  0
   10.9739  -16.6974   21.0184 C   0  0  0  0  0  0  0  0  0  0  0  0
   11.8328  -15.7781   21.1055 O   0  0  0  0  0  0  0  0  0  0  0  0
    6.6350  -13.9824   20.5790 C   0  0  0  0  0  0  0  0  0  0  0  0
    8.0463  -14.0937   21.1551 C   0  0  0  0  0  0  0  0  0  0  0  0
    8.0494  -14.9687   22.3862 C   0  0  2  0  0  0  0  0  0  0  0  0
    7.5150  -14.1439   23.5333 C   0  0  0  0  0  0  0  0  0  0  0  0
    9.3021  -15.6888   22.6737 C   0  0  2  0  0  0  0  0  0  0  0  0
    9.7563  -16.6505   21.7162 N   0  0  0  0  0  0  0  0  0  0  0  0
    9.3664  -16.1607   24.0568 C   0  0  0  0  0  0  0  0  0  0  0  0
    8.5106  -17.0345   24.4291 O   0  0  0  0  0  0  0  0  0  0  0  0
   10.2538  -13.4323   29.7852 C   0  0  0  0  0  0  0  0  0  0  0  0
    9.5231  -12.9175   28.2639 S   0  0  0  0  0  0  0  0  0  0  0  0
    9.5443  -14.0715   26.9048 C   0  0  0  0  0  0  0  0  0  0  0  0
    9.5763  -15.5135   27.2996 C   0  0  0  0  0  0  0  0  0  0  0  0
   10.3376  -16.3499   26.3336 C   0  0  2  0  0  0  0  0  0  0  0  0
   10.3182  -15.7065   24.9967 N   0  0  0  0  0  0  0  0  0  0  0  0
    9.7454  -17.7101   26.1728 C   0  0  0  0  0  0  0  0  0  0  0  0
    9.8143  -18.6575   27.1340 O   0  0  0  0  0  0  0  0  0  0  0  0
    9.1441  -17.9950   25.0748 O   0  0  0  0  0  0  0  0  0  0  0  0
  2  1  1  6
  3  2  1  0
  4  8  1  0
  4  3  1  0
  5  4  2  0
  6  5  1  0
  6  7  1  0
  7  8  2  0
  9 10  2  0
  9  2  1  0
 12 11  1  0
 13 12  1  0
 13 14  1  1
 15 13  1  0
 15 16  1  6
 16  9  1  0
 17 15  1  0
 18 17  2  0
 20 21  1  0
 20 19  1  0
 22 21  1  0
 23 22  1  1
 23 24  1  0
 24 17  1  0
 25 26  1  0
 25 23  1  0
 27 25  2  0
M  END
$$$$
