HIM.pdb
     RDKit          3D

 27 27  0  0  1  0  0  0  0  0999 V2000
   12.4479  -16.9850   18.9628 N   0  0  0  0  0  0  0  0  0  0  0  0
   11.2607  -17.4940   19.5957 C   0  0  1  0  0  0  0  0  0  0  0  0
   11.6135  -18.8524   20.1680 C   0  0  0  0  0  0  0  0  0  0  0  0
   11.7605  -19.7719   19.0106 C   0  0  0  0  0  0  0  0  0  0  0  0
   10.7959  -20.2519   18.1507 C   0  0  0  0  0  0  0  0  0  0  0  0
   11.3484  -21.0668   17.2325 N   0  0  0  0  0  0  0  0  0  0  0  0
   12.6712  -21.1060   17.5089 C   0  0  0  0  0  0  0  0  0  0  0  0
   12.9261  -20.3241   18.5840 N   0  0  0  0  0  0  0  0  0  0  0  0
   10.7821  -16.5647   20.7002 C   0  0  0  0  0  0  0  0  0  0  0  0
   11.6453  -15.9825   21.4117 O   0  0  0  0  0  0  0  0  0  0  0  0
    8.4510  -12.9261   20.3694 C   0  0  0  0  0  0  0  0  0  0  0  0
    7.4982  -14.1114   20.2176 C   0  0  0  0  0  0  0  0  0  0  0  0
    7.4675  -14.9331   21.4845 C   0  0  2  0  0  0  0  0  0  0  0  0
    6.8294  -14.0876   22.5613 C   0  0  0  0  0  0  0  0  0  0  0  0
    8.7321  -15.5803   21.8752 C   0  0  2  0  0  0  0  0  0  0  0  0
    9.4041  -16.3811   20.8979 N   0  0  0  0  0  0  0  0  0  0  0  0
    8.6504  -16.2078   23.1941 C   0  0  0  0  0  0  0  0  0  0  0  0
    8.3897  -17.4584   23.2442 O   0  0  0  0  0  0  0  0  0  0  0  0
    9.0469  -12.8735   28.9315 C   0  0  0  0  0  0  0  0  0  0  0  0
   10.4763  -13.4342   28.0620 S   0  0  0  0  0  0  0  0  0  0  0  0
   10.3240  -14.9251   27.0961 C   0  0  0  0  0  0  0  0  0  0  0  0
    8.9200  -15.3653   26.8289 C   0  0  0  0  0  0  0  0  0  0  0  0
    8.8264  -16.2914   25.6689 C   0  0  2  0  0  0  0  0  0  0  0  0
    8.8442  -15.5106   24.4073 N   0  0  0  0  0  0  0  0  0  0  0  0
    7.5606  -17.0818   25.6761 C   0  0  0  0  0  0  0  0  0  0  0  0
    7.4564  -18.2929   26.2663 O   0  0  0  0  0  0  0  0  0  0  0  0
    6.5246  -16.5921   25.0970 O   0  0  0  0  0  0  0  0  0  0  0  0
  2  1  1  1
  3  2  1  0
  4  8  1  0
  4  3  1  0
  5  4  2  0
  6  5  1  0
  6  7  1  0
  7  8  2  0
  9 10  2  0
  9  2  1  0
 12 11  1  0
 13 12  1  0
 13 14  1  1
 15 13  1  0
 15 16  1  6
 16  9  1  0
 17 15  1  0
 18 17  2  0
 20 21  1  0
 20 19  1  0
 22 21  1  0
 23 22  1  1
 23 24  1  0
 24 17  1  0
 25 26  1  0
 25 23  1  0
 27 25  2  0
M  END
$$$$
