HIM.pdb
     RDKit          3D

 27 27  0  0  1  0  0  0  0  0999 V2000
    7.9680  -17.1834   18.9069 N   0  0  0  0  0  0  0  0  0  0  0  0
    7.6040  -15.9751   19.5973 C   0  0  1  0  0  0  0  0  0  0  0  0
    6.5335  -15.2970   18.7656 C   0  0  0  0  0  0  0  0  0  0  0  0
    7.2148  -14.7566   17.5614 C   0  0  0  0  0  0  0  0  0  0  0  0
    8.5455  -14.8260   17.2079 C   0  0  0  0  0  0  0  0  0  0  0  0
    8.7525  -14.2033   16.0324 N   0  0  0  0  0  0  0  0  0  0  0  0
    7.5481  -13.7349   15.6354 C   0  0  0  0  0  0  0  0  0  0  0  0
    6.6140  -14.0669   16.5570 N   0  0  0  0  0  0  0  0  0  0  0  0
    7.0776  -16.2735   20.9924 C   0  0  0  0  0  0  0  0  0  0  0  0
    5.8729  -16.6246   21.1177 O   0  0  0  0  0  0  0  0  0  0  0  0
    6.5337  -19.9885   24.9365 C   0  0  0  0  0  0  0  0  0  0  0  0
    6.9816  -18.5273   24.9490 C   0  0  0  0  0  0  0  0  0  0  0  0
    7.3748  -18.0809   23.5607 C   0  0  2  0  0  0  0  0  0  0  0  0
    8.3606  -19.0893   23.0194 C   0  0  0  0  0  0  0  0  0  0  0  0
    7.7887  -16.6742   23.4185 C   0  0  2  0  0  0  0  0  0  0  0  0
    7.9385  -16.1510   22.0950 N   0  0  0  0  0  0  0  0  0  0  0  0
    8.8897  -16.3259   24.3165 C   0  0  0  0  0  0  0  0  0  0  0  0
    9.9000  -15.7235   23.8154 O   0  0  0  0  0  0  0  0  0  0  0  0
    7.0721  -10.5765   26.9977 C   0  0  0  0  0  0  0  0  0  0  0  0
    6.6195  -12.2466   27.3436 S   0  0  0  0  0  0  0  0  0  0  0  0
    7.9322  -13.4430   27.5001 C   0  0  0  0  0  0  0  0  0  0  0  0
    7.9054  -14.5472   26.4920 C   0  0  0  0  0  0  0  0  0  0  0  0
    9.0493  -15.4852   26.6468 C   0  0  2  0  0  0  0  0  0  0  0  0
    8.8957  -16.6164   25.6989 N   0  0  0  0  0  0  0  0  0  0  0  0
    9.1204  -16.0701   28.0177 C   0  0  0  0  0  0  0  0  0  0  0  0
    8.7280  -17.3327   28.2970 O   0  0  0  0  0  0  0  0  0  0  0  0
    9.5736  -15.3444   28.9751 O   0  0  0  0  0  0  0  0  0  0  0  0
  2  1  1  6
  3  2  1  0
  4  8  1  0
  4  3  1  0
  5  4  2  0
  6  5  1  0
  6  7  1  0
  7  8  2  0
  9 10  2  0
  9  2  1  0
 12 11  1  0
 13 12  1  0
 13 14  1  1
 15 13  1  0
 15 16  1  6
 16  9  1  0
 17 15  1  0
 18 17  2  0
 20 21  1  0
 20 19  1  0
 22 21  1  0
 23 22  1  1
 23 24  1  0
 24 17  1  0
 25 26  1  0
 25 23  1  0
 27 25  2  0
M  END
$$$$
