HIM.pdb
     RDKit          3D

 27 27  0  0  1  0  0  0  0  0999 V2000
    9.9252  -16.4313   19.2907 N   0  0  0  0  0  0  0  0  0  0  0  0
    8.9437  -16.5338   20.3373 C   0  0  1  0  0  0  0  0  0  0  0  0
    8.6925  -18.0113   20.5636 C   0  0  0  0  0  0  0  0  0  0  0  0
    8.1619  -18.5491   19.2846 C   0  0  0  0  0  0  0  0  0  0  0  0
    8.5769  -18.2974   17.9942 C   0  0  0  0  0  0  0  0  0  0  0  0
    7.8253  -18.9874   17.1159 N   0  0  0  0  0  0  0  0  0  0  0  0
    6.9274  -19.6818   17.8502 C   0  0  0  0  0  0  0  0  0  0  0  0
    7.1266  -19.4203   19.1633 N   0  0  0  0  0  0  0  0  0  0  0  0
    9.4337  -15.8799   21.6199 C   0  0  0  0  0  0  0  0  0  0  0  0
   10.6702  -15.6706   21.7531 O   0  0  0  0  0  0  0  0  0  0  0  0
    6.8264  -12.5384   26.2311 C   0  0  0  0  0  0  0  0  0  0  0  0
    8.0460  -13.2902   25.6988 C   0  0  0  0  0  0  0  0  0  0  0  0
    7.7012  -14.0273   24.4264 C   0  0  2  0  0  0  0  0  0  0  0  0
    6.3453  -14.6641   24.6212 C   0  0  0  0  0  0  0  0  0  0  0  0
    8.7363  -14.9291   23.8918 C   0  0  2  0  0  0  0  0  0  0  0  0
    8.5055  -15.5298   22.6136 N   0  0  0  0  0  0  0  0  0  0  0  0
    9.2321  -15.8653   24.9005 C   0  0  0  0  0  0  0  0  0  0  0  0
    8.3835  -16.6353   25.4675 O   0  0  0  0  0  0  0  0  0  0  0  0
   10.3588  -12.9451   29.8363 C   0  0  0  0  0  0  0  0  0  0  0  0
    9.9199  -14.6071   30.2344 S   0  0  0  0  0  0  0  0  0  0  0  0
   10.3093  -15.8731   29.0407 C   0  0  0  0  0  0  0  0  0  0  0  0
   10.1391  -15.4687   27.6112 C   0  0  0  0  0  0  0  0  0  0  0  0
   10.8960  -16.3464   26.6789 C   0  0  2  0  0  0  0  0  0  0  0  0
   10.5897  -15.9643   25.2782 N   0  0  0  0  0  0  0  0  0  0  0  0
   10.5275  -17.7845   26.8303 C   0  0  0  0  0  0  0  0  0  0  0  0
   11.4108  -18.7301   27.2200 O   0  0  0  0  0  0  0  0  0  0  0  0
    9.3198  -18.1413   26.5800 O   0  0  0  0  0  0  0  0  0  0  0  0
  2  1  1  6
  3  2  1  0
  4  8  1  0
  4  3  1  0
  5  4  2  0
  6  5  1  0
  6  7  1  0
  7  8  2  0
  9 10  2  0
  9  2  1  0
 12 11  1  0
 13 12  1  0
 13 14  1  1
 15 13  1  0
 15 16  1  6
 16  9  1  0
 17 15  1  0
 18 17  2  0
 20 21  1  0
 20 19  1  0
 22 21  1  0
 23 22  1  1
 23 24  1  0
 24 17  1  0
 25 26  1  0
 25 23  1  0
 27 25  2  0
M  END
$$$$
