HIM.pdb
     RDKit          3D

 27 27  0  0  1  0  0  0  0  0999 V2000
    9.0222  -16.1242   19.4349 N   0  0  0  0  0  0  0  0  0  0  0  0
    8.3187  -16.5119   20.6282 C   0  0  1  0  0  0  0  0  0  0  0  0
    8.3479  -18.0262   20.6854 C   0  0  0  0  0  0  0  0  0  0  0  0
    7.3985  -18.5054   19.6482 C   0  0  0  0  0  0  0  0  0  0  0  0
    6.7266  -17.7865   18.6827 C   0  0  0  0  0  0  0  0  0  0  0  0
    5.9569  -18.6034   17.9393 N   0  0  0  0  0  0  0  0  0  0  0  0
    6.1394  -19.8484   18.4336 C   0  0  0  0  0  0  0  0  0  0  0  0
    7.0109  -19.7948   19.4679 N   0  0  0  0  0  0  0  0  0  0  0  0
    8.9718  -15.9247   21.8696 C   0  0  0  0  0  0  0  0  0  0  0  0
   10.2099  -15.6865   21.8416 O   0  0  0  0  0  0  0  0  0  0  0  0
    5.7578  -12.6269   25.0794 C   0  0  0  0  0  0  0  0  0  0  0  0
    6.8641  -13.2539   24.2316 C   0  0  0  0  0  0  0  0  0  0  0  0
    7.5894  -14.3238   25.0130 C   0  0  2  0  0  0  0  0  0  0  0  0
    8.1110  -13.6886   26.2803 C   0  0  0  0  0  0  0  0  0  0  0  0
    8.5801  -15.1199   24.2678 C   0  0  2  0  0  0  0  0  0  0  0  0
    8.1868  -15.6658   23.0048 N   0  0  0  0  0  0  0  0  0  0  0  0
    9.2863  -16.0715   25.1254 C   0  0  0  0  0  0  0  0  0  0  0  0
    8.5909  -16.9536   25.7361 O   0  0  0  0  0  0  0  0  0  0  0  0
   10.1123  -13.1331   29.5876 C   0  0  0  0  0  0  0  0  0  0  0  0
   10.6784  -14.6768   30.2280 S   0  0  0  0  0  0  0  0  0  0  0  0
   10.8422  -16.0355   29.0850 C   0  0  0  0  0  0  0  0  0  0  0  0
   10.3600  -15.7565   27.6972 C   0  0  0  0  0  0  0  0  0  0  0  0
   11.2087  -16.4026   26.6607 C   0  0  2  0  0  0  0  0  0  0  0  0
   10.6865  -16.0689   25.3125 N   0  0  0  0  0  0  0  0  0  0  0  0
   11.2070  -17.8905   26.7743 C   0  0  0  0  0  0  0  0  0  0  0  0
   12.1149  -18.5703   27.5089 O   0  0  0  0  0  0  0  0  0  0  0  0
   10.3050  -18.5557   26.1479 O   0  0  0  0  0  0  0  0  0  0  0  0
  2  1  1  6
  3  2  1  0
  4  8  1  0
  4  3  1  0
  5  4  2  0
  6  5  1  0
  6  7  1  0
  7  8  2  0
  9 10  2  0
  9  2  1  0
 12 11  1  0
 13 12  1  0
 13 14  1  1
 15 13  1  0
 15 16  1  6
 16  9  1  0
 17 15  1  0
 18 17  2  0
 20 21  1  0
 20 19  1  0
 22 21  1  0
 23 22  1  1
 23 24  1  0
 24 17  1  0
 25 26  1  0
 25 23  1  0
 27 25  2  0
M  END
$$$$
