HIM.pdb
     RDKit          3D

 27 27  0  0  1  0  0  0  0  0999 V2000
    8.0716  -18.6430   20.0990 N   0  0  0  0  0  0  0  0  0  0  0  0
    9.4030  -18.3130   19.6661 C   0  0  1  0  0  0  0  0  0  0  0  0
    9.4477  -18.5356   18.1675 C   0  0  0  0  0  0  0  0  0  0  0  0
    9.1240  -19.9681   17.9446 C   0  0  0  0  0  0  0  0  0  0  0  0
    8.7651  -20.9335   18.8609 C   0  0  0  0  0  0  0  0  0  0  0  0
    8.5581  -22.1124   18.2447 N   0  0  0  0  0  0  0  0  0  0  0  0
    8.7863  -21.8969   16.9297 C   0  0  0  0  0  0  0  0  0  0  0  0
    9.1291  -20.6009   16.7425 N   0  0  0  0  0  0  0  0  0  0  0  0
    9.7487  -16.8691   19.9951 C   0  0  0  0  0  0  0  0  0  0  0  0
   10.8664  -16.4190   19.6229 O   0  0  0  0  0  0  0  0  0  0  0  0
    6.9682  -12.5066   18.6908 C   0  0  0  0  0  0  0  0  0  0  0  0
    8.1253  -13.3965   19.1439 C   0  0  0  0  0  0  0  0  0  0  0  0
    7.9890  -13.7392   20.6086 C   0  0  2  0  0  0  0  0  0  0  0  0
    7.9253  -12.4403   21.3770 C   0  0  0  0  0  0  0  0  0  0  0  0
    8.9445  -14.7261   21.1411 C   0  0  2  0  0  0  0  0  0  0  0  0
    8.8231  -16.0816   20.6987 N   0  0  0  0  0  0  0  0  0  0  0  0
    9.1323  -14.5937   22.5857 C   0  0  0  0  0  0  0  0  0  0  0  0
    9.3313  -13.4217   23.0562 O   0  0  0  0  0  0  0  0  0  0  0  0
    6.1320  -12.7296   28.2922 C   0  0  0  0  0  0  0  0  0  0  0  0
    6.7914  -13.1127   26.7010 S   0  0  0  0  0  0  0  0  0  0  0  0
    6.5088  -14.7534   26.0625 C   0  0  0  0  0  0  0  0  0  0  0  0
    7.1272  -15.0287   24.7292 C   0  0  0  0  0  0  0  0  0  0  0  0
    8.5479  -15.4551   24.8394 C   0  0  2  0  0  0  0  0  0  0  0  0
    9.1043  -15.6844   23.4831 N   0  0  0  0  0  0  0  0  0  0  0  0
    8.6985  -16.7328   25.5955 C   0  0  0  0  0  0  0  0  0  0  0  0
    8.6507  -16.7960   26.9445 O   0  0  0  0  0  0  0  0  0  0  0  0
    8.8816  -17.8204   24.9381 O   0  0  0  0  0  0  0  0  0  0  0  0
  2  1  1  6
  3  2  1  0
  4  8  1  0
  4  3  1  0
  5  4  2  0
  6  5  1  0
  6  7  1  0
  7  8  2  0
  9 10  2  0
  9  2  1  0
 12 11  1  0
 13 12  1  0
 13 14  1  1
 15 13  1  0
 15 16  1  1
 16  9  1  0
 17 15  1  0
 18 17  2  0
 20 21  1  0
 20 19  1  0
 22 21  1  0
 23 22  1  6
 23 24  1  0
 24 17  1  0
 25 26  1  0
 25 23  1  0
 27 25  2  0
M  END
$$$$
