HIM.pdb
     RDKit          3D

 27 27  0  0  1  0  0  0  0  0999 V2000
    9.6565  -15.6710   19.1779 N   0  0  0  0  0  0  0  0  0  0  0  0
    9.6456  -16.5875   20.2866 C   0  0  1  0  0  0  0  0  0  0  0  0
   10.6795  -17.6546   19.9873 C   0  0  0  0  0  0  0  0  0  0  0  0
    9.9779  -18.7188   19.2245 C   0  0  0  0  0  0  0  0  0  0  0  0
    8.6877  -18.7369   18.7390 C   0  0  0  0  0  0  0  0  0  0  0  0
    8.4418  -19.8971   18.1019 N   0  0  0  0  0  0  0  0  0  0  0  0
    9.5806  -20.6213   18.1819 C   0  0  0  0  0  0  0  0  0  0  0  0
   10.5134  -19.9129   18.8602 N   0  0  0  0  0  0  0  0  0  0  0  0
    9.9800  -15.8805   21.5908 C   0  0  0  0  0  0  0  0  0  0  0  0
   11.1655  -15.4927   21.7771 O   0  0  0  0  0  0  0  0  0  0  0  0
    6.6824  -12.6926   25.8146 C   0  0  0  0  0  0  0  0  0  0  0  0
    8.0038  -13.3732   25.4591 C   0  0  0  0  0  0  0  0  0  0  0  0
    7.8464  -14.2232   24.2205 C   0  0  2  0  0  0  0  0  0  0  0  0
    6.5929  -15.0488   24.3901 C   0  0  0  0  0  0  0  0  0  0  0  0
    9.0340  -14.9835   23.7937 C   0  0  2  0  0  0  0  0  0  0  0  0
    8.9697  -15.6800   22.5452 N   0  0  0  0  0  0  0  0  0  0  0  0
    9.6054  -15.7776   24.8812 C   0  0  0  0  0  0  0  0  0  0  0  0
    9.0439  -16.8904   25.1656 O   0  0  0  0  0  0  0  0  0  0  0  0
   11.4211  -12.9501   29.4240 C   0  0  0  0  0  0  0  0  0  0  0  0
   10.2982  -14.2492   29.8303 S   0  0  0  0  0  0  0  0  0  0  0  0
   10.6496  -15.8756   29.1897 C   0  0  0  0  0  0  0  0  0  0  0  0
   10.0848  -16.1574   27.8341 C   0  0  0  0  0  0  0  0  0  0  0  0
   11.1358  -16.2250   26.7838 C   0  0  2  0  0  0  0  0  0  0  0  0
   10.7379  -15.3838   25.6281 N   0  0  0  0  0  0  0  0  0  0  0  0
   11.3327  -17.6114   26.2683 C   0  0  0  0  0  0  0  0  0  0  0  0
   12.5346  -18.2293   26.2679 O   0  0  0  0  0  0  0  0  0  0  0  0
   10.3180  -18.2468   25.8045 O   0  0  0  0  0  0  0  0  0  0  0  0
  2  1  1  6
  3  2  1  0
  4  8  1  0
  4  3  1  0
  5  4  2  0
  6  5  1  0
  6  7  1  0
  7  8  2  0
  9 10  2  0
  9  2  1  0
 12 11  1  0
 13 12  1  0
 13 14  1  1
 15 13  1  0
 15 16  1  6
 16  9  1  0
 17 15  1  0
 18 17  2  0
 20 21  1  0
 20 19  1  0
 22 21  1  0
 23 22  1  1
 23 24  1  0
 24 17  1  0
 25 26  1  0
 25 23  1  0
 27 25  2  0
M  END
$$$$
