HIM.pdb
     RDKit          3D

 27 27  0  0  1  0  0  0  0  0999 V2000
    9.0412  -17.7340   20.5517 N   0  0  0  0  0  0  0  0  0  0  0  0
    9.9234  -16.6092   20.3917 C   0  0  1  0  0  0  0  0  0  0  0  0
    9.4551  -15.8519   19.1651 C   0  0  0  0  0  0  0  0  0  0  0  0
    9.6955  -16.7441   18.0020 C   0  0  0  0  0  0  0  0  0  0  0  0
   10.8719  -17.0057   17.3326 C   0  0  0  0  0  0  0  0  0  0  0  0
   10.6573  -17.8758   16.3279 N   0  0  0  0  0  0  0  0  0  0  0  0
    9.3381  -18.1697   16.3575 C   0  0  0  0  0  0  0  0  0  0  0  0
    8.7512  -17.4876   17.3687 N   0  0  0  0  0  0  0  0  0  0  0  0
    9.8919  -15.7045   21.6137 C   0  0  0  0  0  0  0  0  0  0  0  0
   10.5876  -14.6527   21.6007 O   0  0  0  0  0  0  0  0  0  0  0  0
    6.3927  -13.4161   25.9342 C   0  0  0  0  0  0  0  0  0  0  0  0
    7.7752  -14.0107   25.6680 C   0  0  0  0  0  0  0  0  0  0  0  0
    7.7408  -14.9118   24.4564 C   0  0  2  0  0  0  0  0  0  0  0  0
    6.6593  -15.9414   24.6842 C   0  0  0  0  0  0  0  0  0  0  0  0
    9.0338  -15.4615   24.0131 C   0  0  2  0  0  0  0  0  0  0  0  0
    9.0968  -16.0606   22.7149 N   0  0  0  0  0  0  0  0  0  0  0  0
    9.6893  -16.2497   25.0566 C   0  0  0  0  0  0  0  0  0  0  0  0
   10.0054  -17.4576   24.7816 O   0  0  0  0  0  0  0  0  0  0  0  0
   11.0883  -13.8334   31.3297 C   0  0  0  0  0  0  0  0  0  0  0  0
   10.6664  -13.3970   29.6729 S   0  0  0  0  0  0  0  0  0  0  0  0
   11.2633  -14.4500   28.3635 C   0  0  0  0  0  0  0  0  0  0  0  0
   10.9894  -15.9083   28.5498 C   0  0  0  0  0  0  0  0  0  0  0  0
   10.7753  -16.6152   27.2588 C   0  0  2  0  0  0  0  0  0  0  0  0
    9.9908  -15.7503   26.3432 N   0  0  0  0  0  0  0  0  0  0  0  0
   10.0069  -17.8831   27.4281 C   0  0  0  0  0  0  0  0  0  0  0  0
    8.6719  -17.9085   27.6366 O   0  0  0  0  0  0  0  0  0  0  0  0
   10.6391  -18.9992   27.3740 O   0  0  0  0  0  0  0  0  0  0  0  0
  2  1  1  1
  3  2  1  0
  4  8  1  0
  4  3  1  0
  5  4  2  0
  6  5  1  0
  6  7  1  0
  7  8  2  0
  9 10  2  0
  9  2  1  0
 12 11  1  0
 13 12  1  0
 13 14  1  1
 15 13  1  0
 15 16  1  6
 16  9  1  0
 17 15  1  0
 18 17  2  0
 20 21  1  0
 20 19  1  0
 22 21  1  0
 23 22  1  1
 23 24  1  0
 24 17  1  0
 25 26  1  0
 25 23  1  0
 27 25  2  0
M  END
$$$$
