HIM.pdb
     RDKit          3D

 27 27  0  0  1  0  0  0  0  0999 V2000
    8.5741  -17.4668   19.5537 N   0  0  0  0  0  0  0  0  0  0  0  0
    8.0826  -17.5433   20.9034 C   0  0  1  0  0  0  0  0  0  0  0  0
    8.1551  -18.9996   21.3175 C   0  0  0  0  0  0  0  0  0  0  0  0
    7.1746  -19.7274   20.4716 C   0  0  0  0  0  0  0  0  0  0  0  0
    7.3477  -20.2915   19.2257 C   0  0  0  0  0  0  0  0  0  0  0  0
    6.2019  -20.8583   18.8033 N   0  0  0  0  0  0  0  0  0  0  0  0
    5.2949  -20.6543   19.7848 C   0  0  0  0  0  0  0  0  0  0  0  0
    5.8782  -19.9704   20.7968 N   0  0  0  0  0  0  0  0  0  0  0  0
    8.9151  -16.6857   21.8436 C   0  0  0  0  0  0  0  0  0  0  0  0
   10.1436  -16.5429   21.5974 O   0  0  0  0  0  0  0  0  0  0  0  0
    6.4023  -12.8358   25.6750 C   0  0  0  0  0  0  0  0  0  0  0  0
    6.9158  -14.1865   25.1770 C   0  0  0  0  0  0  0  0  0  0  0  0
    8.1382  -14.0022   24.3093 C   0  0  2  0  0  0  0  0  0  0  0  0
    7.7410  -13.1315   23.1406 C   0  0  0  0  0  0  0  0  0  0  0  0
    8.8732  -15.2263   23.9462 C   0  0  2  0  0  0  0  0  0  0  0  0
    8.3001  -16.0811   22.9518 N   0  0  0  0  0  0  0  0  0  0  0  0
    9.3734  -15.9424   25.1196 C   0  0  0  0  0  0  0  0  0  0  0  0
    8.5638  -16.7169   25.7353 O   0  0  0  0  0  0  0  0  0  0  0  0
    9.0867  -13.1164   29.0161 C   0  0  0  0  0  0  0  0  0  0  0  0
   10.1545  -14.1688   29.9466 S   0  0  0  0  0  0  0  0  0  0  0  0
   10.9757  -15.4906   29.0762 C   0  0  0  0  0  0  0  0  0  0  0  0
   10.1866  -16.1008   27.9621 C   0  0  0  0  0  0  0  0  0  0  0  0
   11.0493  -16.5635   26.8423 C   0  0  2  0  0  0  0  0  0  0  0  0
   10.6949  -15.8256   25.6048 N   0  0  0  0  0  0  0  0  0  0  0  0
   10.8694  -18.0161   26.5520 C   0  0  0  0  0  0  0  0  0  0  0  0
   11.8958  -18.8952   26.5481 O   0  0  0  0  0  0  0  0  0  0  0  0
    9.6896  -18.4520   26.2943 O   0  0  0  0  0  0  0  0  0  0  0  0
  2  1  1  6
  3  2  1  0
  4  8  1  0
  4  3  1  0
  5  4  2  0
  6  5  1  0
  6  7  1  0
  7  8  2  0
  9 10  2  0
  9  2  1  0
 12 11  1  0
 13 12  1  0
 13 14  1  6
 15 13  1  0
 15 16  1  1
 16  9  1  0
 17 15  1  0
 18 17  2  0
 20 21  1  0
 20 19  1  0
 22 21  1  0
 23 22  1  1
 23 24  1  0
 24 17  1  0
 25 26  1  0
 25 23  1  0
 27 25  2  0
M  END
$$$$
