HIM.pdb
     RDKit          3D

 27 27  0  0  1  0  0  0  0  0999 V2000
    9.2566  -18.4294   20.1470 N   0  0  0  0  0  0  0  0  0  0  0  0
   10.5846  -17.9729   20.4585 C   0  0  1  0  0  0  0  0  0  0  0  0
   11.3802  -18.0168   19.1692 C   0  0  0  0  0  0  0  0  0  0  0  0
   11.4608  -19.4460   18.7724 C   0  0  0  0  0  0  0  0  0  0  0  0
   11.4051  -20.5745   19.5623 C   0  0  0  0  0  0  0  0  0  0  0  0
   11.5184  -21.6830   18.8068 N   0  0  0  0  0  0  0  0  0  0  0  0
   11.6468  -21.2586   17.5296 C   0  0  0  0  0  0  0  0  0  0  0  0
   11.6126  -19.9057   17.5031 N   0  0  0  0  0  0  0  0  0  0  0  0
   10.5653  -16.5590   21.0182 C   0  0  0  0  0  0  0  0  0  0  0  0
   11.6626  -16.0212   21.3300 O   0  0  0  0  0  0  0  0  0  0  0  0
    7.1789  -12.5391   19.1362 C   0  0  0  0  0  0  0  0  0  0  0  0
    8.3745  -13.2824   19.7312 C   0  0  0  0  0  0  0  0  0  0  0  0
    8.0597  -13.7607   21.1289 C   0  0  2  0  0  0  0  0  0  0  0  0
    7.6484  -12.5557   21.9416 C   0  0  0  0  0  0  0  0  0  0  0  0
    9.0694  -14.6221   21.7684 C   0  0  2  0  0  0  0  0  0  0  0  0
    9.3376  -15.8952   21.1723 N   0  0  0  0  0  0  0  0  0  0  0  0
    8.9142  -14.6745   23.2220 C   0  0  0  0  0  0  0  0  0  0  0  0
    8.7775  -13.5678   23.8474 O   0  0  0  0  0  0  0  0  0  0  0  0
    5.8161  -12.2563   27.3038 C   0  0  0  0  0  0  0  0  0  0  0  0
    5.4070  -13.3368   25.9701 S   0  0  0  0  0  0  0  0  0  0  0  0
    6.7518  -14.1050   25.0866 C   0  0  0  0  0  0  0  0  0  0  0  0
    7.0815  -15.4971   25.5220 C   0  0  0  0  0  0  0  0  0  0  0  0
    8.5323  -15.8013   25.4008 C   0  0  2  0  0  0  0  0  0  0  0  0
    8.9061  -15.8749   23.9667 N   0  0  0  0  0  0  0  0  0  0  0  0
    8.8886  -17.1145   26.0134 C   0  0  0  0  0  0  0  0  0  0  0  0
    9.2945  -18.1773   25.2841 O   0  0  0  0  0  0  0  0  0  0  0  0
    8.8068  -17.2426   27.2883 O   0  0  0  0  0  0  0  0  0  0  0  0
  2  1  1  6
  3  2  1  0
  4  8  1  0
  4  3  1  0
  5  4  2  0
  6  5  1  0
  6  7  1  0
  7  8  2  0
  9 10  2  0
  9  2  1  0
 12 11  1  0
 13 12  1  0
 13 14  1  1
 15 13  1  0
 15 16  1  6
 16  9  1  0
 17 15  1  0
 18 17  2  0
 20 21  1  0
 20 19  1  0
 22 21  1  0
 23 22  1  6
 23 24  1  0
 24 17  1  0
 25 26  1  0
 25 23  1  0
 27 25  2  0
M  END
$$$$
