HIM.pdb
     RDKit          3D

 27 27  0  0  1  0  0  0  0  0999 V2000
   11.1895  -17.7422   19.3865 N   0  0  0  0  0  0  0  0  0  0  0  0
   12.0415  -17.5712   20.5327 C   0  0  1  0  0  0  0  0  0  0  0  0
   13.3477  -16.9902   20.0289 C   0  0  0  0  0  0  0  0  0  0  0  0
   13.8475  -17.9206   18.9844 C   0  0  0  0  0  0  0  0  0  0  0  0
   13.8200  -19.2987   18.9592 C   0  0  0  0  0  0  0  0  0  0  0  0
   14.3812  -19.7592   17.8253 N   0  0  0  0  0  0  0  0  0  0  0  0
   14.7678  -18.6693   17.1251 C   0  0  0  0  0  0  0  0  0  0  0  0
   14.4472  -17.5540   17.8219 N   0  0  0  0  0  0  0  0  0  0  0  0
   11.4102  -16.6400   21.5560 C   0  0  0  0  0  0  0  0  0  0  0  0
   12.1671  -15.9063   22.2482 O   0  0  0  0  0  0  0  0  0  0  0  0
    6.5921  -14.1419   20.4251 C   0  0  0  0  0  0  0  0  0  0  0  0
    7.9996  -14.4787   20.9164 C   0  0  0  0  0  0  0  0  0  0  0  0
    7.9370  -15.3307   22.1619 C   0  0  2  0  0  0  0  0  0  0  0  0
    7.1560  -14.5621   23.2016 C   0  0  0  0  0  0  0  0  0  0  0  0
    9.2147  -15.8895   22.6371 C   0  0  2  0  0  0  0  0  0  0  0  0
   10.0138  -16.6217   21.7026 N   0  0  0  0  0  0  0  0  0  0  0  0
    9.0848  -16.5438   23.9389 C   0  0  0  0  0  0  0  0  0  0  0  0
    8.8772  -17.8052   23.9542 O   0  0  0  0  0  0  0  0  0  0  0  0
    9.8305  -12.6119   28.4025 C   0  0  0  0  0  0  0  0  0  0  0  0
   11.1656  -13.7649   28.3600 S   0  0  0  0  0  0  0  0  0  0  0  0
   10.8763  -15.3352   27.5664 C   0  0  0  0  0  0  0  0  0  0  0  0
    9.4551  -15.8000   27.5826 C   0  0  0  0  0  0  0  0  0  0  0  0
    9.1274  -16.6653   26.4180 C   0  0  2  0  0  0  0  0  0  0  0  0
    9.1770  -15.8610   25.1721 N   0  0  0  0  0  0  0  0  0  0  0  0
    7.7549  -17.2437   26.5107 C   0  0  0  0  0  0  0  0  0  0  0  0
    7.4955  -18.4205   27.1222 O   0  0  0  0  0  0  0  0  0  0  0  0
    6.7767  -16.5972   25.9876 O   0  0  0  0  0  0  0  0  0  0  0  0
  2  1  1  6
  3  2  1  0
  4  8  1  0
  4  3  1  0
  5  4  2  0
  6  5  1  0
  6  7  1  0
  7  8  2  0
  9 10  2  0
  9  2  1  0
 12 11  1  0
 13 12  1  0
 13 14  1  1
 15 13  1  0
 15 16  1  6
 16  9  1  0
 17 15  1  0
 18 17  2  0
 20 21  1  0
 20 19  1  0
 22 21  1  0
 23 22  1  1
 23 24  1  0
 24 17  1  0
 25 26  1  0
 25 23  1  0
 27 25  2  0
M  END
$$$$
