HIM.pdb
     RDKit          3D

 27 27  0  0  1  0  0  0  0  0999 V2000
    8.8791  -16.4893   19.5335 N   0  0  0  0  0  0  0  0  0  0  0  0
    9.8225  -17.0312   20.4746 C   0  0  1  0  0  0  0  0  0  0  0  0
   11.1406  -17.1809   19.7415 C   0  0  0  0  0  0  0  0  0  0  0  0
   10.8914  -18.1140   18.6129 C   0  0  0  0  0  0  0  0  0  0  0  0
   10.4824  -19.4302   18.6440 C   0  0  0  0  0  0  0  0  0  0  0  0
   10.3774  -19.9193   17.3942 N   0  0  0  0  0  0  0  0  0  0  0  0
   10.7212  -18.9100   16.5630 C   0  0  0  0  0  0  0  0  0  0  0  0
   11.0332  -17.8152   17.2953 N   0  0  0  0  0  0  0  0  0  0  0  0
    9.9894  -16.1165   21.6779 C   0  0  0  0  0  0  0  0  0  0  0  0
   10.9803  -15.3371   21.7072 O   0  0  0  0  0  0  0  0  0  0  0  0
    6.3734  -12.9438   25.4066 C   0  0  0  0  0  0  0  0  0  0  0  0
    7.7204  -13.6583   25.3016 C   0  0  0  0  0  0  0  0  0  0  0  0
    7.6971  -14.6729   24.1830 C   0  0  2  0  0  0  0  0  0  0  0  0
    6.5171  -15.5857   24.4196 C   0  0  0  0  0  0  0  0  0  0  0  0
    8.9668  -15.3647   23.9008 C   0  0  2  0  0  0  0  0  0  0  0  0
    9.0449  -16.1635   22.7159 N   0  0  0  0  0  0  0  0  0  0  0  0
    9.5189  -16.0179   25.0875 C   0  0  0  0  0  0  0  0  0  0  0  0
    9.6364  -17.2908   25.0673 O   0  0  0  0  0  0  0  0  0  0  0  0
   11.3033  -13.2548   31.0385 C   0  0  0  0  0  0  0  0  0  0  0  0
   11.6686  -14.9787   31.1291 S   0  0  0  0  0  0  0  0  0  0  0  0
   11.4133  -15.9558   29.6597 C   0  0  0  0  0  0  0  0  0  0  0  0
   10.7702  -15.2302   28.5212 C   0  0  0  0  0  0  0  0  0  0  0  0
   10.5933  -16.0951   27.3241 C   0  0  2  0  0  0  0  0  0  0  0  0
    9.9278  -15.3218   26.2467 N   0  0  0  0  0  0  0  0  0  0  0  0
    9.7339  -17.2821   27.6052 C   0  0  0  0  0  0  0  0  0  0  0  0
    8.3909  -17.2009   27.7318 O   0  0  0  0  0  0  0  0  0  0  0  0
   10.2921  -18.4312   27.7329 O   0  0  0  0  0  0  0  0  0  0  0  0
  2  1  1  6
  3  2  1  0
  4  8  1  0
  4  3  1  0
  5  4  2  0
  6  5  1  0
  6  7  1  0
  7  8  2  0
  9 10  2  0
  9  2  1  0
 12 11  1  0
 13 12  1  0
 13 14  1  1
 15 13  1  0
 15 16  1  6
 16  9  1  0
 17 15  1  0
 18 17  2  0
 20 21  1  0
 20 19  1  0
 22 21  1  0
 23 22  1  1
 23 24  1  0
 24 17  1  0
 25 26  1  0
 25 23  1  0
 27 25  2  0
M  END
$$$$
