LWY.pdb
     RDKit          3D

 35 37  0  0  1  0  0  0  0  0999 V2000
   30.8274  -23.8792  -18.3381 C   0  0  0  0  0  0  0  0  0  0  0  0
   29.6163  -22.9868  -18.1888 C   0  0  1  0  0  0  0  0  0  0  0  0
   28.6192  -23.2272  -19.2916 C   0  0  0  0  0  0  0  0  0  0  0  0
   28.9470  -23.1644  -16.8272 C   0  0  0  0  0  0  0  0  0  0  0  0
   27.8083  -22.1663  -16.7880 C   0  0  2  0  0  0  0  0  0  0  0  0
   28.3033  -20.8752  -17.2117 N   0  0  0  0  0  0  0  0  0  0  0  0
   27.1719  -22.0911  -15.4548 C   0  0  0  0  0  0  0  0  0  0  0  0
   26.7182  -23.1489  -14.9587 O   0  0  0  0  0  0  0  0  0  0  0  0
   27.0371  -20.9044  -14.6954 N   0  0  0  0  0  0  0  0  0  0  0  0
   26.3460  -20.8228  -13.4633 C   0  0  1  0  0  0  0  0  0  0  0  0
   26.7896  -19.8077  -12.4767 C   0  0  0  0  0  0  0  0  0  0  0  0
   27.6596  -20.3345  -11.3864 C   0  0  0  0  0  0  0  0  0  0  0  0
   28.9058  -20.9221  -11.5338 C   0  0  0  0  0  0  0  0  0  0  0  0
   29.3630  -21.2428  -10.3206 N   0  0  0  0  0  0  0  0  0  0  0  0
   28.4658  -20.8904   -9.3683 C   0  0  0  0  0  0  0  0  0  0  0  0
   28.5107  -21.0294   -7.9968 C   0  0  0  0  0  0  0  0  0  0  0  0
   27.4334  -20.5757   -7.2693 C   0  0  0  0  0  0  0  0  0  0  0  0
   26.3360  -19.9976   -7.8891 C   0  0  0  0  0  0  0  0  0  0  0  0
   26.3357  -19.8801   -9.2594 C   0  0  0  0  0  0  0  0  0  0  0  0
   27.4077  -20.3263  -10.0329 C   0  0  0  0  0  0  0  0  0  0  0  0
   24.8700  -20.6670  -13.6326 C   0  0  0  0  0  0  0  0  0  0  0  0
   24.3974  -19.8096  -14.4192 O   0  0  0  0  0  0  0  0  0  0  0  0
   16.3754  -22.6273  -13.2382 O   0  0  0  0  0  0  0  0  0  0  0  0
   17.7727  -22.6237  -13.2621 C   0  0  0  0  0  0  0  0  0  0  0  0
   18.4182  -23.0682  -12.1232 C   0  0  0  0  0  0  0  0  0  0  0  0
   19.7944  -23.0871  -12.0896 C   0  0  0  0  0  0  0  0  0  0  0  0
   20.5272  -22.6652  -13.1850 C   0  0  0  0  0  0  0  0  0  0  0  0
   21.9912  -22.7076  -13.0765 C   0  0  0  0  0  0  0  0  0  0  0  0
   22.5922  -21.3223  -12.9053 C   0  0  2  0  0  0  0  0  0  0  0  0
   24.0251  -21.5115  -12.8830 N   0  0  0  0  0  0  0  0  0  0  0  0
   22.1460  -20.6661  -11.6432 C   0  0  0  0  0  0  0  0  0  0  0  0
   21.1192  -19.9401  -11.6416 O   0  0  0  0  0  0  0  0  0  0  0  0
   19.8857  -22.2267  -14.3076 C   0  0  0  0  0  0  0  0  0  0  0  0
   18.5154  -22.2112  -14.3333 C   0  0  0  0  0  0  0  0  0  0  0  0
   22.8162  -20.8194  -10.4540 O   0  0  0  0  0  0  0  0  0  0  0  0
  2  3  1  6
  2  4  1  0
  2  1  1  0
  4  5  1  0
  5  6  1  1
  7  5  1  0
  8  7  2  0
  9  7  1  0
 10 21  1  0
 10  9  1  0
 10 11  1  6
 12 11  1  0
 13 12  2  0
 14 13  1  0
 15 14  1  0
 15 20  2  0
 16 17  2  0
 16 15  1  0
 17 18  1  0
 18 19  2  0
 20 19  1  0
 20 12  1  0
 21 30  1  0
 22 21  2  0
 23 24  1  0
 24 25  2  0
 25 26  1  0
 27 26  2  0
 27 28  1  0
 29 28  1  1
 29 31  1  0
 30 29  1  0
 31 32  2  0
 31 35  1  0
 33 27  1  0
 34 24  1  0
 34 33  2  0
M  END
$$$$
