LWY.pdb
     RDKit          3D

 35 37  0  0  1  0  0  0  0  0999 V2000
   21.8859  -14.2716  -17.6794 C   0  0  0  0  0  0  0  0  0  0  0  0
   23.0736  -13.4290  -17.2735 C   0  0  1  0  0  0  0  0  0  0  0  0
   24.1334  -13.4241  -18.3436 C   0  0  0  0  0  0  0  0  0  0  0  0
   22.6624  -11.9973  -16.9347 C   0  0  0  0  0  0  0  0  0  0  0  0
   23.9087  -11.3188  -16.4049 C   0  0  2  0  0  0  0  0  0  0  0  0
   24.3521  -12.0160  -15.2180 N   0  0  0  0  0  0  0  0  0  0  0  0
   23.6958   -9.8793  -16.1394 C   0  0  0  0  0  0  0  0  0  0  0  0
   22.7740   -9.5556  -15.3542 O   0  0  0  0  0  0  0  0  0  0  0  0
   24.4615   -8.8356  -16.7117 N   0  0  0  0  0  0  0  0  0  0  0  0
   24.1898   -7.4587  -16.5311 C   0  0  1  0  0  0  0  0  0  0  0  0
   25.2350   -6.4809  -16.9208 C   0  0  0  0  0  0  0  0  0  0  0  0
   24.9183   -5.0621  -16.5890 C   0  0  0  0  0  0  0  0  0  0  0  0
   24.1235   -4.6145  -15.5460 C   0  0  0  0  0  0  0  0  0  0  0  0
   24.1025   -3.2794  -15.5796 N   0  0  0  0  0  0  0  0  0  0  0  0
   24.8550   -2.8200  -16.6085 C   0  0  0  0  0  0  0  0  0  0  0  0
   25.1169   -1.5311  -17.0240 C   0  0  0  0  0  0  0  0  0  0  0  0
   25.9279   -1.3629  -18.1239 C   0  0  0  0  0  0  0  0  0  0  0  0
   26.4663   -2.4493  -18.7965 C   0  0  0  0  0  0  0  0  0  0  0  0
   26.1774   -3.7161  -18.3458 C   0  0  0  0  0  0  0  0  0  0  0  0
   25.3609   -3.9296  -17.2348 C   0  0  0  0  0  0  0  0  0  0  0  0
   22.9122   -7.0279  -17.1744 C   0  0  0  0  0  0  0  0  0  0  0  0
   22.7297   -7.1732  -18.4084 O   0  0  0  0  0  0  0  0  0  0  0  0
   14.6307   -4.9797  -18.4384 O   0  0  0  0  0  0  0  0  0  0  0  0
   15.8453   -5.4021  -17.8912 C   0  0  0  0  0  0  0  0  0  0  0  0
   16.7129   -6.0690  -18.7362 C   0  0  0  0  0  0  0  0  0  0  0  0
   17.9245   -6.5083  -18.2520 C   0  0  0  0  0  0  0  0  0  0  0  0
   18.2729   -6.2856  -16.9314 C   0  0  0  0  0  0  0  0  0  0  0  0
   19.5783   -6.7868  -16.4825 C   0  0  0  0  0  0  0  0  0  0  0  0
   20.7207   -5.8932  -16.9366 C   0  0  2  0  0  0  0  0  0  0  0  0
   21.9188   -6.4542  -16.3540 N   0  0  0  0  0  0  0  0  0  0  0  0
   20.5475   -4.4831  -16.4846 C   0  0  0  0  0  0  0  0  0  0  0  0
   20.1207   -3.6141  -17.2872 O   0  0  0  0  0  0  0  0  0  0  0  0
   17.4130   -5.6268  -16.1003 C   0  0  0  0  0  0  0  0  0  0  0  0
   16.2088   -5.1924  -16.5900 C   0  0  0  0  0  0  0  0  0  0  0  0
   20.8369   -4.0768  -15.2048 O   0  0  0  0  0  0  0  0  0  0  0  0
  2  3  1  6
  2  4  1  0
  2  1  1  0
  4  5  1  0
  5  6  1  1
  7  5  1  0
  8  7  2  0
  9  7  1  0
 10 21  1  0
 10  9  1  0
 10 11  1  6
 12 11  1  0
 13 12  2  0
 14 13  1  0
 15 14  1  0
 15 20  2  0
 16 17  2  0
 16 15  1  0
 17 18  1  0
 18 19  2  0
 20 19  1  0
 20 12  1  0
 21 30  1  0
 22 21  2  0
 23 24  1  0
 24 25  2  0
 25 26  1  0
 27 26  2  0
 27 28  1  0
 29 28  1  1
 29 31  1  0
 30 29  1  0
 31 32  2  0
 31 35  1  0
 33 27  1  0
 34 24  1  0
 34 33  2  0
M  END
$$$$
