LWY.pdb
     RDKit          3D

 35 37  0  0  1  0  0  0  0  0999 V2000
   27.5045  -20.4848  -19.0893 C   0  0  0  0  0  0  0  0  0  0  0  0
   28.1536  -20.7888  -17.7582 C   0  0  1  0  0  0  0  0  0  0  0  0
   28.5104  -19.5247  -17.0212 C   0  0  0  0  0  0  0  0  0  0  0  0
   27.2659  -21.6736  -16.8848 C   0  0  0  0  0  0  0  0  0  0  0  0
   27.9478  -21.7458  -15.5342 C   0  0  2  0  0  0  0  0  0  0  0  0
   28.9025  -22.8320  -15.5498 N   0  0  0  0  0  0  0  0  0  0  0  0
   26.9818  -21.8901  -14.4234 C   0  0  0  0  0  0  0  0  0  0  0  0
   26.2130  -22.8799  -14.4368 O   0  0  0  0  0  0  0  0  0  0  0  0
   26.8619  -20.9859  -13.3411 N   0  0  0  0  0  0  0  0  0  0  0  0
   25.9179  -21.1179  -12.2953 C   0  0  1  0  0  0  0  0  0  0  0  0
   26.1675  -20.3861  -11.0293 C   0  0  0  0  0  0  0  0  0  0  0  0
   27.4207  -20.7736  -10.3202 C   0  0  0  0  0  0  0  0  0  0  0  0
   28.4902  -21.4741  -10.8544 C   0  0  0  0  0  0  0  0  0  0  0  0
   29.4203  -21.6049   -9.9048 N   0  0  0  0  0  0  0  0  0  0  0  0
   29.0094  -21.0168   -8.7554 C   0  0  0  0  0  0  0  0  0  0  0  0
   29.6321  -20.9084   -7.5296 C   0  0  0  0  0  0  0  0  0  0  0  0
   28.9621  -20.2475   -6.5246 C   0  0  0  0  0  0  0  0  0  0  0  0
   27.7023  -19.7067   -6.7315 C   0  0  0  0  0  0  0  0  0  0  0  0
   27.1205  -19.8394   -7.9706 C   0  0  0  0  0  0  0  0  0  0  0  0
   27.7661  -20.5009   -9.0157 C   0  0  0  0  0  0  0  0  0  0  0  0
   24.5229  -20.8027  -12.7266 C   0  0  0  0  0  0  0  0  0  0  0  0
   24.2637  -19.7438  -13.3501 O   0  0  0  0  0  0  0  0  0  0  0  0
   16.2059  -22.5003  -14.8504 O   0  0  0  0  0  0  0  0  0  0  0  0
   17.5604  -22.5568  -14.5109 C   0  0  0  0  0  0  0  0  0  0  0  0
   17.8699  -23.0461  -13.2554 C   0  0  0  0  0  0  0  0  0  0  0  0
   19.1882  -23.1250  -12.8665 C   0  0  0  0  0  0  0  0  0  0  0  0
   20.1963  -22.7185  -13.7229 C   0  0  0  0  0  0  0  0  0  0  0  0
   21.5789  -22.8259  -13.2393 C   0  0  0  0  0  0  0  0  0  0  0  0
   22.1396  -21.4810  -12.8075 C   0  0  2  0  0  0  0  0  0  0  0  0
   23.5076  -21.7299  -12.4126 N   0  0  0  0  0  0  0  0  0  0  0  0
   21.3800  -20.8932  -11.6673 C   0  0  0  0  0  0  0  0  0  0  0  0
   21.7042  -21.1739  -10.4851 O   0  0  0  0  0  0  0  0  0  0  0  0
   19.8862  -22.2357  -14.9617 C   0  0  0  0  0  0  0  0  0  0  0  0
   18.5714  -22.1604  -15.3416 C   0  0  0  0  0  0  0  0  0  0  0  0
   20.3191  -20.0396  -11.8483 O   0  0  0  0  0  0  0  0  0  0  0  0
  2  3  1  1
  2  4  1  0
  2  1  1  0
  4  5  1  0
  5  6  1  6
  7  5  1  0
  8  7  2  0
  9  7  1  0
 10 21  1  0
 10  9  1  0
 10 11  1  1
 12 11  1  0
 13 12  2  0
 14 13  1  0
 15 14  1  0
 15 20  2  0
 16 17  2  0
 16 15  1  0
 17 18  1  0
 18 19  2  0
 20 19  1  0
 20 12  1  0
 21 30  1  0
 22 21  2  0
 23 24  1  0
 24 25  2  0
 25 26  1  0
 27 26  2  0
 27 28  1  0
 29 28  1  1
 29 31  1  0
 30 29  1  0
 31 32  2  0
 31 35  1  0
 33 27  1  0
 34 24  1  0
 34 33  2  0
M  END
$$$$
