LWY.pdb
     RDKit          3D

 35 37  0  0  1  0  0  0  0  0999 V2000
   23.8228  -12.8659  -23.0310 C   0  0  0  0  0  0  0  0  0  0  0  0
   24.4670  -11.8861  -22.0769 C   0  0  1  0  0  0  0  0  0  0  0  0
   24.7268  -10.5613  -22.7446 C   0  0  0  0  0  0  0  0  0  0  0  0
   23.6243  -11.6841  -20.8188 C   0  0  0  0  0  0  0  0  0  0  0  0
   24.4098  -10.7350  -19.9377 C   0  0  2  0  0  0  0  0  0  0  0  0
   25.6914  -11.3319  -19.6332 N   0  0  0  0  0  0  0  0  0  0  0  0
   23.6751  -10.3727  -18.7061 C   0  0  0  0  0  0  0  0  0  0  0  0
   22.5086   -9.9300  -18.8253 O   0  0  0  0  0  0  0  0  0  0  0  0
   24.1973  -10.4900  -17.3959 N   0  0  0  0  0  0  0  0  0  0  0  0
   23.4549  -10.2370  -16.2181 C   0  0  1  0  0  0  0  0  0  0  0  0
   23.8248  -10.9732  -14.9846 C   0  0  0  0  0  0  0  0  0  0  0  0
   23.8131  -12.4585  -15.1161 C   0  0  0  0  0  0  0  0  0  0  0  0
   24.8259  -13.3293  -14.7476 C   0  0  0  0  0  0  0  0  0  0  0  0
   24.4228  -14.5750  -15.0114 N   0  0  0  0  0  0  0  0  0  0  0  0
   23.1767  -14.5666  -15.5434 C   0  0  0  0  0  0  0  0  0  0  0  0
   22.3738  -15.6052  -15.9662 C   0  0  0  0  0  0  0  0  0  0  0  0
   21.1341  -15.2923  -16.4771 C   0  0  0  0  0  0  0  0  0  0  0  0
   20.7013  -13.9780  -16.5666 C   0  0  0  0  0  0  0  0  0  0  0  0
   21.5364  -12.9752  -16.1326 C   0  0  0  0  0  0  0  0  0  0  0  0
   22.7997  -13.2501  -15.6079 C   0  0  0  0  0  0  0  0  0  0  0  0
   23.3908   -8.7856  -15.8705 C   0  0  0  0  0  0  0  0  0  0  0  0
   24.4117   -8.0581  -15.9456 O   0  0  0  0  0  0  0  0  0  0  0  0
   21.2512   -0.6076  -16.0131 O   0  0  0  0  0  0  0  0  0  0  0  0
   21.3877   -1.9910  -16.1560 C   0  0  0  0  0  0  0  0  0  0  0  0
   22.6337   -2.5270  -15.8881 C   0  0  0  0  0  0  0  0  0  0  0  0
   22.8268   -3.8844  -16.0120 C   0  0  0  0  0  0  0  0  0  0  0  0
   21.7846   -4.7072  -16.4014 C   0  0  0  0  0  0  0  0  0  0  0  0
   22.0644   -6.1442  -16.5180 C   0  0  0  0  0  0  0  0  0  0  0  0
   22.0106   -6.8481  -15.1721 C   0  0  2  0  0  0  0  0  0  0  0  0
   22.1500   -8.2585  -15.4563 N   0  0  0  0  0  0  0  0  0  0  0  0
   20.7273   -6.5979  -14.4559 C   0  0  0  0  0  0  0  0  0  0  0  0
   19.7150   -7.2967  -14.7177 O   0  0  0  0  0  0  0  0  0  0  0  0
   20.5558   -4.1737  -16.6653 C   0  0  0  0  0  0  0  0  0  0  0  0
   20.3715   -2.8214  -16.5394 C   0  0  0  0  0  0  0  0  0  0  0  0
   20.5927   -5.6195  -13.5012 O   0  0  0  0  0  0  0  0  0  0  0  0
  2  3  1  6
  2  4  1  0
  2  1  1  0
  4  5  1  0
  5  6  1  1
  7  5  1  0
  8  7  2  0
  9  7  1  0
 10 21  1  0
 10  9  1  0
 10 11  1  1
 12 11  1  0
 13 12  2  0
 14 13  1  0
 15 14  1  0
 15 20  2  0
 16 17  2  0
 16 15  1  0
 17 18  1  0
 18 19  2  0
 20 19  1  0
 20 12  1  0
 21 30  1  0
 22 21  2  0
 23 24  1  0
 24 25  2  0
 25 26  1  0
 27 26  2  0
 27 28  1  0
 29 28  1  6
 29 31  1  0
 30 29  1  0
 31 32  2  0
 31 35  1  0
 33 27  1  0
 34 24  1  0
 34 33  2  0
M  END
$$$$
