LWY.pdb
     RDKit          3D

 35 37  0  0  1  0  0  0  0  0999 V2000
   33.2130  -25.4295  -16.9881 C   0  0  0  0  0  0  0  0  0  0  0  0
   31.8997  -25.0407  -17.6281 C   0  0  1  0  0  0  0  0  0  0  0  0
   31.2052  -26.2368  -18.2241 C   0  0  0  0  0  0  0  0  0  0  0  0
   30.9746  -24.3353  -16.6381 C   0  0  0  0  0  0  0  0  0  0  0  0
   29.7374  -23.9512  -17.4229 C   0  0  2  0  0  0  0  0  0  0  0  0
   30.1392  -23.4923  -18.7343 N   0  0  0  0  0  0  0  0  0  0  0  0
   28.9188  -22.9379  -16.7222 C   0  0  0  0  0  0  0  0  0  0  0  0
   28.4383  -23.2397  -15.6047 O   0  0  0  0  0  0  0  0  0  0  0  0
   28.6371  -21.6455  -17.2257 N   0  0  0  0  0  0  0  0  0  0  0  0
   27.9297  -20.6501  -16.5107 C   0  0  1  0  0  0  0  0  0  0  0  0
   28.1098  -19.2346  -16.9158 C   0  0  0  0  0  0  0  0  0  0  0  0
   27.4611  -18.2393  -16.0147 C   0  0  0  0  0  0  0  0  0  0  0  0
   27.5777  -18.1732  -14.6356 C   0  0  0  0  0  0  0  0  0  0  0  0
   26.8590  -17.1331  -14.2046 N   0  0  0  0  0  0  0  0  0  0  0  0
   26.2665  -16.5027  -15.2474 C   0  0  0  0  0  0  0  0  0  0  0  0
   25.4409  -15.3983  -15.2775 C   0  0  0  0  0  0  0  0  0  0  0  0
   24.9763  -14.9764  -16.5030 C   0  0  0  0  0  0  0  0  0  0  0  0
   25.3229  -15.6361  -17.6722 C   0  0  0  0  0  0  0  0  0  0  0  0
   26.1488  -16.7329  -17.5934 C   0  0  0  0  0  0  0  0  0  0  0  0
   26.6417  -17.1921  -16.3715 C   0  0  0  0  0  0  0  0  0  0  0  0
   26.4607  -20.9132  -16.4451 C   0  0  0  0  0  0  0  0  0  0  0  0
   25.8036  -21.1688  -17.4845 O   0  0  0  0  0  0  0  0  0  0  0  0
   18.7361  -22.5369  -12.6176 O   0  0  0  0  0  0  0  0  0  0  0  0
   20.0794  -22.2302  -12.8506 C   0  0  0  0  0  0  0  0  0  0  0  0
   20.8640  -23.2315  -13.3923 C   0  0  0  0  0  0  0  0  0  0  0  0
   22.1952  -22.9862  -13.6437 C   0  0  0  0  0  0  0  0  0  0  0  0
   22.7454  -21.7492  -13.3573 C   0  0  0  0  0  0  0  0  0  0  0  0
   24.1728  -21.5605  -13.6463 C   0  0  0  0  0  0  0  0  0  0  0  0
   24.4083  -21.0609  -15.0622 C   0  0  2  0  0  0  0  0  0  0  0  0
   25.8356  -20.8660  -15.1818 N   0  0  0  0  0  0  0  0  0  0  0  0
   23.6955  -19.7800  -15.3339 C   0  0  0  0  0  0  0  0  0  0  0  0
   24.1771  -18.6935  -14.9227 O   0  0  0  0  0  0  0  0  0  0  0  0
   21.9670  -20.7634  -12.8222 C   0  0  0  0  0  0  0  0  0  0  0  0
   20.6426  -21.0153  -12.5750 C   0  0  0  0  0  0  0  0  0  0  0  0
   22.5114  -19.7265  -16.0281 O   0  0  0  0  0  0  0  0  0  0  0  0
  2  3  1  1
  2  4  1  0
  2  1  1  0
  4  5  1  0
  5  6  1  6
  7  5  1  0
  8  7  2  0
  9  7  1  0
 10 21  1  0
 10  9  1  0
 10 11  1  6
 12 11  1  0
 13 12  2  0
 14 13  1  0
 15 14  1  0
 15 20  2  0
 16 17  2  0
 16 15  1  0
 17 18  1  0
 18 19  2  0
 20 19  1  0
 20 12  1  0
 21 30  1  0
 22 21  2  0
 23 24  1  0
 24 25  2  0
 25 26  1  0
 27 26  2  0
 27 28  1  0
 29 28  1  1
 29 31  1  0
 30 29  1  0
 31 32  2  0
 31 35  1  0
 33 27  1  0
 34 24  1  0
 34 33  2  0
M  END
$$$$
