LWY.pdb
     RDKit          3D

 35 37  0  0  1  0  0  0  0  0999 V2000
   30.9720  -23.9049   -7.7894 C   0  0  0  0  0  0  0  0  0  0  0  0
   31.0749  -22.5360   -8.4227 C   0  0  1  0  0  0  0  0  0  0  0  0
   32.3500  -22.3915   -9.2111 C   0  0  0  0  0  0  0  0  0  0  0  0
   29.8703  -22.2316   -9.3114 C   0  0  0  0  0  0  0  0  0  0  0  0
   30.0769  -20.8226   -9.8273 C   0  0  2  0  0  0  0  0  0  0  0  0
   30.0672  -19.9082   -8.7069 N   0  0  0  0  0  0  0  0  0  0  0  0
   29.0724  -20.4430  -10.8445 C   0  0  0  0  0  0  0  0  0  0  0  0
   27.9565  -20.0346  -10.4461 O   0  0  0  0  0  0  0  0  0  0  0  0
   29.2815  -20.5087  -12.2428 N   0  0  0  0  0  0  0  0  0  0  0  0
   28.3771  -20.0037  -13.2068 C   0  0  1  0  0  0  0  0  0  0  0  0
   28.8749  -19.7817  -14.5865 C   0  0  0  0  0  0  0  0  0  0  0  0
   27.9150  -19.0891  -15.4932 C   0  0  0  0  0  0  0  0  0  0  0  0
   27.3678  -17.8291  -15.3113 C   0  0  0  0  0  0  0  0  0  0  0  0
   26.5705  -17.5657  -16.3499 N   0  0  0  0  0  0  0  0  0  0  0  0
   26.5658  -18.6055  -17.2187 C   0  0  0  0  0  0  0  0  0  0  0  0
   25.8947  -18.7760  -18.4115 C   0  0  0  0  0  0  0  0  0  0  0  0
   26.0812  -19.9593  -19.0903 C   0  0  0  0  0  0  0  0  0  0  0  0
   26.9146  -20.9511  -18.5961 C   0  0  0  0  0  0  0  0  0  0  0  0
   27.5631  -20.7366  -17.4025 C   0  0  0  0  0  0  0  0  0  0  0  0
   27.4018  -19.5514  -16.6842 C   0  0  0  0  0  0  0  0  0  0  0  0
   27.1234  -20.8096  -13.3079 C   0  0  0  0  0  0  0  0  0  0  0  0
   27.1577  -22.0644  -13.2684 O   0  0  0  0  0  0  0  0  0  0  0  0
   18.4782  -22.2687  -13.1635 O   0  0  0  0  0  0  0  0  0  0  0  0
   19.7388  -21.6657  -13.1799 C   0  0  0  0  0  0  0  0  0  0  0  0
   20.5289  -21.8388  -12.0585 C   0  0  0  0  0  0  0  0  0  0  0  0
   21.7808  -21.2675  -12.0186 C   0  0  0  0  0  0  0  0  0  0  0  0
   22.2465  -20.5261  -13.0902 C   0  0  0  0  0  0  0  0  0  0  0  0
   23.5890  -19.9418  -12.9760 C   0  0  0  0  0  0  0  0  0  0  0  0
   24.6581  -20.8453  -13.5679 C   0  0  2  0  0  0  0  0  0  0  0  0
   25.9020  -20.1187  -13.4487 N   0  0  0  0  0  0  0  0  0  0  0  0
   24.3935  -21.1694  -14.9989 C   0  0  0  0  0  0  0  0  0  0  0  0
   24.2818  -22.3685  -15.3612 O   0  0  0  0  0  0  0  0  0  0  0  0
   21.4630  -20.3576  -14.1956 C   0  0  0  0  0  0  0  0  0  0  0  0
   20.2178  -20.9296  -14.2277 C   0  0  0  0  0  0  0  0  0  0  0  0
   24.2617  -20.2005  -15.9635 O   0  0  0  0  0  0  0  0  0  0  0  0
  2  3  1  6
  2  4  1  0
  2  1  1  0
  4  5  1  0
  5  6  1  1
  7  5  1  0
  8  7  2  0
  9  7  1  0
 10 21  1  0
 10  9  1  0
 10 11  1  6
 12 11  1  0
 13 12  2  0
 14 13  1  0
 15 14  1  0
 15 20  2  0
 16 17  2  0
 16 15  1  0
 17 18  1  0
 18 19  2  0
 20 19  1  0
 20 12  1  0
 21 30  1  0
 22 21  2  0
 23 24  1  0
 24 25  2  0
 25 26  1  0
 27 26  2  0
 27 28  1  0
 29 28  1  6
 29 31  1  0
 30 29  1  0
 31 32  2  0
 31 35  1  0
 33 27  1  0
 34 24  1  0
 34 33  2  0
M  END
$$$$
