LWY.pdb
     RDKit          3D

 35 37  0  0  1  0  0  0  0  0999 V2000
   30.1986  -19.7578  -15.9474 C   0  0  0  0  0  0  0  0  0  0  0  0
   28.9217  -19.3419  -15.2533 C   0  0  1  0  0  0  0  0  0  0  0  0
   28.0335  -18.5443  -16.1717 C   0  0  0  0  0  0  0  0  0  0  0  0
   28.1603  -20.5452  -14.7003 C   0  0  0  0  0  0  0  0  0  0  0  0
   28.5689  -20.6663  -13.2468 C   0  0  2  0  0  0  0  0  0  0  0  0
   29.6379  -21.6346  -13.1405 N   0  0  0  0  0  0  0  0  0  0  0  0
   27.4308  -21.0181  -12.3700 C   0  0  0  0  0  0  0  0  0  0  0  0
   26.9648  -22.1790  -12.4476 O   0  0  0  0  0  0  0  0  0  0  0  0
   26.8263  -20.1333  -11.4453 N   0  0  0  0  0  0  0  0  0  0  0  0
   25.7352  -20.4770  -10.6123 C   0  0  1  0  0  0  0  0  0  0  0  0
   25.6136  -19.7961   -9.3001 C   0  0  0  0  0  0  0  0  0  0  0  0
   26.8907  -19.6698   -8.5409 C   0  0  0  0  0  0  0  0  0  0  0  0
   28.0214  -18.9727   -8.9351 C   0  0  0  0  0  0  0  0  0  0  0  0
   28.9409  -19.0892   -7.9733 N   0  0  0  0  0  0  0  0  0  0  0  0
   28.4640  -19.8398   -6.9511 C   0  0  0  0  0  0  0  0  0  0  0  0
   29.0554  -20.2211   -5.7648 C   0  0  0  0  0  0  0  0  0  0  0  0
   28.3199  -21.0025   -4.9022 C   0  0  0  0  0  0  0  0  0  0  0  0
   27.0268  -21.3970   -5.2101 C   0  0  0  0  0  0  0  0  0  0  0  0
   26.4783  -20.9926   -6.4047 C   0  0  0  0  0  0  0  0  0  0  0  0
   27.1896  -20.1999   -7.3060 C   0  0  0  0  0  0  0  0  0  0  0  0
   24.4156  -20.3577  -11.3022 C   0  0  0  0  0  0  0  0  0  0  0  0
   24.1853  -19.4120  -12.0959 O   0  0  0  0  0  0  0  0  0  0  0  0
   16.5464  -23.3764  -13.9913 O   0  0  0  0  0  0  0  0  0  0  0  0
   17.8050  -23.1457  -13.4294 C   0  0  0  0  0  0  0  0  0  0  0  0
   18.5082  -24.2541  -12.9953 C   0  0  0  0  0  0  0  0  0  0  0  0
   19.7539  -24.0873  -12.4335 C   0  0  0  0  0  0  0  0  0  0  0  0
   20.2995  -22.8223  -12.3033 C   0  0  0  0  0  0  0  0  0  0  0  0
   21.6299  -22.7193  -11.6899 C   0  0  0  0  0  0  0  0  0  0  0  0
   22.1535  -21.2926  -11.6961 C   0  0  2  0  0  0  0  0  0  0  0  0
   23.4381  -21.3386  -11.0352 N   0  0  0  0  0  0  0  0  0  0  0  0
   21.2445  -20.3553  -10.9765 C   0  0  0  0  0  0  0  0  0  0  0  0
   20.4367  -19.6418  -11.6246 O   0  0  0  0  0  0  0  0  0  0  0  0
   19.6016  -21.7304  -12.7331 C   0  0  0  0  0  0  0  0  0  0  0  0
   18.3621  -21.9047  -13.2915 C   0  0  0  0  0  0  0  0  0  0  0  0
   21.2450  -20.2300   -9.6087 O   0  0  0  0  0  0  0  0  0  0  0  0
  2  3  1  6
  2  4  1  0
  2  1  1  0
  4  5  1  0
  5  6  1  6
  7  5  1  0
  8  7  2  0
  9  7  1  0
 10 21  1  0
 10  9  1  0
 10 11  1  1
 12 11  1  0
 13 12  2  0
 14 13  1  0
 15 14  1  0
 15 20  2  0
 16 17  2  0
 16 15  1  0
 17 18  1  0
 18 19  2  0
 20 19  1  0
 20 12  1  0
 21 30  1  0
 22 21  2  0
 23 24  1  0
 24 25  2  0
 25 26  1  0
 27 26  2  0
 27 28  1  0
 29 28  1  1
 29 31  1  0
 30 29  1  0
 31 32  2  0
 31 35  1  0
 33 27  1  0
 34 24  1  0
 34 33  2  0
M  END
$$$$
