LWY.pdb
     RDKit          3D

 35 37  0  0  1  0  0  0  0  0999 V2000
   29.7206  -16.7584  -17.1800 C   0  0  0  0  0  0  0  0  0  0  0  0
   28.4291  -17.2304  -17.8083 C   0  0  1  0  0  0  0  0  0  0  0  0
   28.5360  -18.6591  -18.2730 C   0  0  0  0  0  0  0  0  0  0  0  0
   27.2459  -17.0751  -16.8546 C   0  0  0  0  0  0  0  0  0  0  0  0
   26.0476  -17.6544  -17.5777 C   0  0  2  0  0  0  0  0  0  0  0  0
   25.8069  -16.8825  -18.7768 N   0  0  0  0  0  0  0  0  0  0  0  0
   24.8448  -17.7091  -16.7186 C   0  0  0  0  0  0  0  0  0  0  0  0
   24.8124  -16.9744  -15.7037 O   0  0  0  0  0  0  0  0  0  0  0  0
   23.7221  -18.5361  -16.9610 N   0  0  0  0  0  0  0  0  0  0  0  0
   22.5492  -18.5372  -16.1693 C   0  0  1  0  0  0  0  0  0  0  0  0
   21.2463  -18.3271  -16.8465 C   0  0  0  0  0  0  0  0  0  0  0  0
   21.0014  -16.9316  -17.3112 C   0  0  0  0  0  0  0  0  0  0  0  0
   21.9588  -16.0133  -17.7113 C   0  0  0  0  0  0  0  0  0  0  0  0
   21.3350  -14.8875  -18.0681 N   0  0  0  0  0  0  0  0  0  0  0  0
   19.9948  -15.0217  -17.9199 C   0  0  0  0  0  0  0  0  0  0  0  0
   18.9710  -14.1292  -18.1600 C   0  0  0  0  0  0  0  0  0  0  0  0
   17.6829  -14.5466  -17.9104 C   0  0  0  0  0  0  0  0  0  0  0  0
   17.4170  -15.8209  -17.4329 C   0  0  0  0  0  0  0  0  0  0  0  0
   18.4700  -16.6766  -17.2082 C   0  0  0  0  0  0  0  0  0  0  0  0
   19.7896  -16.2928  -17.4491 C   0  0  0  0  0  0  0  0  0  0  0  0
   22.4204  -19.7599  -15.3208 C   0  0  0  0  0  0  0  0  0  0  0  0
   22.8189  -20.8770  -15.7335 O   0  0  0  0  0  0  0  0  0  0  0  0
   16.4465  -18.1199  -10.6213 O   0  0  0  0  0  0  0  0  0  0  0  0
   17.7218  -18.5928  -10.9421 C   0  0  0  0  0  0  0  0  0  0  0  0
   18.0245  -19.8852  -10.5552 C   0  0  0  0  0  0  0  0  0  0  0  0
   19.2662  -20.4045  -10.8449 C   0  0  0  0  0  0  0  0  0  0  0  0
   20.2047  -19.6414  -11.5172 C   0  0  0  0  0  0  0  0  0  0  0  0
   21.5099  -20.2582  -11.7875 C   0  0  0  0  0  0  0  0  0  0  0  0
   21.6116  -20.7804  -13.2111 C   0  0  2  0  0  0  0  0  0  0  0  0
   21.8384  -19.6208  -14.0437 N   0  0  0  0  0  0  0  0  0  0  0  0
   20.3698  -21.4826  -13.6441 C   0  0  0  0  0  0  0  0  0  0  0  0
   20.1781  -22.6809  -13.3142 O   0  0  0  0  0  0  0  0  0  0  0  0
   19.9016  -18.3656  -11.8972 C   0  0  0  0  0  0  0  0  0  0  0  0
   18.6632  -17.8559  -11.6053 C   0  0  0  0  0  0  0  0  0  0  0  0
   19.4017  -20.8710  -14.4026 O   0  0  0  0  0  0  0  0  0  0  0  0
  2  3  1  1
  2  4  1  0
  2  1  1  0
  4  5  1  0
  5  6  1  6
  7  5  1  0
  8  7  2  0
  9  7  1  0
 10 21  1  0
 10  9  1  0
 10 11  1  6
 12 11  1  0
 13 12  2  0
 14 13  1  0
 15 14  1  0
 15 20  2  0
 16 17  2  0
 16 15  1  0
 17 18  1  0
 18 19  2  0
 20 19  1  0
 20 12  1  0
 21 30  1  0
 22 21  2  0
 23 24  1  0
 24 25  2  0
 25 26  1  0
 27 26  2  0
 27 28  1  0
 29 28  1  1
 29 31  1  0
 30 29  1  0
 31 32  2  0
 31 35  1  0
 33 27  1  0
 34 24  1  0
 34 33  2  0
M  END
$$$$
