LWY.pdb
     RDKit          3D

 35 37  0  0  1  0  0  0  0  0999 V2000
   28.6506  -23.9986  -16.7405 C   0  0  0  0  0  0  0  0  0  0  0  0
   28.1587  -22.6529  -16.2581 C   0  0  1  0  0  0  0  0  0  0  0  0
   27.6271  -21.8233  -17.3972 C   0  0  0  0  0  0  0  0  0  0  0  0
   27.0951  -22.7958  -15.1709 C   0  0  0  0  0  0  0  0  0  0  0  0
   26.8986  -21.4092  -14.5939 C   0  0  2  0  0  0  0  0  0  0  0  0
   28.1356  -20.6705  -14.7198 N   0  0  0  0  0  0  0  0  0  0  0  0
   26.4297  -21.4448  -13.1915 C   0  0  0  0  0  0  0  0  0  0  0  0
   25.3580  -22.0458  -12.9442 O   0  0  0  0  0  0  0  0  0  0  0  0
   27.1074  -20.8454  -12.1030 N   0  0  0  0  0  0  0  0  0  0  0  0
   26.6194  -20.8274  -10.7749 C   0  0  1  0  0  0  0  0  0  0  0  0
   27.5916  -20.6218   -9.6736 C   0  0  0  0  0  0  0  0  0  0  0  0
   27.0455  -20.8563   -8.3060 C   0  0  0  0  0  0  0  0  0  0  0  0
   26.1221  -21.8218   -7.9388 C   0  0  0  0  0  0  0  0  0  0  0  0
   25.9056  -21.7150   -6.6251 N   0  0  0  0  0  0  0  0  0  0  0  0
   26.6518  -20.7120   -6.1025 C   0  0  0  0  0  0  0  0  0  0  0  0
   26.7481  -20.2449   -4.8083 C   0  0  0  0  0  0  0  0  0  0  0  0
   27.6001  -19.1905   -4.5675 C   0  0  0  0  0  0  0  0  0  0  0  0
   28.3396  -18.6125   -5.5881 C   0  0  0  0  0  0  0  0  0  0  0  0
   28.2109  -19.1118   -6.8631 C   0  0  0  0  0  0  0  0  0  0  0  0
   27.3593  -20.1794   -7.1490 C   0  0  0  0  0  0  0  0  0  0  0  0
   25.5060  -19.8515  -10.5767 C   0  0  0  0  0  0  0  0  0  0  0  0
   25.6250  -18.6544  -10.9373 O   0  0  0  0  0  0  0  0  0  0  0  0
   18.2387  -18.9973  -14.6234 O   0  0  0  0  0  0  0  0  0  0  0  0
   19.3845  -19.3303  -13.8959 C   0  0  0  0  0  0  0  0  0  0  0  0
   20.5716  -19.4069  -14.6004 C   0  0  0  0  0  0  0  0  0  0  0  0
   21.7328  -19.7308  -13.9356 C   0  0  0  0  0  0  0  0  0  0  0  0
   21.7145  -19.9781  -12.5742 C   0  0  0  0  0  0  0  0  0  0  0  0
   22.9894  -20.3232  -11.9322 C   0  0  0  0  0  0  0  0  0  0  0  0
   23.0293  -19.8963  -10.4741 C   0  0  2  0  0  0  0  0  0  0  0  0
   24.3187  -20.3155   -9.9732 N   0  0  0  0  0  0  0  0  0  0  0  0
   21.9424  -20.5271   -9.6720 C   0  0  0  0  0  0  0  0  0  0  0  0
   20.8428  -19.9340   -9.5278 O   0  0  0  0  0  0  0  0  0  0  0  0
   20.5399  -19.9016  -11.8824 C   0  0  0  0  0  0  0  0  0  0  0  0
   19.3881  -19.5784  -12.5514 C   0  0  0  0  0  0  0  0  0  0  0  0
   22.0855  -21.7530   -9.0693 O   0  0  0  0  0  0  0  0  0  0  0  0
  2  3  1  6
  2  4  1  0
  2  1  1  0
  4  5  1  0
  5  6  1  1
  7  5  1  0
  8  7  2  0
  9  7  1  0
 10 21  1  0
 10  9  1  0
 10 11  1  1
 12 11  1  0
 13 12  2  0
 14 13  1  0
 15 14  1  0
 15 20  2  0
 16 17  2  0
 16 15  1  0
 17 18  1  0
 18 19  2  0
 20 19  1  0
 20 12  1  0
 21 30  1  0
 22 21  2  0
 23 24  1  0
 24 25  2  0
 25 26  1  0
 27 26  2  0
 27 28  1  0
 29 28  1  6
 29 31  1  0
 30 29  1  0
 31 32  2  0
 31 35  1  0
 33 27  1  0
 34 24  1  0
 34 33  2  0
M  END
$$$$
