LWY.pdb
     RDKit          3D

 35 37  0  0  1  0  0  0  0  0999 V2000
   30.6301  -21.9912  -16.8595 C   0  0  0  0  0  0  0  0  0  0  0  0
   29.6557  -20.9819  -16.2961 C   0  0  1  0  0  0  0  0  0  0  0  0
   28.9269  -20.2521  -17.3936 C   0  0  0  0  0  0  0  0  0  0  0  0
   28.6548  -21.6326  -15.3429 C   0  0  0  0  0  0  0  0  0  0  0  0
   27.7394  -20.5202  -14.8751 C   0  0  2  0  0  0  0  0  0  0  0  0
   28.5437  -19.4584  -14.3118 N   0  0  0  0  0  0  0  0  0  0  0  0
   26.7214  -20.9965  -13.9136 C   0  0  0  0  0  0  0  0  0  0  0  0
   26.0313  -21.9930  -14.2323 O   0  0  0  0  0  0  0  0  0  0  0  0
   26.4685  -20.4044  -12.6531 N   0  0  0  0  0  0  0  0  0  0  0  0
   25.4762  -20.8517  -11.7489 C   0  0  1  0  0  0  0  0  0  0  0  0
   25.5718  -20.4195  -10.3332 C   0  0  0  0  0  0  0  0  0  0  0  0
   26.8642  -20.7472   -9.6657 C   0  0  0  0  0  0  0  0  0  0  0  0
   27.9290  -21.4392  -10.2200 C   0  0  0  0  0  0  0  0  0  0  0  0
   28.9020  -21.5099   -9.3077 N   0  0  0  0  0  0  0  0  0  0  0  0
   28.5243  -20.8896   -8.1638 C   0  0  0  0  0  0  0  0  0  0  0  0
   29.1954  -20.7189   -6.9711 C   0  0  0  0  0  0  0  0  0  0  0  0
   28.5508  -20.0382   -5.9627 C   0  0  0  0  0  0  0  0  0  0  0  0
   27.2689  -19.5386   -6.1341 C   0  0  0  0  0  0  0  0  0  0  0  0
   26.6387  -19.7330   -7.3410 C   0  0  0  0  0  0  0  0  0  0  0  0
   27.2573  -20.4166   -8.3883 C   0  0  0  0  0  0  0  0  0  0  0  0
   24.0880  -20.5554  -12.2144 C   0  0  0  0  0  0  0  0  0  0  0  0
   23.7369  -19.3821  -12.4920 O   0  0  0  0  0  0  0  0  0  0  0  0
   15.9629  -22.6374  -14.9247 O   0  0  0  0  0  0  0  0  0  0  0  0
   17.3218  -22.6098  -14.5994 C   0  0  0  0  0  0  0  0  0  0  0  0
   17.7312  -23.4204  -13.5569 C   0  0  0  0  0  0  0  0  0  0  0  0
   19.0587  -23.4344  -13.1923 C   0  0  0  0  0  0  0  0  0  0  0  0
   19.9770  -22.6449  -13.8619 C   0  0  0  0  0  0  0  0  0  0  0  0
   21.3747  -22.7065  -13.4155 C   0  0  0  0  0  0  0  0  0  0  0  0
   21.8270  -21.4064  -12.7713 C   0  0  2  0  0  0  0  0  0  0  0  0
   23.1855  -21.6327  -12.3325 N   0  0  0  0  0  0  0  0  0  0  0  0
   20.9737  -21.0262  -11.6093 C   0  0  0  0  0  0  0  0  0  0  0  0
   21.2599  -21.4413  -10.4572 O   0  0  0  0  0  0  0  0  0  0  0  0
   19.5683  -21.8457  -14.8907 C   0  0  0  0  0  0  0  0  0  0  0  0
   18.2450  -21.8375  -15.2477 C   0  0  0  0  0  0  0  0  0  0  0  0
   19.8650  -20.2256  -11.7377 O   0  0  0  0  0  0  0  0  0  0  0  0
  2  3  1  6
  2  4  1  0
  2  1  1  0
  4  5  1  0
  5  6  1  1
  7  5  1  0
  8  7  2  0
  9  7  1  0
 10 21  1  0
 10  9  1  0
 10 11  1  1
 12 11  1  0
 13 12  2  0
 14 13  1  0
 15 14  1  0
 15 20  2  0
 16 17  2  0
 16 15  1  0
 17 18  1  0
 18 19  2  0
 20 19  1  0
 20 12  1  0
 21 30  1  0
 22 21  2  0
 23 24  1  0
 24 25  2  0
 25 26  1  0
 27 26  2  0
 27 28  1  0
 29 28  1  1
 29 31  1  0
 30 29  1  0
 31 32  2  0
 31 35  1  0
 33 27  1  0
 34 24  1  0
 34 33  2  0
M  END
$$$$
