TDY.pdb
     RDKit          3D

 28 28  0  0  1  0  0  0  0  0999 V2000
    9.4218  -12.9345   19.5008 C   0  0  0  0  0  0  0  0  0  0  0  0
    8.3563  -13.5458   18.6284 C   0  0  1  0  0  0  0  0  0  0  0  0
    8.2416  -12.7573   17.4854 O   0  0  0  0  0  0  0  0  0  0  0  0
    8.7737  -14.9527   18.2424 C   0  0  2  0  0  0  0  0  0  0  0  0
    7.8123  -15.5696   17.3602 N   0  0  0  0  0  0  0  0  0  0  0  0
    8.9221  -15.8171   19.4384 C   0  0  0  0  0  0  0  0  0  0  0  0
    7.9017  -16.3081   19.9778 O   0  0  0  0  0  0  0  0  0  0  0  0
   10.1720  -16.1367   20.0322 N   0  0  0  0  0  0  0  0  0  0  0  0
   10.2978  -16.9084   21.2490 C   0  0  1  0  0  0  0  0  0  0  0  0
   11.7017  -17.5254   21.2221 C   0  0  0  0  0  0  0  0  0  0  0  0
   11.8215  -18.5748   20.1894 C   0  0  0  0  0  0  0  0  0  0  0  0
   10.9414  -19.4770   20.0952 O   0  0  0  0  0  0  0  0  0  0  0  0
   10.2652  -15.9656   22.4072 C   0  0  0  0  0  0  0  0  0  0  0  0
   10.5284  -14.7311   22.2495 O   0  0  0  0  0  0  0  0  0  0  0  0
   12.9119  -18.5761   19.3079 O   0  0  0  0  0  0  0  0  0  0  0  0
    5.9196  -11.0436   27.7838 O   0  0  0  0  0  0  0  0  0  0  0  0
    6.4815  -11.9536   26.9109 C   0  0  0  0  0  0  0  0  0  0  0  0
    5.7164  -12.4599   25.9021 C   0  0  0  0  0  0  0  0  0  0  0  0
    6.3123  -13.3674   25.0484 C   0  0  0  0  0  0  0  0  0  0  0  0
    7.6212  -13.7609   25.1874 C   0  0  0  0  0  0  0  0  0  0  0  0
    8.1856  -14.7231   24.2305 C   0  0  0  0  0  0  0  0  0  0  0  0
    9.3916  -15.4713   24.7156 C   0  0  2  0  0  0  0  0  0  0  0  0
    9.9479  -16.3630   23.7274 N   0  0  0  0  0  0  0  0  0  0  0  0
    9.0604  -16.2140   25.9334 C   0  0  0  0  0  0  0  0  0  0  0  0
    9.4083  -15.7604   27.0571 O   0  0  0  0  0  0  0  0  0  0  0  0
    8.3511  -13.2176   26.2260 C   0  0  0  0  0  0  0  0  0  0  0  0
    7.7931  -12.3134   27.0940 C   0  0  0  0  0  0  0  0  0  0  0  0
    8.3654  -17.4172   25.8978 O   0  0  0  0  0  0  0  0  0  0  0  0
  2  1  1  1
  3  2  1  0
  4  2  1  0
  4  5  1  6
  4  6  1  0
  6  7  2  0
  8  6  1  0
  8  9  1  0
  9 13  1  0
  9 10  1  6
 10 11  1  0
 11 12  2  0
 11 15  1  0
 13 14  2  0
 16 17  1  0
 17 27  2  0
 18 17  1  0
 18 19  2  0
 19 20  1  0
 20 26  2  0
 20 21  1  0
 22 21  1  6
 22 24  1  0
 23 13  1  0
 23 22  1  0
 24 28  1  0
 25 24  2  0
 27 26  1  0
M  END
$$$$
