TDY.pdb
     RDKit          3D

 28 28  0  0  1  0  0  0  0  0999 V2000
    6.4033  -13.8132   18.9182 C   0  0  0  0  0  0  0  0  0  0  0  0
    7.6944  -13.7028   18.1495 C   0  0  1  0  0  0  0  0  0  0  0  0
    7.5819  -12.6136   17.2879 O   0  0  0  0  0  0  0  0  0  0  0  0
    8.8362  -13.4729   19.1221 C   0  0  2  0  0  0  0  0  0  0  0  0
   10.0500  -13.0964   18.4380 N   0  0  0  0  0  0  0  0  0  0  0  0
    9.1164  -14.6910   19.9204 C   0  0  0  0  0  0  0  0  0  0  0  0
    8.2366  -15.1408   20.6930 O   0  0  0  0  0  0  0  0  0  0  0  0
   10.3440  -15.4035   19.8703 N   0  0  0  0  0  0  0  0  0  0  0  0
   10.6190  -16.5678   20.6830 C   0  0  1  0  0  0  0  0  0  0  0  0
   11.8368  -17.2536   20.0515 C   0  0  0  0  0  0  0  0  0  0  0  0
   12.1962  -18.4986   20.7607 C   0  0  0  0  0  0  0  0  0  0  0  0
   11.4657  -18.9297   21.6975 O   0  0  0  0  0  0  0  0  0  0  0  0
   11.0423  -16.1037   22.0384 C   0  0  0  0  0  0  0  0  0  0  0  0
   12.0464  -15.3355   22.1793 O   0  0  0  0  0  0  0  0  0  0  0  0
   13.3495  -19.2090   20.3987 O   0  0  0  0  0  0  0  0  0  0  0  0
   11.2306  -14.6061   30.7435 O   0  0  0  0  0  0  0  0  0  0  0  0
   10.8572  -14.8846   29.4440 C   0  0  0  0  0  0  0  0  0  0  0  0
   10.6122  -16.1786   29.0903 C   0  0  0  0  0  0  0  0  0  0  0  0
   10.2407  -16.4190   27.7820 C   0  0  0  0  0  0  0  0  0  0  0  0
   10.1155  -15.4134   26.8544 C   0  0  0  0  0  0  0  0  0  0  0  0
    9.7047  -15.7498   25.4839 C   0  0  0  0  0  0  0  0  0  0  0  0
   10.8267  -16.0833   24.5462 C   0  0  2  0  0  0  0  0  0  0  0  0
   10.3777  -16.4725   23.2316 N   0  0  0  0  0  0  0  0  0  0  0  0
   11.6626  -17.1374   25.1246 C   0  0  0  0  0  0  0  0  0  0  0  0
   11.3152  -18.3441   25.0117 O   0  0  0  0  0  0  0  0  0  0  0  0
   10.3755  -14.1210   27.2652 C   0  0  0  0  0  0  0  0  0  0  0  0
   10.7469  -13.8437   28.5566 C   0  0  0  0  0  0  0  0  0  0  0  0
   12.8429  -16.8549   25.8020 O   0  0  0  0  0  0  0  0  0  0  0  0
  2  1  1  1
  3  2  1  0
  4  2  1  0
  4  5  1  6
  4  6  1  0
  6  7  2  0
  8  6  1  0
  8  9  1  0
  9 13  1  0
  9 10  1  6
 10 11  1  0
 11 12  2  0
 11 15  1  0
 13 14  2  0
 16 17  1  0
 17 27  2  0
 18 17  1  0
 18 19  2  0
 19 20  1  0
 20 26  2  0
 20 21  1  0
 22 21  1  1
 22 24  1  0
 23 13  1  0
 23 22  1  0
 24 28  1  0
 25 24  2  0
 27 26  1  0
M  END
$$$$
