TDY.pdb
     RDKit          3D

 28 28  0  0  1  0  0  0  0  0999 V2000
    8.5102  -12.8014   20.1760 C   0  0  0  0  0  0  0  0  0  0  0  0
    7.8232  -13.4817   19.0205 C   0  0  1  0  0  0  0  0  0  0  0  0
    7.6658  -12.5384   18.0072 O   0  0  0  0  0  0  0  0  0  0  0  0
    8.6902  -14.6255   18.5278 C   0  0  2  0  0  0  0  0  0  0  0  0
    8.1256  -15.2551   17.3582 N   0  0  0  0  0  0  0  0  0  0  0  0
    8.8572  -15.6633   19.5740 C   0  0  0  0  0  0  0  0  0  0  0  0
    8.5455  -16.8519   19.3224 O   0  0  0  0  0  0  0  0  0  0  0  0
    9.3590  -15.3990   20.8762 N   0  0  0  0  0  0  0  0  0  0  0  0
    9.7375  -16.4396   21.8066 C   0  0  1  0  0  0  0  0  0  0  0  0
   10.8268  -17.2633   21.1086 C   0  0  0  0  0  0  0  0  0  0  0  0
   11.3326  -18.3500   21.9720 C   0  0  0  0  0  0  0  0  0  0  0  0
   10.5289  -19.1761   22.4903 O   0  0  0  0  0  0  0  0  0  0  0  0
   10.3788  -15.7969   22.9928 C   0  0  0  0  0  0  0  0  0  0  0  0
   10.8943  -14.6372   22.9057 O   0  0  0  0  0  0  0  0  0  0  0  0
   12.7071  -18.4712   22.2213 O   0  0  0  0  0  0  0  0  0  0  0  0
    6.0622  -10.9464   26.9925 O   0  0  0  0  0  0  0  0  0  0  0  0
    6.6010  -12.1276   26.5233 C   0  0  0  0  0  0  0  0  0  0  0  0
    5.8976  -12.8579   25.6114 C   0  0  0  0  0  0  0  0  0  0  0  0
    6.4681  -14.0335   25.1646 C   0  0  0  0  0  0  0  0  0  0  0  0
    7.6933  -14.4724   25.6046 C   0  0  0  0  0  0  0  0  0  0  0  0
    8.2376  -15.7296   25.0722 C   0  0  0  0  0  0  0  0  0  0  0  0
    9.6771  -15.9911   25.4023 C   0  0  2  0  0  0  0  0  0  0  0  0
   10.4583  -16.4114   24.2646 N   0  0  0  0  0  0  0  0  0  0  0  0
    9.7698  -16.9873   26.4716 C   0  0  0  0  0  0  0  0  0  0  0  0
    9.2578  -16.7456   27.5981 O   0  0  0  0  0  0  0  0  0  0  0  0
    8.3633  -13.6949   26.5283 C   0  0  0  0  0  0  0  0  0  0  0  0
    7.8281  -12.5210   26.9952 C   0  0  0  0  0  0  0  0  0  0  0  0
   10.4088  -18.2081   26.2894 O   0  0  0  0  0  0  0  0  0  0  0  0
  2  1  1  1
  3  2  1  0
  4  2  1  0
  4  5  1  6
  4  6  1  0
  6  7  2  0
  8  6  1  0
  8  9  1  0
  9 13  1  0
  9 10  1  6
 10 11  1  0
 11 12  2  0
 11 15  1  0
 13 14  2  0
 16 17  1  0
 17 27  2  0
 18 17  1  0
 18 19  2  0
 19 20  1  0
 20 26  2  0
 20 21  1  0
 22 21  1  6
 22 24  1  0
 23 13  1  0
 23 22  1  0
 24 28  1  0
 25 24  2  0
 27 26  1  0
M  END
$$$$
