TDY.pdb
     RDKit          3D

 28 28  0  0  1  0  0  0  0  0999 V2000
    8.0142  -12.1051   19.8571 C   0  0  0  0  0  0  0  0  0  0  0  0
    8.4281  -13.2753   20.7110 C   0  0  1  0  0  0  0  0  0  0  0  0
    8.1628  -12.9452   22.0384 O   0  0  0  0  0  0  0  0  0  0  0  0
    7.6179  -14.4950   20.3129 C   0  0  2  0  0  0  0  0  0  0  0  0
    6.2038  -14.2074   20.2826 N   0  0  0  0  0  0  0  0  0  0  0  0
    7.8391  -15.6188   21.2551 C   0  0  0  0  0  0  0  0  0  0  0  0
    6.8962  -16.0106   21.9837 O   0  0  0  0  0  0  0  0  0  0  0  0
    9.0768  -16.3013   21.3944 N   0  0  0  0  0  0  0  0  0  0  0  0
    9.3012  -17.3458   22.3692 C   0  0  1  0  0  0  0  0  0  0  0  0
   10.5476  -18.1077   21.9019 C   0  0  0  0  0  0  0  0  0  0  0  0
   10.2839  -18.8979   20.6820 C   0  0  0  0  0  0  0  0  0  0  0  0
   11.1183  -18.8989   19.7329 O   0  0  0  0  0  0  0  0  0  0  0  0
    9.6534  -16.7037   23.6712 C   0  0  0  0  0  0  0  0  0  0  0  0
   10.5023  -15.7577   23.7221 O   0  0  0  0  0  0  0  0  0  0  0  0
    9.1067  -19.6512   20.5701 O   0  0  0  0  0  0  0  0  0  0  0  0
    6.4514  -10.9366   25.7855 O   0  0  0  0  0  0  0  0  0  0  0  0
    6.9228  -12.1972   26.0927 C   0  0  0  0  0  0  0  0  0  0  0  0
    6.0739  -13.2603   25.9998 C   0  0  0  0  0  0  0  0  0  0  0  0
    6.5807  -14.5059   26.3146 C   0  0  0  0  0  0  0  0  0  0  0  0
    7.8834  -14.6940   26.7079 C   0  0  0  0  0  0  0  0  0  0  0  0
    8.3499  -16.0535   27.0152 C   0  0  0  0  0  0  0  0  0  0  0  0
    9.4960  -16.5383   26.1780 C   0  0  2  0  0  0  0  0  0  0  0  0
    9.0856  -17.0879   24.9087 N   0  0  0  0  0  0  0  0  0  0  0  0
   10.2756  -17.5272   26.9256 C   0  0  0  0  0  0  0  0  0  0  0  0
   10.3721  -18.7066   26.4906 O   0  0  0  0  0  0  0  0  0  0  0  0
    8.7005  -13.5836   26.7854 C   0  0  0  0  0  0  0  0  0  0  0  0
    8.2324  -12.3305   26.4805 C   0  0  0  0  0  0  0  0  0  0  0  0
   10.9243  -17.2105   28.1133 O   0  0  0  0  0  0  0  0  0  0  0  0
  2  1  1  6
  3  2  1  0
  4  2  1  0
  4  5  1  1
  4  6  1  0
  6  7  2  0
  8  6  1  0
  8  9  1  0
  9 13  1  0
  9 10  1  6
 10 11  1  0
 11 12  2  0
 11 15  1  0
 13 14  2  0
 16 17  1  0
 17 27  2  0
 18 17  1  0
 18 19  2  0
 19 20  1  0
 20 26  2  0
 20 21  1  0
 22 21  1  1
 22 24  1  0
 23 13  1  0
 23 22  1  0
 24 28  1  0
 25 24  2  0
 27 26  1  0
M  END
$$$$
