TDY.pdb
     RDKit          3D

 28 28  0  0  1  0  0  0  0  0999 V2000
    8.3202  -12.6470   21.1291 C   0  0  0  0  0  0  0  0  0  0  0  0
    7.7481  -13.0953   19.8094 C   0  0  1  0  0  0  0  0  0  0  0  0
    7.9333  -12.0607   18.8948 O   0  0  0  0  0  0  0  0  0  0  0  0
    8.4873  -14.3346   19.3401 C   0  0  2  0  0  0  0  0  0  0  0  0
    8.0263  -14.7698   18.0435 N   0  0  0  0  0  0  0  0  0  0  0  0
    8.3123  -15.4582   20.2921 C   0  0  0  0  0  0  0  0  0  0  0  0
    7.6990  -16.4896   19.9266 O   0  0  0  0  0  0  0  0  0  0  0  0
    8.8034  -15.4487   21.6247 N   0  0  0  0  0  0  0  0  0  0  0  0
    9.0323  -16.6517   22.3943 C   0  0  1  0  0  0  0  0  0  0  0  0
   10.0310  -17.4922   21.5891 C   0  0  0  0  0  0  0  0  0  0  0  0
   10.3388  -18.7721   22.2593 C   0  0  0  0  0  0  0  0  0  0  0  0
    9.5110  -19.2814   23.0672 O   0  0  0  0  0  0  0  0  0  0  0  0
    9.7180  -16.2711   23.6657 C   0  0  0  0  0  0  0  0  0  0  0  0
   10.8790  -15.7515   23.6490 O   0  0  0  0  0  0  0  0  0  0  0  0
   11.5506  -19.4291   22.0032 O   0  0  0  0  0  0  0  0  0  0  0  0
    5.9174  -11.0732   25.9762 O   0  0  0  0  0  0  0  0  0  0  0  0
    6.6509  -12.2008   26.2865 C   0  0  0  0  0  0  0  0  0  0  0  0
    7.8541  -12.0546   26.9112 C   0  0  0  0  0  0  0  0  0  0  0  0
    8.5595  -13.2048   27.2061 C   0  0  0  0  0  0  0  0  0  0  0  0
    8.0907  -14.4577   26.8937 C   0  0  0  0  0  0  0  0  0  0  0  0
    8.8964  -15.6339   27.2511 C   0  0  0  0  0  0  0  0  0  0  0  0
    9.8210  -16.1233   26.1764 C   0  0  2  0  0  0  0  0  0  0  0  0
    9.1444  -16.4541   24.9459 N   0  0  0  0  0  0  0  0  0  0  0  0
   10.5790  -17.2792   26.6599 C   0  0  0  0  0  0  0  0  0  0  0  0
   10.4753  -18.3875   26.0680 O   0  0  0  0  0  0  0  0  0  0  0  0
    6.8667  -14.5492   26.2612 C   0  0  0  0  0  0  0  0  0  0  0  0
    6.1374  -13.4288   25.9525 C   0  0  0  0  0  0  0  0  0  0  0  0
   11.4224  -17.2000   27.7618 O   0  0  0  0  0  0  0  0  0  0  0  0
  2  1  1  1
  3  2  1  0
  4  2  1  0
  4  5  1  6
  4  6  1  0
  6  7  2  0
  8  6  1  0
  8  9  1  0
  9 13  1  0
  9 10  1  6
 10 11  1  0
 11 12  2  0
 11 15  1  0
 13 14  2  0
 16 17  1  0
 17 27  2  0
 18 17  1  0
 18 19  2  0
 19 20  1  0
 20 26  2  0
 20 21  1  0
 22 21  1  1
 22 24  1  0
 23 13  1  0
 23 22  1  0
 24 28  1  0
 25 24  2  0
 27 26  1  0
M  END
$$$$
