TDY.pdb
     RDKit          3D

 28 28  0  0  1  0  0  0  0  0999 V2000
    9.6499  -13.0227   20.1996 C   0  0  0  0  0  0  0  0  0  0  0  0
    8.3616  -13.3271   19.4800 C   0  0  1  0  0  0  0  0  0  0  0  0
    8.4052  -12.6845   18.2445 O   0  0  0  0  0  0  0  0  0  0  0  0
    8.2462  -14.8263   19.2759 C   0  0  2  0  0  0  0  0  0  0  0  0
    7.0678  -15.1705   18.5170 N   0  0  0  0  0  0  0  0  0  0  0  0
    8.1842  -15.5427   20.5730 C   0  0  0  0  0  0  0  0  0  0  0  0
    7.1174  -15.5373   21.2328 O   0  0  0  0  0  0  0  0  0  0  0  0
    9.2771  -16.2537   21.1360 N   0  0  0  0  0  0  0  0  0  0  0  0
    9.1827  -17.0092   22.3657 C   0  0  1  0  0  0  0  0  0  0  0  0
    9.8520  -18.3615   22.0905 C   0  0  0  0  0  0  0  0  0  0  0  0
    8.8849  -19.3638   21.5987 C   0  0  0  0  0  0  0  0  0  0  0  0
    8.7260  -19.5377   20.3570 O   0  0  0  0  0  0  0  0  0  0  0  0
   10.0112  -16.3229   23.4020 C   0  0  0  0  0  0  0  0  0  0  0  0
   11.2033  -15.9595   23.1468 O   0  0  0  0  0  0  0  0  0  0  0  0
    8.1377  -20.1280   22.5063 O   0  0  0  0  0  0  0  0  0  0  0  0
    4.8366  -12.4866   26.9650 O   0  0  0  0  0  0  0  0  0  0  0  0
    6.1420  -12.8473   26.6975 C   0  0  0  0  0  0  0  0  0  0  0  0
    6.4570  -13.3132   25.4552 C   0  0  0  0  0  0  0  0  0  0  0  0
    7.7726  -13.6640   25.2241 C   0  0  0  0  0  0  0  0  0  0  0  0
    8.7445  -13.5575   26.1893 C   0  0  0  0  0  0  0  0  0  0  0  0
   10.1249  -13.9410   25.8614 C   0  0  0  0  0  0  0  0  0  0  0  0
   10.3609  -15.4157   25.7239 C   0  0  2  0  0  0  0  0  0  0  0  0
    9.5459  -16.0336   24.7063 N   0  0  0  0  0  0  0  0  0  0  0  0
   10.1439  -16.0772   27.0122 C   0  0  0  0  0  0  0  0  0  0  0  0
   10.7921  -15.7008   28.0259 O   0  0  0  0  0  0  0  0  0  0  0  0
    8.3717  -13.0801   27.4301 C   0  0  0  0  0  0  0  0  0  0  0  0
    7.0743  -12.7218   27.6966 C   0  0  0  0  0  0  0  0  0  0  0  0
    9.2360  -17.1187   27.1632 O   0  0  0  0  0  0  0  0  0  0  0  0
  2  1  1  6
  3  2  1  0
  4  2  1  0
  4  5  1  6
  4  6  1  0
  6  7  2  0
  8  6  1  0
  8  9  1  0
  9 13  1  0
  9 10  1  6
 10 11  1  0
 11 12  2  0
 11 15  1  0
 13 14  2  0
 16 17  1  0
 17 27  2  0
 18 17  1  0
 18 19  2  0
 19 20  1  0
 20 26  2  0
 20 21  1  0
 22 21  1  1
 22 24  1  0
 23 13  1  0
 23 22  1  0
 24 28  1  0
 25 24  2  0
 27 26  1  0
M  END
$$$$
