TDY.pdb
     RDKit          3D

 28 28  0  0  1  0  0  0  0  0999 V2000
    8.3144  -13.5065   17.0691 C   0  0  0  0  0  0  0  0  0  0  0  0
    8.7155  -14.2549   18.3138 C   0  0  1  0  0  0  0  0  0  0  0  0
    9.8840  -13.6720   18.7997 O   0  0  0  0  0  0  0  0  0  0  0  0
    7.6115  -14.1321   19.3475 C   0  0  2  0  0  0  0  0  0  0  0  0
    7.3565  -12.7540   19.6922 N   0  0  0  0  0  0  0  0  0  0  0  0
    7.9561  -14.8619   20.5918 C   0  0  0  0  0  0  0  0  0  0  0  0
    8.2272  -14.2169   21.6329 O   0  0  0  0  0  0  0  0  0  0  0  0
    8.0019  -16.2780   20.6905 N   0  0  0  0  0  0  0  0  0  0  0  0
    8.2269  -16.9794   21.9352 C   0  0  1  0  0  0  0  0  0  0  0  0
    8.1820  -18.4751   21.5985 C   0  0  0  0  0  0  0  0  0  0  0  0
    8.3943  -19.3147   22.7952 C   0  0  0  0  0  0  0  0  0  0  0  0
    8.4895  -20.5698   22.6819 O   0  0  0  0  0  0  0  0  0  0  0  0
    9.6173  -16.6842   22.3946 C   0  0  0  0  0  0  0  0  0  0  0  0
   10.6060  -16.8173   21.6053 O   0  0  0  0  0  0  0  0  0  0  0  0
    8.4916  -18.7243   24.0632 O   0  0  0  0  0  0  0  0  0  0  0  0
    9.3166  -15.7604   30.2109 O   0  0  0  0  0  0  0  0  0  0  0  0
    9.7964  -15.5017   28.9426 C   0  0  0  0  0  0  0  0  0  0  0  0
    9.1192  -14.6259   28.1464 C   0  0  0  0  0  0  0  0  0  0  0  0
    9.6289  -14.3917   26.8844 C   0  0  0  0  0  0  0  0  0  0  0  0
   10.7702  -15.0030   26.4250 C   0  0  0  0  0  0  0  0  0  0  0  0
   11.2549  -14.6922   25.0727 C   0  0  0  0  0  0  0  0  0  0  0  0
   11.2531  -15.8460   24.1144 C   0  0  2  0  0  0  0  0  0  0  0  0
    9.9296  -16.2468   23.7033 N   0  0  0  0  0  0  0  0  0  0  0  0
   11.9628  -16.9836   24.7032 C   0  0  0  0  0  0  0  0  0  0  0  0
   11.3325  -18.0406   24.9768 O   0  0  0  0  0  0  0  0  0  0  0  0
   11.4171  -15.8812   27.2718 C   0  0  0  0  0  0  0  0  0  0  0  0
   10.9405  -16.1388   28.5323 C   0  0  0  0  0  0  0  0  0  0  0  0
   13.3253  -16.9428   24.9747 O   0  0  0  0  0  0  0  0  0  0  0  0
  2  1  1  6
  3  2  1  0
  4  2  1  0
  4  5  1  1
  4  6  1  0
  6  7  2  0
  8  6  1  0
  8  9  1  0
  9 13  1  0
  9 10  1  6
 10 11  1  0
 11 12  2  0
 11 15  1  0
 13 14  2  0
 16 17  1  0
 17 27  2  0
 18 17  1  0
 18 19  2  0
 19 20  1  0
 20 26  2  0
 20 21  1  0
 22 21  1  1
 22 24  1  0
 23 13  1  0
 23 22  1  0
 24 28  1  0
 25 24  2  0
 27 26  1  0
M  END
$$$$
