TDY.pdb
     RDKit          3D

 28 28  0  0  1  0  0  0  0  0999 V2000
    6.8290  -12.9886   18.7571 C   0  0  0  0  0  0  0  0  0  0  0  0
    7.1147  -14.2600   19.5133 C   0  0  1  0  0  0  0  0  0  0  0  0
    7.7691  -15.1309   18.6446 O   0  0  0  0  0  0  0  0  0  0  0  0
    8.0102  -13.9458   20.6973 C   0  0  2  0  0  0  0  0  0  0  0  0
    9.2936  -13.4391   20.2738 N   0  0  0  0  0  0  0  0  0  0  0  0
    8.2430  -15.1506   21.5304 C   0  0  0  0  0  0  0  0  0  0  0  0
    7.2738  -15.7040   22.1030 O   0  0  0  0  0  0  0  0  0  0  0  0
    9.5204  -15.7379   21.7310 N   0  0  0  0  0  0  0  0  0  0  0  0
    9.7298  -16.9302   22.5225 C   0  0  1  0  0  0  0  0  0  0  0  0
   11.1113  -17.4683   22.1298 C   0  0  0  0  0  0  0  0  0  0  0  0
   11.0672  -18.2233   20.8610 C   0  0  0  0  0  0  0  0  0  0  0  0
   12.0584  -18.2071   20.0771 O   0  0  0  0  0  0  0  0  0  0  0  0
    9.8172  -16.5297   23.9589 C   0  0  0  0  0  0  0  0  0  0  0  0
   10.6758  -15.6742   24.3453 O   0  0  0  0  0  0  0  0  0  0  0  0
    9.9257  -18.9622   20.5190 O   0  0  0  0  0  0  0  0  0  0  0  0
    7.2481  -10.7431   26.4678 O   0  0  0  0  0  0  0  0  0  0  0  0
    7.4341  -12.1023   26.6215 C   0  0  0  0  0  0  0  0  0  0  0  0
    6.4140  -12.9487   26.3013 C   0  0  0  0  0  0  0  0  0  0  0  0
    6.6365  -14.3015   26.4677 C   0  0  0  0  0  0  0  0  0  0  0  0
    7.8281  -14.8008   26.9349 C   0  0  0  0  0  0  0  0  0  0  0  0
    7.9905  -16.2550   27.0736 C   0  0  0  0  0  0  0  0  0  0  0  0
    9.1870  -16.8318   26.3771 C   0  0  2  0  0  0  0  0  0  0  0  0
    8.9762  -17.0557   24.9676 N   0  0  0  0  0  0  0  0  0  0  0  0
    9.5899  -18.0793   27.0297 C   0  0  0  0  0  0  0  0  0  0  0  0
    9.5613  -19.1612   26.3832 O   0  0  0  0  0  0  0  0  0  0  0  0
    8.8278  -13.9000   27.2444 C   0  0  0  0  0  0  0  0  0  0  0  0
    8.6433  -12.5490   27.0921 C   0  0  0  0  0  0  0  0  0  0  0  0
   10.0104  -18.1169   28.3540 O   0  0  0  0  0  0  0  0  0  0  0  0
  2  1  1  6
  3  2  1  0
  4  2  1  0
  4  5  1  6
  4  6  1  0
  6  7  2  0
  8  6  1  0
  8  9  1  0
  9 13  1  0
  9 10  1  6
 10 11  1  0
 11 12  2  0
 11 15  1  0
 13 14  2  0
 16 17  1  0
 17 27  2  0
 18 17  1  0
 18 19  2  0
 19 20  1  0
 20 26  2  0
 20 21  1  0
 22 21  1  1
 22 24  1  0
 23 13  1  0
 23 22  1  0
 24 28  1  0
 25 24  2  0
 27 26  1  0
M  END
$$$$
