TDY.pdb
     RDKit          3D

 28 28  0  0  1  0  0  0  0  0999 V2000
    7.5747  -14.4907   23.6912 C   0  0  0  0  0  0  0  0  0  0  0  0
    6.9344  -15.7433   23.1518 C   0  0  1  0  0  0  0  0  0  0  0  0
    5.6446  -15.4151   22.7395 O   0  0  0  0  0  0  0  0  0  0  0  0
    7.7401  -16.2457   21.9682 C   0  0  2  0  0  0  0  0  0  0  0  0
    7.0422  -17.2874   21.2534 N   0  0  0  0  0  0  0  0  0  0  0  0
    9.0528  -16.7839   22.4006 C   0  0  0  0  0  0  0  0  0  0  0  0
    9.1798  -18.0146   22.6067 O   0  0  0  0  0  0  0  0  0  0  0  0
   10.2075  -15.9822   22.6031 N   0  0  0  0  0  0  0  0  0  0  0  0
   11.4998  -16.5276   22.9559 C   0  0  1  0  0  0  0  0  0  0  0  0
   12.5442  -15.5853   22.3447 C   0  0  0  0  0  0  0  0  0  0  0  0
   13.9225  -16.0447   22.6116 C   0  0  0  0  0  0  0  0  0  0  0  0
   14.6999  -15.3438   23.3199 O   0  0  0  0  0  0  0  0  0  0  0  0
   11.6568  -16.4388   24.4388 C   0  0  0  0  0  0  0  0  0  0  0  0
   12.7619  -16.7341   24.9954 O   0  0  0  0  0  0  0  0  0  0  0  0
   14.3761  -17.2607   22.0810 O   0  0  0  0  0  0  0  0  0  0  0  0
    5.0875  -13.2753   25.5137 O   0  0  0  0  0  0  0  0  0  0  0  0
    6.3411  -13.6380   25.9641 C   0  0  0  0  0  0  0  0  0  0  0  0
    7.3741  -12.7597   25.8199 C   0  0  0  0  0  0  0  0  0  0  0  0
    8.6134  -13.1569   26.2824 C   0  0  0  0  0  0  0  0  0  0  0  0
    8.8241  -14.3815   26.8681 C   0  0  0  0  0  0  0  0  0  0  0  0
   10.1711  -14.7255   27.3450 C   0  0  0  0  0  0  0  0  0  0  0  0
   10.7625  -15.9657   26.7437 C   0  0  2  0  0  0  0  0  0  0  0  0
   10.6190  -16.0312   25.3096 N   0  0  0  0  0  0  0  0  0  0  0  0
   10.1680  -17.1520   27.3631 C   0  0  0  0  0  0  0  0  0  0  0  0
   10.2290  -17.3021   28.6134 O   0  0  0  0  0  0  0  0  0  0  0  0
    7.7437  -15.2329   26.9893 C   0  0  0  0  0  0  0  0  0  0  0  0
    6.4977  -14.8730   26.5416 C   0  0  0  0  0  0  0  0  0  0  0  0
    9.5280  -18.1329   26.6148 O   0  0  0  0  0  0  0  0  0  0  0  0
  2  1  1  6
  3  2  1  0
  4  2  1  0
  4  5  1  1
  4  6  1  0
  6  7  2  0
  8  6  1  0
  8  9  1  0
  9 13  1  0
  9 10  1  6
 10 11  1  0
 11 12  2  0
 11 15  1  0
 13 14  2  0
 16 17  1  0
 17 27  2  0
 18 17  1  0
 18 19  2  0
 19 20  1  0
 20 26  2  0
 20 21  1  0
 22 21  1  1
 22 24  1  0
 23 13  1  0
 23 22  1  0
 24 28  1  0
 25 24  2  0
 27 26  1  0
M  END
$$$$
