TDY.pdb
     RDKit          3D

 28 28  0  0  1  0  0  0  0  0999 V2000
   11.9022  -20.7548   21.0518 C   0  0  0  0  0  0  0  0  0  0  0  0
   10.4674  -20.4722   20.6892 C   0  0  1  0  0  0  0  0  0  0  0  0
    9.8394  -21.6953   20.4636 O   0  0  0  0  0  0  0  0  0  0  0  0
    9.7933  -19.7533   21.8430 C   0  0  2  0  0  0  0  0  0  0  0  0
    8.3571  -19.8837   21.7845 N   0  0  0  0  0  0  0  0  0  0  0  0
   10.1248  -18.3077   21.8434 C   0  0  0  0  0  0  0  0  0  0  0  0
   11.3200  -17.9466   21.7240 O   0  0  0  0  0  0  0  0  0  0  0  0
    9.1581  -17.2754   21.9731 N   0  0  0  0  0  0  0  0  0  0  0  0
    9.5013  -15.8725   22.0501 C   0  0  1  0  0  0  0  0  0  0  0  0
    8.3295  -15.1093   21.4203 C   0  0  0  0  0  0  0  0  0  0  0  0
    8.1848  -15.4132   19.9820 C   0  0  0  0  0  0  0  0  0  0  0  0
    9.1981  -15.7221   19.2928 O   0  0  0  0  0  0  0  0  0  0  0  0
    9.5452  -15.4794   23.4906 C   0  0  0  0  0  0  0  0  0  0  0  0
    9.0927  -14.3534   23.8724 O   0  0  0  0  0  0  0  0  0  0  0  0
    6.9229  -15.3608   19.3732 O   0  0  0  0  0  0  0  0  0  0  0  0
    6.0985  -10.9458   26.5385 O   0  0  0  0  0  0  0  0  0  0  0  0
    6.6728  -12.2001   26.4857 C   0  0  0  0  0  0  0  0  0  0  0  0
    6.0704  -13.1712   25.7419 C   0  0  0  0  0  0  0  0  0  0  0  0
    6.6736  -14.4133   25.7124 C   0  0  0  0  0  0  0  0  0  0  0  0
    7.8339  -14.6858   26.3956 C   0  0  0  0  0  0  0  0  0  0  0  0
    8.4200  -16.0306   26.3046 C   0  0  0  0  0  0  0  0  0  0  0  0
    9.8681  -16.0696   25.9162 C   0  0  2  0  0  0  0  0  0  0  0  0
   10.0772  -16.3056   24.5084 N   0  0  0  0  0  0  0  0  0  0  0  0
   10.5683  -17.0850   26.7056 C   0  0  0  0  0  0  0  0  0  0  0  0
   10.5892  -16.9954   27.9630 O   0  0  0  0  0  0  0  0  0  0  0  0
    8.4024  -13.6666   27.1337 C   0  0  0  0  0  0  0  0  0  0  0  0
    7.8319  -12.4200   27.1867 C   0  0  0  0  0  0  0  0  0  0  0  0
   11.2194  -18.1607   26.1133 O   0  0  0  0  0  0  0  0  0  0  0  0
  2  1  1  1
  3  2  1  0
  4  2  1  0
  4  5  1  6
  4  6  1  0
  6  7  2  0
  8  6  1  0
  8  9  1  0
  9 13  1  0
  9 10  1  6
 10 11  1  0
 11 12  2  0
 11 15  1  0
 13 14  2  0
 16 17  1  0
 17 27  2  0
 18 17  1  0
 18 19  2  0
 19 20  1  0
 20 26  2  0
 20 21  1  0
 22 21  1  6
 22 24  1  0
 23 13  1  0
 23 22  1  0
 24 28  1  0
 25 24  2  0
 27 26  1  0
M  END
$$$$
