TDY.pdb
     RDKit          3D

 28 28  0  0  1  0  0  0  0  0999 V2000
   10.0504  -13.3163   20.5121 C   0  0  0  0  0  0  0  0  0  0  0  0
    8.7628  -12.7049   20.0241 C   0  0  1  0  0  0  0  0  0  0  0  0
    9.0872  -11.7323   19.0806 O   0  0  0  0  0  0  0  0  0  0  0  0
    7.9113  -13.7827   19.3793 C   0  0  2  0  0  0  0  0  0  0  0  0
    6.6994  -13.2373   18.8164 N   0  0  0  0  0  0  0  0  0  0  0  0
    7.5333  -14.8286   20.3606 C   0  0  0  0  0  0  0  0  0  0  0  0
    6.3910  -14.8080   20.8782 O   0  0  0  0  0  0  0  0  0  0  0  0
    8.3970  -15.8804   20.7665 N   0  0  0  0  0  0  0  0  0  0  0  0
    7.9470  -17.0301   21.5199 C   0  0  1  0  0  0  0  0  0  0  0  0
    8.5935  -18.2546   20.8604 C   0  0  0  0  0  0  0  0  0  0  0  0
    8.2360  -19.5073   21.5569 C   0  0  0  0  0  0  0  0  0  0  0  0
    7.3797  -19.4954   22.4863 O   0  0  0  0  0  0  0  0  0  0  0  0
    8.5123  -16.9367   22.8995 C   0  0  0  0  0  0  0  0  0  0  0  0
    8.2795  -17.8430   23.7613 O   0  0  0  0  0  0  0  0  0  0  0  0
    8.8444  -20.7163   21.1910 O   0  0  0  0  0  0  0  0  0  0  0  0
    5.8414  -10.7966   25.9917 O   0  0  0  0  0  0  0  0  0  0  0  0
    6.5080  -12.0026   25.9088 C   0  0  0  0  0  0  0  0  0  0  0  0
    7.8678  -11.9998   25.8068 C   0  0  0  0  0  0  0  0  0  0  0  0
    8.5003  -13.2249   25.7262 C   0  0  0  0  0  0  0  0  0  0  0  0
    7.8112  -14.4132   25.7460 C   0  0  0  0  0  0  0  0  0  0  0  0
    8.5586  -15.6763   25.6671 C   0  0  0  0  0  0  0  0  0  0  0  0
    9.7161  -15.6732   24.7134 C   0  0  2  0  0  0  0  0  0  0  0  0
    9.3253  -15.8652   23.3380 N   0  0  0  0  0  0  0  0  0  0  0  0
   10.6886  -16.6948   25.1071 C   0  0  0  0  0  0  0  0  0  0  0  0
   10.9696  -17.6311   24.3109 O   0  0  0  0  0  0  0  0  0  0  0  0
    6.4354  -14.3592   25.8506 C   0  0  0  0  0  0  0  0  0  0  0  0
    5.7724  -13.1609   25.9328 C   0  0  0  0  0  0  0  0  0  0  0  0
   11.3245  -16.6710   26.3428 O   0  0  0  0  0  0  0  0  0  0  0  0
  2  1  1  6
  3  2  1  0
  4  2  1  0
  4  5  1  1
  4  6  1  0
  6  7  2  0
  8  6  1  0
  8  9  1  0
  9 13  1  0
  9 10  1  6
 10 11  1  0
 11 12  2  0
 11 15  1  0
 13 14  2  0
 16 17  1  0
 17 27  2  0
 18 17  1  0
 18 19  2  0
 19 20  1  0
 20 26  2  0
 20 21  1  0
 22 21  1  1
 22 24  1  0
 23 13  1  0
 23 22  1  0
 24 28  1  0
 25 24  2  0
 27 26  1  0
M  END
$$$$
