TDY.pdb
     RDKit          3D

 28 28  0  0  1  0  0  0  0  0999 V2000
    9.2013  -12.9347   19.1154 C   0  0  0  0  0  0  0  0  0  0  0  0
    8.2923  -13.5847   18.1049 C   0  0  1  0  0  0  0  0  0  0  0  0
    8.2165  -12.7404   16.9992 O   0  0  0  0  0  0  0  0  0  0  0  0
    8.8801  -14.9212   17.6918 C   0  0  2  0  0  0  0  0  0  0  0  0
    8.0478  -15.5911   16.7214 N   0  0  0  0  0  0  0  0  0  0  0  0
    9.0423  -15.8216   18.8591 C   0  0  0  0  0  0  0  0  0  0  0  0
    8.0428  -16.4220   19.3214 O   0  0  0  0  0  0  0  0  0  0  0  0
   10.2833  -16.0583   19.5080 N   0  0  0  0  0  0  0  0  0  0  0  0
   10.4103  -16.8484   20.7128 C   0  0  1  0  0  0  0  0  0  0  0  0
   11.8814  -17.2746   20.7928 C   0  0  0  0  0  0  0  0  0  0  0  0
   12.1454  -18.1204   21.9748 C   0  0  0  0  0  0  0  0  0  0  0  0
   12.2424  -17.5977   23.1213 O   0  0  0  0  0  0  0  0  0  0  0  0
   10.1565  -15.9586   21.8855 C   0  0  0  0  0  0  0  0  0  0  0  0
   10.8944  -14.9462   22.1064 O   0  0  0  0  0  0  0  0  0  0  0  0
   12.2898  -19.5077   21.8315 O   0  0  0  0  0  0  0  0  0  0  0  0
    6.0031  -11.2913   28.0378 O   0  0  0  0  0  0  0  0  0  0  0  0
    6.3463  -12.1572   27.0189 C   0  0  0  0  0  0  0  0  0  0  0  0
    6.0899  -13.4881   27.1689 C   0  0  0  0  0  0  0  0  0  0  0  0
    6.4467  -14.3238   26.1289 C   0  0  0  0  0  0  0  0  0  0  0  0
    7.0371  -13.8591   24.9788 C   0  0  0  0  0  0  0  0  0  0  0  0
    7.3769  -14.8117   23.9124 C   0  0  0  0  0  0  0  0  0  0  0  0
    8.8070  -15.2633   23.8934 C   0  0  2  0  0  0  0  0  0  0  0  0
    9.1072  -16.1686   22.8109 N   0  0  0  0  0  0  0  0  0  0  0  0
    9.1514  -15.8811   25.1756 C   0  0  0  0  0  0  0  0  0  0  0  0
    9.7964  -15.2214   26.0348 O   0  0  0  0  0  0  0  0  0  0  0  0
    7.2746  -12.5026   24.8785 C   0  0  0  0  0  0  0  0  0  0  0  0
    6.9340  -11.6416   25.8910 C   0  0  0  0  0  0  0  0  0  0  0  0
    8.7877  -17.1859   25.4873 O   0  0  0  0  0  0  0  0  0  0  0  0
  2  1  1  1
  3  2  1  0
  4  2  1  0
  4  5  1  6
  4  6  1  0
  6  7  2  0
  8  6  1  0
  8  9  1  0
  9 13  1  0
  9 10  1  1
 10 11  1  0
 11 12  2  0
 11 15  1  0
 13 14  2  0
 16 17  1  0
 17 27  2  0
 18 17  1  0
 18 19  2  0
 19 20  1  0
 20 26  2  0
 20 21  1  0
 22 21  1  1
 22 24  1  0
 23 13  1  0
 23 22  1  0
 24 28  1  0
 25 24  2  0
 27 26  1  0
M  END
$$$$
