TDY.pdb
     RDKit          3D

 28 28  0  0  1  0  0  0  0  0999 V2000
    9.2259  -12.7032   20.6482 C   0  0  0  0  0  0  0  0  0  0  0  0
    8.1196  -12.9700   19.6608 C   0  0  1  0  0  0  0  0  0  0  0  0
    8.1385  -11.9451   18.7172 O   0  0  0  0  0  0  0  0  0  0  0  0
    8.3704  -14.3018   18.9782 C   0  0  2  0  0  0  0  0  0  0  0  0
    7.3712  -14.5818   17.9750 N   0  0  0  0  0  0  0  0  0  0  0  0
    8.3661  -15.4168   19.9562 C   0  0  0  0  0  0  0  0  0  0  0  0
    7.2808  -15.9634   20.2672 O   0  0  0  0  0  0  0  0  0  0  0  0
    9.5360  -15.9232   20.5823 N   0  0  0  0  0  0  0  0  0  0  0  0
    9.5159  -16.9992   21.5486 C   0  0  1  0  0  0  0  0  0  0  0  0
   10.7788  -17.8305   21.2908 C   0  0  0  0  0  0  0  0  0  0  0  0
   10.6634  -18.6385   20.0595 C   0  0  0  0  0  0  0  0  0  0  0  0
   11.6393  -18.7227   19.2610 O   0  0  0  0  0  0  0  0  0  0  0  0
    9.6625  -16.4072   22.9122 C   0  0  0  0  0  0  0  0  0  0  0  0
   10.6542  -15.6626   23.1956 O   0  0  0  0  0  0  0  0  0  0  0  0
    9.4708  -19.3165   19.7698 O   0  0  0  0  0  0  0  0  0  0  0  0
    6.4490  -10.2391   25.9472 O   0  0  0  0  0  0  0  0  0  0  0  0
    6.7455  -11.5874   25.9513 C   0  0  0  0  0  0  0  0  0  0  0  0
    5.7730  -12.4763   26.3028 C   0  0  0  0  0  0  0  0  0  0  0  0
    6.1061  -13.8166   26.2951 C   0  0  0  0  0  0  0  0  0  0  0  0
    7.3589  -14.2631   25.9511 C   0  0  0  0  0  0  0  0  0  0  0  0
    7.6315  -15.7073   25.9568 C   0  0  0  0  0  0  0  0  0  0  0  0
    8.9156  -16.1160   25.2983 C   0  0  2  0  0  0  0  0  0  0  0  0
    8.7365  -16.6233   23.9597 N   0  0  0  0  0  0  0  0  0  0  0  0
    9.6048  -17.1094   26.1245 C   0  0  0  0  0  0  0  0  0  0  0  0
    9.7192  -18.2953   25.7121 O   0  0  0  0  0  0  0  0  0  0  0  0
    8.3065  -13.3208   25.6035 C   0  0  0  0  0  0  0  0  0  0  0  0
    8.0124  -11.9806   25.5996 C   0  0  0  0  0  0  0  0  0  0  0  0
   10.1474  -16.7901   27.3636 O   0  0  0  0  0  0  0  0  0  0  0  0
  2  1  1  1
  3  2  1  0
  4  2  1  0
  4  5  1  6
  4  6  1  0
  6  7  2  0
  8  6  1  0
  8  9  1  0
  9 13  1  0
  9 10  1  6
 10 11  1  0
 11 12  2  0
 11 15  1  0
 13 14  2  0
 16 17  1  0
 17 27  2  0
 18 17  1  0
 18 19  2  0
 19 20  1  0
 20 26  2  0
 20 21  1  0
 22 21  1  1
 22 24  1  0
 23 13  1  0
 23 22  1  0
 24 28  1  0
 25 24  2  0
 27 26  1  0
M  END
$$$$
