TDY.pdb
     RDKit          3D

 28 28  0  0  1  0  0  0  0  0999 V2000
    8.3360  -12.3328   18.9154 C   0  0  0  0  0  0  0  0  0  0  0  0
    8.7674  -13.6869   18.4153 C   0  0  1  0  0  0  0  0  0  0  0  0
    9.6696  -13.4851   17.3729 O   0  0  0  0  0  0  0  0  0  0  0  0
    9.4454  -14.4427   19.5429 C   0  0  2  0  0  0  0  0  0  0  0  0
    9.9537  -15.7182   19.0980 N   0  0  0  0  0  0  0  0  0  0  0  0
    8.5087  -14.6868   20.6665 C   0  0  0  0  0  0  0  0  0  0  0  0
    7.9127  -13.7190   21.1970 O   0  0  0  0  0  0  0  0  0  0  0  0
    8.2312  -15.9740   21.1986 N   0  0  0  0  0  0  0  0  0  0  0  0
    7.2847  -16.2031   22.2679 C   0  0  1  0  0  0  0  0  0  0  0  0
    7.0773  -17.7211   22.3390 C   0  0  0  0  0  0  0  0  0  0  0  0
    6.5299  -18.2609   21.0776 C   0  0  0  0  0  0  0  0  0  0  0  0
    5.6348  -17.6265   20.4504 O   0  0  0  0  0  0  0  0  0  0  0  0
    7.9245  -15.7963   23.5551 C   0  0  0  0  0  0  0  0  0  0  0  0
    7.5066  -14.7812   24.1977 O   0  0  0  0  0  0  0  0  0  0  0  0
    7.0001  -19.4800   20.5691 O   0  0  0  0  0  0  0  0  0  0  0  0
    5.6284  -11.3768   26.9071 O   0  0  0  0  0  0  0  0  0  0  0  0
    6.3790  -12.5315   26.8116 C   0  0  0  0  0  0  0  0  0  0  0  0
    7.7134  -12.4762   27.0872 C   0  0  0  0  0  0  0  0  0  0  0  0
    8.4319  -13.6509   26.9813 C   0  0  0  0  0  0  0  0  0  0  0  0
    7.8505  -14.8405   26.6154 C   0  0  0  0  0  0  0  0  0  0  0  0
    8.6818  -16.0500   26.5362 C   0  0  0  0  0  0  0  0  0  0  0  0
    9.6342  -16.0939   25.3784 C   0  0  2  0  0  0  0  0  0  0  0  0
    9.0108  -16.4895   24.1390 N   0  0  0  0  0  0  0  0  0  0  0  0
   10.7522  -16.9880   25.6867 C   0  0  0  0  0  0  0  0  0  0  0  0
   11.0338  -17.9320   24.9000 O   0  0  0  0  0  0  0  0  0  0  0  0
    6.4959  -14.8408   26.3473 C   0  0  0  0  0  0  0  0  0  0  0  0
    5.7495  -13.6934   26.4418 C   0  0  0  0  0  0  0  0  0  0  0  0
   11.5276  -16.8327   26.8298 O   0  0  0  0  0  0  0  0  0  0  0  0
  2  1  1  1
  3  2  1  0
  4  2  1  0
  4  5  1  6
  4  6  1  0
  6  7  2  0
  8  6  1  0
  8  9  1  0
  9 13  1  0
  9 10  1  1
 10 11  1  0
 11 12  2  0
 11 15  1  0
 13 14  2  0
 16 17  1  0
 17 27  2  0
 18 17  1  0
 18 19  2  0
 19 20  1  0
 20 26  2  0
 20 21  1  0
 22 21  1  1
 22 24  1  0
 23 13  1  0
 23 22  1  0
 24 28  1  0
 25 24  2  0
 27 26  1  0
M  END
$$$$
