TDY.pdb
     RDKit          3D

 28 28  0  0  1  0  0  0  0  0999 V2000
    8.6658  -12.5905   20.3712 C   0  0  0  0  0  0  0  0  0  0  0  0
    7.9847  -12.9473   19.0754 C   0  0  1  0  0  0  0  0  0  0  0  0
    8.2835  -11.9483   18.1514 O   0  0  0  0  0  0  0  0  0  0  0  0
    8.5173  -14.2798   18.5821 C   0  0  2  0  0  0  0  0  0  0  0  0
    7.9325  -14.6503   17.3156 N   0  0  0  0  0  0  0  0  0  0  0  0
    8.2365  -15.3645   19.5538 C   0  0  0  0  0  0  0  0  0  0  0  0
    7.4039  -16.2563   19.2626 O   0  0  0  0  0  0  0  0  0  0  0  0
    8.8608  -15.4675   20.8253 N   0  0  0  0  0  0  0  0  0  0  0  0
    8.8414  -16.6738   21.6230 C   0  0  1  0  0  0  0  0  0  0  0  0
    9.7625  -17.6728   20.9119 C   0  0  0  0  0  0  0  0  0  0  0  0
    9.8046  -18.9745   21.6090 C   0  0  0  0  0  0  0  0  0  0  0  0
    8.7591  -19.4442   22.1415 O   0  0  0  0  0  0  0  0  0  0  0  0
    9.4721  -16.3726   22.9432 C   0  0  0  0  0  0  0  0  0  0  0  0
   10.6628  -15.9297   23.0101 O   0  0  0  0  0  0  0  0  0  0  0  0
   11.0043  -19.6962   21.6840 O   0  0  0  0  0  0  0  0  0  0  0  0
    5.8449  -10.8864   25.7673 O   0  0  0  0  0  0  0  0  0  0  0  0
    6.4591  -12.1101   25.9430 C   0  0  0  0  0  0  0  0  0  0  0  0
    7.8184  -12.1843   25.8621 C   0  0  0  0  0  0  0  0  0  0  0  0
    8.3977  -13.4248   26.0434 C   0  0  0  0  0  0  0  0  0  0  0  0
    7.6578  -14.5543   26.2965 C   0  0  0  0  0  0  0  0  0  0  0  0
    8.3502  -15.8363   26.4889 C   0  0  0  0  0  0  0  0  0  0  0  0
    9.3806  -16.1661   25.4502 C   0  0  2  0  0  0  0  0  0  0  0  0
    8.8120  -16.5515   24.1816 N   0  0  0  0  0  0  0  0  0  0  0  0
   10.2670  -17.2215   25.9454 C   0  0  0  0  0  0  0  0  0  0  0  0
   10.3108  -18.3321   25.3503 O   0  0  0  0  0  0  0  0  0  0  0  0
    6.2850  -14.4234   26.3680 C   0  0  0  0  0  0  0  0  0  0  0  0
    5.6740  -13.2074   26.1932 C   0  0  0  0  0  0  0  0  0  0  0  0
   11.0751  -17.0427   27.0620 O   0  0  0  0  0  0  0  0  0  0  0  0
  2  1  1  1
  3  2  1  0
  4  2  1  0
  4  5  1  6
  4  6  1  0
  6  7  2  0
  8  6  1  0
  8  9  1  0
  9 13  1  0
  9 10  1  6
 10 11  1  0
 11 12  2  0
 11 15  1  0
 13 14  2  0
 16 17  1  0
 17 27  2  0
 18 17  1  0
 18 19  2  0
 19 20  1  0
 20 26  2  0
 20 21  1  0
 22 21  1  1
 22 24  1  0
 23 13  1  0
 23 22  1  0
 24 28  1  0
 25 24  2  0
 27 26  1  0
M  END
$$$$
