TDY.pdb
     RDKit          3D

 28 28  0  0  1  0  0  0  0  0999 V2000
    6.7949  -13.4179   20.3684 C   0  0  0  0  0  0  0  0  0  0  0  0
    7.5843  -14.1422   21.4277 C   0  0  1  0  0  0  0  0  0  0  0  0
    6.8147  -14.1625   22.5889 O   0  0  0  0  0  0  0  0  0  0  0  0
    7.8546  -15.5620   20.9653 C   0  0  2  0  0  0  0  0  0  0  0  0
    6.6291  -16.2926   20.7472 N   0  0  0  0  0  0  0  0  0  0  0  0
    8.6640  -16.3069   21.9601 C   0  0  0  0  0  0  0  0  0  0  0  0
    8.1325  -17.2273   22.6263 O   0  0  0  0  0  0  0  0  0  0  0  0
   10.0356  -16.0445   22.2186 N   0  0  0  0  0  0  0  0  0  0  0  0
   10.8475  -16.8594   23.0953 C   0  0  1  0  0  0  0  0  0  0  0  0
   12.3000  -16.6550   22.6475 C   0  0  0  0  0  0  0  0  0  0  0  0
   13.2311  -17.5357   23.3819 C   0  0  0  0  0  0  0  0  0  0  0  0
   12.8307  -18.6442   23.8383 O   0  0  0  0  0  0  0  0  0  0  0  0
   10.7428  -16.3065   24.4791 C   0  0  0  0  0  0  0  0  0  0  0  0
   11.4198  -15.2869   24.8258 O   0  0  0  0  0  0  0  0  0  0  0  0
   14.5641  -17.1472   23.5769 O   0  0  0  0  0  0  0  0  0  0  0  0
    6.2492  -11.4095   25.8201 O   0  0  0  0  0  0  0  0  0  0  0  0
    6.8347  -12.5931   26.2226 C   0  0  0  0  0  0  0  0  0  0  0  0
    7.8977  -12.5471   27.0756 C   0  0  0  0  0  0  0  0  0  0  0  0
    8.4574  -13.7508   27.4567 C   0  0  0  0  0  0  0  0  0  0  0  0
    7.9818  -14.9596   27.0095 C   0  0  0  0  0  0  0  0  0  0  0  0
    8.6256  -16.1978   27.4704 C   0  0  0  0  0  0  0  0  0  0  0  0
    9.9703  -16.4790   26.8686 C   0  0  2  0  0  0  0  0  0  0  0  0
    9.9072  -16.8588   25.4782 N   0  0  0  0  0  0  0  0  0  0  0  0
   10.6553  -17.5164   27.6426 C   0  0  0  0  0  0  0  0  0  0  0  0
   10.8431  -17.3535   28.8786 O   0  0  0  0  0  0  0  0  0  0  0  0
    6.9034  -14.9493   26.1471 C   0  0  0  0  0  0  0  0  0  0  0  0
    6.3213  -13.7732   25.7465 C   0  0  0  0  0  0  0  0  0  0  0  0
   11.1121  -18.6920   27.0586 O   0  0  0  0  0  0  0  0  0  0  0  0
  2  1  1  6
  3  2  1  0
  4  2  1  0
  4  5  1  1
  4  6  1  0
  6  7  2  0
  8  6  1  0
  8  9  1  0
  9 13  1  0
  9 10  1  6
 10 11  1  0
 11 12  2  0
 11 15  1  0
 13 14  2  0
 16 17  1  0
 17 27  2  0
 18 17  1  0
 18 19  2  0
 19 20  1  0
 20 26  2  0
 20 21  1  0
 22 21  1  1
 22 24  1  0
 23 13  1  0
 23 22  1  0
 24 28  1  0
 25 24  2  0
 27 26  1  0
M  END
$$$$
