TDY.pdb
     RDKit          3D

 28 28  0  0  1  0  0  0  0  0999 V2000
    7.3199  -12.7517   20.4410 C   0  0  0  0  0  0  0  0  0  0  0  0
    8.6216  -13.0632   19.7490 C   0  0  1  0  0  0  0  0  0  0  0  0
    9.6424  -12.9278   20.6875 O   0  0  0  0  0  0  0  0  0  0  0  0
    8.5836  -14.4896   19.2330 C   0  0  2  0  0  0  0  0  0  0  0  0
    7.5570  -14.6667   18.2340 N   0  0  0  0  0  0  0  0  0  0  0  0
    8.3281  -15.4526   20.3316 C   0  0  0  0  0  0  0  0  0  0  0  0
    7.1689  -15.8986   20.5068 O   0  0  0  0  0  0  0  0  0  0  0  0
    9.3305  -15.9180   21.2236 N   0  0  0  0  0  0  0  0  0  0  0  0
    9.0877  -16.9229   22.2350 C   0  0  1  0  0  0  0  0  0  0  0  0
   10.0306  -18.0896   21.9152 C   0  0  0  0  0  0  0  0  0  0  0  0
   11.3439  -17.6182   21.4305 C   0  0  0  0  0  0  0  0  0  0  0  0
   11.4320  -17.0050   20.3289 O   0  0  0  0  0  0  0  0  0  0  0  0
    9.5180  -16.3724   23.5553 C   0  0  0  0  0  0  0  0  0  0  0  0
   10.3827  -15.4418   23.6221 O   0  0  0  0  0  0  0  0  0  0  0  0
   12.5002  -17.8482   22.1895 O   0  0  0  0  0  0  0  0  0  0  0  0
    5.6241  -11.0321   25.6690 O   0  0  0  0  0  0  0  0  0  0  0  0
    6.2413  -12.2289   25.9729 C   0  0  0  0  0  0  0  0  0  0  0  0
    5.5831  -13.3952   25.7158 C   0  0  0  0  0  0  0  0  0  0  0  0
    6.2319  -14.5726   26.0326 C   0  0  0  0  0  0  0  0  0  0  0  0
    7.4895  -14.5960   26.5850 C   0  0  0  0  0  0  0  0  0  0  0  0
    8.1171  -15.8911   26.8834 C   0  0  0  0  0  0  0  0  0  0  0  0
    9.3277  -16.2171   26.0604 C   0  0  2  0  0  0  0  0  0  0  0  0
    9.0108  -16.8309   24.7938 N   0  0  0  0  0  0  0  0  0  0  0  0
   10.2320  -17.0791   26.8245 C   0  0  0  0  0  0  0  0  0  0  0  0
   10.6920  -16.6808   27.9287 O   0  0  0  0  0  0  0  0  0  0  0  0
    8.1111  -13.3865   26.8250 C   0  0  0  0  0  0  0  0  0  0  0  0
    7.4979  -12.1968   26.5234 C   0  0  0  0  0  0  0  0  0  0  0  0
   10.6072  -18.3391   26.3733 O   0  0  0  0  0  0  0  0  0  0  0  0
  2  1  1  1
  3  2  1  0
  4  2  1  0
  4  5  1  6
  4  6  1  0
  6  7  2  0
  8  6  1  0
  8  9  1  0
  9 13  1  0
  9 10  1  6
 10 11  1  0
 11 12  2  0
 11 15  1  0
 13 14  2  0
 16 17  1  0
 17 27  2  0
 18 17  1  0
 18 19  2  0
 19 20  1  0
 20 26  2  0
 20 21  1  0
 22 21  1  1
 22 24  1  0
 23 13  1  0
 23 22  1  0
 24 28  1  0
 25 24  2  0
 27 26  1  0
M  END
$$$$
