WPL.pdb
     RDKit          3D

 30 32  0  0  1  0  0  0  0  0999 V2000
    5.6954  -17.8849   24.9678 N   0  0  0  0  0  0  0  0  0  0  0  0
    6.6439  -16.8755   24.6255 C   0  0  1  0  0  0  0  0  0  0  0  0
    7.0369  -16.0338   25.8229 C   0  0  0  0  0  0  0  0  0  0  0  0
    6.2543  -14.8192   26.0111 C   0  0  0  0  0  0  0  0  0  0  0  0
    4.9338  -14.8164   26.4622 C   0  0  0  0  0  0  0  0  0  0  0  0
    4.4815  -13.5770   26.5652 N   0  0  0  0  0  0  0  0  0  0  0  0
    5.4874  -12.7451   26.1862 C   0  0  0  0  0  0  0  0  0  0  0  0
    5.5462  -11.3768   26.1029 C   0  0  0  0  0  0  0  0  0  0  0  0
    6.7015  -10.7630   25.6746 C   0  0  0  0  0  0  0  0  0  0  0  0
    7.7973  -11.5050   25.3292 C   0  0  0  0  0  0  0  0  0  0  0  0
    7.7514  -12.8700   25.4083 C   0  0  0  0  0  0  0  0  0  0  0  0
    6.6001  -13.5041   25.8371 C   0  0  0  0  0  0  0  0  0  0  0  0
    7.7835  -17.2974   23.8041 C   0  0  0  0  0  0  0  0  0  0  0  0
    8.0117  -18.5412   23.7067 O   0  0  0  0  0  0  0  0  0  0  0  0
    8.5868  -16.3555   23.1532 N   0  0  0  0  0  0  0  0  0  0  0  0
    8.2311  -15.0077   22.8068 C   0  0  0  0  0  0  0  0  0  0  0  0
    9.4115  -14.4343   22.0480 C   0  0  0  0  0  0  0  0  0  0  0  0
   10.0883  -15.6741   21.5117 C   0  0  0  0  0  0  0  0  0  0  0  0
    9.9499  -16.6090   22.7076 C   0  0  1  0  0  0  0  0  0  0  0  0
   10.9370  -16.1628   23.7214 C   0  0  0  0  0  0  0  0  0  0  0  0
   10.9342  -14.9406   24.0558 O   0  0  0  0  0  0  0  0  0  0  0  0
    9.4870  -15.9634   27.8148 C   0  0  0  0  0  0  0  0  0  0  0  0
   10.5751  -15.5783   26.7367 C   0  0  1  0  0  0  0  0  0  0  0  0
   11.1285  -14.2344   27.2444 C   0  0  0  0  0  0  0  0  0  0  0  0
   11.5793  -16.6656   26.7010 C   0  0  0  0  0  0  0  0  0  0  0  0
   12.5581  -16.6608   25.6159 C   0  0  2  0  0  0  0  0  0  0  0  0
   11.8744  -17.0021   24.3362 N   0  0  0  0  0  0  0  0  0  0  0  0
   13.7612  -17.4267   25.7805 C   0  0  0  0  0  0  0  0  0  0  0  0
   14.0657  -18.4955   24.9194 O   0  0  0  0  0  0  0  0  0  0  0  0
   14.5946  -17.1875   26.6887 O   0  0  0  0  0  0  0  0  0  0  0  0
  2  1  1  1
  2  3  1  0
  3  4  1  0
  4 12  1  0
  4  5  2  0
  5  6  1  0
  7  8  2  0
  7  6  1  0
  9  8  1  0
 10  9  2  0
 11 10  1  0
 11 12  2  0
 12  7  1  0
 13  2  1  0
 13 14  2  0
 15 16  1  0
 15 13  1  0
 17 16  1  0
 18 17  1  0
 18 19  1  0
 19 15  1  0
 19 20  1  1
 20 27  1  0
 21 20  2  0
 23 22  1  1
 23 25  1  0
 24 23  1  0
 26 25  1  1
 26 27  1  0
 26 28  1  0
 28 29  1  0
 30 28  2  0
M  END
$$$$
