WPL.pdb
     RDKit          3D

 30 32  0  0  1  0  0  0  0  0999 V2000
    5.9898  -18.4389   24.3209 N   0  0  0  0  0  0  0  0  0  0  0  0
    6.7068  -17.2102   24.2120 C   0  0  1  0  0  0  0  0  0  0  0  0
    6.9619  -16.5779   25.5653 C   0  0  0  0  0  0  0  0  0  0  0  0
    6.1064  -15.4443   25.8916 C   0  0  0  0  0  0  0  0  0  0  0  0
    4.7425  -15.5621   26.1622 C   0  0  0  0  0  0  0  0  0  0  0  0
    4.2236  -14.3798   26.4527 N   0  0  0  0  0  0  0  0  0  0  0  0
    5.2278  -13.4667   26.3790 C   0  0  0  0  0  0  0  0  0  0  0  0
    5.2321  -12.1093   26.5793 C   0  0  0  0  0  0  0  0  0  0  0  0
    6.4005  -11.3963   26.4330 C   0  0  0  0  0  0  0  0  0  0  0  0
    7.5634  -12.0285   26.0886 C   0  0  0  0  0  0  0  0  0  0  0  0
    7.5722  -13.3815   25.8865 C   0  0  0  0  0  0  0  0  0  0  0  0
    6.4087  -14.1144   26.0296 C   0  0  0  0  0  0  0  0  0  0  0  0
    7.8811  -17.2115   23.3331 C   0  0  0  0  0  0  0  0  0  0  0  0
    8.3649  -18.3348   22.9970 O   0  0  0  0  0  0  0  0  0  0  0  0
    8.4431  -16.0119   22.8843 N   0  0  0  0  0  0  0  0  0  0  0  0
    7.9901  -14.6812   23.1798 C   0  0  0  0  0  0  0  0  0  0  0  0
    8.8812  -13.7405   22.3930 C   0  0  0  0  0  0  0  0  0  0  0  0
    9.3718  -14.6206   21.2672 C   0  0  0  0  0  0  0  0  0  0  0  0
    9.6085  -15.9274   22.0153 C   0  0  1  0  0  0  0  0  0  0  0  0
   10.8536  -15.7545   22.8036 C   0  0  0  0  0  0  0  0  0  0  0  0
   11.6213  -14.7936   22.4988 O   0  0  0  0  0  0  0  0  0  0  0  0
   10.4123  -13.4930   27.4602 C   0  0  0  0  0  0  0  0  0  0  0  0
   11.6494  -14.2253   26.8064 C   0  0  1  0  0  0  0  0  0  0  0  0
   12.1029  -15.2137   27.8961 C   0  0  0  0  0  0  0  0  0  0  0  0
   11.1818  -14.8772   25.5621 C   0  0  0  0  0  0  0  0  0  0  0  0
   11.8910  -16.0698   25.1035 C   0  0  2  0  0  0  0  0  0  0  0  0
   11.2397  -16.5827   23.8648 N   0  0  0  0  0  0  0  0  0  0  0  0
   12.1209  -17.1295   26.0444 C   0  0  0  0  0  0  0  0  0  0  0  0
   13.3565  -17.2620   26.7019 O   0  0  0  0  0  0  0  0  0  0  0  0
   11.2445  -17.9830   26.3272 O   0  0  0  0  0  0  0  0  0  0  0  0
  2  1  1  1
  2  3  1  0
  3  4  1  0
  4 12  1  0
  4  5  2  0
  5  6  1  0
  7  8  2  0
  7  6  1  0
  9  8  1  0
 10  9  2  0
 11 10  1  0
 11 12  2  0
 12  7  1  0
 13  2  1  0
 13 14  2  0
 15 16  1  0
 15 13  1  0
 17 16  1  0
 18 17  1  0
 18 19  1  0
 19 15  1  0
 19 20  1  1
 20 27  1  0
 21 20  2  0
 23 22  1  1
 23 25  1  0
 24 23  1  0
 26 25  1  1
 26 27  1  0
 26 28  1  0
 28 29  1  0
 30 28  2  0
M  END
$$$$
