WPL.pdb
     RDKit          3D

 30 32  0  0  1  0  0  0  0  0999 V2000
    5.8734  -19.6666   23.5470 N   0  0  0  0  0  0  0  0  0  0  0  0
    6.4882  -18.4326   23.9144 C   0  0  1  0  0  0  0  0  0  0  0  0
    6.8503  -18.3925   25.3854 C   0  0  0  0  0  0  0  0  0  0  0  0
    6.8206  -17.0697   25.9957 C   0  0  0  0  0  0  0  0  0  0  0  0
    5.7101  -16.2258   25.9507 C   0  0  0  0  0  0  0  0  0  0  0  0
    5.9537  -15.1033   26.6079 N   0  0  0  0  0  0  0  0  0  0  0  0
    7.2201  -15.1848   27.0947 C   0  0  0  0  0  0  0  0  0  0  0  0
    7.9628  -14.2999   27.8352 C   0  0  0  0  0  0  0  0  0  0  0  0
    9.2497  -14.6216   28.2032 C   0  0  0  0  0  0  0  0  0  0  0  0
    9.7996  -15.8193   27.8374 C   0  0  0  0  0  0  0  0  0  0  0  0
    9.0693  -16.7101   27.0994 C   0  0  0  0  0  0  0  0  0  0  0  0
    7.7749  -16.4049   26.7213 C   0  0  0  0  0  0  0  0  0  0  0  0
    7.5535  -17.9424   23.0334 C   0  0  0  0  0  0  0  0  0  0  0  0
    8.4324  -18.7735   22.6519 O   0  0  0  0  0  0  0  0  0  0  0  0
    7.5929  -16.6033   22.6312 N   0  0  0  0  0  0  0  0  0  0  0  0
    6.6983  -15.5535   23.0322 C   0  0  0  0  0  0  0  0  0  0  0  0
    7.1145  -14.3174   22.2597 C   0  0  0  0  0  0  0  0  0  0  0  0
    7.8159  -14.9046   21.0571 C   0  0  0  0  0  0  0  0  0  0  0  0
    8.5767  -16.0532   21.7090 C   0  0  1  0  0  0  0  0  0  0  0  0
    9.7203  -15.4541   22.4401 C   0  0  0  0  0  0  0  0  0  0  0  0
   10.6263  -14.8842   21.7619 O   0  0  0  0  0  0  0  0  0  0  0  0
    8.6910  -13.3109   27.2426 C   0  0  0  0  0  0  0  0  0  0  0  0
    9.0932  -13.6455   25.7524 C   0  0  1  0  0  0  0  0  0  0  0  0
    8.9525  -12.2948   25.0271 C   0  0  0  0  0  0  0  0  0  0  0  0
   10.4748  -14.1776   25.7668 C   0  0  0  0  0  0  0  0  0  0  0  0
   10.9861  -14.7932   24.5440 C   0  0  2  0  0  0  0  0  0  0  0  0
    9.8678  -15.4750   23.8326 N   0  0  0  0  0  0  0  0  0  0  0  0
   12.1357  -15.6476   24.6408 C   0  0  0  0  0  0  0  0  0  0  0  0
   12.0769  -16.9932   24.2377 O   0  0  0  0  0  0  0  0  0  0  0  0
   13.2397  -15.2461   25.0841 O   0  0  0  0  0  0  0  0  0  0  0  0
  2  1  1  6
  2  3  1  0
  3  4  1  0
  4 12  1  0
  4  5  2  0
  5  6  1  0
  7  8  2  0
  7  6  1  0
  9  8  1  0
 10  9  2  0
 11 10  1  0
 11 12  2  0
 12  7  1  0
 13  2  1  0
 13 14  2  0
 15 16  1  0
 15 13  1  0
 17 16  1  0
 18 17  1  0
 18 19  1  0
 19 15  1  0
 19 20  1  1
 20 27  1  0
 21 20  2  0
 23 22  1  1
 23 25  1  0
 24 23  1  0
 26 25  1  1
 26 27  1  0
 26 28  1  0
 28 29  1  0
 30 28  2  0
M  END
$$$$
