WPL.pdb
     RDKit          3D

 30 32  0  0  1  0  0  0  0  0999 V2000
    7.0396  -19.1748   25.9976 N   0  0  0  0  0  0  0  0  0  0  0  0
    7.1118  -18.2004   24.9579 C   0  0  1  0  0  0  0  0  0  0  0  0
    8.0102  -17.0376   25.3286 C   0  0  0  0  0  0  0  0  0  0  0  0
    7.3200  -15.7856   25.6103 C   0  0  0  0  0  0  0  0  0  0  0  0
    5.9383  -15.6899   25.7813 C   0  0  0  0  0  0  0  0  0  0  0  0
    5.5899  -14.4422   26.0520 N   0  0  0  0  0  0  0  0  0  0  0  0
    6.7266  -13.6969   26.0638 C   0  0  0  0  0  0  0  0  0  0  0  0
    6.9273  -12.3576   26.2844 C   0  0  0  0  0  0  0  0  0  0  0  0
    8.1999  -11.8354   26.2326 C   0  0  0  0  0  0  0  0  0  0  0  0
    9.2723  -12.6401   25.9622 C   0  0  0  0  0  0  0  0  0  0  0  0
    9.0852  -13.9771   25.7408 C   0  0  0  0  0  0  0  0  0  0  0  0
    7.8145  -14.5198   25.7896 C   0  0  0  0  0  0  0  0  0  0  0  0
    7.3352  -18.7058   23.5992 C   0  0  0  0  0  0  0  0  0  0  0  0
    8.1123  -19.6985   23.4597 O   0  0  0  0  0  0  0  0  0  0  0  0
    6.7097  -18.1093   22.4996 N   0  0  0  0  0  0  0  0  0  0  0  0
    5.8291  -16.9746   22.5164 C   0  0  0  0  0  0  0  0  0  0  0  0
    5.3592  -16.7756   21.0889 C   0  0  0  0  0  0  0  0  0  0  0  0
    5.5332  -18.1530   20.4928 C   0  0  0  0  0  0  0  0  0  0  0  0
    6.8568  -18.5673   21.1251 C   0  0  1  0  0  0  0  0  0  0  0  0
    7.9256  -17.8164   20.4213 C   0  0  0  0  0  0  0  0  0  0  0  0
    7.8939  -17.7840   19.1550 O   0  0  0  0  0  0  0  0  0  0  0  0
    8.2666  -13.0156   19.3941 C   0  0  0  0  0  0  0  0  0  0  0  0
    8.1054  -13.4536   20.9029 C   0  0  1  0  0  0  0  0  0  0  0  0
    6.8153  -12.7429   21.3509 C   0  0  0  0  0  0  0  0  0  0  0  0
    8.0191  -14.9313   20.9368 C   0  0  0  0  0  0  0  0  0  0  0  0
    9.2618  -15.6940   20.8399 C   0  0  2  0  0  0  0  0  0  0  0  0
    8.9701  -17.1387   21.0622 N   0  0  0  0  0  0  0  0  0  0  0  0
   10.3864  -15.2663   21.6232 C   0  0  0  0  0  0  0  0  0  0  0  0
   10.4358  -15.4959   23.0093 O   0  0  0  0  0  0  0  0  0  0  0  0
   11.3722  -14.6728   21.1208 O   0  0  0  0  0  0  0  0  0  0  0  0
  2  1  1  1
  2  3  1  0
  3  4  1  0
  4 12  1  0
  4  5  2  0
  5  6  1  0
  7  8  2  0
  7  6  1  0
  9  8  1  0
 10  9  2  0
 11 10  1  0
 11 12  2  0
 12  7  1  0
 13  2  1  0
 13 14  2  0
 15 16  1  0
 15 13  1  0
 17 16  1  0
 18 17  1  0
 18 19  1  0
 19 15  1  0
 19 20  1  6
 20 27  1  0
 21 20  2  0
 23 22  1  6
 23 25  1  0
 24 23  1  0
 26 25  1  1
 26 27  1  0
 26 28  1  0
 28 29  1  0
 30 28  2  0
M  END
$$$$
