WPL.pdb
     RDKit          3D

 30 32  0  0  1  0  0  0  0  0999 V2000
    6.1200  -18.2514   25.3073 N   0  0  0  0  0  0  0  0  0  0  0  0
    6.2475  -17.3616   24.1993 C   0  0  1  0  0  0  0  0  0  0  0  0
    5.7708  -15.9627   24.5346 C   0  0  0  0  0  0  0  0  0  0  0  0
    6.4268  -15.3411   25.6776 C   0  0  0  0  0  0  0  0  0  0  0  0
    7.1140  -16.0608   26.6560 C   0  0  0  0  0  0  0  0  0  0  0  0
    7.6310  -15.2412   27.5572 N   0  0  0  0  0  0  0  0  0  0  0  0
    7.2966  -13.9750   27.1934 C   0  0  0  0  0  0  0  0  0  0  0  0
    7.5712  -12.7640   27.7774 C   0  0  0  0  0  0  0  0  0  0  0  0
    7.1026  -11.6028   27.2056 C   0  0  0  0  0  0  0  0  0  0  0  0
    6.3624  -11.6421   26.0562 C   0  0  0  0  0  0  0  0  0  0  0  0
    6.0822  -12.8432   25.4641 C   0  0  0  0  0  0  0  0  0  0  0  0
    6.5450  -14.0199   26.0233 C   0  0  0  0  0  0  0  0  0  0  0  0
    7.5245  -17.3903   23.4783 C   0  0  0  0  0  0  0  0  0  0  0  0
    8.2346  -18.4365   23.5781 O   0  0  0  0  0  0  0  0  0  0  0  0
    7.9388  -16.2984   22.7087 N   0  0  0  0  0  0  0  0  0  0  0  0
    7.1931  -15.1022   22.4331 C   0  0  0  0  0  0  0  0  0  0  0  0
    8.0451  -14.2729   21.4928 C   0  0  0  0  0  0  0  0  0  0  0  0
    8.9263  -15.3155   20.8454 C   0  0  0  0  0  0  0  0  0  0  0  0
    9.2307  -16.2085   22.0425 C   0  0  1  0  0  0  0  0  0  0  0  0
   10.2172  -15.4845   22.8817 C   0  0  0  0  0  0  0  0  0  0  0  0
   10.0422  -14.2434   23.0674 O   0  0  0  0  0  0  0  0  0  0  0  0
   11.1980  -14.0557   27.4218 C   0  0  0  0  0  0  0  0  0  0  0  0
   10.8951  -15.5924   27.2188 C   0  0  1  0  0  0  0  0  0  0  0  0
    9.6644  -15.8400   28.1099 C   0  0  0  0  0  0  0  0  0  0  0  0
   10.6465  -15.8165   25.7766 C   0  0  0  0  0  0  0  0  0  0  0  0
   11.7865  -15.7489   24.8648 C   0  0  2  0  0  0  0  0  0  0  0  0
   11.3318  -16.0805   23.4846 N   0  0  0  0  0  0  0  0  0  0  0  0
   12.9763  -16.4758   25.2067 C   0  0  0  0  0  0  0  0  0  0  0  0
   13.0068  -17.8808   25.1644 O   0  0  0  0  0  0  0  0  0  0  0  0
   14.0385  -15.9054   25.5571 O   0  0  0  0  0  0  0  0  0  0  0  0
  2  1  1  1
  2  3  1  0
  3  4  1  0
  4 12  1  0
  4  5  2  0
  5  6  1  0
  7  8  2  0
  7  6  1  0
  9  8  1  0
 10  9  2  0
 11 10  1  0
 11 12  2  0
 12  7  1  0
 13  2  1  0
 13 14  2  0
 15 16  1  0
 15 13  1  0
 17 16  1  0
 18 17  1  0
 18 19  1  0
 19 15  1  0
 19 20  1  1
 20 27  1  0
 21 20  2  0
 23 22  1  6
 23 25  1  0
 24 23  1  0
 26 25  1  1
 26 27  1  0
 26 28  1  0
 28 29  1  0
 30 28  2  0
M  END
$$$$
