WPL.pdb
     RDKit          3D

 30 32  0  0  1  0  0  0  0  0999 V2000
    5.4567  -17.9677   24.2503 N   0  0  0  0  0  0  0  0  0  0  0  0
    6.4322  -16.9282   24.3091 C   0  0  1  0  0  0  0  0  0  0  0  0
    6.6716  -16.4515   25.7276 C   0  0  0  0  0  0  0  0  0  0  0  0
    6.0232  -15.1942   26.0772 C   0  0  0  0  0  0  0  0  0  0  0  0
    4.6964  -15.1039   26.4998 C   0  0  0  0  0  0  0  0  0  0  0  0
    4.3817  -13.8482   26.7747 N   0  0  0  0  0  0  0  0  0  0  0  0
    5.4867  -13.0922   26.5398 C   0  0  0  0  0  0  0  0  0  0  0  0
    5.7005  -11.7420   26.6586 C   0  0  0  0  0  0  0  0  0  0  0  0
    6.9312  -11.2106   26.3458 C   0  0  0  0  0  0  0  0  0  0  0  0
    7.9488  -12.0168   25.9156 C   0  0  0  0  0  0  0  0  0  0  0  0
    7.7483  -13.3646   25.7933 C   0  0  0  0  0  0  0  0  0  0  0  0
    6.5192  -13.9166   26.1037 C   0  0  0  0  0  0  0  0  0  0  0  0
    7.6658  -17.1421   23.5449 C   0  0  0  0  0  0  0  0  0  0  0  0
    8.0925  -18.3314   23.4347 O   0  0  0  0  0  0  0  0  0  0  0  0
    8.3432  -16.0672   22.9600 N   0  0  0  0  0  0  0  0  0  0  0  0
    7.8998  -14.7030   22.8859 C   0  0  0  0  0  0  0  0  0  0  0  0
    8.9486  -13.9541   22.0878 C   0  0  0  0  0  0  0  0  0  0  0  0
    9.5886  -15.0555   21.2752 C   0  0  0  0  0  0  0  0  0  0  0  0
    9.6422  -16.1731   22.3103 C   0  0  1  0  0  0  0  0  0  0  0  0
   10.7405  -15.8390   23.2503 C   0  0  0  0  0  0  0  0  0  0  0  0
   11.8758  -15.5591   22.7622 O   0  0  0  0  0  0  0  0  0  0  0  0
    9.6326  -15.0192   28.6066 C   0  0  0  0  0  0  0  0  0  0  0  0
    9.9218  -14.9363   27.0562 C   0  0  1  0  0  0  0  0  0  0  0  0
    9.5037  -13.5017   26.6858 C   0  0  0  0  0  0  0  0  0  0  0  0
   11.3615  -15.2136   26.8504 C   0  0  0  0  0  0  0  0  0  0  0  0
   11.7736  -15.7917   25.5731 C   0  0  2  0  0  0  0  0  0  0  0  0
   10.6082  -15.8115   24.6441 N   0  0  0  0  0  0  0  0  0  0  0  0
   12.4481  -17.0590   25.5850 C   0  0  0  0  0  0  0  0  0  0  0  0
   13.7107  -17.2045   26.1859 O   0  0  0  0  0  0  0  0  0  0  0  0
   11.9547  -18.0909   25.0671 O   0  0  0  0  0  0  0  0  0  0  0  0
  2  1  1  1
  2  3  1  0
  3  4  1  0
  4 12  1  0
  4  5  2  0
  5  6  1  0
  7  8  2  0
  7  6  1  0
  9  8  1  0
 10  9  2  0
 11 10  1  0
 11 12  2  0
 12  7  1  0
 13  2  1  0
 13 14  2  0
 15 16  1  0
 15 13  1  0
 17 16  1  0
 18 17  1  0
 18 19  1  0
 19 15  1  0
 19 20  1  1
 20 27  1  0
 21 20  2  0
 23 22  1  1
 23 25  1  0
 24 23  1  0
 26 25  1  1
 26 27  1  0
 26 28  1  0
 28 29  1  0
 30 28  2  0
M  END
$$$$
