WPL.pdb
     RDKit          3D

 30 32  0  0  1  0  0  0  0  0999 V2000
    6.0487  -17.6274   25.3361 N   0  0  0  0  0  0  0  0  0  0  0  0
    6.7994  -16.5470   24.7840 C   0  0  1  0  0  0  0  0  0  0  0  0
    7.1468  -15.5036   25.8266 C   0  0  0  0  0  0  0  0  0  0  0  0
    6.1172  -14.5011   26.0681 C   0  0  0  0  0  0  0  0  0  0  0  0
    4.7948  -14.8163   26.3828 C   0  0  0  0  0  0  0  0  0  0  0  0
    4.0886  -13.7138   26.5757 N   0  0  0  0  0  0  0  0  0  0  0  0
    4.9256  -12.6586   26.3926 C   0  0  0  0  0  0  0  0  0  0  0  0
    4.7051  -11.3063   26.4664 C   0  0  0  0  0  0  0  0  0  0  0  0
    5.7367  -10.4273   26.2255 C   0  0  0  0  0  0  0  0  0  0  0  0
    6.9855  -10.8885   25.9117 C   0  0  0  0  0  0  0  0  0  0  0  0
    7.2181  -12.2344   25.8354 C   0  0  0  0  0  0  0  0  0  0  0  0
    6.1946  -13.1325   26.0750 C   0  0  0  0  0  0  0  0  0  0  0  0
    7.9247  -16.9067   23.9147 C   0  0  0  0  0  0  0  0  0  0  0  0
    8.3566  -18.0979   23.9717 O   0  0  0  0  0  0  0  0  0  0  0  0
    8.4972  -15.9639   23.0546 N   0  0  0  0  0  0  0  0  0  0  0  0
    8.0860  -14.6001   22.8699 C   0  0  0  0  0  0  0  0  0  0  0  0
    8.9689  -14.0304   21.7772 C   0  0  0  0  0  0  0  0  0  0  0  0
    9.3976  -15.2687   21.0250 C   0  0  0  0  0  0  0  0  0  0  0  0
    9.6316  -16.2330   22.1820 C   0  0  1  0  0  0  0  0  0  0  0  0
   10.9084  -15.8351   22.8246 C   0  0  0  0  0  0  0  0  0  0  0  0
   11.1360  -14.5981   22.9784 O   0  0  0  0  0  0  0  0  0  0  0  0
    9.8674  -15.6491   27.3848 C   0  0  0  0  0  0  0  0  0  0  0  0
   10.9245  -15.4004   26.2380 C   0  0  1  0  0  0  0  0  0  0  0  0
   12.1397  -14.8210   26.9848 C   0  0  0  0  0  0  0  0  0  0  0  0
   11.1889  -16.6994   25.5788 C   0  0  0  0  0  0  0  0  0  0  0  0
   12.3448  -16.7955   24.6899 C   0  0  2  0  0  0  0  0  0  0  0  0
   11.8822  -16.7354   23.2743 N   0  0  0  0  0  0  0  0  0  0  0  0
   13.2680  -17.8771   24.8875 C   0  0  0  0  0  0  0  0  0  0  0  0
   13.3827  -18.9155   23.9467 O   0  0  0  0  0  0  0  0  0  0  0  0
   14.0119  -17.9537   25.8960 O   0  0  0  0  0  0  0  0  0  0  0  0
  2  1  1  1
  2  3  1  0
  3  4  1  0
  4 12  1  0
  4  5  2  0
  5  6  1  0
  7  8  2  0
  7  6  1  0
  9  8  1  0
 10  9  2  0
 11 10  1  0
 11 12  2  0
 12  7  1  0
 13  2  1  0
 13 14  2  0
 15 16  1  0
 15 13  1  0
 17 16  1  0
 18 17  1  0
 18 19  1  0
 19 15  1  0
 19 20  1  1
 20 27  1  0
 21 20  2  0
 23 22  1  1
 23 25  1  0
 24 23  1  0
 26 25  1  1
 26 27  1  0
 26 28  1  0
 28 29  1  0
 30 28  2  0
M  END
$$$$
