WPL.pdb
     RDKit          3D

 30 32  0  0  1  0  0  0  0  0999 V2000
    5.9937  -18.2583   25.2832 N   0  0  0  0  0  0  0  0  0  0  0  0
    6.1740  -17.3466   24.2006 C   0  0  1  0  0  0  0  0  0  0  0  0
    5.7415  -15.9400   24.5625 C   0  0  0  0  0  0  0  0  0  0  0  0
    6.5255  -15.3004   25.6111 C   0  0  0  0  0  0  0  0  0  0  0  0
    7.3664  -15.9991   26.4783 C   0  0  0  0  0  0  0  0  0  0  0  0
    7.9723  -15.1655   27.3086 N   0  0  0  0  0  0  0  0  0  0  0  0
    7.5453  -13.9108   27.0072 C   0  0  0  0  0  0  0  0  0  0  0  0
    7.8536  -12.6935   27.5605 C   0  0  0  0  0  0  0  0  0  0  0  0
    7.2690  -11.5476   27.0705 C   0  0  0  0  0  0  0  0  0  0  0  0
    6.3797  -11.6085   26.0332 C   0  0  0  0  0  0  0  0  0  0  0  0
    6.0644  -12.8160   25.4728 C   0  0  0  0  0  0  0  0  0  0  0  0
    6.6422  -13.9775   25.9510 C   0  0  0  0  0  0  0  0  0  0  0  0
    7.4627  -17.4039   23.5023 C   0  0  0  0  0  0  0  0  0  0  0  0
    8.1335  -18.4767   23.5896 O   0  0  0  0  0  0  0  0  0  0  0  0
    7.9298  -16.3096   22.7669 N   0  0  0  0  0  0  0  0  0  0  0  0
    7.2195  -15.0948   22.4790 C   0  0  0  0  0  0  0  0  0  0  0  0
    8.1258  -14.2694   21.5872 C   0  0  0  0  0  0  0  0  0  0  0  0
    9.0126  -15.3202   20.9610 C   0  0  0  0  0  0  0  0  0  0  0  0
    9.2497  -16.2361   22.1560 C   0  0  1  0  0  0  0  0  0  0  0  0
   10.2144  -15.5442   23.0460 C   0  0  0  0  0  0  0  0  0  0  0  0
   10.1796  -14.2783   23.0903 O   0  0  0  0  0  0  0  0  0  0  0  0
   10.4529  -13.7300   27.5443 C   0  0  0  0  0  0  0  0  0  0  0  0
   10.3819  -15.3046   27.4442 C   0  0  1  0  0  0  0  0  0  0  0  0
    9.1387  -15.6650   28.2776 C   0  0  0  0  0  0  0  0  0  0  0  0
   10.2677  -15.6608   26.0117 C   0  0  0  0  0  0  0  0  0  0  0  0
   11.4980  -15.7642   25.2298 C   0  0  2  0  0  0  0  0  0  0  0  0
   11.1637  -16.1959   23.8429 N   0  0  0  0  0  0  0  0  0  0  0  0
   12.5826  -16.5373   25.7656 C   0  0  0  0  0  0  0  0  0  0  0  0
   12.4830  -17.9333   25.8998 O   0  0  0  0  0  0  0  0  0  0  0  0
   13.6629  -16.0170   26.1379 O   0  0  0  0  0  0  0  0  0  0  0  0
  2  1  1  1
  2  3  1  0
  3  4  1  0
  4 12  1  0
  4  5  2  0
  5  6  1  0
  7  8  2  0
  7  6  1  0
  9  8  1  0
 10  9  2  0
 11 10  1  0
 11 12  2  0
 12  7  1  0
 13  2  1  0
 13 14  2  0
 15 16  1  0
 15 13  1  0
 17 16  1  0
 18 17  1  0
 18 19  1  0
 19 15  1  0
 19 20  1  1
 20 27  1  0
 21 20  2  0
 23 22  1  6
 23 25  1  0
 24 23  1  0
 26 25  1  1
 26 27  1  0
 26 28  1  0
 28 29  1  0
 30 28  2  0
M  END
$$$$
