WPL.pdb
     RDKit          3D

 30 32  0  0  1  0  0  0  0  0999 V2000
    5.8910  -18.3321   24.5878 N   0  0  0  0  0  0  0  0  0  0  0  0
    6.7124  -17.1782   24.4168 C   0  0  1  0  0  0  0  0  0  0  0  0
    7.0681  -16.5312   25.7403 C   0  0  0  0  0  0  0  0  0  0  0  0
    6.4428  -15.2383   25.9866 C   0  0  0  0  0  0  0  0  0  0  0  0
    5.0949  -15.0849   26.3139 C   0  0  0  0  0  0  0  0  0  0  0  0
    4.8073  -13.8079   26.5084 N   0  0  0  0  0  0  0  0  0  0  0  0
    5.9514  -13.1001   26.3140 C   0  0  0  0  0  0  0  0  0  0  0  0
    6.2044  -11.7533   26.3842 C   0  0  0  0  0  0  0  0  0  0  0  0
    7.4710  -11.2775   26.1310 C   0  0  0  0  0  0  0  0  0  0  0  0
    8.4857  -12.1360   25.8084 C   0  0  0  0  0  0  0  0  0  0  0  0
    8.2463  -13.4809   25.7355 C   0  0  0  0  0  0  0  0  0  0  0  0
    6.9807  -13.9774   25.9873 C   0  0  0  0  0  0  0  0  0  0  0  0
    7.8523  -17.3136   23.5037 C   0  0  0  0  0  0  0  0  0  0  0  0
    8.3683  -18.4646   23.3713 O   0  0  0  0  0  0  0  0  0  0  0  0
    8.3482  -16.2076   22.8058 N   0  0  0  0  0  0  0  0  0  0  0  0
    7.7362  -14.9133   22.6894 C   0  0  0  0  0  0  0  0  0  0  0  0
    8.6242  -14.1005   21.7681 C   0  0  0  0  0  0  0  0  0  0  0  0
    9.3341  -15.1702   20.9714 C   0  0  0  0  0  0  0  0  0  0  0  0
    9.5997  -16.2022   22.0612 C   0  0  1  0  0  0  0  0  0  0  0  0
   10.7139  -15.6788   22.8894 C   0  0  0  0  0  0  0  0  0  0  0  0
   11.0551  -14.4689   22.7304 O   0  0  0  0  0  0  0  0  0  0  0  0
   10.8804  -13.7695   27.3769 C   0  0  0  0  0  0  0  0  0  0  0  0
   10.2292  -15.1998   27.2202 C   0  0  1  0  0  0  0  0  0  0  0  0
    8.7948  -15.0043   27.7439 C   0  0  0  0  0  0  0  0  0  0  0  0
   10.2997  -15.5732   25.7892 C   0  0  0  0  0  0  0  0  0  0  0  0
   11.5903  -16.0019   25.2544 C   0  0  2  0  0  0  0  0  0  0  0  0
   11.4165  -16.4323   23.8380 N   0  0  0  0  0  0  0  0  0  0  0  0
   12.3500  -16.9659   25.9990 C   0  0  0  0  0  0  0  0  0  0  0  0
   12.1157  -18.3446   25.8540 O   0  0  0  0  0  0  0  0  0  0  0  0
   13.2514  -16.6356   26.8083 O   0  0  0  0  0  0  0  0  0  0  0  0
  2  1  1  1
  2  3  1  0
  3  4  1  0
  4 12  1  0
  4  5  2  0
  5  6  1  0
  7  8  2  0
  7  6  1  0
  9  8  1  0
 10  9  2  0
 11 10  1  0
 11 12  2  0
 12  7  1  0
 13  2  1  0
 13 14  2  0
 15 16  1  0
 15 13  1  0
 17 16  1  0
 18 17  1  0
 18 19  1  0
 19 15  1  0
 19 20  1  1
 20 27  1  0
 21 20  2  0
 23 22  1  6
 23 25  1  0
 24 23  1  0
 26 25  1  1
 26 27  1  0
 26 28  1  0
 28 29  1  0
 30 28  2  0
M  END
$$$$
