WPL.pdb
     RDKit          3D

 30 32  0  0  1  0  0  0  0  0999 V2000
    7.5437  -17.9844   26.2240 N   0  0  0  0  0  0  0  0  0  0  0  0
    7.3855  -17.2443   25.0145 C   0  0  1  0  0  0  0  0  0  0  0  0
    8.2625  -16.0088   24.9840 C   0  0  0  0  0  0  0  0  0  0  0  0
    8.0719  -15.0853   26.0950 C   0  0  0  0  0  0  0  0  0  0  0  0
    8.7175  -15.2172   27.3251 C   0  0  0  0  0  0  0  0  0  0  0  0
    8.3795  -14.2265   28.1348 N   0  0  0  0  0  0  0  0  0  0  0  0
    7.5107  -13.4288   27.4593 C   0  0  0  0  0  0  0  0  0  0  0  0
    6.8586  -12.2811   27.8340 C   0  0  0  0  0  0  0  0  0  0  0  0
    6.0085  -11.6538   26.9515 C   0  0  0  0  0  0  0  0  0  0  0  0
    5.8051  -12.1639   25.6989 C   0  0  0  0  0  0  0  0  0  0  0  0
    6.4497  -13.3073   25.3132 C   0  0  0  0  0  0  0  0  0  0  0  0
    7.3079  -13.9507   26.1856 C   0  0  0  0  0  0  0  0  0  0  0  0
    7.4109  -18.0140   23.7662 C   0  0  0  0  0  0  0  0  0  0  0  0
    8.0270  -19.1226   23.7694 O   0  0  0  0  0  0  0  0  0  0  0  0
    6.7754  -17.5364   22.6154 N   0  0  0  0  0  0  0  0  0  0  0  0
    5.8660  -16.4281   22.5268 C   0  0  0  0  0  0  0  0  0  0  0  0
    5.3977  -16.3720   21.0861 C   0  0  0  0  0  0  0  0  0  0  0  0
    5.6096  -17.7929   20.6183 C   0  0  0  0  0  0  0  0  0  0  0  0
    6.9404  -18.1136   21.2886 C   0  0  1  0  0  0  0  0  0  0  0  0
    7.9928  -17.4025   20.5217 C   0  0  0  0  0  0  0  0  0  0  0  0
    8.2328  -17.7920   19.3401 O   0  0  0  0  0  0  0  0  0  0  0  0
    7.8762  -12.2852   20.8322 C   0  0  0  0  0  0  0  0  0  0  0  0
    7.9967  -13.7217   20.1869 C   0  0  1  0  0  0  0  0  0  0  0  0
    7.4955  -13.5149   18.7460 C   0  0  0  0  0  0  0  0  0  0  0  0
    9.4147  -14.1381   20.2748 C   0  0  0  0  0  0  0  0  0  0  0  0
    9.7180  -15.5649   20.1865 C   0  0  2  0  0  0  0  0  0  0  0  0
    8.7414  -16.3269   21.0155 N   0  0  0  0  0  0  0  0  0  0  0  0
   11.0634  -15.9928   20.4471 C   0  0  0  0  0  0  0  0  0  0  0  0
   12.0837  -15.8001   19.4992 O   0  0  0  0  0  0  0  0  0  0  0  0
   11.3974  -16.5539   21.5196 O   0  0  0  0  0  0  0  0  0  0  0  0
  2  1  1  1
  2  3  1  0
  3  4  1  0
  4 12  1  0
  4  5  2  0
  5  6  1  0
  7  8  2  0
  7  6  1  0
  9  8  1  0
 10  9  2  0
 11 10  1  0
 11 12  2  0
 12  7  1  0
 13  2  1  0
 13 14  2  0
 15 16  1  0
 15 13  1  0
 17 16  1  0
 18 17  1  0
 18 19  1  0
 19 15  1  0
 19 20  1  6
 20 27  1  0
 21 20  2  0
 23 22  1  1
 23 25  1  0
 24 23  1  0
 26 25  1  1
 26 27  1  0
 26 28  1  0
 28 29  1  0
 30 28  2  0
M  END
$$$$
