WPL.pdb
     RDKit          3D

 30 32  0  0  1  0  0  0  0  0999 V2000
    5.6655  -17.9467   24.7131 N   0  0  0  0  0  0  0  0  0  0  0  0
    6.6265  -16.9226   24.4612 C   0  0  1  0  0  0  0  0  0  0  0  0
    7.0935  -16.2534   25.7381 C   0  0  0  0  0  0  0  0  0  0  0  0
    6.4328  -14.9941   26.0559 C   0  0  0  0  0  0  0  0  0  0  0  0
    5.0748  -14.8927   26.3608 C   0  0  0  0  0  0  0  0  0  0  0  0
    4.7532  -13.6384   26.6338 N   0  0  0  0  0  0  0  0  0  0  0  0
    5.8844  -12.8943   26.5145 C   0  0  0  0  0  0  0  0  0  0  0  0
    6.1042  -11.5501   26.6811 C   0  0  0  0  0  0  0  0  0  0  0  0
    7.3646  -11.0307   26.4905 C   0  0  0  0  0  0  0  0  0  0  0  0
    8.4060  -11.8429   26.1350 C   0  0  0  0  0  0  0  0  0  0  0  0
    8.1998  -13.1848   25.9662 C   0  0  0  0  0  0  0  0  0  0  0  0
    6.9410  -13.7247   26.1541 C   0  0  0  0  0  0  0  0  0  0  0  0
    7.7179  -17.2591   23.5408 C   0  0  0  0  0  0  0  0  0  0  0  0
    8.0015  -18.4856   23.3857 O   0  0  0  0  0  0  0  0  0  0  0  0
    8.4177  -16.2572   22.8605 N   0  0  0  0  0  0  0  0  0  0  0  0
    8.0220  -14.8864   22.6949 C   0  0  0  0  0  0  0  0  0  0  0  0
    9.0752  -14.2393   21.8174 C   0  0  0  0  0  0  0  0  0  0  0  0
    9.6527  -15.4215   21.0747 C   0  0  0  0  0  0  0  0  0  0  0  0
    9.6939  -16.4604   22.1892 C   0  0  1  0  0  0  0  0  0  0  0  0
   10.8286  -16.0995   23.0745 C   0  0  0  0  0  0  0  0  0  0  0  0
   11.8589  -15.5892   22.5419 O   0  0  0  0  0  0  0  0  0  0  0  0
    9.6018  -14.5307   28.1616 C   0  0  0  0  0  0  0  0  0  0  0  0
   10.1080  -14.5977   26.6671 C   0  0  1  0  0  0  0  0  0  0  0  0
   10.3231  -13.1204   26.2908 C   0  0  0  0  0  0  0  0  0  0  0  0
   11.3465  -15.4086   26.6462 C   0  0  0  0  0  0  0  0  0  0  0  0
   11.9171  -15.7572   25.3468 C   0  0  2  0  0  0  0  0  0  0  0  0
   10.8392  -16.2845   24.4626 N   0  0  0  0  0  0  0  0  0  0  0  0
   13.0737  -16.6072   25.3167 C   0  0  0  0  0  0  0  0  0  0  0  0
   14.3090  -16.1715   25.8272 O   0  0  0  0  0  0  0  0  0  0  0  0
   13.0456  -17.7684   24.8400 O   0  0  0  0  0  0  0  0  0  0  0  0
  2  1  1  1
  2  3  1  0
  3  4  1  0
  4 12  1  0
  4  5  2  0
  5  6  1  0
  7  8  2  0
  7  6  1  0
  9  8  1  0
 10  9  2  0
 11 10  1  0
 11 12  2  0
 12  7  1  0
 13  2  1  0
 13 14  2  0
 15 16  1  0
 15 13  1  0
 17 16  1  0
 18 17  1  0
 18 19  1  0
 19 15  1  0
 19 20  1  1
 20 27  1  0
 21 20  2  0
 23 22  1  1
 23 25  1  0
 24 23  1  0
 26 25  1  1
 26 27  1  0
 26 28  1  0
 28 29  1  0
 30 28  2  0
M  END
$$$$
