WPL.pdb
     RDKit          3D

 30 32  0  0  1  0  0  0  0  0999 V2000
    6.0190  -17.9333   24.9379 N   0  0  0  0  0  0  0  0  0  0  0  0
    6.9309  -16.9043   24.5569 C   0  0  1  0  0  0  0  0  0  0  0  0
    7.2512  -15.9723   25.7081 C   0  0  0  0  0  0  0  0  0  0  0  0
    6.2677  -14.9247   25.9502 C   0  0  0  0  0  0  0  0  0  0  0  0
    5.0300  -15.1550   26.5521 C   0  0  0  0  0  0  0  0  0  0  0  0
    4.3541  -14.0234   26.6703 N   0  0  0  0  0  0  0  0  0  0  0  0
    5.1272  -13.0329   26.1518 C   0  0  0  0  0  0  0  0  0  0  0  0
    4.9032  -11.6854   26.0215 C   0  0  0  0  0  0  0  0  0  0  0  0
    5.8598  -10.8821   25.4432 C   0  0  0  0  0  0  0  0  0  0  0  0
    7.0372  -11.4141   24.9944 C   0  0  0  0  0  0  0  0  0  0  0  0
    7.2726  -12.7559   25.1189 C   0  0  0  0  0  0  0  0  0  0  0  0
    6.3240  -13.5784   25.6979 C   0  0  0  0  0  0  0  0  0  0  0  0
    8.1114  -17.3232   23.7938 C   0  0  0  0  0  0  0  0  0  0  0  0
    8.2765  -18.5654   23.5976 O   0  0  0  0  0  0  0  0  0  0  0  0
    9.0200  -16.3803   23.3021 N   0  0  0  0  0  0  0  0  0  0  0  0
    8.8339  -14.9580   23.2266 C   0  0  0  0  0  0  0  0  0  0  0  0
   10.0685  -14.3997   22.5467 C   0  0  0  0  0  0  0  0  0  0  0  0
   10.5761  -15.5884   21.7644 C   0  0  0  0  0  0  0  0  0  0  0  0
   10.3344  -16.7093   22.7686 C   0  0  1  0  0  0  0  0  0  0  0  0
   11.3822  -16.5879   23.8121 C   0  0  0  0  0  0  0  0  0  0  0  0
   12.5783  -16.4071   23.4350 O   0  0  0  0  0  0  0  0  0  0  0  0
   10.3365  -14.6590   28.8657 C   0  0  0  0  0  0  0  0  0  0  0  0
   10.9607  -14.8883   27.4332 C   0  0  1  0  0  0  0  0  0  0  0  0
   11.8381  -13.6420   27.2165 C   0  0  0  0  0  0  0  0  0  0  0  0
   11.7210  -16.1581   27.4705 C   0  0  0  0  0  0  0  0  0  0  0  0
   12.2270  -16.6927   26.2081 C   0  0  2  0  0  0  0  0  0  0  0  0
   11.1394  -16.6594   25.1894 N   0  0  0  0  0  0  0  0  0  0  0  0
   12.8832  -17.9695   26.2233 C   0  0  0  0  0  0  0  0  0  0  0  0
   12.2768  -19.1050   25.6580 O   0  0  0  0  0  0  0  0  0  0  0  0
   14.0173  -18.1394   26.7346 O   0  0  0  0  0  0  0  0  0  0  0  0
  2  1  1  1
  2  3  1  0
  3  4  1  0
  4 12  1  0
  4  5  2  0
  5  6  1  0
  7  8  2  0
  7  6  1  0
  9  8  1  0
 10  9  2  0
 11 10  1  0
 11 12  2  0
 12  7  1  0
 13  2  1  0
 13 14  2  0
 15 16  1  0
 15 13  1  0
 17 16  1  0
 18 17  1  0
 18 19  1  0
 19 15  1  0
 19 20  1  1
 20 27  1  0
 21 20  2  0
 23 22  1  1
 23 25  1  0
 24 23  1  0
 26 25  1  1
 26 27  1  0
 26 28  1  0
 28 29  1  0
 30 28  2  0
M  END
$$$$
