WPL.pdb
     RDKit          3D

 30 32  0  0  1  0  0  0  0  0999 V2000
    8.3056  -18.0431   24.4024 N   0  0  0  0  0  0  0  0  0  0  0  0
    7.5471  -16.8346   24.4066 C   0  0  1  0  0  0  0  0  0  0  0  0
    7.7918  -16.0131   25.6563 C   0  0  0  0  0  0  0  0  0  0  0  0
    6.7979  -14.9821   25.9254 C   0  0  0  0  0  0  0  0  0  0  0  0
    5.4847  -15.2598   26.3072 C   0  0  0  0  0  0  0  0  0  0  0  0
    4.8137  -14.1375   26.5108 N   0  0  0  0  0  0  0  0  0  0  0  0
    5.6651  -13.1060   26.2684 C   0  0  0  0  0  0  0  0  0  0  0  0
    5.4793  -11.7477   26.3255 C   0  0  0  0  0  0  0  0  0  0  0  0
    6.5183  -10.8981   26.0198 C   0  0  0  0  0  0  0  0  0  0  0  0
    7.7402  -11.3946   25.6576 C   0  0  0  0  0  0  0  0  0  0  0  0
    7.9382  -12.7469   25.5973 C   0  0  0  0  0  0  0  0  0  0  0  0
    6.9067  -13.6158   25.9017 C   0  0  0  0  0  0  0  0  0  0  0  0
    7.5650  -16.0445   23.1710 C   0  0  0  0  0  0  0  0  0  0  0  0
    6.4955  -15.4513   22.8348 O   0  0  0  0  0  0  0  0  0  0  0  0
    8.7249  -15.9522   22.3947 N   0  0  0  0  0  0  0  0  0  0  0  0
    9.0031  -14.9879   21.3672 C   0  0  0  0  0  0  0  0  0  0  0  0
   10.3478  -15.3653   20.7780 C   0  0  0  0  0  0  0  0  0  0  0  0
   10.4447  -16.8378   21.1020 C   0  0  0  0  0  0  0  0  0  0  0  0
    9.8623  -16.8542   22.5105 C   0  0  1  0  0  0  0  0  0  0  0  0
   10.8992  -16.2962   23.4132 C   0  0  0  0  0  0  0  0  0  0  0  0
   11.1003  -15.0455   23.3857 O   0  0  0  0  0  0  0  0  0  0  0  0
   11.6238  -13.9689   27.6046 C   0  0  0  0  0  0  0  0  0  0  0  0
   11.0725  -15.4472   27.6751 C   0  0  1  0  0  0  0  0  0  0  0  0
    9.7435  -15.3023   28.4384 C   0  0  0  0  0  0  0  0  0  0  0  0
   10.9167  -15.9372   26.2867 C   0  0  0  0  0  0  0  0  0  0  0  0
   12.0634  -16.5864   25.6550 C   0  0  2  0  0  0  0  0  0  0  0  0
   11.6732  -17.0591   24.2964 N   0  0  0  0  0  0  0  0  0  0  0  0
   12.7505  -17.6150   26.3836 C   0  0  0  0  0  0  0  0  0  0  0  0
   12.0643  -18.7394   26.8750 O   0  0  0  0  0  0  0  0  0  0  0  0
   13.9830  -17.5674   26.6184 O   0  0  0  0  0  0  0  0  0  0  0  0
  2  1  1  6
  2  3  1  0
  3  4  1  0
  4 12  1  0
  4  5  2  0
  5  6  1  0
  7  8  2  0
  7  6  1  0
  9  8  1  0
 10  9  2  0
 11 10  1  0
 11 12  2  0
 12  7  1  0
 13  2  1  0
 13 14  2  0
 15 16  1  0
 15 13  1  0
 17 16  1  0
 18 17  1  0
 18 19  1  0
 19 15  1  0
 19 20  1  1
 20 27  1  0
 21 20  2  0
 23 22  1  6
 23 25  1  0
 24 23  1  0
 26 25  1  1
 26 27  1  0
 26 28  1  0
 28 29  1  0
 30 28  2  0
M  END
$$$$
