WPL.pdb
     RDKit          3D

 30 32  0  0  1  0  0  0  0  0999 V2000
    6.5867  -18.3594   24.6234 N   0  0  0  0  0  0  0  0  0  0  0  0
    7.0316  -17.7948   23.3910 C   0  0  1  0  0  0  0  0  0  0  0  0
    6.4377  -16.4222   23.1462 C   0  0  0  0  0  0  0  0  0  0  0  0
    6.3344  -15.5718   24.3249 C   0  0  0  0  0  0  0  0  0  0  0  0
    5.9162  -16.0341   25.5734 C   0  0  0  0  0  0  0  0  0  0  0  0
    5.9436  -15.0551   26.4634 N   0  0  0  0  0  0  0  0  0  0  0  0
    6.3767  -13.9369   25.8234 C   0  0  0  0  0  0  0  0  0  0  0  0
    6.5790  -12.6572   26.2757 C   0  0  0  0  0  0  0  0  0  0  0  0
    7.0235  -11.6840   25.4096 C   0  0  0  0  0  0  0  0  0  0  0  0
    7.2671  -11.9791   24.0965 C   0  0  0  0  0  0  0  0  0  0  0  0
    7.0696  -13.2512   23.6335 C   0  0  0  0  0  0  0  0  0  0  0  0
    6.6244  -14.2421   24.4887 C   0  0  0  0  0  0  0  0  0  0  0  0
    8.4705  -17.8701   23.1163 C   0  0  0  0  0  0  0  0  0  0  0  0
    8.9871  -19.0215   22.9897 O   0  0  0  0  0  0  0  0  0  0  0  0
    9.2405  -16.7084   22.9988 N   0  0  0  0  0  0  0  0  0  0  0  0
    8.7614  -15.3554   22.9445 C   0  0  0  0  0  0  0  0  0  0  0  0
    9.9793  -14.4775   22.7345 C   0  0  0  0  0  0  0  0  0  0  0  0
   10.9626  -15.4307   22.0962 C   0  0  0  0  0  0  0  0  0  0  0  0
   10.6937  -16.6945   22.9046 C   0  0  1  0  0  0  0  0  0  0  0  0
   11.3153  -16.4956   24.2371 C   0  0  0  0  0  0  0  0  0  0  0  0
   12.5474  -16.2032   24.2803 O   0  0  0  0  0  0  0  0  0  0  0  0
    8.8809  -14.0219   28.3632 C   0  0  0  0  0  0  0  0  0  0  0  0
    9.9544  -14.4805   27.2994 C   0  0  1  0  0  0  0  0  0  0  0  0
   11.0111  -13.3619   27.3454 C   0  0  0  0  0  0  0  0  0  0  0  0
   10.4654  -15.8059   27.7169 C   0  0  0  0  0  0  0  0  0  0  0  0
   11.3106  -16.5423   26.7793 C   0  0  2  0  0  0  0  0  0  0  0  0
   10.6318  -16.6089   25.4541 N   0  0  0  0  0  0  0  0  0  0  0  0
   11.8030  -17.8317   27.1743 C   0  0  0  0  0  0  0  0  0  0  0  0
   12.7708  -17.9613   28.1858 O   0  0  0  0  0  0  0  0  0  0  0  0
   11.4024  -18.8980   26.6460 O   0  0  0  0  0  0  0  0  0  0  0  0
  2  1  1  1
  2  3  1  0
  3  4  1  0
  4 12  1  0
  4  5  2  0
  5  6  1  0
  7  8  2  0
  7  6  1  0
  9  8  1  0
 10  9  2  0
 11 10  1  0
 11 12  2  0
 12  7  1  0
 13  2  1  0
 13 14  2  0
 15 16  1  0
 15 13  1  0
 17 16  1  0
 18 17  1  0
 18 19  1  0
 19 15  1  0
 19 20  1  1
 20 27  1  0
 21 20  2  0
 23 22  1  1
 23 25  1  0
 24 23  1  0
 26 25  1  1
 26 27  1  0
 26 28  1  0
 28 29  1  0
 30 28  2  0
M  END
$$$$
