ADW.pdb
     RDKit          3D

 28 29  0  0  1  0  0  0  0  0999 V2000
   28.2765  -21.2894  -17.1352 C   0  0  0  0  0  0  0  0  0  0  0  0
   27.6265  -22.0049  -15.9919 C   0  0  2  0  0  0  0  0  0  0  0  0
   26.6341  -22.9657  -16.4231 N   0  0  0  0  0  0  0  0  0  0  0  0
   26.9986  -21.0978  -15.0020 C   0  0  0  0  0  0  0  0  0  0  0  0
   27.7068  -20.1433  -14.5144 O   0  0  0  0  0  0  0  0  0  0  0  0
   25.6534  -21.2760  -14.6012 N   0  0  0  0  0  0  0  0  0  0  0  0
   25.0929  -20.3395  -13.6893 C   0  0  1  0  0  0  0  0  0  0  0  0
   23.6668  -19.9609  -14.0257 C   0  0  0  0  0  0  0  0  0  0  0  0
   23.5219  -19.1522  -15.2311 C   0  0  0  0  0  0  0  0  0  0  0  0
   22.9316  -19.6191  -16.2335 O   0  0  0  0  0  0  0  0  0  0  0  0
   25.0983  -20.9298  -12.3219 C   0  0  0  0  0  0  0  0  0  0  0  0
   24.6767  -22.1251  -12.1992 O   0  0  0  0  0  0  0  0  0  0  0  0
   24.0099  -17.8399  -15.3616 O   0  0  0  0  0  0  0  0  0  0  0  0
   25.5450  -20.2275  -11.1951 N   0  0  0  0  0  0  0  0  0  0  0  0
   25.4494  -20.8665   -9.8656 C   0  0  1  0  0  0  0  0  0  0  0  0
   26.5198  -20.1493   -9.0520 C   0  0  0  0  0  0  0  0  0  0  0  0
   26.5397  -20.4913   -7.6322 C   0  0  0  0  0  0  0  0  0  0  0  0
   25.7040  -21.3350   -6.9245 C   0  0  0  0  0  0  0  0  0  0  0  0
   26.1556  -21.3227   -5.6576 N   0  0  0  0  0  0  0  0  0  0  0  0
   27.2302  -20.5183   -5.5293 C   0  0  0  0  0  0  0  0  0  0  0  0
   28.0468  -20.1796   -4.4553 C   0  0  0  0  0  0  0  0  0  0  0  0
   29.1088  -19.3194   -4.6088 C   0  0  0  0  0  0  0  0  0  0  0  0
   29.3892  -18.7651   -5.8554 C   0  0  0  0  0  0  0  0  0  0  0  0
   28.5741  -19.1052   -6.9166 C   0  0  0  0  0  0  0  0  0  0  0  0
   27.5069  -19.9712   -6.7581 C   0  0  0  0  0  0  0  0  0  0  0  0
   24.0930  -20.6460   -9.3890 C   0  0  0  0  0  0  0  0  0  0  0  0
   23.3954  -19.6722   -9.7067 O   0  0  0  0  0  0  0  0  0  0  0  0
   23.5032  -21.5690   -8.5181 O   0  0  0  0  0  0  0  0  0  0  0  0
  2  1  1  6
  3  2  1  0
  4  6  1  0
  4  2  1  0
  5  4  2  0
  7  8  1  6
  7  6  1  0
  8  9  1  0
  9 10  2  0
 11  7  1  0
 11 14  1  0
 12 11  2  0
 13  9  1  0
 15 14  1  0
 15 26  1  0
 15 16  1  1
 17 16  1  0
 18 17  2  0
 19 20  1  0
 19 18  1  0
 20 25  2  0
 21 22  2  0
 21 20  1  0
 22 23  1  0
 23 24  2  0
 25 17  1  0
 25 24  1  0
 26 28  1  0
 27 26  2  0
M  END
$$$$
