ADW.pdb
     RDKit          3D

 28 29  0  0  1  0  0  0  0  0999 V2000
   29.7657  -21.1467  -18.1106 C   0  0  0  0  0  0  0  0  0  0  0  0
   28.7909  -21.9881  -17.3467 C   0  0  2  0  0  0  0  0  0  0  0  0
   27.7729  -22.5736  -18.1921 N   0  0  0  0  0  0  0  0  0  0  0  0
   28.1199  -21.2653  -16.2404 C   0  0  0  0  0  0  0  0  0  0  0  0
   28.8456  -20.7961  -15.2899 O   0  0  0  0  0  0  0  0  0  0  0  0
   26.7154  -21.0949  -16.2277 N   0  0  0  0  0  0  0  0  0  0  0  0
   26.1393  -20.3310  -15.1754 C   0  0  1  0  0  0  0  0  0  0  0  0
   24.8921  -19.5837  -15.5955 C   0  0  0  0  0  0  0  0  0  0  0  0
   25.1086  -18.5712  -16.6232 C   0  0  0  0  0  0  0  0  0  0  0  0
   25.8400  -17.5814  -16.3853 O   0  0  0  0  0  0  0  0  0  0  0  0
   25.7700  -21.2440  -14.0581 C   0  0  0  0  0  0  0  0  0  0  0  0
   25.2596  -22.3690  -14.3664 O   0  0  0  0  0  0  0  0  0  0  0  0
   24.5407  -18.6207  -17.9085 O   0  0  0  0  0  0  0  0  0  0  0  0
   25.9655  -20.9111  -12.7114 N   0  0  0  0  0  0  0  0  0  0  0  0
   25.5425  -21.8670  -11.6663 C   0  0  1  0  0  0  0  0  0  0  0  0
   26.7332  -21.8999  -10.7159 C   0  0  0  0  0  0  0  0  0  0  0  0
   26.7669  -20.8132   -9.7406 C   0  0  0  0  0  0  0  0  0  0  0  0
   25.9155  -19.7324   -9.6065 C   0  0  0  0  0  0  0  0  0  0  0  0
   26.3651  -19.0392   -8.5451 N   0  0  0  0  0  0  0  0  0  0  0  0
   27.4522  -19.6250   -8.0033 C   0  0  0  0  0  0  0  0  0  0  0  0
   28.2628  -19.3139   -6.9165 C   0  0  0  0  0  0  0  0  0  0  0  0
   29.3294  -20.1098   -6.5699 C   0  0  0  0  0  0  0  0  0  0  0  0
   29.6212  -21.2540   -7.3086 C   0  0  0  0  0  0  0  0  0  0  0  0
   28.8129  -21.5562   -8.3863 C   0  0  0  0  0  0  0  0  0  0  0  0
   27.7405  -20.7531   -8.7315 C   0  0  0  0  0  0  0  0  0  0  0  0
   24.3249  -21.3336  -11.0757 C   0  0  0  0  0  0  0  0  0  0  0  0
   23.6939  -21.8894  -10.1654 O   0  0  0  0  0  0  0  0  0  0  0  0
   23.8034  -20.1191  -11.5351 O   0  0  0  0  0  0  0  0  0  0  0  0
  2  1  1  6
  3  2  1  0
  4  6  1  0
  4  2  1  0
  5  4  2  0
  7  8  1  6
  7  6  1  0
  8  9  1  0
  9 10  2  0
 11  7  1  0
 11 14  1  0
 12 11  2  0
 13  9  1  0
 15 14  1  0
 15 26  1  0
 15 16  1  1
 17 16  1  0
 18 17  2  0
 19 20  1  0
 19 18  1  0
 20 25  2  0
 21 22  2  0
 21 20  1  0
 22 23  1  0
 23 24  2  0
 25 17  1  0
 25 24  1  0
 26 28  1  0
 27 26  2  0
M  END
$$$$
