ADW.pdb
     RDKit          3D

 28 29  0  0  1  0  0  0  0  0999 V2000
   29.0765  -17.9906  -15.7946 C   0  0  0  0  0  0  0  0  0  0  0  0
   28.5612  -18.9514  -16.8207 C   0  0  2  0  0  0  0  0  0  0  0  0
   28.5518  -18.3939  -18.1560 N   0  0  0  0  0  0  0  0  0  0  0  0
   27.2054  -19.4705  -16.5221 C   0  0  0  0  0  0  0  0  0  0  0  0
   26.2278  -18.6378  -16.4868 O   0  0  0  0  0  0  0  0  0  0  0  0
   26.9895  -20.8479  -16.2809 N   0  0  0  0  0  0  0  0  0  0  0  0
   25.6860  -21.2681  -15.8977 C   0  0  1  0  0  0  0  0  0  0  0  0
   25.1978  -22.4744  -16.6704 C   0  0  0  0  0  0  0  0  0  0  0  0
   24.9572  -22.2301  -18.0883 C   0  0  0  0  0  0  0  0  0  0  0  0
   24.2021  -21.2953  -18.4453 O   0  0  0  0  0  0  0  0  0  0  0  0
   25.6958  -21.6252  -14.4518 C   0  0  0  0  0  0  0  0  0  0  0  0
   26.6615  -22.3417  -14.0330 O   0  0  0  0  0  0  0  0  0  0  0  0
   25.5280  -22.9889  -19.1254 O   0  0  0  0  0  0  0  0  0  0  0  0
   24.7004  -21.2043  -13.5605 N   0  0  0  0  0  0  0  0  0  0  0  0
   24.8824  -21.4463  -12.1137 C   0  0  1  0  0  0  0  0  0  0  0  0
   26.2084  -20.7615  -11.8057 C   0  0  0  0  0  0  0  0  0  0  0  0
   26.4747  -20.5563  -10.3844 C   0  0  0  0  0  0  0  0  0  0  0  0
   25.6284  -20.0925   -9.3946 C   0  0  0  0  0  0  0  0  0  0  0  0
   26.3476  -20.1088   -8.2581 N   0  0  0  0  0  0  0  0  0  0  0  0
   27.5997  -20.5583   -8.4781 C   0  0  0  0  0  0  0  0  0  0  0  0
   28.6989  -20.7661   -7.6512 C   0  0  0  0  0  0  0  0  0  0  0  0
   29.8843  -21.2551   -8.1481 C   0  0  0  0  0  0  0  0  0  0  0  0
   30.0079  -21.5543   -9.5028 C   0  0  0  0  0  0  0  0  0  0  0  0
   28.9131  -21.3450  -10.3176 C   0  0  0  0  0  0  0  0  0  0  0  0
   27.7222  -20.8531   -9.8137 C   0  0  0  0  0  0  0  0  0  0  0  0
   23.7371  -20.8541  -11.4404 C   0  0  0  0  0  0  0  0  0  0  0  0
   23.3649  -21.1656  -10.3001 O   0  0  0  0  0  0  0  0  0  0  0  0
   22.9846  -19.8668  -12.0864 O   0  0  0  0  0  0  0  0  0  0  0  0
  2  1  1  1
  3  2  1  0
  4  6  1  0
  4  2  1  0
  5  4  2  0
  7  8  1  6
  7  6  1  0
  8  9  1  0
  9 10  2  0
 11  7  1  0
 11 14  1  0
 12 11  2  0
 13  9  1  0
 15 14  1  0
 15 26  1  0
 15 16  1  1
 17 16  1  0
 18 17  2  0
 19 20  1  0
 19 18  1  0
 20 25  2  0
 21 22  2  0
 21 20  1  0
 22 23  1  0
 23 24  2  0
 25 17  1  0
 25 24  1  0
 26 28  1  0
 27 26  2  0
M  END
$$$$
