ADW.pdb
     RDKit          3D

 28 29  0  0  1  0  0  0  0  0999 V2000
   28.3414  -17.5223  -15.7560 C   0  0  0  0  0  0  0  0  0  0  0  0
   28.0751  -18.3998  -16.9395 C   0  0  2  0  0  0  0  0  0  0  0  0
   27.5215  -17.6740  -18.0623 N   0  0  0  0  0  0  0  0  0  0  0  0
   27.1858  -19.5474  -16.6413 C   0  0  0  0  0  0  0  0  0  0  0  0
   25.9458  -19.3119  -16.4025 O   0  0  0  0  0  0  0  0  0  0  0  0
   27.6867  -20.8705  -16.6187 N   0  0  0  0  0  0  0  0  0  0  0  0
   26.8015  -21.9192  -16.2456 C   0  0  1  0  0  0  0  0  0  0  0  0
   27.3681  -23.2981  -16.5065 C   0  0  0  0  0  0  0  0  0  0  0  0
   26.4126  -24.3880  -16.3416 C   0  0  0  0  0  0  0  0  0  0  0  0
   25.2118  -24.1368  -16.0837 O   0  0  0  0  0  0  0  0  0  0  0  0
   26.5096  -21.8136  -14.7889 C   0  0  0  0  0  0  0  0  0  0  0  0
   27.4815  -21.9830  -13.9838 O   0  0  0  0  0  0  0  0  0  0  0  0
   26.7448  -25.7496  -16.4543 O   0  0  0  0  0  0  0  0  0  0  0  0
   25.2298  -21.5373  -14.2906 N   0  0  0  0  0  0  0  0  0  0  0  0
   25.0165  -21.5200  -12.8280 C   0  0  1  0  0  0  0  0  0  0  0  0
   25.9935  -20.4565  -12.3418 C   0  0  0  0  0  0  0  0  0  0  0  0
   26.2766  -20.4958  -10.9095 C   0  0  0  0  0  0  0  0  0  0  0  0
   25.4359  -20.2305   -9.8447 C   0  0  0  0  0  0  0  0  0  0  0  0
   26.1720  -20.4279   -8.7364 N   0  0  0  0  0  0  0  0  0  0  0  0
   27.4296  -20.8039   -9.0452 C   0  0  0  0  0  0  0  0  0  0  0  0
   28.5449  -21.1275   -8.2795 C   0  0  0  0  0  0  0  0  0  0  0  0
   29.7325  -21.4958   -8.8671 C   0  0  0  0  0  0  0  0  0  0  0  0
   29.8420  -21.5519  -10.2545 C   0  0  0  0  0  0  0  0  0  0  0  0
   28.7312  -21.2288  -11.0081 C   0  0  0  0  0  0  0  0  0  0  0  0
   27.5382  -20.8591  -10.4132 C   0  0  0  0  0  0  0  0  0  0  0  0
   23.6176  -21.1862  -12.6105 C   0  0  0  0  0  0  0  0  0  0  0  0
   23.0610  -21.2159  -11.5037 O   0  0  0  0  0  0  0  0  0  0  0  0
   22.8181  -20.8010  -13.6925 O   0  0  0  0  0  0  0  0  0  0  0  0
  2  1  1  1
  3  2  1  0
  4  6  1  0
  4  2  1  0
  5  4  2  0
  7  8  1  1
  7  6  1  0
  8  9  1  0
  9 10  2  0
 11  7  1  0
 11 14  1  0
 12 11  2  0
 13  9  1  0
 15 14  1  0
 15 26  1  0
 15 16  1  1
 17 16  1  0
 18 17  2  0
 19 20  1  0
 19 18  1  0
 20 25  2  0
 21 22  2  0
 21 20  1  0
 22 23  1  0
 23 24  2  0
 25 17  1  0
 25 24  1  0
 26 28  1  0
 27 26  2  0
M  END
$$$$
