ADW.pdb
     RDKit          3D

 28 29  0  0  1  0  0  0  0  0999 V2000
   22.6975  -15.0206  -18.8742 C   0  0  0  0  0  0  0  0  0  0  0  0
   23.0743  -14.3263  -20.1460 C   0  0  2  0  0  0  0  0  0  0  0  0
   24.2634  -14.8808  -20.7564 N   0  0  0  0  0  0  0  0  0  0  0  0
   23.2672  -12.8648  -19.9915 C   0  0  0  0  0  0  0  0  0  0  0  0
   24.2642  -12.3151  -20.5866 O   0  0  0  0  0  0  0  0  0  0  0  0
   22.3779  -12.0915  -19.2086 N   0  0  0  0  0  0  0  0  0  0  0  0
   22.5482  -10.6796  -19.1932 C   0  0  1  0  0  0  0  0  0  0  0  0
   21.5877   -9.9537  -20.1103 C   0  0  0  0  0  0  0  0  0  0  0  0
   22.0520   -9.8119  -21.4859 C   0  0  0  0  0  0  0  0  0  0  0  0
   23.2246   -9.4335  -21.7171 O   0  0  0  0  0  0  0  0  0  0  0  0
   22.3247  -10.1782  -17.8087 C   0  0  0  0  0  0  0  0  0  0  0  0
   21.3519  -10.6770  -17.1559 O   0  0  0  0  0  0  0  0  0  0  0  0
   21.2582  -10.0772  -22.6157 O   0  0  0  0  0  0  0  0  0  0  0  0
   23.1348   -9.2004  -17.2169 N   0  0  0  0  0  0  0  0  0  0  0  0
   22.9495   -8.8842  -15.7849 C   0  0  1  0  0  0  0  0  0  0  0  0
   24.3500   -9.0408  -15.2051 C   0  0  0  0  0  0  0  0  0  0  0  0
   24.8477  -10.4135  -15.1720 C   0  0  0  0  0  0  0  0  0  0  0  0
   24.1805  -11.5774  -14.8385 C   0  0  0  0  0  0  0  0  0  0  0  0
   25.0756  -12.5703  -14.9869 N   0  0  0  0  0  0  0  0  0  0  0  0
   26.2694  -12.0953  -15.3965 C   0  0  0  0  0  0  0  0  0  0  0  0
   27.4863  -12.6995  -15.6945 C   0  0  0  0  0  0  0  0  0  0  0  0
   28.5684  -11.9596  -16.1102 C   0  0  0  0  0  0  0  0  0  0  0  0
   28.4651  -10.5769  -16.2417 C   0  0  0  0  0  0  0  0  0  0  0  0
   27.2544   -9.9839  -15.9436 C   0  0  0  0  0  0  0  0  0  0  0  0
   26.1680  -10.7319  -15.5260 C   0  0  0  0  0  0  0  0  0  0  0  0
   22.4263   -7.5286  -15.7174 C   0  0  0  0  0  0  0  0  0  0  0  0
   22.2095   -6.8182  -16.7093 O   0  0  0  0  0  0  0  0  0  0  0  0
   22.1351   -6.9567  -14.4738 O   0  0  0  0  0  0  0  0  0  0  0  0
  2  1  1  1
  3  2  1  0
  4  6  1  0
  4  2  1  0
  5  4  2  0
  7  8  1  6
  7  6  1  0
  8  9  1  0
  9 10  2  0
 11  7  1  0
 11 14  1  0
 12 11  2  0
 13  9  1  0
 15 14  1  0
 15 26  1  0
 15 16  1  1
 17 16  1  0
 18 17  2  0
 19 20  1  0
 19 18  1  0
 20 25  2  0
 21 22  2  0
 21 20  1  0
 22 23  1  0
 23 24  2  0
 25 17  1  0
 25 24  1  0
 26 28  1  0
 27 26  2  0
M  END
$$$$
