ADW.pdb
     RDKit          3D

 28 29  0  0  1  0  0  0  0  0999 V2000
   26.9624  -25.7023  -17.4584 C   0  0  0  0  0  0  0  0  0  0  0  0
   28.0423  -24.7019  -17.7313 C   0  0  2  0  0  0  0  0  0  0  0  0
   29.3590  -25.2995  -17.7870 N   0  0  0  0  0  0  0  0  0  0  0  0
   28.0778  -23.5842  -16.7586 C   0  0  0  0  0  0  0  0  0  0  0  0
   28.9406  -23.6304  -15.8079 O   0  0  0  0  0  0  0  0  0  0  0  0
   27.1850  -22.4923  -16.8706 N   0  0  0  0  0  0  0  0  0  0  0  0
   27.3219  -21.4138  -15.9537 C   0  0  1  0  0  0  0  0  0  0  0  0
   27.0040  -20.0670  -16.5664 C   0  0  0  0  0  0  0  0  0  0  0  0
   27.0657  -18.9466  -15.6343 C   0  0  0  0  0  0  0  0  0  0  0  0
   26.0467  -18.2472  -15.4245 O   0  0  0  0  0  0  0  0  0  0  0  0
   26.3911  -21.6267  -14.8106 C   0  0  0  0  0  0  0  0  0  0  0  0
   25.2160  -22.0354  -15.0815 O   0  0  0  0  0  0  0  0  0  0  0  0
   28.2218  -18.5759  -14.9249 O   0  0  0  0  0  0  0  0  0  0  0  0
   26.7619  -21.3990  -13.4790 N   0  0  0  0  0  0  0  0  0  0  0  0
   25.7954  -21.7016  -12.4022 C   0  0  1  0  0  0  0  0  0  0  0  0
   26.6864  -22.0557  -11.2179 C   0  0  0  0  0  0  0  0  0  0  0  0
   26.4874  -21.2247  -10.0334 C   0  0  0  0  0  0  0  0  0  0  0  0
   25.3488  -20.5650   -9.6097 C   0  0  0  0  0  0  0  0  0  0  0  0
   25.6818  -19.9605   -8.4552 N   0  0  0  0  0  0  0  0  0  0  0  0
   26.9671  -20.2044   -8.1285 C   0  0  0  0  0  0  0  0  0  0  0  0
   27.7687  -19.8247   -7.0569 C   0  0  0  0  0  0  0  0  0  0  0  0
   29.0787  -20.2331   -6.9648 C   0  0  0  0  0  0  0  0  0  0  0  0
   29.6332  -21.0425   -7.9533 C   0  0  0  0  0  0  0  0  0  0  0  0
   28.8320  -21.4149   -9.0143 C   0  0  0  0  0  0  0  0  0  0  0  0
   27.5145  -21.0022   -9.1031 C   0  0  0  0  0  0  0  0  0  0  0  0
   24.9944  -20.5033  -12.2063 C   0  0  0  0  0  0  0  0  0  0  0  0
   25.3902  -19.3556  -12.4552 O   0  0  0  0  0  0  0  0  0  0  0  0
   23.6905  -20.6118  -11.7100 O   0  0  0  0  0  0  0  0  0  0  0  0
  2  1  1  1
  3  2  1  0
  4  6  1  0
  4  2  1  0
  5  4  2  0
  7  8  1  6
  7  6  1  0
  8  9  1  0
  9 10  2  0
 11  7  1  0
 11 14  1  0
 12 11  2  0
 13  9  1  0
 15 14  1  0
 15 26  1  0
 15 16  1  1
 17 16  1  0
 18 17  2  0
 19 20  1  0
 19 18  1  0
 20 25  2  0
 21 22  2  0
 21 20  1  0
 22 23  1  0
 23 24  2  0
 25 17  1  0
 25 24  1  0
 26 28  1  0
 27 26  2  0
M  END
$$$$
