ADW.pdb
     RDKit          3D

 28 29  0  0  1  0  0  0  0  0999 V2000
   14.6258   -7.5100  -17.1859 C   0  0  0  0  0  0  0  0  0  0  0  0
   15.7288   -8.2983  -17.8212 C   0  0  2  0  0  0  0  0  0  0  0  0
   15.2902   -9.5922  -18.2983 N   0  0  0  0  0  0  0  0  0  0  0  0
   16.9017   -8.4996  -16.9377 C   0  0  0  0  0  0  0  0  0  0  0  0
   17.0274   -9.6294  -16.3392 O   0  0  0  0  0  0  0  0  0  0  0  0
   17.8605   -7.4753  -16.7551 N   0  0  0  0  0  0  0  0  0  0  0  0
   18.9967   -7.7532  -15.9462 C   0  0  1  0  0  0  0  0  0  0  0  0
   19.8300   -8.9051  -16.4649 C   0  0  0  0  0  0  0  0  0  0  0  0
   21.2608   -8.7832  -16.2077 C   0  0  0  0  0  0  0  0  0  0  0  0
   22.0053   -8.2291  -17.0503 O   0  0  0  0  0  0  0  0  0  0  0  0
   19.8667   -6.5452  -15.8989 C   0  0  0  0  0  0  0  0  0  0  0  0
   20.2974   -6.0908  -17.0077 O   0  0  0  0  0  0  0  0  0  0  0  0
   21.8942   -9.2552  -15.0445 O   0  0  0  0  0  0  0  0  0  0  0  0
   20.2142   -5.9081  -14.7006 N   0  0  0  0  0  0  0  0  0  0  0  0
   21.0267   -4.6743  -14.7522 C   0  0  1  0  0  0  0  0  0  0  0  0
   20.0756   -3.6038  -14.2314 C   0  0  0  0  0  0  0  0  0  0  0  0
   19.2658   -2.9536  -15.2584 C   0  0  0  0  0  0  0  0  0  0  0  0
   17.9925   -3.2671  -15.6961 C   0  0  0  0  0  0  0  0  0  0  0  0
   17.6919   -2.3549  -16.6376 N   0  0  0  0  0  0  0  0  0  0  0  0
   18.7057   -1.4838  -16.8159 C   0  0  0  0  0  0  0  0  0  0  0  0
   18.8821   -0.3803  -17.6443 C   0  0  0  0  0  0  0  0  0  0  0  0
   20.0432    0.3560  -17.6156 C   0  0  0  0  0  0  0  0  0  0  0  0
   21.0752    0.0068  -16.7478 C   0  0  0  0  0  0  0  0  0  0  0  0
   20.8934   -1.0899  -15.9291 C   0  0  0  0  0  0  0  0  0  0  0  0
   19.7236   -1.8280  -15.9608 C   0  0  0  0  0  0  0  0  0  0  0  0
   22.1886   -4.8997  -13.9066 C   0  0  0  0  0  0  0  0  0  0  0  0
   23.0457   -4.0390  -13.6611 O   0  0  0  0  0  0  0  0  0  0  0  0
   22.3848   -6.1519  -13.3137 O   0  0  0  0  0  0  0  0  0  0  0  0
  2  1  1  1
  3  2  1  0
  4  6  1  0
  4  2  1  0
  5  4  2  0
  7  8  1  6
  7  6  1  0
  8  9  1  0
  9 10  2  0
 11  7  1  0
 11 14  1  0
 12 11  2  0
 13  9  1  0
 15 14  1  0
 15 26  1  0
 15 16  1  1
 17 16  1  0
 18 17  2  0
 19 20  1  0
 19 18  1  0
 20 25  2  0
 21 22  2  0
 21 20  1  0
 22 23  1  0
 23 24  2  0
 25 17  1  0
 25 24  1  0
 26 28  1  0
 27 26  2  0
M  END
$$$$
