ADW.pdb
     RDKit          3D

 28 29  0  0  1  0  0  0  0  0999 V2000
   22.6842  -23.3901  -18.6896 C   0  0  0  0  0  0  0  0  0  0  0  0
   22.0766  -22.0259  -18.7963 C   0  0  2  0  0  0  0  0  0  0  0  0
   23.0621  -20.9888  -19.0138 N   0  0  0  0  0  0  0  0  0  0  0  0
   21.2525  -21.6481  -17.6237 C   0  0  0  0  0  0  0  0  0  0  0  0
   21.8430  -21.1435  -16.6005 O   0  0  0  0  0  0  0  0  0  0  0  0
   19.8504  -21.8375  -17.6274 N   0  0  0  0  0  0  0  0  0  0  0  0
   19.0966  -21.3080  -16.5438 C   0  0  1  0  0  0  0  0  0  0  0  0
   17.6674  -20.9786  -16.9170 C   0  0  0  0  0  0  0  0  0  0  0  0
   17.4310  -19.5742  -17.2328 C   0  0  0  0  0  0  0  0  0  0  0  0
   16.3352  -19.2171  -17.7258 O   0  0  0  0  0  0  0  0  0  0  0  0
   19.0616  -22.3089  -15.4413 C   0  0  0  0  0  0  0  0  0  0  0  0
   19.0821  -23.5395  -15.7677 O   0  0  0  0  0  0  0  0  0  0  0  0
   18.3709  -18.5505  -17.0185 O   0  0  0  0  0  0  0  0  0  0  0  0
   19.0111  -21.9455  -14.0893 N   0  0  0  0  0  0  0  0  0  0  0  0
   19.1559  -22.9940  -13.0576 C   0  0  1  0  0  0  0  0  0  0  0  0
   20.1963  -22.4129  -12.1079 C   0  0  0  0  0  0  0  0  0  0  0  0
   19.7821  -21.1927  -11.4203 C   0  0  0  0  0  0  0  0  0  0  0  0
   19.1211  -21.0502  -10.2145 C   0  0  0  0  0  0  0  0  0  0  0  0
   18.9952  -19.7256  -10.0180 N   0  0  0  0  0  0  0  0  0  0  0  0
   19.5415  -19.0265  -11.0334 C   0  0  0  0  0  0  0  0  0  0  0  0
   19.6745  -17.6665  -11.2938 C   0  0  0  0  0  0  0  0  0  0  0  0
   20.3003  -17.2150  -12.4321 C   0  0  0  0  0  0  0  0  0  0  0  0
   20.8177  -18.1204  -13.3553 C   0  0  0  0  0  0  0  0  0  0  0  0
   20.6816  -19.4686  -13.0907 C   0  0  0  0  0  0  0  0  0  0  0  0
   20.0516  -19.9188  -11.9442 C   0  0  0  0  0  0  0  0  0  0  0  0
   17.8432  -23.1804  -12.4594 C   0  0  0  0  0  0  0  0  0  0  0  0
   16.8719  -22.4409  -12.6730 O   0  0  0  0  0  0  0  0  0  0  0  0
   17.6229  -24.2506  -11.5851 O   0  0  0  0  0  0  0  0  0  0  0  0
  2  1  1  1
  3  2  1  0
  4  6  1  0
  4  2  1  0
  5  4  2  0
  7  8  1  6
  7  6  1  0
  8  9  1  0
  9 10  2  0
 11  7  1  0
 11 14  1  0
 12 11  2  0
 13  9  1  0
 15 14  1  0
 15 26  1  0
 15 16  1  1
 17 16  1  0
 18 17  2  0
 19 20  1  0
 19 18  1  0
 20 25  2  0
 21 22  2  0
 21 20  1  0
 22 23  1  0
 23 24  2  0
 25 17  1  0
 25 24  1  0
 26 28  1  0
 27 26  2  0
M  END
$$$$
