ADW.pdb
     RDKit          3D

 28 29  0  0  1  0  0  0  0  0999 V2000
   30.6559  -25.8287  -18.0202 C   0  0  0  0  0  0  0  0  0  0  0  0
   30.6581  -24.3558  -17.7514 C   0  0  2  0  0  0  0  0  0  0  0  0
   31.7200  -23.9510  -16.8555 N   0  0  0  0  0  0  0  0  0  0  0  0
   29.3742  -23.8471  -17.2133 C   0  0  0  0  0  0  0  0  0  0  0  0
   29.1731  -23.9181  -15.9465 O   0  0  0  0  0  0  0  0  0  0  0  0
   28.3920  -23.2970  -18.0704 N   0  0  0  0  0  0  0  0  0  0  0  0
   27.2143  -22.7558  -17.4849 C   0  0  1  0  0  0  0  0  0  0  0  0
   26.7544  -21.4749  -18.1470 C   0  0  0  0  0  0  0  0  0  0  0  0
   27.6287  -20.3287  -17.9238 C   0  0  0  0  0  0  0  0  0  0  0  0
   28.0725  -20.0914  -16.7757 O   0  0  0  0  0  0  0  0  0  0  0  0
   26.1124  -23.7510  -17.6010 C   0  0  0  0  0  0  0  0  0  0  0  0
   26.0023  -24.3757  -18.7051 O   0  0  0  0  0  0  0  0  0  0  0  0
   28.0288  -19.4358  -18.9337 O   0  0  0  0  0  0  0  0  0  0  0  0
   25.2173  -24.0159  -16.5563 N   0  0  0  0  0  0  0  0  0  0  0  0
   24.1565  -25.0253  -16.7577 C   0  0  1  0  0  0  0  0  0  0  0  0
   24.5123  -26.1156  -15.7543 C   0  0  0  0  0  0  0  0  0  0  0  0
   23.4833  -27.1356  -15.5696 C   0  0  0  0  0  0  0  0  0  0  0  0
   22.1384  -26.9799  -15.2904 C   0  0  0  0  0  0  0  0  0  0  0  0
   21.6269  -28.2228  -15.2391 N   0  0  0  0  0  0  0  0  0  0  0  0
   22.5758  -29.1522  -15.4717 C   0  0  0  0  0  0  0  0  0  0  0  0
   22.5566  -30.5416  -15.5351 C   0  0  0  0  0  0  0  0  0  0  0  0
   23.6975  -31.2602  -15.8057 C   0  0  0  0  0  0  0  0  0  0  0  0
   24.9062  -30.6034  -16.0232 C   0  0  0  0  0  0  0  0  0  0  0  0
   24.9180  -29.2244  -15.9581 C   0  0  0  0  0  0  0  0  0  0  0  0
   23.7680  -28.5050  -15.6860 C   0  0  0  0  0  0  0  0  0  0  0  0
   22.8891  -24.3630  -16.4914 C   0  0  0  0  0  0  0  0  0  0  0  0
   21.8056  -24.7166  -16.9779 O   0  0  0  0  0  0  0  0  0  0  0  0
   22.8491  -23.2558  -15.6366 O   0  0  0  0  0  0  0  0  0  0  0  0
  2  1  1  1
  3  2  1  0
  4  6  1  0
  4  2  1  0
  5  4  2  0
  7  8  1  6
  7  6  1  0
  8  9  1  0
  9 10  2  0
 11  7  1  0
 11 14  1  0
 12 11  2  0
 13  9  1  0
 15 14  1  0
 15 26  1  0
 15 16  1  1
 17 16  1  0
 18 17  2  0
 19 20  1  0
 19 18  1  0
 20 25  2  0
 21 22  2  0
 21 20  1  0
 22 23  1  0
 23 24  2  0
 25 17  1  0
 25 24  1  0
 26 28  1  0
 27 26  2  0
M  END
$$$$
