ADW.pdb
     RDKit          3D

 28 29  0  0  1  0  0  0  0  0999 V2000
   29.6607  -22.3871  -19.1217 C   0  0  0  0  0  0  0  0  0  0  0  0
   29.6299  -22.1574  -17.6426 C   0  0  2  0  0  0  0  0  0  0  0  0
   29.7379  -23.3840  -16.8824 N   0  0  0  0  0  0  0  0  0  0  0  0
   28.4273  -21.4254  -17.1790 C   0  0  0  0  0  0  0  0  0  0  0  0
   28.1342  -20.3117  -17.7483 O   0  0  0  0  0  0  0  0  0  0  0  0
   27.6204  -21.9370  -16.1355 N   0  0  0  0  0  0  0  0  0  0  0  0
   26.3752  -21.3014  -15.8739 C   0  0  1  0  0  0  0  0  0  0  0  0
   25.3394  -21.5559  -16.9475 C   0  0  0  0  0  0  0  0  0  0  0  0
   24.0303  -20.9713  -16.6784 C   0  0  0  0  0  0  0  0  0  0  0  0
   23.9259  -19.9988  -15.8944 O   0  0  0  0  0  0  0  0  0  0  0  0
   25.8311  -21.8108  -14.5844 C   0  0  0  0  0  0  0  0  0  0  0  0
   25.8610  -23.0693  -14.3933 O   0  0  0  0  0  0  0  0  0  0  0  0
   22.8309  -21.4296  -17.2517 O   0  0  0  0  0  0  0  0  0  0  0  0
   25.3030  -20.9669  -13.5987 N   0  0  0  0  0  0  0  0  0  0  0  0
   24.9289  -21.5391  -12.2881 C   0  0  1  0  0  0  0  0  0  0  0  0
   26.2455  -21.5536  -11.5210 C   0  0  0  0  0  0  0  0  0  0  0  0
   26.2214  -20.8309  -10.2520 C   0  0  0  0  0  0  0  0  0  0  0  0
   25.1601  -20.2110   -9.6191 C   0  0  0  0  0  0  0  0  0  0  0  0
   25.6560  -19.7114   -8.4730 N   0  0  0  0  0  0  0  0  0  0  0  0
   26.9709  -19.9836   -8.3493 C   0  0  0  0  0  0  0  0  0  0  0  0
   27.9167  -19.7007   -7.3693 C   0  0  0  0  0  0  0  0  0  0  0  0
   29.2217  -20.1160   -7.4949 C   0  0  0  0  0  0  0  0  0  0  0  0
   29.6251  -20.8347   -8.6177 C   0  0  0  0  0  0  0  0  0  0  0  0
   28.6812  -21.1113   -9.5866 C   0  0  0  0  0  0  0  0  0  0  0  0
   27.3692  -20.6920   -9.4563 C   0  0  0  0  0  0  0  0  0  0  0  0
   23.9186  -20.6613  -11.7184 C   0  0  0  0  0  0  0  0  0  0  0  0
   23.1721  -20.9785  -10.7815 O   0  0  0  0  0  0  0  0  0  0  0  0
   23.7498  -19.3702  -12.2313 O   0  0  0  0  0  0  0  0  0  0  0  0
  2  1  1  6
  3  2  1  0
  4  6  1  0
  4  2  1  0
  5  4  2  0
  7  8  1  6
  7  6  1  0
  8  9  1  0
  9 10  2  0
 11  7  1  0
 11 14  1  0
 12 11  2  0
 13  9  1  0
 15 14  1  0
 15 26  1  0
 15 16  1  1
 17 16  1  0
 18 17  2  0
 19 20  1  0
 19 18  1  0
 20 25  2  0
 21 22  2  0
 21 20  1  0
 22 23  1  0
 23 24  2  0
 25 17  1  0
 25 24  1  0
 26 28  1  0
 27 26  2  0
M  END
$$$$
