ADW.pdb
     RDKit          3D

 28 29  0  0  1  0  0  0  0  0999 V2000
   24.4969  -16.5284  -17.1024 C   0  0  0  0  0  0  0  0  0  0  0  0
   24.9497  -17.0006  -15.7557 C   0  0  2  0  0  0  0  0  0  0  0  0
   26.0443  -16.2165  -15.2256 N   0  0  0  0  0  0  0  0  0  0  0  0
   25.3423  -18.4295  -15.7271 C   0  0  0  0  0  0  0  0  0  0  0  0
   24.4947  -19.3030  -16.1380 O   0  0  0  0  0  0  0  0  0  0  0  0
   26.6175  -18.8253  -15.2592 N   0  0  0  0  0  0  0  0  0  0  0  0
   26.9325  -20.2122  -15.2552 C   0  0  1  0  0  0  0  0  0  0  0  0
   28.3504  -20.5023  -15.6979 C   0  0  0  0  0  0  0  0  0  0  0  0
   28.6447  -21.9162  -15.9031 C   0  0  0  0  0  0  0  0  0  0  0  0
   27.7291  -22.7677  -15.8143 O   0  0  0  0  0  0  0  0  0  0  0  0
   26.7675  -20.7441  -13.8739 C   0  0  0  0  0  0  0  0  0  0  0  0
   27.8175  -21.1332  -13.2676 O   0  0  0  0  0  0  0  0  0  0  0  0
   29.9230  -22.4181  -16.2052 O   0  0  0  0  0  0  0  0  0  0  0  0
   25.5226  -20.8244  -13.2365 N   0  0  0  0  0  0  0  0  0  0  0  0
   25.4561  -21.3377  -11.8518 C   0  0  1  0  0  0  0  0  0  0  0  0
   26.3385  -20.3690  -11.0740 C   0  0  0  0  0  0  0  0  0  0  0  0
   26.1038  -20.3513   -9.6325 C   0  0  0  0  0  0  0  0  0  0  0  0
   24.9080  -20.2822   -8.9424 C   0  0  0  0  0  0  0  0  0  0  0  0
   25.2334  -20.3178   -7.6378 N   0  0  0  0  0  0  0  0  0  0  0  0
   26.5683  -20.4065   -7.4690 C   0  0  0  0  0  0  0  0  0  0  0  0
   27.3861  -20.4801   -6.3461 C   0  0  0  0  0  0  0  0  0  0  0  0
   28.7531  -20.5754   -6.4630 C   0  0  0  0  0  0  0  0  0  0  0  0
   29.3504  -20.5999   -7.7210 C   0  0  0  0  0  0  0  0  0  0  0  0
   28.5326  -20.5257   -8.8309 C   0  0  0  0  0  0  0  0  0  0  0  0
   27.1578  -20.4303   -8.7091 C   0  0  0  0  0  0  0  0  0  0  0  0
   24.0555  -21.3117  -11.4600 C   0  0  0  0  0  0  0  0  0  0  0  0
   23.5304  -22.1427  -10.7054 O   0  0  0  0  0  0  0  0  0  0  0  0
   23.2171  -20.3003  -11.9422 O   0  0  0  0  0  0  0  0  0  0  0  0
  2  1  1  6
  3  2  1  0
  4  6  1  0
  4  2  1  0
  5  4  2  0
  7  8  1  1
  7  6  1  0
  8  9  1  0
  9 10  2  0
 11  7  1  0
 11 14  1  0
 12 11  2  0
 13  9  1  0
 15 14  1  0
 15 26  1  0
 15 16  1  1
 17 16  1  0
 18 17  2  0
 19 20  1  0
 19 18  1  0
 20 25  2  0
 21 22  2  0
 21 20  1  0
 22 23  1  0
 23 24  2  0
 25 17  1  0
 25 24  1  0
 26 28  1  0
 27 26  2  0
M  END
$$$$
