ADW.pdb
     RDKit          3D

 28 29  0  0  1  0  0  0  0  0999 V2000
   30.5510  -18.5608  -17.9345 C   0  0  0  0  0  0  0  0  0  0  0  0
   29.3222  -19.3596  -17.6286 C   0  0  2  0  0  0  0  0  0  0  0  0
   28.3887  -19.3975  -18.7336 N   0  0  0  0  0  0  0  0  0  0  0  0
   28.5975  -18.8977  -16.4210 C   0  0  0  0  0  0  0  0  0  0  0  0
   28.4900  -17.6334  -16.2208 O   0  0  0  0  0  0  0  0  0  0  0  0
   28.0374  -19.8232  -15.5091 N   0  0  0  0  0  0  0  0  0  0  0  0
   26.9212  -19.4100  -14.7307 C   0  0  1  0  0  0  0  0  0  0  0  0
   25.7230  -19.0186  -15.5683 C   0  0  0  0  0  0  0  0  0  0  0  0
   24.5198  -18.7146  -14.8015 C   0  0  0  0  0  0  0  0  0  0  0  0
   24.3689  -17.5785  -14.2938 O   0  0  0  0  0  0  0  0  0  0  0  0
   26.5090  -20.5297  -13.8392 C   0  0  0  0  0  0  0  0  0  0  0  0
   26.3273  -21.6693  -14.3775 O   0  0  0  0  0  0  0  0  0  0  0  0
   23.4759  -19.6302  -14.5795 O   0  0  0  0  0  0  0  0  0  0  0  0
   26.3229  -20.3710  -12.4599 N   0  0  0  0  0  0  0  0  0  0  0  0
   25.8962  -21.5344  -11.6539 C   0  0  1  0  0  0  0  0  0  0  0  0
   26.9430  -21.6004  -10.5485 C   0  0  0  0  0  0  0  0  0  0  0  0
   26.7980  -20.5855   -9.5082 C   0  0  0  0  0  0  0  0  0  0  0  0
   25.7940  -19.6518   -9.3317 C   0  0  0  0  0  0  0  0  0  0  0  0
   26.1169  -18.9701   -8.2181 N   0  0  0  0  0  0  0  0  0  0  0  0
   27.2685  -19.4242   -7.6834 C   0  0  0  0  0  0  0  0  0  0  0  0
   28.0044  -19.0685   -6.5578 C   0  0  0  0  0  0  0  0  0  0  0  0
   29.1704  -19.7204   -6.2313 C   0  0  0  0  0  0  0  0  0  0  0  0
   29.6415  -20.7596   -7.0301 C   0  0  0  0  0  0  0  0  0  0  0  0
   28.9064  -21.1068   -8.1460 C   0  0  0  0  0  0  0  0  0  0  0  0
   27.7336  -20.4486   -8.4709 C   0  0  0  0  0  0  0  0  0  0  0  0
   24.5503  -21.2487  -11.1819 C   0  0  0  0  0  0  0  0  0  0  0  0
   23.9843  -20.1549  -11.3192 O   0  0  0  0  0  0  0  0  0  0  0  0
   23.8160  -22.2454  -10.5295 O   0  0  0  0  0  0  0  0  0  0  0  0
  2  1  1  6
  3  2  1  0
  4  6  1  0
  4  2  1  0
  5  4  2  0
  7  8  1  6
  7  6  1  0
  8  9  1  0
  9 10  2  0
 11  7  1  0
 11 14  1  0
 12 11  2  0
 13  9  1  0
 15 14  1  0
 15 26  1  0
 15 16  1  1
 17 16  1  0
 18 17  2  0
 19 20  1  0
 19 18  1  0
 20 25  2  0
 21 22  2  0
 21 20  1  0
 22 23  1  0
 23 24  2  0
 25 17  1  0
 25 24  1  0
 26 28  1  0
 27 26  2  0
M  END
$$$$
