SSY.pdb
     RDKit          3D

 25 25  0  0  1  0  0  0  0  0999 V2000
   18.6977  -12.3548  -14.9047 O   0  0  0  0  0  0  0  0  0  0  0  0
   19.5036  -11.2090  -15.0193 C   0  0  0  0  0  0  0  0  0  0  0  0
   19.7595  -11.0398  -16.5158 C   0  0  2  0  0  0  0  0  0  0  0  0
   20.9519  -11.8103  -16.8129 N   0  0  0  0  0  0  0  0  0  0  0  0
   20.0397   -9.6186  -16.8507 C   0  0  0  0  0  0  0  0  0  0  0  0
   21.2091   -9.1949  -17.0545 O   0  0  0  0  0  0  0  0  0  0  0  0
   18.6050   -5.5917  -18.7700 O   0  0  0  0  0  0  0  0  0  0  0  0
   18.1092   -6.6015  -17.9498 C   0  0  0  0  0  0  0  0  0  0  0  0
   19.2617   -7.2955  -17.2565 C   0  0  2  0  0  0  0  0  0  0  0  0
   18.9903   -8.6647  -16.9570 N   0  0  0  0  0  0  0  0  0  0  0  0
   19.7018   -6.5278  -16.0499 C   0  0  0  0  0  0  0  0  0  0  0  0
   19.1981   -6.7512  -14.9046 O   0  0  0  0  0  0  0  0  0  0  0  0
   23.9104  -10.4732  -14.3068 O   0  0  0  0  0  0  0  0  0  0  0  0
   23.5850   -9.1240  -14.4471 C   0  0  0  0  0  0  0  0  0  0  0  0
   22.8563   -8.4659  -13.4785 C   0  0  0  0  0  0  0  0  0  0  0  0
   22.5335   -7.1286  -13.6171 C   0  0  0  0  0  0  0  0  0  0  0  0
   22.9198   -6.3894  -14.7209 C   0  0  0  0  0  0  0  0  0  0  0  0
   22.5677   -4.9540  -14.8644 C   0  0  0  0  0  0  0  0  0  0  0  0
   21.1002   -4.7072  -15.0752 C   0  0  2  0  0  0  0  0  0  0  0  0
   20.7049   -5.5344  -16.2159 N   0  0  0  0  0  0  0  0  0  0  0  0
   20.7381   -3.3005  -15.2747 C   0  0  0  0  0  0  0  0  0  0  0  0
   20.1566   -2.8996  -16.4531 O   0  0  0  0  0  0  0  0  0  0  0  0
   23.6491   -7.0535  -15.6871 C   0  0  0  0  0  0  0  0  0  0  0  0
   23.9707   -8.3885  -15.5479 C   0  0  0  0  0  0  0  0  0  0  0  0
   20.9568   -2.4659  -14.3773 O   0  0  0  0  0  0  0  0  0  0  0  0
  1  2  1  0
  3  4  1  1
  3  2  1  0
  5  3  1  0
  5 10  1  0
  6  5  2  0
  8  7  1  0
  9 10  1  0
  9  8  1  1
 11  9  1  0
 12 11  2  0
 13 14  1  0
 14 15  2  0
 15 16  1  0
 17 16  2  0
 17 18  1  0
 19 18  1  6
 19 20  1  0
 20 11  1  0
 21 22  1  0
 21 19  1  0
 23 17  1  0
 24 14  1  0
 24 23  2  0
 25 21  2  0
M  END
$$$$
