SSY.pdb
     RDKit          3D

 25 25  0  0  1  0  0  0  0  0999 V2000
   24.5391  -11.5057  -17.4959 O   0  0  0  0  0  0  0  0  0  0  0  0
   24.0116  -10.2030  -17.5085 C   0  0  0  0  0  0  0  0  0  0  0  0
   22.5355  -10.3584  -17.1469 C   0  0  2  0  0  0  0  0  0  0  0  0
   21.8612  -10.7702  -18.3633 N   0  0  0  0  0  0  0  0  0  0  0  0
   21.9523   -9.0592  -16.7197 C   0  0  0  0  0  0  0  0  0  0  0  0
   21.6061   -8.1742  -17.5476 O   0  0  0  0  0  0  0  0  0  0  0  0
   21.4989   -8.0243  -12.6383 O   0  0  0  0  0  0  0  0  0  0  0  0
   20.5735   -7.5507  -13.5644 C   0  0  0  0  0  0  0  0  0  0  0  0
   21.2160   -7.4988  -14.9337 C   0  0  2  0  0  0  0  0  0  0  0  0
   21.7574   -8.7545  -15.3444 N   0  0  0  0  0  0  0  0  0  0  0  0
   22.2228   -6.3948  -15.0117 C   0  0  0  0  0  0  0  0  0  0  0  0
   23.4680   -6.6273  -14.9077 O   0  0  0  0  0  0  0  0  0  0  0  0
   20.3301   -2.3475  -21.1230 O   0  0  0  0  0  0  0  0  0  0  0  0
   21.0761   -2.7952  -20.0327 C   0  0  0  0  0  0  0  0  0  0  0  0
   21.8985   -1.9354  -19.3352 C   0  0  0  0  0  0  0  0  0  0  0  0
   22.6382   -2.3787  -18.2544 C   0  0  0  0  0  0  0  0  0  0  0  0
   22.5929   -3.6917  -17.8212 C   0  0  0  0  0  0  0  0  0  0  0  0
   23.3919   -4.1616  -16.6611 C   0  0  0  0  0  0  0  0  0  0  0  0
   22.7088   -3.9702  -15.3361 C   0  0  2  0  0  0  0  0  0  0  0  0
   21.7502   -5.0684  -15.2066 N   0  0  0  0  0  0  0  0  0  0  0  0
   22.0640   -2.6649  -15.1624 C   0  0  0  0  0  0  0  0  0  0  0  0
   20.7069   -2.5884  -14.9623 O   0  0  0  0  0  0  0  0  0  0  0  0
   21.7680   -4.5479  -18.5233 C   0  0  0  0  0  0  0  0  0  0  0  0
   21.0300   -4.1044  -19.6021 C   0  0  0  0  0  0  0  0  0  0  0  0
   22.7442   -1.6228  -15.1959 O   0  0  0  0  0  0  0  0  0  0  0  0
  1  2  1  0
  3  4  1  6
  3  2  1  0
  5  3  1  0
  5 10  1  0
  6  5  2  0
  8  7  1  0
  9 10  1  0
  9  8  1  1
 11  9  1  0
 12 11  2  0
 13 14  1  0
 14 15  2  0
 15 16  1  0
 17 16  2  0
 17 18  1  0
 19 18  1  6
 19 20  1  0
 20 11  1  0
 21 22  1  0
 21 19  1  0
 23 17  1  0
 24 14  1  0
 24 23  2  0
 25 21  2  0
M  END
$$$$
