SSY.pdb
     RDKit          3D

 25 25  0  0  1  0  0  0  0  0999 V2000
   27.2429  -15.9269  -19.0597 O   0  0  0  0  0  0  0  0  0  0  0  0
   26.3163  -16.9397  -18.7578 C   0  0  0  0  0  0  0  0  0  0  0  0
   27.0181  -18.2506  -19.1083 C   0  0  2  0  0  0  0  0  0  0  0  0
   26.6164  -18.5757  -20.4636 N   0  0  0  0  0  0  0  0  0  0  0  0
   26.5618  -19.3526  -18.2207 C   0  0  0  0  0  0  0  0  0  0  0  0
   25.3551  -19.7117  -18.1624 O   0  0  0  0  0  0  0  0  0  0  0  0
   28.9641  -21.3006  -15.1516 O   0  0  0  0  0  0  0  0  0  0  0  0
   28.1531  -21.9946  -16.0454 C   0  0  0  0  0  0  0  0  0  0  0  0
   27.0317  -21.0908  -16.5106 C   0  0  2  0  0  0  0  0  0  0  0  0
   27.4758  -20.0574  -17.3899 N   0  0  0  0  0  0  0  0  0  0  0  0
   26.2599  -20.5524  -15.3473 C   0  0  0  0  0  0  0  0  0  0  0  0
   26.5137  -19.4068  -14.8590 O   0  0  0  0  0  0  0  0  0  0  0  0
   18.9017  -20.6618  -10.4287 O   0  0  0  0  0  0  0  0  0  0  0  0
   19.9750  -20.5463  -11.3121 C   0  0  0  0  0  0  0  0  0  0  0  0
   20.2916  -21.5697  -12.1809 C   0  0  0  0  0  0  0  0  0  0  0  0
   21.3554  -21.4556  -13.0568 C   0  0  0  0  0  0  0  0  0  0  0  0
   22.1483  -20.3231  -13.1072 C   0  0  0  0  0  0  0  0  0  0  0  0
   23.2907  -20.2083  -14.0488 C   0  0  0  0  0  0  0  0  0  0  0  0
   24.5322  -20.9181  -13.5863 C   0  0  2  0  0  0  0  0  0  0  0  0
   25.2273  -21.3590  -14.7963 N   0  0  0  0  0  0  0  0  0  0  0  0
   24.2930  -22.0313  -12.6626 C   0  0  0  0  0  0  0  0  0  0  0  0
   24.0413  -23.2902  -13.1520 O   0  0  0  0  0  0  0  0  0  0  0  0
   21.8265  -19.3020  -12.2353 C   0  0  0  0  0  0  0  0  0  0  0  0
   20.7644  -19.4168  -11.3613 C   0  0  0  0  0  0  0  0  0  0  0  0
   24.3172  -21.8389  -11.4329 O   0  0  0  0  0  0  0  0  0  0  0  0
  1  2  1  0
  3  4  1  6
  3  2  1  0
  5  3  1  0
  5 10  1  0
  6  5  2  0
  8  7  1  0
  9 10  1  0
  9  8  1  1
 11  9  1  0
 12 11  2  0
 13 14  1  0
 14 15  2  0
 15 16  1  0
 17 16  2  0
 17 18  1  0
 19 18  1  6
 19 20  1  0
 20 11  1  0
 21 22  1  0
 21 19  1  0
 23 17  1  0
 24 14  1  0
 24 23  2  0
 25 21  2  0
M  END
$$$$
