SSY.pdb
     RDKit          3D

 25 25  0  0  1  0  0  0  0  0999 V2000
   24.2211  -14.5042  -15.4911 O   0  0  0  0  0  0  0  0  0  0  0  0
   24.1550  -13.1091  -15.6485 C   0  0  0  0  0  0  0  0  0  0  0  0
   23.0903  -12.8705  -16.7178 C   0  0  2  0  0  0  0  0  0  0  0  0
   23.7390  -13.1011  -17.9944 N   0  0  0  0  0  0  0  0  0  0  0  0
   22.6185  -11.4608  -16.6940 C   0  0  0  0  0  0  0  0  0  0  0  0
   23.2625  -10.5280  -17.2449 O   0  0  0  0  0  0  0  0  0  0  0  0
   19.3194  -10.1527  -14.3664 O   0  0  0  0  0  0  0  0  0  0  0  0
   19.4785   -9.6349  -15.6489 C   0  0  0  0  0  0  0  0  0  0  0  0
   20.9299   -9.7535  -16.0610 C   0  0  2  0  0  0  0  0  0  0  0  0
   21.4075  -11.0988  -16.0421 N   0  0  0  0  0  0  0  0  0  0  0  0
   21.7926   -8.8344  -15.2551 C   0  0  0  0  0  0  0  0  0  0  0  0
   22.4850   -9.2638  -14.2795 O   0  0  0  0  0  0  0  0  0  0  0  0
   20.9074   -2.0929  -19.2051 O   0  0  0  0  0  0  0  0  0  0  0  0
   21.5533   -3.0154  -18.3820 C   0  0  0  0  0  0  0  0  0  0  0  0
   22.0404   -2.6440  -17.1463 C   0  0  0  0  0  0  0  0  0  0  0  0
   22.6807   -3.5580  -16.3300 C   0  0  0  0  0  0  0  0  0  0  0  0
   22.8642   -4.8769  -16.7052 C   0  0  0  0  0  0  0  0  0  0  0  0
   23.5550   -5.8527  -15.8246 C   0  0  0  0  0  0  0  0  0  0  0  0
   22.6459   -6.5285  -14.8368 C   0  0  2  0  0  0  0  0  0  0  0  0
   21.8201   -7.4579  -15.6088 N   0  0  0  0  0  0  0  0  0  0  0  0
   21.8273   -5.6151  -14.0335 C   0  0  0  0  0  0  0  0  0  0  0  0
   22.4191   -4.8044  -13.0954 O   0  0  0  0  0  0  0  0  0  0  0  0
   22.3746   -5.2429  -17.9433 C   0  0  0  0  0  0  0  0  0  0  0  0
   21.7355   -4.3297  -18.7574 C   0  0  0  0  0  0  0  0  0  0  0  0
   20.5942   -5.5720  -14.1990 O   0  0  0  0  0  0  0  0  0  0  0  0
  1  2  1  0
  3  4  1  6
  3  2  1  0
  5  3  1  0
  5 10  1  0
  6  5  2  0
  8  7  1  0
  9 10  1  0
  9  8  1  1
 11  9  1  0
 12 11  2  0
 13 14  1  0
 14 15  2  0
 15 16  1  0
 17 16  2  0
 17 18  1  0
 19 18  1  6
 19 20  1  0
 20 11  1  0
 21 22  1  0
 21 19  1  0
 23 17  1  0
 24 14  1  0
 24 23  2  0
 25 21  2  0
M  END
$$$$
