SSY.pdb
     RDKit          3D

 25 25  0  0  1  0  0  0  0  0999 V2000
   24.4834  -10.5366  -19.0316 O   0  0  0  0  0  0  0  0  0  0  0  0
   23.2596   -9.8961  -18.7717 C   0  0  0  0  0  0  0  0  0  0  0  0
   22.9286  -10.2263  -17.3173 C   0  0  2  0  0  0  0  0  0  0  0  0
   22.5126  -11.6158  -17.3017 N   0  0  0  0  0  0  0  0  0  0  0  0
   21.7897   -9.4038  -16.8306 C   0  0  0  0  0  0  0  0  0  0  0  0
   20.6564   -9.4336  -17.3814 O   0  0  0  0  0  0  0  0  0  0  0  0
   22.1742   -6.5494  -13.6841 O   0  0  0  0  0  0  0  0  0  0  0  0
   20.9885   -7.2626  -13.8386 C   0  0  0  0  0  0  0  0  0  0  0  0
   20.8538   -7.7051  -15.2797 C   0  0  2  0  0  0  0  0  0  0  0  0
   21.9299   -8.5384  -15.7109 N   0  0  0  0  0  0  0  0  0  0  0  0
   20.6488   -6.5308  -16.1839 C   0  0  0  0  0  0  0  0  0  0  0  0
   21.5033   -6.2247  -17.0736 O   0  0  0  0  0  0  0  0  0  0  0  0
   18.3200   -0.8085  -22.0097 O   0  0  0  0  0  0  0  0  0  0  0  0
   18.5716   -1.8312  -21.0951 C   0  0  0  0  0  0  0  0  0  0  0  0
   17.5745   -2.7063  -20.7179 C   0  0  0  0  0  0  0  0  0  0  0  0
   17.8234   -3.7203  -19.8114 C   0  0  0  0  0  0  0  0  0  0  0  0
   19.0701   -3.9080  -19.2421 C   0  0  0  0  0  0  0  0  0  0  0  0
   19.3298   -4.9976  -18.2673 C   0  0  0  0  0  0  0  0  0  0  0  0
   19.2723   -4.5547  -16.8322 C   0  0  2  0  0  0  0  0  0  0  0  0
   19.4661   -5.7588  -16.0234 N   0  0  0  0  0  0  0  0  0  0  0  0
   18.0457   -3.8432  -16.4595 C   0  0  0  0  0  0  0  0  0  0  0  0
   18.0306   -2.4699  -16.4221 O   0  0  0  0  0  0  0  0  0  0  0  0
   20.0643   -3.0290  -19.6234 C   0  0  0  0  0  0  0  0  0  0  0  0
   19.8149   -2.0171  -20.5284 C   0  0  0  0  0  0  0  0  0  0  0  0
   17.0151   -4.4813  -16.1759 O   0  0  0  0  0  0  0  0  0  0  0  0
  1  2  1  0
  3  4  1  6
  3  2  1  0
  5  3  1  0
  5 10  1  0
  6  5  2  0
  8  7  1  0
  9 10  1  0
  9  8  1  1
 11  9  1  0
 12 11  2  0
 13 14  1  0
 14 15  2  0
 15 16  1  0
 17 16  2  0
 17 18  1  0
 19 18  1  6
 19 20  1  0
 20 11  1  0
 21 22  1  0
 21 19  1  0
 23 17  1  0
 24 14  1  0
 24 23  2  0
 25 21  2  0
M  END
$$$$
