SSY.pdb
     RDKit          3D

 25 25  0  0  1  0  0  0  0  0999 V2000
   19.5458  -11.1744  -15.9767 O   0  0  0  0  0  0  0  0  0  0  0  0
   19.3676  -10.4023  -14.8159 C   0  0  0  0  0  0  0  0  0  0  0  0
   20.2446   -9.1667  -15.0106 C   0  0  2  0  0  0  0  0  0  0  0  0
   21.5653   -9.5273  -14.5315 N   0  0  0  0  0  0  0  0  0  0  0  0
   19.7547   -8.0307  -14.1860 C   0  0  0  0  0  0  0  0  0  0  0  0
   19.9333   -7.9801  -12.9394 O   0  0  0  0  0  0  0  0  0  0  0  0
   17.2349   -5.0420  -15.7570 O   0  0  0  0  0  0  0  0  0  0  0  0
   18.1735   -4.6512  -14.8059 C   0  0  0  0  0  0  0  0  0  0  0  0
   18.5805   -5.8523  -13.9800 C   0  0  2  0  0  0  0  0  0  0  0  0
   19.0561   -6.9400  -14.7731 N   0  0  0  0  0  0  0  0  0  0  0  0
   17.4793   -6.2645  -13.0548 C   0  0  0  0  0  0  0  0  0  0  0  0
   16.9107   -7.3957  -13.1666 O   0  0  0  0  0  0  0  0  0  0  0  0
   12.4549   -8.4708   -6.5175 O   0  0  0  0  0  0  0  0  0  0  0  0
   13.3883   -8.0978   -7.4847 C   0  0  0  0  0  0  0  0  0  0  0  0
   13.1749   -8.3725   -8.8193 C   0  0  0  0  0  0  0  0  0  0  0  0
   14.0997   -8.0029   -9.7784 C   0  0  0  0  0  0  0  0  0  0  0  0
   15.2733   -7.3462   -9.4538 C   0  0  0  0  0  0  0  0  0  0  0  0
   16.2634   -6.9543  -10.4887 C   0  0  0  0  0  0  0  0  0  0  0  0
   15.9277   -5.6706  -11.1946 C   0  0  2  0  0  0  0  0  0  0  0  0
   17.0802   -5.3536  -12.0391 N   0  0  0  0  0  0  0  0  0  0  0  0
   15.5833   -4.5555  -10.3071 C   0  0  0  0  0  0  0  0  0  0  0  0
   16.5750   -3.8580   -9.6610 O   0  0  0  0  0  0  0  0  0  0  0  0
   15.4815   -7.0739   -8.1162 C   0  0  0  0  0  0  0  0  0  0  0  0
   14.5576   -7.4432   -7.1596 C   0  0  0  0  0  0  0  0  0  0  0  0
   14.3917   -4.2380  -10.1365 O   0  0  0  0  0  0  0  0  0  0  0  0
  1  2  1  0
  3  4  1  1
  3  2  1  0
  5  3  1  0
  5 10  1  0
  6  5  2  0
  8  7  1  0
  9 10  1  0
  9  8  1  6
 11  9  1  0
 12 11  2  0
 13 14  1  0
 14 15  2  0
 15 16  1  0
 17 16  2  0
 17 18  1  0
 19 18  1  1
 19 20  1  0
 20 11  1  0
 21 22  1  0
 21 19  1  0
 23 17  1  0
 24 14  1  0
 24 23  2  0
 25 21  2  0
M  END
$$$$
