SSY.pdb
     RDKit          3D

 25 25  0  0  1  0  0  0  0  0999 V2000
   21.3755  -14.0400  -17.7150 O   0  0  0  0  0  0  0  0  0  0  0  0
   21.8710  -12.7307  -17.8407 C   0  0  0  0  0  0  0  0  0  0  0  0
   20.8326  -11.9812  -18.6738 C   0  0  2  0  0  0  0  0  0  0  0  0
   21.2759  -12.0725  -20.0518 N   0  0  0  0  0  0  0  0  0  0  0  0
   20.7904  -10.5421  -18.3027 C   0  0  0  0  0  0  0  0  0  0  0  0
   21.7693   -9.7711  -18.4918 O   0  0  0  0  0  0  0  0  0  0  0  0
   18.2180   -6.6773  -17.0033 O   0  0  0  0  0  0  0  0  0  0  0  0
   18.1737   -8.0411  -17.2800 C   0  0  0  0  0  0  0  0  0  0  0  0
   19.5850   -8.5797  -17.3738 C   0  0  2  0  0  0  0  0  0  0  0  0
   19.6321   -9.9660  -17.7121 N   0  0  0  0  0  0  0  0  0  0  0  0
   20.3594   -8.2729  -16.1310 C   0  0  0  0  0  0  0  0  0  0  0  0
   20.2987   -9.0287  -15.1109 O   0  0  0  0  0  0  0  0  0  0  0  0
   26.1013   -4.3312  -19.2073 O   0  0  0  0  0  0  0  0  0  0  0  0
   25.4268   -5.0407  -18.2136 C   0  0  0  0  0  0  0  0  0  0  0  0
   24.9012   -6.2904  -18.4671 C   0  0  0  0  0  0  0  0  0  0  0  0
   24.2326   -6.9940  -17.4825 C   0  0  0  0  0  0  0  0  0  0  0  0
   24.0578   -6.4879  -16.2069 C   0  0  0  0  0  0  0  0  0  0  0  0
   23.3365   -7.2480  -15.1548 C   0  0  0  0  0  0  0  0  0  0  0  0
   21.9326   -6.7682  -14.9140 C   0  0  2  0  0  0  0  0  0  0  0  0
   21.1717   -7.1064  -16.1174 N   0  0  0  0  0  0  0  0  0  0  0  0
   21.8201   -5.3441  -14.5841 C   0  0  0  0  0  0  0  0  0  0  0  0
   22.3804   -4.8589  -13.4273 O   0  0  0  0  0  0  0  0  0  0  0  0
   24.5861   -5.2365  -15.9589 C   0  0  0  0  0  0  0  0  0  0  0  0
   25.2533   -4.5349  -16.9426 C   0  0  0  0  0  0  0  0  0  0  0  0
   21.2167   -4.5710  -15.3510 O   0  0  0  0  0  0  0  0  0  0  0  0
  1  2  1  0
  3  4  1  6
  3  2  1  0
  5  3  1  0
  5 10  1  0
  6  5  2  0
  8  7  1  0
  9 10  1  0
  9  8  1  1
 11  9  1  0
 12 11  2  0
 13 14  1  0
 14 15  2  0
 15 16  1  0
 17 16  2  0
 17 18  1  0
 19 18  1  6
 19 20  1  0
 20 11  1  0
 21 22  1  0
 21 19  1  0
 23 17  1  0
 24 14  1  0
 24 23  2  0
 25 21  2  0
M  END
$$$$
