SSY.pdb
     RDKit          3D

 25 25  0  0  1  0  0  0  0  0999 V2000
   13.9082   -5.1803   -8.4385 O   0  0  0  0  0  0  0  0  0  0  0  0
   15.1288   -5.8223   -8.7099 C   0  0  0  0  0  0  0  0  0  0  0  0
   14.7527   -7.2132   -9.2175 C   0  0  2  0  0  0  0  0  0  0  0  0
   14.5434   -8.0322   -8.0388 N   0  0  0  0  0  0  0  0  0  0  0  0
   15.8660   -7.8140   -9.9985 C   0  0  0  0  0  0  0  0  0  0  0  0
   16.9946   -8.0471   -9.4882 O   0  0  0  0  0  0  0  0  0  0  0  0
   17.5033  -10.3117  -13.7000 O   0  0  0  0  0  0  0  0  0  0  0  0
   16.3762   -9.7977  -13.0646 C   0  0  0  0  0  0  0  0  0  0  0  0
   16.7916   -8.6782  -12.1347 C   0  0  2  0  0  0  0  0  0  0  0  0
   15.7054   -8.1558  -11.3695 N   0  0  0  0  0  0  0  0  0  0  0  0
   17.5268   -7.6084  -12.8789 C   0  0  0  0  0  0  0  0  0  0  0  0
   16.9111   -6.6357  -13.4176 O   0  0  0  0  0  0  0  0  0  0  0  0
   24.4873   -3.0186  -15.9634 O   0  0  0  0  0  0  0  0  0  0  0  0
   23.6468   -3.9029  -15.2872 C   0  0  0  0  0  0  0  0  0  0  0  0
   23.7313   -5.2632  -15.4983 C   0  0  0  0  0  0  0  0  0  0  0  0
   22.8983   -6.1402  -14.8283 C   0  0  0  0  0  0  0  0  0  0  0  0
   21.9481   -5.7047  -13.9221 C   0  0  0  0  0  0  0  0  0  0  0  0
   21.0551   -6.6519  -13.2078 C   0  0  0  0  0  0  0  0  0  0  0  0
   19.6805   -6.7588  -13.8062 C   0  0  2  0  0  0  0  0  0  0  0  0
   18.9420   -7.7061  -12.9702 N   0  0  0  0  0  0  0  0  0  0  0  0
   19.6562   -7.1496  -15.2191 C   0  0  0  0  0  0  0  0  0  0  0  0
   19.8160   -8.4678  -15.5718 O   0  0  0  0  0  0  0  0  0  0  0  0
   21.8681   -4.3419  -13.7149 C   0  0  0  0  0  0  0  0  0  0  0  0
   22.7000   -3.4673  -14.3842 C   0  0  0  0  0  0  0  0  0  0  0  0
   19.4911   -6.2883  -16.1027 O   0  0  0  0  0  0  0  0  0  0  0  0
  1  2  1  0
  3  4  1  1
  3  2  1  0
  5  3  1  0
  5 10  1  0
  6  5  2  0
  8  7  1  0
  9 10  1  0
  9  8  1  6
 11  9  1  0
 12 11  2  0
 13 14  1  0
 14 15  2  0
 15 16  1  0
 17 16  2  0
 17 18  1  0
 19 18  1  1
 19 20  1  0
 20 11  1  0
 21 22  1  0
 21 19  1  0
 23 17  1  0
 24 14  1  0
 24 23  2  0
 25 21  2  0
M  END
$$$$
