SSY.pdb
     RDKit          3D

 25 25  0  0  1  0  0  0  0  0999 V2000
   17.0915  -11.6158  -14.9160 O   0  0  0  0  0  0  0  0  0  0  0  0
   17.8847  -10.4569  -14.8566 C   0  0  0  0  0  0  0  0  0  0  0  0
   18.2696  -10.1531  -16.3034 C   0  0  2  0  0  0  0  0  0  0  0  0
   19.3533  -11.0589  -16.6334 N   0  0  0  0  0  0  0  0  0  0  0  0
   18.7800   -8.7631  -16.4379 C   0  0  0  0  0  0  0  0  0  0  0  0
   19.9856   -8.5139  -16.7081 O   0  0  0  0  0  0  0  0  0  0  0  0
   16.2749   -5.4221  -15.8810 O   0  0  0  0  0  0  0  0  0  0  0  0
   17.2994   -5.3346  -16.8197 C   0  0  0  0  0  0  0  0  0  0  0  0
   18.3982   -6.3095  -16.4550 C   0  0  2  0  0  0  0  0  0  0  0  0
   17.9221   -7.6421  -16.2659 N   0  0  0  0  0  0  0  0  0  0  0  0
   19.1841   -5.8164  -15.2812 C   0  0  0  0  0  0  0  0  0  0  0  0
   18.8429   -6.1015  -14.0905 O   0  0  0  0  0  0  0  0  0  0  0  0
   22.5674  -10.6284  -13.6579 O   0  0  0  0  0  0  0  0  0  0  0  0
   22.5312   -9.2456  -13.8376 C   0  0  0  0  0  0  0  0  0  0  0  0
   22.6610   -8.6901  -15.0933 C   0  0  0  0  0  0  0  0  0  0  0  0
   22.6252   -7.3195  -15.2719 C   0  0  0  0  0  0  0  0  0  0  0  0
   22.4593   -6.4441  -14.2137 C   0  0  0  0  0  0  0  0  0  0  0  0
   22.4242   -4.9729  -14.4124 C   0  0  0  0  0  0  0  0  0  0  0  0
   21.0376   -4.3931  -14.4100 C   0  0  2  0  0  0  0  0  0  0  0  0
   20.3312   -5.0147  -15.5308 N   0  0  0  0  0  0  0  0  0  0  0  0
   20.9856   -2.9295  -14.4815 C   0  0  0  0  0  0  0  0  0  0  0  0
   21.6267   -2.1706  -13.5325 O   0  0  0  0  0  0  0  0  0  0  0  0
   22.3299   -7.0059  -12.9590 C   0  0  0  0  0  0  0  0  0  0  0  0
   22.3658   -8.3742  -12.7818 C   0  0  0  0  0  0  0  0  0  0  0  0
   20.3606   -2.3709  -15.4018 O   0  0  0  0  0  0  0  0  0  0  0  0
  1  2  1  0
  3  4  1  1
  3  2  1  0
  5  3  1  0
  5 10  1  0
  6  5  2  0
  8  7  1  0
  9 10  1  0
  9  8  1  1
 11  9  1  0
 12 11  2  0
 13 14  1  0
 14 15  2  0
 15 16  1  0
 17 16  2  0
 17 18  1  0
 19 18  1  6
 19 20  1  0
 20 11  1  0
 21 22  1  0
 21 19  1  0
 23 17  1  0
 24 14  1  0
 24 23  2  0
 25 21  2  0
M  END
$$$$
