SSY.pdb
     RDKit          3D

 25 25  0  0  1  0  0  0  0  0999 V2000
   19.1384  -14.7775  -15.6910 O   0  0  0  0  0  0  0  0  0  0  0  0
   19.8612  -13.5837  -15.5229 C   0  0  0  0  0  0  0  0  0  0  0  0
   19.8859  -12.9258  -16.9015 C   0  0  2  0  0  0  0  0  0  0  0  0
   21.0655  -13.4365  -17.5734 N   0  0  0  0  0  0  0  0  0  0  0  0
   20.0301  -11.4506  -16.7848 C   0  0  0  0  0  0  0  0  0  0  0  0
   21.1564  -10.8902  -16.7090 O   0  0  0  0  0  0  0  0  0  0  0  0
   16.8064   -8.7284  -16.0480 O   0  0  0  0  0  0  0  0  0  0  0  0
   17.7402   -8.4516  -17.0428 C   0  0  0  0  0  0  0  0  0  0  0  0
   19.0319   -9.1774  -16.7340 C   0  0  2  0  0  0  0  0  0  0  0  0
   18.8923  -10.5981  -16.7533 N   0  0  0  0  0  0  0  0  0  0  0  0
   19.6312   -8.6840  -15.4550 C   0  0  0  0  0  0  0  0  0  0  0  0
   19.7131   -9.4330  -14.4314 O   0  0  0  0  0  0  0  0  0  0  0  0
   25.8762   -6.0386  -17.9954 O   0  0  0  0  0  0  0  0  0  0  0  0
   24.9385   -6.4097  -17.0317 C   0  0  0  0  0  0  0  0  0  0  0  0
   24.4595   -5.4936  -16.1187 C   0  0  0  0  0  0  0  0  0  0  0  0
   23.5300   -5.8609  -15.1632 C   0  0  0  0  0  0  0  0  0  0  0  0
   23.0378   -7.1506  -15.0737 C   0  0  0  0  0  0  0  0  0  0  0  0
   22.0414   -7.5388  -14.0435 C   0  0  0  0  0  0  0  0  0  0  0  0
   20.7200   -6.8363  -14.1819 C   0  0  2  0  0  0  0  0  0  0  0  0
   20.1110   -7.3467  -15.4109 N   0  0  0  0  0  0  0  0  0  0  0  0
   20.8019   -5.3724  -14.1851 C   0  0  0  0  0  0  0  0  0  0  0  0
   20.4005   -4.6628  -15.2909 O   0  0  0  0  0  0  0  0  0  0  0  0
   23.5209   -8.0633  -15.9902 C   0  0  0  0  0  0  0  0  0  0  0  0
   24.4488   -7.6957  -16.9437 C   0  0  0  0  0  0  0  0  0  0  0  0
   21.2355   -4.7688  -13.1864 O   0  0  0  0  0  0  0  0  0  0  0  0
  1  2  1  0
  3  4  1  6
  3  2  1  0
  5  3  1  0
  5 10  1  0
  6  5  2  0
  8  7  1  0
  9 10  1  0
  9  8  1  1
 11  9  1  0
 12 11  2  0
 13 14  1  0
 14 15  2  0
 15 16  1  0
 17 16  2  0
 17 18  1  0
 19 18  1  6
 19 20  1  0
 20 11  1  0
 21 22  1  0
 21 19  1  0
 23 17  1  0
 24 14  1  0
 24 23  2  0
 25 21  2  0
M  END
$$$$
