SSY.pdb
     RDKit          3D

 25 25  0  0  1  0  0  0  0  0999 V2000
   26.9044  -12.4564  -15.6278 O   0  0  0  0  0  0  0  0  0  0  0  0
   26.0318  -11.3614  -15.5050 C   0  0  0  0  0  0  0  0  0  0  0  0
   25.4480  -11.1482  -16.9005 C   0  0  2  0  0  0  0  0  0  0  0  0
   26.5048  -10.5525  -17.6955 N   0  0  0  0  0  0  0  0  0  0  0  0
   24.3115  -10.1903  -16.8615 C   0  0  0  0  0  0  0  0  0  0  0  0
   24.4804   -8.9445  -16.9495 O   0  0  0  0  0  0  0  0  0  0  0  0
   19.5527   -9.4036  -17.0493 O   0  0  0  0  0  0  0  0  0  0  0  0
   20.5572  -10.3674  -17.0696 C   0  0  0  0  0  0  0  0  0  0  0  0
   21.8775   -9.7232  -16.7056 C   0  0  2  0  0  0  0  0  0  0  0  0
   22.9703  -10.6419  -16.7218 N   0  0  0  0  0  0  0  0  0  0  0  0
   21.7748   -8.9875  -15.4068 C   0  0  0  0  0  0  0  0  0  0  0  0
   21.9007   -9.5895  -14.2945 O   0  0  0  0  0  0  0  0  0  0  0  0
   23.6096   -1.7599  -17.5215 O   0  0  0  0  0  0  0  0  0  0  0  0
   23.3894   -2.8290  -16.6531 C   0  0  0  0  0  0  0  0  0  0  0  0
   23.9690   -4.0595  -16.8819 C   0  0  0  0  0  0  0  0  0  0  0  0
   23.7510   -5.1195  -16.0214 C   0  0  0  0  0  0  0  0  0  0  0  0
   22.9499   -5.0033  -14.8995 C   0  0  0  0  0  0  0  0  0  0  0  0
   22.7181   -6.1466  -13.9808 C   0  0  0  0  0  0  0  0  0  0  0  0
   21.4019   -6.8400  -14.1947 C   0  0  2  0  0  0  0  0  0  0  0  0
   21.5310   -7.5877  -15.4461 N   0  0  0  0  0  0  0  0  0  0  0  0
   20.2367   -5.9502  -14.2129 C   0  0  0  0  0  0  0  0  0  0  0  0
   19.4433   -5.8774  -15.3322 O   0  0  0  0  0  0  0  0  0  0  0  0
   22.3724   -3.7692  -14.6756 C   0  0  0  0  0  0  0  0  0  0  0  0
   22.5906   -2.7116  -15.5352 C   0  0  0  0  0  0  0  0  0  0  0  0
   19.9635   -5.2583  -13.2147 O   0  0  0  0  0  0  0  0  0  0  0  0
  1  2  1  0
  3  4  1  6
  3  2  1  0
  5  3  1  0
  5 10  1  0
  6  5  2  0
  8  7  1  0
  9 10  1  0
  9  8  1  1
 11  9  1  0
 12 11  2  0
 13 14  1  0
 14 15  2  0
 15 16  1  0
 17 16  2  0
 17 18  1  0
 19 18  1  6
 19 20  1  0
 20 11  1  0
 21 22  1  0
 21 19  1  0
 23 17  1  0
 24 14  1  0
 24 23  2  0
 25 21  2  0
M  END
$$$$
