SSY.pdb
     RDKit          3D

 25 25  0  0  1  0  0  0  0  0999 V2000
   18.4108  -13.9758  -18.1057 O   0  0  0  0  0  0  0  0  0  0  0  0
   19.3682  -13.0186  -17.7279 C   0  0  0  0  0  0  0  0  0  0  0  0
   20.0000  -12.5383  -19.0333 C   0  0  2  0  0  0  0  0  0  0  0  0
   20.9646  -13.5524  -19.4140 N   0  0  0  0  0  0  0  0  0  0  0  0
   20.7357  -11.2623  -18.8308 C   0  0  0  0  0  0  0  0  0  0  0  0
   21.8651  -11.2198  -18.2731 O   0  0  0  0  0  0  0  0  0  0  0  0
   18.9898   -7.4519  -19.5529 O   0  0  0  0  0  0  0  0  0  0  0  0
   20.3371   -7.6427  -19.8473 C   0  0  0  0  0  0  0  0  0  0  0  0
   20.8738   -8.7900  -19.0188 C   0  0  2  0  0  0  0  0  0  0  0  0
   20.1922  -10.0207  -19.2615 N   0  0  0  0  0  0  0  0  0  0  0  0
   20.9015   -8.4345  -17.5656 C   0  0  0  0  0  0  0  0  0  0  0  0
   20.0138   -8.8632  -16.7633 O   0  0  0  0  0  0  0  0  0  0  0  0
   27.2874   -4.2353  -17.9120 O   0  0  0  0  0  0  0  0  0  0  0  0
   26.3129   -4.9732  -17.2400 C   0  0  0  0  0  0  0  0  0  0  0  0
   26.0549   -6.2842  -17.5818 C   0  0  0  0  0  0  0  0  0  0  0  0
   25.0891   -7.0161  -16.9159 C   0  0  0  0  0  0  0  0  0  0  0  0
   24.3401   -6.4785  -15.8845 C   0  0  0  0  0  0  0  0  0  0  0  0
   23.3027   -7.2695  -15.1752 C   0  0  0  0  0  0  0  0  0  0  0  0
   21.9171   -7.0878  -15.7285 C   0  0  2  0  0  0  0  0  0  0  0  0
   21.9527   -7.5989  -17.0993 N   0  0  0  0  0  0  0  0  0  0  0  0
   21.4121   -5.7123  -15.6760 C   0  0  0  0  0  0  0  0  0  0  0  0
   21.1474   -5.1218  -14.4640 O   0  0  0  0  0  0  0  0  0  0  0  0
   24.6028   -5.1657  -15.5468 C   0  0  0  0  0  0  0  0  0  0  0  0
   25.5671   -4.4360  -16.2121 C   0  0  0  0  0  0  0  0  0  0  0  0
   21.2216   -5.0762  -16.7290 O   0  0  0  0  0  0  0  0  0  0  0  0
  1  2  1  0
  3  4  1  1
  3  2  1  0
  5  3  1  0
  5 10  1  0
  6  5  2  0
  8  7  1  0
  9 10  1  0
  9  8  1  6
 11  9  1  0
 12 11  2  0
 13 14  1  0
 14 15  2  0
 15 16  1  0
 17 16  2  0
 17 18  1  0
 19 18  1  6
 19 20  1  0
 20 11  1  0
 21 22  1  0
 21 19  1  0
 23 17  1  0
 24 14  1  0
 24 23  2  0
 25 21  2  0
M  END
$$$$
