SSY.pdb
     RDKit          3D

 25 25  0  0  1  0  0  0  0  0999 V2000
   33.6910  -38.1130   -5.3547 O   0  0  0  0  0  0  0  0  0  0  0  0
   32.9789  -37.8557   -6.5388 C   0  0  0  0  0  0  0  0  0  0  0  0
   32.8546  -36.3350   -6.6164 C   0  0  2  0  0  0  0  0  0  0  0  0
   34.2048  -35.8246   -6.7583 N   0  0  0  0  0  0  0  0  0  0  0  0
   32.2880  -35.7823   -5.3578 C   0  0  0  0  0  0  0  0  0  0  0  0
   32.9452  -35.7509   -4.2828 O   0  0  0  0  0  0  0  0  0  0  0  0
   28.2781  -34.7962   -5.1074 O   0  0  0  0  0  0  0  0  0  0  0  0
   29.1066  -34.0090   -4.3123 C   0  0  0  0  0  0  0  0  0  0  0  0
   30.4257  -34.7211   -4.1039 C   0  0  2  0  0  0  0  0  0  0  0  0
   30.9664  -35.2594   -5.3106 N   0  0  0  0  0  0  0  0  0  0  0  0
   30.3141  -35.7507   -3.0240 C   0  0  0  0  0  0  0  0  0  0  0  0
   30.0504  -36.9646   -3.2929 O   0  0  0  0  0  0  0  0  0  0  0  0
   35.1193  -40.2008   -2.2611 O   0  0  0  0  0  0  0  0  0  0  0  0
   34.2553  -39.2755   -1.6752 C   0  0  0  0  0  0  0  0  0  0  0  0
   33.1596  -39.6904   -0.9475 C   0  0  0  0  0  0  0  0  0  0  0  0
   32.3029  -38.7737   -0.3666 C   0  0  0  0  0  0  0  0  0  0  0  0
   32.4973  -37.4090   -0.4833 C   0  0  0  0  0  0  0  0  0  0  0  0
   31.5719  -36.4300    0.1412 C   0  0  0  0  0  0  0  0  0  0  0  0
   30.2658  -36.2793   -0.5871 C   0  0  2  0  0  0  0  0  0  0  0  0
   30.5115  -35.3361   -1.6787 N   0  0  0  0  0  0  0  0  0  0  0  0
   29.1415  -35.8550    0.2529 C   0  0  0  0  0  0  0  0  0  0  0  0
   28.7396  -36.6344    1.3106 O   0  0  0  0  0  0  0  0  0  0  0  0
   33.5957  -36.9996   -1.2129 C   0  0  0  0  0  0  0  0  0  0  0  0
   34.4503  -37.9155   -1.7924 C   0  0  0  0  0  0  0  0  0  0  0  0
   28.5480  -34.7880    0.0099 O   0  0  0  0  0  0  0  0  0  0  0  0
  1  2  1  0
  3  4  1  1
  3  2  1  0
  5  3  1  0
  5 10  1  0
  6  5  2  0
  8  7  1  0
  9 10  1  0
  9  8  1  6
 11  9  1  0
 12 11  2  0
 13 14  1  0
 14 15  2  0
 15 16  1  0
 17 16  2  0
 17 18  1  0
 19 18  1  1
 19 20  1  0
 20 11  1  0
 21 22  1  0
 21 19  1  0
 23 17  1  0
 24 14  1  0
 24 23  2  0
 25 21  2  0
M  END
$$$$
