SSY.pdb
     RDKit          3D

 25 25  0  0  1  0  0  0  0  0999 V2000
   16.8390  -10.2733  -16.0610 O   0  0  0  0  0  0  0  0  0  0  0  0
   17.8047   -9.2577  -15.9531 C   0  0  0  0  0  0  0  0  0  0  0  0
   18.7380   -9.4555  -17.1463 C   0  0  2  0  0  0  0  0  0  0  0  0
   19.5635  -10.6052  -16.8291 N   0  0  0  0  0  0  0  0  0  0  0  0
   19.6359   -8.2833  -17.3199 C   0  0  0  0  0  0  0  0  0  0  0  0
   20.6932   -8.1424  -16.6485 O   0  0  0  0  0  0  0  0  0  0  0  0
   18.5971   -5.1287  -19.8657 O   0  0  0  0  0  0  0  0  0  0  0  0
   19.9580   -5.3671  -19.6944 C   0  0  0  0  0  0  0  0  0  0  0  0
   20.1770   -6.1111  -18.3948 C   0  0  2  0  0  0  0  0  0  0  0  0
   19.3387   -7.2589  -18.2604 N   0  0  0  0  0  0  0  0  0  0  0  0
   20.0653   -5.1873  -17.2231 C   0  0  0  0  0  0  0  0  0  0  0  0
   18.9410   -4.9304  -16.6889 O   0  0  0  0  0  0  0  0  0  0  0  0
   19.8825   -8.9908  -12.0841 O   0  0  0  0  0  0  0  0  0  0  0  0
   20.4120   -7.8431  -12.6742 C   0  0  0  0  0  0  0  0  0  0  0  0
   21.5444   -7.9072  -13.4589 C   0  0  0  0  0  0  0  0  0  0  0  0
   22.0696   -6.7699  -14.0441 C   0  0  0  0  0  0  0  0  0  0  0  0
   21.4940   -5.5233  -13.8755 C   0  0  0  0  0  0  0  0  0  0  0  0
   22.0648   -4.3055  -14.5049 C   0  0  0  0  0  0  0  0  0  0  0  0
   21.1859   -3.7006  -15.5635 C   0  0  2  0  0  0  0  0  0  0  0  0
   21.2560   -4.5986  -16.7170 N   0  0  0  0  0  0  0  0  0  0  0  0
   21.5268   -2.3221  -15.9285 C   0  0  0  0  0  0  0  0  0  0  0  0
   21.4678   -1.3254  -14.9848 O   0  0  0  0  0  0  0  0  0  0  0  0
   20.3606   -5.4653  -13.0890 C   0  0  0  0  0  0  0  0  0  0  0  0
   19.8371   -6.6012  -12.5052 C   0  0  0  0  0  0  0  0  0  0  0  0
   21.8704   -2.0513  -17.0940 O   0  0  0  0  0  0  0  0  0  0  0  0
  1  2  1  0
  3  4  1  1
  3  2  1  0
  5  3  1  0
  5 10  1  0
  6  5  2  0
  8  7  1  0
  9 10  1  0
  9  8  1  6
 11  9  1  0
 12 11  2  0
 13 14  1  0
 14 15  2  0
 15 16  1  0
 17 16  2  0
 17 18  1  0
 19 18  1  1
 19 20  1  0
 20 11  1  0
 21 22  1  0
 21 19  1  0
 23 17  1  0
 24 14  1  0
 24 23  2  0
 25 21  2  0
M  END
$$$$
