SSY.pdb
     RDKit          3D

 25 25  0  0  1  0  0  0  0  0999 V2000
   24.5532  -11.7041  -21.9624 O   0  0  0  0  0  0  0  0  0  0  0  0
   25.3731  -12.2661  -20.9687 C   0  0  0  0  0  0  0  0  0  0  0  0
   26.5133  -11.2689  -20.7704 C   0  0  2  0  0  0  0  0  0  0  0  0
   27.6249  -12.0267  -20.2281 N   0  0  0  0  0  0  0  0  0  0  0  0
   26.1430  -10.2275  -19.7760 C   0  0  0  0  0  0  0  0  0  0  0  0
   25.4713  -10.4940  -18.7434 O   0  0  0  0  0  0  0  0  0  0  0  0
   28.1867   -6.8299  -18.5568 O   0  0  0  0  0  0  0  0  0  0  0  0
   26.9372   -6.5954  -19.1243 C   0  0  0  0  0  0  0  0  0  0  0  0
   26.1039   -7.8560  -19.0404 C   0  0  2  0  0  0  0  0  0  0  0  0
   26.5341   -8.8711  -19.9475 N   0  0  0  0  0  0  0  0  0  0  0  0
   24.6474   -7.5462  -19.1859 C   0  0  0  0  0  0  0  0  0  0  0  0
   24.0333   -7.7544  -20.2791 O   0  0  0  0  0  0  0  0  0  0  0  0
   16.2803   -8.2057  -17.3017 O   0  0  0  0  0  0  0  0  0  0  0  0
   17.6487   -8.1789  -17.5710 C   0  0  0  0  0  0  0  0  0  0  0  0
   18.1491   -7.4484  -18.6284 C   0  0  0  0  0  0  0  0  0  0  0  0
   19.5054   -7.4214  -18.8957 C   0  0  0  0  0  0  0  0  0  0  0  0
   20.4206   -8.1172  -18.1262 C   0  0  0  0  0  0  0  0  0  0  0  0
   21.8757   -8.0858  -18.4204 C   0  0  0  0  0  0  0  0  0  0  0  0
   22.5214   -6.7562  -18.1484 C   0  0  2  0  0  0  0  0  0  0  0  0
   23.9604   -7.0089  -18.0634 N   0  0  0  0  0  0  0  0  0  0  0  0
   22.0213   -6.0649  -16.9560 C   0  0  0  0  0  0  0  0  0  0  0  0
   20.9186   -5.2503  -17.0441 O   0  0  0  0  0  0  0  0  0  0  0  0
   19.9138   -8.8467  -17.0690 C   0  0  0  0  0  0  0  0  0  0  0  0
   18.5597   -8.8729  -16.8030 C   0  0  0  0  0  0  0  0  0  0  0  0
   22.5946   -6.2140  -15.8610 O   0  0  0  0  0  0  0  0  0  0  0  0
  1  2  1  0
  3  4  1  1
  3  2  1  0
  5  3  1  0
  5 10  1  0
  6  5  2  0
  8  7  1  0
  9 10  1  0
  9  8  1  6
 11  9  1  0
 12 11  2  0
 13 14  1  0
 14 15  2  0
 15 16  1  0
 17 16  2  0
 17 18  1  0
 19 18  1  1
 19 20  1  0
 20 11  1  0
 21 22  1  0
 21 19  1  0
 23 17  1  0
 24 14  1  0
 24 23  2  0
 25 21  2  0
M  END
$$$$
