SSY.pdb
     RDKit          3D

 25 25  0  0  1  0  0  0  0  0999 V2000
   23.0623  -15.1423  -15.7745 O   0  0  0  0  0  0  0  0  0  0  0  0
   23.5526  -14.1469  -16.6372 C   0  0  0  0  0  0  0  0  0  0  0  0
   23.7858  -14.8469  -17.9749 C   0  0  2  0  0  0  0  0  0  0  0  0
   22.4760  -15.2318  -18.4648 N   0  0  0  0  0  0  0  0  0  0  0  0
   24.5876  -16.0859  -17.7947 C   0  0  0  0  0  0  0  0  0  0  0  0
   24.0703  -17.1710  -17.4160 O   0  0  0  0  0  0  0  0  0  0  0  0
   28.8928  -16.2537  -17.9574 O   0  0  0  0  0  0  0  0  0  0  0  0
   28.1035  -17.2366  -18.5483 C   0  0  0  0  0  0  0  0  0  0  0  0
   26.7605  -17.2868  -17.8523 C   0  0  2  0  0  0  0  0  0  0  0  0
   25.9875  -16.1018  -18.0443 N   0  0  0  0  0  0  0  0  0  0  0  0
   26.9195  -17.6315  -16.4050 C   0  0  0  0  0  0  0  0  0  0  0  0
   26.8754  -16.7364  -15.5037 O   0  0  0  0  0  0  0  0  0  0  0  0
   25.5360  -20.8611   -8.6066 O   0  0  0  0  0  0  0  0  0  0  0  0
   25.6460  -20.4025   -9.9194 C   0  0  0  0  0  0  0  0  0  0  0  0
   26.2761  -19.2088  -10.2031 C   0  0  0  0  0  0  0  0  0  0  0  0
   26.3854  -18.7538  -11.5042 C   0  0  0  0  0  0  0  0  0  0  0  0
   25.8747  -19.4631  -12.5766 C   0  0  0  0  0  0  0  0  0  0  0  0
   25.9935  -18.9673  -13.9712 C   0  0  0  0  0  0  0  0  0  0  0  0
   27.2716  -19.3699  -14.6518 C   0  0  2  0  0  0  0  0  0  0  0  0
   27.1228  -18.9950  -16.0585 N   0  0  0  0  0  0  0  0  0  0  0  0
   27.6255  -20.7850  -14.5026 C   0  0  0  0  0  0  0  0  0  0  0  0
   28.5396  -21.1696  -13.5519 O   0  0  0  0  0  0  0  0  0  0  0  0
   25.2450  -20.6571  -12.2865 C   0  0  0  0  0  0  0  0  0  0  0  0
   25.1364  -21.1105  -10.9873 C   0  0  0  0  0  0  0  0  0  0  0  0
   27.0990  -21.6413  -15.2370 O   0  0  0  0  0  0  0  0  0  0  0  0
  1  2  1  0
  3  4  1  1
  3  2  1  0
  5  3  1  0
  5 10  1  0
  6  5  2  0
  8  7  1  0
  9 10  1  0
  9  8  1  1
 11  9  1  0
 12 11  2  0
 13 14  1  0
 14 15  2  0
 15 16  1  0
 17 16  2  0
 17 18  1  0
 19 18  1  1
 19 20  1  0
 20 11  1  0
 21 22  1  0
 21 19  1  0
 23 17  1  0
 24 14  1  0
 24 23  2  0
 25 21  2  0
M  END
$$$$
