MAE.pdb
     RDKit          3D

 23 22  0  0  1  0  0  0  0  0999 V2000
   25.5894  -20.0374   -7.0396 C   0  0  0  0  0  0  0  0  0  0  0  0
   27.3589  -19.8290   -7.3872 S   0  0  0  0  0  0  0  0  0  0  0  0
   27.8680  -20.8452   -8.7989 C   0  0  0  0  0  0  0  0  0  0  0  0
   26.8174  -20.7497   -9.8892 C   0  0  0  0  0  0  0  0  0  0  0  0
   27.2204  -21.5394  -11.1136 C   0  0  2  0  0  0  0  0  0  0  0  0
   28.5361  -21.1351  -11.5056 N   0  0  0  0  0  0  0  0  0  0  0  0
   26.2001  -21.2639  -12.1598 C   0  0  0  0  0  0  0  0  0  0  0  0
   26.2329  -20.1880  -12.8100 O   0  0  0  0  0  0  0  0  0  0  0  0
   23.8849  -23.3388  -14.2486 C   0  0  0  0  0  0  0  0  0  0  0  0
   24.3010  -22.0384  -13.6319 C   0  0  2  0  0  0  0  0  0  0  0  0
   25.1513  -22.1709  -12.4849 N   0  0  0  0  0  0  0  0  0  0  0  0
   23.1602  -21.1150  -13.3868 C   0  0  0  0  0  0  0  0  0  0  0  0
   22.5966  -21.1239  -12.2630 O   0  0  0  0  0  0  0  0  0  0  0  0
   22.6707  -20.2163  -14.3637 N   0  0  0  0  0  0  0  0  0  0  0  0
   21.5011  -19.3705  -14.1333 C   0  0  1  0  0  0  0  0  0  0  0  0
   21.3920  -18.4412  -15.3034 C   0  0  0  0  0  0  0  0  0  0  0  0
   22.4765  -17.4065  -15.3911 C   0  0  0  0  0  0  0  0  0  0  0  0
   22.2201  -16.4799  -16.4940 C   0  0  0  0  0  0  0  0  0  0  0  0
   21.2693  -16.5493  -17.2813 O   0  0  0  0  0  0  0  0  0  0  0  0
   20.2717  -20.2290  -14.0147 C   0  0  0  0  0  0  0  0  0  0  0  0
   19.2253  -19.8639  -13.1850 O   0  0  0  0  0  0  0  0  0  0  0  0
   23.1325  -15.4270  -16.6679 O   0  0  0  0  0  0  0  0  0  0  0  0
   20.1539  -21.3004  -14.6611 O   0  0  0  0  0  0  0  0  0  0  0  0
  1  2  1  0
  3  2  1  0
  4  3  1  0
  5  4  1  0
  5  7  1  0
  5  6  1  6
  7  8  2  0
 10  9  1  1
 11  7  1  0
 11 10  1  0
 12 10  1  0
 12 14  1  0
 13 12  2  0
 15 20  1  0
 15 14  1  0
 15 16  1  6
 17 16  1  0
 17 18  1  0
 18 22  1  0
 19 18  2  0
 20 21  1  0
 23 20  2  0
M  END
$$$$
