MAE.pdb
     RDKit          3D

 23 22  0  0  1  0  0  0  0  0999 V2000
   30.5413  -22.2622  -10.7168 C   0  0  0  0  0  0  0  0  0  0  0  0
   29.9994  -20.5934  -10.2513 S   0  0  0  0  0  0  0  0  0  0  0  0
   28.1908  -20.4766  -10.2412 C   0  0  0  0  0  0  0  0  0  0  0  0
   27.6899  -20.3405  -11.6668 C   0  0  0  0  0  0  0  0  0  0  0  0
   26.1868  -20.1859  -11.7105 C   0  0  2  0  0  0  0  0  0  0  0  0
   25.5909  -21.4837  -11.6170 N   0  0  0  0  0  0  0  0  0  0  0  0
   25.8611  -19.4956  -12.9867 C   0  0  0  0  0  0  0  0  0  0  0  0
   24.9893  -19.9694  -13.7594 O   0  0  0  0  0  0  0  0  0  0  0  0
   26.8724  -16.2720  -14.7700 C   0  0  0  0  0  0  0  0  0  0  0  0
   26.1354  -17.5638  -14.5887 C   0  0  2  0  0  0  0  0  0  0  0  0
   26.4941  -18.2907  -13.4059 N   0  0  0  0  0  0  0  0  0  0  0  0
   26.1482  -18.4209  -15.8051 C   0  0  0  0  0  0  0  0  0  0  0  0
   25.8109  -17.9217  -16.9086 O   0  0  0  0  0  0  0  0  0  0  0  0
   26.5247  -19.7845  -15.7849 N   0  0  0  0  0  0  0  0  0  0  0  0
   26.5108  -20.6184  -16.9852 C   0  0  1  0  0  0  0  0  0  0  0  0
   27.5147  -21.7104  -16.7747 C   0  0  0  0  0  0  0  0  0  0  0  0
   27.6558  -22.6680  -17.9225 C   0  0  0  0  0  0  0  0  0  0  0  0
   28.7089  -23.6474  -17.6532 C   0  0  0  0  0  0  0  0  0  0  0  0
   29.3563  -23.7324  -16.6032 O   0  0  0  0  0  0  0  0  0  0  0  0
   25.1338  -21.1886  -17.1889 C   0  0  0  0  0  0  0  0  0  0  0  0
   24.6982  -21.5659  -18.4477 O   0  0  0  0  0  0  0  0  0  0  0  0
   29.0045  -24.5637  -18.6751 O   0  0  0  0  0  0  0  0  0  0  0  0
   24.3372  -21.3405  -16.2288 O   0  0  0  0  0  0  0  0  0  0  0  0
  1  2  1  0
  3  2  1  0
  4  3  1  0
  5  4  1  0
  5  7  1  0
  5  6  1  6
  7  8  2  0
 10  9  1  6
 11  7  1  0
 11 10  1  0
 12 10  1  0
 12 14  1  0
 13 12  2  0
 15 20  1  0
 15 14  1  0
 15 16  1  1
 17 16  1  0
 17 18  1  0
 18 22  1  0
 19 18  2  0
 20 21  1  0
 23 20  2  0
M  END
$$$$
