MAE.pdb
     RDKit          3D

 23 22  0  0  1  0  0  0  0  0999 V2000
   28.3229  -14.4681  -15.4528 C   0  0  0  0  0  0  0  0  0  0  0  0
   26.9612  -13.2710  -15.5431 S   0  0  0  0  0  0  0  0  0  0  0  0
   27.3667  -11.9092  -16.6682 C   0  0  0  0  0  0  0  0  0  0  0  0
   26.2307  -10.9035  -16.6667 C   0  0  0  0  0  0  0  0  0  0  0  0
   24.9053  -11.5687  -16.9600 C   0  0  2  0  0  0  0  0  0  0  0  0
   24.9413  -12.0920  -18.2916 N   0  0  0  0  0  0  0  0  0  0  0  0
   23.8535  -10.5333  -16.7787 C   0  0  0  0  0  0  0  0  0  0  0  0
   23.8032   -9.5390  -17.5470 O   0  0  0  0  0  0  0  0  0  0  0  0
   20.6829  -10.0811  -14.7293 C   0  0  0  0  0  0  0  0  0  0  0  0
   21.8282   -9.6213  -15.5787 C   0  0  2  0  0  0  0  0  0  0  0  0
   22.8644  -10.5964  -15.7559 N   0  0  0  0  0  0  0  0  0  0  0  0
   22.3639   -8.2942  -15.1709 C   0  0  0  0  0  0  0  0  0  0  0  0
   23.3589   -8.2457  -14.4040 O   0  0  0  0  0  0  0  0  0  0  0  0
   21.8056   -7.0694  -15.6063 N   0  0  0  0  0  0  0  0  0  0  0  0
   22.3911   -5.7754  -15.2607 C   0  0  1  0  0  0  0  0  0  0  0  0
   21.8846   -4.7814  -16.2607 C   0  0  0  0  0  0  0  0  0  0  0  0
   22.3708   -3.3758  -16.0555 C   0  0  0  0  0  0  0  0  0  0  0  0
   21.7159   -2.4598  -16.9898 C   0  0  0  0  0  0  0  0  0  0  0  0
   21.8538   -1.2311  -17.0032 O   0  0  0  0  0  0  0  0  0  0  0  0
   21.9789   -5.3901  -13.8664 C   0  0  0  0  0  0  0  0  0  0  0  0
   22.7710   -4.5582  -13.0936 O   0  0  0  0  0  0  0  0  0  0  0  0
   20.8617   -3.0286  -17.9479 O   0  0  0  0  0  0  0  0  0  0  0  0
   20.9077   -5.8082  -13.3590 O   0  0  0  0  0  0  0  0  0  0  0  0
  1  2  1  0
  3  2  1  0
  4  3  1  0
  5  4  1  0
  5  7  1  0
  5  6  1  6
  7  8  2  0
 10  9  1  1
 11  7  1  0
 11 10  1  0
 12 10  1  0
 12 14  1  0
 13 12  2  0
 15 20  1  0
 15 14  1  0
 15 16  1  6
 17 16  1  0
 17 18  1  0
 18 22  1  0
 19 18  2  0
 20 21  1  0
 23 20  2  0
M  END
$$$$
