MAE.pdb
     RDKit          3D

 23 22  0  0  1  0  0  0  0  0999 V2000
   23.9819  -21.1334  -11.1535 C   0  0  0  0  0  0  0  0  0  0  0  0
   25.4913  -20.6068  -10.2935 S   0  0  0  0  0  0  0  0  0  0  0  0
   26.9033  -20.5597  -11.4289 C   0  0  0  0  0  0  0  0  0  0  0  0
   26.3986  -20.6229  -12.8583 C   0  0  0  0  0  0  0  0  0  0  0  0
   27.5397  -20.5707  -13.8484 C   0  0  2  0  0  0  0  0  0  0  0  0
   28.2825  -19.3677  -13.6267 N   0  0  0  0  0  0  0  0  0  0  0  0
   26.9358  -20.6301  -15.2061 C   0  0  0  0  0  0  0  0  0  0  0  0
   26.4907  -19.5864  -15.7484 O   0  0  0  0  0  0  0  0  0  0  0  0
   26.7343  -23.1382  -18.0491 C   0  0  0  0  0  0  0  0  0  0  0  0
   26.3419  -21.8969  -17.3075 C   0  0  2  0  0  0  0  0  0  0  0  0
   26.8248  -21.8340  -15.9588 N   0  0  0  0  0  0  0  0  0  0  0  0
   24.8885  -21.5926  -17.4028 C   0  0  0  0  0  0  0  0  0  0  0  0
   24.3698  -21.4345  -18.5371 O   0  0  0  0  0  0  0  0  0  0  0  0
   24.0493  -21.4707  -16.2704 N   0  0  0  0  0  0  0  0  0  0  0  0
   22.6033  -21.2893  -16.3834 C   0  0  1  0  0  0  0  0  0  0  0  0
   22.0454  -21.3196  -14.9933 C   0  0  0  0  0  0  0  0  0  0  0  0
   20.5466  -21.2837  -14.9136 C   0  0  0  0  0  0  0  0  0  0  0  0
   20.1019  -21.2882  -13.5197 C   0  0  0  0  0  0  0  0  0  0  0  0
   20.4010  -20.4415  -12.6699 O   0  0  0  0  0  0  0  0  0  0  0  0
   22.3093  -19.9732  -17.0500 C   0  0  0  0  0  0  0  0  0  0  0  0
   21.2996  -19.8609  -17.9904 O   0  0  0  0  0  0  0  0  0  0  0  0
   19.2667  -22.3437  -13.1199 O   0  0  0  0  0  0  0  0  0  0  0  0
   22.9669  -18.9375  -16.7771 O   0  0  0  0  0  0  0  0  0  0  0  0
  1  2  1  0
  3  2  1  0
  4  3  1  0
  5  4  1  0
  5  7  1  0
  5  6  1  6
  7  8  2  0
 10  9  1  1
 11  7  1  0
 11 10  1  0
 12 10  1  0
 12 14  1  0
 13 12  2  0
 15 20  1  0
 15 14  1  0
 15 16  1  1
 17 16  1  0
 17 18  1  0
 18 22  1  0
 19 18  2  0
 20 21  1  0
 23 20  2  0
M  END
$$$$
