MAE.pdb
     RDKit          3D

 23 22  0  0  1  0  0  0  0  0999 V2000
   28.6713  -19.8439   -3.8641 C   0  0  0  0  0  0  0  0  0  0  0  0
   28.6887  -19.5958   -5.6623 S   0  0  0  0  0  0  0  0  0  0  0  0
   27.0518  -19.9042   -6.3768 C   0  0  0  0  0  0  0  0  0  0  0  0
   27.1330  -19.7786   -7.8866 C   0  0  0  0  0  0  0  0  0  0  0  0
   25.8076  -20.1005   -8.5384 C   0  0  2  0  0  0  0  0  0  0  0  0
   25.4302  -21.4319   -8.1735 N   0  0  0  0  0  0  0  0  0  0  0  0
   25.9974  -19.9395  -10.0044 C   0  0  0  0  0  0  0  0  0  0  0  0
   26.1861  -18.7983  -10.4980 O   0  0  0  0  0  0  0  0  0  0  0  0
   26.8680  -22.0013  -13.0035 C   0  0  0  0  0  0  0  0  0  0  0  0
   26.1098  -20.8927  -12.3395 C   0  0  2  0  0  0  0  0  0  0  0  0
   25.9789  -21.0316  -10.9183 N   0  0  0  0  0  0  0  0  0  0  0  0
   24.8108  -20.5937  -13.0008 C   0  0  0  0  0  0  0  0  0  0  0  0
   24.7981  -20.3172  -14.2272 O   0  0  0  0  0  0  0  0  0  0  0  0
   23.5741  -20.6044  -12.3137 N   0  0  0  0  0  0  0  0  0  0  0  0
   22.3020  -20.3504  -12.9873 C   0  0  1  0  0  0  0  0  0  0  0  0
   22.5893  -19.4417  -14.1433 C   0  0  0  0  0  0  0  0  0  0  0  0
   21.4031  -19.1256  -15.0077 C   0  0  0  0  0  0  0  0  0  0  0  0
   21.7855  -18.2403  -16.1081 C   0  0  0  0  0  0  0  0  0  0  0  0
   22.6609  -18.4790  -16.9481 O   0  0  0  0  0  0  0  0  0  0  0  0
   21.7126  -21.6505  -13.4616 C   0  0  0  0  0  0  0  0  0  0  0  0
   20.3417  -21.8406  -13.4959 O   0  0  0  0  0  0  0  0  0  0  0  0
   21.0983  -17.0205  -16.2139 O   0  0  0  0  0  0  0  0  0  0  0  0
   22.4407  -22.6024  -13.8403 O   0  0  0  0  0  0  0  0  0  0  0  0
  1  2  1  0
  3  2  1  0
  4  3  1  0
  5  4  1  0
  5  7  1  0
  5  6  1  6
  7  8  2  0
 10  9  1  6
 11  7  1  0
 11 10  1  0
 12 10  1  0
 12 14  1  0
 13 12  2  0
 15 20  1  0
 15 14  1  0
 15 16  1  6
 17 16  1  0
 17 18  1  0
 18 22  1  0
 19 18  2  0
 20 21  1  0
 23 20  2  0
M  END
$$$$
