MAE.pdb
     RDKit          3D

 23 22  0  0  1  0  0  0  0  0999 V2000
   21.0395  -11.0160  -21.2093 C   0  0  0  0  0  0  0  0  0  0  0  0
   19.8858  -12.2825  -20.6091 S   0  0  0  0  0  0  0  0  0  0  0  0
   18.5013  -11.5289  -19.7146 C   0  0  0  0  0  0  0  0  0  0  0  0
   19.0385  -10.7281  -18.5434 C   0  0  0  0  0  0  0  0  0  0  0  0
   19.6222  -11.6305  -17.4803 C   0  0  2  0  0  0  0  0  0  0  0  0
   18.5866  -12.4879  -16.9896 N   0  0  0  0  0  0  0  0  0  0  0  0
   20.1834  -10.7465  -16.4245 C   0  0  0  0  0  0  0  0  0  0  0  0
   19.4227  -10.0207  -15.7345 O   0  0  0  0  0  0  0  0  0  0  0  0
   23.5493  -10.1304  -14.7566 C   0  0  0  0  0  0  0  0  0  0  0  0
   22.1389   -9.7996  -15.1388 C   0  0  2  0  0  0  0  0  0  0  0  0
   21.5752  -10.6651  -16.1334 N   0  0  0  0  0  0  0  0  0  0  0  0
   21.9424   -8.3608  -15.4638 C   0  0  0  0  0  0  0  0  0  0  0  0
   22.1087   -7.9730  -16.6481 O   0  0  0  0  0  0  0  0  0  0  0  0
   21.5736   -7.3946  -14.4984 N   0  0  0  0  0  0  0  0  0  0  0  0
   21.4913   -5.9688  -14.8095 C   0  0  1  0  0  0  0  0  0  0  0  0
   20.0519   -5.5728  -14.6840 C   0  0  0  0  0  0  0  0  0  0  0  0
   19.1913   -5.9400  -15.8582 C   0  0  0  0  0  0  0  0  0  0  0  0
   17.8063   -5.5244  -15.6353 C   0  0  0  0  0  0  0  0  0  0  0  0
   17.4251   -4.3589  -15.4772 O   0  0  0  0  0  0  0  0  0  0  0  0
   22.3467   -5.1910  -13.8473 C   0  0  0  0  0  0  0  0  0  0  0  0
   22.8128   -3.9278  -14.1693 O   0  0  0  0  0  0  0  0  0  0  0  0
   16.8343   -6.5369  -15.5988 O   0  0  0  0  0  0  0  0  0  0  0  0
   22.6653   -5.6592  -12.7253 O   0  0  0  0  0  0  0  0  0  0  0  0
  1  2  1  0
  3  2  1  0
  4  3  1  0
  5  4  1  0
  5  7  1  0
  5  6  1  1
  7  8  2  0
 10  9  1  6
 11  7  1  0
 11 10  1  0
 12 10  1  0
 12 14  1  0
 13 12  2  0
 15 20  1  0
 15 14  1  0
 15 16  1  1
 17 16  1  0
 17 18  1  0
 18 22  1  0
 19 18  2  0
 20 21  1  0
 23 20  2  0
M  END
$$$$
