MAE.pdb
     RDKit          3D

 23 22  0  0  1  0  0  0  0  0999 V2000
   21.0229  -18.2572  -15.1543 C   0  0  0  0  0  0  0  0  0  0  0  0
   21.2805  -16.5456  -15.7018 S   0  0  0  0  0  0  0  0  0  0  0  0
   23.0275  -16.2383  -16.0740 C   0  0  0  0  0  0  0  0  0  0  0  0
   23.2033  -14.7900  -16.4904 C   0  0  0  0  0  0  0  0  0  0  0  0
   24.6251  -14.5088  -16.9199 C   0  0  2  0  0  0  0  0  0  0  0  0
   25.4975  -14.7802  -15.8183 N   0  0  0  0  0  0  0  0  0  0  0  0
   24.6720  -13.0867  -17.3520 C   0  0  0  0  0  0  0  0  0  0  0  0
   24.5632  -12.1628  -16.5057 O   0  0  0  0  0  0  0  0  0  0  0  0
   25.3132  -11.1479  -20.5745 C   0  0  0  0  0  0  0  0  0  0  0  0
   24.9032  -11.3237  -19.1442 C   0  0  2  0  0  0  0  0  0  0  0  0
   24.8378  -12.6885  -18.7093 N   0  0  0  0  0  0  0  0  0  0  0  0
   23.6788  -10.5570  -18.7876 C   0  0  0  0  0  0  0  0  0  0  0  0
   22.5554  -11.1093  -18.9049 O   0  0  0  0  0  0  0  0  0  0  0  0
   23.7127   -9.2231  -18.3175 N   0  0  0  0  0  0  0  0  0  0  0  0
   22.5150   -8.5262  -17.8524 C   0  0  1  0  0  0  0  0  0  0  0  0
   22.4931   -8.6367  -16.3585 C   0  0  0  0  0  0  0  0  0  0  0  0
   21.3835   -7.8814  -15.6858 C   0  0  0  0  0  0  0  0  0  0  0  0
   21.4938   -7.9861  -14.2306 C   0  0  0  0  0  0  0  0  0  0  0  0
   20.7524   -7.4269  -13.4142 O   0  0  0  0  0  0  0  0  0  0  0  0
   22.5692   -7.0857  -18.2822 C   0  0  0  0  0  0  0  0  0  0  0  0
   21.4176   -6.3208  -18.3568 O   0  0  0  0  0  0  0  0  0  0  0  0
   22.5287   -8.7892  -13.7253 O   0  0  0  0  0  0  0  0  0  0  0  0
   23.6554   -6.5314  -18.5863 O   0  0  0  0  0  0  0  0  0  0  0  0
  1  2  1  0
  3  2  1  0
  4  3  1  0
  5  4  1  0
  5  7  1  0
  5  6  1  1
  7  8  2  0
 10  9  1  6
 11  7  1  0
 11 10  1  0
 12 10  1  0
 12 14  1  0
 13 12  2  0
 15 20  1  0
 15 14  1  0
 15 16  1  1
 17 16  1  0
 17 18  1  0
 18 22  1  0
 19 18  2  0
 20 21  1  0
 23 20  2  0
M  END
$$$$
