MAE.pdb
     RDKit          3D

 23 22  0  0  1  0  0  0  0  0999 V2000
   20.8400  -15.7172  -16.0680 C   0  0  0  0  0  0  0  0  0  0  0  0
   19.2631  -16.2957  -16.7564 S   0  0  0  0  0  0  0  0  0  0  0  0
   17.8810  -15.2953  -16.1449 C   0  0  0  0  0  0  0  0  0  0  0  0
   18.2839  -13.8326  -16.1436 C   0  0  0  0  0  0  0  0  0  0  0  0
   17.2190  -12.9683  -15.5079 C   0  0  2  0  0  0  0  0  0  0  0  0
   15.9406  -13.3812  -16.0010 N   0  0  0  0  0  0  0  0  0  0  0  0
   17.5412  -11.5594  -15.8579 C   0  0  0  0  0  0  0  0  0  0  0  0
   18.6503  -11.0631  -15.5340 O   0  0  0  0  0  0  0  0  0  0  0  0
   15.9914   -8.7838  -17.9611 C   0  0  0  0  0  0  0  0  0  0  0  0
   16.9734   -9.3804  -16.9996 C   0  0  2  0  0  0  0  0  0  0  0  0
   16.6441  -10.7053  -16.5608 N   0  0  0  0  0  0  0  0  0  0  0  0
   17.3068   -8.4756  -15.8662 C   0  0  0  0  0  0  0  0  0  0  0  0
   16.6459   -8.5616  -14.8001 O   0  0  0  0  0  0  0  0  0  0  0  0
   18.3411   -7.5122  -15.9259 N   0  0  0  0  0  0  0  0  0  0  0  0
   18.6208   -6.5946  -14.8231 C   0  0  1  0  0  0  0  0  0  0  0  0
   20.1017   -6.3685  -14.8029 C   0  0  0  0  0  0  0  0  0  0  0  0
   20.5795   -5.4089  -13.7516 C   0  0  0  0  0  0  0  0  0  0  0  0
   22.0323   -5.2487  -13.8185 C   0  0  0  0  0  0  0  0  0  0  0  0
   22.6238   -4.2463  -14.2357 O   0  0  0  0  0  0  0  0  0  0  0  0
   17.8844   -5.3013  -15.0421 C   0  0  0  0  0  0  0  0  0  0  0  0
   17.6326   -4.4379  -13.9896 O   0  0  0  0  0  0  0  0  0  0  0  0
   22.8142   -6.3255  -13.3708 O   0  0  0  0  0  0  0  0  0  0  0  0
   17.4753   -4.9633  -16.1815 O   0  0  0  0  0  0  0  0  0  0  0  0
  1  2  1  0
  3  2  1  0
  4  3  1  0
  5  4  1  0
  5  7  1  0
  5  6  1  6
  7  8  2  0
 10  9  1  1
 11  7  1  0
 11 10  1  0
 12 10  1  0
 12 14  1  0
 13 12  2  0
 15 20  1  0
 15 14  1  0
 15 16  1  6
 17 16  1  0
 17 18  1  0
 18 22  1  0
 19 18  2  0
 20 21  1  0
 23 20  2  0
M  END
$$$$
