MAE.pdb
     RDKit          3D

 23 22  0  0  1  0  0  0  0  0999 V2000
   29.5948  -18.6962   -6.0872 C   0  0  0  0  0  0  0  0  0  0  0  0
   27.7795  -18.6980   -6.0953 S   0  0  0  0  0  0  0  0  0  0  0  0
   27.1334  -20.3249   -6.5650 C   0  0  0  0  0  0  0  0  0  0  0  0
   27.2212  -20.4826   -8.0714 C   0  0  0  0  0  0  0  0  0  0  0  0
   25.9334  -20.0668   -8.7451 C   0  0  2  0  0  0  0  0  0  0  0  0
   24.9068  -20.9950   -8.3810 N   0  0  0  0  0  0  0  0  0  0  0  0
   26.1981  -20.0490  -10.2083 C   0  0  0  0  0  0  0  0  0  0  0  0
   26.7731  -19.0634  -10.7369 O   0  0  0  0  0  0  0  0  0  0  0  0
   26.5392  -21.9301  -13.2962 C   0  0  0  0  0  0  0  0  0  0  0  0
   25.6987  -20.9773  -12.5023 C   0  0  2  0  0  0  0  0  0  0  0  0
   25.8301  -21.1128  -11.0808 N   0  0  0  0  0  0  0  0  0  0  0  0
   24.2764  -20.9477  -12.9387 C   0  0  0  0  0  0  0  0  0  0  0  0
   23.4381  -21.6697  -12.3414 O   0  0  0  0  0  0  0  0  0  0  0  0
   23.8121  -20.1397  -14.0032 N   0  0  0  0  0  0  0  0  0  0  0  0
   22.4273  -20.1789  -14.4694 C   0  0  1  0  0  0  0  0  0  0  0  0
   22.0579  -18.7836  -14.8711 C   0  0  0  0  0  0  0  0  0  0  0  0
   20.6710  -18.6326  -15.4258 C   0  0  0  0  0  0  0  0  0  0  0  0
   20.4027  -17.2378  -15.7769 C   0  0  0  0  0  0  0  0  0  0  0  0
   21.1770  -16.2915  -15.5931 O   0  0  0  0  0  0  0  0  0  0  0  0
   22.3133  -21.1204  -15.6370 C   0  0  0  0  0  0  0  0  0  0  0  0
   21.1257  -21.7782  -15.9083 O   0  0  0  0  0  0  0  0  0  0  0  0
   19.1621  -16.9567  -16.3712 O   0  0  0  0  0  0  0  0  0  0  0  0
   23.2868  -21.3401  -16.4010 O   0  0  0  0  0  0  0  0  0  0  0  0
  1  2  1  0
  3  2  1  0
  4  3  1  0
  5  4  1  0
  5  7  1  0
  5  6  1  6
  7  8  2  0
 10  9  1  6
 11  7  1  0
 11 10  1  0
 12 10  1  0
 12 14  1  0
 13 12  2  0
 15 20  1  0
 15 14  1  0
 15 16  1  6
 17 16  1  0
 17 18  1  0
 18 22  1  0
 19 18  2  0
 20 21  1  0
 23 20  2  0
M  END
$$$$
