MAE.pdb
     RDKit          3D

 23 22  0  0  1  0  0  0  0  0999 V2000
   11.5938  -25.7692   -2.4758 C   0  0  0  0  0  0  0  0  0  0  0  0
   11.9240  -24.7917   -0.9823 S   0  0  0  0  0  0  0  0  0  0  0  0
   13.6026  -24.1086   -1.0106 C   0  0  0  0  0  0  0  0  0  0  0  0
   13.7628  -23.1268    0.1349 C   0  0  0  0  0  0  0  0  0  0  0  0
   13.6669  -21.6972   -0.3470 C   0  0  2  0  0  0  0  0  0  0  0  0
   14.4889  -21.5506   -1.5094 N   0  0  0  0  0  0  0  0  0  0  0  0
   14.1067  -20.8318    0.7794 C   0  0  0  0  0  0  0  0  0  0  0  0
   15.2276  -21.0145    1.3195 O   0  0  0  0  0  0  0  0  0  0  0  0
   12.8798  -17.7101    2.5851 C   0  0  0  0  0  0  0  0  0  0  0  0
   13.7034  -18.9497    2.4131 C   0  0  2  0  0  0  0  0  0  0  0  0
   13.3134  -19.7722    1.3052 N   0  0  0  0  0  0  0  0  0  0  0  0
   13.8566  -19.7301    3.6708 C   0  0  0  0  0  0  0  0  0  0  0  0
   13.0469  -20.6602    3.9159 O   0  0  0  0  0  0  0  0  0  0  0  0
   14.8779  -19.4776    4.6166 N   0  0  0  0  0  0  0  0  0  0  0  0
   14.9700  -20.2034    5.8820 C   0  0  1  0  0  0  0  0  0  0  0  0
   15.9898  -21.2851    5.6965 C   0  0  0  0  0  0  0  0  0  0  0  0
   16.2289  -22.1415    6.9063 C   0  0  0  0  0  0  0  0  0  0  0  0
   17.2466  -23.1557    6.6298 C   0  0  0  0  0  0  0  0  0  0  0  0
   17.6371  -24.0147    7.4287 O   0  0  0  0  0  0  0  0  0  0  0  0
   15.3838  -19.2592    6.9775 C   0  0  0  0  0  0  0  0  0  0  0  0
   15.2437  -19.6088    8.3097 O   0  0  0  0  0  0  0  0  0  0  0  0
   17.8238  -23.1480    5.3499 O   0  0  0  0  0  0  0  0  0  0  0  0
   15.8677  -18.1279    6.7215 O   0  0  0  0  0  0  0  0  0  0  0  0
  1  2  1  0
  3  2  1  0
  4  3  1  0
  5  4  1  0
  5  7  1  0
  5  6  1  6
  7  8  2  0
 10  9  1  1
 11  7  1  0
 11 10  1  0
 12 10  1  0
 12 14  1  0
 13 12  2  0
 15 20  1  0
 15 14  1  0
 15 16  1  6
 17 16  1  0
 17 18  1  0
 18 22  1  0
 19 18  2  0
 20 21  1  0
 23 20  2  0
M  END
$$$$
