MAE.pdb
     RDKit          3D

 23 22  0  0  1  0  0  0  0  0999 V2000
   29.1567  -14.9764  -15.8700 C   0  0  0  0  0  0  0  0  0  0  0  0
   28.1997  -13.4549  -16.1244 S   0  0  0  0  0  0  0  0  0  0  0  0
   29.1116  -12.2790  -17.1591 C   0  0  0  0  0  0  0  0  0  0  0  0
   28.3199  -10.9894  -17.2680 C   0  0  0  0  0  0  0  0  0  0  0  0
   28.9457  -10.0411  -18.2652 C   0  0  2  0  0  0  0  0  0  0  0  0
   30.2267   -9.6377  -17.7707 N   0  0  0  0  0  0  0  0  0  0  0  0
   28.0061   -8.8993  -18.4230 C   0  0  0  0  0  0  0  0  0  0  0  0
   27.8367   -8.0826  -17.4818 O   0  0  0  0  0  0  0  0  0  0  0  0
   26.0747   -7.2012  -21.2065 C   0  0  0  0  0  0  0  0  0  0  0  0
   26.3394   -7.5748  -19.7799 C   0  0  2  0  0  0  0  0  0  0  0  0
   27.2593   -8.6619  -19.6122 N   0  0  0  0  0  0  0  0  0  0  0  0
   25.0966   -7.7571  -18.9821 C   0  0  0  0  0  0  0  0  0  0  0  0
   24.5334   -8.8811  -18.9754 O   0  0  0  0  0  0  0  0  0  0  0  0
   24.5085   -6.7194  -18.2212 N   0  0  0  0  0  0  0  0  0  0  0  0
   23.2614   -6.9017  -17.4808 C   0  0  1  0  0  0  0  0  0  0  0  0
   23.1961   -5.8136  -16.4531 C   0  0  0  0  0  0  0  0  0  0  0  0
   21.9715   -5.8382  -15.5847 C   0  0  0  0  0  0  0  0  0  0  0  0
   21.9714   -4.7062  -14.6577 C   0  0  0  0  0  0  0  0  0  0  0  0
   22.9577   -4.2834  -14.0436 O   0  0  0  0  0  0  0  0  0  0  0  0
   22.0948   -6.8162  -18.4265 C   0  0  0  0  0  0  0  0  0  0  0  0
   20.9548   -7.5745  -18.2216 O   0  0  0  0  0  0  0  0  0  0  0  0
   20.7473   -4.0497  -14.4525 O   0  0  0  0  0  0  0  0  0  0  0  0
   22.1158   -6.0579  -19.4285 O   0  0  0  0  0  0  0  0  0  0  0  0
  1  2  1  0
  3  2  1  0
  4  3  1  0
  5  4  1  0
  5  7  1  0
  5  6  1  1
  7  8  2  0
 10  9  1  6
 11  7  1  0
 11 10  1  0
 12 10  1  0
 12 14  1  0
 13 12  2  0
 15 20  1  0
 15 14  1  0
 15 16  1  1
 17 16  1  0
 17 18  1  0
 18 22  1  0
 19 18  2  0
 20 21  1  0
 23 20  2  0
M  END
$$$$
