MAE.pdb
     RDKit          3D

 23 22  0  0  1  0  0  0  0  0999 V2000
   28.4417  -14.0727  -15.3635 C   0  0  0  0  0  0  0  0  0  0  0  0
   27.0891  -12.8651  -15.4490 S   0  0  0  0  0  0  0  0  0  0  0  0
   27.5739  -11.4138  -16.4204 C   0  0  0  0  0  0  0  0  0  0  0  0
   26.4275  -10.4204  -16.4425 C   0  0  0  0  0  0  0  0  0  0  0  0
   25.1427  -11.0716  -16.9012 C   0  0  2  0  0  0  0  0  0  0  0  0
   25.3077  -11.5043  -18.2554 N   0  0  0  0  0  0  0  0  0  0  0  0
   24.0666  -10.0564  -16.7504 C   0  0  0  0  0  0  0  0  0  0  0  0
   23.9964   -9.0839  -17.5446 O   0  0  0  0  0  0  0  0  0  0  0  0
   20.8705   -9.6275  -14.7403 C   0  0  0  0  0  0  0  0  0  0  0  0
   22.0209   -9.1562  -15.5765 C   0  0  2  0  0  0  0  0  0  0  0  0
   23.0756  -10.1155  -15.7293 N   0  0  0  0  0  0  0  0  0  0  0  0
   22.5284   -7.8169  -15.1726 C   0  0  0  0  0  0  0  0  0  0  0  0
   23.4730   -7.7445  -14.3462 O   0  0  0  0  0  0  0  0  0  0  0  0
   21.9975   -6.6061  -15.6761 N   0  0  0  0  0  0  0  0  0  0  0  0
   22.4993   -5.2980  -15.2593 C   0  0  1  0  0  0  0  0  0  0  0  0
   22.2001   -4.3372  -16.3692 C   0  0  0  0  0  0  0  0  0  0  0  0
   22.5475   -2.9062  -16.0762 C   0  0  0  0  0  0  0  0  0  0  0  0
   22.0891   -2.0307  -17.1551 C   0  0  0  0  0  0  0  0  0  0  0  0
   21.5046   -0.9520  -17.0025 O   0  0  0  0  0  0  0  0  0  0  0  0
   21.8163   -4.8763  -13.9871 C   0  0  0  0  0  0  0  0  0  0  0  0
   22.4949   -4.1553  -13.0196 O   0  0  0  0  0  0  0  0  0  0  0  0
   22.3363   -2.4558  -18.4703 O   0  0  0  0  0  0  0  0  0  0  0  0
   20.6136   -5.1630  -13.7612 O   0  0  0  0  0  0  0  0  0  0  0  0
  1  2  1  0
  3  2  1  0
  4  3  1  0
  5  4  1  0
  5  7  1  0
  5  6  1  6
  7  8  2  0
 10  9  1  1
 11  7  1  0
 11 10  1  0
 12 10  1  0
 12 14  1  0
 13 12  2  0
 15 20  1  0
 15 14  1  0
 15 16  1  6
 17 16  1  0
 17 18  1  0
 18 22  1  0
 19 18  2  0
 20 21  1  0
 23 20  2  0
M  END
$$$$
