MAE.pdb
     RDKit          3D

 23 22  0  0  1  0  0  0  0  0999 V2000
   25.7082  -15.3952  -14.3316 C   0  0  0  0  0  0  0  0  0  0  0  0
   27.1757  -15.3678  -15.3997 S   0  0  0  0  0  0  0  0  0  0  0  0
   27.8525  -17.0351  -15.6170 C   0  0  0  0  0  0  0  0  0  0  0  0
   26.8444  -18.0535  -15.1187 C   0  0  0  0  0  0  0  0  0  0  0  0
   27.4451  -19.4393  -15.0576 C   0  0  2  0  0  0  0  0  0  0  0  0
   27.7148  -19.8797  -16.3923 N   0  0  0  0  0  0  0  0  0  0  0  0
   26.4612  -20.3055  -14.3555 C   0  0  0  0  0  0  0  0  0  0  0  0
   25.5137  -20.8337  -14.9917 O   0  0  0  0  0  0  0  0  0  0  0  0
   25.7733  -21.4232  -10.7666 C   0  0  0  0  0  0  0  0  0  0  0  0
   25.4726  -21.2202  -12.2202 C   0  0  2  0  0  0  0  0  0  0  0  0
   26.5240  -20.5857  -12.9606 N   0  0  0  0  0  0  0  0  0  0  0  0
   24.1484  -20.5855  -12.4611 C   0  0  0  0  0  0  0  0  0  0  0  0
   23.9868  -19.3751  -12.1622 O   0  0  0  0  0  0  0  0  0  0  0  0
   23.0484  -21.2811  -13.0158 N   0  0  0  0  0  0  0  0  0  0  0  0
   21.7486  -20.6474  -13.2295 C   0  0  1  0  0  0  0  0  0  0  0  0
   21.6632  -20.2967  -14.6836 C   0  0  0  0  0  0  0  0  0  0  0  0
   20.3548  -19.6985  -15.1129 C   0  0  0  0  0  0  0  0  0  0  0  0
   20.3303  -19.4917  -16.5611 C   0  0  0  0  0  0  0  0  0  0  0  0
   20.8141  -20.2582  -17.4022 O   0  0  0  0  0  0  0  0  0  0  0  0
   20.6514  -21.6011  -12.8432 C   0  0  0  0  0  0  0  0  0  0  0  0
   19.4164  -21.1348  -12.4261 O   0  0  0  0  0  0  0  0  0  0  0  0
   19.7046  -18.3250  -17.0286 O   0  0  0  0  0  0  0  0  0  0  0  0
   20.8182  -22.8461  -12.8857 O   0  0  0  0  0  0  0  0  0  0  0  0
  1  2  1  0
  3  2  1  0
  4  3  1  0
  5  4  1  0
  5  7  1  0
  5  6  1  6
  7  8  2  0
 10  9  1  1
 11  7  1  0
 11 10  1  0
 12 10  1  0
 12 14  1  0
 13 12  2  0
 15 20  1  0
 15 14  1  0
 15 16  1  6
 17 16  1  0
 17 18  1  0
 18 22  1  0
 19 18  2  0
 20 21  1  0
 23 20  2  0
M  END
$$$$
