QCT.pdb
     RDKit          3D

 23 22  0  0  1  0  0  0  0  0999 V2000
   16.8856  -14.6933  -16.4186 N   0  0  0  0  0  0  0  0  0  0  0  0
   17.6597  -14.6035  -17.6011 C   0  0  0  0  0  0  0  0  0  0  0  0
   17.4426  -15.4428  -18.5111 O   0  0  0  0  0  0  0  0  0  0  0  0
   18.7021  -13.5792  -17.8163 C   0  0  0  0  0  0  0  0  0  0  0  0
   18.8162  -12.6312  -16.6447 C   0  0  0  0  0  0  0  0  0  0  0  0
   19.9601  -11.6827  -16.9282 C   0  0  2  0  0  0  0  0  0  0  0  0
   21.1285  -12.5068  -17.1941 N   0  0  0  0  0  0  0  0  0  0  0  0
   20.2529  -10.8114  -15.7604 C   0  0  0  0  0  0  0  0  0  0  0  0
   19.5922  -10.9530  -14.6871 O   0  0  0  0  0  0  0  0  0  0  0  0
   21.2575   -9.8178  -15.8104 N   0  0  0  0  0  0  0  0  0  0  0  0
   21.6002   -9.0080  -14.6317 C   0  0  1  0  0  0  0  0  0  0  0  0
   22.8098   -9.6372  -13.9359 C   0  0  0  0  0  0  0  0  0  0  0  0
   24.0189  -10.1731  -15.1801 S   0  0  0  0  0  0  0  0  0  0  0  0
   22.0117   -7.6639  -15.1038 C   0  0  0  0  0  0  0  0  0  0  0  0
   22.7794   -7.5250  -16.0725 O   0  0  0  0  0  0  0  0  0  0  0  0
   19.9185   -5.2081  -16.4987 C   0  0  0  0  0  0  0  0  0  0  0  0
   20.5225   -4.5179  -15.3027 C   0  0  1  0  0  0  0  0  0  0  0  0
   19.6544   -4.6004  -14.2144 O   0  0  0  0  0  0  0  0  0  0  0  0
   21.8244   -5.1620  -14.8987 C   0  0  2  0  0  0  0  0  0  0  0  0
   21.5321   -6.5030  -14.4520 N   0  0  0  0  0  0  0  0  0  0  0  0
   22.4689   -4.4037  -13.7964 C   0  0  0  0  0  0  0  0  0  0  0  0
   22.9952   -3.1404  -14.0188 O   0  0  0  0  0  0  0  0  0  0  0  0
   22.5468   -4.8893  -12.6575 O   0  0  0  0  0  0  0  0  0  0  0  0
  1  2  1  0
  2  3  2  0
  4  2  1  0
  4  5  1  0
  5  6  1  0
  6  8  1  0
  6  7  1  1
  8 10  1  0
  8  9  2  0
 10 11  1  0
 11 14  1  0
 11 12  1  6
 13 12  1  0
 14 20  1  0
 14 15  2  0
 17 16  1  6
 17 19  1  0
 17 18  1  0
 19 21  1  0
 19 20  1  1
 21 22  1  0
 23 21  2  0
M  END
$$$$
