QCT.pdb
     RDKit          3D

 23 22  0  0  1  0  0  0  0  0999 V2000
   18.8342  -22.8070  -13.4240 N   0  0  0  0  0  0  0  0  0  0  0  0
   19.6117  -23.0360  -14.5853 C   0  0  0  0  0  0  0  0  0  0  0  0
   19.5982  -24.1897  -15.0838 O   0  0  0  0  0  0  0  0  0  0  0  0
   20.4319  -21.9933  -15.2351 C   0  0  0  0  0  0  0  0  0  0  0  0
   20.3954  -20.6874  -14.4749 C   0  0  0  0  0  0  0  0  0  0  0  0
   21.6542  -20.6041  -13.6400 C   0  0  2  0  0  0  0  0  0  0  0  0
   21.2306  -20.3528  -12.2717 N   0  0  0  0  0  0  0  0  0  0  0  0
   22.5292  -19.4849  -14.0764 C   0  0  0  0  0  0  0  0  0  0  0  0
   22.0773  -18.2999  -14.0894 O   0  0  0  0  0  0  0  0  0  0  0  0
   23.8658  -19.7039  -14.4821 N   0  0  0  0  0  0  0  0  0  0  0  0
   24.7331  -18.5958  -14.9091 C   0  0  1  0  0  0  0  0  0  0  0  0
   26.1459  -18.8407  -14.3732 C   0  0  0  0  0  0  0  0  0  0  0  0
   27.2472  -17.5062  -14.9238 S   0  0  0  0  0  0  0  0  0  0  0  0
   24.8116  -18.6204  -16.3896 C   0  0  0  0  0  0  0  0  0  0  0  0
   25.0983  -19.6623  -17.0054 O   0  0  0  0  0  0  0  0  0  0  0  0
   22.1433  -17.5920  -18.8282 C   0  0  0  0  0  0  0  0  0  0  0  0
   23.3501  -16.7189  -19.0580 C   0  0  1  0  0  0  0  0  0  0  0  0
   23.2143  -15.5215  -18.3560 O   0  0  0  0  0  0  0  0  0  0  0  0
   24.6112  -17.3903  -18.5767 C   0  0  2  0  0  0  0  0  0  0  0  0
   24.5585  -17.4447  -17.1354 N   0  0  0  0  0  0  0  0  0  0  0  0
   25.8114  -16.6241  -18.9985 C   0  0  0  0  0  0  0  0  0  0  0  0
   26.2101  -16.6066  -20.3264 O   0  0  0  0  0  0  0  0  0  0  0  0
   26.4772  -15.9866  -18.1684 O   0  0  0  0  0  0  0  0  0  0  0  0
  1  2  1  0
  2  3  2  0
  4  2  1  0
  4  5  1  0
  5  6  1  0
  6  8  1  0
  6  7  1  1
  8 10  1  0
  8  9  2  0
 10 11  1  0
 11 14  1  0
 11 12  1  1
 13 12  1  0
 14 20  1  0
 14 15  2  0
 17 16  1  1
 17 19  1  0
 17 18  1  0
 19 21  1  0
 19 20  1  1
 21 22  1  0
 23 21  2  0
M  END
$$$$
