QCT.pdb
     RDKit          3D

 23 22  0  0  1  0  0  0  0  0999 V2000
   26.8025  -16.8638  -14.6541 N   0  0  0  0  0  0  0  0  0  0  0  0
   27.8462  -17.2789  -15.5166 C   0  0  0  0  0  0  0  0  0  0  0  0
   28.7040  -16.4249  -15.8549 O   0  0  0  0  0  0  0  0  0  0  0  0
   27.9756  -18.6564  -16.0344 C   0  0  0  0  0  0  0  0  0  0  0  0
   26.9380  -19.5838  -15.4448 C   0  0  0  0  0  0  0  0  0  0  0  0
   27.6090  -20.3968  -14.3597 C   0  0  2  0  0  0  0  0  0  0  0  0
   28.5515  -21.2821  -15.0250 N   0  0  0  0  0  0  0  0  0  0  0  0
   26.6297  -21.2267  -13.6108 C   0  0  0  0  0  0  0  0  0  0  0  0
   26.0952  -22.2308  -14.1719 O   0  0  0  0  0  0  0  0  0  0  0  0
   26.2717  -20.9273  -12.2762 N   0  0  0  0  0  0  0  0  0  0  0  0
   25.0442  -21.4628  -11.6687 C   0  0  1  0  0  0  0  0  0  0  0  0
   25.0386  -21.1131  -10.1784 C   0  0  0  0  0  0  0  0  0  0  0  0
   26.3841  -19.9478   -9.8200 S   0  0  0  0  0  0  0  0  0  0  0  0
   23.8879  -20.7723  -12.2890 C   0  0  0  0  0  0  0  0  0  0  0  0
   23.8854  -19.5405  -12.4608 O   0  0  0  0  0  0  0  0  0  0  0  0
   22.7312  -21.2728  -15.6094 C   0  0  0  0  0  0  0  0  0  0  0  0
   21.5374  -21.5984  -14.7489 C   0  0  1  0  0  0  0  0  0  0  0  0
   21.4645  -22.9743  -14.5336 O   0  0  0  0  0  0  0  0  0  0  0  0
   21.6351  -20.9295  -13.4014 C   0  0  2  0  0  0  0  0  0  0  0  0
   22.7542  -21.5126  -12.7006 N   0  0  0  0  0  0  0  0  0  0  0  0
   20.3939  -21.1432  -12.6145 C   0  0  0  0  0  0  0  0  0  0  0  0
   20.3960  -21.9644  -11.4974 O   0  0  0  0  0  0  0  0  0  0  0  0
   19.3340  -20.5897  -12.9447 O   0  0  0  0  0  0  0  0  0  0  0  0
  1  2  1  0
  2  3  2  0
  4  2  1  0
  4  5  1  0
  5  6  1  0
  6  8  1  0
  6  7  1  6
  8 10  1  0
  8  9  2  0
 10 11  1  0
 11 14  1  0
 11 12  1  1
 13 12  1  0
 14 20  1  0
 14 15  2  0
 17 16  1  6
 17 19  1  0
 17 18  1  0
 19 21  1  0
 19 20  1  1
 21 22  1  0
 23 21  2  0
M  END
$$$$
