QCT.pdb
     RDKit          3D

 23 22  0  0  1  0  0  0  0  0999 V2000
   19.5948  -16.1670  -15.4213 N   0  0  0  0  0  0  0  0  0  0  0  0
   18.3025  -15.9985  -14.8670 C   0  0  0  0  0  0  0  0  0  0  0  0
   17.8326  -16.9368  -14.1753 O   0  0  0  0  0  0  0  0  0  0  0  0
   17.4855  -14.7831  -15.0602 C   0  0  0  0  0  0  0  0  0  0  0  0
   18.2150  -13.7310  -15.8635 C   0  0  0  0  0  0  0  0  0  0  0  0
   17.3155  -12.5187  -15.9611 C   0  0  2  0  0  0  0  0  0  0  0  0
   16.1937  -12.8991  -16.8046 N   0  0  0  0  0  0  0  0  0  0  0  0
   18.0121  -11.3678  -16.5927 C   0  0  0  0  0  0  0  0  0  0  0  0
   18.2905  -11.4014  -17.8296 O   0  0  0  0  0  0  0  0  0  0  0  0
   18.3779  -10.2232  -15.8477 N   0  0  0  0  0  0  0  0  0  0  0  0
   18.9856   -9.0477  -16.4891 C   0  0  1  0  0  0  0  0  0  0  0  0
   18.0162   -8.5040  -17.5416 C   0  0  0  0  0  0  0  0  0  0  0  0
   18.6140   -8.9335  -19.2014 S   0  0  0  0  0  0  0  0  0  0  0  0
   19.1509   -7.9970  -15.4559 C   0  0  0  0  0  0  0  0  0  0  0  0
   18.2682   -7.7789  -14.6073 O   0  0  0  0  0  0  0  0  0  0  0  0
   22.3835   -4.8532  -13.3825 C   0  0  0  0  0  0  0  0  0  0  0  0
   22.0399   -5.8770  -14.4338 C   0  0  1  0  0  0  0  0  0  0  0  0
   22.7064   -7.0736  -14.1715 O   0  0  0  0  0  0  0  0  0  0  0  0
   20.5613   -6.1712  -14.4488 C   0  0  2  0  0  0  0  0  0  0  0  0
   20.3301   -7.2155  -15.4179 N   0  0  0  0  0  0  0  0  0  0  0  0
   19.7863   -4.9631  -14.8301 C   0  0  0  0  0  0  0  0  0  0  0  0
   19.1789   -4.1768  -13.8631 O   0  0  0  0  0  0  0  0  0  0  0  0
   19.6700   -4.6379  -16.0216 O   0  0  0  0  0  0  0  0  0  0  0  0
  1  2  1  0
  2  3  2  0
  4  2  1  0
  4  5  1  0
  5  6  1  0
  6  8  1  0
  6  7  1  6
  8 10  1  0
  8  9  2  0
 10 11  1  0
 11 14  1  0
 11 12  1  6
 13 12  1  0
 14 20  1  0
 14 15  2  0
 17 16  1  1
 17 19  1  0
 17 18  1  0
 19 21  1  0
 19 20  1  6
 21 22  1  0
 23 21  2  0
M  END
$$$$
