QCT.pdb
     RDKit          3D

 23 22  0  0  1  0  0  0  0  0999 V2000
   17.1060  -15.0050  -15.3428 N   0  0  0  0  0  0  0  0  0  0  0  0
   17.5251  -14.8937  -16.6910 C   0  0  0  0  0  0  0  0  0  0  0  0
   17.2725  -15.8503  -17.4660 O   0  0  0  0  0  0  0  0  0  0  0  0
   18.2393  -13.7172  -17.2274 C   0  0  0  0  0  0  0  0  0  0  0  0
   18.3084  -12.5893  -16.2237 C   0  0  0  0  0  0  0  0  0  0  0  0
   19.1494  -11.4858  -16.8265 C   0  0  2  0  0  0  0  0  0  0  0  0
   20.1934  -12.1348  -17.6035 N   0  0  0  0  0  0  0  0  0  0  0  0
   19.7914  -10.6501  -15.7786 C   0  0  0  0  0  0  0  0  0  0  0  0
   19.0955  -10.1974  -14.8196 O   0  0  0  0  0  0  0  0  0  0  0  0
   21.1704  -10.3408  -15.8188 N   0  0  0  0  0  0  0  0  0  0  0  0
   21.8174   -9.5628  -14.7517 C   0  0  1  0  0  0  0  0  0  0  0  0
   23.1716  -10.1994  -14.4291 C   0  0  0  0  0  0  0  0  0  0  0  0
   24.0931  -10.4855  -15.9672 S   0  0  0  0  0  0  0  0  0  0  0  0
   22.0827   -8.2009  -15.2748 C   0  0  0  0  0  0  0  0  0  0  0  0
   22.7533   -8.0233  -16.3071 O   0  0  0  0  0  0  0  0  0  0  0  0
   20.0996   -5.9390  -16.8283 C   0  0  0  0  0  0  0  0  0  0  0  0
   20.5156   -5.1762  -15.5968 C   0  0  1  0  0  0  0  0  0  0  0  0
   19.5400   -5.2969  -14.6076 O   0  0  0  0  0  0  0  0  0  0  0  0
   21.8074   -5.7105  -15.0322 C   0  0  2  0  0  0  0  0  0  0  0  0
   21.5710   -7.0672  -14.6000 N   0  0  0  0  0  0  0  0  0  0  0  0
   22.2555   -4.8944  -13.8753 C   0  0  0  0  0  0  0  0  0  0  0  0
   22.2041   -5.4039  -12.5868 O   0  0  0  0  0  0  0  0  0  0  0  0
   22.6836   -3.7423  -14.0435 O   0  0  0  0  0  0  0  0  0  0  0  0
  1  2  1  0
  2  3  2  0
  4  2  1  0
  4  5  1  0
  5  6  1  0
  6  8  1  0
  6  7  1  6
  8 10  1  0
  8  9  2  0
 10 11  1  0
 11 14  1  0
 11 12  1  6
 13 12  1  0
 14 20  1  0
 14 15  2  0
 17 16  1  6
 17 19  1  0
 17 18  1  0
 19 21  1  0
 19 20  1  1
 21 22  1  0
 23 21  2  0
M  END
$$$$
