QCT.pdb
     RDKit          3D

 23 22  0  0  1  0  0  0  0  0999 V2000
   21.8786  -17.4072  -14.1585 N   0  0  0  0  0  0  0  0  0  0  0  0
   20.5899  -17.9301  -14.4257 C   0  0  0  0  0  0  0  0  0  0  0  0
   20.2424  -18.9753  -13.8203 O   0  0  0  0  0  0  0  0  0  0  0  0
   19.6407  -17.3122  -15.3740 C   0  0  0  0  0  0  0  0  0  0  0  0
   20.1562  -15.9999  -15.9185 C   0  0  0  0  0  0  0  0  0  0  0  0
   19.0577  -15.3846  -16.7570 C   0  0  2  0  0  0  0  0  0  0  0  0
   18.9311  -16.2094  -17.9480 N   0  0  0  0  0  0  0  0  0  0  0  0
   19.3972  -13.9996  -17.1757 C   0  0  0  0  0  0  0  0  0  0  0  0
   20.1375  -13.8110  -18.1882 O   0  0  0  0  0  0  0  0  0  0  0  0
   18.9142  -12.8729  -16.4714 N   0  0  0  0  0  0  0  0  0  0  0  0
   19.2105  -11.5021  -16.9136 C   0  0  1  0  0  0  0  0  0  0  0  0
   17.9443  -10.8966  -17.5247 C   0  0  0  0  0  0  0  0  0  0  0  0
   18.2182   -9.1363  -17.8761 S   0  0  0  0  0  0  0  0  0  0  0  0
   19.5508  -10.6980  -15.7151 C   0  0  0  0  0  0  0  0  0  0  0  0
   18.8757  -10.7717  -14.6731 O   0  0  0  0  0  0  0  0  0  0  0  0
   22.9056  -10.4429  -13.9347 C   0  0  0  0  0  0  0  0  0  0  0  0
   22.5162   -9.0764  -14.4372 C   0  0  1  0  0  0  0  0  0  0  0  0
   23.1219   -8.8297  -15.6689 O   0  0  0  0  0  0  0  0  0  0  0  0
   21.0251   -8.9691  -14.6316 C   0  0  2  0  0  0  0  0  0  0  0  0
   20.6627   -9.8230  -15.7374 N   0  0  0  0  0  0  0  0  0  0  0  0
   20.6319   -7.5702  -14.9382 C   0  0  0  0  0  0  0  0  0  0  0  0
   20.7277   -6.5797  -13.9728 O   0  0  0  0  0  0  0  0  0  0  0  0
   20.2109   -7.2653  -16.0646 O   0  0  0  0  0  0  0  0  0  0  0  0
  1  2  1  0
  2  3  2  0
  4  2  1  0
  4  5  1  0
  5  6  1  0
  6  8  1  0
  6  7  1  6
  8 10  1  0
  8  9  2  0
 10 11  1  0
 11 14  1  0
 11 12  1  1
 13 12  1  0
 14 20  1  0
 14 15  2  0
 17 16  1  6
 17 19  1  0
 17 18  1  0
 19 21  1  0
 19 20  1  6
 21 22  1  0
 23 21  2  0
M  END
$$$$
