QCT.pdb
     RDKit          3D

 23 22  0  0  1  0  0  0  0  0999 V2000
   15.7277  -11.3175  -18.4583 N   0  0  0  0  0  0  0  0  0  0  0  0
   16.7480  -11.3525  -19.4397 C   0  0  0  0  0  0  0  0  0  0  0  0
   16.4015  -11.4189  -20.6460 O   0  0  0  0  0  0  0  0  0  0  0  0
   18.1893  -11.3150  -19.1179 C   0  0  0  0  0  0  0  0  0  0  0  0
   18.4357  -11.2036  -17.6308 C   0  0  0  0  0  0  0  0  0  0  0  0
   19.9321  -11.2058  -17.4095 C   0  0  2  0  0  0  0  0  0  0  0  0
   20.3353  -12.5989  -17.3026 N   0  0  0  0  0  0  0  0  0  0  0  0
   20.3017  -10.5094  -16.1497 C   0  0  0  0  0  0  0  0  0  0  0  0
   19.9858  -11.0189  -15.0320 O   0  0  0  0  0  0  0  0  0  0  0  0
   21.0030   -9.2818  -16.1597 N   0  0  0  0  0  0  0  0  0  0  0  0
   21.3854   -8.6023  -14.9129 C   0  0  1  0  0  0  0  0  0  0  0  0
   22.5329   -9.3775  -14.2607 C   0  0  0  0  0  0  0  0  0  0  0  0
   23.7254   -9.8865  -15.5320 S   0  0  0  0  0  0  0  0  0  0  0  0
   21.9037   -7.2583  -15.2646 C   0  0  0  0  0  0  0  0  0  0  0  0
   22.7707   -7.1085  -16.1438 O   0  0  0  0  0  0  0  0  0  0  0  0
   20.1924   -4.5668  -16.7387 C   0  0  0  0  0  0  0  0  0  0  0  0
   20.6683   -4.0023  -15.4248 C   0  0  1  0  0  0  0  0  0  0  0  0
   19.6531   -4.0870  -14.4724 O   0  0  0  0  0  0  0  0  0  0  0  0
   21.8548   -4.7684  -14.8974 C   0  0  2  0  0  0  0  0  0  0  0  0
   21.4147   -6.1099  -14.5978 N   0  0  0  0  0  0  0  0  0  0  0  0
   22.3858   -4.1356  -13.6633 C   0  0  0  0  0  0  0  0  0  0  0  0
   23.0167   -2.9020  -13.7150 O   0  0  0  0  0  0  0  0  0  0  0  0
   22.2732   -4.7013  -12.5651 O   0  0  0  0  0  0  0  0  0  0  0  0
  1  2  1  0
  2  3  2  0
  4  2  1  0
  4  5  1  0
  5  6  1  0
  6  8  1  0
  6  7  1  1
  8 10  1  0
  8  9  2  0
 10 11  1  0
 11 14  1  0
 11 12  1  6
 13 12  1  0
 14 20  1  0
 14 15  2  0
 17 16  1  6
 17 19  1  0
 17 18  1  0
 19 21  1  0
 19 20  1  1
 21 22  1  0
 23 21  2  0
M  END
$$$$
