QCT.pdb
     RDKit          3D

 23 22  0  0  1  0  0  0  0  0999 V2000
   19.2507   -8.1877  -19.4715 N   0  0  0  0  0  0  0  0  0  0  0  0
   18.3225   -9.2544  -19.5499 C   0  0  0  0  0  0  0  0  0  0  0  0
   18.2656   -9.9065  -20.6227 O   0  0  0  0  0  0  0  0  0  0  0  0
   17.4244   -9.6357  -18.4407 C   0  0  0  0  0  0  0  0  0  0  0  0
   17.4919   -8.6543  -17.2932 C   0  0  0  0  0  0  0  0  0  0  0  0
   18.7420   -8.9593  -16.4980 C   0  0  2  0  0  0  0  0  0  0  0  0
   18.4896  -10.2015  -15.7852 N   0  0  0  0  0  0  0  0  0  0  0  0
   19.0328   -7.8946  -15.5027 C   0  0  0  0  0  0  0  0  0  0  0  0
   18.1235   -7.5116  -14.7058 O   0  0  0  0  0  0  0  0  0  0  0  0
   20.3074   -7.2888  -15.4164 N   0  0  0  0  0  0  0  0  0  0  0  0
   20.6067   -6.2633  -14.4058 C   0  0  1  0  0  0  0  0  0  0  0  0
   21.8856   -6.6602  -13.6642 C   0  0  0  0  0  0  0  0  0  0  0  0
   21.4752   -7.7844  -12.2987 S   0  0  0  0  0  0  0  0  0  0  0  0
   20.8834   -4.9902  -15.1138 C   0  0  0  0  0  0  0  0  0  0  0  0
   21.6838   -4.9388  -16.0644 O   0  0  0  0  0  0  0  0  0  0  0  0
   18.0907   -1.9754  -14.5020 C   0  0  0  0  0  0  0  0  0  0  0  0
   18.9055   -2.1178  -15.7618 C   0  0  1  0  0  0  0  0  0  0  0  0
   18.9833   -0.8917  -16.4218 O   0  0  0  0  0  0  0  0  0  0  0  0
   20.3133   -2.5623  -15.4560 C   0  0  2  0  0  0  0  0  0  0  0  0
   20.2334   -3.7982  -14.7148 N   0  0  0  0  0  0  0  0  0  0  0  0
   21.0238   -1.5433  -14.6422 C   0  0  0  0  0  0  0  0  0  0  0  0
   21.5053   -0.3811  -15.2253 O   0  0  0  0  0  0  0  0  0  0  0  0
   21.1979   -1.7159  -13.4262 O   0  0  0  0  0  0  0  0  0  0  0  0
  1  2  1  0
  2  3  2  0
  4  2  1  0
  4  5  1  0
  5  6  1  0
  6  8  1  0
  6  7  1  1
  8 10  1  0
  8  9  2  0
 10 11  1  0
 11 14  1  0
 11 12  1  6
 13 12  1  0
 14 20  1  0
 14 15  2  0
 17 16  1  1
 17 19  1  0
 17 18  1  0
 19 21  1  0
 19 20  1  1
 21 22  1  0
 23 21  2  0
M  END
$$$$
