QCT.pdb
     RDKit          3D

 23 22  0  0  1  0  0  0  0  0999 V2000
   27.9400  -26.5330  -16.0241 N   0  0  0  0  0  0  0  0  0  0  0  0
   28.6991  -26.4415  -17.2162 C   0  0  0  0  0  0  0  0  0  0  0  0
   28.6977  -27.4308  -17.9914 O   0  0  0  0  0  0  0  0  0  0  0  0
   29.4867  -25.2492  -17.5907 C   0  0  0  0  0  0  0  0  0  0  0  0
   29.3810  -24.1518  -16.5568 C   0  0  0  0  0  0  0  0  0  0  0  0
   28.7483  -22.9498  -17.2226 C   0  0  2  0  0  0  0  0  0  0  0  0
   29.8222  -22.2278  -17.8860 N   0  0  0  0  0  0  0  0  0  0  0  0
   28.1130  -22.0438  -16.2304 C   0  0  0  0  0  0  0  0  0  0  0  0
   28.8118  -21.5387  -15.3003 O   0  0  0  0  0  0  0  0  0  0  0  0
   26.7371  -21.7244  -16.2928 N   0  0  0  0  0  0  0  0  0  0  0  0
   26.1099  -20.8226  -15.3151 C   0  0  1  0  0  0  0  0  0  0  0  0
   26.6549  -19.4082  -15.5285 C   0  0  0  0  0  0  0  0  0  0  0  0
   27.6387  -19.3570  -17.0537 S   0  0  0  0  0  0  0  0  0  0  0  0
   24.6547  -20.7828  -15.5970 C   0  0  0  0  0  0  0  0  0  0  0  0
   24.2229  -20.5488  -16.7397 O   0  0  0  0  0  0  0  0  0  0  0  0
   22.3241  -23.4911  -14.4479 C   0  0  0  0  0  0  0  0  0  0  0  0
   21.7267  -22.1863  -13.9873 C   0  0  1  0  0  0  0  0  0  0  0  0
   22.0144  -21.9787  -12.6386 O   0  0  0  0  0  0  0  0  0  0  0  0
   22.2928  -21.0220  -14.7598 C   0  0  2  0  0  0  0  0  0  0  0  0
   23.7219  -21.0131  -14.5581 N   0  0  0  0  0  0  0  0  0  0  0  0
   21.7180  -19.7398  -14.2792 C   0  0  0  0  0  0  0  0  0  0  0  0
   20.3780  -19.4453  -14.4787 O   0  0  0  0  0  0  0  0  0  0  0  0
   22.4288  -18.9107  -13.6906 O   0  0  0  0  0  0  0  0  0  0  0  0
  1  2  1  0
  2  3  2  0
  4  2  1  0
  4  5  1  0
  5  6  1  0
  6  8  1  0
  6  7  1  1
  8 10  1  0
  8  9  2  0
 10 11  1  0
 11 14  1  0
 11 12  1  6
 13 12  1  0
 14 20  1  0
 14 15  2  0
 17 16  1  6
 17 19  1  0
 17 18  1  0
 19 21  1  0
 19 20  1  1
 21 22  1  0
 23 21  2  0
M  END
$$$$
