QCT.pdb
     RDKit          3D

 23 22  0  0  1  0  0  0  0  0999 V2000
   19.1218  -12.9981  -17.0382 N   0  0  0  0  0  0  0  0  0  0  0  0
   17.7637  -12.6039  -17.1159 C   0  0  0  0  0  0  0  0  0  0  0  0
   16.9972  -13.2774  -17.8498 O   0  0  0  0  0  0  0  0  0  0  0  0
   17.2077  -11.4486  -16.3823 C   0  0  0  0  0  0  0  0  0  0  0  0
   18.2523  -10.7580  -15.5361 C   0  0  0  0  0  0  0  0  0  0  0  0
   18.6911   -9.5108  -16.2712 C   0  0  2  0  0  0  0  0  0  0  0  0
   19.8713   -9.8735  -17.0395 N   0  0  0  0  0  0  0  0  0  0  0  0
   19.0569   -8.4195  -15.3310 C   0  0  0  0  0  0  0  0  0  0  0  0
   18.1825   -7.9472  -14.5429 O   0  0  0  0  0  0  0  0  0  0  0  0
   20.3654   -7.8857  -15.2881 N   0  0  0  0  0  0  0  0  0  0  0  0
   20.7557   -6.8810  -14.2877 C   0  0  1  0  0  0  0  0  0  0  0  0
   22.0323   -7.3527  -13.5871 C   0  0  0  0  0  0  0  0  0  0  0  0
   21.6029   -8.4836  -12.2330 S   0  0  0  0  0  0  0  0  0  0  0  0
   21.0832   -5.6249  -15.0043 C   0  0  0  0  0  0  0  0  0  0  0  0
   21.8467   -5.6200  -15.9862 O   0  0  0  0  0  0  0  0  0  0  0  0
   18.6809   -3.3374  -16.6322 C   0  0  0  0  0  0  0  0  0  0  0  0
   19.3995   -2.5445  -15.5710 C   0  0  1  0  0  0  0  0  0  0  0  0
   18.6555   -2.5406  -14.3914 O   0  0  0  0  0  0  0  0  0  0  0  0
   20.7476   -3.1431  -15.2591 C   0  0  2  0  0  0  0  0  0  0  0  0
   20.5258   -4.3961  -14.5778 N   0  0  0  0  0  0  0  0  0  0  0  0
   21.5375   -2.2388  -14.3853 C   0  0  0  0  0  0  0  0  0  0  0  0
   22.0181   -1.0305  -14.8664 O   0  0  0  0  0  0  0  0  0  0  0  0
   21.7802   -2.5505  -13.2093 O   0  0  0  0  0  0  0  0  0  0  0  0
  1  2  1  0
  2  3  2  0
  4  2  1  0
  4  5  1  0
  5  6  1  0
  6  8  1  0
  6  7  1  1
  8 10  1  0
  8  9  2  0
 10 11  1  0
 11 14  1  0
 11 12  1  6
 13 12  1  0
 14 20  1  0
 14 15  2  0
 17 16  1  6
 17 19  1  0
 17 18  1  0
 19 21  1  0
 19 20  1  1
 21 22  1  0
 23 21  2  0
M  END
$$$$
