QCT.pdb
     RDKit          3D

 23 22  0  0  1  0  0  0  0  0999 V2000
   14.9045   -9.6568  -17.1236 N   0  0  0  0  0  0  0  0  0  0  0  0
   15.8298   -9.6196  -18.1950 C   0  0  0  0  0  0  0  0  0  0  0  0
   15.5104  -10.1914  -19.2677 O   0  0  0  0  0  0  0  0  0  0  0  0
   17.1424   -8.9468  -18.1146 C   0  0  0  0  0  0  0  0  0  0  0  0
   17.3274   -8.2191  -16.8029 C   0  0  0  0  0  0  0  0  0  0  0  0
   18.7503   -8.4495  -16.3439 C   0  0  2  0  0  0  0  0  0  0  0  0
   18.7732   -9.7508  -15.6951 N   0  0  0  0  0  0  0  0  0  0  0  0
   19.1824   -7.4235  -15.3593 C   0  0  0  0  0  0  0  0  0  0  0  0
   18.4592   -7.1777  -14.3468 O   0  0  0  0  0  0  0  0  0  0  0  0
   20.3893   -6.7047  -15.5192 N   0  0  0  0  0  0  0  0  0  0  0  0
   20.8540   -5.7436  -14.5079 C   0  0  1  0  0  0  0  0  0  0  0  0
   22.1786   -6.2428  -13.9251 C   0  0  0  0  0  0  0  0  0  0  0  0
   22.8825   -4.9728  -12.8349 S   0  0  0  0  0  0  0  0  0  0  0  0
   21.1290   -4.4569  -15.1916 C   0  0  0  0  0  0  0  0  0  0  0  0
   21.9132   -4.3903  -16.1547 O   0  0  0  0  0  0  0  0  0  0  0  0
   18.4997   -2.1917  -16.6084 C   0  0  0  0  0  0  0  0  0  0  0  0
   19.2996   -1.3936  -15.6110 C   0  0  1  0  0  0  0  0  0  0  0  0
   18.6506   -1.3833  -14.3767 O   0  0  0  0  0  0  0  0  0  0  0  0
   20.6680   -1.9913  -15.4029 C   0  0  2  0  0  0  0  0  0  0  0  0
   20.4962   -3.2691  -14.7543 N   0  0  0  0  0  0  0  0  0  0  0  0
   21.5039   -1.1113  -14.5471 C   0  0  0  0  0  0  0  0  0  0  0  0
   21.8845    0.1481  -14.9846 O   0  0  0  0  0  0  0  0  0  0  0  0
   21.8754   -1.4897  -13.4256 O   0  0  0  0  0  0  0  0  0  0  0  0
  1  2  1  0
  2  3  2  0
  4  2  1  0
  4  5  1  0
  5  6  1  0
  6  8  1  0
  6  7  1  1
  8 10  1  0
  8  9  2  0
 10 11  1  0
 11 14  1  0
 11 12  1  6
 13 12  1  0
 14 20  1  0
 14 15  2  0
 17 16  1  6
 17 19  1  0
 17 18  1  0
 19 21  1  0
 19 20  1  1
 21 22  1  0
 23 21  2  0
M  END
$$$$
