RIG.pdb
     RDKit          3D

 24 23  0  0  1  0  0  0  0  0999 V2000
   32.1614  -22.7012  -11.5135 N   0  0  0  0  0  0  0  0  0  0  0  0
   32.8380  -22.0044  -12.5444 C   0  0  0  0  0  0  0  0  0  0  0  0
   34.0098  -22.3157  -12.9315 N   0  0  0  0  0  0  0  0  0  0  0  0
   32.1773  -20.8979  -13.1828 N   0  0  0  0  0  0  0  0  0  0  0  0
   30.7987  -20.6688  -12.9480 C   0  0  0  0  0  0  0  0  0  0  0  0
   30.0293  -20.3127  -14.1545 C   0  0  0  0  0  0  0  0  0  0  0  0
   28.6056  -20.6644  -14.1912 C   0  0  0  0  0  0  0  0  0  0  0  0
   28.1091  -21.9266  -13.6015 C   0  0  2  0  0  0  0  0  0  0  0  0
   28.2871  -23.0521  -14.4965 N   0  0  0  0  0  0  0  0  0  0  0  0
   26.6183  -21.7100  -13.3666 C   0  0  0  0  0  0  0  0  0  0  0  0
   25.8328  -22.2395  -14.1805 O   0  0  0  0  0  0  0  0  0  0  0  0
   34.5069  -21.7666  -13.6569 C   0  0  0  0  0  0  0  0  0  0  0  0
   25.9229  -20.4818   -8.5778 C   0  0  0  0  0  0  0  0  0  0  0  0
   25.1208  -21.2579   -9.5825 C   0  0  2  0  0  0  0  0  0  0  0  0
   24.4179  -20.4350  -10.6010 C   0  0  0  0  0  0  0  0  0  0  0  0
   22.9149  -20.5230  -10.3790 C   0  0  2  0  0  0  0  0  0  0  0  0
   24.6856  -20.8072  -12.0278 N   0  0  0  0  0  0  0  0  0  0  0  0
   26.1223  -20.9520  -12.2908 C   0  0  0  0  0  0  0  0  0  0  0  0
   24.0157  -19.9792  -13.0409 O   0  0  0  0  0  0  0  0  0  0  0  0
   24.3981  -18.7863  -13.1988 N   0  0  0  0  0  0  0  0  0  0  0  0
   22.9597  -20.4377  -13.8653 C   0  0  0  0  0  0  0  0  0  0  0  0
   22.2512  -19.6720  -14.8356 C   0  0  0  0  0  0  0  0  0  0  0  0
   20.8327  -19.4398  -14.5970 O   0  0  0  0  0  0  0  0  0  0  0  0
   19.9077  -19.4567  -15.4341 O   0  0  0  0  0  0  0  0  0  0  0  0
  2  1  1  0
  2  3  2  0
  4  5  1  0
  4  2  1  0
  6  7  1  0
  6  5  1  0
  7  8  1  0
  8  9  1  6
 10  8  1  0
 10 17  1  0
 11 10  2  0
 13 12  1  0
 14 16  1  0
 14 13  1  0
 14 15  1  6
 16 17  1  6
 18 20  1  0
 18 16  1  0
 19 18  2  0
 21 22  1  0
 21 20  1  0
 22 24  1  0
 23 22  2  0
M  END
$$$$
