RIG.pdb
     RDKit          3D

 24 23  0  0  1  0  0  0  0  0999 V2000
   19.5596  -20.9170  -14.7623 N   0  0  0  0  0  0  0  0  0  0  0  0
   18.9771  -21.8006  -13.8211 C   0  0  0  0  0  0  0  0  0  0  0  0
   17.7183  -21.9392  -13.6945 N   0  0  0  0  0  0  0  0  0  0  0  0
   19.8403  -22.5752  -12.9707 N   0  0  0  0  0  0  0  0  0  0  0  0
   20.7743  -21.9207  -12.1296 C   0  0  0  0  0  0  0  0  0  0  0  0
   21.5726  -20.8805  -12.8043 C   0  0  0  0  0  0  0  0  0  0  0  0
   23.0257  -21.0678  -12.8772 C   0  0  0  0  0  0  0  0  0  0  0  0
   23.8344  -21.2957  -11.6600 C   0  0  2  0  0  0  0  0  0  0  0  0
   23.2126  -20.7297  -10.4800 N   0  0  0  0  0  0  0  0  0  0  0  0
   25.1605  -20.5865  -11.9110 C   0  0  0  0  0  0  0  0  0  0  0  0
   25.2347  -19.3860  -11.5745 O   0  0  0  0  0  0  0  0  0  0  0  0
   17.3102  -22.6028  -13.0105 C   0  0  0  0  0  0  0  0  0  0  0  0
   30.0255  -22.1761  -10.2310 C   0  0  0  0  0  0  0  0  0  0  0  0
   28.8622  -21.3709  -10.7345 C   0  0  2  0  0  0  0  0  0  0  0  0
   28.7024  -21.3476  -12.2118 C   0  0  0  0  0  0  0  0  0  0  0  0
   29.9647  -20.7889  -12.8525 C   0  0  2  0  0  0  0  0  0  0  0  0
   27.5442  -20.5454  -12.7229 N   0  0  0  0  0  0  0  0  0  0  0  0
   26.2664  -21.2305  -12.4944 C   0  0  0  0  0  0  0  0  0  0  0  0
   27.6697  -20.0477  -14.1003 O   0  0  0  0  0  0  0  0  0  0  0  0
   28.5714  -19.2030  -14.3602 N   0  0  0  0  0  0  0  0  0  0  0  0
   26.8390  -20.4615  -15.1698 C   0  0  0  0  0  0  0  0  0  0  0  0
   27.0223  -20.1566  -16.5493 C   0  0  0  0  0  0  0  0  0  0  0  0
   28.1201  -20.8209  -17.2397 O   0  0  0  0  0  0  0  0  0  0  0  0
   28.7949  -21.7908  -16.8390 O   0  0  0  0  0  0  0  0  0  0  0  0
  2  1  1  0
  2  3  2  0
  4  5  1  0
  4  2  1  0
  6  7  1  0
  6  5  1  0
  7  8  1  0
  8  9  1  1
 10  8  1  0
 10 17  1  0
 11 10  2  0
 13 12  1  0
 14 16  1  0
 14 13  1  0
 14 15  1  6
 16 17  1  1
 18 20  1  0
 18 16  1  0
 19 18  2  0
 21 22  1  0
 21 20  1  0
 22 24  1  0
 23 22  2  0
M  END
$$$$
