RIG.pdb
     RDKit          3D

 24 23  0  0  1  0  0  0  0  0999 V2000
   19.1396  -24.9202  -13.5845 N   0  0  0  0  0  0  0  0  0  0  0  0
   18.5632  -24.9187  -14.8783 C   0  0  0  0  0  0  0  0  0  0  0  0
   17.3620  -25.2776  -15.0971 N   0  0  0  0  0  0  0  0  0  0  0  0
   19.3654  -24.4949  -15.9943 N   0  0  0  0  0  0  0  0  0  0  0  0
   20.5930  -23.8247  -15.7664 C   0  0  0  0  0  0  0  0  0  0  0  0
   20.5028  -22.7012  -14.8156 C   0  0  0  0  0  0  0  0  0  0  0  0
   21.6904  -21.8601  -14.6299 C   0  0  0  0  0  0  0  0  0  0  0  0
   21.6716  -20.6913  -13.7239 C   0  0  2  0  0  0  0  0  0  0  0  0
   21.0143  -19.5482  -14.3244 N   0  0  0  0  0  0  0  0  0  0  0  0
   23.1350  -20.3461  -13.4708 C   0  0  0  0  0  0  0  0  0  0  0  0
   23.5893  -19.3389  -14.0529 O   0  0  0  0  0  0  0  0  0  0  0  0
   16.9408  -25.2204  -16.0427 C   0  0  0  0  0  0  0  0  0  0  0  0
   25.0606  -20.7267   -8.5403 C   0  0  0  0  0  0  0  0  0  0  0  0
   24.9662  -20.2221   -9.9515 C   0  0  2  0  0  0  0  0  0  0  0  0
   25.7510  -20.9921  -10.9514 C   0  0  0  0  0  0  0  0  0  0  0  0
   27.2273  -20.6482  -10.8155 C   0  0  2  0  0  0  0  0  0  0  0  0
   25.3663  -20.7707  -12.3828 N   0  0  0  0  0  0  0  0  0  0  0  0
   23.9592  -21.1106  -12.6256 C   0  0  0  0  0  0  0  0  0  0  0  0
   26.2627  -21.3650  -13.3849 O   0  0  0  0  0  0  0  0  0  0  0  0
   26.2143  -22.6117  -13.5785 N   0  0  0  0  0  0  0  0  0  0  0  0
   27.1852  -20.6221  -14.1608 C   0  0  0  0  0  0  0  0  0  0  0  0
   28.1116  -21.1489  -15.1063 C   0  0  0  0  0  0  0  0  0  0  0  0
   27.6588  -21.2754  -16.4854 O   0  0  0  0  0  0  0  0  0  0  0  0
   26.5206  -21.0370  -16.9373 O   0  0  0  0  0  0  0  0  0  0  0  0
  2  1  1  0
  2  3  2  0
  4  5  1  0
  4  2  1  0
  6  7  1  0
  6  5  1  0
  7  8  1  0
  8  9  1  6
 10  8  1  0
 10 17  1  0
 11 10  2  0
 13 12  1  0
 14 16  1  0
 14 13  1  0
 14 15  1  6
 16 17  1  6
 18 20  1  0
 18 16  1  0
 19 18  2  0
 21 22  1  0
 21 20  1  0
 22 24  1  0
 23 22  2  0
M  END
$$$$
