RIG.pdb
     RDKit          3D

 24 23  0  0  1  0  0  0  0  0999 V2000
   21.3998  -18.8707  -17.8442 N   0  0  0  0  0  0  0  0  0  0  0  0
   21.1826  -18.5778  -19.2127 C   0  0  0  0  0  0  0  0  0  0  0  0
   20.2592  -19.1261  -19.8958 N   0  0  0  0  0  0  0  0  0  0  0  0
   22.0391  -17.6219  -19.8617 N   0  0  0  0  0  0  0  0  0  0  0  0
   22.6427  -16.5874  -19.1044 C   0  0  0  0  0  0  0  0  0  0  0  0
   21.7154  -15.8715  -18.2089 C   0  0  0  0  0  0  0  0  0  0  0  0
   22.2387  -14.7354  -17.4424 C   0  0  0  0  0  0  0  0  0  0  0  0
   22.7033  -13.5024  -18.1142 C   0  0  2  0  0  0  0  0  0  0  0  0
   23.6898  -13.7798  -19.1385 N   0  0  0  0  0  0  0  0  0  0  0  0
   23.3474  -12.6581  -17.0202 C   0  0  0  0  0  0  0  0  0  0  0  0
   22.7065  -12.5221  -15.9569 O   0  0  0  0  0  0  0  0  0  0  0  0
   20.1248  -18.9101  -20.9009 C   0  0  0  0  0  0  0  0  0  0  0  0
   28.4974  -13.0999  -16.4844 C   0  0  0  0  0  0  0  0  0  0  0  0
   27.1521  -12.7965  -15.8898 C   0  0  2  0  0  0  0  0  0  0  0  0
   26.6901  -11.3938  -16.0558 C   0  0  0  0  0  0  0  0  0  0  0  0
   27.1992  -10.5487  -14.8971 C   0  0  2  0  0  0  0  0  0  0  0  0
   25.2048  -11.2084  -16.1308 N   0  0  0  0  0  0  0  0  0  0  0  0
   24.6050  -12.0476  -17.1749 C   0  0  0  0  0  0  0  0  0  0  0  0
   24.7371   -9.8165  -16.1994 O   0  0  0  0  0  0  0  0  0  0  0  0
   24.8628   -9.1873  -17.2868 N   0  0  0  0  0  0  0  0  0  0  0  0
   24.1431   -9.1271  -15.1146 C   0  0  0  0  0  0  0  0  0  0  0  0
   23.6470   -7.7917  -15.1315 C   0  0  0  0  0  0  0  0  0  0  0  0
   22.2178   -7.6131  -15.3522 O   0  0  0  0  0  0  0  0  0  0  0  0
   21.3838   -8.4823  -15.6772 O   0  0  0  0  0  0  0  0  0  0  0  0
  2  1  1  0
  2  3  2  0
  4  5  1  0
  4  2  1  0
  6  7  1  0
  6  5  1  0
  7  8  1  0
  8  9  1  6
 10  8  1  0
 10 17  1  0
 11 10  2  0
 13 12  1  0
 14 16  1  0
 14 13  1  0
 14 15  1  6
 16 17  1  1
 18 20  1  0
 18 16  1  0
 19 18  2  0
 21 22  1  0
 21 20  1  0
 22 24  1  0
 23 22  2  0
M  END
$$$$
