RIG.pdb
     RDKit          3D

 24 23  0  0  1  0  0  0  0  0999 V2000
   16.3599  -15.5604  -19.2289 N   0  0  0  0  0  0  0  0  0  0  0  0
   15.4890  -14.6440  -18.5904 C   0  0  0  0  0  0  0  0  0  0  0  0
   14.2223  -14.7120  -18.6935 N   0  0  0  0  0  0  0  0  0  0  0  0
   16.0554  -13.5907  -17.7914 N   0  0  0  0  0  0  0  0  0  0  0  0
   17.4240  -13.2531  -17.9369 C   0  0  0  0  0  0  0  0  0  0  0  0
   17.8891  -12.1982  -17.0175 C   0  0  0  0  0  0  0  0  0  0  0  0
   19.2898  -11.7724  -17.1113 C   0  0  0  0  0  0  0  0  0  0  0  0
   20.3947  -12.6642  -16.6977 C   0  0  2  0  0  0  0  0  0  0  0  0
   19.9171  -13.8144  -15.9571 N   0  0  0  0  0  0  0  0  0  0  0  0
   21.2821  -11.8216  -15.7881 C   0  0  0  0  0  0  0  0  0  0  0  0
   20.9319  -11.7149  -14.5941 O   0  0  0  0  0  0  0  0  0  0  0  0
   13.6013  -14.0186  -18.2371 C   0  0  0  0  0  0  0  0  0  0  0  0
   26.5478  -12.5837  -15.5719 C   0  0  0  0  0  0  0  0  0  0  0  0
   25.1118  -12.2199  -15.3257 C   0  0  2  0  0  0  0  0  0  0  0  0
   24.7726  -10.7923  -15.5613 C   0  0  0  0  0  0  0  0  0  0  0  0
   25.6064   -9.9116  -14.6421 C   0  0  2  0  0  0  0  0  0  0  0  0
   23.3340  -10.4280  -15.3521 N   0  0  0  0  0  0  0  0  0  0  0  0
   22.4474  -11.1816  -16.2467 C   0  0  0  0  0  0  0  0  0  0  0  0
   23.0324   -8.9893  -15.3531 O   0  0  0  0  0  0  0  0  0  0  0  0
   23.7072   -8.2276  -14.6057 N   0  0  0  0  0  0  0  0  0  0  0  0
   22.0256   -8.3925  -16.1501 C   0  0  0  0  0  0  0  0  0  0  0  0
   21.7333   -7.0011  -16.2409 C   0  0  0  0  0  0  0  0  0  0  0  0
   21.0195   -6.3947  -15.1246 O   0  0  0  0  0  0  0  0  0  0  0  0
   20.5823   -6.9620  -14.1030 O   0  0  0  0  0  0  0  0  0  0  0  0
  2  1  1  0
  2  3  2  0
  4  5  1  0
  4  2  1  0
  6  7  1  0
  6  5  1  0
  7  8  1  0
  8  9  1  1
 10  8  1  0
 10 17  1  0
 11 10  2  0
 13 12  1  0
 14 16  1  0
 14 13  1  0
 14 15  1  6
 16 17  1  1
 18 20  1  0
 18 16  1  0
 19 18  2  0
 21 22  1  0
 21 20  1  0
 22 24  1  0
 23 22  2  0
M  END
$$$$
