RIG.pdb
     RDKit          3D

 24 23  0  0  1  0  0  0  0  0999 V2000
   26.7883  -16.7283  -17.8826 N   0  0  0  0  0  0  0  0  0  0  0  0
   28.0616  -17.1447  -17.4230 C   0  0  0  0  0  0  0  0  0  0  0  0
   28.9892  -17.5187  -18.2101 N   0  0  0  0  0  0  0  0  0  0  0  0
   28.3215  -17.1469  -16.0084 N   0  0  0  0  0  0  0  0  0  0  0  0
   27.2622  -16.9151  -15.0962 C   0  0  0  0  0  0  0  0  0  0  0  0
   26.1647  -17.8964  -15.1797 C   0  0  0  0  0  0  0  0  0  0  0  0
   25.9792  -18.8185  -14.0540 C   0  0  0  0  0  0  0  0  0  0  0  0
   27.1142  -19.5777  -13.4859 C   0  0  2  0  0  0  0  0  0  0  0  0
   27.7051  -20.4787  -14.4546 N   0  0  0  0  0  0  0  0  0  0  0  0
   26.5273  -20.3955  -12.3408 C   0  0  0  0  0  0  0  0  0  0  0  0
   26.2254  -21.5821  -12.5873 O   0  0  0  0  0  0  0  0  0  0  0  0
   29.9185  -17.8112  -17.8556 C   0  0  0  0  0  0  0  0  0  0  0  0
   26.8271  -20.5481   -6.1519 C   0  0  0  0  0  0  0  0  0  0  0  0
   26.2267  -21.0442   -7.4358 C   0  0  2  0  0  0  0  0  0  0  0  0
   26.5462  -20.2311   -8.6380 C   0  0  0  0  0  0  0  0  0  0  0  0
   26.1137  -18.7901   -8.4087 C   0  0  2  0  0  0  0  0  0  0  0  0
   25.9147  -20.6935   -9.9161 N   0  0  0  0  0  0  0  0  0  0  0  0
   26.3234  -19.8629  -11.0551 C   0  0  0  0  0  0  0  0  0  0  0  0
   24.4599  -20.8999   -9.8722 O   0  0  0  0  0  0  0  0  0  0  0  0
   23.9910  -21.7405   -9.0551 N   0  0  0  0  0  0  0  0  0  0  0  0
   23.5374  -20.2064  -10.6925 C   0  0  0  0  0  0  0  0  0  0  0  0
   22.1169  -20.2526  -10.5932 C   0  0  0  0  0  0  0  0  0  0  0  0
   21.3971  -20.9636  -11.6418 O   0  0  0  0  0  0  0  0  0  0  0  0
   21.8811  -21.6185  -12.5870 O   0  0  0  0  0  0  0  0  0  0  0  0
  2  1  1  0
  2  3  2  0
  4  5  1  0
  4  2  1  0
  6  7  1  0
  6  5  1  0
  7  8  1  0
  8  9  1  6
 10  8  1  0
 10 17  1  0
 11 10  2  0
 13 12  1  0
 14 16  1  0
 14 13  1  0
 14 15  1  6
 16 17  1  6
 18 20  1  0
 18 16  1  0
 19 18  2  0
 21 22  1  0
 21 20  1  0
 22 24  1  0
 23 22  2  0
M  END
$$$$
