RIG.pdb
     RDKit          3D

 24 23  0  0  1  0  0  0  0  0999 V2000
   26.0224  -14.5409  -16.9476 N   0  0  0  0  0  0  0  0  0  0  0  0
   25.1092  -15.4479  -16.3566 C   0  0  0  0  0  0  0  0  0  0  0  0
   23.8488  -15.3496  -16.5037 N   0  0  0  0  0  0  0  0  0  0  0  0
   25.6231  -16.5263  -15.5556 N   0  0  0  0  0  0  0  0  0  0  0  0
   27.0229  -16.7110  -15.4358 C   0  0  0  0  0  0  0  0  0  0  0  0
   27.5902  -17.6811  -16.3905 C   0  0  0  0  0  0  0  0  0  0  0  0
   27.3311  -19.1064  -16.1587 C   0  0  0  0  0  0  0  0  0  0  0  0
   28.0993  -19.8751  -15.1555 C   0  0  2  0  0  0  0  0  0  0  0  0
   28.9713  -20.8544  -15.7718 N   0  0  0  0  0  0  0  0  0  0  0  0
   27.0579  -20.5999  -14.3101 C   0  0  0  0  0  0  0  0  0  0  0  0
   26.6001  -21.6684  -14.7667 O   0  0  0  0  0  0  0  0  0  0  0  0
   23.1959  -16.0283  -16.0702 C   0  0  0  0  0  0  0  0  0  0  0  0
   25.2988  -21.2148   -8.4028 C   0  0  0  0  0  0  0  0  0  0  0  0
   25.0131  -21.4032   -9.8650 C   0  0  2  0  0  0  0  0  0  0  0  0
   25.9858  -20.7604  -10.7865 C   0  0  0  0  0  0  0  0  0  0  0  0
   26.1387  -19.2907  -10.4224 C   0  0  2  0  0  0  0  0  0  0  0  0
   25.6383  -20.8305  -12.2427 N   0  0  0  0  0  0  0  0  0  0  0  0
   26.6139  -20.1096  -13.0689 C   0  0  0  0  0  0  0  0  0  0  0  0
   24.2525  -20.4812  -12.5866 O   0  0  0  0  0  0  0  0  0  0  0  0
   23.9059  -19.2676  -12.5499 N   0  0  0  0  0  0  0  0  0  0  0  0
   23.2690  -21.4267  -12.9658 C   0  0  0  0  0  0  0  0  0  0  0  0
   21.9381  -21.1401  -13.3855 C   0  0  0  0  0  0  0  0  0  0  0  0
   20.9041  -21.1198  -12.3591 O   0  0  0  0  0  0  0  0  0  0  0  0
   21.0370  -21.3532  -11.1407 O   0  0  0  0  0  0  0  0  0  0  0  0
  2  1  1  0
  2  3  2  0
  4  5  1  0
  4  2  1  0
  6  7  1  0
  6  5  1  0
  7  8  1  0
  8  9  1  6
 10  8  1  0
 10 17  1  0
 11 10  2  0
 13 12  1  0
 14 16  1  0
 14 13  1  0
 14 15  1  6
 16 17  1  6
 18 20  1  0
 18 16  1  0
 19 18  2  0
 21 22  1  0
 21 20  1  0
 22 24  1  0
 23 22  2  0
M  END
$$$$
