RIG.pdb
     RDKit          3D

 24 23  0  0  1  0  0  0  0  0999 V2000
   32.0600  -22.7928  -18.7721 N   0  0  0  0  0  0  0  0  0  0  0  0
   30.7186  -22.3383  -18.7704 C   0  0  0  0  0  0  0  0  0  0  0  0
   30.2550  -21.5581  -19.6626 N   0  0  0  0  0  0  0  0  0  0  0  0
   29.8403  -22.7739  -17.7180 N   0  0  0  0  0  0  0  0  0  0  0  0
   28.6309  -23.4392  -18.0387 C   0  0  0  0  0  0  0  0  0  0  0  0
   27.4340  -22.5794  -17.9873 C   0  0  0  0  0  0  0  0  0  0  0  0
   26.4307  -22.8580  -16.9541 C   0  0  0  0  0  0  0  0  0  0  0  0
   26.7672  -23.6420  -15.7460 C   0  0  2  0  0  0  0  0  0  0  0  0
   26.6721  -25.0688  -15.9795 N   0  0  0  0  0  0  0  0  0  0  0  0
   25.7358  -23.2408  -14.6972 C   0  0  0  0  0  0  0  0  0  0  0  0
   24.6465  -23.8515  -14.7099 O   0  0  0  0  0  0  0  0  0  0  0  0
   29.2453  -21.3280  -19.7127 C   0  0  0  0  0  0  0  0  0  0  0  0
   25.2161  -20.8228   -9.0358 C   0  0  0  0  0  0  0  0  0  0  0  0
   24.5990  -21.1509  -10.3649 C   0  0  2  0  0  0  0  0  0  0  0  0
   25.5645  -21.4860  -11.4439 C   0  0  0  0  0  0  0  0  0  0  0  0
   26.5221  -20.3215  -11.6512 C   0  0  2  0  0  0  0  0  0  0  0  0
   24.9571  -21.8126  -12.7745 N   0  0  0  0  0  0  0  0  0  0  0  0
   25.9734  -22.2313  -13.7472 C   0  0  0  0  0  0  0  0  0  0  0  0
   24.0434  -20.8015  -13.3256 O   0  0  0  0  0  0  0  0  0  0  0  0
   24.5226  -19.8728  -14.0342 N   0  0  0  0  0  0  0  0  0  0  0  0
   22.6430  -20.8025  -13.1159 C   0  0  0  0  0  0  0  0  0  0  0  0
   21.7110  -19.8543  -13.6278 C   0  0  0  0  0  0  0  0  0  0  0  0
   21.3219  -19.9882  -15.0256 O   0  0  0  0  0  0  0  0  0  0  0  0
   21.6975  -20.8556  -15.8400 O   0  0  0  0  0  0  0  0  0  0  0  0
  2  1  1  0
  2  3  2  0
  4  5  1  0
  4  2  1  0
  6  7  1  0
  6  5  1  0
  7  8  1  0
  8  9  1  6
 10  8  1  0
 10 17  1  0
 11 10  2  0
 13 12  1  0
 14 16  1  0
 14 13  1  0
 14 15  1  1
 16 17  1  6
 18 20  1  0
 18 16  1  0
 19 18  2  0
 21 22  1  0
 21 20  1  0
 22 24  1  0
 23 22  2  0
M  END
$$$$
