RIG.pdb
     RDKit          3D

 24 23  0  0  1  0  0  0  0  0999 V2000
   26.4686  -21.7875  -10.7971 N   0  0  0  0  0  0  0  0  0  0  0  0
   27.3974  -21.3526  -11.7739 C   0  0  0  0  0  0  0  0  0  0  0  0
   28.5893  -21.7947  -11.8355 N   0  0  0  0  0  0  0  0  0  0  0  0
   26.9807  -20.3703  -12.7382 N   0  0  0  0  0  0  0  0  0  0  0  0
   25.6607  -19.8565  -12.6965 C   0  0  0  0  0  0  0  0  0  0  0  0
   24.7672  -20.3954  -13.7384 C   0  0  0  0  0  0  0  0  0  0  0  0
   24.4217  -19.5236  -14.8666 C   0  0  0  0  0  0  0  0  0  0  0  0
   23.4678  -18.4043  -14.7104 C   0  0  2  0  0  0  0  0  0  0  0  0
   22.0914  -18.8566  -14.7247 N   0  0  0  0  0  0  0  0  0  0  0  0
   23.7040  -17.4947  -15.9110 C   0  0  0  0  0  0  0  0  0  0  0  0
   22.8648  -17.5448  -16.8347 O   0  0  0  0  0  0  0  0  0  0  0  0
   29.2895  -21.3830  -12.4797 C   0  0  0  0  0  0  0  0  0  0  0  0
   24.5814  -13.1018  -14.6094 C   0  0  0  0  0  0  0  0  0  0  0  0
   24.2415  -13.6040  -15.9832 C   0  0  2  0  0  0  0  0  0  0  0  0
   25.3361  -14.3293  -16.6792 C   0  0  0  0  0  0  0  0  0  0  0  0
   25.7742  -13.5383  -17.9034 C   0  0  2  0  0  0  0  0  0  0  0  0
   25.0026  -15.7175  -17.1349 N   0  0  0  0  0  0  0  0  0  0  0  0
   24.8089  -16.6292  -16.0011 C   0  0  0  0  0  0  0  0  0  0  0  0
   25.8914  -16.2849  -18.1591 O   0  0  0  0  0  0  0  0  0  0  0  0
   26.0951  -15.6270  -19.2173 N   0  0  0  0  0  0  0  0  0  0  0  0
   26.5464  -17.5340  -18.0341 C   0  0  0  0  0  0  0  0  0  0  0  0
   27.4105  -18.1352  -18.9941 C   0  0  0  0  0  0  0  0  0  0  0  0
   26.8206  -18.5362  -20.2647 O   0  0  0  0  0  0  0  0  0  0  0  0
   27.3990  -19.0504  -21.2433 O   0  0  0  0  0  0  0  0  0  0  0  0
  2  1  1  0
  2  3  2  0
  4  5  1  0
  4  2  1  0
  6  7  1  0
  6  5  1  0
  7  8  1  0
  8  9  1  6
 10  8  1  0
 10 17  1  0
 11 10  2  0
 13 12  1  0
 14 16  1  0
 14 13  1  0
 14 15  1  1
 16 17  1  6
 18 20  1  0
 18 16  1  0
 19 18  2  0
 21 22  1  0
 21 20  1  0
 22 24  1  0
 23 22  2  0
M  END
$$$$
