RIG.pdb
     RDKit          3D

 24 23  0  0  1  0  0  0  0  0999 V2000
   28.1995  -22.0890  -15.5943 N   0  0  0  0  0  0  0  0  0  0  0  0
   29.0249  -21.4747  -16.5676 C   0  0  0  0  0  0  0  0  0  0  0  0
   29.7995  -22.1367  -17.3301 N   0  0  0  0  0  0  0  0  0  0  0  0
   28.9899  -20.0433  -16.7029 N   0  0  0  0  0  0  0  0  0  0  0  0
   27.8214  -19.3287  -16.3391 C   0  0  0  0  0  0  0  0  0  0  0  0
   26.6276  -19.6749  -17.1324 C   0  0  0  0  0  0  0  0  0  0  0  0
   25.3118  -19.4972  -16.5085 C   0  0  0  0  0  0  0  0  0  0  0  0
   24.5332  -20.6523  -16.0119 C   0  0  2  0  0  0  0  0  0  0  0  0
   24.6979  -21.8211  -16.8523 N   0  0  0  0  0  0  0  0  0  0  0  0
   23.0742  -20.2115  -16.0551 C   0  0  0  0  0  0  0  0  0  0  0  0
   22.5229  -20.1830  -17.1754 O   0  0  0  0  0  0  0  0  0  0  0  0
   30.4535  -21.6659  -17.9824 C   0  0  0  0  0  0  0  0  0  0  0  0
   20.3187  -22.3452  -12.7228 C   0  0  0  0  0  0  0  0  0  0  0  0
   20.1232  -21.6201  -14.0232 C   0  0  2  0  0  0  0  0  0  0  0  0
   20.1234  -20.1372  -13.9256 C   0  0  0  0  0  0  0  0  0  0  0  0
   18.6981  -19.6178  -14.0484 C   0  0  2  0  0  0  0  0  0  0  0  0
   20.9532  -19.4233  -14.9492 N   0  0  0  0  0  0  0  0  0  0  0  0
   22.3577  -19.8470  -14.9010 C   0  0  0  0  0  0  0  0  0  0  0  0
   20.8147  -17.9601  -14.9770 O   0  0  0  0  0  0  0  0  0  0  0  0
   21.3340  -17.2839  -14.0458 N   0  0  0  0  0  0  0  0  0  0  0  0
   20.1328  -17.2492  -15.9942 C   0  0  0  0  0  0  0  0  0  0  0  0
   19.9387  -15.8391  -16.0553 C   0  0  0  0  0  0  0  0  0  0  0  0
   18.8514  -15.2799  -15.2626 O   0  0  0  0  0  0  0  0  0  0  0  0
   18.0300  -15.8976  -14.5552 O   0  0  0  0  0  0  0  0  0  0  0  0
  2  1  1  0
  2  3  2  0
  4  5  1  0
  4  2  1  0
  6  7  1  0
  6  5  1  0
  7  8  1  0
  8  9  1  6
 10  8  1  0
 10 17  1  0
 11 10  2  0
 13 12  1  0
 14 16  1  0
 14 13  1  0
 14 15  1  1
 16 17  1  6
 18 20  1  0
 18 16  1  0
 19 18  2  0
 21 22  1  0
 21 20  1  0
 22 24  1  0
 23 22  2  0
M  END
$$$$
