RIG.pdb
     RDKit          3D

 24 23  0  0  1  0  0  0  0  0999 V2000
   19.5957  -21.0299  -11.2619 N   0  0  0  0  0  0  0  0  0  0  0  0
   19.6308  -22.3655  -11.7319 C   0  0  0  0  0  0  0  0  0  0  0  0
   18.8220  -23.2599  -11.3249 N   0  0  0  0  0  0  0  0  0  0  0  0
   20.6204  -22.7307  -12.7095 N   0  0  0  0  0  0  0  0  0  0  0  0
   21.9374  -22.2181  -12.6057 C   0  0  0  0  0  0  0  0  0  0  0  0
   22.0175  -20.8663  -12.0221 C   0  0  0  0  0  0  0  0  0  0  0  0
   23.3337  -20.2217  -11.9575 C   0  0  0  0  0  0  0  0  0  0  0  0
   24.4880  -20.8912  -11.3199 C   0  0  2  0  0  0  0  0  0  0  0  0
   24.3479  -20.9627   -9.8796 N   0  0  0  0  0  0  0  0  0  0  0  0
   25.6993  -20.0293  -11.6587 C   0  0  0  0  0  0  0  0  0  0  0  0
   26.2260  -19.3965  -10.7196 O   0  0  0  0  0  0  0  0  0  0  0  0
   18.8268  -24.2182  -11.7205 C   0  0  0  0  0  0  0  0  0  0  0  0
   29.9433  -21.8492  -10.8202 C   0  0  0  0  0  0  0  0  0  0  0  0
   29.1835  -20.6912  -11.4005 C   0  0  2  0  0  0  0  0  0  0  0  0
   28.4073  -20.9977  -12.6301 C   0  0  0  0  0  0  0  0  0  0  0  0
   29.3420  -21.5414  -13.7010 C   0  0  2  0  0  0  0  0  0  0  0  0
   27.6612  -19.8429  -13.2268 N   0  0  0  0  0  0  0  0  0  0  0  0
   26.2204  -19.9321  -12.9614 C   0  0  0  0  0  0  0  0  0  0  0  0
   27.9497  -19.5569  -14.6395 O   0  0  0  0  0  0  0  0  0  0  0  0
   29.1379  -19.2924  -14.9744 N   0  0  0  0  0  0  0  0  0  0  0  0
   26.9718  -19.5631  -15.6636 C   0  0  0  0  0  0  0  0  0  0  0  0
   25.7571  -20.3075  -15.6680 C   0  0  0  0  0  0  0  0  0  0  0  0
   25.5844  -21.2970  -16.7236 O   0  0  0  0  0  0  0  0  0  0  0  0
   26.3070  -22.2849  -16.9659 O   0  0  0  0  0  0  0  0  0  0  0  0
  2  1  1  0
  2  3  2  0
  4  5  1  0
  4  2  1  0
  6  7  1  0
  6  5  1  0
  7  8  1  0
  8  9  1  1
 10  8  1  0
 10 17  1  0
 11 10  2  0
 13 12  1  0
 14 16  1  0
 14 13  1  0
 14 15  1  1
 16 17  1  6
 18 20  1  0
 18 16  1  0
 19 18  2  0
 21 22  1  0
 21 20  1  0
 22 24  1  0
 23 22  2  0
M  END
$$$$
