RIG.pdb
     RDKit          3D

 24 23  0  0  1  0  0  0  0  0999 V2000
   29.5039  -22.5907  -16.8679 N   0  0  0  0  0  0  0  0  0  0  0  0
   29.6806  -22.2247  -18.2246 C   0  0  0  0  0  0  0  0  0  0  0  0
   30.3604  -22.9232  -19.0431 N   0  0  0  0  0  0  0  0  0  0  0  0
   29.0686  -21.0137  -18.7016 N   0  0  0  0  0  0  0  0  0  0  0  0
   28.1077  -20.3466  -17.9017 C   0  0  0  0  0  0  0  0  0  0  0  0
   26.7587  -20.9397  -17.9538 C   0  0  0  0  0  0  0  0  0  0  0  0
   26.0941  -21.2499  -16.6833 C   0  0  0  0  0  0  0  0  0  0  0  0
   26.6197  -22.2912  -15.7740 C   0  0  2  0  0  0  0  0  0  0  0  0
   26.7036  -23.5855  -16.4199 N   0  0  0  0  0  0  0  0  0  0  0  0
   25.6206  -22.3736  -14.6251 C   0  0  0  0  0  0  0  0  0  0  0  0
   24.9443  -23.4197  -14.5352 O   0  0  0  0  0  0  0  0  0  0  0  0
   30.5294  -22.6092  -20.0166 C   0  0  0  0  0  0  0  0  0  0  0  0
   25.5401  -20.5146   -8.7870 C   0  0  0  0  0  0  0  0  0  0  0  0
   24.8365  -21.1708   -9.9400 C   0  0  2  0  0  0  0  0  0  0  0  0
   25.4626  -20.9511  -11.2697 C   0  0  0  0  0  0  0  0  0  0  0  0
   25.6305  -19.4583  -11.5140 C   0  0  2  0  0  0  0  0  0  0  0  0
   24.7131  -21.5176  -12.4373 N   0  0  0  0  0  0  0  0  0  0  0  0
   25.4472  -21.3331  -13.6949 C   0  0  0  0  0  0  0  0  0  0  0  0
   23.3049  -21.1116  -12.5509 O   0  0  0  0  0  0  0  0  0  0  0  0
   22.5639  -21.2012  -11.5326 N   0  0  0  0  0  0  0  0  0  0  0  0
   22.7179  -20.6158  -13.7403 C   0  0  0  0  0  0  0  0  0  0  0  0
   21.3895  -20.1218  -13.8851 C   0  0  0  0  0  0  0  0  0  0  0  0
   21.1811  -19.0347  -14.8327 O   0  0  0  0  0  0  0  0  0  0  0  0
   22.0263  -18.5085  -15.5847 O   0  0  0  0  0  0  0  0  0  0  0  0
  2  1  1  0
  2  3  2  0
  4  5  1  0
  4  2  1  0
  6  7  1  0
  6  5  1  0
  7  8  1  0
  8  9  1  6
 10  8  1  0
 10 17  1  0
 11 10  2  0
 13 12  1  0
 14 16  1  0
 14 13  1  0
 14 15  1  6
 16 17  1  6
 18 20  1  0
 18 16  1  0
 19 18  2  0
 21 22  1  0
 21 20  1  0
 22 24  1  0
 23 22  2  0
M  END
$$$$
