VQV.pdb
     RDKit          3D

 24 23  0  0  1  0  0  0  0  0999 V2000
    6.9767  -12.6514   20.2015 C   0  0  0  0  0  0  0  0  0  0  0  0
    8.1485  -13.3808   19.6571 C   0  0  2  0  0  0  0  0  0  0  0  0
    8.3638  -12.9549   18.1993 C   0  0  0  0  0  0  0  0  0  0  0  0
    8.1323  -14.8627   19.7662 C   0  0  2  0  0  0  0  0  0  0  0  0
    7.1173  -15.3362   18.7984 N   0  0  0  0  0  0  0  0  0  0  0  0
    7.7406  -15.4101   21.0766 C   0  0  0  0  0  0  0  0  0  0  0  0
    6.5023  -15.5712   21.3554 O   0  0  0  0  0  0  0  0  0  0  0  0
    6.2194  -18.9887   23.7669 N   0  0  0  0  0  0  0  0  0  0  0  0
    6.8538  -18.6721   24.9764 C   0  0  0  0  0  0  0  0  0  0  0  0
    6.2891  -18.9565   26.0566 O   0  0  0  0  0  0  0  0  0  0  0  0
    8.1884  -18.0032   25.0325 C   0  0  0  0  0  0  0  0  0  0  0  0
    8.6516  -17.6099   23.6407 C   0  0  0  0  0  0  0  0  0  0  0  0
    8.1833  -16.1553   23.4435 C   0  0  2  0  0  0  0  0  0  0  0  0
    8.6272  -15.8015   22.1180 N   0  0  0  0  0  0  0  0  0  0  0  0
    8.6907  -15.2927   24.5188 C   0  0  0  0  0  0  0  0  0  0  0  0
    9.9492  -15.1079   24.6552 O   0  0  0  0  0  0  0  0  0  0  0  0
    7.4876  -11.6397   25.4763 C   0  0  0  0  0  0  0  0  0  0  0  0
    7.5841  -12.5269   26.6869 C   0  0  1  0  0  0  0  0  0  0  0  0
    6.2033  -12.9443   27.1458 C   0  0  0  0  0  0  0  0  0  0  0  0
    8.4521  -13.7424   26.4288 C   0  0  2  0  0  0  0  0  0  0  0  0
    7.8638  -14.6233   25.4521 N   0  0  0  0  0  0  0  0  0  0  0  0
    8.7375  -14.4976   27.6518 C   0  0  0  0  0  0  0  0  0  0  0  0
    9.5001  -13.9322   28.6453 O   0  0  0  0  0  0  0  0  0  0  0  0
    8.2933  -15.6519   27.7993 O   0  0  0  0  0  0  0  0  0  0  0  0
  2  1  1  6
  2  3  1  0
  4  2  1  0
  4  5  1  6
  6  4  1  0
  6  7  2  0
  8  9  1  0
  9 11  1  0
  9 10  2  0
 11 12  1  0
 13 12  1  1
 13 14  1  0
 14  6  1  0
 15 13  1  0
 16 15  2  0
 18 17  1  6
 18 20  1  0
 19 18  1  0
 20 22  1  0
 20 21  1  6
 21 15  1  0
 22 23  1  0
 24 22  2  0
M  END
$$$$
