VQV.pdb
     RDKit          3D

 24 23  0  0  1  0  0  0  0  0999 V2000
    7.1613  -20.5031   17.6727 C   0  0  0  0  0  0  0  0  0  0  0  0
    8.0340  -19.6522   18.5187 C   0  0  2  0  0  0  0  0  0  0  0  0
    9.4098  -20.3195   18.6398 C   0  0  0  0  0  0  0  0  0  0  0  0
    7.5187  -19.2814   19.8623 C   0  0  2  0  0  0  0  0  0  0  0  0
    6.1477  -18.7652   19.6499 N   0  0  0  0  0  0  0  0  0  0  0  0
    8.2559  -18.2180   20.5664 C   0  0  0  0  0  0  0  0  0  0  0  0
    9.3404  -18.4969   21.1853 O   0  0  0  0  0  0  0  0  0  0  0  0
    7.6658  -12.3300   18.8249 N   0  0  0  0  0  0  0  0  0  0  0  0
    8.5432  -13.3923   18.5654 C   0  0  0  0  0  0  0  0  0  0  0  0
    8.8002  -13.6982   17.3792 O   0  0  0  0  0  0  0  0  0  0  0  0
    9.1915  -14.1831   19.6544 C   0  0  0  0  0  0  0  0  0  0  0  0
    8.1927  -14.5065   20.7517 C   0  0  0  0  0  0  0  0  0  0  0  0
    8.6498  -15.8531   21.3447 C   0  0  2  0  0  0  0  0  0  0  0  0
    7.8813  -16.8473   20.6377 N   0  0  0  0  0  0  0  0  0  0  0  0
    8.4852  -15.8639   22.8044 C   0  0  0  0  0  0  0  0  0  0  0  0
    7.4388  -15.3563   23.3374 O   0  0  0  0  0  0  0  0  0  0  0  0
    7.3421  -18.1134   24.9376 C   0  0  0  0  0  0  0  0  0  0  0  0
    8.6416  -17.7465   25.6000 C   0  0  1  0  0  0  0  0  0  0  0  0
    9.6722  -18.8324   25.3763 C   0  0  0  0  0  0  0  0  0  0  0  0
    9.1628  -16.4071   25.1184 C   0  0  2  0  0  0  0  0  0  0  0  0
    9.4305  -16.4139   23.7026 N   0  0  0  0  0  0  0  0  0  0  0  0
   10.3677  -15.9830   25.8366 C   0  0  0  0  0  0  0  0  0  0  0  0
   10.3186  -15.7695   27.1932 O   0  0  0  0  0  0  0  0  0  0  0  0
   11.4401  -15.8138   25.2260 O   0  0  0  0  0  0  0  0  0  0  0  0
  2  1  1  1
  2  3  1  0
  4  2  1  0
  4  5  1  6
  6  4  1  0
  6  7  2  0
  8  9  1  0
  9 11  1  0
  9 10  2  0
 11 12  1  0
 13 12  1  6
 13 14  1  0
 14  6  1  0
 15 13  1  0
 16 15  2  0
 18 17  1  6
 18 20  1  0
 19 18  1  0
 20 22  1  0
 20 21  1  6
 21 15  1  0
 22 23  1  0
 24 22  2  0
M  END
$$$$
