VQV.pdb
     RDKit          3D

 24 23  0  0  1  0  0  0  0  0999 V2000
    8.2570  -13.4050   18.0798 C   0  0  0  0  0  0  0  0  0  0  0  0
    7.6665  -13.7660   19.3922 C   0  0  2  0  0  0  0  0  0  0  0  0
    8.1340  -12.7502   20.4422 C   0  0  0  0  0  0  0  0  0  0  0  0
    7.8932  -15.1525   19.8767 C   0  0  2  0  0  0  0  0  0  0  0  0
    7.1553  -16.0390   18.9490 N   0  0  0  0  0  0  0  0  0  0  0  0
    7.3885  -15.4558   21.2270 C   0  0  0  0  0  0  0  0  0  0  0  0
    6.1279  -15.4942   21.4424 O   0  0  0  0  0  0  0  0  0  0  0  0
    8.3139  -19.9065   25.1796 N   0  0  0  0  0  0  0  0  0  0  0  0
    7.4563  -19.0198   25.8457 C   0  0  0  0  0  0  0  0  0  0  0  0
    6.8473  -19.4086   26.8677 O   0  0  0  0  0  0  0  0  0  0  0  0
    7.2354  -17.6164   25.3838 C   0  0  0  0  0  0  0  0  0  0  0  0
    7.9108  -17.3785   24.0446 C   0  0  0  0  0  0  0  0  0  0  0  0
    7.6316  -15.9040   23.6956 C   0  0  2  0  0  0  0  0  0  0  0  0
    8.1835  -15.7266   22.3754 N   0  0  0  0  0  0  0  0  0  0  0  0
    8.1820  -15.0105   24.7235 C   0  0  0  0  0  0  0  0  0  0  0  0
    9.4477  -14.8615   24.8352 O   0  0  0  0  0  0  0  0  0  0  0  0
    6.7071  -11.3462   25.7764 C   0  0  0  0  0  0  0  0  0  0  0  0
    7.0714  -12.2250   26.9413 C   0  0  1  0  0  0  0  0  0  0  0  0
    5.8238  -12.7924   27.5839 C   0  0  0  0  0  0  0  0  0  0  0  0
    8.0174  -13.3377   26.5355 C   0  0  2  0  0  0  0  0  0  0  0  0
    7.3906  -14.2721   25.6354 N   0  0  0  0  0  0  0  0  0  0  0  0
    8.5564  -14.0639   27.6885 C   0  0  0  0  0  0  0  0  0  0  0  0
    8.3565  -15.4188   27.8008 O   0  0  0  0  0  0  0  0  0  0  0  0
    9.1968  -13.4617   28.5710 O   0  0  0  0  0  0  0  0  0  0  0  0
  2  1  1  6
  2  3  1  0
  4  2  1  0
  4  5  1  6
  6  4  1  0
  6  7  2  0
  8  9  1  0
  9 11  1  0
  9 10  2  0
 11 12  1  0
 13 12  1  1
 13 14  1  0
 14  6  1  0
 15 13  1  0
 16 15  2  0
 18 17  1  6
 18 20  1  0
 19 18  1  0
 20 22  1  0
 20 21  1  6
 21 15  1  0
 22 23  1  0
 24 22  2  0
M  END
$$$$
