VQV.pdb
     RDKit          3D

 24 23  0  0  1  0  0  0  0  0999 V2000
    7.1166  -12.5217   20.2554 C   0  0  0  0  0  0  0  0  0  0  0  0
    8.2495  -13.2343   19.6149 C   0  0  2  0  0  0  0  0  0  0  0  0
    8.3199  -12.8267   18.1379 C   0  0  0  0  0  0  0  0  0  0  0  0
    8.2770  -14.7145   19.7451 C   0  0  2  0  0  0  0  0  0  0  0  0
    7.1611  -15.2219   18.9154 N   0  0  0  0  0  0  0  0  0  0  0  0
    8.0597  -15.2482   21.1008 C   0  0  0  0  0  0  0  0  0  0  0  0
    6.8687  -15.4444   21.5250 O   0  0  0  0  0  0  0  0  0  0  0  0
   11.1398  -19.5452   24.3536 N   0  0  0  0  0  0  0  0  0  0  0  0
   10.1967  -19.0283   25.2530 C   0  0  0  0  0  0  0  0  0  0  0  0
   10.0412  -19.5842   26.3636 O   0  0  0  0  0  0  0  0  0  0  0  0
    9.3606  -17.8305   24.9401 C   0  0  0  0  0  0  0  0  0  0  0  0
    9.6932  -17.2880   23.5613 C   0  0  0  0  0  0  0  0  0  0  0  0
    8.7941  -16.0507   23.3746 C   0  0  2  0  0  0  0  0  0  0  0  0
    9.0746  -15.5894   22.0376 N   0  0  0  0  0  0  0  0  0  0  0  0
    9.0368  -15.0637   24.4352 C   0  0  0  0  0  0  0  0  0  0  0  0
   10.1965  -14.5419   24.5751 O   0  0  0  0  0  0  0  0  0  0  0  0
    7.2384  -11.7380   25.2525 C   0  0  0  0  0  0  0  0  0  0  0  0
    7.3298  -12.5839   26.4926 C   0  0  1  0  0  0  0  0  0  0  0  0
    5.9824  -13.1939   26.8150 C   0  0  0  0  0  0  0  0  0  0  0  0
    8.3879  -13.6617   26.3645 C   0  0  2  0  0  0  0  0  0  0  0  0
    8.0491  -14.6274   25.3502 N   0  0  0  0  0  0  0  0  0  0  0  0
    8.6366  -14.3567   27.6304 C   0  0  0  0  0  0  0  0  0  0  0  0
    8.3906  -15.7048   27.7330 O   0  0  0  0  0  0  0  0  0  0  0  0
    9.0707  -13.7340   28.6180 O   0  0  0  0  0  0  0  0  0  0  0  0
  2  1  1  6
  2  3  1  0
  4  2  1  0
  4  5  1  6
  6  4  1  0
  6  7  2  0
  8  9  1  0
  9 11  1  0
  9 10  2  0
 11 12  1  0
 13 12  1  1
 13 14  1  0
 14  6  1  0
 15 13  1  0
 16 15  2  0
 18 17  1  6
 18 20  1  0
 19 18  1  0
 20 22  1  0
 20 21  1  6
 21 15  1  0
 22 23  1  0
 24 22  2  0
M  END
$$$$
