VQV.pdb
     RDKit          3D

 24 23  0  0  1  0  0  0  0  0999 V2000
    7.5737  -21.5449   25.1030 C   0  0  0  0  0  0  0  0  0  0  0  0
    7.7967  -20.0803   25.0225 C   0  0  2  0  0  0  0  0  0  0  0  0
    6.4843  -19.3601   25.3568 C   0  0  0  0  0  0  0  0  0  0  0  0
    8.3686  -19.5525   23.7565 C   0  0  2  0  0  0  0  0  0  0  0  0
    9.6994  -20.1839   23.6106 N   0  0  0  0  0  0  0  0  0  0  0  0
    8.5939  -18.0976   23.7062 C   0  0  0  0  0  0  0  0  0  0  0  0
    9.5153  -17.5704   24.4205 O   0  0  0  0  0  0  0  0  0  0  0  0
    7.2185  -13.8250   19.2274 N   0  0  0  0  0  0  0  0  0  0  0  0
    7.6993  -13.0915   20.3213 C   0  0  0  0  0  0  0  0  0  0  0  0
    7.9138  -11.8655   20.1895 O   0  0  0  0  0  0  0  0  0  0  0  0
    7.9695  -13.7163   21.6510 C   0  0  0  0  0  0  0  0  0  0  0  0
    7.6215  -15.1944   21.6313 C   0  0  0  0  0  0  0  0  0  0  0  0
    8.0442  -15.7383   23.0095 C   0  0  2  0  0  0  0  0  0  0  0  0
    7.8686  -17.1661   22.9122 N   0  0  0  0  0  0  0  0  0  0  0  0
    7.2795  -15.0908   24.0837 C   0  0  0  0  0  0  0  0  0  0  0  0
    6.0075  -15.2179   24.1342 O   0  0  0  0  0  0  0  0  0  0  0  0
    8.6637  -14.5123   27.8747 C   0  0  0  0  0  0  0  0  0  0  0  0
    7.8370  -13.3629   27.3674 C   0  0  1  0  0  0  0  0  0  0  0  0
    8.7188  -12.1674   27.0764 C   0  0  0  0  0  0  0  0  0  0  0  0
    7.0313  -13.7442   26.1413 C   0  0  2  0  0  0  0  0  0  0  0  0
    7.8626  -14.3070   25.1077 N   0  0  0  0  0  0  0  0  0  0  0  0
    6.2757  -12.6147   25.5931 C   0  0  0  0  0  0  0  0  0  0  0  0
    6.5090  -12.1929   24.3063 O   0  0  0  0  0  0  0  0  0  0  0  0
    5.4206  -12.0312   26.2859 O   0  0  0  0  0  0  0  0  0  0  0  0
  2  1  1  6
  2  3  1  0
  4  2  1  0
  4  5  1  1
  6  4  1  0
  6  7  2  0
  8  9  1  0
  9 11  1  0
  9 10  2  0
 11 12  1  0
 13 12  1  6
 13 14  1  0
 14  6  1  0
 15 13  1  0
 16 15  2  0
 18 17  1  6
 18 20  1  0
 19 18  1  0
 20 22  1  0
 20 21  1  6
 21 15  1  0
 22 23  1  0
 24 22  2  0
M  END
$$$$
