VQV.pdb
     RDKit          3D

 24 23  0  0  1  0  0  0  0  0999 V2000
    7.7197  -12.6368   20.0747 C   0  0  0  0  0  0  0  0  0  0  0  0
    8.4380  -13.8297   19.5624 C   0  0  2  0  0  0  0  0  0  0  0  0
    8.6550  -13.6670   18.0526 C   0  0  0  0  0  0  0  0  0  0  0  0
    7.8402  -15.1575   19.8591 C   0  0  2  0  0  0  0  0  0  0  0  0
    6.6601  -15.2850   18.9748 N   0  0  0  0  0  0  0  0  0  0  0  0
    7.3489  -15.3524   21.2341 C   0  0  0  0  0  0  0  0  0  0  0  0
    6.2731  -14.7738   21.6145 O   0  0  0  0  0  0  0  0  0  0  0  0
    7.8725  -20.2775   25.1246 N   0  0  0  0  0  0  0  0  0  0  0  0
    7.0844  -19.3223   25.7819 C   0  0  0  0  0  0  0  0  0  0  0  0
    6.4512  -19.6533   26.8095 O   0  0  0  0  0  0  0  0  0  0  0  0
    6.9663  -17.9118   25.3040 C   0  0  0  0  0  0  0  0  0  0  0  0
    7.6539  -17.7398   23.9610 C   0  0  0  0  0  0  0  0  0  0  0  0
    7.4621  -16.2583   23.5836 C   0  0  2  0  0  0  0  0  0  0  0  0
    7.9647  -16.1528   22.2363 N   0  0  0  0  0  0  0  0  0  0  0  0
    8.1191  -15.3808   24.5615 C   0  0  0  0  0  0  0  0  0  0  0  0
    9.3941  -15.2774   24.5782 O   0  0  0  0  0  0  0  0  0  0  0  0
    6.9480  -11.6418   25.5571 C   0  0  0  0  0  0  0  0  0  0  0  0
    7.2970  -12.4921   26.7474 C   0  0  1  0  0  0  0  0  0  0  0  0
    6.0399  -12.9420   27.4606 C   0  0  0  0  0  0  0  0  0  0  0  0
    8.1478  -13.6851   26.3595 C   0  0  2  0  0  0  0  0  0  0  0  0
    7.4247  -14.6101   25.5242 N   0  0  0  0  0  0  0  0  0  0  0  0
    8.6783  -14.3983   27.5245 C   0  0  0  0  0  0  0  0  0  0  0  0
    8.3037  -15.6989   27.7620 O   0  0  0  0  0  0  0  0  0  0  0  0
    9.4686  -13.8339   28.3045 O   0  0  0  0  0  0  0  0  0  0  0  0
  2  1  1  6
  2  3  1  0
  4  2  1  0
  4  5  1  6
  6  4  1  0
  6  7  2  0
  8  9  1  0
  9 11  1  0
  9 10  2  0
 11 12  1  0
 13 12  1  1
 13 14  1  0
 14  6  1  0
 15 13  1  0
 16 15  2  0
 18 17  1  6
 18 20  1  0
 19 18  1  0
 20 22  1  0
 20 21  1  1
 21 15  1  0
 22 23  1  0
 24 22  2  0
M  END
$$$$
