VQV.pdb
     RDKit          3D

 24 23  0  0  1  0  0  0  0  0999 V2000
    7.6121  -12.8663   20.6534 C   0  0  0  0  0  0  0  0  0  0  0  0
    8.3671  -13.4916   19.5397 C   0  0  2  0  0  0  0  0  0  0  0  0
    7.8626  -12.9121   18.2121 C   0  0  0  0  0  0  0  0  0  0  0  0
    8.3823  -14.9765   19.4836 C   0  0  2  0  0  0  0  0  0  0  0  0
    7.0014  -15.3903   19.1477 N   0  0  0  0  0  0  0  0  0  0  0  0
    8.7268  -15.6672   20.7383 C   0  0  0  0  0  0  0  0  0  0  0  0
    9.0014  -16.9167   20.7232 O   0  0  0  0  0  0  0  0  0  0  0  0
   12.8905  -17.8022   23.4599 N   0  0  0  0  0  0  0  0  0  0  0  0
   11.9245  -18.2636   22.5546 C   0  0  0  0  0  0  0  0  0  0  0  0
   12.0638  -19.3931   22.0336 O   0  0  0  0  0  0  0  0  0  0  0  0
   10.7236  -17.4574   22.1811 C   0  0  0  0  0  0  0  0  0  0  0  0
   10.7604  -16.0955   22.8520 C   0  0  0  0  0  0  0  0  0  0  0  0
    9.2953  -15.7612   23.1922 C   0  0  2  0  0  0  0  0  0  0  0  0
    8.7945  -15.0722   22.0288 N   0  0  0  0  0  0  0  0  0  0  0  0
    9.2103  -15.0025   24.4472 C   0  0  0  0  0  0  0  0  0  0  0  0
   10.1863  -15.0162   25.2743 O   0  0  0  0  0  0  0  0  0  0  0  0
    5.6062  -13.4356   26.2485 C   0  0  0  0  0  0  0  0  0  0  0  0
    6.8791  -12.6346   26.2414 C   0  0  1  0  0  0  0  0  0  0  0  0
    6.9836  -11.8001   27.5001 C   0  0  0  0  0  0  0  0  0  0  0  0
    8.1011  -13.5171   26.0818 C   0  0  2  0  0  0  0  0  0  0  0  0
    8.0895  -14.2267   24.8278 N   0  0  0  0  0  0  0  0  0  0  0  0
    8.2469  -14.4769   27.1795 C   0  0  0  0  0  0  0  0  0  0  0  0
    7.8179  -15.7726   27.0197 O   0  0  0  0  0  0  0  0  0  0  0  0
    8.7583  -14.1275   28.2602 O   0  0  0  0  0  0  0  0  0  0  0  0
  2  1  1  1
  2  3  1  0
  4  2  1  0
  4  5  1  1
  6  4  1  0
  6  7  2  0
  8  9  1  0
  9 11  1  0
  9 10  2  0
 11 12  1  0
 13 12  1  6
 13 14  1  0
 14  6  1  0
 15 13  1  0
 16 15  2  0
 18 17  1  1
 18 20  1  0
 19 18  1  0
 20 22  1  0
 20 21  1  6
 21 15  1  0
 22 23  1  0
 24 22  2  0
M  END
$$$$
