VQV.pdb
     RDKit          3D

 24 23  0  0  1  0  0  0  0  0999 V2000
    7.7204  -12.9826   18.2442 C   0  0  0  0  0  0  0  0  0  0  0  0
    7.6482  -13.5065   19.6305 C   0  0  2  0  0  0  0  0  0  0  0  0
    8.3744  -12.5324   20.5668 C   0  0  0  0  0  0  0  0  0  0  0  0
    8.1290  -14.8947   19.8541 C   0  0  2  0  0  0  0  0  0  0  0  0
    7.2506  -15.7703   19.0460 N   0  0  0  0  0  0  0  0  0  0  0  0
    8.0472  -15.3919   21.2383 C   0  0  0  0  0  0  0  0  0  0  0  0
    6.9049  -15.5486   21.7927 O   0  0  0  0  0  0  0  0  0  0  0  0
   11.6870  -19.3867   24.4461 N   0  0  0  0  0  0  0  0  0  0  0  0
   10.9275  -18.7344   25.4275 C   0  0  0  0  0  0  0  0  0  0  0  0
   11.0884  -19.0411   26.6303 O   0  0  0  0  0  0  0  0  0  0  0  0
    9.9243  -17.6782   25.0967 C   0  0  0  0  0  0  0  0  0  0  0  0
   10.0556  -17.2472   23.6464 C   0  0  0  0  0  0  0  0  0  0  0  0
    9.0064  -16.1366   23.4472 C   0  0  2  0  0  0  0  0  0  0  0  0
    9.1494  -15.7371   22.0692 N   0  0  0  0  0  0  0  0  0  0  0  0
    9.1933  -15.0593   24.4282 C   0  0  0  0  0  0  0  0  0  0  0  0
   10.2161  -14.2942   24.3562 O   0  0  0  0  0  0  0  0  0  0  0  0
    7.0298  -12.2952   24.9607 C   0  0  0  0  0  0  0  0  0  0  0  0
    7.4177  -12.6777   26.3625 C   0  0  1  0  0  0  0  0  0  0  0  0
    6.2162  -13.2070   27.1160 C   0  0  0  0  0  0  0  0  0  0  0  0
    8.5477  -13.6877   26.3804 C   0  0  2  0  0  0  0  0  0  0  0  0
    8.2948  -14.7906   25.4882 N   0  0  0  0  0  0  0  0  0  0  0  0
    8.8165  -14.2050   27.7248 C   0  0  0  0  0  0  0  0  0  0  0  0
    8.6938  -15.5496   27.9801 O   0  0  0  0  0  0  0  0  0  0  0  0
    9.1564  -13.4336   28.6419 O   0  0  0  0  0  0  0  0  0  0  0  0
  2  1  1  6
  2  3  1  0
  4  2  1  0
  4  5  1  6
  6  4  1  0
  6  7  2  0
  8  9  1  0
  9 11  1  0
  9 10  2  0
 11 12  1  0
 13 12  1  1
 13 14  1  0
 14  6  1  0
 15 13  1  0
 16 15  2  0
 18 17  1  6
 18 20  1  0
 19 18  1  0
 20 22  1  0
 20 21  1  6
 21 15  1  0
 22 23  1  0
 24 22  2  0
M  END
$$$$
