VQV.pdb
     RDKit          3D

 24 23  0  0  1  0  0  0  0  0999 V2000
    8.1504  -13.4128   17.9118 C   0  0  0  0  0  0  0  0  0  0  0  0
    7.6366  -13.7540   19.2612 C   0  0  2  0  0  0  0  0  0  0  0  0
    8.1787  -12.7341   20.2705 C   0  0  0  0  0  0  0  0  0  0  0  0
    7.8762  -15.1385   19.7453 C   0  0  2  0  0  0  0  0  0  0  0  0
    7.1497  -16.0318   18.8151 N   0  0  0  0  0  0  0  0  0  0  0  0
    7.3713  -15.4480   21.0941 C   0  0  0  0  0  0  0  0  0  0  0  0
    6.1147  -15.4025   21.3302 O   0  0  0  0  0  0  0  0  0  0  0  0
    8.0723  -20.0494   24.9333 N   0  0  0  0  0  0  0  0  0  0  0  0
    7.3861  -19.0906   25.6920 C   0  0  0  0  0  0  0  0  0  0  0  0
    6.8262  -19.4382   26.7560 O   0  0  0  0  0  0  0  0  0  0  0  0
    7.2934  -17.6573   25.2813 C   0  0  0  0  0  0  0  0  0  0  0  0
    7.8794  -17.4563   23.8948 C   0  0  0  0  0  0  0  0  0  0  0  0
    7.6210  -15.9780   23.5458 C   0  0  2  0  0  0  0  0  0  0  0  0
    8.1619  -15.8121   22.2195 N   0  0  0  0  0  0  0  0  0  0  0  0
    8.1968  -15.0918   24.5661 C   0  0  0  0  0  0  0  0  0  0  0  0
    9.4587  -14.8844   24.5996 O   0  0  0  0  0  0  0  0  0  0  0  0
    6.8603  -11.4765   25.5676 C   0  0  0  0  0  0  0  0  0  0  0  0
    7.1658  -12.3179   26.7761 C   0  0  1  0  0  0  0  0  0  0  0  0
    5.8839  -12.8084   27.4146 C   0  0  0  0  0  0  0  0  0  0  0  0
    8.0748  -13.4829   26.4383 C   0  0  2  0  0  0  0  0  0  0  0  0
    7.4348  -14.4229   25.5534 N   0  0  0  0  0  0  0  0  0  0  0  0
    8.5497  -14.1881   27.6318 C   0  0  0  0  0  0  0  0  0  0  0  0
    9.3445  -13.5359   28.5435 O   0  0  0  0  0  0  0  0  0  0  0  0
    8.2383  -15.3781   27.8279 O   0  0  0  0  0  0  0  0  0  0  0  0
  2  1  1  6
  2  3  1  0
  4  2  1  0
  4  5  1  6
  6  4  1  0
  6  7  2  0
  8  9  1  0
  9 11  1  0
  9 10  2  0
 11 12  1  0
 13 12  1  1
 13 14  1  0
 14  6  1  0
 15 13  1  0
 16 15  2  0
 18 17  1  6
 18 20  1  0
 19 18  1  0
 20 22  1  0
 20 21  1  6
 21 15  1  0
 22 23  1  0
 24 22  2  0
M  END
$$$$
