VQV.pdb
     RDKit          3D

 24 23  0  0  1  0  0  0  0  0999 V2000
    8.1795  -13.9983   17.7081 C   0  0  0  0  0  0  0  0  0  0  0  0
    7.6708  -14.0740   19.0998 C   0  0  2  0  0  0  0  0  0  0  0  0
    7.2981  -12.6619   19.5687 C   0  0  0  0  0  0  0  0  0  0  0  0
    8.5429  -14.7389   20.1027 C   0  0  2  0  0  0  0  0  0  0  0  0
    8.8588  -16.0761   19.5523 N   0  0  0  0  0  0  0  0  0  0  0  0
    7.9438  -14.9690   21.4287 C   0  0  0  0  0  0  0  0  0  0  0  0
    7.5324  -13.9763   22.1231 O   0  0  0  0  0  0  0  0  0  0  0  0
    7.7885  -20.4286   24.8700 N   0  0  0  0  0  0  0  0  0  0  0  0
    7.0545  -19.4701   25.5829 C   0  0  0  0  0  0  0  0  0  0  0  0
    6.4295  -19.8175   26.6103 O   0  0  0  0  0  0  0  0  0  0  0  0
    6.9851  -18.0375   25.1653 C   0  0  0  0  0  0  0  0  0  0  0  0
    7.4711  -17.8699   23.7364 C   0  0  0  0  0  0  0  0  0  0  0  0
    7.2421  -16.3856   23.3920 C   0  0  2  0  0  0  0  0  0  0  0  0
    7.7596  -16.2332   22.0548 N   0  0  0  0  0  0  0  0  0  0  0  0
    7.8604  -15.5140   24.3998 C   0  0  0  0  0  0  0  0  0  0  0  0
    9.1340  -15.4606   24.5096 O   0  0  0  0  0  0  0  0  0  0  0  0
    7.6683  -11.6619   27.4830 C   0  0  0  0  0  0  0  0  0  0  0  0
    6.9272  -12.6511   26.6262 C   0  0  1  0  0  0  0  0  0  0  0  0
    6.2915  -11.9518   25.4436 C   0  0  0  0  0  0  0  0  0  0  0  0
    7.8255  -13.7797   26.1604 C   0  0  2  0  0  0  0  0  0  0  0  0
    7.1290  -14.6961   25.2937 N   0  0  0  0  0  0  0  0  0  0  0  0
    8.4161  -14.5234   27.2765 C   0  0  0  0  0  0  0  0  0  0  0  0
    9.3537  -13.9227   28.0817 O   0  0  0  0  0  0  0  0  0  0  0  0
    8.0744  -15.6997   27.5026 O   0  0  0  0  0  0  0  0  0  0  0  0
  2  1  1  6
  2  3  1  0
  4  2  1  0
  4  5  1  6
  6  4  1  0
  6  7  2  0
  8  9  1  0
  9 11  1  0
  9 10  2  0
 11 12  1  0
 13 12  1  1
 13 14  1  0
 14  6  1  0
 15 13  1  0
 16 15  2  0
 18 17  1  6
 18 20  1  0
 19 18  1  0
 20 22  1  0
 20 21  1  6
 21 15  1  0
 22 23  1  0
 24 22  2  0
M  END
$$$$
