VQV.pdb
     RDKit          3D

 24 23  0  0  1  0  0  0  0  0999 V2000
    7.4528  -12.7317   18.5004 C   0  0  0  0  0  0  0  0  0  0  0  0
    7.4506  -13.4161   19.8168 C   0  0  2  0  0  0  0  0  0  0  0  0
    8.0370  -12.4672   20.8697 C   0  0  0  0  0  0  0  0  0  0  0  0
    8.1149  -14.7435   19.8894 C   0  0  2  0  0  0  0  0  0  0  0  0
    7.3575  -15.6336   18.9809 N   0  0  0  0  0  0  0  0  0  0  0  0
    8.1085  -15.3981   21.2091 C   0  0  0  0  0  0  0  0  0  0  0  0
    7.0089  -15.8285   21.7015 O   0  0  0  0  0  0  0  0  0  0  0  0
   11.9006  -19.4088   23.9913 N   0  0  0  0  0  0  0  0  0  0  0  0
   11.1062  -18.9248   25.0402 C   0  0  0  0  0  0  0  0  0  0  0  0
   11.1784  -19.4698   26.1646 O   0  0  0  0  0  0  0  0  0  0  0  0
   10.1676  -17.7748   24.8724 C   0  0  0  0  0  0  0  0  0  0  0  0
   10.2478  -17.2167   23.4623 C   0  0  0  0  0  0  0  0  0  0  0  0
    9.1529  -16.1357   23.3813 C   0  0  2  0  0  0  0  0  0  0  0  0
    9.2433  -15.6191   22.0382 N   0  0  0  0  0  0  0  0  0  0  0  0
    9.3261  -15.1360   24.4437 C   0  0  0  0  0  0  0  0  0  0  0  0
   10.3637  -14.3878   24.4597 O   0  0  0  0  0  0  0  0  0  0  0  0
    6.1646  -13.5608   26.7219 C   0  0  0  0  0  0  0  0  0  0  0  0
    7.4905  -12.8871   26.4980 C   0  0  1  0  0  0  0  0  0  0  0  0
    7.7349  -11.8379   27.5614 C   0  0  0  0  0  0  0  0  0  0  0  0
    8.6313  -13.8845   26.4585 C   0  0  2  0  0  0  0  0  0  0  0  0
    8.3983  -14.9272   25.4917 N   0  0  0  0  0  0  0  0  0  0  0  0
    8.8938  -14.4883   27.7676 C   0  0  0  0  0  0  0  0  0  0  0  0
    9.4199  -13.7254   28.7823 O   0  0  0  0  0  0  0  0  0  0  0  0
    8.6435  -15.6917   27.9696 O   0  0  0  0  0  0  0  0  0  0  0  0
  2  1  1  6
  2  3  1  0
  4  2  1  0
  4  5  1  6
  6  4  1  0
  6  7  2  0
  8  9  1  0
  9 11  1  0
  9 10  2  0
 11 12  1  0
 13 12  1  1
 13 14  1  0
 14  6  1  0
 15 13  1  0
 16 15  2  0
 18 17  1  1
 18 20  1  0
 19 18  1  0
 20 22  1  0
 20 21  1  6
 21 15  1  0
 22 23  1  0
 24 22  2  0
M  END
$$$$
