VQV.pdb
     RDKit          3D

 24 23  0  0  1  0  0  0  0  0999 V2000
    8.3661  -13.2159   17.8970 C   0  0  0  0  0  0  0  0  0  0  0  0
    7.7872  -13.6233   19.2009 C   0  0  2  0  0  0  0  0  0  0  0  0
    8.1816  -12.5892   20.2630 C   0  0  0  0  0  0  0  0  0  0  0  0
    8.0946  -14.9970   19.6771 C   0  0  2  0  0  0  0  0  0  0  0  0
    7.4781  -15.9202   18.6979 N   0  0  0  0  0  0  0  0  0  0  0  0
    7.5438  -15.3632   20.9934 C   0  0  0  0  0  0  0  0  0  0  0  0
    6.2767  -15.4236   21.1596 O   0  0  0  0  0  0  0  0  0  0  0  0
    7.9368  -20.0555   24.6007 N   0  0  0  0  0  0  0  0  0  0  0  0
    7.3339  -19.1037   25.4351 C   0  0  0  0  0  0  0  0  0  0  0  0
    6.8212  -19.4736   26.5153 O   0  0  0  0  0  0  0  0  0  0  0  0
    7.2762  -17.6520   25.0871 C   0  0  0  0  0  0  0  0  0  0  0  0
    7.8775  -17.4037   23.7149 C   0  0  0  0  0  0  0  0  0  0  0  0
    7.7020  -15.8957   23.4521 C   0  0  2  0  0  0  0  0  0  0  0  0
    8.2988  -15.6749   22.1583 N   0  0  0  0  0  0  0  0  0  0  0  0
    8.2807  -15.1039   24.5457 C   0  0  0  0  0  0  0  0  0  0  0  0
    9.5486  -15.0689   24.7133 O   0  0  0  0  0  0  0  0  0  0  0  0
    7.4524  -11.3206   25.6045 C   0  0  0  0  0  0  0  0  0  0  0  0
    7.4223  -12.2745   26.7668 C   0  0  1  0  0  0  0  0  0  0  0  0
    5.9930  -12.5796   27.1614 C   0  0  0  0  0  0  0  0  0  0  0  0
    8.1791  -13.5534   26.4678 C   0  0  2  0  0  0  0  0  0  0  0  0
    7.5156  -14.3466   25.4644 N   0  0  0  0  0  0  0  0  0  0  0  0
    8.3953  -14.3701   27.6651 C   0  0  0  0  0  0  0  0  0  0  0  0
    9.2201  -13.9158   28.6660 O   0  0  0  0  0  0  0  0  0  0  0  0
    7.8360  -15.4767   27.7842 O   0  0  0  0  0  0  0  0  0  0  0  0
  2  1  1  6
  2  3  1  0
  4  2  1  0
  4  5  1  6
  6  4  1  0
  6  7  2  0
  8  9  1  0
  9 11  1  0
  9 10  2  0
 11 12  1  0
 13 12  1  1
 13 14  1  0
 14  6  1  0
 15 13  1  0
 16 15  2  0
 18 17  1  6
 18 20  1  0
 19 18  1  0
 20 22  1  0
 20 21  1  6
 21 15  1  0
 22 23  1  0
 24 22  2  0
M  END
$$$$
