VQV.pdb
     RDKit          3D

 24 23  0  0  1  0  0  0  0  0999 V2000
    7.6869  -12.8136   18.2723 C   0  0  0  0  0  0  0  0  0  0  0  0
    7.6164  -13.3631   19.6487 C   0  0  2  0  0  0  0  0  0  0  0  0
    8.3567  -12.4142   20.5997 C   0  0  0  0  0  0  0  0  0  0  0  0
    8.0846  -14.7600   19.8435 C   0  0  2  0  0  0  0  0  0  0  0  0
    7.2192  -15.6072   18.9924 N   0  0  0  0  0  0  0  0  0  0  0  0
    7.9701  -15.2953   21.2111 C   0  0  0  0  0  0  0  0  0  0  0  0
    6.8188  -15.5858   21.6874 O   0  0  0  0  0  0  0  0  0  0  0  0
   11.2365  -19.5650   24.2235 N   0  0  0  0  0  0  0  0  0  0  0  0
   10.5662  -18.8893   25.2529 C   0  0  0  0  0  0  0  0  0  0  0  0
   10.7334  -19.2577   26.4373 O   0  0  0  0  0  0  0  0  0  0  0  0
    9.6515  -17.7367   24.9949 C   0  0  0  0  0  0  0  0  0  0  0  0
    9.8178  -17.2258   23.5745 C   0  0  0  0  0  0  0  0  0  0  0  0
    8.8652  -16.0210   23.4530 C   0  0  2  0  0  0  0  0  0  0  0  0
    9.0486  -15.5401   22.1061 N   0  0  0  0  0  0  0  0  0  0  0  0
    9.1347  -15.0335   24.5066 C   0  0  0  0  0  0  0  0  0  0  0  0
   10.2807  -14.4699   24.5818 O   0  0  0  0  0  0  0  0  0  0  0  0
    7.0875  -11.8513   25.3932 C   0  0  0  0  0  0  0  0  0  0  0  0
    7.3830  -12.6383   26.6403 C   0  0  1  0  0  0  0  0  0  0  0  0
    6.1406  -13.3626   27.1131 C   0  0  0  0  0  0  0  0  0  0  0  0
    8.5252  -13.6135   26.4356 C   0  0  2  0  0  0  0  0  0  0  0  0
    8.1885  -14.6409   25.4831 N   0  0  0  0  0  0  0  0  0  0  0  0
    8.9603  -14.2384   27.6876 C   0  0  0  0  0  0  0  0  0  0  0  0
    9.5378  -13.4732   28.6721 O   0  0  0  0  0  0  0  0  0  0  0  0
    8.8108  -15.4618   27.8681 O   0  0  0  0  0  0  0  0  0  0  0  0
  2  1  1  6
  2  3  1  0
  4  2  1  0
  4  5  1  6
  6  4  1  0
  6  7  2  0
  8  9  1  0
  9 11  1  0
  9 10  2  0
 11 12  1  0
 13 12  1  1
 13 14  1  0
 14  6  1  0
 15 13  1  0
 16 15  2  0
 18 17  1  6
 18 20  1  0
 19 18  1  0
 20 22  1  0
 20 21  1  6
 21 15  1  0
 22 23  1  0
 24 22  2  0
M  END
$$$$
