VQV.pdb
     RDKit          3D

 24 23  0  0  1  0  0  0  0  0999 V2000
    7.6206  -12.7590   20.0604 C   0  0  0  0  0  0  0  0  0  0  0  0
    8.4357  -13.9129   19.6071 C   0  0  2  0  0  0  0  0  0  0  0  0
    8.7323  -13.7527   18.1107 C   0  0  0  0  0  0  0  0  0  0  0  0
    7.8989  -15.2703   19.8857 C   0  0  2  0  0  0  0  0  0  0  0  0
    6.7794  -15.4732   18.9387 N   0  0  0  0  0  0  0  0  0  0  0  0
    7.3431  -15.4814   21.2336 C   0  0  0  0  0  0  0  0  0  0  0  0
    6.1531  -15.0945   21.4999 O   0  0  0  0  0  0  0  0  0  0  0  0
    7.5137  -19.5321   27.1643 N   0  0  0  0  0  0  0  0  0  0  0  0
    7.0167  -19.2121   25.8930 C   0  0  0  0  0  0  0  0  0  0  0  0
    6.6310  -20.1321   25.1371 O   0  0  0  0  0  0  0  0  0  0  0  0
    6.9265  -17.8061   25.3963 C   0  0  0  0  0  0  0  0  0  0  0  0
    7.6356  -17.6609   24.0613 C   0  0  0  0  0  0  0  0  0  0  0  0
    7.4494  -16.1875   23.6509 C   0  0  2  0  0  0  0  0  0  0  0  0
    8.0122  -16.0997   22.3264 N   0  0  0  0  0  0  0  0  0  0  0  0
    8.0539  -15.2884   24.6430 C   0  0  0  0  0  0  0  0  0  0  0  0
    9.3264  -15.1912   24.7317 O   0  0  0  0  0  0  0  0  0  0  0  0
    6.8877  -11.5170   25.4516 C   0  0  0  0  0  0  0  0  0  0  0  0
    7.1378  -12.3324   26.6903 C   0  0  1  0  0  0  0  0  0  0  0  0
    5.8262  -12.7359   27.3293 C   0  0  0  0  0  0  0  0  0  0  0  0
    7.9895  -13.5525   26.4011 C   0  0  2  0  0  0  0  0  0  0  0  0
    7.3095  -14.4896   25.5433 N   0  0  0  0  0  0  0  0  0  0  0  0
    8.4194  -14.2386   27.6225 C   0  0  0  0  0  0  0  0  0  0  0  0
    8.0294  -15.5357   27.8545 O   0  0  0  0  0  0  0  0  0  0  0  0
    9.1380  -13.6544   28.4554 O   0  0  0  0  0  0  0  0  0  0  0  0
  2  1  1  6
  2  3  1  0
  4  2  1  0
  4  5  1  6
  6  4  1  0
  6  7  2  0
  8  9  1  0
  9 11  1  0
  9 10  2  0
 11 12  1  0
 13 12  1  1
 13 14  1  0
 14  6  1  0
 15 13  1  0
 16 15  2  0
 18 17  1  6
 18 20  1  0
 19 18  1  0
 20 22  1  0
 20 21  1  6
 21 15  1  0
 22 23  1  0
 24 22  2  0
M  END
$$$$
