VQV.pdb
     RDKit          3D

 24 23  0  0  1  0  0  0  0  0999 V2000
    8.5972  -13.5243   17.8063 C   0  0  0  0  0  0  0  0  0  0  0  0
    7.9778  -13.8150   19.1228 C   0  0  2  0  0  0  0  0  0  0  0  0
    8.5299  -12.8279   20.1590 C   0  0  0  0  0  0  0  0  0  0  0  0
    8.0854  -15.2087   19.6273 C   0  0  2  0  0  0  0  0  0  0  0  0
    7.3351  -16.0525   18.6701 N   0  0  0  0  0  0  0  0  0  0  0  0
    7.4958  -15.4636   20.9530 C   0  0  0  0  0  0  0  0  0  0  0  0
    6.2411  -15.2928   21.1358 O   0  0  0  0  0  0  0  0  0  0  0  0
    8.4381  -19.9295   25.1112 N   0  0  0  0  0  0  0  0  0  0  0  0
    7.5690  -19.0322   25.7476 C   0  0  0  0  0  0  0  0  0  0  0  0
    7.0304  -19.3635   26.8278 O   0  0  0  0  0  0  0  0  0  0  0  0
    7.2545  -17.6838   25.1867 C   0  0  0  0  0  0  0  0  0  0  0  0
    7.9475  -17.4823   23.8505 C   0  0  0  0  0  0  0  0  0  0  0  0
    7.5760  -16.0560   23.4017 C   0  0  2  0  0  0  0  0  0  0  0  0
    8.1980  -15.9020   22.1100 N   0  0  0  0  0  0  0  0  0  0  0  0
    7.9850  -15.0681   24.4090 C   0  0  0  0  0  0  0  0  0  0  0  0
    9.2241  -14.7999   24.5808 O   0  0  0  0  0  0  0  0  0  0  0  0
    5.2921  -12.9036   27.0621 C   0  0  0  0  0  0  0  0  0  0  0  0
    6.5020  -12.2918   26.4113 C   0  0  1  0  0  0  0  0  0  0  0  0
    7.0618  -11.1829   27.2765 C   0  0  0  0  0  0  0  0  0  0  0  0
    7.5679  -13.3276   26.1135 C   0  0  2  0  0  0  0  0  0  0  0  0
    7.0800  -14.3616   25.2366 N   0  0  0  0  0  0  0  0  0  0  0  0
    8.1097  -13.9402   27.3294 C   0  0  0  0  0  0  0  0  0  0  0  0
    8.9638  -13.2266   28.1355 O   0  0  0  0  0  0  0  0  0  0  0  0
    7.8019  -15.1065   27.6401 O   0  0  0  0  0  0  0  0  0  0  0  0
  2  1  1  6
  2  3  1  0
  4  2  1  0
  4  5  1  6
  6  4  1  0
  6  7  2  0
  8  9  1  0
  9 11  1  0
  9 10  2  0
 11 12  1  0
 13 12  1  1
 13 14  1  0
 14  6  1  0
 15 13  1  0
 16 15  2  0
 18 17  1  1
 18 20  1  0
 19 18  1  0
 20 22  1  0
 20 21  1  6
 21 15  1  0
 22 23  1  0
 24 22  2  0
M  END
$$$$
