VQV.pdb
     RDKit          3D

 24 23  0  0  1  0  0  0  0  0999 V2000
    7.6440  -12.9825   18.1693 C   0  0  0  0  0  0  0  0  0  0  0  0
    7.5192  -13.4938   19.5565 C   0  0  2  0  0  0  0  0  0  0  0  0
    8.2065  -12.5095   20.5113 C   0  0  0  0  0  0  0  0  0  0  0  0
    7.9938  -14.8788   19.8114 C   0  0  2  0  0  0  0  0  0  0  0  0
    7.1443  -15.7645   18.9838 N   0  0  0  0  0  0  0  0  0  0  0  0
    7.8659  -15.3610   21.1975 C   0  0  0  0  0  0  0  0  0  0  0  0
    6.7059  -15.5728   21.6940 O   0  0  0  0  0  0  0  0  0  0  0  0
   11.2303  -19.3844   24.5298 N   0  0  0  0  0  0  0  0  0  0  0  0
   10.3712  -18.7919   25.4660 C   0  0  0  0  0  0  0  0  0  0  0  0
   10.3034  -19.2678   26.6216 O   0  0  0  0  0  0  0  0  0  0  0  0
    9.5243  -17.6051   25.1408 C   0  0  0  0  0  0  0  0  0  0  0  0
    9.7196  -17.1853   23.6944 C   0  0  0  0  0  0  0  0  0  0  0  0
    8.7458  -16.0130   23.4678 C   0  0  2  0  0  0  0  0  0  0  0  0
    8.9395  -15.6336   22.0903 N   0  0  0  0  0  0  0  0  0  0  0  0
    8.9809  -14.9420   24.4454 C   0  0  0  0  0  0  0  0  0  0  0  0
   10.0201  -14.2018   24.3509 O   0  0  0  0  0  0  0  0  0  0  0  0
    6.8751  -11.8878   25.4103 C   0  0  0  0  0  0  0  0  0  0  0  0
    7.2295  -12.6643   26.6486 C   0  0  1  0  0  0  0  0  0  0  0  0
    6.0364  -13.4619   27.1300 C   0  0  0  0  0  0  0  0  0  0  0  0
    8.4237  -13.5706   26.4247 C   0  0  2  0  0  0  0  0  0  0  0  0
    8.1136  -14.6532   25.5258 N   0  0  0  0  0  0  0  0  0  0  0  0
    8.9548  -14.1178   27.6760 C   0  0  0  0  0  0  0  0  0  0  0  0
    9.0058  -15.4783   27.8631 O   0  0  0  0  0  0  0  0  0  0  0  0
    9.3621  -13.3579   28.5750 O   0  0  0  0  0  0  0  0  0  0  0  0
  2  1  1  6
  2  3  1  0
  4  2  1  0
  4  5  1  6
  6  4  1  0
  6  7  2  0
  8  9  1  0
  9 11  1  0
  9 10  2  0
 11 12  1  0
 13 12  1  1
 13 14  1  0
 14  6  1  0
 15 13  1  0
 16 15  2  0
 18 17  1  6
 18 20  1  0
 19 18  1  0
 20 22  1  0
 20 21  1  6
 21 15  1  0
 22 23  1  0
 24 22  2  0
M  END
$$$$
