VQV.pdb
     RDKit          3D

 24 23  0  0  1  0  0  0  0  0999 V2000
    7.7797  -13.2566   18.4772 C   0  0  0  0  0  0  0  0  0  0  0  0
    7.6045  -13.5421   19.9227 C   0  0  2  0  0  0  0  0  0  0  0  0
    7.6597  -12.2203   20.6991 C   0  0  0  0  0  0  0  0  0  0  0  0
    8.5242  -14.5383   20.5310 C   0  0  2  0  0  0  0  0  0  0  0  0
    8.3050  -15.8043   19.7960 N   0  0  0  0  0  0  0  0  0  0  0  0
    8.2974  -14.8425   21.9544 C   0  0  0  0  0  0  0  0  0  0  0  0
    8.3782  -13.9095   22.8262 O   0  0  0  0  0  0  0  0  0  0  0  0
    5.9687  -20.3041   23.5958 N   0  0  0  0  0  0  0  0  0  0  0  0
    5.4288  -19.2358   22.8659 C   0  0  0  0  0  0  0  0  0  0  0  0
    4.4318  -19.4351   22.1359 O   0  0  0  0  0  0  0  0  0  0  0  0
    5.9977  -17.8557   22.9221 C   0  0  0  0  0  0  0  0  0  0  0  0
    7.1180  -17.7771   23.9443 C   0  0  0  0  0  0  0  0  0  0  0  0
    7.6363  -16.3275   23.8809 C   0  0  2  0  0  0  0  0  0  0  0  0
    7.9806  -16.1193   22.4963 N   0  0  0  0  0  0  0  0  0  0  0  0
    8.7376  -16.1244   24.8315 C   0  0  0  0  0  0  0  0  0  0  0  0
    9.9371  -16.4198   24.4988 O   0  0  0  0  0  0  0  0  0  0  0  0
    8.4443  -13.4361   27.9599 C   0  0  0  0  0  0  0  0  0  0  0  0
    9.7682  -13.8924   27.4113 C   0  0  1  0  0  0  0  0  0  0  0  0
   10.8623  -13.6885   28.4374 C   0  0  0  0  0  0  0  0  0  0  0  0
    9.7236  -15.3378   26.9570 C   0  0  2  0  0  0  0  0  0  0  0  0
    8.5691  -15.6066   26.1378 N   0  0  0  0  0  0  0  0  0  0  0  0
    9.7503  -16.2795   28.0795 C   0  0  0  0  0  0  0  0  0  0  0  0
   10.8819  -16.3967   28.8503 O   0  0  0  0  0  0  0  0  0  0  0  0
    8.7525  -16.9774   28.3421 O   0  0  0  0  0  0  0  0  0  0  0  0
  2  1  1  6
  2  3  1  0
  4  2  1  0
  4  5  1  6
  6  4  1  0
  6  7  2  0
  8  9  1  0
  9 11  1  0
  9 10  2  0
 11 12  1  0
 13 12  1  6
 13 14  1  0
 14  6  1  0
 15 13  1  0
 16 15  2  0
 18 17  1  1
 18 20  1  0
 19 18  1  0
 20 22  1  0
 20 21  1  1
 21 15  1  0
 22 23  1  0
 24 22  2  0
M  END
$$$$
