PCF.pdb
     RDKit          3D

 25 26  0  0  1  0  0  0  0  0999 V2000
   32.5303  -22.7096  -11.7707 N   0  0  0  0  0  0  0  0  0  0  0  0
   33.4703  -22.0943  -10.8907 C   0  0  0  0  0  0  0  0  0  0  0  0
   32.7532  -21.9046   -9.5755 C   0  0  0  0  0  0  0  0  0  0  0  0
   31.5052  -22.7723   -9.6779 C   0  0  0  0  0  0  0  0  0  0  0  0
   31.2467  -22.7711  -11.1508 C   0  0  1  0  0  0  0  0  0  0  0  0
   30.4440  -21.5497  -11.4847 C   0  0  0  0  0  0  0  0  0  0  0  0
   30.7727  -20.4147  -11.0511 O   0  0  0  0  0  0  0  0  0  0  0  0
   29.2780  -21.5997  -12.3006 N   0  0  0  0  0  0  0  0  0  0  0  0
   28.3075  -20.4940  -12.2663 C   0  0  1  0  0  0  0  0  0  0  0  0
   28.1948  -19.9958  -13.6984 C   0  0  0  0  0  0  0  0  0  0  0  0
   26.9767  -18.6664  -13.7912 S   0  0  0  0  0  0  0  0  0  0  0  0
   27.0088  -21.0624  -11.8259 C   0  0  0  0  0  0  0  0  0  0  0  0
   26.6153  -22.2099  -12.1448 O   0  0  0  0  0  0  0  0  0  0  0  0
   26.1612  -20.2823  -11.0045 N   0  0  0  0  0  0  0  0  0  0  0  0
   24.9619  -20.8681  -10.4101 C   0  0  1  0  0  0  0  0  0  0  0  0
   24.8424  -20.4741   -8.9569 C   0  0  0  0  0  0  0  0  0  0  0  0
   26.1042  -20.1318   -8.3065 C   0  0  0  0  0  0  0  0  0  0  0  0
   26.2692  -18.8411   -7.8089 C   0  0  0  0  0  0  0  0  0  0  0  0
   27.4601  -18.5416   -7.1907 C   0  0  0  0  0  0  0  0  0  0  0  0
   28.4735  -19.4754   -7.0566 C   0  0  0  0  0  0  0  0  0  0  0  0
   28.3021  -20.7533   -7.5527 C   0  0  0  0  0  0  0  0  0  0  0  0
   27.1142  -21.0725   -8.1759 C   0  0  0  0  0  0  0  0  0  0  0  0
   23.8026  -20.4050  -11.2070 C   0  0  0  0  0  0  0  0  0  0  0  0
   23.9312  -19.5264  -12.1250 O   0  0  0  0  0  0  0  0  0  0  0  0
   22.5427  -20.9302  -10.9618 O   0  0  0  0  0  0  0  0  0  0  0  0
  1  2  1  0
  2  3  1  0
  4  3  1  0
  5  1  1  0
  5  4  1  0
  5  6  1  1
  7  6  2  0
  8  6  1  0
  9  8  1  0
  9 10  1  6
 11 10  1  0
 12  9  1  0
 12 13  2  0
 14 12  1  0
 15 14  1  0
 15 16  1  1
 16 17  1  0
 17 22  1  0
 17 18  2  0
 18 19  1  0
 19 20  2  0
 21 20  1  0
 22 21  2  0
 23 15  1  0
 24 23  2  0
 25 23  1  0
M  END
$$$$
