PCF.pdb
     RDKit          3D

 25 26  0  0  1  0  0  0  0  0999 V2000
   25.9867  -18.1542  -15.8956 N   0  0  0  0  0  0  0  0  0  0  0  0
   26.0001  -16.7488  -15.6486 C   0  0  0  0  0  0  0  0  0  0  0  0
   27.1243  -16.5043  -14.6706 C   0  0  0  0  0  0  0  0  0  0  0  0
   27.9436  -17.7887  -14.6823 C   0  0  0  0  0  0  0  0  0  0  0  0
   26.9103  -18.8124  -15.0297 C   0  0  1  0  0  0  0  0  0  0  0  0
   26.2297  -19.2395  -13.7641 C   0  0  0  0  0  0  0  0  0  0  0  0
   25.2518  -18.5966  -13.3006 O   0  0  0  0  0  0  0  0  0  0  0  0
   26.6427  -20.3817  -13.0209 N   0  0  0  0  0  0  0  0  0  0  0  0
   25.7959  -20.8986  -11.9340 C   0  0  1  0  0  0  0  0  0  0  0  0
   25.4252  -22.3175  -12.3354 C   0  0  0  0  0  0  0  0  0  0  0  0
   24.1909  -22.2798  -13.6525 S   0  0  0  0  0  0  0  0  0  0  0  0
   26.6257  -20.9225  -10.7035 C   0  0  0  0  0  0  0  0  0  0  0  0
   27.7541  -21.4668  -10.6439 O   0  0  0  0  0  0  0  0  0  0  0  0
   26.1322  -20.3042   -9.5305 N   0  0  0  0  0  0  0  0  0  0  0  0
   26.7551  -20.5689   -8.2355 C   0  0  1  0  0  0  0  0  0  0  0  0
   27.5330  -19.3632   -7.7638 C   0  0  0  0  0  0  0  0  0  0  0  0
   28.0871  -19.4767   -6.4175 C   0  0  0  0  0  0  0  0  0  0  0  0
   29.0755  -20.4296   -6.1814 C   0  0  0  0  0  0  0  0  0  0  0  0
   29.5919  -20.5137   -4.9100 C   0  0  0  0  0  0  0  0  0  0  0  0
   29.1588  -19.6896   -3.8852 C   0  0  0  0  0  0  0  0  0  0  0  0
   28.1783  -18.7470   -4.1274 C   0  0  0  0  0  0  0  0  0  0  0  0
   27.6483  -18.6477   -5.3965 C   0  0  0  0  0  0  0  0  0  0  0  0
   25.6740  -20.9348   -7.2918 C   0  0  0  0  0  0  0  0  0  0  0  0
   24.4557  -20.6264   -7.5196 O   0  0  0  0  0  0  0  0  0  0  0  0
   25.9775  -21.6296   -6.1307 O   0  0  0  0  0  0  0  0  0  0  0  0
  1  2  1  0
  2  3  1  0
  4  3  1  0
  5  1  1  0
  5  4  1  0
  5  6  1  1
  7  6  2  0
  8  6  1  0
  9  8  1  0
  9 10  1  6
 11 10  1  0
 12  9  1  0
 12 13  2  0
 14 12  1  0
 15 14  1  0
 15 16  1  1
 16 17  1  0
 17 22  1  0
 17 18  2  0
 18 19  1  0
 19 20  2  0
 21 20  1  0
 22 21  2  0
 23 15  1  0
 24 23  2  0
 25 23  1  0
M  END
$$$$
