PCF.pdb
     RDKit          3D

 25 26  0  0  1  0  0  0  0  0999 V2000
   26.8611  -18.7864  -16.0796 N   0  0  0  0  0  0  0  0  0  0  0  0
   27.9831  -17.9057  -16.0334 C   0  0  0  0  0  0  0  0  0  0  0  0
   28.9960  -18.5623  -15.1261 C   0  0  0  0  0  0  0  0  0  0  0  0
   28.5171  -20.0007  -14.9759 C   0  0  0  0  0  0  0  0  0  0  0  0
   27.0391  -19.8554  -15.1515 C   0  0  1  0  0  0  0  0  0  0  0  0
   26.4419  -19.5013  -13.8228 C   0  0  0  0  0  0  0  0  0  0  0  0
   26.2844  -18.3011  -13.4777 O   0  0  0  0  0  0  0  0  0  0  0  0
   26.0231  -20.4873  -12.8847 N   0  0  0  0  0  0  0  0  0  0  0  0
   25.2806  -20.0878  -11.6787 C   0  0  1  0  0  0  0  0  0  0  0  0
   23.9399  -20.8002  -11.7614 C   0  0  0  0  0  0  0  0  0  0  0  0
   24.1982  -22.5586  -12.0790 S   0  0  0  0  0  0  0  0  0  0  0  0
   26.0448  -20.5847  -10.5071 C   0  0  0  0  0  0  0  0  0  0  0  0
   26.6524  -21.6818  -10.4957 O   0  0  0  0  0  0  0  0  0  0  0  0
   26.0995  -19.7916   -9.3366 N   0  0  0  0  0  0  0  0  0  0  0  0
   26.7885  -20.2786   -8.1437 C   0  0  1  0  0  0  0  0  0  0  0  0
   27.5614  -19.1616   -7.4833 C   0  0  0  0  0  0  0  0  0  0  0  0
   28.1836  -19.5131   -6.2098 C   0  0  0  0  0  0  0  0  0  0  0  0
   27.7612  -18.8547   -5.0571 C   0  0  0  0  0  0  0  0  0  0  0  0
   28.3516  -19.2073   -3.8666 C   0  0  0  0  0  0  0  0  0  0  0  0
   29.3339  -20.1804   -3.7935 C   0  0  0  0  0  0  0  0  0  0  0  0
   29.7473  -20.8288   -4.9412 C   0  0  0  0  0  0  0  0  0  0  0  0
   29.1665  -20.4887   -6.1447 C   0  0  0  0  0  0  0  0  0  0  0  0
   25.7613  -20.8499   -7.2426 C   0  0  0  0  0  0  0  0  0  0  0  0
   24.5337  -20.5073   -7.3269 O   0  0  0  0  0  0  0  0  0  0  0  0
   26.1270  -21.7802   -6.2814 O   0  0  0  0  0  0  0  0  0  0  0  0
  1  2  1  0
  2  3  1  0
  4  3  1  0
  5  1  1  0
  5  4  1  0
  5  6  1  1
  7  6  2  0
  8  6  1  0
  9  8  1  0
  9 10  1  6
 11 10  1  0
 12  9  1  0
 12 13  2  0
 14 12  1  0
 15 14  1  0
 15 16  1  1
 16 17  1  0
 17 22  1  0
 17 18  2  0
 18 19  1  0
 19 20  2  0
 21 20  1  0
 22 21  2  0
 23 15  1  0
 24 23  2  0
 25 23  1  0
M  END
$$$$
