PCF.pdb
     RDKit          3D

 25 26  0  0  1  0  0  0  0  0999 V2000
   27.6952  -22.6771  -15.7191 N   0  0  0  0  0  0  0  0  0  0  0  0
   26.6860  -22.8671  -16.7100 C   0  0  0  0  0  0  0  0  0  0  0  0
   26.5048  -21.5298  -17.3874 C   0  0  0  0  0  0  0  0  0  0  0  0
   27.7139  -20.7057  -16.9632 C   0  0  0  0  0  0  0  0  0  0  0  0
   28.0376  -21.2950  -15.6275 C   0  0  1  0  0  0  0  0  0  0  0  0
   27.1906  -20.6121  -14.5962 C   0  0  0  0  0  0  0  0  0  0  0  0
   27.1423  -19.3566  -14.5193 O   0  0  0  0  0  0  0  0  0  0  0  0
   26.4012  -21.3323  -13.6551 N   0  0  0  0  0  0  0  0  0  0  0  0
   25.6019  -20.6059  -12.6556 C   0  0  1  0  0  0  0  0  0  0  0  0
   24.1615  -21.0363  -12.8833 C   0  0  0  0  0  0  0  0  0  0  0  0
   23.1356  -20.5035  -11.4964 S   0  0  0  0  0  0  0  0  0  0  0  0
   26.0576  -21.0560  -11.3165 C   0  0  0  0  0  0  0  0  0  0  0  0
   26.0847  -22.2602  -10.9668 O   0  0  0  0  0  0  0  0  0  0  0  0
   26.4860  -20.0894  -10.3763 N   0  0  0  0  0  0  0  0  0  0  0  0
   26.8637  -20.4894   -9.0227 C   0  0  1  0  0  0  0  0  0  0  0  0
   27.7109  -19.4227   -8.3703 C   0  0  0  0  0  0  0  0  0  0  0  0
   28.0243  -19.6605   -6.9641 C   0  0  0  0  0  0  0  0  0  0  0  0
   27.4315  -18.8462   -6.0018 C   0  0  0  0  0  0  0  0  0  0  0  0
   27.7311  -19.0929   -4.6829 C   0  0  0  0  0  0  0  0  0  0  0  0
   28.5896  -20.1103   -4.3023 C   0  0  0  0  0  0  0  0  0  0  0  0
   29.1734  -20.9136   -5.2627 C   0  0  0  0  0  0  0  0  0  0  0  0
   28.8850  -20.6815   -6.5910 C   0  0  0  0  0  0  0  0  0  0  0  0
   25.6126  -20.7403   -8.2710 C   0  0  0  0  0  0  0  0  0  0  0  0
   24.5541  -20.0597   -8.4894 O   0  0  0  0  0  0  0  0  0  0  0  0
   25.5754  -21.7351   -7.3055 O   0  0  0  0  0  0  0  0  0  0  0  0
  1  2  1  0
  2  3  1  0
  4  3  1  0
  5  1  1  0
  5  4  1  0
  5  6  1  1
  7  6  2  0
  8  6  1  0
  9  8  1  0
  9 10  1  6
 11 10  1  0
 12  9  1  0
 12 13  2  0
 14 12  1  0
 15 14  1  0
 15 16  1  1
 16 17  1  0
 17 22  1  0
 17 18  2  0
 18 19  1  0
 19 20  2  0
 21 20  1  0
 22 21  2  0
 23 15  1  0
 24 23  2  0
 25 23  1  0
M  END
$$$$
