PCF.pdb
     RDKit          3D

 25 26  0  0  1  0  0  0  0  0999 V2000
   26.8836  -21.5491  -19.7048 N   0  0  0  0  0  0  0  0  0  0  0  0
   27.0168  -20.5404  -20.7054 C   0  0  0  0  0  0  0  0  0  0  0  0
   28.5000  -20.3294  -20.8950 C   0  0  0  0  0  0  0  0  0  0  0  0
   29.1584  -21.5228  -20.2144 C   0  0  0  0  0  0  0  0  0  0  0  0
   28.1615  -21.8635  -19.1531 C   0  0  1  0  0  0  0  0  0  0  0  0
   28.4408  -21.0064  -17.9553 C   0  0  0  0  0  0  0  0  0  0  0  0
   29.5670  -21.0184  -17.3932 O   0  0  0  0  0  0  0  0  0  0  0  0
   27.4629  -20.1397  -17.3896 N   0  0  0  0  0  0  0  0  0  0  0  0
   27.7645  -19.3941  -16.1572 C   0  0  1  0  0  0  0  0  0  0  0  0
   27.3111  -17.9658  -16.4146 C   0  0  0  0  0  0  0  0  0  0  0  0
   27.4965  -16.9832  -14.9113 S   0  0  0  0  0  0  0  0  0  0  0  0
   26.9509  -19.9938  -15.0701 C   0  0  0  0  0  0  0  0  0  0  0  0
   25.7703  -20.3862  -15.2293 O   0  0  0  0  0  0  0  0  0  0  0  0
   27.5225  -20.1366  -13.7837 N   0  0  0  0  0  0  0  0  0  0  0  0
   26.6854  -20.4746  -12.6348 C   0  0  1  0  0  0  0  0  0  0  0  0
   27.4633  -20.3261  -11.3486 C   0  0  0  0  0  0  0  0  0  0  0  0
   26.6800  -20.5142  -10.1307 C   0  0  0  0  0  0  0  0  0  0  0  0
   26.4651  -19.4167   -9.3000 C   0  0  0  0  0  0  0  0  0  0  0  0
   25.7163  -19.6119   -8.1636 C   0  0  0  0  0  0  0  0  0  0  0  0
   25.1849  -20.8480   -7.8372 C   0  0  0  0  0  0  0  0  0  0  0  0
   25.4024  -21.9315   -8.6664 C   0  0  0  0  0  0  0  0  0  0  0  0
   26.1509  -21.7551   -9.8108 C   0  0  0  0  0  0  0  0  0  0  0  0
   25.5025  -19.5843  -12.6730 C   0  0  0  0  0  0  0  0  0  0  0  0
   25.5965  -18.3639  -13.0376 O   0  0  0  0  0  0  0  0  0  0  0  0
   24.2577  -20.0748  -12.3081 O   0  0  0  0  0  0  0  0  0  0  0  0
  1  2  1  0
  2  3  1  0
  4  3  1  0
  5  1  1  0
  5  4  1  0
  5  6  1  1
  7  6  2  0
  8  6  1  0
  9  8  1  0
  9 10  1  6
 11 10  1  0
 12  9  1  0
 12 13  2  0
 14 12  1  0
 15 14  1  0
 15 16  1  1
 16 17  1  0
 17 22  1  0
 17 18  2  0
 18 19  1  0
 19 20  2  0
 21 20  1  0
 22 21  2  0
 23 15  1  0
 24 23  2  0
 25 23  1  0
M  END
$$$$
