PCF.pdb
     RDKit          3D

 25 26  0  0  1  0  0  0  0  0999 V2000
   26.9123  -19.5740  -15.5948 N   0  0  0  0  0  0  0  0  0  0  0  0
   26.9146  -18.2660  -16.1654 C   0  0  0  0  0  0  0  0  0  0  0  0
   28.0545  -17.5233  -15.5102 C   0  0  0  0  0  0  0  0  0  0  0  0
   28.8878  -18.6014  -14.8288 C   0  0  0  0  0  0  0  0  0  0  0  0
   27.8597  -19.6455  -14.5302 C   0  0  1  0  0  0  0  0  0  0  0  0
   27.2082  -19.3017  -13.2245 C   0  0  0  0  0  0  0  0  0  0  0  0
   27.5473  -18.2774  -12.5763 O   0  0  0  0  0  0  0  0  0  0  0  0
   26.1815  -20.1019  -12.6474 N   0  0  0  0  0  0  0  0  0  0  0  0
   25.6197  -19.7447  -11.3350 C   0  0  1  0  0  0  0  0  0  0  0  0
   24.1194  -19.9617  -11.4525 C   0  0  0  0  0  0  0  0  0  0  0  0
   23.7851  -21.6469  -12.0077 S   0  0  0  0  0  0  0  0  0  0  0  0
   26.1899  -20.6884  -10.3410 C   0  0  0  0  0  0  0  0  0  0  0  0
   26.6138  -21.8305  -10.6395 O   0  0  0  0  0  0  0  0  0  0  0  0
   26.2656  -20.2937   -8.9844 N   0  0  0  0  0  0  0  0  0  0  0  0
   26.7349  -21.2302   -7.9658 C   0  0  1  0  0  0  0  0  0  0  0  0
   28.1280  -20.8656   -7.5102 C   0  0  0  0  0  0  0  0  0  0  0  0
   28.2020  -20.2543   -6.1861 C   0  0  0  0  0  0  0  0  0  0  0  0
   28.5996  -21.0430   -5.1088 C   0  0  0  0  0  0  0  0  0  0  0  0
   28.6732  -20.4464   -3.8723 C   0  0  0  0  0  0  0  0  0  0  0  0
   28.3670  -19.1096   -3.6823 C   0  0  0  0  0  0  0  0  0  0  0  0
   27.9735  -18.3341   -4.7557 C   0  0  0  0  0  0  0  0  0  0  0  0
   27.8940  -18.9149   -6.0038 C   0  0  0  0  0  0  0  0  0  0  0  0
   25.7604  -21.1952   -6.8511 C   0  0  0  0  0  0  0  0  0  0  0  0
   25.8369  -22.0106   -5.8710 O   0  0  0  0  0  0  0  0  0  0  0  0
   24.7368  -20.2596   -6.8586 O   0  0  0  0  0  0  0  0  0  0  0  0
  1  2  1  0
  2  3  1  0
  4  3  1  0
  5  1  1  0
  5  4  1  0
  5  6  1  1
  7  6  2  0
  8  6  1  0
  9  8  1  0
  9 10  1  6
 11 10  1  0
 12  9  1  0
 12 13  2  0
 14 12  1  0
 15 14  1  0
 15 16  1  1
 16 17  1  0
 17 22  1  0
 17 18  2  0
 18 19  1  0
 19 20  2  0
 21 20  1  0
 22 21  2  0
 23 15  1  0
 24 23  2  0
 25 23  1  0
M  END
$$$$
