PCF.pdb
     RDKit          3D

 25 26  0  0  1  0  0  0  0  0999 V2000
   15.2674  -10.8886  -13.7638 N   0  0  0  0  0  0  0  0  0  0  0  0
   16.2919  -11.2859  -14.6744 C   0  0  0  0  0  0  0  0  0  0  0  0
   17.3851  -11.9022  -13.8347 C   0  0  0  0  0  0  0  0  0  0  0  0
   16.7467  -12.1458  -12.4730 C   0  0  0  0  0  0  0  0  0  0  0  0
   15.7101  -11.0693  -12.4195 C   0  0  1  0  0  0  0  0  0  0  0  0
   16.3596   -9.8184  -11.9086 C   0  0  0  0  0  0  0  0  0  0  0  0
   17.0088   -9.8143  -10.8303 O   0  0  0  0  0  0  0  0  0  0  0  0
   16.2820   -8.5775  -12.6027 N   0  0  0  0  0  0  0  0  0  0  0  0
   16.9904   -7.3973  -12.0822 C   0  0  1  0  0  0  0  0  0  0  0  0
   17.4538   -6.6191  -13.3035 C   0  0  0  0  0  0  0  0  0  0  0  0
   19.1301   -7.1194  -13.7499 S   0  0  0  0  0  0  0  0  0  0  0  0
   16.0040   -6.5946  -11.3165 C   0  0  0  0  0  0  0  0  0  0  0  0
   14.8198   -6.4189  -11.6904 O   0  0  0  0  0  0  0  0  0  0  0  0
   16.4054   -5.9909  -10.1015 N   0  0  0  0  0  0  0  0  0  0  0  0
   15.4501   -5.2250   -9.3041 C   0  0  1  0  0  0  0  0  0  0  0  0
   15.2370   -5.8778   -7.9588 C   0  0  0  0  0  0  0  0  0  0  0  0
   14.1334   -6.8327   -7.9063 C   0  0  0  0  0  0  0  0  0  0  0  0
   14.4252   -8.1932   -7.9723 C   0  0  0  0  0  0  0  0  0  0  0  0
   13.3734   -9.0765   -7.9106 C   0  0  0  0  0  0  0  0  0  0  0  0
   12.0620   -8.6498   -7.7872 C   0  0  0  0  0  0  0  0  0  0  0  0
   11.7809   -7.2987   -7.7223 C   0  0  0  0  0  0  0  0  0  0  0  0
   12.8228   -6.3976   -7.7825 C   0  0  0  0  0  0  0  0  0  0  0  0
   15.9851   -3.8501   -9.1743 C   0  0  0  0  0  0  0  0  0  0  0  0
   17.1929   -3.5714   -9.4822 O   0  0  0  0  0  0  0  0  0  0  0  0
   15.1659   -2.8319   -8.7103 O   0  0  0  0  0  0  0  0  0  0  0  0
  1  2  1  0
  2  3  1  0
  4  3  1  0
  5  1  1  0
  5  4  1  0
  5  6  1  6
  7  6  2  0
  8  6  1  0
  9  8  1  0
  9 10  1  6
 11 10  1  0
 12  9  1  0
 12 13  2  0
 14 12  1  0
 15 14  1  0
 15 16  1  1
 16 17  1  0
 17 22  1  0
 17 18  2  0
 18 19  1  0
 19 20  2  0
 21 20  1  0
 22 21  2  0
 23 15  1  0
 24 23  2  0
 25 23  1  0
M  END
$$$$
