PCF.pdb
     RDKit          3D

 25 26  0  0  1  0  0  0  0  0999 V2000
   27.1517  -20.5052  -16.3213 N   0  0  0  0  0  0  0  0  0  0  0  0
   28.4959  -20.0297  -16.2602 C   0  0  0  0  0  0  0  0  0  0  0  0
   29.1807  -20.8414  -15.1867 C   0  0  0  0  0  0  0  0  0  0  0  0
   28.2477  -22.0173  -14.9258 C   0  0  0  0  0  0  0  0  0  0  0  0
   26.9128  -21.4354  -15.2660 C   0  0  1  0  0  0  0  0  0  0  0  0
   26.3868  -20.7286  -14.0531 C   0  0  0  0  0  0  0  0  0  0  0  0
   26.6259  -19.5089  -13.8541 O   0  0  0  0  0  0  0  0  0  0  0  0
   25.5964  -21.3853  -13.0673 N   0  0  0  0  0  0  0  0  0  0  0  0
   24.9862  -20.6091  -11.9761 C   0  0  1  0  0  0  0  0  0  0  0  0
   23.5126  -20.9840  -11.9736 C   0  0  0  0  0  0  0  0  0  0  0  0
   22.7100  -20.3072  -10.5048 S   0  0  0  0  0  0  0  0  0  0  0  0
   25.6223  -21.0540  -10.7109 C   0  0  0  0  0  0  0  0  0  0  0  0
   25.8332  -22.2586  -10.4320 O   0  0  0  0  0  0  0  0  0  0  0  0
   26.0162  -20.0816   -9.7616 N   0  0  0  0  0  0  0  0  0  0  0  0
   26.6485  -20.4845   -8.5074 C   0  0  1  0  0  0  0  0  0  0  0  0
   27.6080  -19.4201   -8.0302 C   0  0  0  0  0  0  0  0  0  0  0  0
   28.1198  -19.6154   -6.6766 C   0  0  0  0  0  0  0  0  0  0  0  0
   29.2054  -20.4684   -6.4909 C   0  0  0  0  0  0  0  0  0  0  0  0
   29.6792  -20.6309   -5.2105 C   0  0  0  0  0  0  0  0  0  0  0  0
   29.1119  -19.9788   -4.1289 C   0  0  0  0  0  0  0  0  0  0  0  0
   28.0355  -19.1344   -4.3214 C   0  0  0  0  0  0  0  0  0  0  0  0
   27.5463  -18.9587   -5.5986 C   0  0  0  0  0  0  0  0  0  0  0  0
   25.5664  -20.7348   -7.5277 C   0  0  0  0  0  0  0  0  0  0  0  0
   25.7279  -21.5325   -6.5433 O   0  0  0  0  0  0  0  0  0  0  0  0
   24.3449  -20.0938   -7.6700 O   0  0  0  0  0  0  0  0  0  0  0  0
  1  2  1  0
  2  3  1  0
  4  3  1  0
  5  1  1  0
  5  4  1  0
  5  6  1  1
  7  6  2  0
  8  6  1  0
  9  8  1  0
  9 10  1  1
 11 10  1  0
 12  9  1  0
 12 13  2  0
 14 12  1  0
 15 14  1  0
 15 16  1  1
 16 17  1  0
 17 22  1  0
 17 18  2  0
 18 19  1  0
 19 20  2  0
 21 20  1  0
 22 21  2  0
 23 15  1  0
 24 23  2  0
 25 23  1  0
M  END
$$$$
