PCF.pdb
     RDKit          3D

 25 26  0  0  1  0  0  0  0  0999 V2000
   26.8493  -20.1564  -15.9830 N   0  0  0  0  0  0  0  0  0  0  0  0
   27.9788  -19.2940  -16.1135 C   0  0  0  0  0  0  0  0  0  0  0  0
   28.9847  -19.7607  -15.0885 C   0  0  0  0  0  0  0  0  0  0  0  0
   28.4931  -21.1345  -14.6504 C   0  0  0  0  0  0  0  0  0  0  0  0
   27.0167  -21.0157  -14.8564 C   0  0  1  0  0  0  0  0  0  0  0  0
   26.4209  -20.3939  -13.6293 C   0  0  0  0  0  0  0  0  0  0  0  0
   26.5457  -19.1633  -13.3956 O   0  0  0  0  0  0  0  0  0  0  0  0
   25.6886  -21.1472  -12.6681 N   0  0  0  0  0  0  0  0  0  0  0  0
   25.0388  -20.4649  -11.5377 C   0  0  1  0  0  0  0  0  0  0  0  0
   23.6046  -20.9693  -11.5171 C   0  0  0  0  0  0  0  0  0  0  0  0
   22.7573  -20.3488  -10.0486 S   0  0  0  0  0  0  0  0  0  0  0  0
   25.7422  -20.8929  -10.3026 C   0  0  0  0  0  0  0  0  0  0  0  0
   26.0328  -22.0874  -10.0539 O   0  0  0  0  0  0  0  0  0  0  0  0
   26.1099  -19.9152   -9.3482 N   0  0  0  0  0  0  0  0  0  0  0  0
   26.7927  -20.3032   -8.1160 C   0  0  1  0  0  0  0  0  0  0  0  0
   27.5602  -19.1351   -7.5434 C   0  0  0  0  0  0  0  0  0  0  0  0
   28.1891  -19.3869   -6.2498 C   0  0  0  0  0  0  0  0  0  0  0  0
   29.3152  -20.2057   -6.2040 C   0  0  0  0  0  0  0  0  0  0  0  0
   29.8990  -20.4220   -4.9782 C   0  0  0  0  0  0  0  0  0  0  0  0
   29.4011  -19.8555   -3.8170 C   0  0  0  0  0  0  0  0  0  0  0  0
   28.2839  -19.0445   -3.8709 C   0  0  0  0  0  0  0  0  0  0  0  0
   27.6846  -18.8158   -5.0915 C   0  0  0  0  0  0  0  0  0  0  0  0
   25.7611  -20.8019   -7.1776 C   0  0  0  0  0  0  0  0  0  0  0  0
   25.9728  -21.8148   -6.4289 O   0  0  0  0  0  0  0  0  0  0  0  0
   24.5328  -20.1628   -7.0993 O   0  0  0  0  0  0  0  0  0  0  0  0
  1  2  1  0
  2  3  1  0
  4  3  1  0
  5  1  1  0
  5  4  1  0
  5  6  1  1
  7  6  2  0
  8  6  1  0
  9  8  1  0
  9 10  1  1
 11 10  1  0
 12  9  1  0
 12 13  2  0
 14 12  1  0
 15 14  1  0
 15 16  1  1
 16 17  1  0
 17 22  1  0
 17 18  2  0
 18 19  1  0
 19 20  2  0
 21 20  1  0
 22 21  2  0
 23 15  1  0
 24 23  2  0
 25 23  1  0
M  END
$$$$
