PCF.pdb
     RDKit          3D

 25 26  0  0  1  0  0  0  0  0999 V2000
   19.2012  -11.4653  -17.6818 N   0  0  0  0  0  0  0  0  0  0  0  0
   19.3214  -11.9266  -19.0269 C   0  0  0  0  0  0  0  0  0  0  0  0
   20.7873  -12.2181  -19.2421 C   0  0  0  0  0  0  0  0  0  0  0  0
   21.3950  -12.2373  -17.8452 C   0  0  0  0  0  0  0  0  0  0  0  0
   20.4950  -11.3017  -17.1028 C   0  0  1  0  0  0  0  0  0  0  0  0
   20.9926   -9.9039  -17.3171 C   0  0  0  0  0  0  0  0  0  0  0  0
   22.1957   -9.6003  -17.1053 O   0  0  0  0  0  0  0  0  0  0  0  0
   20.1462   -8.8508  -17.7666 N   0  0  0  0  0  0  0  0  0  0  0  0
   20.7005   -7.5065  -17.9931 C   0  0  1  0  0  0  0  0  0  0  0  0
   19.8326   -6.8756  -19.0704 C   0  0  0  0  0  0  0  0  0  0  0  0
   20.5132   -7.2457  -20.7012 S   0  0  0  0  0  0  0  0  0  0  0  0
   20.5569   -6.7518  -16.7229 C   0  0  0  0  0  0  0  0  0  0  0  0
   19.5540   -6.8453  -15.9755 O   0  0  0  0  0  0  0  0  0  0  0  0
   21.5957   -5.8790  -16.3218 N   0  0  0  0  0  0  0  0  0  0  0  0
   21.5131   -5.1649  -15.0497 C   0  0  1  0  0  0  0  0  0  0  0  0
   22.5551   -5.6777  -14.0840 C   0  0  0  0  0  0  0  0  0  0  0  0
   22.3476   -7.0486  -13.6258 C   0  0  0  0  0  0  0  0  0  0  0  0
   21.4600   -7.2736  -12.5760 C   0  0  0  0  0  0  0  0  0  0  0  0
   21.2704   -8.5722  -12.1662 C   0  0  0  0  0  0  0  0  0  0  0  0
   21.9287   -9.6343  -12.7625 C   0  0  0  0  0  0  0  0  0  0  0  0
   22.8074   -9.4028  -13.8031 C   0  0  0  0  0  0  0  0  0  0  0  0
   23.0105   -8.1069  -14.2281 C   0  0  0  0  0  0  0  0  0  0  0  0
   21.6884   -3.7233  -15.3402 C   0  0  0  0  0  0  0  0  0  0  0  0
   21.9155   -3.3033  -16.5248 O   0  0  0  0  0  0  0  0  0  0  0  0
   21.6053   -2.7970  -14.3114 O   0  0  0  0  0  0  0  0  0  0  0  0
  1  2  1  0
  2  3  1  0
  4  3  1  0
  5  1  1  0
  5  4  1  0
  5  6  1  6
  7  6  2  0
  8  6  1  0
  9  8  1  0
  9 10  1  6
 11 10  1  0
 12  9  1  0
 12 13  2  0
 14 12  1  0
 15 14  1  0
 15 16  1  1
 16 17  1  0
 17 22  1  0
 17 18  2  0
 18 19  1  0
 19 20  2  0
 21 20  1  0
 22 21  2  0
 23 15  1  0
 24 23  2  0
 25 23  1  0
M  END
$$$$
