DTE.pdb
     RDKit          3D

 25 24  0  0  1  0  0  0  0  0999 V2000
    9.1035  -14.8600   14.7044 N   0  0  0  0  0  0  0  0  0  0  0  0
    9.1477  -15.9076   15.7039 C   0  0  1  0  0  0  0  0  0  0  0  0
   10.0751  -16.9963   15.2133 C   0  0  0  0  0  0  0  0  0  0  0  0
    9.6165  -17.4688   13.8841 C   0  0  0  0  0  0  0  0  0  0  0  0
   10.4333  -17.5396   12.9281 O   0  0  0  0  0  0  0  0  0  0  0  0
    9.6290  -15.3011   16.9707 C   0  0  0  0  0  0  0  0  0  0  0  0
   10.7902  -14.8318   17.0683 O   0  0  0  0  0  0  0  0  0  0  0  0
    8.3140  -17.8539   13.5956 O   0  0  0  0  0  0  0  0  0  0  0  0
    7.6118  -12.7545   19.0620 C   0  0  0  0  0  0  0  0  0  0  0  0
    7.9700  -13.9239   19.9217 C   0  0  1  0  0  0  0  0  0  0  0  0
    6.8950  -14.7573   20.2069 O   0  0  0  0  0  0  0  0  0  0  0  0
    9.1603  -14.6717   19.3829 C   0  0  2  0  0  0  0  0  0  0  0  0
    8.7838  -15.2377   18.1074 N   0  0  0  0  0  0  0  0  0  0  0  0
    9.6294  -15.7599   20.2959 C   0  0  0  0  0  0  0  0  0  0  0  0
    9.4775  -16.9630   19.9217 O   0  0  0  0  0  0  0  0  0  0  0  0
   10.2269  -15.5273   21.5378 N   0  0  0  0  0  0  0  0  0  0  0  0
   10.6407  -16.5500   22.4902 C   0  0  1  0  0  0  0  0  0  0  0  0
   12.1000  -16.8585   22.3160 C   0  0  0  0  0  0  0  0  0  0  0  0
   12.9652  -15.6553   22.5189 C   0  0  0  0  0  0  0  0  0  0  0  0
   14.4037  -15.8809   22.3958 C   0  0  0  0  0  0  0  0  0  0  0  0
   14.9135  -17.0157   22.5694 O   0  0  0  0  0  0  0  0  0  0  0  0
   10.3411  -16.1541   23.8789 C   0  0  0  0  0  0  0  0  0  0  0  0
    9.8738  -15.0300   24.1182 O   0  0  0  0  0  0  0  0  0  0  0  0
   15.2271  -14.8013   22.0767 O   0  0  0  0  0  0  0  0  0  0  0  0
   10.5796  -17.0310   24.9069 O   0  0  0  0  0  0  0  0  0  0  0  0
  2  1  1  6
  3  2  1  0
  3  4  1  0
  4  8  1  0
  4  5  2  0
  6  2  1  0
  7  6  2  0
 10  9  1  6
 10 12  1  0
 11 10  1  0
 12 14  1  0
 12 13  1  6
 13  6  1  0
 14 16  1  0
 15 14  2  0
 16 17  1  0
 17 18  1  1
 17 22  1  0
 19 20  1  0
 19 18  1  0
 20 21  2  0
 22 23  2  0
 22 25  1  0
 24 20  1  0
M  END
$$$$
