DTE.pdb
     RDKit          3D

 25 24  0  0  1  0  0  0  0  0999 V2000
    8.0376  -18.2924   18.4270 N   0  0  0  0  0  0  0  0  0  0  0  0
    9.4498  -17.9711   18.4014 C   0  0  1  0  0  0  0  0  0  0  0  0
    9.7813  -17.3847   17.0478 C   0  0  0  0  0  0  0  0  0  0  0  0
   10.8901  -18.1577   16.4367 C   0  0  0  0  0  0  0  0  0  0  0  0
   11.2585  -19.2436   16.9574 O   0  0  0  0  0  0  0  0  0  0  0  0
    9.7124  -17.0079   19.5001 C   0  0  0  0  0  0  0  0  0  0  0  0
   10.8579  -16.5256   19.6839 O   0  0  0  0  0  0  0  0  0  0  0  0
   11.5809  -17.7695   15.2964 O   0  0  0  0  0  0  0  0  0  0  0  0
    7.0924  -14.1580   20.7477 C   0  0  0  0  0  0  0  0  0  0  0  0
    7.5101  -15.1110   21.8212 C   0  0  1  0  0  0  0  0  0  0  0  0
    6.5333  -16.0425   22.1520 O   0  0  0  0  0  0  0  0  0  0  0  0
    8.8420  -15.7449   21.5204 C   0  0  2  0  0  0  0  0  0  0  0  0
    8.6699  -16.6076   20.3737 N   0  0  0  0  0  0  0  0  0  0  0  0
    9.3848  -16.5372   22.6675 C   0  0  0  0  0  0  0  0  0  0  0  0
    9.2043  -17.7933   22.6666 O   0  0  0  0  0  0  0  0  0  0  0  0
   10.0808  -15.9729   23.7401 N   0  0  0  0  0  0  0  0  0  0  0  0
   10.5969  -16.6947   24.8963 C   0  0  1  0  0  0  0  0  0  0  0  0
   11.9971  -17.1667   24.6283 C   0  0  0  0  0  0  0  0  0  0  0  0
   12.9230  -16.0417   24.2900 C   0  0  0  0  0  0  0  0  0  0  0  0
   14.2983  -16.4245   23.9785 C   0  0  0  0  0  0  0  0  0  0  0  0
   14.5975  -17.0047   22.9052 O   0  0  0  0  0  0  0  0  0  0  0  0
   10.5351  -15.8760   26.1214 C   0  0  0  0  0  0  0  0  0  0  0  0
   10.1540  -14.6968   26.0630 O   0  0  0  0  0  0  0  0  0  0  0  0
   15.3013  -16.1345   24.9033 O   0  0  0  0  0  0  0  0  0  0  0  0
   10.8994  -16.4203   27.3271 O   0  0  0  0  0  0  0  0  0  0  0  0
  2  1  1  6
  3  2  1  0
  3  4  1  0
  4  8  1  0
  4  5  2  0
  6  2  1  0
  7  6  2  0
 10  9  1  6
 10 12  1  0
 11 10  1  0
 12 14  1  0
 12 13  1  6
 13  6  1  0
 14 16  1  0
 15 14  2  0
 16 17  1  0
 17 18  1  6
 17 22  1  0
 19 20  1  0
 19 18  1  0
 20 21  2  0
 22 23  2  0
 22 25  1  0
 24 20  1  0
M  END
$$$$
