DTE.pdb
     RDKit          3D

 25 24  0  0  1  0  0  0  0  0999 V2000
    8.2630  -16.8450   16.2542 N   0  0  0  0  0  0  0  0  0  0  0  0
    8.5376  -17.5678   17.4792 C   0  0  1  0  0  0  0  0  0  0  0  0
    9.6001  -18.6048   17.1934 C   0  0  0  0  0  0  0  0  0  0  0  0
    9.1550  -19.4663   16.0708 C   0  0  0  0  0  0  0  0  0  0  0  0
    8.2005  -20.2706   16.2383 O   0  0  0  0  0  0  0  0  0  0  0  0
    8.9874  -16.5809   18.4930 C   0  0  0  0  0  0  0  0  0  0  0  0
    9.9001  -15.7559   18.2390 O   0  0  0  0  0  0  0  0  0  0  0  0
    9.7238  -19.4593   14.8042 O   0  0  0  0  0  0  0  0  0  0  0  0
    6.4923  -16.1110   21.6853 C   0  0  0  0  0  0  0  0  0  0  0  0
    7.5300  -15.0644   21.4346 C   0  0  1  0  0  0  0  0  0  0  0  0
    7.7810  -14.2522   22.5341 O   0  0  0  0  0  0  0  0  0  0  0  0
    8.7849  -15.6499   20.8439 C   0  0  2  0  0  0  0  0  0  0  0  0
    8.3937  -16.5467   19.7802 N   0  0  0  0  0  0  0  0  0  0  0  0
    9.6124  -16.3908   21.8461 C   0  0  0  0  0  0  0  0  0  0  0  0
    9.2703  -17.5753   22.1470 O   0  0  0  0  0  0  0  0  0  0  0  0
   10.7419  -15.8533   22.4694 N   0  0  0  0  0  0  0  0  0  0  0  0
   11.6379  -16.5651   23.3720 C   0  0  1  0  0  0  0  0  0  0  0  0
   13.0212  -15.9865   23.2901 C   0  0  0  0  0  0  0  0  0  0  0  0
   13.9938  -16.7076   24.1682 C   0  0  0  0  0  0  0  0  0  0  0  0
   15.3647  -16.2026   24.1444 C   0  0  0  0  0  0  0  0  0  0  0  0
   15.7674  -15.4214   23.2468 O   0  0  0  0  0  0  0  0  0  0  0  0
   11.1359  -16.5535   24.7587 C   0  0  0  0  0  0  0  0  0  0  0  0
   10.2933  -15.7126   25.1082 O   0  0  0  0  0  0  0  0  0  0  0  0
   16.2449  -16.6035   25.1493 O   0  0  0  0  0  0  0  0  0  0  0  0
   11.6018  -17.4745   25.6627 O   0  0  0  0  0  0  0  0  0  0  0  0
  2  1  1  6
  3  2  1  0
  3  4  1  0
  4  8  1  0
  4  5  2  0
  6  2  1  0
  7  6  2  0
 10  9  1  1
 10 12  1  0
 11 10  1  0
 12 14  1  0
 12 13  1  6
 13  6  1  0
 14 16  1  0
 15 14  2  0
 16 17  1  0
 17 18  1  1
 17 22  1  0
 19 20  1  0
 19 18  1  0
 20 21  2  0
 22 23  2  0
 22 25  1  0
 24 20  1  0
M  END
$$$$
