DTE.pdb
     RDKit          3D

 25 24  0  0  1  0  0  0  0  0999 V2000
   11.7284  -16.1097   16.1642 N   0  0  0  0  0  0  0  0  0  0  0  0
   12.9106  -15.5553   16.7913 C   0  0  1  0  0  0  0  0  0  0  0  0
   13.5011  -14.5180   15.8632 C   0  0  0  0  0  0  0  0  0  0  0  0
   14.2189  -15.2001   14.7587 C   0  0  0  0  0  0  0  0  0  0  0  0
   14.4561  -16.4347   14.8336 O   0  0  0  0  0  0  0  0  0  0  0  0
   12.4967  -14.9641   18.0888 C   0  0  0  0  0  0  0  0  0  0  0  0
   13.3304  -14.4091   18.8473 O   0  0  0  0  0  0  0  0  0  0  0  0
   14.6673  -14.5676   13.6068 O   0  0  0  0  0  0  0  0  0  0  0  0
    8.9769  -12.9966   18.6527 C   0  0  0  0  0  0  0  0  0  0  0  0
    9.1832  -14.1638   19.5639 C   0  0  1  0  0  0  0  0  0  0  0  0
    8.4333  -15.2815   19.2180 O   0  0  0  0  0  0  0  0  0  0  0  0
   10.6438  -14.4770   19.7512 C   0  0  2  0  0  0  0  0  0  0  0  0
   11.1422  -15.0131   18.5050 N   0  0  0  0  0  0  0  0  0  0  0  0
   10.8950  -15.4555   20.8546 C   0  0  0  0  0  0  0  0  0  0  0  0
   10.7820  -16.6927   20.5954 O   0  0  0  0  0  0  0  0  0  0  0  0
   11.2485  -15.0850   22.1550 N   0  0  0  0  0  0  0  0  0  0  0  0
   11.4288  -15.9923   23.2812 C   0  0  1  0  0  0  0  0  0  0  0  0
   12.8265  -15.8783   23.8183 C   0  0  0  0  0  0  0  0  0  0  0  0
   13.8535  -16.3552   22.8410 C   0  0  0  0  0  0  0  0  0  0  0  0
   15.2431  -16.2528   23.2810 C   0  0  0  0  0  0  0  0  0  0  0  0
   15.5666  -16.3776   24.4884 O   0  0  0  0  0  0  0  0  0  0  0  0
   10.4294  -15.7527   24.3389 C   0  0  0  0  0  0  0  0  0  0  0  0
    9.6922  -14.7563   24.2840 O   0  0  0  0  0  0  0  0  0  0  0  0
   16.2322  -16.0093   22.3282 O   0  0  0  0  0  0  0  0  0  0  0  0
   10.3154  -16.6336   25.3847 O   0  0  0  0  0  0  0  0  0  0  0  0
  2  1  1  6
  3  2  1  0
  3  4  1  0
  4  8  1  0
  4  5  2  0
  6  2  1  0
  7  6  2  0
 10  9  1  6
 10 12  1  0
 11 10  1  0
 12 14  1  0
 12 13  1  6
 13  6  1  0
 14 16  1  0
 15 14  2  0
 16 17  1  0
 17 18  1  1
 17 22  1  0
 19 20  1  0
 19 18  1  0
 20 21  2  0
 22 23  2  0
 22 25  1  0
 24 20  1  0
M  END
$$$$
