DTE.pdb
     RDKit          3D

 25 24  0  0  1  0  0  0  0  0999 V2000
   13.0373  -14.1947   16.0448 N   0  0  0  0  0  0  0  0  0  0  0  0
   12.5798  -15.3229   16.8298 C   0  0  1  0  0  0  0  0  0  0  0  0
   13.7628  -16.2231   17.1060 C   0  0  0  0  0  0  0  0  0  0  0  0
   14.2787  -16.7619   15.8238 C   0  0  0  0  0  0  0  0  0  0  0  0
   13.4940  -17.3386   15.0253 O   0  0  0  0  0  0  0  0  0  0  0  0
   11.9874  -14.7893   18.0822 C   0  0  0  0  0  0  0  0  0  0  0  0
   12.7057  -14.2729   18.9743 O   0  0  0  0  0  0  0  0  0  0  0  0
   15.6034  -16.6802   15.4158 O   0  0  0  0  0  0  0  0  0  0  0  0
    7.7504  -13.3829   20.2229 C   0  0  0  0  0  0  0  0  0  0  0  0
    8.5111  -13.9813   19.0834 C   0  0  1  0  0  0  0  0  0  0  0  0
    8.4601  -13.2242   17.9192 O   0  0  0  0  0  0  0  0  0  0  0  0
    9.9166  -14.3479   19.4791 C   0  0  2  0  0  0  0  0  0  0  0  0
   10.5881  -14.8509   18.3022 N   0  0  0  0  0  0  0  0  0  0  0  0
    9.9690  -15.3760   20.5647 C   0  0  0  0  0  0  0  0  0  0  0  0
    9.4177  -16.4992   20.3531 O   0  0  0  0  0  0  0  0  0  0  0  0
   10.5920  -15.1704   21.7988 N   0  0  0  0  0  0  0  0  0  0  0  0
   10.6009  -16.1062   22.9161 C   0  0  1  0  0  0  0  0  0  0  0  0
   12.0027  -16.5688   23.1918 C   0  0  0  0  0  0  0  0  0  0  0  0
   13.0134  -15.4884   22.9710 C   0  0  0  0  0  0  0  0  0  0  0  0
   14.4111  -15.8881   23.1187 C   0  0  0  0  0  0  0  0  0  0  0  0
   14.7499  -16.8581   23.8414 O   0  0  0  0  0  0  0  0  0  0  0  0
    9.9853  -15.5208   24.1216 C   0  0  0  0  0  0  0  0  0  0  0  0
    9.6380  -14.3298   24.1269 O   0  0  0  0  0  0  0  0  0  0  0  0
   15.3905  -15.1677   22.4354 O   0  0  0  0  0  0  0  0  0  0  0  0
    9.7967  -16.2954   25.2383 O   0  0  0  0  0  0  0  0  0  0  0  0
  2  1  1  6
  3  2  1  0
  3  4  1  0
  4  8  1  0
  4  5  2  0
  6  2  1  0
  7  6  2  0
 10  9  1  1
 10 12  1  0
 11 10  1  0
 12 14  1  0
 12 13  1  6
 13  6  1  0
 14 16  1  0
 15 14  2  0
 16 17  1  0
 17 18  1  1
 17 22  1  0
 19 20  1  0
 19 18  1  0
 20 21  2  0
 22 23  2  0
 22 25  1  0
 24 20  1  0
M  END
$$$$
