DTE.pdb
     RDKit          3D

 25 24  0  0  1  0  0  0  0  0999 V2000
    8.9454  -17.6445   16.9688 N   0  0  0  0  0  0  0  0  0  0  0  0
    8.6275  -18.0982   18.3072 C   0  0  1  0  0  0  0  0  0  0  0  0
    9.2171  -19.4775   18.4961 C   0  0  0  0  0  0  0  0  0  0  0  0
   10.3882  -19.6371   17.5997 C   0  0  0  0  0  0  0  0  0  0  0  0
   11.3843  -20.3057   17.9828 O   0  0  0  0  0  0  0  0  0  0  0  0
    9.2000  -17.1170   19.2630 C   0  0  0  0  0  0  0  0  0  0  0  0
   10.3889  -16.7243   19.1596 O   0  0  0  0  0  0  0  0  0  0  0  0
   10.4808  -19.0909   16.3265 O   0  0  0  0  0  0  0  0  0  0  0  0
    7.1236  -14.0018   20.8037 C   0  0  0  0  0  0  0  0  0  0  0  0
    7.7015  -14.9068   21.8439 C   0  0  1  0  0  0  0  0  0  0  0  0
    6.7608  -15.7263   22.4561 O   0  0  0  0  0  0  0  0  0  0  0  0
    8.8899  -15.6710   21.3240 C   0  0  2  0  0  0  0  0  0  0  0  0
    8.4134  -16.5972   20.3220 N   0  0  0  0  0  0  0  0  0  0  0  0
    9.6171  -16.4207   22.3950 C   0  0  0  0  0  0  0  0  0  0  0  0
    9.2902  -17.6282   22.6085 O   0  0  0  0  0  0  0  0  0  0  0  0
   10.6373  -15.8673   23.1737 N   0  0  0  0  0  0  0  0  0  0  0  0
   11.3836  -16.5581   24.2178 C   0  0  1  0  0  0  0  0  0  0  0  0
   12.8187  -16.1162   24.2060 C   0  0  0  0  0  0  0  0  0  0  0  0
   13.6214  -16.8137   23.1542 C   0  0  0  0  0  0  0  0  0  0  0  0
   15.0162  -16.3937   23.0385 C   0  0  0  0  0  0  0  0  0  0  0  0
   15.4954  -15.4824   23.7582 O   0  0  0  0  0  0  0  0  0  0  0  0
   10.7744  -16.3578   25.5458 C   0  0  0  0  0  0  0  0  0  0  0  0
    9.8735  -15.5183   25.6967 O   0  0  0  0  0  0  0  0  0  0  0  0
   15.8317  -17.0265   22.1006 O   0  0  0  0  0  0  0  0  0  0  0  0
   11.2051  -17.1017   26.6153 O   0  0  0  0  0  0  0  0  0  0  0  0
  2  1  1  6
  3  2  1  0
  3  4  1  0
  4  8  1  0
  4  5  2  0
  6  2  1  0
  7  6  2  0
 10  9  1  6
 10 12  1  0
 11 10  1  0
 12 14  1  0
 12 13  1  6
 13  6  1  0
 14 16  1  0
 15 14  2  0
 16 17  1  0
 17 18  1  1
 17 22  1  0
 19 20  1  0
 19 18  1  0
 20 21  2  0
 22 23  2  0
 22 25  1  0
 24 20  1  0
M  END
$$$$
