DTE.pdb
     RDKit          3D

 25 24  0  0  1  0  0  0  0  0999 V2000
   10.7188  -16.4813   19.1319 N   0  0  0  0  0  0  0  0  0  0  0  0
   11.5825  -16.7930   20.2523 C   0  0  1  0  0  0  0  0  0  0  0  0
   12.9698  -16.2776   19.9431 C   0  0  0  0  0  0  0  0  0  0  0  0
   13.4669  -16.9214   18.7025 C   0  0  0  0  0  0  0  0  0  0  0  0
   14.2707  -16.3043   17.9549 O   0  0  0  0  0  0  0  0  0  0  0  0
   11.0079  -16.1441   21.4577 C   0  0  0  0  0  0  0  0  0  0  0  0
   11.7454  -15.7020   22.3736 O   0  0  0  0  0  0  0  0  0  0  0  0
   13.1065  -18.1947   18.2818 O   0  0  0  0  0  0  0  0  0  0  0  0
    7.8887  -13.6163   21.4458 C   0  0  0  0  0  0  0  0  0  0  0  0
    7.6557  -14.8231   22.2969 C   0  0  1  0  0  0  0  0  0  0  0  0
    6.7912  -15.7499   21.7268 O   0  0  0  0  0  0  0  0  0  0  0  0
    8.9484  -15.4399   22.7603 C   0  0  2  0  0  0  0  0  0  0  0  0
    9.6043  -16.0078   21.6044 N   0  0  0  0  0  0  0  0  0  0  0  0
    8.7516  -16.5004   23.7970 C   0  0  0  0  0  0  0  0  0  0  0  0
    8.6722  -17.7071   23.4121 O   0  0  0  0  0  0  0  0  0  0  0  0
    8.6513  -16.2382   25.1662 N   0  0  0  0  0  0  0  0  0  0  0  0
    8.3882  -17.2245   26.2065 C   0  0  1  0  0  0  0  0  0  0  0  0
    8.7111  -16.6509   27.5562 C   0  0  0  0  0  0  0  0  0  0  0  0
   10.1721  -16.3782   27.7251 C   0  0  0  0  0  0  0  0  0  0  0  0
   10.5585  -15.7536   28.9883 C   0  0  0  0  0  0  0  0  0  0  0  0
   11.0210  -16.4242   29.9446 O   0  0  0  0  0  0  0  0  0  0  0  0
    6.9982  -17.7143   26.1534 C   0  0  0  0  0  0  0  0  0  0  0  0
    6.1346  -17.0700   25.5384 O   0  0  0  0  0  0  0  0  0  0  0  0
   10.4065  -14.3743   29.1289 O   0  0  0  0  0  0  0  0  0  0  0  0
    6.6607  -18.8846   26.7853 O   0  0  0  0  0  0  0  0  0  0  0  0
  2  1  1  6
  3  2  1  0
  3  4  1  0
  4  8  1  0
  4  5  2  0
  6  2  1  0
  7  6  2  0
 10  9  1  6
 10 12  1  0
 11 10  1  0
 12 14  1  0
 12 13  1  6
 13  6  1  0
 14 16  1  0
 15 14  2  0
 16 17  1  0
 17 18  1  1
 17 22  1  0
 19 20  1  0
 19 18  1  0
 20 21  2  0
 22 23  2  0
 22 25  1  0
 24 20  1  0
M  END
$$$$
