DTE.pdb
     RDKit          3D

 25 24  0  0  1  0  0  0  0  0999 V2000
    8.9701  -16.9939   16.6127 N   0  0  0  0  0  0  0  0  0  0  0  0
    8.8161  -17.6127   17.9133 C   0  0  1  0  0  0  0  0  0  0  0  0
    9.6155  -18.8960   17.9289 C   0  0  0  0  0  0  0  0  0  0  0  0
    9.1396  -19.7833   16.8395 C   0  0  0  0  0  0  0  0  0  0  0  0
    8.1549  -19.4375   16.1346 O   0  0  0  0  0  0  0  0  0  0  0  0
    9.3013  -16.6472   18.9315 C   0  0  0  0  0  0  0  0  0  0  0  0
   10.3666  -16.0030   18.7629 O   0  0  0  0  0  0  0  0  0  0  0  0
    9.7106  -21.0081   16.5204 O   0  0  0  0  0  0  0  0  0  0  0  0
    7.4694  -13.6923   20.2997 C   0  0  0  0  0  0  0  0  0  0  0  0
    7.7567  -14.6145   21.4407 C   0  0  1  0  0  0  0  0  0  0  0  0
    6.6465  -15.3294   21.8740 O   0  0  0  0  0  0  0  0  0  0  0  0
    8.9455  -15.4956   21.1634 C   0  0  2  0  0  0  0  0  0  0  0  0
    8.5691  -16.4287   20.1258 N   0  0  0  0  0  0  0  0  0  0  0  0
    9.4099  -16.2478   22.3703 C   0  0  0  0  0  0  0  0  0  0  0  0
    8.9632  -17.4214   22.5534 O   0  0  0  0  0  0  0  0  0  0  0  0
   10.3092  -15.7321   23.3077 N   0  0  0  0  0  0  0  0  0  0  0  0
   10.8198  -16.4364   24.4771 C   0  0  1  0  0  0  0  0  0  0  0  0
   12.2834  -16.1509   24.6543 C   0  0  0  0  0  0  0  0  0  0  0  0
   13.0980  -16.6011   23.4834 C   0  0  0  0  0  0  0  0  0  0  0  0
   14.5300  -16.3217   23.5624 C   0  0  0  0  0  0  0  0  0  0  0  0
   15.0593  -15.8654   24.6062 O   0  0  0  0  0  0  0  0  0  0  0  0
   10.0585  -16.0956   25.6933 C   0  0  0  0  0  0  0  0  0  0  0  0
    9.2309  -15.1716   25.6707 O   0  0  0  0  0  0  0  0  0  0  0  0
   15.3248  -16.5711   22.4437 O   0  0  0  0  0  0  0  0  0  0  0  0
   10.2663  -16.8023   26.8509 O   0  0  0  0  0  0  0  0  0  0  0  0
  2  1  1  6
  3  2  1  0
  3  4  1  0
  4  8  1  0
  4  5  2  0
  6  2  1  0
  7  6  2  0
 10  9  1  6
 10 12  1  0
 11 10  1  0
 12 14  1  0
 12 13  1  6
 13  6  1  0
 14 16  1  0
 15 14  2  0
 16 17  1  0
 17 18  1  1
 17 22  1  0
 19 20  1  0
 19 18  1  0
 20 21  2  0
 22 23  2  0
 22 25  1  0
 24 20  1  0
M  END
$$$$
