DTE.pdb
     RDKit          3D

 25 24  0  0  1  0  0  0  0  0999 V2000
    8.3278  -15.4774   14.7780 N   0  0  0  0  0  0  0  0  0  0  0  0
    8.4219  -16.3577   15.9245 C   0  0  1  0  0  0  0  0  0  0  0  0
    9.1348  -17.6212   15.4986 C   0  0  0  0  0  0  0  0  0  0  0  0
    8.3259  -18.3170   14.4680 C   0  0  0  0  0  0  0  0  0  0  0  0
    7.1735  -18.7367   14.7537 O   0  0  0  0  0  0  0  0  0  0  0  0
    9.1655  -15.6352   16.9871 C   0  0  0  0  0  0  0  0  0  0  0  0
   10.3129  -15.1686   16.7771 O   0  0  0  0  0  0  0  0  0  0  0  0
    8.7492  -18.5524   13.1667 O   0  0  0  0  0  0  0  0  0  0  0  0
    7.7071  -12.7383   19.0831 C   0  0  0  0  0  0  0  0  0  0  0  0
    8.1340  -13.8561   19.9794 C   0  0  1  0  0  0  0  0  0  0  0  0
    7.0764  -14.6080   20.4769 O   0  0  0  0  0  0  0  0  0  0  0  0
    9.2048  -14.7040   19.3463 C   0  0  2  0  0  0  0  0  0  0  0  0
    8.5945  -15.4542   18.2722 N   0  0  0  0  0  0  0  0  0  0  0  0
    9.8517  -15.6461   20.3118 C   0  0  0  0  0  0  0  0  0  0  0  0
    9.4357  -16.8444   20.3496 O   0  0  0  0  0  0  0  0  0  0  0  0
   10.8895  -15.2820   21.1743 N   0  0  0  0  0  0  0  0  0  0  0  0
   11.5871  -16.1727   22.0930 C   0  0  1  0  0  0  0  0  0  0  0  0
   12.9866  -15.6810   22.3271 C   0  0  0  0  0  0  0  0  0  0  0  0
   13.7552  -16.5686   23.2538 C   0  0  0  0  0  0  0  0  0  0  0  0
   15.1485  -16.1921   23.4822 C   0  0  0  0  0  0  0  0  0  0  0  0
   15.4590  -15.1868   24.1685 O   0  0  0  0  0  0  0  0  0  0  0  0
   10.8555  -16.3254   23.3643 C   0  0  0  0  0  0  0  0  0  0  0  0
   11.1674  -17.2272   24.1572 O   0  0  0  0  0  0  0  0  0  0  0  0
   16.1559  -16.9752   22.9191 O   0  0  0  0  0  0  0  0  0  0  0  0
    9.8286  -15.4682   23.6699 O   0  0  0  0  0  0  0  0  0  0  0  0
  2  1  1  6
  3  2  1  0
  3  4  1  0
  4  8  1  0
  4  5  2  0
  6  2  1  0
  7  6  2  0
 10  9  1  6
 10 12  1  0
 11 10  1  0
 12 14  1  0
 12 13  1  6
 13  6  1  0
 14 16  1  0
 15 14  2  0
 16 17  1  0
 17 18  1  1
 17 22  1  0
 19 20  1  0
 19 18  1  0
 20 21  2  0
 22 23  2  0
 22 25  1  0
 24 20  1  0
M  END
$$$$
