DTE.pdb
     RDKit          3D

 25 24  0  0  1  0  0  0  0  0999 V2000
    7.2475  -18.0841   18.2174 N   0  0  0  0  0  0  0  0  0  0  0  0
    8.5857  -17.7740   17.7575 C   0  0  1  0  0  0  0  0  0  0  0  0
    8.4875  -17.1752   16.3727 C   0  0  0  0  0  0  0  0  0  0  0  0
    8.1123  -18.2356   15.4055 C   0  0  0  0  0  0  0  0  0  0  0  0
    6.9512  -18.7227   15.4287 O   0  0  0  0  0  0  0  0  0  0  0  0
    9.1867  -16.8251   18.7284 C   0  0  0  0  0  0  0  0  0  0  0  0
   10.3103  -16.3034   18.5192 O   0  0  0  0  0  0  0  0  0  0  0  0
    8.9661  -18.7548   14.4414 O   0  0  0  0  0  0  0  0  0  0  0  0
    7.1453  -14.0508   20.9099 C   0  0  0  0  0  0  0  0  0  0  0  0
    7.8869  -15.0573   21.7297 C   0  0  1  0  0  0  0  0  0  0  0  0
    7.0678  -16.0210   22.3057 O   0  0  0  0  0  0  0  0  0  0  0  0
    9.0444  -15.6527   20.9733 C   0  0  2  0  0  0  0  0  0  0  0  0
    8.5024  -16.4838   19.9223 N   0  0  0  0  0  0  0  0  0  0  0  0
    9.9519  -16.4675   21.8397 C   0  0  0  0  0  0  0  0  0  0  0  0
    9.6953  -17.7021   21.9819 O   0  0  0  0  0  0  0  0  0  0  0  0
   11.0676  -15.9466   22.5010 N   0  0  0  0  0  0  0  0  0  0  0  0
   12.0355  -16.7137   23.2749 C   0  0  1  0  0  0  0  0  0  0  0  0
   13.4166  -16.1615   23.0685 C   0  0  0  0  0  0  0  0  0  0  0  0
   14.4540  -16.9196   23.8342 C   0  0  0  0  0  0  0  0  0  0  0  0
   15.8279  -16.4469   23.6792 C   0  0  0  0  0  0  0  0  0  0  0  0
   16.6075  -16.9440   22.8288 O   0  0  0  0  0  0  0  0  0  0  0  0
   11.6831  -16.7485   24.7065 C   0  0  0  0  0  0  0  0  0  0  0  0
   10.9074  -15.9023   25.1770 O   0  0  0  0  0  0  0  0  0  0  0  0
   16.2792  -15.4151   24.5020 O   0  0  0  0  0  0  0  0  0  0  0  0
   12.2142  -17.7189   25.5183 O   0  0  0  0  0  0  0  0  0  0  0  0
  2  1  1  1
  3  2  1  0
  3  4  1  0
  4  8  1  0
  4  5  2  0
  6  2  1  0
  7  6  2  0
 10  9  1  6
 10 12  1  0
 11 10  1  0
 12 14  1  0
 12 13  1  6
 13  6  1  0
 14 16  1  0
 15 14  2  0
 16 17  1  0
 17 18  1  1
 17 22  1  0
 19 20  1  0
 19 18  1  0
 20 21  2  0
 22 23  2  0
 22 25  1  0
 24 20  1  0
M  END
$$$$
