DTE.pdb
     RDKit          3D

 25 24  0  0  1  0  0  0  0  0999 V2000
    8.1846  -15.1625   14.3601 N   0  0  0  0  0  0  0  0  0  0  0  0
    9.2039  -15.9531   15.0193 C   0  0  1  0  0  0  0  0  0  0  0  0
   10.2063  -16.4016   13.9801 C   0  0  0  0  0  0  0  0  0  0  0  0
    9.5322  -17.2861   12.9983 C   0  0  0  0  0  0  0  0  0  0  0  0
   10.2093  -18.1112   12.3298 O   0  0  0  0  0  0  0  0  0  0  0  0
    9.8313  -15.1007   16.0605 C   0  0  0  0  0  0  0  0  0  0  0  0
   10.9501  -14.5609   15.8732 O   0  0  0  0  0  0  0  0  0  0  0  0
    8.1668  -17.2800   12.7460 O   0  0  0  0  0  0  0  0  0  0  0  0
    7.7201  -12.6773   18.5724 C   0  0  0  0  0  0  0  0  0  0  0  0
    8.5942  -13.6696   19.2698 C   0  0  1  0  0  0  0  0  0  0  0  0
    7.8954  -14.7306   19.8330 O   0  0  0  0  0  0  0  0  0  0  0  0
    9.7358  -14.1207   18.3982 C   0  0  2  0  0  0  0  0  0  0  0  0
    9.1784  -14.8753   17.2987 N   0  0  0  0  0  0  0  0  0  0  0  0
   10.7329  -14.9623   19.1299 C   0  0  0  0  0  0  0  0  0  0  0  0
   10.6212  -16.2243   19.0554 O   0  0  0  0  0  0  0  0  0  0  0  0
   11.7819  -14.4380   19.8902 N   0  0  0  0  0  0  0  0  0  0  0  0
   12.7982  -15.2132   20.5904 C   0  0  1  0  0  0  0  0  0  0  0  0
   14.0955  -14.4574   20.6203 C   0  0  0  0  0  0  0  0  0  0  0  0
   15.1984  -15.2428   21.2559 C   0  0  0  0  0  0  0  0  0  0  0  0
   16.4900  -14.5652   21.3439 C   0  0  0  0  0  0  0  0  0  0  0  0
   16.6258  -13.3554   21.0340 O   0  0  0  0  0  0  0  0  0  0  0  0
   12.3625  -15.5793   21.9510 C   0  0  0  0  0  0  0  0  0  0  0  0
   11.4694  -14.9282   22.5145 O   0  0  0  0  0  0  0  0  0  0  0  0
   17.5982  -15.2882   21.7848 O   0  0  0  0  0  0  0  0  0  0  0  0
   12.9462  -16.6420   22.5935 O   0  0  0  0  0  0  0  0  0  0  0  0
  2  1  1  6
  3  2  1  0
  3  4  1  0
  4  8  1  0
  4  5  2  0
  6  2  1  0
  7  6  2  0
 10  9  1  6
 10 12  1  0
 11 10  1  0
 12 14  1  0
 12 13  1  6
 13  6  1  0
 14 16  1  0
 15 14  2  0
 16 17  1  0
 17 18  1  1
 17 22  1  0
 19 20  1  0
 19 18  1  0
 20 21  2  0
 22 23  2  0
 22 25  1  0
 24 20  1  0
M  END
$$$$
