NIA.pdb
     RDKit          3D

 22 21  0  0  1  0  0  0  0  0999 V2000
   18.6477  -11.7435  -20.7474 N   0  0  0  0  0  0  0  0  0  0  0  0
   17.9898  -10.6205  -20.1648 C   0  0  0  0  0  0  0  0  0  0  0  0
   17.2208   -9.9627  -20.8993 O   0  0  0  0  0  0  0  0  0  0  0  0
   18.1765  -10.2106  -18.7549 C   0  0  0  0  0  0  0  0  0  0  0  0
   19.1257  -11.1457  -18.0896 C   0  0  2  0  0  0  0  0  0  0  0  0
   18.4830  -12.4048  -17.8663 N   0  0  0  0  0  0  0  0  0  0  0  0
   19.7559  -10.5854  -16.8764 C   0  0  0  0  0  0  0  0  0  0  0  0
   19.0589  -10.5151  -15.8311 O   0  0  0  0  0  0  0  0  0  0  0  0
   24.0591  -12.4542  -15.2349 C   0  0  0  0  0  0  0  0  0  0  0  0
   22.7505  -11.7093  -15.2745 C   0  0  0  0  0  0  0  0  0  0  0  0
   23.0046  -10.2322  -15.4971 C   0  0  2  0  0  0  0  0  0  0  0  0
   23.9550   -9.7800  -14.4315 C   0  0  0  0  0  0  0  0  0  0  0  0
   21.6940   -9.5643  -15.5812 C   0  0  2  0  0  0  0  0  0  0  0  0
   21.0767  -10.1239  -16.7997 N   0  0  0  0  0  0  0  0  0  0  0  0
   21.6768   -8.1206  -15.7330 C   0  0  0  0  0  0  0  0  0  0  0  0
   22.3121   -7.5572  -16.6598 O   0  0  0  0  0  0  0  0  0  0  0  0
   19.5295   -5.3719  -14.6731 C   0  0  0  0  0  0  0  0  0  0  0  0
   20.9635   -5.8194  -14.9827 C   0  0  2  0  0  0  0  0  0  0  0  0
   20.9509   -7.2739  -14.8553 N   0  0  0  0  0  0  0  0  0  0  0  0
   21.9268   -5.2233  -14.0509 C   0  0  0  0  0  0  0  0  0  0  0  0
   22.2795   -5.8164  -12.9966 O   0  0  0  0  0  0  0  0  0  0  0  0
   22.4721   -3.9872  -14.3133 O   0  0  0  0  0  0  0  0  0  0  0  0
  1  2  1  0
  2  4  1  0
  3  2  2  0
  4  5  1  0
  5  7  1  0
  5  6  1  1
  7  8  2  0
  9 10  1  0
 10 11  1  0
 11 12  1  1
 11 13  1  0
 13 14  1  6
 14  7  1  0
 15 13  1  0
 15 19  1  0
 16 15  2  0
 18 19  1  0
 18 17  1  1
 20 18  1  0
 21 20  2  0
 22 20  1  0
M  END
$$$$
