NIA.pdb
     RDKit          3D

 22 21  0  0  1  0  0  0  0  0999 V2000
   20.6879  -13.7206  -17.4113 N   0  0  0  0  0  0  0  0  0  0  0  0
   20.4117  -12.6914  -18.3587 C   0  0  0  0  0  0  0  0  0  0  0  0
   20.9167  -12.8097  -19.4965 O   0  0  0  0  0  0  0  0  0  0  0  0
   19.5688  -11.5130  -18.0560 C   0  0  0  0  0  0  0  0  0  0  0  0
   19.1392  -11.5653  -16.6310 C   0  0  2  0  0  0  0  0  0  0  0  0
   18.1491  -12.5853  -16.4645 N   0  0  0  0  0  0  0  0  0  0  0  0
   18.7276  -10.2541  -16.0885 C   0  0  0  0  0  0  0  0  0  0  0  0
   17.6142   -9.7919  -16.4496 O   0  0  0  0  0  0  0  0  0  0  0  0
   18.3293   -9.4056  -11.1715 C   0  0  0  0  0  0  0  0  0  0  0  0
   18.1445   -9.1953  -12.6516 C   0  0  0  0  0  0  0  0  0  0  0  0
   19.2587   -8.3217  -13.1912 C   0  0  2  0  0  0  0  0  0  0  0  0
   19.2829   -7.0726  -12.3652 C   0  0  0  0  0  0  0  0  0  0  0  0
   19.0512   -8.1845  -14.6434 C   0  0  2  0  0  0  0  0  0  0  0  0
   19.4853   -9.4815  -15.1984 N   0  0  0  0  0  0  0  0  0  0  0  0
   19.8059   -7.1604  -15.3429 C   0  0  0  0  0  0  0  0  0  0  0  0
   21.0573   -7.0949  -15.2449 O   0  0  0  0  0  0  0  0  0  0  0  0
   18.9414   -4.4777  -17.8067 C   0  0  0  0  0  0  0  0  0  0  0  0
   19.9350   -5.1326  -16.8391 C   0  0  2  0  0  0  0  0  0  0  0  0
   19.1821   -6.1877  -16.1668 N   0  0  0  0  0  0  0  0  0  0  0  0
   20.4576   -4.1659  -15.8676 C   0  0  0  0  0  0  0  0  0  0  0  0
   19.8817   -3.9596  -14.7660 O   0  0  0  0  0  0  0  0  0  0  0  0
   21.6033   -3.4550  -16.1438 O   0  0  0  0  0  0  0  0  0  0  0  0
  1  2  1  0
  2  4  1  0
  3  2  2  0
  4  5  1  0
  5  7  1  0
  5  6  1  6
  7  8  2  0
  9 10  1  0
 10 11  1  0
 11 12  1  1
 11 13  1  0
 13 14  1  6
 14  7  1  0
 15 13  1  0
 15 19  1  0
 16 15  2  0
 18 19  1  0
 18 17  1  6
 20 18  1  0
 21 20  2  0
 22 20  1  0
M  END
$$$$
