NIA.pdb
     RDKit          3D

 22 21  0  0  1  0  0  0  0  0999 V2000
   27.9134  -25.0358  -17.5144 N   0  0  0  0  0  0  0  0  0  0  0  0
   26.7185  -25.4279  -16.8423 C   0  0  0  0  0  0  0  0  0  0  0  0
   26.4737  -26.6524  -16.7767 O   0  0  0  0  0  0  0  0  0  0  0  0
   25.7757  -24.4640  -16.2317 C   0  0  0  0  0  0  0  0  0  0  0  0
   26.2913  -23.0798  -16.4222 C   0  0  2  0  0  0  0  0  0  0  0  0
   27.6051  -22.9752  -15.8643 N   0  0  0  0  0  0  0  0  0  0  0  0
   25.3656  -22.0325  -15.9436 C   0  0  0  0  0  0  0  0  0  0  0  0
   24.4007  -22.3877  -15.2182 O   0  0  0  0  0  0  0  0  0  0  0  0
   27.7237  -18.0805  -14.0865 C   0  0  0  0  0  0  0  0  0  0  0  0
   26.6201  -19.0812  -14.3094 C   0  0  0  0  0  0  0  0  0  0  0  0
   25.6230  -18.5345  -15.3108 C   0  0  2  0  0  0  0  0  0  0  0  0
   25.0888  -17.2524  -14.7505 C   0  0  0  0  0  0  0  0  0  0  0  0
   24.6614  -19.6095  -15.6115 C   0  0  2  0  0  0  0  0  0  0  0  0
   25.4798  -20.6671  -16.2367 N   0  0  0  0  0  0  0  0  0  0  0  0
   23.5839  -19.3161  -16.5390 C   0  0  0  0  0  0  0  0  0  0  0  0
   23.8202  -18.8595  -17.6860 O   0  0  0  0  0  0  0  0  0  0  0  0
   19.9803  -20.0982  -16.7811 C   0  0  0  0  0  0  0  0  0  0  0  0
   21.1297  -19.1332  -17.0970 C   0  0  2  0  0  0  0  0  0  0  0  0
   22.2197  -19.5256  -16.2082 N   0  0  0  0  0  0  0  0  0  0  0  0
   20.7422  -17.7383  -16.8615 C   0  0  0  0  0  0  0  0  0  0  0  0
   20.9044  -17.1883  -15.7394 O   0  0  0  0  0  0  0  0  0  0  0  0
   20.1861  -16.9920  -17.8753 O   0  0  0  0  0  0  0  0  0  0  0  0
  1  2  1  0
  2  4  1  0
  3  2  2  0
  4  5  1  0
  5  7  1  0
  5  6  1  1
  7  8  2  0
  9 10  1  0
 10 11  1  0
 11 12  1  1
 11 13  1  0
 13 14  1  6
 14  7  1  0
 15 13  1  0
 15 19  1  0
 16 15  2  0
 18 19  1  0
 18 17  1  1
 20 18  1  0
 21 20  2  0
 22 20  1  0
M  END
$$$$
