NIA.pdb
     RDKit          3D

 22 21  0  0  1  0  0  0  0  0999 V2000
   15.7593  -11.9255  -18.4831 N   0  0  0  0  0  0  0  0  0  0  0  0
   16.8908  -11.0808  -18.2840 C   0  0  0  0  0  0  0  0  0  0  0  0
   17.6919  -10.9625  -19.2368 O   0  0  0  0  0  0  0  0  0  0  0  0
   17.1498  -10.3534  -17.0212 C   0  0  0  0  0  0  0  0  0  0  0  0
   18.5758  -10.5326  -16.6309 C   0  0  2  0  0  0  0  0  0  0  0  0
   18.7665  -11.8465  -16.0966 N   0  0  0  0  0  0  0  0  0  0  0  0
   19.0876   -9.4616  -15.7513 C   0  0  0  0  0  0  0  0  0  0  0  0
   18.5218   -9.2931  -14.6400 O   0  0  0  0  0  0  0  0  0  0  0  0
   23.7121   -9.7197  -14.3467 C   0  0  0  0  0  0  0  0  0  0  0  0
   22.2748   -9.2687  -14.3467 C   0  0  0  0  0  0  0  0  0  0  0  0
   22.1520   -7.9380  -15.0608 C   0  0  2  0  0  0  0  0  0  0  0  0
   23.0580   -6.9731  -14.3600 C   0  0  0  0  0  0  0  0  0  0  0  0
   20.7185   -7.6066  -15.1381 C   0  0  2  0  0  0  0  0  0  0  0  0
   20.1600   -8.6144  -16.0607 N   0  0  0  0  0  0  0  0  0  0  0  0
   20.3502   -6.3073  -15.6708 C   0  0  0  0  0  0  0  0  0  0  0  0
   20.7759   -5.9187  -16.7878 O   0  0  0  0  0  0  0  0  0  0  0  0
   17.9596   -3.6186  -14.6886 C   0  0  0  0  0  0  0  0  0  0  0  0
   19.2112   -4.0661  -15.4539 C   0  0  2  0  0  0  0  0  0  0  0  0
   19.4994   -5.4133  -14.9701 N   0  0  0  0  0  0  0  0  0  0  0  0
   20.3447   -3.1694  -15.2039 C   0  0  0  0  0  0  0  0  0  0  0  0
   20.5335   -2.1344  -15.8973 O   0  0  0  0  0  0  0  0  0  0  0  0
   21.2372   -3.4445  -14.1929 O   0  0  0  0  0  0  0  0  0  0  0  0
  1  2  1  0
  2  4  1  0
  3  2  2  0
  4  5  1  0
  5  7  1  0
  5  6  1  1
  7  8  2  0
  9 10  1  0
 10 11  1  0
 11 12  1  1
 11 13  1  0
 13 14  1  6
 14  7  1  0
 15 13  1  0
 15 19  1  0
 16 15  2  0
 18 19  1  0
 18 17  1  1
 20 18  1  0
 21 20  2  0
 22 20  1  0
M  END
$$$$
