NIA.pdb
     RDKit          3D

 22 21  0  0  1  0  0  0  0  0999 V2000
   16.8266  -25.1527   -7.7451 N   0  0  0  0  0  0  0  0  0  0  0  0
   17.8200  -24.8822   -8.7317 C   0  0  0  0  0  0  0  0  0  0  0  0
   18.4402  -25.8603   -9.2033 O   0  0  0  0  0  0  0  0  0  0  0  0
   18.1400  -23.5186   -9.2103 C   0  0  0  0  0  0  0  0  0  0  0  0
   19.5870  -23.2439   -8.9894 C   0  0  2  0  0  0  0  0  0  0  0  0
   19.8664  -23.2384   -7.5857 N   0  0  0  0  0  0  0  0  0  0  0  0
   20.0739  -22.0373   -9.6893 C   0  0  0  0  0  0  0  0  0  0  0  0
   19.4995  -20.9445   -9.4455 O   0  0  0  0  0  0  0  0  0  0  0  0
   24.4856  -20.9947   -9.0337 C   0  0  0  0  0  0  0  0  0  0  0  0
   23.2715  -20.3222   -9.6191 C   0  0  0  0  0  0  0  0  0  0  0  0
   23.0617  -20.7878  -11.0456 C   0  0  2  0  0  0  0  0  0  0  0  0
   23.9181  -19.9281  -11.9235 C   0  0  0  0  0  0  0  0  0  0  0  0
   21.6103  -20.8023  -11.2988 C   0  0  2  0  0  0  0  0  0  0  0  0
   21.1314  -22.0158  -10.6083 N   0  0  0  0  0  0  0  0  0  0  0  0
   21.1628  -20.9047  -12.6760 C   0  0  0  0  0  0  0  0  0  0  0  0
   21.3741  -21.9430  -13.3522 O   0  0  0  0  0  0  0  0  0  0  0  0
   18.8506  -18.9937  -14.8495 C   0  0  0  0  0  0  0  0  0  0  0  0
   20.0525  -19.9383  -14.7256 C   0  0  2  0  0  0  0  0  0  0  0  0
   20.4699  -19.8523  -13.3291 N   0  0  0  0  0  0  0  0  0  0  0  0
   21.1443  -19.5411  -15.6209 C   0  0  0  0  0  0  0  0  0  0  0  0
   22.1451  -18.9023  -15.1989 O   0  0  0  0  0  0  0  0  0  0  0  0
   21.0969  -19.8627  -16.9582 O   0  0  0  0  0  0  0  0  0  0  0  0
  1  2  1  0
  2  4  1  0
  3  2  2  0
  4  5  1  0
  5  7  1  0
  5  6  1  1
  7  8  2  0
  9 10  1  0
 10 11  1  0
 11 12  1  6
 11 13  1  0
 13 14  1  1
 14  7  1  0
 15 13  1  0
 15 19  1  0
 16 15  2  0
 18 19  1  0
 18 17  1  1
 20 18  1  0
 21 20  2  0
 22 20  1  0
M  END
$$$$
