NIA.pdb
     RDKit          3D

 22 21  0  0  1  0  0  0  0  0999 V2000
   13.8481  -10.0820  -16.0472 N   0  0  0  0  0  0  0  0  0  0  0  0
   14.2437   -9.4380  -14.8381 C   0  0  0  0  0  0  0  0  0  0  0  0
   13.3484   -8.8798  -14.1669 O   0  0  0  0  0  0  0  0  0  0  0  0
   15.6425   -9.4043  -14.3553 C   0  0  0  0  0  0  0  0  0  0  0  0
   16.5210  -10.1006  -15.3359 C   0  0  2  0  0  0  0  0  0  0  0  0
   16.3013  -11.5128  -15.2600 N   0  0  0  0  0  0  0  0  0  0  0  0
   17.9449   -9.7217  -15.2280 C   0  0  0  0  0  0  0  0  0  0  0  0
   18.6123  -10.2084  -14.2786 O   0  0  0  0  0  0  0  0  0  0  0  0
   20.0812  -10.3094  -18.9978 C   0  0  0  0  0  0  0  0  0  0  0  0
   20.7464  -10.0009  -17.6819 C   0  0  0  0  0  0  0  0  0  0  0  0
   20.5612   -8.5362  -17.3414 C   0  0  2  0  0  0  0  0  0  0  0  0
   21.8595   -7.8465  -17.6274 C   0  0  0  0  0  0  0  0  0  0  0  0
   20.0289   -8.4634  -15.9695 C   0  0  2  0  0  0  0  0  0  0  0  0
   18.6130   -8.8578  -16.1058 N   0  0  0  0  0  0  0  0  0  0  0  0
   20.0378   -7.1722  -15.3060 C   0  0  0  0  0  0  0  0  0  0  0  0
   19.3083   -6.2305  -15.7072 O   0  0  0  0  0  0  0  0  0  0  0  0
   21.5145   -5.8551  -12.1449 C   0  0  0  0  0  0  0  0  0  0  0  0
   20.8752   -5.6029  -13.5161 C   0  0  2  0  0  0  0  0  0  0  0  0
   20.8598   -6.9029  -14.1808 N   0  0  0  0  0  0  0  0  0  0  0  0
   21.6433   -4.6276  -14.2974 C   0  0  0  0  0  0  0  0  0  0  0  0
   22.5205   -4.9894  -15.1265 O   0  0  0  0  0  0  0  0  0  0  0  0
   21.4180   -3.2793  -14.1383 O   0  0  0  0  0  0  0  0  0  0  0  0
  1  2  1  0
  2  4  1  0
  3  2  2  0
  4  5  1  0
  5  7  1  0
  5  6  1  1
  7  8  2  0
  9 10  1  0
 10 11  1  0
 11 12  1  1
 11 13  1  0
 13 14  1  6
 14  7  1  0
 15 13  1  0
 15 19  1  0
 16 15  2  0
 18 19  1  0
 18 17  1  1
 20 18  1  0
 21 20  2  0
 22 20  1  0
M  END
$$$$
