NIA.pdb
     RDKit          3D

 22 21  0  0  1  0  0  0  0  0999 V2000
   11.5545  -11.6193  -16.4306 N   0  0  0  0  0  0  0  0  0  0  0  0
   11.8064  -11.4212  -15.0412 C   0  0  0  0  0  0  0  0  0  0  0  0
   10.8863  -11.7107  -14.2454 O   0  0  0  0  0  0  0  0  0  0  0  0
   13.0864  -10.8976  -14.5138 C   0  0  0  0  0  0  0  0  0  0  0  0
   14.1949  -11.8092  -14.9116 C   0  0  2  0  0  0  0  0  0  0  0  0
   14.0294  -13.0767  -14.2681 N   0  0  0  0  0  0  0  0  0  0  0  0
   15.5386  -11.2252  -14.7206 C   0  0  0  0  0  0  0  0  0  0  0  0
   15.8908  -10.9320  -13.5486 O   0  0  0  0  0  0  0  0  0  0  0  0
   18.3076  -13.6489  -16.6373 C   0  0  0  0  0  0  0  0  0  0  0  0
   18.7796  -12.5768  -15.6903 C   0  0  0  0  0  0  0  0  0  0  0  0
   18.6894  -11.2208  -16.3605 C   0  0  2  0  0  0  0  0  0  0  0  0
   20.0908  -10.7411  -16.5816 C   0  0  0  0  0  0  0  0  0  0  0  0
   17.7935  -10.3818  -15.5455 C   0  0  2  0  0  0  0  0  0  0  0  0
   16.4557  -10.9714  -15.7491 N   0  0  0  0  0  0  0  0  0  0  0  0
   17.6835   -8.9753  -15.8879 C   0  0  0  0  0  0  0  0  0  0  0  0
   17.3433   -8.6124  -17.0423 O   0  0  0  0  0  0  0  0  0  0  0  0
   17.3614   -5.8261  -14.0328 C   0  0  0  0  0  0  0  0  0  0  0  0
   17.8643   -6.5280  -15.3004 C   0  0  2  0  0  0  0  0  0  0  0  0
   17.9498   -7.9431  -14.9510 N   0  0  0  0  0  0  0  0  0  0  0  0
   19.1735   -6.0145  -15.7170 C   0  0  0  0  0  0  0  0  0  0  0  0
   20.2391   -6.6361  -15.4600 O   0  0  0  0  0  0  0  0  0  0  0  0
   19.2656   -4.8269  -16.4066 O   0  0  0  0  0  0  0  0  0  0  0  0
  1  2  1  0
  2  4  1  0
  3  2  2  0
  4  5  1  0
  5  7  1  0
  5  6  1  1
  7  8  2  0
  9 10  1  0
 10 11  1  0
 11 12  1  1
 11 13  1  0
 13 14  1  6
 14  7  1  0
 15 13  1  0
 15 19  1  0
 16 15  2  0
 18 19  1  0
 18 17  1  1
 20 18  1  0
 21 20  2  0
 22 20  1  0
M  END
$$$$
