NIA.pdb
     RDKit          3D

 22 21  0  0  1  0  0  0  0  0999 V2000
   26.9018  -36.8054  -15.3047 N   0  0  0  0  0  0  0  0  0  0  0  0
   26.6199  -36.3323  -13.9894 C   0  0  0  0  0  0  0  0  0  0  0  0
   25.9141  -37.0605  -13.2578 O   0  0  0  0  0  0  0  0  0  0  0  0
   27.1188  -35.0409  -13.4659 C   0  0  0  0  0  0  0  0  0  0  0  0
   26.0332  -34.3637  -12.7037 C   0  0  2  0  0  0  0  0  0  0  0  0
   25.2938  -33.5064  -13.5792 N   0  0  0  0  0  0  0  0  0  0  0  0
   26.5045  -33.6855  -11.4787 C   0  0  0  0  0  0  0  0  0  0  0  0
   27.2807  -32.7040  -11.6118 O   0  0  0  0  0  0  0  0  0  0  0  0
   23.3010  -31.3900   -8.9558 C   0  0  0  0  0  0  0  0  0  0  0  0
   24.6556  -31.8526   -9.4252 C   0  0  0  0  0  0  0  0  0  0  0  0
   25.2488  -32.8165   -8.4179 C   0  0  2  0  0  0  0  0  0  0  0  0
   25.2683  -32.1178   -7.0933 C   0  0  0  0  0  0  0  0  0  0  0  0
   26.5306  -33.2957   -8.9639 C   0  0  2  0  0  0  0  0  0  0  0  0
   26.1520  -34.0528  -10.1732 N   0  0  0  0  0  0  0  0  0  0  0  0
   27.3242  -34.1932   -8.1441 C   0  0  0  0  0  0  0  0  0  0  0  0
   26.9102  -35.3437   -7.8525 O   0  0  0  0  0  0  0  0  0  0  0  0
   30.7653  -34.0628   -6.6771 C   0  0  0  0  0  0  0  0  0  0  0  0
   29.3818  -34.7168   -6.7805 C   0  0  2  0  0  0  0  0  0  0  0  0
   28.5964  -33.8279   -7.6319 N   0  0  0  0  0  0  0  0  0  0  0  0
   28.7554  -34.8633   -5.4624 C   0  0  0  0  0  0  0  0  0  0  0  0
   29.0844  -35.7896   -4.6740 O   0  0  0  0  0  0  0  0  0  0  0  0
   27.7823  -33.9795   -5.0546 O   0  0  0  0  0  0  0  0  0  0  0  0
  1  2  1  0
  2  4  1  0
  3  2  2  0
  4  5  1  0
  5  7  1  0
  5  6  1  6
  7  8  2  0
  9 10  1  0
 10 11  1  0
 11 12  1  1
 11 13  1  0
 13 14  1  6
 14  7  1  0
 15 13  1  0
 15 19  1  0
 16 15  2  0
 18 19  1  0
 18 17  1  1
 20 18  1  0
 21 20  2  0
 22 20  1  0
M  END
$$$$
