NIA.pdb
     RDKit          3D

 22 21  0  0  1  0  0  0  0  0999 V2000
   19.7919  -10.6351  -22.1204 N   0  0  0  0  0  0  0  0  0  0  0  0
   20.5571  -10.5767  -20.9186 C   0  0  0  0  0  0  0  0  0  0  0  0
   21.6850  -11.1164  -20.9310 O   0  0  0  0  0  0  0  0  0  0  0  0
   20.0800   -9.9167  -19.6827 C   0  0  0  0  0  0  0  0  0  0  0  0
   20.6277  -10.6324  -18.4969 C   0  0  2  0  0  0  0  0  0  0  0  0
   20.0572  -11.9427  -18.4205 N   0  0  0  0  0  0  0  0  0  0  0  0
   20.5113   -9.8675  -17.2383 C   0  0  0  0  0  0  0  0  0  0  0  0
   19.3715   -9.7681  -16.7142 O   0  0  0  0  0  0  0  0  0  0  0  0
   21.1037  -10.7588  -13.2994 C   0  0  0  0  0  0  0  0  0  0  0  0
   22.2259  -10.5716  -14.2867 C   0  0  0  0  0  0  0  0  0  0  0  0
   22.5227   -9.0954  -14.4559 C   0  0  2  0  0  0  0  0  0  0  0  0
   22.7203   -8.5227  -13.0861 C   0  0  0  0  0  0  0  0  0  0  0  0
   21.4570   -8.5220  -15.2962 C   0  0  2  0  0  0  0  0  0  0  0  0
   21.5776   -9.2409  -16.5798 N   0  0  0  0  0  0  0  0  0  0  0  0
   21.5256   -7.1054  -15.6061 C   0  0  0  0  0  0  0  0  0  0  0  0
   22.6037   -6.5716  -15.9706 O   0  0  0  0  0  0  0  0  0  0  0  0
   19.0295   -4.3114  -15.7110 C   0  0  0  0  0  0  0  0  0  0  0  0
   20.4780   -4.8142  -15.7486 C   0  0  2  0  0  0  0  0  0  0  0  0
   20.3941   -6.2534  -15.5169 N   0  0  0  0  0  0  0  0  0  0  0  0
   21.2994   -4.1680  -14.7195 C   0  0  0  0  0  0  0  0  0  0  0  0
   21.4025   -4.6482  -13.5591 O   0  0  0  0  0  0  0  0  0  0  0  0
   21.9833   -3.0082  -15.0047 O   0  0  0  0  0  0  0  0  0  0  0  0
  1  2  1  0
  2  4  1  0
  3  2  2  0
  4  5  1  0
  5  7  1  0
  5  6  1  1
  7  8  2  0
  9 10  1  0
 10 11  1  0
 11 12  1  1
 11 13  1  0
 13 14  1  6
 14  7  1  0
 15 13  1  0
 15 19  1  0
 16 15  2  0
 18 19  1  0
 18 17  1  1
 20 18  1  0
 21 20  2  0
 22 20  1  0
M  END
$$$$
