NIA.pdb
     RDKit          3D

 22 21  0  0  1  0  0  0  0  0999 V2000
   16.3856  -11.5629  -18.4776 N   0  0  0  0  0  0  0  0  0  0  0  0
   16.5085  -12.0392  -17.1392 C   0  0  0  0  0  0  0  0  0  0  0  0
   15.7180  -12.9375  -16.7761 O   0  0  0  0  0  0  0  0  0  0  0  0
   17.5131  -11.5239  -16.1821 C   0  0  0  0  0  0  0  0  0  0  0  0
   18.3027  -10.4399  -16.8299 C   0  0  2  0  0  0  0  0  0  0  0  0
   19.4294  -11.0052  -17.5076 N   0  0  0  0  0  0  0  0  0  0  0  0
   18.6619   -9.3398  -15.9115 C   0  0  0  0  0  0  0  0  0  0  0  0
   17.7717   -8.9099  -15.1327 O   0  0  0  0  0  0  0  0  0  0  0  0
   22.9885   -9.9196  -13.8061 C   0  0  0  0  0  0  0  0  0  0  0  0
   21.6509   -9.2343  -13.7046 C   0  0  0  0  0  0  0  0  0  0  0  0
   21.6670   -7.9506  -14.5095 C   0  0  2  0  0  0  0  0  0  0  0  0
   22.4014   -6.9276  -13.6987 C   0  0  0  0  0  0  0  0  0  0  0  0
   20.2776   -7.6540  -14.8994 C   0  0  2  0  0  0  0  0  0  0  0  0
   19.9238   -8.7349  -15.8404 N   0  0  0  0  0  0  0  0  0  0  0  0
   20.0187   -6.4028  -15.5886 C   0  0  0  0  0  0  0  0  0  0  0  0
   20.5980   -6.1241  -16.6688 O   0  0  0  0  0  0  0  0  0  0  0  0
   17.5306   -3.6581  -15.2415 C   0  0  0  0  0  0  0  0  0  0  0  0
   18.8920   -4.1505  -15.7479 C   0  0  2  0  0  0  0  0  0  0  0  0
   19.1083   -5.4354  -15.0890 N   0  0  0  0  0  0  0  0  0  0  0  0
   19.9643   -3.2070  -15.4140 C   0  0  0  0  0  0  0  0  0  0  0  0
   20.6610   -3.3407  -14.3725 O   0  0  0  0  0  0  0  0  0  0  0  0
   20.2346   -2.1422  -16.2429 O   0  0  0  0  0  0  0  0  0  0  0  0
  1  2  1  0
  2  4  1  0
  3  2  2  0
  4  5  1  0
  5  7  1  0
  5  6  1  1
  7  8  2  0
  9 10  1  0
 10 11  1  0
 11 12  1  1
 11 13  1  0
 13 14  1  6
 14  7  1  0
 15 13  1  0
 15 19  1  0
 16 15  2  0
 18 19  1  0
 18 17  1  1
 20 18  1  0
 21 20  2  0
 22 20  1  0
M  END
$$$$
