NIA.pdb
     RDKit          3D

 22 21  0  0  1  0  0  0  0  0999 V2000
   21.1880  -12.2053  -20.9387 N   0  0  0  0  0  0  0  0  0  0  0  0
   20.2225  -11.2594  -20.4846 C   0  0  0  0  0  0  0  0  0  0  0  0
   19.4454  -10.7792  -21.3385 O   0  0  0  0  0  0  0  0  0  0  0  0
   20.1054  -10.8317  -19.0724 C   0  0  0  0  0  0  0  0  0  0  0  0
   21.1501  -11.5155  -18.2604 C   0  0  2  0  0  0  0  0  0  0  0  0
   20.8377  -12.9077  -18.1493 N   0  0  0  0  0  0  0  0  0  0  0  0
   21.4068  -10.8660  -16.9585 C   0  0  0  0  0  0  0  0  0  0  0  0
   20.6735  -11.1862  -15.9872 O   0  0  0  0  0  0  0  0  0  0  0  0
   26.3456   -9.5758  -15.6512 C   0  0  0  0  0  0  0  0  0  0  0  0
   24.9416   -9.2283  -16.0719 C   0  0  0  0  0  0  0  0  0  0  0  0
   23.9605   -9.6622  -15.0019 C   0  0  2  0  0  0  0  0  0  0  0  0
   24.1842  -11.1233  -14.7607 C   0  0  0  0  0  0  0  0  0  0  0  0
   22.6181   -9.2313  -15.4297 C   0  0  2  0  0  0  0  0  0  0  0  0
   22.4090   -9.9161  -16.7205 N   0  0  0  0  0  0  0  0  0  0  0  0
   22.4049   -7.8158  -15.6717 C   0  0  0  0  0  0  0  0  0  0  0  0
   22.9226   -7.2409  -16.6623 O   0  0  0  0  0  0  0  0  0  0  0  0
   20.0145   -5.2454  -14.7167 C   0  0  0  0  0  0  0  0  0  0  0  0
   21.4897   -5.5659  -14.9877 C   0  0  2  0  0  0  0  0  0  0  0  0
   21.6097   -7.0108  -14.8150 N   0  0  0  0  0  0  0  0  0  0  0  0
   22.3748   -4.8551  -14.0589 C   0  0  0  0  0  0  0  0  0  0  0  0
   22.6259   -3.6277  -14.1945 O   0  0  0  0  0  0  0  0  0  0  0  0
   22.9567   -5.5238  -13.0061 O   0  0  0  0  0  0  0  0  0  0  0  0
  1  2  1  0
  2  4  1  0
  3  2  2  0
  4  5  1  0
  5  7  1  0
  5  6  1  1
  7  8  2  0
  9 10  1  0
 10 11  1  0
 11 12  1  6
 11 13  1  0
 13 14  1  6
 14  7  1  0
 15 13  1  0
 15 19  1  0
 16 15  2  0
 18 19  1  0
 18 17  1  1
 20 18  1  0
 21 20  2  0
 22 20  1  0
M  END
$$$$
