PDD.pdb
     RDKit          3D

 24 24  0  0  1  0  0  0  0  0999 V2000
   20.6238  -12.6797  -16.2839 N   0  0  0  0  0  0  0  0  0  0  0  0
   20.1688  -13.8877  -16.9331 C   0  0  0  0  0  0  0  0  0  0  0  0
   21.1267  -14.0712  -18.0641 C   0  0  0  0  0  0  0  0  0  0  0  0
   21.3005  -12.6270  -18.5466 C   0  0  0  0  0  0  0  0  0  0  0  0
   21.3262  -11.8829  -17.2284 C   0  0  1  0  0  0  0  0  0  0  0  0
   20.7704  -10.5152  -17.3139 C   0  0  0  0  0  0  0  0  0  0  0  0
   21.4209   -9.5835  -17.8444 O   0  0  0  0  0  0  0  0  0  0  0  0
   19.4757  -10.1926  -16.8000 N   0  0  0  0  0  0  0  0  0  0  0  0
   18.9067   -8.8748  -16.8506 C   0  0  1  0  0  0  0  0  0  0  0  0
   17.4009   -8.8859  -16.9459 C   0  0  0  0  0  0  0  0  0  0  0  0
   16.9271   -9.5005  -18.2091 C   0  0  0  0  0  0  0  0  0  0  0  0
   17.4708   -9.3072  -19.3030 O   0  0  0  0  0  0  0  0  0  0  0  0
   19.3810   -8.0195  -15.7210 C   0  0  0  0  0  0  0  0  0  0  0  0
   19.2838   -8.4796  -14.5578 O   0  0  0  0  0  0  0  0  0  0  0  0
   15.8186  -10.3322  -18.1528 O   0  0  0  0  0  0  0  0  0  0  0  0
   19.9291   -6.7310  -15.8855 N   0  0  0  0  0  0  0  0  0  0  0  0
   20.3558   -5.8602  -14.8283 C   0  0  1  0  0  0  0  0  0  0  0  0
   21.8232   -5.9875  -14.5069 C   0  0  0  0  0  0  0  0  0  0  0  0
   22.2557   -5.0783  -13.4381 C   0  0  0  0  0  0  0  0  0  0  0  0
   22.2535   -5.4931  -12.2517 O   0  0  0  0  0  0  0  0  0  0  0  0
   19.9801   -4.4464  -15.0470 C   0  0  0  0  0  0  0  0  0  0  0  0
   19.9005   -4.0344  -16.2250 O   0  0  0  0  0  0  0  0  0  0  0  0
   22.6637   -3.7816  -13.7069 O   0  0  0  0  0  0  0  0  0  0  0  0
   19.7258   -3.6068  -14.0092 O   0  0  0  0  0  0  0  0  0  0  0  0
  2  1  1  0
  3  2  1  0
  4  3  1  0
  4  5  1  0
  5  6  1  6
  5  1  1  0
  6  8  1  0
  7  6  2  0
  8  9  1  0
  9 13  1  0
  9 10  1  1
 10 11  1  0
 11 12  2  0
 13 16  1  0
 13 14  2  0
 15 11  1  0
 16 17  1  0
 17 21  1  0
 17 18  1  6
 19 18  1  0
 20 19  2  0
 21 22  2  0
 21 24  1  0
 23 19  1  0
M  END
$$$$
