PDD.pdb
     RDKit          3D

 24 24  0  0  1  0  0  0  0  0999 V2000
   26.2142  -33.9322   -8.4655 N   0  0  0  0  0  0  0  0  0  0  0  0
   24.9474  -33.2567   -8.6292 C   0  0  0  0  0  0  0  0  0  0  0  0
   25.2503  -31.8353   -8.2848 C   0  0  0  0  0  0  0  0  0  0  0  0
   26.1944  -32.0113   -7.0906 C   0  0  0  0  0  0  0  0  0  0  0  0
   27.0111  -33.2039   -7.5409 C   0  0  1  0  0  0  0  0  0  0  0  0
   27.4732  -34.0561   -6.4242 C   0  0  0  0  0  0  0  0  0  0  0  0
   27.8540  -35.2342   -6.6229 O   0  0  0  0  0  0  0  0  0  0  0  0
   27.5072  -33.5815   -5.0758 N   0  0  0  0  0  0  0  0  0  0  0  0
   28.0198  -34.3497   -3.9760 C   0  0  1  0  0  0  0  0  0  0  0  0
   29.4631  -34.7501   -4.1581 C   0  0  0  0  0  0  0  0  0  0  0  0
   29.9492  -35.6032   -3.0474 C   0  0  0  0  0  0  0  0  0  0  0  0
   31.0139  -35.3996   -2.4519 O   0  0  0  0  0  0  0  0  0  0  0  0
   27.7991  -33.6642   -2.6668 C   0  0  0  0  0  0  0  0  0  0  0  0
   28.1355  -32.4591   -2.5733 O   0  0  0  0  0  0  0  0  0  0  0  0
   29.1654  -36.6808   -2.6631 O   0  0  0  0  0  0  0  0  0  0  0  0
   27.2372  -34.2900   -1.5354 N   0  0  0  0  0  0  0  0  0  0  0  0
   26.5134  -33.6318   -0.4861 C   0  0  1  0  0  0  0  0  0  0  0  0
   25.4170  -32.7300   -0.9932 C   0  0  0  0  0  0  0  0  0  0  0  0
   24.7280  -32.0062    0.0827 C   0  0  0  0  0  0  0  0  0  0  0  0
   25.3889  -31.2129    0.7993 O   0  0  0  0  0  0  0  0  0  0  0  0
   26.0030  -34.5614    0.5451 C   0  0  0  0  0  0  0  0  0  0  0  0
   25.9012  -35.7717    0.2475 O   0  0  0  0  0  0  0  0  0  0  0  0
   23.3742  -32.1773    0.3239 O   0  0  0  0  0  0  0  0  0  0  0  0
   25.6505  -34.1289    1.7841 O   0  0  0  0  0  0  0  0  0  0  0  0
  2  1  1  0
  3  2  1  0
  4  3  1  0
  4  5  1  0
  5  6  1  1
  5  1  1  0
  6  8  1  0
  7  6  2  0
  8  9  1  0
  9 13  1  0
  9 10  1  6
 10 11  1  0
 11 12  2  0
 13 16  1  0
 13 14  2  0
 15 11  1  0
 16 17  1  0
 17 21  1  0
 17 18  1  6
 19 18  1  0
 20 19  2  0
 21 22  2  0
 21 24  1  0
 23 19  1  0
M  END
$$$$
