PDD.pdb
     RDKit          3D

 24 24  0  0  1  0  0  0  0  0999 V2000
   19.0246  -11.8727  -17.5527 N   0  0  0  0  0  0  0  0  0  0  0  0
   19.0255  -13.3081  -17.7180 C   0  0  0  0  0  0  0  0  0  0  0  0
   18.5624  -13.8232  -16.3949 C   0  0  0  0  0  0  0  0  0  0  0  0
   19.2953  -12.8811  -15.4337 C   0  0  0  0  0  0  0  0  0  0  0  0
   19.1792  -11.5654  -16.1736 C   0  0  1  0  0  0  0  0  0  0  0  0
   20.3211  -10.6556  -15.9387 C   0  0  0  0  0  0  0  0  0  0  0  0
   20.6304  -10.2901  -14.7797 O   0  0  0  0  0  0  0  0  0  0  0  0
   21.1200  -10.1532  -17.0128 N   0  0  0  0  0  0  0  0  0  0  0  0
   22.2115   -9.2378  -16.8303 C   0  0  1  0  0  0  0  0  0  0  0  0
   23.2257   -9.2993  -17.9458 C   0  0  0  0  0  0  0  0  0  0  0  0
   23.8181  -10.6510  -18.0863 C   0  0  0  0  0  0  0  0  0  0  0  0
   23.3331  -11.5326  -18.8054 O   0  0  0  0  0  0  0  0  0  0  0  0
   21.7342   -7.8414  -16.5958 C   0  0  0  0  0  0  0  0  0  0  0  0
   21.2916   -7.2013  -17.5801 O   0  0  0  0  0  0  0  0  0  0  0  0
   24.9734  -10.9329  -17.3726 O   0  0  0  0  0  0  0  0  0  0  0  0
   21.7523   -7.2040  -15.3385 N   0  0  0  0  0  0  0  0  0  0  0  0
   21.2691   -5.8818  -15.0618 C   0  0  1  0  0  0  0  0  0  0  0  0
   19.7648   -5.7946  -15.0155 C   0  0  0  0  0  0  0  0  0  0  0  0
   19.2781   -4.4307  -14.7723 C   0  0  0  0  0  0  0  0  0  0  0  0
   19.8722   -3.4684  -15.3206 O   0  0  0  0  0  0  0  0  0  0  0  0
   21.8741   -5.2783  -13.8545 C   0  0  0  0  0  0  0  0  0  0  0  0
   22.6021   -5.9998  -13.1380 O   0  0  0  0  0  0  0  0  0  0  0  0
   18.1853   -4.1827  -13.9571 O   0  0  0  0  0  0  0  0  0  0  0  0
   21.6551   -3.9797  -13.5196 O   0  0  0  0  0  0  0  0  0  0  0  0
  2  1  1  0
  3  2  1  0
  4  3  1  0
  4  5  1  0
  5  6  1  6
  5  1  1  0
  6  8  1  0
  7  6  2  0
  8  9  1  0
  9 13  1  0
  9 10  1  6
 10 11  1  0
 11 12  2  0
 13 16  1  0
 13 14  2  0
 15 11  1  0
 16 17  1  0
 17 21  1  0
 17 18  1  1
 19 18  1  0
 20 19  2  0
 21 22  2  0
 21 24  1  0
 23 19  1  0
M  END
$$$$
