PDD.pdb
     RDKit          3D

 24 24  0  0  1  0  0  0  0  0999 V2000
   24.0396  -11.8272  -15.9063 N   0  0  0  0  0  0  0  0  0  0  0  0
   24.0925  -13.2547  -15.6888 C   0  0  0  0  0  0  0  0  0  0  0  0
   24.1055  -13.8286  -17.0676 C   0  0  0  0  0  0  0  0  0  0  0  0
   23.1020  -12.9164  -17.7811 C   0  0  0  0  0  0  0  0  0  0  0  0
   23.4494  -11.5737  -17.1742 C   0  0  1  0  0  0  0  0  0  0  0  0
   22.2923  -10.6590  -17.0679 C   0  0  0  0  0  0  0  0  0  0  0  0
   22.0971   -9.7595  -17.9197 O   0  0  0  0  0  0  0  0  0  0  0  0
   21.3490  -10.7555  -15.9977 N   0  0  0  0  0  0  0  0  0  0  0  0
   20.2108   -9.8902  -15.8616 C   0  0  1  0  0  0  0  0  0  0  0  0
   19.0154  -10.5798  -15.2515 C   0  0  0  0  0  0  0  0  0  0  0  0
   18.5155  -11.6857  -16.1030 C   0  0  0  0  0  0  0  0  0  0  0  0
   18.5027  -11.6375  -17.3387 O   0  0  0  0  0  0  0  0  0  0  0  0
   20.5521   -8.6312  -15.1328 C   0  0  0  0  0  0  0  0  0  0  0  0
   21.1901   -8.7324  -14.0572 O   0  0  0  0  0  0  0  0  0  0  0  0
   18.0404  -12.8273  -15.4749 O   0  0  0  0  0  0  0  0  0  0  0  0
   20.2004   -7.3419  -15.5816 N   0  0  0  0  0  0  0  0  0  0  0  0
   20.5934   -6.1051  -14.9700 C   0  0  1  0  0  0  0  0  0  0  0  0
   22.0876   -5.9533  -14.8392 C   0  0  0  0  0  0  0  0  0  0  0  0
   22.4817   -4.6773  -14.2288 C   0  0  0  0  0  0  0  0  0  0  0  0
   22.7716   -3.7109  -14.9782 O   0  0  0  0  0  0  0  0  0  0  0  0
   19.9926   -4.9168  -15.6141 C   0  0  0  0  0  0  0  0  0  0  0  0
   19.7504   -4.9713  -16.8397 O   0  0  0  0  0  0  0  0  0  0  0  0
   22.5405   -4.5160  -12.8537 O   0  0  0  0  0  0  0  0  0  0  0  0
   19.7063   -3.7911  -14.9089 O   0  0  0  0  0  0  0  0  0  0  0  0
  2  1  1  0
  3  2  1  0
  4  3  1  0
  4  5  1  0
  5  6  1  1
  5  1  1  0
  6  8  1  0
  7  6  2  0
  8  9  1  0
  9 13  1  0
  9 10  1  1
 10 11  1  0
 11 12  2  0
 13 16  1  0
 13 14  2  0
 15 11  1  0
 16 17  1  0
 17 21  1  0
 17 18  1  6
 19 18  1  0
 20 19  2  0
 21 22  2  0
 21 24  1  0
 23 19  1  0
M  END
$$$$
