PDD.pdb
     RDKit          3D

 24 24  0  0  1  0  0  0  0  0999 V2000
   25.7589  -10.5101  -16.7446 N   0  0  0  0  0  0  0  0  0  0  0  0
   26.6488  -10.9675  -15.7022 C   0  0  0  0  0  0  0  0  0  0  0  0
   26.9954  -12.3616  -16.1109 C   0  0  0  0  0  0  0  0  0  0  0  0
   25.6441  -12.8667  -16.6280 C   0  0  0  0  0  0  0  0  0  0  0  0
   25.1293  -11.6353  -17.3427 C   0  0  1  0  0  0  0  0  0  0  0  0
   23.6556  -11.5155  -17.3211 C   0  0  0  0  0  0  0  0  0  0  0  0
   22.9235  -12.4521  -17.7204 O   0  0  0  0  0  0  0  0  0  0  0  0
   23.0005  -10.3359  -16.8479 N   0  0  0  0  0  0  0  0  0  0  0  0
   21.5763  -10.2231  -16.7005 C   0  0  1  0  0  0  0  0  0  0  0  0
   20.9726  -11.3620  -15.9161 C   0  0  0  0  0  0  0  0  0  0  0  0
   20.6567  -12.5262  -16.7778 C   0  0  0  0  0  0  0  0  0  0  0  0
   20.0657  -12.4285  -17.8599 O   0  0  0  0  0  0  0  0  0  0  0  0
   21.1775   -8.8962  -16.1410 C   0  0  0  0  0  0  0  0  0  0  0  0
   19.9535   -8.6738  -15.9783 O   0  0  0  0  0  0  0  0  0  0  0  0
   21.0466  -13.7837  -16.3418 O   0  0  0  0  0  0  0  0  0  0  0  0
   22.0927   -7.8841  -15.7869 N   0  0  0  0  0  0  0  0  0  0  0  0
   21.7541   -6.6003  -15.2435 C   0  0  1  0  0  0  0  0  0  0  0  0
   22.7228   -6.1241  -14.1911 C   0  0  0  0  0  0  0  0  0  0  0  0
   22.4115   -4.7779  -13.6941 C   0  0  0  0  0  0  0  0  0  0  0  0
   21.6346   -4.6585  -12.7134 O   0  0  0  0  0  0  0  0  0  0  0  0
   21.5413   -5.5645  -16.2778 C   0  0  0  0  0  0  0  0  0  0  0  0
   22.0262   -5.7594  -17.4139 O   0  0  0  0  0  0  0  0  0  0  0  0
   22.9519   -3.6437  -14.2785 O   0  0  0  0  0  0  0  0  0  0  0  0
   20.8419   -4.4290  -16.0173 O   0  0  0  0  0  0  0  0  0  0  0  0
  2  1  1  0
  3  2  1  0
  4  3  1  0
  4  5  1  0
  5  6  1  1
  5  1  1  0
  6  8  1  0
  7  6  2  0
  8  9  1  0
  9 13  1  0
  9 10  1  1
 10 11  1  0
 11 12  2  0
 13 16  1  0
 13 14  2  0
 15 11  1  0
 16 17  1  0
 17 21  1  0
 17 18  1  1
 19 18  1  0
 20 19  2  0
 21 22  2  0
 21 24  1  0
 23 19  1  0
M  END
$$$$
