PDD.pdb
     RDKit          3D

 24 24  0  0  1  0  0  0  0  0999 V2000
   20.9358  -11.0524  -15.8629 N   0  0  0  0  0  0  0  0  0  0  0  0
   20.4272  -12.3951  -16.0256 C   0  0  0  0  0  0  0  0  0  0  0  0
   19.7467  -12.3636  -17.3547 C   0  0  0  0  0  0  0  0  0  0  0  0
   19.0723  -10.9882  -17.3132 C   0  0  0  0  0  0  0  0  0  0  0  0
   20.1443  -10.1607  -16.6366 C   0  0  1  0  0  0  0  0  0  0  0  0
   19.6041   -9.0545  -15.8172 C   0  0  0  0  0  0  0  0  0  0  0  0
   18.9709   -8.1082  -16.3428 O   0  0  0  0  0  0  0  0  0  0  0  0
   19.7767   -9.0114  -14.3985 N   0  0  0  0  0  0  0  0  0  0  0  0
   19.2537   -7.9642  -13.5661 C   0  0  1  0  0  0  0  0  0  0  0  0
   18.9989   -8.4104  -12.1474 C   0  0  0  0  0  0  0  0  0  0  0  0
   18.3267   -7.3603  -11.3453 C   0  0  0  0  0  0  0  0  0  0  0  0
   17.9425   -6.2854  -11.8212 O   0  0  0  0  0  0  0  0  0  0  0  0
   20.1052   -6.7373  -13.6134 C   0  0  0  0  0  0  0  0  0  0  0  0
   21.3011   -6.8405  -13.2482 O   0  0  0  0  0  0  0  0  0  0  0  0
   18.1223   -7.6032   -9.9952 O   0  0  0  0  0  0  0  0  0  0  0  0
   19.6449   -5.4758  -14.0427 N   0  0  0  0  0  0  0  0  0  0  0  0
   20.4689   -4.3412  -14.3453 C   0  0  1  0  0  0  0  0  0  0  0  0
   21.5846   -4.6549  -15.3094 C   0  0  0  0  0  0  0  0  0  0  0  0
   22.4051   -3.4819  -15.6362 C   0  0  0  0  0  0  0  0  0  0  0  0
   22.5855   -2.6039  -14.7551 O   0  0  0  0  0  0  0  0  0  0  0  0
   19.6979   -3.1600  -14.7906 C   0  0  0  0  0  0  0  0  0  0  0  0
   18.5054   -3.3286  -15.1269 O   0  0  0  0  0  0  0  0  0  0  0  0
   22.9813   -3.3225  -16.8863 O   0  0  0  0  0  0  0  0  0  0  0  0
   20.2545   -1.9212  -14.8387 O   0  0  0  0  0  0  0  0  0  0  0  0
  2  1  1  0
  3  2  1  0
  4  3  1  0
  4  5  1  0
  5  6  1  1
  5  1  1  0
  6  8  1  0
  7  6  2  0
  8  9  1  0
  9 13  1  0
  9 10  1  1
 10 11  1  0
 11 12  2  0
 13 16  1  0
 13 14  2  0
 15 11  1  0
 16 17  1  0
 17 21  1  0
 17 18  1  6
 19 18  1  0
 20 19  2  0
 21 22  2  0
 21 24  1  0
 23 19  1  0
M  END
$$$$
