PDD.pdb
     RDKit          3D

 24 24  0  0  1  0  0  0  0  0999 V2000
   19.5243  -12.3430  -15.6821 N   0  0  0  0  0  0  0  0  0  0  0  0
   19.0851  -13.5883  -16.2688 C   0  0  0  0  0  0  0  0  0  0  0  0
   20.1463  -13.9087  -17.2696 C   0  0  0  0  0  0  0  0  0  0  0  0
   20.4347  -12.5220  -17.8546 C   0  0  0  0  0  0  0  0  0  0  0  0
   20.3567  -11.6617  -16.6113 C   0  0  1  0  0  0  0  0  0  0  0  0
   19.8755  -10.2886  -16.8752 C   0  0  0  0  0  0  0  0  0  0  0  0
   20.5557   -9.4829  -17.5540 O   0  0  0  0  0  0  0  0  0  0  0  0
   18.6222   -9.8179  -16.3730 N   0  0  0  0  0  0  0  0  0  0  0  0
   18.1425   -8.4777  -16.5645 C   0  0  1  0  0  0  0  0  0  0  0  0
   16.6366   -8.3899  -16.6012 C   0  0  0  0  0  0  0  0  0  0  0  0
   16.0608   -9.1616  -17.7285 C   0  0  0  0  0  0  0  0  0  0  0  0
   15.6348  -10.3168  -17.6120 O   0  0  0  0  0  0  0  0  0  0  0  0
   18.7257   -7.5295  -15.5677 C   0  0  0  0  0  0  0  0  0  0  0  0
   18.8983   -7.9450  -14.3964 O   0  0  0  0  0  0  0  0  0  0  0  0
   16.0005   -8.5506  -18.9721 O   0  0  0  0  0  0  0  0  0  0  0  0
   19.0915   -6.2010  -15.8655 N   0  0  0  0  0  0  0  0  0  0  0  0
   19.8146   -5.3161  -14.9982 C   0  0  1  0  0  0  0  0  0  0  0  0
   21.0686   -5.9308  -14.4305 C   0  0  0  0  0  0  0  0  0  0  0  0
   21.8032   -5.0179  -13.5455 C   0  0  0  0  0  0  0  0  0  0  0  0
   21.3167   -3.8841  -13.3056 O   0  0  0  0  0  0  0  0  0  0  0  0
   20.0976   -3.9993  -15.6096 C   0  0  0  0  0  0  0  0  0  0  0  0
   20.3001   -3.9547  -16.8428 O   0  0  0  0  0  0  0  0  0  0  0  0
   23.0128   -5.3765  -12.9725 O   0  0  0  0  0  0  0  0  0  0  0  0
   20.1400   -2.8620  -14.8671 O   0  0  0  0  0  0  0  0  0  0  0  0
  2  1  1  0
  3  2  1  0
  4  3  1  0
  4  5  1  0
  5  6  1  6
  5  1  1  0
  6  8  1  0
  7  6  2  0
  8  9  1  0
  9 13  1  0
  9 10  1  1
 10 11  1  0
 11 12  2  0
 13 16  1  0
 13 14  2  0
 15 11  1  0
 16 17  1  0
 17 21  1  0
 17 18  1  6
 19 18  1  0
 20 19  2  0
 21 22  2  0
 21 24  1  0
 23 19  1  0
M  END
$$$$
