PDD.pdb
     RDKit          3D

 24 24  0  0  1  0  0  0  0  0999 V2000
   18.1294  -10.7208  -14.2210 N   0  0  0  0  0  0  0  0  0  0  0  0
   17.6539  -12.0712  -14.0254 C   0  0  0  0  0  0  0  0  0  0  0  0
   16.5524  -12.2130  -15.0239 C   0  0  0  0  0  0  0  0  0  0  0  0
   15.8764  -10.8416  -14.9209 C   0  0  0  0  0  0  0  0  0  0  0  0
   17.0805   -9.9360  -14.7728 C   0  0  1  0  0  0  0  0  0  0  0  0
   16.8128   -8.7292  -13.9613 C   0  0  0  0  0  0  0  0  0  0  0  0
   15.9660   -7.8787  -14.3249 O   0  0  0  0  0  0  0  0  0  0  0  0
   17.5011   -8.4763  -12.7338 N   0  0  0  0  0  0  0  0  0  0  0  0
   17.3038   -7.2950  -11.9412 C   0  0  1  0  0  0  0  0  0  0  0  0
   17.3741   -7.5616  -10.4577 C   0  0  0  0  0  0  0  0  0  0  0  0
   17.1066   -6.3416   -9.6590 C   0  0  0  0  0  0  0  0  0  0  0  0
   16.1617   -5.5764   -9.8855 O   0  0  0  0  0  0  0  0  0  0  0  0
   18.2257   -6.1914  -12.3470 C   0  0  0  0  0  0  0  0  0  0  0  0
   18.0144   -5.0486  -11.8739 O   0  0  0  0  0  0  0  0  0  0  0  0
   17.9630   -6.0511   -8.6074 O   0  0  0  0  0  0  0  0  0  0  0  0
   19.3145   -6.3587  -13.2268 N   0  0  0  0  0  0  0  0  0  0  0  0
   20.2011   -5.3216  -13.6702 C   0  0  1  0  0  0  0  0  0  0  0  0
   21.6547   -5.7173  -13.6175 C   0  0  0  0  0  0  0  0  0  0  0  0
   22.5552   -4.6493  -14.0700 C   0  0  0  0  0  0  0  0  0  0  0  0
   22.4732   -3.5178  -13.5290 O   0  0  0  0  0  0  0  0  0  0  0  0
   19.8462   -4.7767  -14.9988 C   0  0  0  0  0  0  0  0  0  0  0  0
   19.1517   -5.4861  -15.7592 O   0  0  0  0  0  0  0  0  0  0  0  0
   23.4872   -4.8600  -15.0735 O   0  0  0  0  0  0  0  0  0  0  0  0
   20.2550   -3.5434  -15.3966 O   0  0  0  0  0  0  0  0  0  0  0  0
  2  1  1  0
  3  2  1  0
  4  3  1  0
  4  5  1  0
  5  6  1  1
  5  1  1  0
  6  8  1  0
  7  6  2  0
  8  9  1  0
  9 13  1  0
  9 10  1  1
 10 11  1  0
 11 12  2  0
 13 16  1  0
 13 14  2  0
 15 11  1  0
 16 17  1  0
 17 21  1  0
 17 18  1  6
 19 18  1  0
 20 19  2  0
 21 22  2  0
 21 24  1  0
 23 19  1  0
M  END
$$$$
