PDD.pdb
     RDKit          3D

 24 24  0  0  1  0  0  0  0  0999 V2000
   19.5567  -12.8854  -15.6600 N   0  0  0  0  0  0  0  0  0  0  0  0
   19.0103  -14.1302  -16.1497 C   0  0  0  0  0  0  0  0  0  0  0  0
   19.5765  -14.2550  -17.5261 C   0  0  0  0  0  0  0  0  0  0  0  0
   19.4850  -12.8072  -18.0199 C   0  0  0  0  0  0  0  0  0  0  0  0
   19.8681  -12.0494  -16.7666 C   0  0  1  0  0  0  0  0  0  0  0  0
   19.2156  -10.7270  -16.6561 C   0  0  0  0  0  0  0  0  0  0  0  0
   19.4547   -9.8154  -17.4835 O   0  0  0  0  0  0  0  0  0  0  0  0
   18.2889  -10.4270  -15.6094 N   0  0  0  0  0  0  0  0  0  0  0  0
   17.6476   -9.1509  -15.4578 C   0  0  1  0  0  0  0  0  0  0  0  0
   16.2535   -9.2552  -14.8900 C   0  0  0  0  0  0  0  0  0  0  0  0
   15.3520  -10.0403  -15.7669 C   0  0  0  0  0  0  0  0  0  0  0  0
   15.2328   -9.8294  -16.9797 O   0  0  0  0  0  0  0  0  0  0  0  0
   18.4895   -8.1933  -14.6789 C   0  0  0  0  0  0  0  0  0  0  0  0
   18.8286   -8.5235  -13.5169 O   0  0  0  0  0  0  0  0  0  0  0  0
   14.6091  -11.0601  -15.1909 O   0  0  0  0  0  0  0  0  0  0  0  0
   18.9233   -6.9456  -15.1716 N   0  0  0  0  0  0  0  0  0  0  0  0
   19.7243   -5.9944  -14.4564 C   0  0  1  0  0  0  0  0  0  0  0  0
   21.1926   -6.0840  -14.7862 C   0  0  0  0  0  0  0  0  0  0  0  0
   22.0144   -5.1606  -13.9935 C   0  0  0  0  0  0  0  0  0  0  0  0
   21.4684   -4.5004  -13.0739 O   0  0  0  0  0  0  0  0  0  0  0  0
   19.2348   -4.6043  -14.5830 C   0  0  0  0  0  0  0  0  0  0  0  0
   18.8303   -4.2228  -15.7031 O   0  0  0  0  0  0  0  0  0  0  0  0
   23.3696   -5.0022  -14.2353 O   0  0  0  0  0  0  0  0  0  0  0  0
   19.2186   -3.7541  -13.5231 O   0  0  0  0  0  0  0  0  0  0  0  0
  2  1  1  0
  3  2  1  0
  4  3  1  0
  4  5  1  0
  5  6  1  1
  5  1  1  0
  6  8  1  0
  7  6  2  0
  8  9  1  0
  9 13  1  0
  9 10  1  1
 10 11  1  0
 11 12  2  0
 13 16  1  0
 13 14  2  0
 15 11  1  0
 16 17  1  0
 17 21  1  0
 17 18  1  6
 19 18  1  0
 20 19  2  0
 21 22  2  0
 21 24  1  0
 23 19  1  0
M  END
$$$$
