PDD.pdb
     RDKit          3D

 24 24  0  0  1  0  0  0  0  0999 V2000
   21.5410  -12.1466  -16.7280 N   0  0  0  0  0  0  0  0  0  0  0  0
   21.4245  -13.2361  -17.6699 C   0  0  0  0  0  0  0  0  0  0  0  0
   22.0797  -12.7144  -18.9065 C   0  0  0  0  0  0  0  0  0  0  0  0
   21.5842  -11.2643  -18.9188 C   0  0  0  0  0  0  0  0  0  0  0  0
   21.6486  -10.9241  -17.4451 C   0  0  1  0  0  0  0  0  0  0  0  0
   20.6224   -9.9472  -17.0214 C   0  0  0  0  0  0  0  0  0  0  0  0
   20.5686   -8.8023  -17.5303 O   0  0  0  0  0  0  0  0  0  0  0  0
   19.6508  -10.2588  -16.0197 N   0  0  0  0  0  0  0  0  0  0  0  0
   18.5980   -9.3637  -15.6285 C   0  0  1  0  0  0  0  0  0  0  0  0
   17.4321  -10.0710  -14.9828 C   0  0  0  0  0  0  0  0  0  0  0  0
   16.8396  -11.0968  -15.8742 C   0  0  0  0  0  0  0  0  0  0  0  0
   16.4417  -10.8520  -17.0193 O   0  0  0  0  0  0  0  0  0  0  0  0
   19.1050   -8.2458  -14.7764 C   0  0  0  0  0  0  0  0  0  0  0  0
   19.4497   -8.5163  -13.6007 O   0  0  0  0  0  0  0  0  0  0  0  0
   16.7299  -12.3928  -15.3926 O   0  0  0  0  0  0  0  0  0  0  0  0
   19.2179   -6.9107  -15.2147 N   0  0  0  0  0  0  0  0  0  0  0  0
   19.7748   -5.8249  -14.4604 C   0  0  1  0  0  0  0  0  0  0  0  0
   21.2750   -5.8969  -14.3307 C   0  0  0  0  0  0  0  0  0  0  0  0
   21.8329   -4.8025  -13.5261 C   0  0  0  0  0  0  0  0  0  0  0  0
   21.0456   -3.9858  -12.9851 O   0  0  0  0  0  0  0  0  0  0  0  0
   19.3463   -4.4949  -14.9454 C   0  0  0  0  0  0  0  0  0  0  0  0
   18.8062   -4.4252  -16.0711 O   0  0  0  0  0  0  0  0  0  0  0  0
   23.1991   -4.6514  -13.3513 O   0  0  0  0  0  0  0  0  0  0  0  0
   19.5270   -3.3719  -14.2019 O   0  0  0  0  0  0  0  0  0  0  0  0
  2  1  1  0
  3  2  1  0
  4  3  1  0
  4  5  1  0
  5  6  1  1
  5  1  1  0
  6  8  1  0
  7  6  2  0
  8  9  1  0
  9 13  1  0
  9 10  1  1
 10 11  1  0
 11 12  2  0
 13 16  1  0
 13 14  2  0
 15 11  1  0
 16 17  1  0
 17 21  1  0
 17 18  1  6
 19 18  1  0
 20 19  2  0
 21 22  2  0
 21 24  1  0
 23 19  1  0
M  END
$$$$
