PDD.pdb
     RDKit          3D

 24 24  0  0  1  0  0  0  0  0999 V2000
   18.6871  -12.7133  -16.5368 N   0  0  0  0  0  0  0  0  0  0  0  0
   18.0867  -13.7439  -17.3524 C   0  0  0  0  0  0  0  0  0  0  0  0
   19.1411  -14.7985  -17.4337 C   0  0  0  0  0  0  0  0  0  0  0  0
   20.4053  -13.9465  -17.5890 C   0  0  0  0  0  0  0  0  0  0  0  0
   20.1015  -12.8032  -16.6443 C   0  0  1  0  0  0  0  0  0  0  0  0
   20.7028  -11.5186  -17.0627 C   0  0  0  0  0  0  0  0  0  0  0  0
   21.9433  -11.3990  -17.2026 O   0  0  0  0  0  0  0  0  0  0  0  0
   19.9053  -10.3612  -17.3252 N   0  0  0  0  0  0  0  0  0  0  0  0
   20.4491   -9.1013  -17.7493 C   0  0  1  0  0  0  0  0  0  0  0  0
   19.9033   -8.6409  -19.0785 C   0  0  0  0  0  0  0  0  0  0  0  0
   20.5607   -7.3988  -19.5506 C   0  0  0  0  0  0  0  0  0  0  0  0
   21.7802   -7.2067  -19.4765 O   0  0  0  0  0  0  0  0  0  0  0  0
   20.3018   -8.0491  -16.6987 C   0  0  0  0  0  0  0  0  0  0  0  0
   19.2090   -7.9833  -16.0857 O   0  0  0  0  0  0  0  0  0  0  0  0
   19.7615   -6.4081  -20.1015 O   0  0  0  0  0  0  0  0  0  0  0  0
   21.3148   -7.1299  -16.3577 N   0  0  0  0  0  0  0  0  0  0  0  0
   21.2442   -6.1563  -15.3064 C   0  0  1  0  0  0  0  0  0  0  0  0
   22.5185   -6.0476  -14.5082 C   0  0  0  0  0  0  0  0  0  0  0  0
   22.4259   -5.0746  -13.4124 C   0  0  0  0  0  0  0  0  0  0  0  0
   22.6529   -3.8629  -13.6570 O   0  0  0  0  0  0  0  0  0  0  0  0
   20.7919   -4.8264  -15.7697 C   0  0  0  0  0  0  0  0  0  0  0  0
   21.1792   -4.4311  -16.8911 O   0  0  0  0  0  0  0  0  0  0  0  0
   22.0958   -5.4602  -12.1230 O   0  0  0  0  0  0  0  0  0  0  0  0
   19.9795   -4.0448  -15.0110 O   0  0  0  0  0  0  0  0  0  0  0  0
  2  1  1  0
  3  2  1  0
  4  3  1  0
  4  5  1  0
  5  6  1  6
  5  1  1  0
  6  8  1  0
  7  6  2  0
  8  9  1  0
  9 13  1  0
  9 10  1  6
 10 11  1  0
 11 12  2  0
 13 16  1  0
 13 14  2  0
 15 11  1  0
 16 17  1  0
 17 21  1  0
 17 18  1  6
 19 18  1  0
 20 19  2  0
 21 22  2  0
 21 24  1  0
 23 19  1  0
M  END
$$$$
