HEY.pdb
     RDKit          3D

 32 33  0  0  1  0  0  0  0  0999 V2000
   19.1810  -15.2990  -16.4645 N   0  0  0  0  0  0  0  0  0  0  0  0
   19.3353  -14.1372  -17.3100 C   0  0  1  0  0  0  0  0  0  0  0  0
   17.9556  -13.5014  -17.4462 C   0  0  0  0  0  0  0  0  0  0  0  0
   17.0102  -14.3849  -18.1772 C   0  0  0  0  0  0  0  0  0  0  0  0
   15.9644  -15.0870  -17.6106 C   0  0  0  0  0  0  0  0  0  0  0  0
   15.3729  -15.7489  -18.6068 N   0  0  0  0  0  0  0  0  0  0  0  0
   16.0081  -15.4863  -19.7658 C   0  0  0  0  0  0  0  0  0  0  0  0
   17.0190  -14.6427  -19.4944 N   0  0  0  0  0  0  0  0  0  0  0  0
   20.1810  -13.1448  -16.6096 C   0  0  0  0  0  0  0  0  0  0  0  0
   19.9747  -12.9448  -15.3886 O   0  0  0  0  0  0  0  0  0  0  0  0
   21.2076  -12.4154  -17.2590 N   0  0  0  0  0  0  0  0  0  0  0  0
   22.0066  -11.4224  -16.5556 C   0  0  1  0  0  0  0  0  0  0  0  0
   23.4582  -11.7277  -16.6298 C   0  0  0  0  0  0  0  0  0  0  0  0
   23.9355  -12.9189  -15.8882 C   0  0  0  0  0  0  0  0  0  0  0  0
   25.4017  -13.0283  -15.9607 C   0  0  0  0  0  0  0  0  0  0  0  0
   26.0095  -12.1476  -16.6186 O   0  0  0  0  0  0  0  0  0  0  0  0
   21.6006  -10.0599  -16.9358 C   0  0  0  0  0  0  0  0  0  0  0  0
   21.1919   -9.7838  -18.1097 O   0  0  0  0  0  0  0  0  0  0  0  0
   26.1014  -14.0606  -15.3303 O   0  0  0  0  0  0  0  0  0  0  0  0
   17.1677   -2.9567  -18.1549 O   0  0  0  0  0  0  0  0  0  0  0  0
   17.8396   -4.1645  -17.8870 C   0  0  0  0  0  0  0  0  0  0  0  0
   18.7520   -4.6833  -18.7522 C   0  0  0  0  0  0  0  0  0  0  0  0
   19.3891   -5.8845  -18.4365 C   0  0  0  0  0  0  0  0  0  0  0  0
   19.1118   -6.5539  -17.2666 C   0  0  0  0  0  0  0  0  0  0  0  0
   19.7746   -7.8054  -16.9495 C   0  0  0  0  0  0  0  0  0  0  0  0
   21.1760   -7.6403  -16.3522 C   0  0  2  0  0  0  0  0  0  0  0  0
   21.6326   -8.9681  -16.0251 N   0  0  0  0  0  0  0  0  0  0  0  0
   21.1862   -6.6867  -15.2490 C   0  0  0  0  0  0  0  0  0  0  0  0
   21.3872   -5.3244  -15.3762 O   0  0  0  0  0  0  0  0  0  0  0  0
   18.1856   -6.0072  -16.4101 C   0  0  0  0  0  0  0  0  0  0  0  0
   17.5394   -4.8036  -16.7141 C   0  0  0  0  0  0  0  0  0  0  0  0
   21.0014   -7.0925  -14.0565 O   0  0  0  0  0  0  0  0  0  0  0  0
  2  1  1  1
  3  2  1  0
  3  4  1  0
  4  5  2  0
  5  6  1  0
  7  6  1  0
  8  4  1  0
  8  7  2  0
  9 11  1  0
  9  2  1  0
 10  9  2  0
 12 11  1  0
 13 14  1  0
 12 13  1  6
 14 15  1  0
 15 16  2  0
 15 19  1  0
 17 27  1  0
 17 12  1  0
 18 17  2  0
 20 21  1  0
 21 31  2  0
 21 22  1  0
 22 23  2  0
 23 24  1  0
 24 25  1  0
 26 25  1  1
 26 27  1  0
 26 28  1  0
 28 29  1  0
 30 24  2  0
 31 30  1  0
 32 28  2  0
M  END
$$$$
