HEY.pdb
     RDKit          3D

 32 33  0  0  1  0  0  0  0  0999 V2000
   19.2709  -12.2106  -18.6456 N   0  0  0  0  0  0  0  0  0  0  0  0
   20.4381  -11.5551  -18.1013 C   0  0  1  0  0  0  0  0  0  0  0  0
   21.4803  -11.5089  -19.2140 C   0  0  0  0  0  0  0  0  0  0  0  0
   21.9874  -12.8644  -19.5521 C   0  0  0  0  0  0  0  0  0  0  0  0
   21.7258  -13.5522  -20.7210 C   0  0  0  0  0  0  0  0  0  0  0  0
   22.3647  -14.7194  -20.6210 N   0  0  0  0  0  0  0  0  0  0  0  0
   23.0105  -14.7831  -19.4401 C   0  0  0  0  0  0  0  0  0  0  0  0
   22.7740  -13.6340  -18.7837 N   0  0  0  0  0  0  0  0  0  0  0  0
   20.0972  -10.1478  -17.7950 C   0  0  0  0  0  0  0  0  0  0  0  0
   19.4663   -9.4885  -18.6557 O   0  0  0  0  0  0  0  0  0  0  0  0
   20.4531   -9.5186  -16.5763 N   0  0  0  0  0  0  0  0  0  0  0  0
   19.9873   -8.1816  -16.2379 C   0  0  1  0  0  0  0  0  0  0  0  0
   19.0458   -8.1987  -15.0893 C   0  0  0  0  0  0  0  0  0  0  0  0
   19.6235   -8.4492  -13.7475 C   0  0  0  0  0  0  0  0  0  0  0  0
   18.5776   -8.4147  -12.7122 C   0  0  0  0  0  0  0  0  0  0  0  0
   17.7110   -7.5100  -12.8039 O   0  0  0  0  0  0  0  0  0  0  0  0
   21.1159   -7.2414  -16.1494 C   0  0  0  0  0  0  0  0  0  0  0  0
   22.3252   -7.6394  -16.1751 O   0  0  0  0  0  0  0  0  0  0  0  0
   18.5367   -9.3412  -11.6669 O   0  0  0  0  0  0  0  0  0  0  0  0
   27.3850   -1.6215  -17.1165 O   0  0  0  0  0  0  0  0  0  0  0  0
   26.2695   -2.4807  -17.1101 C   0  0  0  0  0  0  0  0  0  0  0  0
   25.1050   -2.1462  -17.7282 C   0  0  0  0  0  0  0  0  0  0  0  0
   24.0301   -3.0360  -17.6909 C   0  0  0  0  0  0  0  0  0  0  0  0
   24.1261   -4.2450  -17.0409 C   0  0  0  0  0  0  0  0  0  0  0  0
   23.0012   -5.1612  -17.0020 C   0  0  0  0  0  0  0  0  0  0  0  0
   22.0194   -4.9021  -15.8544 C   0  0  2  0  0  0  0  0  0  0  0  0
   20.9354   -5.8355  -16.0343 N   0  0  0  0  0  0  0  0  0  0  0  0
   21.6299   -3.4988  -15.7806 C   0  0  0  0  0  0  0  0  0  0  0  0
   20.3610   -3.0106  -16.0336 O   0  0  0  0  0  0  0  0  0  0  0  0
   25.3147   -4.5578  -16.4246 C   0  0  0  0  0  0  0  0  0  0  0  0
   26.4003   -3.6751  -16.4542 C   0  0  0  0  0  0  0  0  0  0  0  0
   22.4908   -2.6161  -15.4638 O   0  0  0  0  0  0  0  0  0  0  0  0
  2  1  1  6
  3  2  1  0
  3  4  1  0
  4  5  2  0
  5  6  1  0
  7  6  1  0
  8  4  1  0
  8  7  2  0
  9 11  1  0
  9  2  1  0
 10  9  2  0
 12 11  1  0
 13 14  1  0
 12 13  1  1
 14 15  1  0
 15 16  2  0
 15 19  1  0
 17 27  1  0
 17 12  1  0
 18 17  2  0
 20 21  1  0
 21 31  2  0
 21 22  1  0
 22 23  2  0
 23 24  1  0
 24 25  1  0
 26 25  1  6
 26 27  1  0
 26 28  1  0
 28 29  1  0
 30 24  2  0
 31 30  1  0
 32 28  2  0
M  END
$$$$
