HEY.pdb
     RDKit          3D

 32 33  0  0  1  0  0  0  0  0999 V2000
   32.4536    5.3982   -2.1784 N   0  0  0  0  0  0  0  0  0  0  0  0
   32.0785    4.1095   -2.7141 C   0  0  1  0  0  0  0  0  0  0  0  0
   32.1183    3.1187   -1.5552 C   0  0  0  0  0  0  0  0  0  0  0  0
   33.5084    2.8604   -1.0972 C   0  0  0  0  0  0  0  0  0  0  0  0
   34.0509    3.2800    0.1017 C   0  0  0  0  0  0  0  0  0  0  0  0
   35.3115    2.8428    0.1170 N   0  0  0  0  0  0  0  0  0  0  0  0
   35.5721    2.1703   -1.0212 C   0  0  0  0  0  0  0  0  0  0  0  0
   34.4542    2.1841   -1.7678 N   0  0  0  0  0  0  0  0  0  0  0  0
   30.6684    4.1687   -3.1597 C   0  0  0  0  0  0  0  0  0  0  0  0
   29.8238    4.6877   -2.3912 O   0  0  0  0  0  0  0  0  0  0  0  0
   30.2364    3.6650   -4.4117 N   0  0  0  0  0  0  0  0  0  0  0  0
   28.8436    3.7373   -4.8290 C   0  0  1  0  0  0  0  0  0  0  0  0
   28.7148    3.8831   -6.3015 C   0  0  0  0  0  0  0  0  0  0  0  0
   27.3450    4.0349   -6.8468 C   0  0  0  0  0  0  0  0  0  0  0  0
   27.3654    4.0452   -8.3188 C   0  0  0  0  0  0  0  0  0  0  0  0
   26.4181    4.6302   -8.9003 O   0  0  0  0  0  0  0  0  0  0  0  0
   28.0536    2.6654   -4.2025 C   0  0  0  0  0  0  0  0  0  0  0  0
   28.4887    1.4716   -4.1189 O   0  0  0  0  0  0  0  0  0  0  0  0
   28.3874    3.4356   -9.0514 O   0  0  0  0  0  0  0  0  0  0  0  0
   24.4768   -2.1867    1.7945 O   0  0  0  0  0  0  0  0  0  0  0  0
   25.0869   -1.3081    0.8791 C   0  0  0  0  0  0  0  0  0  0  0  0
   25.5014   -1.7264   -0.3470 C   0  0  0  0  0  0  0  0  0  0  0  0
   26.1004   -0.8128   -1.2158 C   0  0  0  0  0  0  0  0  0  0  0  0
   26.2796    0.5032   -0.8556 C   0  0  0  0  0  0  0  0  0  0  0  0
   26.9091    1.4448   -1.7630 C   0  0  0  0  0  0  0  0  0  0  0  0
   26.0177    1.8848   -2.9292 C   0  0  2  0  0  0  0  0  0  0  0  0
   26.7630    2.8878   -3.6484 N   0  0  0  0  0  0  0  0  0  0  0  0
   24.6943    2.2957   -2.4750 C   0  0  0  0  0  0  0  0  0  0  0  0
   23.5612    1.5035   -2.5044 O   0  0  0  0  0  0  0  0  0  0  0  0
   25.8515    0.8992    0.3895 C   0  0  0  0  0  0  0  0  0  0  0  0
   25.2493   -0.0063    1.2704 C   0  0  0  0  0  0  0  0  0  0  0  0
   24.5180    3.4668   -2.0078 O   0  0  0  0  0  0  0  0  0  0  0  0
  2  1  1  1
  3  2  1  0
  3  4  1  0
  4  5  2  0
  5  6  1  0
  7  6  1  0
  8  4  1  0
  8  7  2  0
  9 11  1  0
  9  2  1  0
 10  9  2  0
 12 11  1  0
 13 14  1  0
 12 13  1  6
 14 15  1  0
 15 16  2  0
 15 19  1  0
 17 27  1  0
 17 12  1  0
 18 17  2  0
 20 21  1  0
 21 31  2  0
 21 22  1  0
 22 23  2  0
 23 24  1  0
 24 25  1  0
 26 25  1  1
 26 27  1  0
 26 28  1  0
 28 29  1  0
 30 24  2  0
 31 30  1  0
 32 28  2  0
M  END
$$$$
