HEY.pdb
     RDKit          3D

 32 33  0  0  1  0  0  0  0  0999 V2000
   17.0751  -13.0910  -15.8222 N   0  0  0  0  0  0  0  0  0  0  0  0
   16.9773  -11.6511  -15.7481 C   0  0  1  0  0  0  0  0  0  0  0  0
   16.4222  -11.3147  -14.3679 C   0  0  0  0  0  0  0  0  0  0  0  0
   14.9811  -11.6597  -14.2532 C   0  0  0  0  0  0  0  0  0  0  0  0
   14.2363  -12.3282  -15.2050 C   0  0  0  0  0  0  0  0  0  0  0  0
   13.0009  -12.4311  -14.7112 N   0  0  0  0  0  0  0  0  0  0  0  0
   12.9497  -11.8548  -13.4943 C   0  0  0  0  0  0  0  0  0  0  0  0
   14.1762  -11.3799  -13.2162 N   0  0  0  0  0  0  0  0  0  0  0  0
   18.3400  -11.0758  -15.7976 C   0  0  0  0  0  0  0  0  0  0  0  0
   19.3147  -11.8623  -15.8675 O   0  0  0  0  0  0  0  0  0  0  0  0
   18.5868   -9.6808  -15.7685 N   0  0  0  0  0  0  0  0  0  0  0  0
   19.8727   -9.1204  -16.1577 C   0  0  1  0  0  0  0  0  0  0  0  0
   20.3750   -9.7159  -17.4222 C   0  0  0  0  0  0  0  0  0  0  0  0
   21.6857   -9.2350  -17.9200 C   0  0  0  0  0  0  0  0  0  0  0  0
   22.7861  -10.0284  -17.3486 C   0  0  0  0  0  0  0  0  0  0  0  0
   22.4713  -11.0144  -16.6369 O   0  0  0  0  0  0  0  0  0  0  0  0
   19.8452   -7.6507  -16.0881 C   0  0  0  0  0  0  0  0  0  0  0  0
   18.9733   -6.9649  -16.7131 O   0  0  0  0  0  0  0  0  0  0  0  0
   24.1275   -9.7115  -17.5789 O   0  0  0  0  0  0  0  0  0  0  0  0
   22.8393    0.4630  -13.8483 O   0  0  0  0  0  0  0  0  0  0  0  0
   22.5877   -0.9181  -13.9561 C   0  0  0  0  0  0  0  0  0  0  0  0
   21.4771   -1.4876  -13.4155 C   0  0  0  0  0  0  0  0  0  0  0  0
   21.2770   -2.8623  -13.5522 C   0  0  0  0  0  0  0  0  0  0  0  0
   22.1819   -3.6523  -14.2236 C   0  0  0  0  0  0  0  0  0  0  0  0
   21.9687   -5.0818  -14.3555 C   0  0  0  0  0  0  0  0  0  0  0  0
   20.8762   -5.4638  -15.3598 C   0  0  2  0  0  0  0  0  0  0  0  0
   20.7799   -6.9018  -15.3212 N   0  0  0  0  0  0  0  0  0  0  0  0
   21.1256   -4.8895  -16.6768 C   0  0  0  0  0  0  0  0  0  0  0  0
   20.4775   -3.7854  -17.1994 O   0  0  0  0  0  0  0  0  0  0  0  0
   23.2957   -3.0508  -14.7602 C   0  0  0  0  0  0  0  0  0  0  0  0
   23.5087   -1.6737  -14.6306 C   0  0  0  0  0  0  0  0  0  0  0  0
   21.9985   -5.4113  -17.4427 O   0  0  0  0  0  0  0  0  0  0  0  0
  2  1  1  1
  3  2  1  0
  3  4  1  0
  4  5  2  0
  5  6  1  0
  7  6  1  0
  8  4  1  0
  8  7  2  0
  9 11  1  0
  9  2  1  0
 10  9  2  0
 12 11  1  0
 13 14  1  0
 12 13  1  6
 14 15  1  0
 15 16  2  0
 15 19  1  0
 17 27  1  0
 17 12  1  0
 18 17  2  0
 20 21  1  0
 21 31  2  0
 21 22  1  0
 22 23  2  0
 23 24  1  0
 24 25  1  0
 26 25  1  1
 26 27  1  0
 26 28  1  0
 28 29  1  0
 30 24  2  0
 31 30  1  0
 32 28  2  0
M  END
$$$$
