HEY.pdb
     RDKit          3D

 32 33  0  0  1  0  0  0  0  0999 V2000
   18.0813  -13.6964  -17.5103 N   0  0  0  0  0  0  0  0  0  0  0  0
   18.5777  -13.0506  -16.3166 C   0  0  1  0  0  0  0  0  0  0  0  0
   20.0485  -13.4320  -16.1848 C   0  0  0  0  0  0  0  0  0  0  0  0
   20.2193  -14.8773  -15.8840 C   0  0  0  0  0  0  0  0  0  0  0  0
   19.1962  -15.7895  -15.7139 C   0  0  0  0  0  0  0  0  0  0  0  0
   19.7778  -16.9635  -15.4608 N   0  0  0  0  0  0  0  0  0  0  0  0
   21.1172  -16.8166  -15.4672 C   0  0  0  0  0  0  0  0  0  0  0  0
   21.3845  -15.5255  -15.7294 N   0  0  0  0  0  0  0  0  0  0  0  0
   18.5466  -11.5846  -16.5177 C   0  0  0  0  0  0  0  0  0  0  0  0
   18.8770  -11.1318  -17.6399 O   0  0  0  0  0  0  0  0  0  0  0  0
   18.1618  -10.6773  -15.4997 N   0  0  0  0  0  0  0  0  0  0  0  0
   18.1659   -9.2372  -15.7130 C   0  0  1  0  0  0  0  0  0  0  0  0
   16.9175   -8.6019  -15.2193 C   0  0  0  0  0  0  0  0  0  0  0  0
   15.6926   -8.8033  -16.0293 C   0  0  0  0  0  0  0  0  0  0  0  0
   15.7603   -8.0327  -17.2817 C   0  0  0  0  0  0  0  0  0  0  0  0
   15.8851   -8.6841  -18.3485 O   0  0  0  0  0  0  0  0  0  0  0  0
   19.4319   -8.6441  -15.2537 C   0  0  0  0  0  0  0  0  0  0  0  0
   19.9859   -9.0034  -14.1649 O   0  0  0  0  0  0  0  0  0  0  0  0
   15.6897   -6.6372  -17.2996 O   0  0  0  0  0  0  0  0  0  0  0  0
   25.6175   -2.5685  -17.2996 O   0  0  0  0  0  0  0  0  0  0  0  0
   24.8101   -3.7157  -17.1797 C   0  0  0  0  0  0  0  0  0  0  0  0
   25.3360   -4.9323  -16.8739 C   0  0  0  0  0  0  0  0  0  0  0  0
   24.4893   -6.0368  -16.7673 C   0  0  0  0  0  0  0  0  0  0  0  0
   23.1327   -5.9185  -16.9656 C   0  0  0  0  0  0  0  0  0  0  0  0
   22.2607   -7.0737  -16.8587 C   0  0  0  0  0  0  0  0  0  0  0  0
   21.3935   -7.0913  -15.5955 C   0  0  2  0  0  0  0  0  0  0  0  0
   20.1202   -7.6407  -15.9898 N   0  0  0  0  0  0  0  0  0  0  0  0
   21.3381   -5.7811  -14.9577 C   0  0  0  0  0  0  0  0  0  0  0  0
   22.2697   -5.2929  -14.0599 O   0  0  0  0  0  0  0  0  0  0  0  0
   22.6278   -4.6773  -17.2735 C   0  0  0  0  0  0  0  0  0  0  0  0
   23.4652   -3.5614  -17.3835 C   0  0  0  0  0  0  0  0  0  0  0  0
   20.3749   -4.9894  -15.2148 O   0  0  0  0  0  0  0  0  0  0  0  0
  2  1  1  6
  3  2  1  0
  3  4  1  0
  4  5  2  0
  5  6  1  0
  7  6  1  0
  8  4  1  0
  8  7  2  0
  9 11  1  0
  9  2  1  0
 10  9  2  0
 12 11  1  0
 13 14  1  0
 12 13  1  1
 14 15  1  0
 15 16  2  0
 15 19  1  0
 17 27  1  0
 17 12  1  0
 18 17  2  0
 20 21  1  0
 21 31  2  0
 21 22  1  0
 22 23  2  0
 23 24  1  0
 24 25  1  0
 26 25  1  6
 26 27  1  0
 26 28  1  0
 28 29  1  0
 30 24  2  0
 31 30  1  0
 32 28  2  0
M  END
$$$$
