HEY.pdb
     RDKit          3D

 32 33  0  0  1  0  0  0  0  0999 V2000
   24.7911  -12.7519  -18.0081 N   0  0  0  0  0  0  0  0  0  0  0  0
   24.4738  -12.3383  -16.6603 C   0  0  1  0  0  0  0  0  0  0  0  0
   25.7508  -11.7567  -16.0626 C   0  0  0  0  0  0  0  0  0  0  0  0
   26.7718  -12.8073  -15.8125 C   0  0  0  0  0  0  0  0  0  0  0  0
   28.1035  -12.7360  -16.1720 C   0  0  0  0  0  0  0  0  0  0  0  0
   28.6635  -13.8775  -15.7671 N   0  0  0  0  0  0  0  0  0  0  0  0
   27.7351  -14.6520  -15.1724 C   0  0  0  0  0  0  0  0  0  0  0  0
   26.5679  -13.9857  -15.2031 N   0  0  0  0  0  0  0  0  0  0  0  0
   23.4997  -11.2255  -16.7182 C   0  0  0  0  0  0  0  0  0  0  0  0
   23.7094  -10.2943  -17.5319 O   0  0  0  0  0  0  0  0  0  0  0  0
   22.3472  -11.1696  -15.8959 N   0  0  0  0  0  0  0  0  0  0  0  0
   21.4032  -10.0639  -15.9713 C   0  0  1  0  0  0  0  0  0  0  0  0
   20.1257  -10.3802  -15.2829 C   0  0  0  0  0  0  0  0  0  0  0  0
   19.0986   -9.3123  -15.2435 C   0  0  0  0  0  0  0  0  0  0  0  0
   17.9307   -9.7377  -14.4548 C   0  0  0  0  0  0  0  0  0  0  0  0
   17.7657   -9.1911  -13.3359 O   0  0  0  0  0  0  0  0  0  0  0  0
   22.0526   -8.7959  -15.6027 C   0  0  0  0  0  0  0  0  0  0  0  0
   22.8737   -8.7189  -14.6324 O   0  0  0  0  0  0  0  0  0  0  0  0
   17.0353  -10.7058  -14.9171 O   0  0  0  0  0  0  0  0  0  0  0  0
   25.4301   -0.7273  -16.9410 O   0  0  0  0  0  0  0  0  0  0  0  0
   24.9242   -2.0404  -16.9887 C   0  0  0  0  0  0  0  0  0  0  0  0
   25.6673   -3.1086  -16.5929 C   0  0  0  0  0  0  0  0  0  0  0  0
   25.1160   -4.3891  -16.6610 C   0  0  0  0  0  0  0  0  0  0  0  0
   23.8349   -4.5915  -17.1209 C   0  0  0  0  0  0  0  0  0  0  0  0
   23.2721   -5.9272  -17.1940 C   0  0  0  0  0  0  0  0  0  0  0  0
   22.4457   -6.3285  -15.9676 C   0  0  2  0  0  0  0  0  0  0  0  0
   21.8134   -7.5805  -16.3012 N   0  0  0  0  0  0  0  0  0  0  0  0
   21.5412   -5.2632  -15.5511 C   0  0  0  0  0  0  0  0  0  0  0  0
   21.8554   -4.2566  -14.6565 O   0  0  0  0  0  0  0  0  0  0  0  0
   23.1059   -3.4942  -17.5145 C   0  0  0  0  0  0  0  0  0  0  0  0
   23.6463   -2.2048  -17.4514 C   0  0  0  0  0  0  0  0  0  0  0  0
   20.3584   -5.2146  -16.0194 O   0  0  0  0  0  0  0  0  0  0  0  0
  2  1  1  6
  3  2  1  0
  3  4  1  0
  4  5  2  0
  5  6  1  0
  7  6  1  0
  8  4  1  0
  8  7  2  0
  9 11  1  0
  9  2  1  0
 10  9  2  0
 12 11  1  0
 13 14  1  0
 12 13  1  1
 14 15  1  0
 15 16  2  0
 15 19  1  0
 17 27  1  0
 17 12  1  0
 18 17  2  0
 20 21  1  0
 21 31  2  0
 21 22  1  0
 22 23  2  0
 23 24  1  0
 24 25  1  0
 26 25  1  6
 26 27  1  0
 26 28  1  0
 28 29  1  0
 30 24  2  0
 31 30  1  0
 32 28  2  0
M  END
$$$$
