HEY.pdb
     RDKit          3D

 32 33  0  0  1  0  0  0  0  0999 V2000
   17.2282  -12.2219  -18.0594 N   0  0  0  0  0  0  0  0  0  0  0  0
   17.7439  -11.8952  -16.7494 C   0  0  1  0  0  0  0  0  0  0  0  0
   19.0827  -12.6122  -16.6084 C   0  0  0  0  0  0  0  0  0  0  0  0
   18.9083  -14.0772  -16.4289 C   0  0  0  0  0  0  0  0  0  0  0  0
   17.6993  -14.7343  -16.3109 C   0  0  0  0  0  0  0  0  0  0  0  0
   17.9880  -16.0290  -16.1659 N   0  0  0  0  0  0  0  0  0  0  0  0
   19.3242  -16.2009  -16.1893 C   0  0  0  0  0  0  0  0  0  0  0  0
   19.8880  -14.9914  -16.3523 N   0  0  0  0  0  0  0  0  0  0  0  0
   18.0431  -10.4466  -16.7007 C   0  0  0  0  0  0  0  0  0  0  0  0
   18.6183   -9.9253  -17.6860 O   0  0  0  0  0  0  0  0  0  0  0  0
   17.7086   -9.6298  -15.5923 N   0  0  0  0  0  0  0  0  0  0  0  0
   17.9914   -8.2018  -15.5778 C   0  0  1  0  0  0  0  0  0  0  0  0
   16.7463   -7.3921  -15.5624 C   0  0  0  0  0  0  0  0  0  0  0  0
   16.8995   -5.9217  -15.4555 C   0  0  0  0  0  0  0  0  0  0  0  0
   17.3964   -5.3536  -16.7193 C   0  0  0  0  0  0  0  0  0  0  0  0
   18.4185   -4.6260  -16.6571 O   0  0  0  0  0  0  0  0  0  0  0  0
   18.9990   -7.8785  -14.5552 C   0  0  0  0  0  0  0  0  0  0  0  0
   18.8413   -8.1974  -13.3326 O   0  0  0  0  0  0  0  0  0  0  0  0
   16.7698   -5.6038  -17.9430 O   0  0  0  0  0  0  0  0  0  0  0  0
   24.5792   -7.7645  -19.2369 O   0  0  0  0  0  0  0  0  0  0  0  0
   24.0468   -7.7302  -17.9340 C   0  0  0  0  0  0  0  0  0  0  0  0
   24.3618   -6.7384  -17.0580 C   0  0  0  0  0  0  0  0  0  0  0  0
   23.8050   -6.7532  -15.7781 C   0  0  0  0  0  0  0  0  0  0  0  0
   22.9434   -7.7517  -15.3856 C   0  0  0  0  0  0  0  0  0  0  0  0
   22.3740   -7.7623  -14.0507 C   0  0  0  0  0  0  0  0  0  0  0  0
   21.1835   -6.8149  -13.8682 C   0  0  2  0  0  0  0  0  0  0  0  0
   20.2096   -7.1975  -14.8600 N   0  0  0  0  0  0  0  0  0  0  0  0
   21.5938   -5.4159  -13.9025 C   0  0  0  0  0  0  0  0  0  0  0  0
   22.4299   -4.8089  -12.9834 O   0  0  0  0  0  0  0  0  0  0  0  0
   22.6420   -8.7417  -16.2909 C   0  0  0  0  0  0  0  0  0  0  0  0
   23.1932   -8.7392  -17.5773 C   0  0  0  0  0  0  0  0  0  0  0  0
   21.1741   -4.6532  -14.8314 O   0  0  0  0  0  0  0  0  0  0  0  0
  2  1  1  6
  3  2  1  0
  3  4  1  0
  4  5  2  0
  5  6  1  0
  7  6  1  0
  8  4  1  0
  8  7  2  0
  9 11  1  0
  9  2  1  0
 10  9  2  0
 12 11  1  0
 13 14  1  0
 12 13  1  1
 14 15  1  0
 15 16  2  0
 15 19  1  0
 17 27  1  0
 17 12  1  0
 18 17  2  0
 20 21  1  0
 21 31  2  0
 21 22  1  0
 22 23  2  0
 23 24  1  0
 24 25  1  0
 26 25  1  6
 26 27  1  0
 26 28  1  0
 28 29  1  0
 30 24  2  0
 31 30  1  0
 32 28  2  0
M  END
$$$$
