HEY.pdb
     RDKit          3D

 32 33  0  0  1  0  0  0  0  0999 V2000
   22.8373  -20.2944  -16.4725 N   0  0  0  0  0  0  0  0  0  0  0  0
   22.9960  -19.9558  -15.0765 C   0  0  1  0  0  0  0  0  0  0  0  0
   23.5548  -18.5375  -15.0249 C   0  0  0  0  0  0  0  0  0  0  0  0
   24.9441  -18.4721  -15.5486 C   0  0  0  0  0  0  0  0  0  0  0  0
   25.2970  -18.3397  -16.8774 C   0  0  0  0  0  0  0  0  0  0  0  0
   26.6308  -18.3231  -16.9120 N   0  0  0  0  0  0  0  0  0  0  0  0
   27.1183  -18.4394  -15.6612 C   0  0  0  0  0  0  0  0  0  0  0  0
   26.0715  -18.5309  -14.8227 N   0  0  0  0  0  0  0  0  0  0  0  0
   21.6595  -19.8973  -14.4434 C   0  0  0  0  0  0  0  0  0  0  0  0
   20.9531  -18.8797  -14.6400 O   0  0  0  0  0  0  0  0  0  0  0  0
   21.1491  -20.9380  -13.6285 N   0  0  0  0  0  0  0  0  0  0  0  0
   19.7771  -20.9294  -13.1419 C   0  0  1  0  0  0  0  0  0  0  0  0
   18.7991  -20.7764  -14.2492 C   0  0  0  0  0  0  0  0  0  0  0  0
   19.2623  -21.1310  -15.6118 C   0  0  0  0  0  0  0  0  0  0  0  0
   18.3038  -22.0315  -16.2730 C   0  0  0  0  0  0  0  0  0  0  0  0
   17.2424  -21.5187  -16.7071 O   0  0  0  0  0  0  0  0  0  0  0  0
   19.5459  -22.0440  -12.2093 C   0  0  0  0  0  0  0  0  0  0  0  0
   20.0364  -23.2016  -12.4115 O   0  0  0  0  0  0  0  0  0  0  0  0
   18.5496  -23.3993  -16.4196 O   0  0  0  0  0  0  0  0  0  0  0  0
   16.7686  -26.1380   -4.8143 O   0  0  0  0  0  0  0  0  0  0  0  0
   17.1383  -25.1998   -5.7969 C   0  0  0  0  0  0  0  0  0  0  0  0
   16.2231  -24.3886   -6.3923 C   0  0  0  0  0  0  0  0  0  0  0  0
   16.6446  -23.4761   -7.3608 C   0  0  0  0  0  0  0  0  0  0  0  0
   17.9683  -23.3813   -7.7246 C   0  0  0  0  0  0  0  0  0  0  0  0
   18.3965  -22.4337   -8.7370 C   0  0  0  0  0  0  0  0  0  0  0  0
   18.4305  -23.0056  -10.1583 C   0  0  2  0  0  0  0  0  0  0  0  0
   18.7692  -21.9053  -11.0262 N   0  0  0  0  0  0  0  0  0  0  0  0
   17.1955  -23.7061  -10.4905 C   0  0  0  0  0  0  0  0  0  0  0  0
   15.9853  -23.0975  -10.7685 O   0  0  0  0  0  0  0  0  0  0  0  0
   18.8722  -24.2131   -7.1069 C   0  0  0  0  0  0  0  0  0  0  0  0
   18.4633  -25.1326   -6.1343 C   0  0  0  0  0  0  0  0  0  0  0  0
   17.1799  -24.9781  -10.5394 O   0  0  0  0  0  0  0  0  0  0  0  0
  2  1  1  6
  3  2  1  0
  3  4  1  0
  4  5  2  0
  5  6  1  0
  7  6  1  0
  8  4  1  0
  8  7  2  0
  9 11  1  0
  9  2  1  0
 10  9  2  0
 12 11  1  0
 13 14  1  0
 12 13  1  6
 14 15  1  0
 15 16  2  0
 15 19  1  0
 17 27  1  0
 17 12  1  0
 18 17  2  0
 20 21  1  0
 21 31  2  0
 21 22  1  0
 22 23  2  0
 23 24  1  0
 24 25  1  0
 26 25  1  1
 26 27  1  0
 26 28  1  0
 28 29  1  0
 30 24  2  0
 31 30  1  0
 32 28  2  0
M  END
$$$$
