HEY.pdb
     RDKit          3D

 32 33  0  0  1  0  0  0  0  0999 V2000
   22.3194  -18.9293  -17.8031 N   0  0  0  0  0  0  0  0  0  0  0  0
   23.0269  -18.2376  -16.7497 C   0  0  1  0  0  0  0  0  0  0  0  0
   22.0264  -18.0043  -15.6224 C   0  0  0  0  0  0  0  0  0  0  0  0
   20.9830  -17.0178  -16.0056 C   0  0  0  0  0  0  0  0  0  0  0  0
   19.6308  -17.2782  -16.1120 C   0  0  0  0  0  0  0  0  0  0  0  0
   19.0549  -16.1312  -16.4773 N   0  0  0  0  0  0  0  0  0  0  0  0
   19.9932  -15.1722  -16.6014 C   0  0  0  0  0  0  0  0  0  0  0  0
   21.1829  -15.7256  -16.3086 N   0  0  0  0  0  0  0  0  0  0  0  0
   24.0664  -19.1370  -16.2010 C   0  0  0  0  0  0  0  0  0  0  0  0
   23.7475  -20.3206  -15.9346 O   0  0  0  0  0  0  0  0  0  0  0  0
   25.3990  -18.7174  -15.9651 N   0  0  0  0  0  0  0  0  0  0  0  0
   26.3943  -19.6098  -15.3886 C   0  0  1  0  0  0  0  0  0  0  0  0
   27.7054  -19.4936  -16.0769 C   0  0  0  0  0  0  0  0  0  0  0  0
   28.7758  -20.4259  -15.6503 C   0  0  0  0  0  0  0  0  0  0  0  0
   28.5565  -21.7681  -16.2137 C   0  0  0  0  0  0  0  0  0  0  0  0
   27.6861  -21.8762  -17.1129 O   0  0  0  0  0  0  0  0  0  0  0  0
   26.4094  -19.4983  -13.9214 C   0  0  0  0  0  0  0  0  0  0  0  0
   26.5951  -18.3837  -13.3344 O   0  0  0  0  0  0  0  0  0  0  0  0
   29.2774  -22.8831  -15.7781 O   0  0  0  0  0  0  0  0  0  0  0  0
   19.9731  -20.7681  -11.7190 O   0  0  0  0  0  0  0  0  0  0  0  0
   21.3381  -20.4408  -11.6095 C   0  0  0  0  0  0  0  0  0  0  0  0
   22.0859  -20.1162  -12.6983 C   0  0  0  0  0  0  0  0  0  0  0  0
   23.4352  -19.7998  -12.5325 C   0  0  0  0  0  0  0  0  0  0  0  0
   24.0234  -19.8098  -11.2885 C   0  0  0  0  0  0  0  0  0  0  0  0
   25.4287  -19.4854  -11.1264 C   0  0  0  0  0  0  0  0  0  0  0  0
   26.3861  -20.5686  -11.6346 C   0  0  2  0  0  0  0  0  0  0  0  0
   26.2150  -20.6171  -13.0653 N   0  0  0  0  0  0  0  0  0  0  0  0
   26.1903  -21.8351  -10.9387 C   0  0  0  0  0  0  0  0  0  0  0  0
   26.2586  -22.0093   -9.5685 O   0  0  0  0  0  0  0  0  0  0  0  0
   23.2445  -20.1415  -10.2051 C   0  0  0  0  0  0  0  0  0  0  0  0
   21.8905  -20.4608  -10.3571 C   0  0  0  0  0  0  0  0  0  0  0  0
   25.9355  -22.8917  -11.6016 O   0  0  0  0  0  0  0  0  0  0  0  0
  2  1  1  6
  3  2  1  0
  3  4  1  0
  4  5  2  0
  5  6  1  0
  7  6  1  0
  8  4  1  0
  8  7  2  0
  9 11  1  0
  9  2  1  0
 10  9  2  0
 12 11  1  0
 13 14  1  0
 12 13  1  6
 14 15  1  0
 15 16  2  0
 15 19  1  0
 17 27  1  0
 17 12  1  0
 18 17  2  0
 20 21  1  0
 21 31  2  0
 21 22  1  0
 22 23  2  0
 23 24  1  0
 24 25  1  0
 26 25  1  1
 26 27  1  0
 26 28  1  0
 28 29  1  0
 30 24  2  0
 31 30  1  0
 32 28  2  0
M  END
$$$$
