HEY.pdb
     RDKit          3D

 32 33  0  0  1  0  0  0  0  0999 V2000
   22.6108  -18.9020  -17.7371 N   0  0  0  0  0  0  0  0  0  0  0  0
   21.9972  -18.0634  -16.7327 C   0  0  1  0  0  0  0  0  0  0  0  0
   21.4278  -16.8480  -17.4572 C   0  0  0  0  0  0  0  0  0  0  0  0
   22.4998  -16.0056  -18.0489 C   0  0  0  0  0  0  0  0  0  0  0  0
   22.8522  -15.9734  -19.3839 C   0  0  0  0  0  0  0  0  0  0  0  0
   23.8506  -15.0942  -19.4877 N   0  0  0  0  0  0  0  0  0  0  0  0
   24.1308  -14.5809  -18.2738 C   0  0  0  0  0  0  0  0  0  0  0  0
   23.2929  -15.1476  -17.3884 N   0  0  0  0  0  0  0  0  0  0  0  0
   20.8390  -18.7802  -16.1537 C   0  0  0  0  0  0  0  0  0  0  0  0
   20.1068  -19.4462  -16.9242 O   0  0  0  0  0  0  0  0  0  0  0  0
   20.5253  -18.7440  -14.7724 N   0  0  0  0  0  0  0  0  0  0  0  0
   19.4575  -19.5554  -14.2061 C   0  0  1  0  0  0  0  0  0  0  0  0
   19.8167  -20.0836  -12.8652 C   0  0  0  0  0  0  0  0  0  0  0  0
   21.2534  -20.3367  -12.6029 C   0  0  0  0  0  0  0  0  0  0  0  0
   21.6112  -19.9482  -11.2288 C   0  0  0  0  0  0  0  0  0  0  0  0
   20.6797  -19.5517  -10.4851 O   0  0  0  0  0  0  0  0  0  0  0  0
   18.1622  -18.8657  -14.3161 C   0  0  0  0  0  0  0  0  0  0  0  0
   18.0841  -17.6166  -14.5505 O   0  0  0  0  0  0  0  0  0  0  0  0
   22.9250  -20.0126  -10.7573 O   0  0  0  0  0  0  0  0  0  0  0  0
   10.8361  -15.5744  -16.9914 O   0  0  0  0  0  0  0  0  0  0  0  0
   12.0311  -16.2230  -16.6258 C   0  0  0  0  0  0  0  0  0  0  0  0
   12.5169  -16.1663  -15.3566 C   0  0  0  0  0  0  0  0  0  0  0  0
   13.7066  -16.8283  -15.0488 C   0  0  0  0  0  0  0  0  0  0  0  0
   14.3973  -17.5373  -16.0048 C   0  0  0  0  0  0  0  0  0  0  0  0
   15.6368  -18.2174  -15.6770 C   0  0  0  0  0  0  0  0  0  0  0  0
   15.6374  -18.8942  -14.3022 C   0  0  2  0  0  0  0  0  0  0  0  0
   16.9191  -19.5416  -14.1735 N   0  0  0  0  0  0  0  0  0  0  0  0
   14.4786  -19.7614  -14.1244 C   0  0  0  0  0  0  0  0  0  0  0  0
   13.3525  -19.4441  -13.3872 O   0  0  0  0  0  0  0  0  0  0  0  0
   13.8838  -17.5782  -17.2795 C   0  0  0  0  0  0  0  0  0  0  0  0
   12.6920  -16.9191  -17.6019 C   0  0  0  0  0  0  0  0  0  0  0  0
   14.4559  -20.9113  -14.6703 O   0  0  0  0  0  0  0  0  0  0  0  0
  2  1  1  6
  3  2  1  0
  3  4  1  0
  4  5  2  0
  5  6  1  0
  7  6  1  0
  8  4  1  0
  8  7  2  0
  9 11  1  0
  9  2  1  0
 10  9  2  0
 12 11  1  0
 13 14  1  0
 12 13  1  1
 14 15  1  0
 15 16  2  0
 15 19  1  0
 17 27  1  0
 17 12  1  0
 18 17  2  0
 20 21  1  0
 21 31  2  0
 21 22  1  0
 22 23  2  0
 23 24  1  0
 24 25  1  0
 26 25  1  6
 26 27  1  0
 26 28  1  0
 28 29  1  0
 30 24  2  0
 31 30  1  0
 32 28  2  0
M  END
$$$$
