API.pdb
     RDKit          3D

 21 21  0  0  1  0  0  0  0  0999 V2000
   10.2324  -18.3891   20.3220 C   0  0  0  0  0  0  0  0  0  0  0  0
   10.3704  -16.8898   20.0969 C   0  0  2  0  0  0  0  0  0  0  0  0
   11.6504  -16.6680   19.5206 N   0  0  0  0  0  0  0  0  0  0  0  0
   10.0211  -16.1098   21.2721 C   0  0  0  0  0  0  0  0  0  0  0  0
   10.9804  -15.7789   22.0581 O   0  0  0  0  0  0  0  0  0  0  0  0
    8.7231  -15.6625   21.6625 N   0  0  0  0  0  0  0  0  0  0  0  0
    7.5516  -15.8597   20.8283 C   0  0  0  0  0  0  0  0  0  0  0  0
    6.5799  -14.7793   21.2825 C   0  0  0  0  0  0  0  0  0  0  0  0
    6.8485  -14.7686   22.7602 C   0  0  0  0  0  0  0  0  0  0  0  0
    8.3325  -14.9860   22.8605 C   0  0  1  0  0  0  0  0  0  0  0  0
    8.6613  -15.7574   24.0932 C   0  0  0  0  0  0  0  0  0  0  0  0
    8.8749  -16.9844   23.9431 O   0  0  0  0  0  0  0  0  0  0  0  0
   10.3941  -13.0314   28.4603 C   0  0  0  0  0  0  0  0  0  0  0  0
   10.4173  -14.1375   27.4606 C   0  0  0  0  0  0  0  0  0  0  0  0
    9.4114  -15.2220   27.7460 C   0  0  2  0  0  0  0  0  0  0  0  0
   10.0221  -16.1621   28.7639 C   0  0  0  0  0  0  0  0  0  0  0  0
    9.0885  -16.0350   26.5115 C   0  0  2  0  0  0  0  0  0  0  0  0
    8.7440  -15.1926   25.3863 N   0  0  0  0  0  0  0  0  0  0  0  0
    7.9833  -16.9709   26.7820 C   0  0  0  0  0  0  0  0  0  0  0  0
    6.6742  -16.6885   26.4368 O   0  0  0  0  0  0  0  0  0  0  0  0
    8.2171  -18.0604   27.3411 O   0  0  0  0  0  0  0  0  0  0  0  0
  2  1  1  1
  3  2  1  0
  4  2  1  0
  4  5  2  0
  6  4  1  0
  7  6  1  0
  8  9  1  0
  8  7  1  0
  9 10  1  0
 10  6  1  0
 10 11  1  1
 11 12  2  0
 14 13  1  0
 15 14  1  0
 15 16  1  1
 17 15  1  0
 18 11  1  0
 17 18  1  6
 19 17  1  0
 19 20  1  0
 21 19  2  0
M  END
$$$$
