API.pdb
     RDKit          3D

 21 21  0  0  1  0  0  0  0  0999 V2000
   11.3293  -18.2772   21.2349 C   0  0  0  0  0  0  0  0  0  0  0  0
   11.0365  -16.9841   20.4867 C   0  0  2  0  0  0  0  0  0  0  0  0
   12.2798  -16.4798   20.0180 N   0  0  0  0  0  0  0  0  0  0  0  0
   10.1878  -16.0773   21.2409 C   0  0  0  0  0  0  0  0  0  0  0  0
   10.7717  -15.2704   22.0505 O   0  0  0  0  0  0  0  0  0  0  0  0
    8.7650  -15.9755   21.1893 N   0  0  0  0  0  0  0  0  0  0  0  0
    7.9606  -16.7950   20.3012 C   0  0  0  0  0  0  0  0  0  0  0  0
    6.6731  -16.0027   20.1211 C   0  0  0  0  0  0  0  0  0  0  0  0
    6.4997  -15.4383   21.5021 C   0  0  0  0  0  0  0  0  0  0  0  0
    7.9012  -15.1196   21.9421 C   0  0  1  0  0  0  0  0  0  0  0  0
    8.0384  -15.3104   23.4144 C   0  0  0  0  0  0  0  0  0  0  0  0
    8.6067  -16.3639   23.7898 O   0  0  0  0  0  0  0  0  0  0  0  0
    5.9169  -11.7046   27.3729 C   0  0  0  0  0  0  0  0  0  0  0  0
    6.1925  -12.8510   26.4601 C   0  0  0  0  0  0  0  0  0  0  0  0
    7.5637  -13.4464   26.6457 C   0  0  2  0  0  0  0  0  0  0  0  0
    8.5795  -12.4114   26.2098 C   0  0  0  0  0  0  0  0  0  0  0  0
    7.7691  -14.6755   25.7876 C   0  0  2  0  0  0  0  0  0  0  0  0
    7.5753  -14.3901   24.3821 N   0  0  0  0  0  0  0  0  0  0  0  0
    6.8552  -15.7545   26.2011 C   0  0  0  0  0  0  0  0  0  0  0  0
    7.0391  -16.4724   27.3687 O   0  0  0  0  0  0  0  0  0  0  0  0
    5.8760  -16.0448   25.4860 O   0  0  0  0  0  0  0  0  0  0  0  0
  2  1  1  1
  3  2  1  0
  4  2  1  0
  4  5  2  0
  6  4  1  0
  7  6  1  0
  8  9  1  0
  8  7  1  0
  9 10  1  0
 10  6  1  0
 10 11  1  1
 11 12  2  0
 14 13  1  0
 15 14  1  0
 15 16  1  6
 17 15  1  0
 18 11  1  0
 17 18  1  6
 19 17  1  0
 19 20  1  0
 21 19  2  0
M  END
$$$$
