API.pdb
     RDKit          3D

 21 21  0  0  1  0  0  0  0  0999 V2000
   10.2067  -13.6026   19.1418 C   0  0  0  0  0  0  0  0  0  0  0  0
    8.6871  -13.6670   19.0742 C   0  0  2  0  0  0  0  0  0  0  0  0
    8.2425  -12.4611   18.4678 N   0  0  0  0  0  0  0  0  0  0  0  0
    8.0828  -14.0414   20.3416 C   0  0  0  0  0  0  0  0  0  0  0  0
    7.7924  -13.0897   21.1523 O   0  0  0  0  0  0  0  0  0  0  0  0
    7.7703  -15.3569   20.7990 N   0  0  0  0  0  0  0  0  0  0  0  0
    8.0771  -16.5423   20.0192 C   0  0  0  0  0  0  0  0  0  0  0  0
    7.1025  -17.5931   20.5327 C   0  0  0  0  0  0  0  0  0  0  0  0
    7.0763  -17.2553   21.9959 C   0  0  0  0  0  0  0  0  0  0  0  0
    7.1453  -15.7539   22.0226 C   0  0  1  0  0  0  0  0  0  0  0  0
    7.8895  -15.2905   23.2285 C   0  0  0  0  0  0  0  0  0  0  0  0
    9.1407  -15.3619   23.1735 O   0  0  0  0  0  0  0  0  0  0  0  0
    5.6358  -12.0704   27.3770 C   0  0  0  0  0  0  0  0  0  0  0  0
    6.1357  -13.2338   26.5896 C   0  0  0  0  0  0  0  0  0  0  0  0
    7.5620  -13.0762   26.1308 C   0  0  2  0  0  0  0  0  0  0  0  0
    7.5895  -11.9944   25.0716 C   0  0  0  0  0  0  0  0  0  0  0  0
    8.0984  -14.3433   25.5016 C   0  0  2  0  0  0  0  0  0  0  0  0
    7.2747  -14.7873   24.3976 N   0  0  0  0  0  0  0  0  0  0  0  0
    8.1978  -15.4178   26.5046 C   0  0  0  0  0  0  0  0  0  0  0  0
    9.1198  -15.3846   27.5348 O   0  0  0  0  0  0  0  0  0  0  0  0
    7.4321  -16.3995   26.4384 O   0  0  0  0  0  0  0  0  0  0  0  0
  2  1  1  1
  3  2  1  0
  4  2  1  0
  4  5  2  0
  6  4  1  0
  7  6  1  0
  8  9  1  0
  8  7  1  0
  9 10  1  0
 10  6  1  0
 10 11  1  1
 11 12  2  0
 14 13  1  0
 15 14  1  0
 15 16  1  6
 17 15  1  0
 18 11  1  0
 17 18  1  6
 19 17  1  0
 19 20  1  0
 21 19  2  0
M  END
$$$$
