API.pdb
     RDKit          3D

 21 21  0  0  1  0  0  0  0  0999 V2000
   10.7326  -18.7319   20.9901 C   0  0  0  0  0  0  0  0  0  0  0  0
   10.7689  -17.3304   20.3964 C   0  0  2  0  0  0  0  0  0  0  0  0
   12.1267  -17.0367   20.0969 N   0  0  0  0  0  0  0  0  0  0  0  0
   10.0347  -16.3624   21.1934 C   0  0  0  0  0  0  0  0  0  0  0  0
   10.7079  -15.6792   22.0463 O   0  0  0  0  0  0  0  0  0  0  0  0
    8.6370  -16.0771   21.1415 N   0  0  0  0  0  0  0  0  0  0  0  0
    7.7337  -16.7849   20.2525 C   0  0  0  0  0  0  0  0  0  0  0  0
    6.5597  -15.8324   20.0727 C   0  0  0  0  0  0  0  0  0  0  0  0
    6.4602  -15.2513   21.4540 C   0  0  0  0  0  0  0  0  0  0  0  0
    7.8911  -15.1171   21.8947 C   0  0  1  0  0  0  0  0  0  0  0  0
    8.0019  -15.3252   23.3669 C   0  0  0  0  0  0  0  0  0  0  0  0
    8.4890  -16.4192   23.7405 O   0  0  0  0  0  0  0  0  0  0  0  0
    5.4485  -12.3142   27.3099 C   0  0  0  0  0  0  0  0  0  0  0  0
    6.3278  -12.7008   26.1695 C   0  0  0  0  0  0  0  0  0  0  0  0
    7.5756  -13.4286   26.5970 C   0  0  2  0  0  0  0  0  0  0  0  0
    8.7443  -12.4809   26.4267 C   0  0  0  0  0  0  0  0  0  0  0  0
    7.8458  -14.6440   25.7374 C   0  0  2  0  0  0  0  0  0  0  0  0
    7.5988  -14.3788   24.3363 N   0  0  0  0  0  0  0  0  0  0  0  0
    7.0198  -15.7825   26.1756 C   0  0  0  0  0  0  0  0  0  0  0  0
    5.9911  -16.2902   25.4032 O   0  0  0  0  0  0  0  0  0  0  0  0
    7.2412  -16.3199   27.2786 O   0  0  0  0  0  0  0  0  0  0  0  0
  2  1  1  1
  3  2  1  0
  4  2  1  0
  4  5  2  0
  6  4  1  0
  7  6  1  0
  8  9  1  0
  8  7  1  0
  9 10  1  0
 10  6  1  0
 10 11  1  1
 11 12  2  0
 14 13  1  0
 15 14  1  0
 15 16  1  6
 17 15  1  0
 18 11  1  0
 17 18  1  6
 19 17  1  0
 19 20  1  0
 21 19  2  0
M  END
$$$$
