API.pdb
     RDKit          3D

 21 21  0  0  1  0  0  0  0  0999 V2000
   10.1982  -13.6175   19.3170 C   0  0  0  0  0  0  0  0  0  0  0  0
    8.6825  -13.6928   19.1942 C   0  0  2  0  0  0  0  0  0  0  0  0
    8.2484  -12.4754   18.6033 N   0  0  0  0  0  0  0  0  0  0  0  0
    8.0376  -14.1047   20.4294 C   0  0  0  0  0  0  0  0  0  0  0  0
    7.7712  -13.1838   21.2829 O   0  0  0  0  0  0  0  0  0  0  0  0
    7.6608  -15.4270   20.8126 N   0  0  0  0  0  0  0  0  0  0  0  0
    7.9361  -16.5838   19.9799 C   0  0  0  0  0  0  0  0  0  0  0  0
    6.9076  -17.6169   20.4189 C   0  0  0  0  0  0  0  0  0  0  0  0
    6.8622  -17.3520   21.8966 C   0  0  0  0  0  0  0  0  0  0  0  0
    6.9924  -15.8581   22.0012 C   0  0  1  0  0  0  0  0  0  0  0  0
    7.7274  -15.4875   23.2443 C   0  0  0  0  0  0  0  0  0  0  0  0
    8.9786  -15.5632   23.1961 O   0  0  0  0  0  0  0  0  0  0  0  0
    5.6385  -11.7539   26.4290 C   0  0  0  0  0  0  0  0  0  0  0  0
    6.7359  -12.4860   25.7341 C   0  0  0  0  0  0  0  0  0  0  0  0
    7.2053  -13.7076   26.4803 C   0  0  2  0  0  0  0  0  0  0  0  0
    8.1954  -13.2540   27.5324 C   0  0  0  0  0  0  0  0  0  0  0  0
    7.9201  -14.6859   25.5741 C   0  0  2  0  0  0  0  0  0  0  0  0
    7.1041  -15.0656   24.4408 N   0  0  0  0  0  0  0  0  0  0  0  0
    8.3145  -15.8921   26.3224 C   0  0  0  0  0  0  0  0  0  0  0  0
    7.4910  -16.9980   26.4295 O   0  0  0  0  0  0  0  0  0  0  0  0
    9.4260  -15.9357   26.8856 O   0  0  0  0  0  0  0  0  0  0  0  0
  2  1  1  1
  3  2  1  0
  4  2  1  0
  4  5  2  0
  6  4  1  0
  7  6  1  0
  8  9  1  0
  8  7  1  0
  9 10  1  0
 10  6  1  0
 10 11  1  1
 11 12  2  0
 14 13  1  0
 15 14  1  0
 15 16  1  1
 17 15  1  0
 18 11  1  0
 17 18  1  6
 19 17  1  0
 19 20  1  0
 21 19  2  0
M  END
$$$$
