API.pdb
     RDKit          3D

 21 21  0  0  1  0  0  0  0  0999 V2000
   10.5586  -18.9834   20.9219 C   0  0  0  0  0  0  0  0  0  0  0  0
   10.5330  -17.6804   20.1350 C   0  0  2  0  0  0  0  0  0  0  0  0
   11.8567  -17.4407   19.6768 N   0  0  0  0  0  0  0  0  0  0  0  0
    9.8667  -16.6046   20.8493 C   0  0  0  0  0  0  0  0  0  0  0  0
   10.5976  -15.8634   21.6001 O   0  0  0  0  0  0  0  0  0  0  0  0
    8.4796  -16.2696   20.8163 N   0  0  0  0  0  0  0  0  0  0  0  0
    7.5139  -17.0393   20.0532 C   0  0  0  0  0  0  0  0  0  0  0  0
    6.3692  -16.0667   19.8050 C   0  0  0  0  0  0  0  0  0  0  0  0
    6.3498  -15.3229   21.1097 C   0  0  0  0  0  0  0  0  0  0  0  0
    7.8021  -15.1972   21.4769 C   0  0  1  0  0  0  0  0  0  0  0  0
    7.9674  -15.2344   22.9581 C   0  0  0  0  0  0  0  0  0  0  0  0
    8.6499  -16.1804   23.4197 O   0  0  0  0  0  0  0  0  0  0  0  0
    7.3520  -11.8499   28.1598 C   0  0  0  0  0  0  0  0  0  0  0  0
    7.7094  -13.1004   27.4307 C   0  0  0  0  0  0  0  0  0  0  0  0
    7.3047  -13.0826   25.9797 C   0  0  2  0  0  0  0  0  0  0  0  0
    5.7917  -13.0591   25.9225 C   0  0  0  0  0  0  0  0  0  0  0  0
    7.7689  -14.3218   25.2462 C   0  0  2  0  0  0  0  0  0  0  0  0
    7.4113  -14.2841   23.8444 N   0  0  0  0  0  0  0  0  0  0  0  0
    7.2032  -15.5329   25.8658 C   0  0  0  0  0  0  0  0  0  0  0  0
    7.8516  -16.2177   26.8774 O   0  0  0  0  0  0  0  0  0  0  0  0
    6.1022  -15.9706   25.4776 O   0  0  0  0  0  0  0  0  0  0  0  0
  2  1  1  1
  3  2  1  0
  4  2  1  0
  4  5  2  0
  6  4  1  0
  7  6  1  0
  8  9  1  0
  8  7  1  0
  9 10  1  0
 10  6  1  0
 10 11  1  1
 11 12  2  0
 14 13  1  0
 15 14  1  0
 15 16  1  1
 17 15  1  0
 18 11  1  0
 17 18  1  6
 19 17  1  0
 19 20  1  0
 21 19  2  0
M  END
$$$$
