API.pdb
     RDKit          3D

 21 21  0  0  1  0  0  0  0  0999 V2000
    9.9479  -13.8620   19.1158 C   0  0  0  0  0  0  0  0  0  0  0  0
    8.4263  -13.8837   19.0689 C   0  0  2  0  0  0  0  0  0  0  0  0
    8.0081  -12.6712   18.4568 N   0  0  0  0  0  0  0  0  0  0  0  0
    7.8288  -14.2289   20.3476 C   0  0  0  0  0  0  0  0  0  0  0  0
    7.6054  -13.2653   21.1656 O   0  0  0  0  0  0  0  0  0  0  0  0
    7.4565  -15.5273   20.8093 N   0  0  0  0  0  0  0  0  0  0  0  0
    7.6492  -16.7208   20.0056 C   0  0  0  0  0  0  0  0  0  0  0  0
    6.6364  -17.7141   20.5582 C   0  0  0  0  0  0  0  0  0  0  0  0
    6.7033  -17.3917   22.0236 C   0  0  0  0  0  0  0  0  0  0  0  0
    6.8683  -15.8980   22.0590 C   0  0  1  0  0  0  0  0  0  0  0  0
    7.6983  -15.4958   23.2303 C   0  0  0  0  0  0  0  0  0  0  0  0
    8.9416  -15.5881   23.0911 O   0  0  0  0  0  0  0  0  0  0  0  0
    5.8423  -12.2108   27.5288 C   0  0  0  0  0  0  0  0  0  0  0  0
    6.2187  -13.3692   26.6689 C   0  0  0  0  0  0  0  0  0  0  0  0
    7.6120  -13.2671   26.1051 C   0  0  2  0  0  0  0  0  0  0  0  0
    7.5894  -12.2282   25.0036 C   0  0  0  0  0  0  0  0  0  0  0  0
    8.0724  -14.5712   25.4916 C   0  0  2  0  0  0  0  0  0  0  0  0
    7.1710  -15.0272   24.4553 N   0  0  0  0  0  0  0  0  0  0  0  0
    8.2009  -15.6131   26.5253 C   0  0  0  0  0  0  0  0  0  0  0  0
    7.3734  -16.7205   26.5657 O   0  0  0  0  0  0  0  0  0  0  0  0
    9.0807  -15.5099   27.4026 O   0  0  0  0  0  0  0  0  0  0  0  0
  2  1  1  1
  3  2  1  0
  4  2  1  0
  4  5  2  0
  6  4  1  0
  7  6  1  0
  8  9  1  0
  8  7  1  0
  9 10  1  0
 10  6  1  0
 10 11  1  1
 11 12  2  0
 14 13  1  0
 15 14  1  0
 15 16  1  6
 17 15  1  0
 18 11  1  0
 17 18  1  6
 19 17  1  0
 19 20  1  0
 21 19  2  0
M  END
$$$$
