API.pdb
     RDKit          3D

 21 21  0  0  1  0  0  0  0  0999 V2000
    8.6818  -12.4424   19.4477 C   0  0  0  0  0  0  0  0  0  0  0  0
    7.9447  -13.7645   19.2858 C   0  0  2  0  0  0  0  0  0  0  0  0
    6.7590  -13.4965   18.5496 N   0  0  0  0  0  0  0  0  0  0  0  0
    7.8059  -14.4885   20.5380 C   0  0  0  0  0  0  0  0  0  0  0  0
    6.8626  -14.1163   21.3249 O   0  0  0  0  0  0  0  0  0  0  0  0
    8.6031  -15.5769   21.0041 N   0  0  0  0  0  0  0  0  0  0  0  0
    9.6313  -16.1918   20.1843 C   0  0  0  0  0  0  0  0  0  0  0  0
    9.7939  -17.5880   20.7691 C   0  0  0  0  0  0  0  0  0  0  0  0
    9.6287  -17.2962   22.2331 C   0  0  0  0  0  0  0  0  0  0  0  0
    8.5650  -16.2348   22.2734 C   0  0  1  0  0  0  0  0  0  0  0  0
    8.8037  -15.3046   23.4138 C   0  0  0  0  0  0  0  0  0  0  0  0
    9.7040  -14.4458   23.2542 O   0  0  0  0  0  0  0  0  0  0  0  0
    6.3957  -11.3264   26.9980 C   0  0  0  0  0  0  0  0  0  0  0  0
    7.4623  -12.3628   26.8909 C   0  0  0  0  0  0  0  0  0  0  0  0
    7.1974  -13.3839   25.8153 C   0  0  2  0  0  0  0  0  0  0  0  0
    5.9914  -14.1967   26.2371 C   0  0  0  0  0  0  0  0  0  0  0  0
    8.3558  -14.3422   25.6456 C   0  0  2  0  0  0  0  0  0  0  0  0
    8.0865  -15.3388   24.6314 N   0  0  0  0  0  0  0  0  0  0  0  0
    8.6666  -15.0102   26.9214 C   0  0  0  0  0  0  0  0  0  0  0  0
    8.4756  -16.3667   27.1115 O   0  0  0  0  0  0  0  0  0  0  0  0
    9.1186  -14.3455   27.8745 O   0  0  0  0  0  0  0  0  0  0  0  0
  2  1  1  1
  3  2  1  0
  4  2  1  0
  4  5  2  0
  6  4  1  0
  7  6  1  0
  8  9  1  0
  8  7  1  0
  9 10  1  0
 10  6  1  0
 10 11  1  1
 11 12  2  0
 14 13  1  0
 15 14  1  0
 15 16  1  1
 17 15  1  0
 18 11  1  0
 17 18  1  6
 19 17  1  0
 19 20  1  0
 21 19  2  0
M  END
$$$$
