API.pdb
     RDKit          3D

 21 21  0  0  1  0  0  0  0  0999 V2000
   10.7442  -18.6898   21.1561 C   0  0  0  0  0  0  0  0  0  0  0  0
   10.7283  -17.3547   20.4245 C   0  0  2  0  0  0  0  0  0  0  0  0
   12.0697  -17.0608   20.0585 N   0  0  0  0  0  0  0  0  0  0  0  0
    9.9899  -16.3289   21.1414 C   0  0  0  0  0  0  0  0  0  0  0  0
   10.6635  -15.5631   21.9206 O   0  0  0  0  0  0  0  0  0  0  0  0
    8.5878  -16.0680   21.0828 N   0  0  0  0  0  0  0  0  0  0  0  0
    7.6994  -16.7985   20.1971 C   0  0  0  0  0  0  0  0  0  0  0  0
    6.5099  -15.8678   20.0057 C   0  0  0  0  0  0  0  0  0  0  0  0
    6.3962  -15.2768   21.3818 C   0  0  0  0  0  0  0  0  0  0  0  0
    7.8232  -15.1146   21.8257 C   0  0  1  0  0  0  0  0  0  0  0  0
    7.9328  -15.3084   23.2999 C   0  0  0  0  0  0  0  0  0  0  0  0
    8.3527  -16.4257   23.6859 O   0  0  0  0  0  0  0  0  0  0  0  0
    5.8412  -11.6868   27.2498 C   0  0  0  0  0  0  0  0  0  0  0  0
    6.1702  -12.7765   26.2867 C   0  0  0  0  0  0  0  0  0  0  0  0
    7.5201  -13.4002   26.5284 C   0  0  2  0  0  0  0  0  0  0  0  0
    8.5741  -12.3805   26.1513 C   0  0  0  0  0  0  0  0  0  0  0  0
    7.7417  -14.6241   25.6669 C   0  0  2  0  0  0  0  0  0  0  0  0
    7.5986  -14.3246   24.2583 N   0  0  0  0  0  0  0  0  0  0  0  0
    6.8030  -15.6967   26.0396 C   0  0  0  0  0  0  0  0  0  0  0  0
    6.9718  -16.4647   27.1772 O   0  0  0  0  0  0  0  0  0  0  0  0
    5.8159  -15.9348   25.3161 O   0  0  0  0  0  0  0  0  0  0  0  0
  2  1  1  1
  3  2  1  0
  4  2  1  0
  4  5  2  0
  6  4  1  0
  7  6  1  0
  8  9  1  0
  8  7  1  0
  9 10  1  0
 10  6  1  0
 10 11  1  1
 11 12  2  0
 14 13  1  0
 15 14  1  0
 15 16  1  6
 17 15  1  0
 18 11  1  0
 17 18  1  6
 19 17  1  0
 19 20  1  0
 21 19  2  0
M  END
$$$$
