API.pdb
     RDKit          3D

 21 21  0  0  1  0  0  0  0  0999 V2000
    9.7048  -18.4958   20.0695 C   0  0  0  0  0  0  0  0  0  0  0  0
   10.3729  -17.1596   19.7761 C   0  0  2  0  0  0  0  0  0  0  0  0
   11.7556  -17.4175   19.5730 N   0  0  0  0  0  0  0  0  0  0  0  0
   10.0182  -16.1297   20.7378 C   0  0  0  0  0  0  0  0  0  0  0  0
   10.7835  -15.9984   21.7598 O   0  0  0  0  0  0  0  0  0  0  0  0
    8.9066  -15.2361   20.6820 N   0  0  0  0  0  0  0  0  0  0  0  0
    7.9768  -15.2237   19.5673 C   0  0  0  0  0  0  0  0  0  0  0  0
    7.3676  -13.8289   19.6009 C   0  0  0  0  0  0  0  0  0  0  0  0
    7.2603  -13.6090   21.0828 C   0  0  0  0  0  0  0  0  0  0  0  0
    8.5033  -14.2489   21.6351 C   0  0  1  0  0  0  0  0  0  0  0  0
    8.2348  -14.8239   22.9842 C   0  0  0  0  0  0  0  0  0  0  0  0
    8.2986  -16.0729   23.0811 O   0  0  0  0  0  0  0  0  0  0  0  0
    5.9324  -11.9467   27.3574 C   0  0  0  0  0  0  0  0  0  0  0  0
    6.2839  -12.8607   26.2331 C   0  0  0  0  0  0  0  0  0  0  0  0
    7.4841  -13.7254   26.5187 C   0  0  2  0  0  0  0  0  0  0  0  0
    8.6928  -12.8189   26.6196 C   0  0  0  0  0  0  0  0  0  0  0  0
    7.7483  -14.7145   25.4048 C   0  0  2  0  0  0  0  0  0  0  0  0
    7.9223  -14.0550   24.1284 N   0  0  0  0  0  0  0  0  0  0  0  0
    6.6497  -15.6914   25.3080 C   0  0  0  0  0  0  0  0  0  0  0  0
    6.4344  -16.6597   26.2716 O   0  0  0  0  0  0  0  0  0  0  0  0
    5.8768  -15.6594   24.3302 O   0  0  0  0  0  0  0  0  0  0  0  0
  2  1  1  1
  3  2  1  0
  4  2  1  0
  4  5  2  0
  6  4  1  0
  7  6  1  0
  8  9  1  0
  8  7  1  0
  9 10  1  0
 10  6  1  0
 10 11  1  1
 11 12  2  0
 14 13  1  0
 15 14  1  0
 15 16  1  6
 17 15  1  0
 18 11  1  0
 17 18  1  6
 19 17  1  0
 19 20  1  0
 21 19  2  0
M  END
$$$$
