API.pdb
     RDKit          3D

 21 21  0  0  1  0  0  0  0  0999 V2000
    7.8728  -15.8318   20.4812 C   0  0  0  0  0  0  0  0  0  0  0  0
    7.8978  -14.3522   20.8387 C   0  0  2  0  0  0  0  0  0  0  0  0
    8.6410  -13.6882   19.8256 N   0  0  0  0  0  0  0  0  0  0  0  0
    8.2851  -14.1131   22.2187 C   0  0  0  0  0  0  0  0  0  0  0  0
    9.5408  -14.1345   22.4835 O   0  0  0  0  0  0  0  0  0  0  0  0
    7.4259  -13.8549   23.3289 N   0  0  0  0  0  0  0  0  0  0  0  0
    5.9793  -13.9030   23.2175 C   0  0  0  0  0  0  0  0  0  0  0  0
    5.4845  -13.0304   24.3627 C   0  0  0  0  0  0  0  0  0  0  0  0
    6.4852  -13.3772   25.4277 C   0  0  0  0  0  0  0  0  0  0  0  0
    7.7781  -13.5264   24.6755 C   0  0  1  0  0  0  0  0  0  0  0  0
    8.6351  -14.5634   25.3181 C   0  0  0  0  0  0  0  0  0  0  0  0
    8.8773  -15.5879   24.6360 O   0  0  0  0  0  0  0  0  0  0  0  0
   11.4681  -15.3084   30.5904 C   0  0  0  0  0  0  0  0  0  0  0  0
   11.3459  -15.8846   29.2206 C   0  0  0  0  0  0  0  0  0  0  0  0
   11.0366  -14.8555   28.1648 C   0  0  2  0  0  0  0  0  0  0  0  0
   10.2727  -13.7287   28.8280 C   0  0  0  0  0  0  0  0  0  0  0  0
   10.1596  -15.4157   27.0666 C   0  0  2  0  0  0  0  0  0  0  0  0
    9.1749  -14.4538   26.6199 N   0  0  0  0  0  0  0  0  0  0  0  0
    9.4796  -16.6410   27.5211 C   0  0  0  0  0  0  0  0  0  0  0  0
   10.1344  -17.8546   27.6256 O   0  0  0  0  0  0  0  0  0  0  0  0
    8.2715  -16.6018   27.8266 O   0  0  0  0  0  0  0  0  0  0  0  0
  2  1  1  6
  3  2  1  0
  4  2  1  0
  4  5  2  0
  6  4  1  0
  7  6  1  0
  8  9  1  0
  8  7  1  0
  9 10  1  0
 10  6  1  0
 10 11  1  1
 11 12  2  0
 14 13  1  0
 15 14  1  0
 15 16  1  1
 17 15  1  0
 18 11  1  0
 17 18  1  1
 19 17  1  0
 19 20  1  0
 21 19  2  0
M  END
$$$$
