API.pdb
     RDKit          3D

 21 21  0  0  1  0  0  0  0  0999 V2000
   10.1338  -13.2365   19.4888 C   0  0  0  0  0  0  0  0  0  0  0  0
    8.6891  -13.6514   19.2464 C   0  0  2  0  0  0  0  0  0  0  0  0
    8.0589  -12.5875   18.5459 N   0  0  0  0  0  0  0  0  0  0  0  0
    8.0353  -14.1419   20.4478 C   0  0  0  0  0  0  0  0  0  0  0  0
    7.4855  -13.2679   21.2102 O   0  0  0  0  0  0  0  0  0  0  0  0
    7.9305  -15.4957   20.8877 N   0  0  0  0  0  0  0  0  0  0  0  0
    8.4091  -16.6097   20.0893 C   0  0  0  0  0  0  0  0  0  0  0  0
    7.6100  -17.8039   20.5924 C   0  0  0  0  0  0  0  0  0  0  0  0
    7.5430  -17.4939   22.0604 C   0  0  0  0  0  0  0  0  0  0  0  0
    7.3821  -16.0001   22.1085 C   0  0  1  0  0  0  0  0  0  0  0  0
    8.0554  -15.4448   23.3173 C   0  0  0  0  0  0  0  0  0  0  0  0
    9.2903  -15.2446   23.2256 O   0  0  0  0  0  0  0  0  0  0  0  0
    5.5683  -11.8854   26.4950 C   0  0  0  0  0  0  0  0  0  0  0  0
    6.6605  -12.5739   25.7492 C   0  0  0  0  0  0  0  0  0  0  0  0
    7.2846  -13.7098   26.5171 C   0  0  2  0  0  0  0  0  0  0  0  0
    8.1843  -13.1109   27.5777 C   0  0  0  0  0  0  0  0  0  0  0  0
    8.1440  -14.5871   25.6334 C   0  0  2  0  0  0  0  0  0  0  0  0
    7.3916  -15.1394   24.5274 N   0  0  0  0  0  0  0  0  0  0  0  0
    8.7433  -15.6819   26.4162 C   0  0  0  0  0  0  0  0  0  0  0  0
   10.0223  -15.6048   26.9364 O   0  0  0  0  0  0  0  0  0  0  0  0
    8.0893  -16.7222   26.6273 O   0  0  0  0  0  0  0  0  0  0  0  0
  2  1  1  1
  3  2  1  0
  4  2  1  0
  4  5  2  0
  6  4  1  0
  7  6  1  0
  8  9  1  0
  8  7  1  0
  9 10  1  0
 10  6  1  0
 10 11  1  1
 11 12  2  0
 14 13  1  0
 15 14  1  0
 15 16  1  1
 17 15  1  0
 18 11  1  0
 17 18  1  6
 19 17  1  0
 19 20  1  0
 21 19  2  0
M  END
$$$$
