API.pdb
     RDKit          3D

 21 21  0  0  1  0  0  0  0  0999 V2000
    9.8745  -13.2719   19.1884 C   0  0  0  0  0  0  0  0  0  0  0  0
    8.4455  -13.7920   19.1154 C   0  0  2  0  0  0  0  0  0  0  0  0
    7.6876  -12.8359   18.3867 N   0  0  0  0  0  0  0  0  0  0  0  0
    7.9314  -14.2084   20.4092 C   0  0  0  0  0  0  0  0  0  0  0  0
    7.4540  -13.2910   21.1693 O   0  0  0  0  0  0  0  0  0  0  0  0
    7.8940  -15.5317   20.9431 N   0  0  0  0  0  0  0  0  0  0  0  0
    8.3660  -16.6831   20.1956 C   0  0  0  0  0  0  0  0  0  0  0  0
    7.6336  -17.8629   20.8197 C   0  0  0  0  0  0  0  0  0  0  0  0
    7.6336  -17.4557   22.2654 C   0  0  0  0  0  0  0  0  0  0  0  0
    7.4270  -15.9674   22.2227 C   0  0  1  0  0  0  0  0  0  0  0  0
    8.1443  -15.3118   23.3535 C   0  0  0  0  0  0  0  0  0  0  0  0
    9.3837  -15.1708   23.2211 O   0  0  0  0  0  0  0  0  0  0  0  0
    5.8124  -11.9630   27.3303 C   0  0  0  0  0  0  0  0  0  0  0  0
    6.2696  -13.0274   26.3916 C   0  0  0  0  0  0  0  0  0  0  0  0
    7.7168  -12.8934   25.9953 C   0  0  2  0  0  0  0  0  0  0  0  0
    7.7860  -11.9528   24.8106 C   0  0  0  0  0  0  0  0  0  0  0  0
    8.3110  -14.2157   25.5622 C   0  0  2  0  0  0  0  0  0  0  0  0
    7.5165  -14.8525   24.5338 N   0  0  0  0  0  0  0  0  0  0  0  0
    8.4455  -15.1250   26.7136 C   0  0  0  0  0  0  0  0  0  0  0  0
    7.7890  -16.3405   26.7763 O   0  0  0  0  0  0  0  0  0  0  0  0
    9.1725  -14.8043   27.6744 O   0  0  0  0  0  0  0  0  0  0  0  0
  2  1  1  1
  3  2  1  0
  4  2  1  0
  4  5  2  0
  6  4  1  0
  7  6  1  0
  8  9  1  0
  8  7  1  0
  9 10  1  0
 10  6  1  0
 10 11  1  1
 11 12  2  0
 14 13  1  0
 15 14  1  0
 15 16  1  6
 17 15  1  0
 18 11  1  0
 17 18  1  6
 19 17  1  0
 19 20  1  0
 21 19  2  0
M  END
$$$$
