API.pdb
     RDKit          3D

 21 21  0  0  1  0  0  0  0  0999 V2000
    9.5505  -13.4621   19.4570 C   0  0  0  0  0  0  0  0  0  0  0  0
    8.0985  -13.9055   19.3443 C   0  0  2  0  0  0  0  0  0  0  0  0
    7.3929  -12.8666   18.6790 N   0  0  0  0  0  0  0  0  0  0  0  0
    7.5561  -14.3821   20.6053 C   0  0  0  0  0  0  0  0  0  0  0  0
    7.0099  -13.5094   21.3717 O   0  0  0  0  0  0  0  0  0  0  0  0
    7.5587  -15.7209   21.1004 N   0  0  0  0  0  0  0  0  0  0  0  0
    8.0349  -16.8399   20.3077 C   0  0  0  0  0  0  0  0  0  0  0  0
    7.3423  -18.0524   20.9142 C   0  0  0  0  0  0  0  0  0  0  0  0
    7.3703  -17.6877   22.3709 C   0  0  0  0  0  0  0  0  0  0  0  0
    7.1329  -16.2034   22.3776 C   0  0  1  0  0  0  0  0  0  0  0  0
    7.8650  -15.5664   23.5094 C   0  0  0  0  0  0  0  0  0  0  0  0
    9.0851  -15.3389   23.3271 O   0  0  0  0  0  0  0  0  0  0  0  0
    5.5129  -11.7616   26.4939 C   0  0  0  0  0  0  0  0  0  0  0  0
    6.5079  -12.5704   25.7329 C   0  0  0  0  0  0  0  0  0  0  0  0
    7.2223  -13.5906   26.5803 C   0  0  2  0  0  0  0  0  0  0  0  0
    8.1594  -12.8459   27.5078 C   0  0  0  0  0  0  0  0  0  0  0  0
    8.0614  -14.5334   25.7460 C   0  0  2  0  0  0  0  0  0  0  0  0
    7.2710  -15.2139   24.7427 N   0  0  0  0  0  0  0  0  0  0  0  0
    8.7303  -15.5278   26.6030 C   0  0  0  0  0  0  0  0  0  0  0  0
   10.0285  -15.3641   27.0507 O   0  0  0  0  0  0  0  0  0  0  0  0
    8.1203  -16.5593   26.9469 O   0  0  0  0  0  0  0  0  0  0  0  0
  2  1  1  1
  3  2  1  0
  4  2  1  0
  4  5  2  0
  6  4  1  0
  7  6  1  0
  8  9  1  0
  8  7  1  0
  9 10  1  0
 10  6  1  0
 10 11  1  1
 11 12  2  0
 14 13  1  0
 15 14  1  0
 15 16  1  1
 17 15  1  0
 18 11  1  0
 17 18  1  6
 19 17  1  0
 19 20  1  0
 21 19  2  0
M  END
$$$$
