LSI.pdb
     RDKit          3D

 23 22  0  0  1  0  0  0  0  0999 V2000
    9.2596  -13.2420   18.6596 C   0  0  0  0  0  0  0  0  0  0  0  0
    7.8550  -13.7217   18.5750 C   0  0  2  0  0  0  0  0  0  0  0  0
    6.9395  -12.7378   17.8375 C   0  0  0  0  0  0  0  0  0  0  0  0
    7.2328  -14.2984   19.7967 C   0  0  0  0  0  0  0  0  0  0  0  0
    8.0671  -15.2689   20.5939 C   0  0  2  0  0  0  0  0  0  0  0  0
    8.2123  -16.5418   19.9326 N   0  0  0  0  0  0  0  0  0  0  0  0
    7.6675  -15.3522   22.0169 C   0  0  0  0  0  0  0  0  0  0  0  0
    7.5226  -14.3527   22.7692 O   0  0  0  0  0  0  0  0  0  0  0  0
    8.1047  -19.0062   24.1699 O   0  0  0  0  0  0  0  0  0  0  0  0
    6.8729  -18.3507   24.3289 C   0  0  0  0  0  0  0  0  0  0  0  0
    7.1613  -16.8217   24.0205 C   0  0  2  0  0  0  0  0  0  0  0  0
    7.4077  -16.6316   22.6461 N   0  0  0  0  0  0  0  0  0  0  0  0
    8.1540  -16.3560   24.9792 C   0  0  0  0  0  0  0  0  0  0  0  0
    9.4104  -16.4969   24.7893 O   0  0  0  0  0  0  0  0  0  0  0  0
    6.8400  -11.9027   27.2611 C   0  0  0  0  0  0  0  0  0  0  0  0
    7.7107  -12.9555   26.6763 C   0  0  0  0  0  0  0  0  0  0  0  0
    8.4164  -13.8010   27.6854 C   0  0  2  0  0  0  0  0  0  0  0  0
    9.5742  -13.1017   28.3457 C   0  0  0  0  0  0  0  0  0  0  0  0
    8.8845  -15.1257   27.0803 C   0  0  2  0  0  0  0  0  0  0  0  0
    7.8696  -15.6855   26.2258 N   0  0  0  0  0  0  0  0  0  0  0  0
    9.3981  -16.0492   28.1130 C   0  0  0  0  0  0  0  0  0  0  0  0
    8.6784  -17.1851   28.4433 O   0  0  0  0  0  0  0  0  0  0  0  0
   10.4825  -15.8476   28.7232 O   0  0  0  0  0  0  0  0  0  0  0  0
  2  1  1  1
  3  2  1  0
  4  2  1  0
  5  4  1  0
  5  6  1  6
  7  8  2  0
  7  5  1  0
  9 10  1  0
 11 10  1  6
 11 13  1  0
 11 12  1  0
 12  7  1  0
 13 20  1  0
 14 13  2  0
 15 16  1  0
 17 19  1  0
 17 16  1  0
 17 18  1  6
 19 21  1  0
 19 20  1  1
 21 23  2  0
 21 22  1  0
M  END
$$$$
