LSI.pdb
     RDKit          3D

 23 22  0  0  1  0  0  0  0  0999 V2000
    9.0403  -12.5979   18.8549 C   0  0  0  0  0  0  0  0  0  0  0  0
    7.7537  -13.3298   18.9918 C   0  0  2  0  0  0  0  0  0  0  0  0
    6.5404  -12.4592   18.6454 C   0  0  0  0  0  0  0  0  0  0  0  0
    7.5463  -14.1697   20.2018 C   0  0  0  0  0  0  0  0  0  0  0  0
    8.7321  -14.9592   20.6955 C   0  0  2  0  0  0  0  0  0  0  0  0
    9.0711  -16.0504   19.8161 N   0  0  0  0  0  0  0  0  0  0  0  0
    8.6370  -15.3240   22.1270 C   0  0  0  0  0  0  0  0  0  0  0  0
    8.2537  -14.5368   23.0323 O   0  0  0  0  0  0  0  0  0  0  0  0
   10.6693  -18.6428   23.5780 O   0  0  0  0  0  0  0  0  0  0  0  0
    9.3386  -18.6210   24.0262 C   0  0  0  0  0  0  0  0  0  0  0  0
    8.8759  -17.1080   23.9132 C   0  0  2  0  0  0  0  0  0  0  0  0
    8.9874  -16.6540   22.5838 N   0  0  0  0  0  0  0  0  0  0  0  0
    9.5486  -16.3593   24.9659 C   0  0  0  0  0  0  0  0  0  0  0  0
   10.7344  -15.9008   24.8316 O   0  0  0  0  0  0  0  0  0  0  0  0
    7.2519  -12.3433   27.1241 C   0  0  0  0  0  0  0  0  0  0  0  0
    8.2074  -13.3918   26.6809 C   0  0  0  0  0  0  0  0  0  0  0  0
    8.8636  -14.1374   27.7964 C   0  0  2  0  0  0  0  0  0  0  0  0
    9.7046  -13.2622   28.6865 C   0  0  0  0  0  0  0  0  0  0  0  0
    9.7006  -15.3070   27.2750 C   0  0  2  0  0  0  0  0  0  0  0  0
    8.9878  -16.0326   26.2557 N   0  0  0  0  0  0  0  0  0  0  0  0
   10.2207  -16.1432   28.3764 C   0  0  0  0  0  0  0  0  0  0  0  0
   11.3215  -15.7217   29.1031 O   0  0  0  0  0  0  0  0  0  0  0  0
    9.7011  -17.2473   28.6922 O   0  0  0  0  0  0  0  0  0  0  0  0
  2  1  1  1
  3  2  1  0
  4  2  1  0
  5  4  1  0
  5  6  1  6
  7  8  2  0
  7  5  1  0
  9 10  1  0
 11 10  1  6
 11 13  1  0
 11 12  1  0
 12  7  1  0
 13 20  1  0
 14 13  2  0
 15 16  1  0
 17 19  1  0
 17 16  1  0
 17 18  1  6
 19 21  1  0
 19 20  1  6
 21 23  2  0
 21 22  1  0
M  END
$$$$
