LSI.pdb
     RDKit          3D

 23 22  0  0  1  0  0  0  0  0999 V2000
   11.9144  -20.4042   19.4330 C   0  0  0  0  0  0  0  0  0  0  0  0
   12.8891  -19.5014   20.1000 C   0  0  2  0  0  0  0  0  0  0  0  0
   14.1622  -20.2320   20.5425 C   0  0  0  0  0  0  0  0  0  0  0  0
   12.3798  -18.5427   21.1169 C   0  0  0  0  0  0  0  0  0  0  0  0
   11.0924  -17.8270   20.7950 C   0  0  2  0  0  0  0  0  0  0  0  0
   11.1911  -17.0289   19.5983 N   0  0  0  0  0  0  0  0  0  0  0  0
   10.5055  -17.1267   21.9598 C   0  0  0  0  0  0  0  0  0  0  0  0
   10.8963  -16.0057   22.3801 O   0  0  0  0  0  0  0  0  0  0  0  0
    7.7324  -19.2076   24.3422 O   0  0  0  0  0  0  0  0  0  0  0  0
    7.4370  -17.8444   24.1790 C   0  0  0  0  0  0  0  0  0  0  0  0
    8.8233  -17.1440   23.8571 C   0  0  2  0  0  0  0  0  0  0  0  0
    9.4081  -17.7088   22.7061 N   0  0  0  0  0  0  0  0  0  0  0  0
    9.5988  -17.1092   25.0894 C   0  0  0  0  0  0  0  0  0  0  0  0
   10.6364  -17.8344   25.2680 O   0  0  0  0  0  0  0  0  0  0  0  0
    8.8145  -12.8067   28.4110 C   0  0  0  0  0  0  0  0  0  0  0  0
    9.4258  -13.8962   27.6059 C   0  0  0  0  0  0  0  0  0  0  0  0
    9.6989  -15.1487   28.3724 C   0  0  2  0  0  0  0  0  0  0  0  0
   10.7345  -14.9752   29.4508 C   0  0  0  0  0  0  0  0  0  0  0  0
   10.0991  -16.2986   27.4463 C   0  0  2  0  0  0  0  0  0  0  0  0
    9.3216  -16.2745   26.2345 N   0  0  0  0  0  0  0  0  0  0  0  0
   10.0992  -17.5966   28.1521 C   0  0  0  0  0  0  0  0  0  0  0  0
   11.2369  -18.0206   28.8179 O   0  0  0  0  0  0  0  0  0  0  0  0
    9.0925  -18.3548   28.1761 O   0  0  0  0  0  0  0  0  0  0  0  0
  2  1  1  1
  3  2  1  0
  4  2  1  0
  5  4  1  0
  5  6  1  6
  7  8  2  0
  7  5  1  0
  9 10  1  0
 11 10  1  1
 11 13  1  0
 11 12  1  0
 12  7  1  0
 13 20  1  0
 14 13  2  0
 15 16  1  0
 17 19  1  0
 17 16  1  0
 17 18  1  1
 19 21  1  0
 19 20  1  6
 21 23  2  0
 21 22  1  0
M  END
$$$$
