LSI.pdb
     RDKit          3D

 23 22  0  0  1  0  0  0  0  0999 V2000
    9.8118  -13.2598   19.7355 C   0  0  0  0  0  0  0  0  0  0  0  0
    8.3764  -13.2990   19.3505 C   0  0  2  0  0  0  0  0  0  0  0  0
    7.7297  -11.9090   19.3436 C   0  0  0  0  0  0  0  0  0  0  0  0
    7.5119  -14.3448   19.9598 C   0  0  0  0  0  0  0  0  0  0  0  0
    8.1543  -15.6782   20.2477 C   0  0  2  0  0  0  0  0  0  0  0  0
    7.8072  -16.6786   19.2692 N   0  0  0  0  0  0  0  0  0  0  0  0
    8.0012  -16.1094   21.6555 C   0  0  0  0  0  0  0  0  0  0  0  0
    6.9082  -16.1029   22.2811 O   0  0  0  0  0  0  0  0  0  0  0  0
   11.1529  -18.1671   23.5102 O   0  0  0  0  0  0  0  0  0  0  0  0
    9.8368  -18.3845   23.9492 C   0  0  0  0  0  0  0  0  0  0  0  0
    9.0920  -16.9961   23.7660 C   0  0  2  0  0  0  0  0  0  0  0  0
    9.1379  -16.5834   22.4193 N   0  0  0  0  0  0  0  0  0  0  0  0
    9.5874  -16.0889   24.7920 C   0  0  0  0  0  0  0  0  0  0  0  0
   10.7278  -15.5168   24.7097 O   0  0  0  0  0  0  0  0  0  0  0  0
    6.3833  -12.4870   26.8346 C   0  0  0  0  0  0  0  0  0  0  0  0
    7.5415  -13.3077   26.3945 C   0  0  0  0  0  0  0  0  0  0  0  0
    8.3581  -13.8689   27.5122 C   0  0  2  0  0  0  0  0  0  0  0  0
    8.9952  -12.8129   28.3751 C   0  0  0  0  0  0  0  0  0  0  0  0
    9.4265  -14.8353   26.9977 C   0  0  2  0  0  0  0  0  0  0  0  0
    8.8823  -15.7138   25.9949 N   0  0  0  0  0  0  0  0  0  0  0  0
   10.1240  -15.5217   28.1047 C   0  0  0  0  0  0  0  0  0  0  0  0
    9.9187  -16.8745   28.3170 O   0  0  0  0  0  0  0  0  0  0  0  0
   10.9123  -14.9218   28.8841 O   0  0  0  0  0  0  0  0  0  0  0  0
  2  1  1  1
  3  2  1  0
  4  2  1  0
  5  4  1  0
  5  6  1  6
  7  8  2  0
  7  5  1  0
  9 10  1  0
 11 10  1  6
 11 13  1  0
 11 12  1  0
 12  7  1  0
 13 20  1  0
 14 13  2  0
 15 16  1  0
 17 19  1  0
 17 16  1  0
 17 18  1  6
 19 21  1  0
 19 20  1  6
 21 23  2  0
 21 22  1  0
M  END
$$$$
