LSI.pdb
     RDKit          3D

 23 22  0  0  1  0  0  0  0  0999 V2000
    9.2316  -13.2156   18.4492 C   0  0  0  0  0  0  0  0  0  0  0  0
    7.8125  -13.6528   18.5189 C   0  0  2  0  0  0  0  0  0  0  0  0
    6.8540  -12.6507   17.8652 C   0  0  0  0  0  0  0  0  0  0  0  0
    7.3046  -14.1946   19.8077 C   0  0  0  0  0  0  0  0  0  0  0  0
    8.2188  -15.1249   20.5640 C   0  0  2  0  0  0  0  0  0  0  0  0
    8.4315  -16.3711   19.8707 N   0  0  0  0  0  0  0  0  0  0  0  0
    7.8589  -15.2648   21.9931 C   0  0  0  0  0  0  0  0  0  0  0  0
    7.6837  -14.2936   22.7755 O   0  0  0  0  0  0  0  0  0  0  0  0
    8.4165  -18.9346   23.9690 O   0  0  0  0  0  0  0  0  0  0  0  0
    7.1616  -18.3540   24.2148 C   0  0  0  0  0  0  0  0  0  0  0  0
    7.3500  -16.8024   23.9443 C   0  0  2  0  0  0  0  0  0  0  0  0
    7.6774  -16.5714   22.5932 N   0  0  0  0  0  0  0  0  0  0  0  0
    8.2326  -16.2767   24.9767 C   0  0  0  0  0  0  0  0  0  0  0  0
    9.5065  -16.3368   24.8865 O   0  0  0  0  0  0  0  0  0  0  0  0
    7.1679  -11.5668   26.8766 C   0  0  0  0  0  0  0  0  0  0  0  0
    7.7075  -12.8955   26.4864 C   0  0  0  0  0  0  0  0  0  0  0  0
    8.2573  -13.6940   27.6227 C   0  0  2  0  0  0  0  0  0  0  0  0
    9.3712  -12.9982   28.3579 C   0  0  0  0  0  0  0  0  0  0  0  0
    8.7206  -15.0782   27.1648 C   0  0  2  0  0  0  0  0  0  0  0  0
    7.8090  -15.6286   26.1954 N   0  0  0  0  0  0  0  0  0  0  0  0
    9.0117  -15.9656   28.3096 C   0  0  0  0  0  0  0  0  0  0  0  0
   10.2434  -15.8998   28.9388 O   0  0  0  0  0  0  0  0  0  0  0  0
    8.1756  -16.8000   28.7497 O   0  0  0  0  0  0  0  0  0  0  0  0
  2  1  1  1
  3  2  1  0
  4  2  1  0
  5  4  1  0
  5  6  1  6
  7  8  2  0
  7  5  1  0
  9 10  1  0
 11 10  1  6
 11 13  1  0
 11 12  1  0
 12  7  1  0
 13 20  1  0
 14 13  2  0
 15 16  1  0
 17 19  1  0
 17 16  1  0
 17 18  1  6
 19 21  1  0
 19 20  1  6
 21 23  2  0
 21 22  1  0
M  END
$$$$
