LSI.pdb
     RDKit          3D

 23 22  0  0  1  0  0  0  0  0999 V2000
    9.1436  -14.0787   20.5930 C   0  0  0  0  0  0  0  0  0  0  0  0
    8.1126  -14.0241   19.5234 C   0  0  2  0  0  0  0  0  0  0  0  0
    7.7237  -12.5884   19.1523 C   0  0  0  0  0  0  0  0  0  0  0  0
    6.9454  -14.9407   19.6226 C   0  0  0  0  0  0  0  0  0  0  0  0
    7.1597  -16.2413   20.3545 C   0  0  2  0  0  0  0  0  0  0  0  0
    6.4090  -17.3280   19.7764 N   0  0  0  0  0  0  0  0  0  0  0  0
    7.0326  -16.1134   21.8238 C   0  0  0  0  0  0  0  0  0  0  0  0
    6.4078  -15.1843   22.4003 O   0  0  0  0  0  0  0  0  0  0  0  0
    8.8389  -19.0484   24.3779 O   0  0  0  0  0  0  0  0  0  0  0  0
    7.5344  -18.6051   24.6501 C   0  0  0  0  0  0  0  0  0  0  0  0
    7.4704  -17.1143   24.1122 C   0  0  2  0  0  0  0  0  0  0  0  0
    7.6371  -17.0850   22.7132 N   0  0  0  0  0  0  0  0  0  0  0  0
    8.3572  -16.3068   24.9385 C   0  0  0  0  0  0  0  0  0  0  0  0
    9.5488  -16.0118   24.5812 O   0  0  0  0  0  0  0  0  0  0  0  0
    6.7635  -11.8542   27.2673 C   0  0  0  0  0  0  0  0  0  0  0  0
    7.5685  -12.9586   26.6833 C   0  0  0  0  0  0  0  0  0  0  0  0
    8.2820  -13.7992   27.6909 C   0  0  2  0  0  0  0  0  0  0  0  0
    9.2848  -13.0297   28.5082 C   0  0  0  0  0  0  0  0  0  0  0  0
    8.9585  -15.0062   27.0383 C   0  0  2  0  0  0  0  0  0  0  0  0
    8.0240  -15.7383   26.2232 N   0  0  0  0  0  0  0  0  0  0  0  0
    9.6880  -15.8269   28.0268 C   0  0  0  0  0  0  0  0  0  0  0  0
    9.2219  -17.0886   28.3557 O   0  0  0  0  0  0  0  0  0  0  0  0
   10.7361  -15.4244   28.5999 O   0  0  0  0  0  0  0  0  0  0  0  0
  2  1  1  1
  3  2  1  0
  4  2  1  0
  5  4  1  0
  5  6  1  6
  7  8  2  0
  7  5  1  0
  9 10  1  0
 11 10  1  1
 11 13  1  0
 11 12  1  0
 12  7  1  0
 13 20  1  0
 14 13  2  0
 15 16  1  0
 17 19  1  0
 17 16  1  0
 17 18  1  6
 19 21  1  0
 19 20  1  1
 21 23  2  0
 21 22  1  0
M  END
$$$$
