LSI.pdb
     RDKit          3D

 23 22  0  0  1  0  0  0  0  0999 V2000
    9.3482  -12.2811   19.3510 C   0  0  0  0  0  0  0  0  0  0  0  0
    8.3138  -13.3039   19.0448 C   0  0  2  0  0  0  0  0  0  0  0  0
    6.9393  -12.6863   18.7624 C   0  0  0  0  0  0  0  0  0  0  0  0
    8.2463  -14.5167   19.9033 C   0  0  0  0  0  0  0  0  0  0  0  0
    9.5586  -15.1202   20.3355 C   0  0  2  0  0  0  0  0  0  0  0  0
   10.1119  -16.0042   19.3399 N   0  0  0  0  0  0  0  0  0  0  0  0
    9.5230  -15.6768   21.7068 C   0  0  0  0  0  0  0  0  0  0  0  0
    9.0925  -15.0515   22.7116 O   0  0  0  0  0  0  0  0  0  0  0  0
   11.9079  -18.9268   22.6953 O   0  0  0  0  0  0  0  0  0  0  0  0
   10.5935  -19.0997   23.1583 C   0  0  0  0  0  0  0  0  0  0  0  0
    9.9773  -17.6406   23.2453 C   0  0  2  0  0  0  0  0  0  0  0  0
    9.9940  -17.0198   21.9803 N   0  0  0  0  0  0  0  0  0  0  0  0
   10.6095  -16.9590   24.3665 C   0  0  0  0  0  0  0  0  0  0  0  0
   11.7109  -16.3206   24.2489 O   0  0  0  0  0  0  0  0  0  0  0  0
   10.0167  -13.1426   28.9295 C   0  0  0  0  0  0  0  0  0  0  0  0
   10.7310  -14.3292   28.3906 C   0  0  0  0  0  0  0  0  0  0  0  0
    9.9866  -15.0633   27.3238 C   0  0  2  0  0  0  0  0  0  0  0  0
    8.6138  -15.5081   27.7515 C   0  0  0  0  0  0  0  0  0  0  0  0
   10.7840  -16.2613   26.8047 C   0  0  2  0  0  0  0  0  0  0  0  0
   10.0949  -16.9014   25.7143 N   0  0  0  0  0  0  0  0  0  0  0  0
   11.1833  -17.1700   27.8990 C   0  0  0  0  0  0  0  0  0  0  0  0
   10.6032  -18.4230   28.0027 O   0  0  0  0  0  0  0  0  0  0  0  0
   12.0438  -16.8522   28.7636 O   0  0  0  0  0  0  0  0  0  0  0  0
  2  1  1  1
  3  2  1  0
  4  2  1  0
  5  4  1  0
  5  6  1  6
  7  8  2  0
  7  5  1  0
  9 10  1  0
 11 10  1  6
 11 13  1  0
 11 12  1  0
 12  7  1  0
 13 20  1  0
 14 13  2  0
 15 16  1  0
 17 19  1  0
 17 16  1  0
 17 18  1  1
 19 21  1  0
 19 20  1  6
 21 23  2  0
 21 22  1  0
M  END
$$$$
