LSI.pdb
     RDKit          3D

 23 22  0  0  1  0  0  0  0  0999 V2000
    9.1501  -13.4558   18.8901 C   0  0  0  0  0  0  0  0  0  0  0  0
    7.7114  -13.5877   19.2405 C   0  0  2  0  0  0  0  0  0  0  0  0
    6.8887  -12.3627   18.8247 C   0  0  0  0  0  0  0  0  0  0  0  0
    7.3595  -14.0990   20.5921 C   0  0  0  0  0  0  0  0  0  0  0  0
    8.0855  -15.3330   21.0649 C   0  0  2  0  0  0  0  0  0  0  0  0
    7.7372  -16.5036   20.2987 N   0  0  0  0  0  0  0  0  0  0  0  0
    8.0336  -15.5157   22.5331 C   0  0  0  0  0  0  0  0  0  0  0  0
    8.3599  -14.6300   23.3668 O   0  0  0  0  0  0  0  0  0  0  0  0
    7.7381  -19.4146   24.2847 O   0  0  0  0  0  0  0  0  0  0  0  0
    6.8429  -18.4427   24.7602 C   0  0  0  0  0  0  0  0  0  0  0  0
    7.5491  -17.0473   24.4951 C   0  0  2  0  0  0  0  0  0  0  0  0
    7.5856  -16.7651   23.1149 N   0  0  0  0  0  0  0  0  0  0  0  0
    8.7980  -17.0334   25.2443 C   0  0  0  0  0  0  0  0  0  0  0  0
    9.9061  -17.4215   24.7385 O   0  0  0  0  0  0  0  0  0  0  0  0
    9.7250  -13.8408   29.9861 C   0  0  0  0  0  0  0  0  0  0  0  0
    9.6124  -15.1347   29.2637 C   0  0  0  0  0  0  0  0  0  0  0  0
   10.4153  -15.2093   28.0064 C   0  0  2  0  0  0  0  0  0  0  0  0
   10.1390  -14.0776   27.0532 C   0  0  0  0  0  0  0  0  0  0  0  0
   10.2213  -16.5491   27.2941 C   0  0  2  0  0  0  0  0  0  0  0  0
    8.9559  -16.5859   26.6079 N   0  0  0  0  0  0  0  0  0  0  0  0
   10.4646  -17.6915   28.1989 C   0  0  0  0  0  0  0  0  0  0  0  0
    9.4247  -18.5437   28.5304 O   0  0  0  0  0  0  0  0  0  0  0  0
   11.5973  -17.9321   28.6968 O   0  0  0  0  0  0  0  0  0  0  0  0
  2  1  1  1
  3  2  1  0
  4  2  1  0
  5  4  1  0
  5  6  1  6
  7  8  2  0
  7  5  1  0
  9 10  1  0
 11 10  1  6
 11 13  1  0
 11 12  1  0
 12  7  1  0
 13 20  1  0
 14 13  2  0
 15 16  1  0
 17 19  1  0
 17 16  1  0
 17 18  1  6
 19 21  1  0
 19 20  1  1
 21 23  2  0
 21 22  1  0
M  END
$$$$
