LSI.pdb
     RDKit          3D

 23 22  0  0  1  0  0  0  0  0999 V2000
    9.6568  -13.7646   19.1404 C   0  0  0  0  0  0  0  0  0  0  0  0
    8.2291  -13.8122   18.7290 C   0  0  2  0  0  0  0  0  0  0  0  0
    7.7305  -12.4730   18.1740 C   0  0  0  0  0  0  0  0  0  0  0  0
    7.2545  -14.4681   19.6414 C   0  0  0  0  0  0  0  0  0  0  0  0
    7.7102  -15.7267   20.3353 C   0  0  2  0  0  0  0  0  0  0  0  0
    7.4030  -16.9145   19.5779 N   0  0  0  0  0  0  0  0  0  0  0  0
    7.3180  -15.7830   21.7616 C   0  0  0  0  0  0  0  0  0  0  0  0
    6.6890  -14.8691   22.3576 O   0  0  0  0  0  0  0  0  0  0  0  0
    8.5316  -19.1213   24.1407 O   0  0  0  0  0  0  0  0  0  0  0  0
    7.2579  -18.5783   24.3751 C   0  0  0  0  0  0  0  0  0  0  0  0
    7.3623  -17.0518   23.9567 C   0  0  2  0  0  0  0  0  0  0  0  0
    7.6429  -16.9335   22.5808 N   0  0  0  0  0  0  0  0  0  0  0  0
    8.2440  -16.3907   24.9090 C   0  0  0  0  0  0  0  0  0  0  0  0
    9.5072  -16.3070   24.7308 O   0  0  0  0  0  0  0  0  0  0  0  0
    6.5200  -11.9093   27.0201 C   0  0  0  0  0  0  0  0  0  0  0  0
    7.3298  -13.0479   26.5138 C   0  0  0  0  0  0  0  0  0  0  0  0
    8.0795  -13.7885   27.5723 C   0  0  2  0  0  0  0  0  0  0  0  0
    9.1117  -12.9465   28.2731 C   0  0  0  0  0  0  0  0  0  0  0  0
    8.7312  -15.0563   27.0170 C   0  0  2  0  0  0  0  0  0  0  0  0
    7.8296  -15.7517   26.1356 N   0  0  0  0  0  0  0  0  0  0  0  0
    9.3092  -15.8910   28.0904 C   0  0  0  0  0  0  0  0  0  0  0  0
   10.5176  -15.5365   28.6661 O   0  0  0  0  0  0  0  0  0  0  0  0
    8.7444  -16.9348   28.5153 O   0  0  0  0  0  0  0  0  0  0  0  0
  2  1  1  1
  3  2  1  0
  4  2  1  0
  5  4  1  0
  5  6  1  6
  7  8  2  0
  7  5  1  0
  9 10  1  0
 11 10  1  1
 11 13  1  0
 11 12  1  0
 12  7  1  0
 13 20  1  0
 14 13  2  0
 15 16  1  0
 17 19  1  0
 17 16  1  0
 17 18  1  6
 19 21  1  0
 19 20  1  1
 21 23  2  0
 21 22  1  0
M  END
$$$$
