LSI.pdb
     RDKit          3D

 23 22  0  0  1  0  0  0  0  0999 V2000
    9.5726  -13.1517   18.9249 C   0  0  0  0  0  0  0  0  0  0  0  0
    8.0974  -13.3068   19.0234 C   0  0  2  0  0  0  0  0  0  0  0  0
    7.3521  -11.9781   18.8513 C   0  0  0  0  0  0  0  0  0  0  0  0
    7.5491  -14.1487   20.1201 C   0  0  0  0  0  0  0  0  0  0  0  0
    8.3263  -15.3893   20.4812 C   0  0  2  0  0  0  0  0  0  0  0  0
    8.0612  -16.4854   19.5829 N   0  0  0  0  0  0  0  0  0  0  0  0
    8.2444  -15.7330   21.9188 C   0  0  0  0  0  0  0  0  0  0  0  0
    7.3749  -15.2743   22.7060 O   0  0  0  0  0  0  0  0  0  0  0  0
   11.1946  -18.2920   23.6028 O   0  0  0  0  0  0  0  0  0  0  0  0
    9.8704  -18.4750   24.0332 C   0  0  0  0  0  0  0  0  0  0  0  0
    9.1706  -17.0608   23.8705 C   0  0  2  0  0  0  0  0  0  0  0  0
    9.1895  -16.6510   22.5223 N   0  0  0  0  0  0  0  0  0  0  0  0
    9.7299  -16.1712   24.8790 C   0  0  0  0  0  0  0  0  0  0  0  0
   10.8143  -15.5197   24.6941 O   0  0  0  0  0  0  0  0  0  0  0  0
    6.7546  -12.5681   26.9422 C   0  0  0  0  0  0  0  0  0  0  0  0
    7.8852  -13.4313   26.5117 C   0  0  0  0  0  0  0  0  0  0  0  0
    8.6912  -13.9954   27.6356 C   0  0  2  0  0  0  0  0  0  0  0  0
    9.3570  -12.9425   28.4804 C   0  0  0  0  0  0  0  0  0  0  0  0
    9.7337  -14.9958   27.1330 C   0  0  2  0  0  0  0  0  0  0  0  0
    9.1542  -15.9017   26.1754 N   0  0  0  0  0  0  0  0  0  0  0  0
   10.4465  -15.6521   28.2485 C   0  0  0  0  0  0  0  0  0  0  0  0
   10.2151  -16.9891   28.5246 O   0  0  0  0  0  0  0  0  0  0  0  0
   11.2714  -15.0398   28.9789 O   0  0  0  0  0  0  0  0  0  0  0  0
  2  1  1  1
  3  2  1  0
  4  2  1  0
  5  4  1  0
  5  6  1  6
  7  8  2  0
  7  5  1  0
  9 10  1  0
 11 10  1  6
 11 13  1  0
 11 12  1  0
 12  7  1  0
 13 20  1  0
 14 13  2  0
 15 16  1  0
 17 19  1  0
 17 16  1  0
 17 18  1  6
 19 21  1  0
 19 20  1  1
 21 23  2  0
 21 22  1  0
M  END
$$$$
