LSI.pdb
     RDKit          3D

 23 22  0  0  1  0  0  0  0  0999 V2000
    7.9710  -12.1283   18.6832 C   0  0  0  0  0  0  0  0  0  0  0  0
    8.6113  -13.4211   19.0418 C   0  0  2  0  0  0  0  0  0  0  0  0
   10.1313  -13.3016   19.2024 C   0  0  0  0  0  0  0  0  0  0  0  0
    8.1941  -14.6428   18.3031 C   0  0  0  0  0  0  0  0  0  0  0  0
    8.6198  -15.9685   18.8818 C   0  0  2  0  0  0  0  0  0  0  0  0
    8.2181  -17.0822   18.0590 N   0  0  0  0  0  0  0  0  0  0  0  0
    8.2944  -16.1109   20.3189 C   0  0  0  0  0  0  0  0  0  0  0  0
    7.1298  -16.0272   20.7908 O   0  0  0  0  0  0  0  0  0  0  0  0
   11.3776  -17.3152   23.0415 O   0  0  0  0  0  0  0  0  0  0  0  0
   10.0897  -17.8725   23.0959 C   0  0  0  0  0  0  0  0  0  0  0  0
    9.1049  -16.7137   22.6448 C   0  0  2  0  0  0  0  0  0  0  0  0
    9.3318  -16.3673   21.2978 N   0  0  0  0  0  0  0  0  0  0  0  0
    9.1618  -15.6658   23.6547 C   0  0  0  0  0  0  0  0  0  0  0  0
    9.9770  -14.6839   23.5796 O   0  0  0  0  0  0  0  0  0  0  0  0
    6.1898  -11.7189   27.0495 C   0  0  0  0  0  0  0  0  0  0  0  0
    7.3441  -12.6524   26.9797 C   0  0  0  0  0  0  0  0  0  0  0  0
    7.1972  -13.7375   25.9639 C   0  0  2  0  0  0  0  0  0  0  0  0
    6.0185  -14.6383   26.2184 C   0  0  0  0  0  0  0  0  0  0  0  0
    8.4739  -14.5717   25.8438 C   0  0  2  0  0  0  0  0  0  0  0  0
    8.3295  -15.5860   24.8318 N   0  0  0  0  0  0  0  0  0  0  0  0
    8.9272  -15.0729   27.1576 C   0  0  0  0  0  0  0  0  0  0  0  0
    8.9820  -16.4358   27.3956 O   0  0  0  0  0  0  0  0  0  0  0  0
    9.2719  -14.3028   28.0942 O   0  0  0  0  0  0  0  0  0  0  0  0
  2  1  1  6
  3  2  1  0
  4  2  1  0
  5  4  1  0
  5  6  1  6
  7  8  2  0
  7  5  1  0
  9 10  1  0
 11 10  1  1
 11 13  1  0
 11 12  1  0
 12  7  1  0
 13 20  1  0
 14 13  2  0
 15 16  1  0
 17 19  1  0
 17 16  1  0
 17 18  1  1
 19 21  1  0
 19 20  1  6
 21 23  2  0
 21 22  1  0
M  END
$$$$
