LSI.pdb
     RDKit          3D

 23 22  0  0  1  0  0  0  0  0999 V2000
    9.3917  -13.3302   20.1602 C   0  0  0  0  0  0  0  0  0  0  0  0
    8.2613  -13.3225   19.1948 C   0  0  2  0  0  0  0  0  0  0  0  0
    7.6134  -11.9399   19.0567 C   0  0  0  0  0  0  0  0  0  0  0  0
    7.2708  -14.4301   19.2609 C   0  0  0  0  0  0  0  0  0  0  0  0
    7.7847  -15.7798   19.6942 C   0  0  2  0  0  0  0  0  0  0  0  0
    7.5490  -16.8016   18.7048 N   0  0  0  0  0  0  0  0  0  0  0  0
    7.3805  -16.1453   21.0706 C   0  0  0  0  0  0  0  0  0  0  0  0
    6.1914  -16.1287   21.4852 O   0  0  0  0  0  0  0  0  0  0  0  0
    7.9453  -18.6346   25.0002 O   0  0  0  0  0  0  0  0  0  0  0  0
    8.3826  -18.4059   23.6855 C   0  0  0  0  0  0  0  0  0  0  0  0
    8.0795  -16.8761   23.3960 C   0  0  2  0  0  0  0  0  0  0  0  0
    8.3626  -16.5608   22.0520 N   0  0  0  0  0  0  0  0  0  0  0  0
    8.7148  -16.0921   24.4462 C   0  0  0  0  0  0  0  0  0  0  0  0
    9.9816  -15.9335   24.5132 O   0  0  0  0  0  0  0  0  0  0  0  0
    6.0397  -11.8556   26.5172 C   0  0  0  0  0  0  0  0  0  0  0  0
    6.9803  -12.8966   26.0271 C   0  0  0  0  0  0  0  0  0  0  0  0
    7.7789  -13.5592   27.1014 C   0  0  2  0  0  0  0  0  0  0  0  0
    8.5759  -12.5924   27.9355 C   0  0  0  0  0  0  0  0  0  0  0  0
    8.7011  -14.6387   26.5318 C   0  0  2  0  0  0  0  0  0  0  0  0
    8.0284  -15.4010   25.5121 N   0  0  0  0  0  0  0  0  0  0  0  0
    9.3204  -15.4504   27.5998 C   0  0  0  0  0  0  0  0  0  0  0  0
   10.4361  -14.9763   28.2688 O   0  0  0  0  0  0  0  0  0  0  0  0
    8.8739  -16.5799   27.9373 O   0  0  0  0  0  0  0  0  0  0  0  0
  2  1  1  1
  3  2  1  0
  4  2  1  0
  5  4  1  0
  5  6  1  6
  7  8  2  0
  7  5  1  0
  9 10  1  0
 11 10  1  1
 11 13  1  0
 11 12  1  0
 12  7  1  0
 13 20  1  0
 14 13  2  0
 15 16  1  0
 17 19  1  0
 17 16  1  0
 17 18  1  6
 19 21  1  0
 19 20  1  6
 21 23  2  0
 21 22  1  0
M  END
$$$$
