LSI.pdb
     RDKit          3D

 23 22  0  0  1  0  0  0  0  0999 V2000
    9.3582  -13.8581   20.2567 C   0  0  0  0  0  0  0  0  0  0  0  0
    8.5200  -13.8916   19.0294 C   0  0  2  0  0  0  0  0  0  0  0  0
    8.1089  -12.4920   18.5578 C   0  0  0  0  0  0  0  0  0  0  0  0
    7.4130  -14.8826   18.9592 C   0  0  0  0  0  0  0  0  0  0  0  0
    7.5786  -16.1481   19.7619 C   0  0  2  0  0  0  0  0  0  0  0  0
    7.1723  -17.3214   19.0290 N   0  0  0  0  0  0  0  0  0  0  0  0
    7.0232  -16.0496   21.1305 C   0  0  0  0  0  0  0  0  0  0  0  0
    6.0288  -15.3414   21.4397 O   0  0  0  0  0  0  0  0  0  0  0  0
    8.2903  -18.7288   24.2319 O   0  0  0  0  0  0  0  0  0  0  0  0
    6.9964  -18.1870   24.1654 C   0  0  0  0  0  0  0  0  0  0  0  0
    7.1758  -16.7282   23.5690 C   0  0  2  0  0  0  0  0  0  0  0  0
    7.6092  -16.7905   22.2295 N   0  0  0  0  0  0  0  0  0  0  0  0
    7.9595  -15.9535   24.5215 C   0  0  0  0  0  0  0  0  0  0  0  0
    9.2379  -15.9564   24.5214 O   0  0  0  0  0  0  0  0  0  0  0  0
    5.5538  -11.9705   27.8870 C   0  0  0  0  0  0  0  0  0  0  0  0
    6.2336  -13.2193   27.4542 C   0  0  0  0  0  0  0  0  0  0  0  0
    7.5635  -13.0040   26.8093 C   0  0  2  0  0  0  0  0  0  0  0  0
    7.5008  -12.1227   25.5908 C   0  0  0  0  0  0  0  0  0  0  0  0
    8.2393  -14.3308   26.4581 C   0  0  2  0  0  0  0  0  0  0  0  0
    7.4229  -15.0976   25.5530 N   0  0  0  0  0  0  0  0  0  0  0  0
    8.6728  -15.0622   27.6664 C   0  0  0  0  0  0  0  0  0  0  0  0
    9.6440  -14.5197   28.4909 O   0  0  0  0  0  0  0  0  0  0  0  0
    8.1926  -16.1821   27.9891 O   0  0  0  0  0  0  0  0  0  0  0  0
  2  1  1  1
  3  2  1  0
  4  2  1  0
  5  4  1  0
  5  6  1  6
  7  8  2  0
  7  5  1  0
  9 10  1  0
 11 10  1  1
 11 13  1  0
 11 12  1  0
 12  7  1  0
 13 20  1  0
 14 13  2  0
 15 16  1  0
 17 19  1  0
 17 16  1  0
 17 18  1  6
 19 21  1  0
 19 20  1  1
 21 23  2  0
 21 22  1  0
M  END
$$$$
