LSI.pdb
     RDKit          3D

 23 22  0  0  1  0  0  0  0  0999 V2000
    8.0189  -12.7984   16.3959 C   0  0  0  0  0  0  0  0  0  0  0  0
    8.4292  -13.9833   17.1944 C   0  0  2  0  0  0  0  0  0  0  0  0
    8.5001  -15.2641   16.3549 C   0  0  0  0  0  0  0  0  0  0  0  0
    7.7977  -14.1890   18.5253 C   0  0  0  0  0  0  0  0  0  0  0  0
    8.5119  -15.1074   19.4845 C   0  0  2  0  0  0  0  0  0  0  0  0
    8.7054  -16.4284   18.9402 N   0  0  0  0  0  0  0  0  0  0  0  0
    7.9473  -15.0778   20.8526 C   0  0  0  0  0  0  0  0  0  0  0  0
    7.6547  -14.0216   21.4730 O   0  0  0  0  0  0  0  0  0  0  0  0
    8.2485  -18.4837   23.3313 O   0  0  0  0  0  0  0  0  0  0  0  0
    6.9801  -17.8810   23.3367 C   0  0  0  0  0  0  0  0  0  0  0  0
    7.2234  -16.3731   22.9089 C   0  0  2  0  0  0  0  0  0  0  0  0
    7.6866  -16.3039   21.5798 N   0  0  0  0  0  0  0  0  0  0  0  0
    8.0097  -15.7367   23.9568 C   0  0  0  0  0  0  0  0  0  0  0  0
    9.2865  -15.6831   23.9200 O   0  0  0  0  0  0  0  0  0  0  0  0
    5.8186  -12.0663   27.8602 C   0  0  0  0  0  0  0  0  0  0  0  0
    6.3876  -13.3088   27.2762 C   0  0  0  0  0  0  0  0  0  0  0  0
    7.6823  -13.1139   26.5573 C   0  0  2  0  0  0  0  0  0  0  0  0
    7.5735  -12.1964   25.3691 C   0  0  0  0  0  0  0  0  0  0  0  0
    8.2947  -14.4490   26.1300 C   0  0  2  0  0  0  0  0  0  0  0  0
    7.4773  -15.0918   25.1338 N   0  0  0  0  0  0  0  0  0  0  0  0
    8.6283  -15.2967   27.2932 C   0  0  0  0  0  0  0  0  0  0  0  0
    9.5734  -14.8696   28.2106 O   0  0  0  0  0  0  0  0  0  0  0  0
    8.0841  -16.4158   27.4942 O   0  0  0  0  0  0  0  0  0  0  0  0
  2  1  1  6
  3  2  1  0
  4  2  1  0
  5  4  1  0
  5  6  1  6
  7  8  2  0
  7  5  1  0
  9 10  1  0
 11 10  1  1
 11 13  1  0
 11 12  1  0
 12  7  1  0
 13 20  1  0
 14 13  2  0
 15 16  1  0
 17 19  1  0
 17 16  1  0
 17 18  1  6
 19 21  1  0
 19 20  1  6
 21 23  2  0
 21 22  1  0
M  END
$$$$
