LSI.pdb
     RDKit          3D

 23 22  0  0  1  0  0  0  0  0999 V2000
    7.4454  -12.5801   20.9640 C   0  0  0  0  0  0  0  0  0  0  0  0
    8.4775  -13.4642   20.3615 C   0  0  2  0  0  0  0  0  0  0  0  0
    9.6495  -12.6787   19.7619 C   0  0  0  0  0  0  0  0  0  0  0  0
    8.0254  -14.5904   19.5014 C   0  0  0  0  0  0  0  0  0  0  0  0
    8.7572  -15.9000   19.6522 C   0  0  2  0  0  0  0  0  0  0  0  0
    8.3171  -16.8888   18.6996 N   0  0  0  0  0  0  0  0  0  0  0  0
    8.8231  -16.3754   21.0526 C   0  0  0  0  0  0  0  0  0  0  0  0
    7.8278  -16.4497   21.8206 O   0  0  0  0  0  0  0  0  0  0  0  0
   12.3991  -18.2294   22.4269 O   0  0  0  0  0  0  0  0  0  0  0  0
   11.1318  -18.6899   22.8194 C   0  0  0  0  0  0  0  0  0  0  0  0
   10.2175  -17.3967   22.9080 C   0  0  2  0  0  0  0  0  0  0  0  0
   10.0785  -16.8005   21.6387 N   0  0  0  0  0  0  0  0  0  0  0  0
   10.7071  -16.5829   24.0123 C   0  0  0  0  0  0  0  0  0  0  0  0
   11.6634  -15.7454   23.8762 O   0  0  0  0  0  0  0  0  0  0  0  0
    9.4377  -12.6962   28.2982 C   0  0  0  0  0  0  0  0  0  0  0  0
   10.3074  -13.8420   27.9246 C   0  0  0  0  0  0  0  0  0  0  0  0
    9.7297  -14.7373   26.8779 C   0  0  2  0  0  0  0  0  0  0  0  0
    8.4416  -15.3933   27.2975 C   0  0  0  0  0  0  0  0  0  0  0  0
   10.7343  -15.8009   26.4309 C   0  0  2  0  0  0  0  0  0  0  0  0
   10.1932  -16.5991   25.3615 N   0  0  0  0  0  0  0  0  0  0  0  0
   11.2569  -16.5766   27.5746 C   0  0  0  0  0  0  0  0  0  0  0  0
   10.9828  -17.9302   27.6741 O   0  0  0  0  0  0  0  0  0  0  0  0
   11.9538  -16.0540   28.4858 O   0  0  0  0  0  0  0  0  0  0  0  0
  2  1  1  6
  3  2  1  0
  4  2  1  0
  5  4  1  0
  5  6  1  6
  7  8  2  0
  7  5  1  0
  9 10  1  0
 11 10  1  6
 11 13  1  0
 11 12  1  0
 12  7  1  0
 13 20  1  0
 14 13  2  0
 15 16  1  0
 17 19  1  0
 17 16  1  0
 17 18  1  1
 19 21  1  0
 19 20  1  6
 21 23  2  0
 21 22  1  0
M  END
$$$$
