TNF.pdb
     RDKit          3D

 27 27  0  0  1  0  0  0  0  0999 V2000
   24.4352  -13.1553  -15.7206 C   0  0  0  0  0  0  0  0  0  0  0  0
   23.7628  -11.8038  -15.7556 C   0  0  1  0  0  0  0  0  0  0  0  0
   24.4911  -10.9064  -16.5575 O   0  0  0  0  0  0  0  0  0  0  0  0
   22.3582  -11.9870  -16.3096 C   0  0  2  0  0  0  0  0  0  0  0  0
   22.4619  -12.3401  -17.7275 N   0  0  0  0  0  0  0  0  0  0  0  0
   21.6583  -10.6730  -16.1591 C   0  0  0  0  0  0  0  0  0  0  0  0
   21.8230   -9.8229  -17.0659 O   0  0  0  0  0  0  0  0  0  0  0  0
   18.4384   -7.0747  -14.2877 N   0  0  0  0  0  0  0  0  0  0  0  0
   18.2160   -8.2757  -13.5875 C   0  0  0  0  0  0  0  0  0  0  0  0
   17.3171   -8.3294  -12.7158 O   0  0  0  0  0  0  0  0  0  0  0  0
   19.0379   -9.4351  -13.8915 C   0  0  0  0  0  0  0  0  0  0  0  0
   20.1200   -9.0644  -14.9187 C   0  0  2  0  0  0  0  0  0  0  0  0
   20.8422  -10.3564  -15.0704 N   0  0  0  0  0  0  0  0  0  0  0  0
   21.0573   -8.0514  -14.4173 C   0  0  0  0  0  0  0  0  0  0  0  0
   21.9522   -8.3698  -13.5537 O   0  0  0  0  0  0  0  0  0  0  0  0
   21.0719   -6.7046  -14.8109 N   0  0  0  0  0  0  0  0  0  0  0  0
   22.1048   -5.7755  -14.3501 C   0  0  1  0  0  0  0  0  0  0  0  0
   23.1747   -5.6247  -15.4232 C   0  0  0  0  0  0  0  0  0  0  0  0
   22.6291   -5.0678  -16.6711 C   0  0  0  0  0  0  0  0  0  0  0  0
   22.2871   -5.9101  -17.6976 C   0  0  0  0  0  0  0  0  0  0  0  0
   21.7655   -5.3976  -18.8661 C   0  0  0  0  0  0  0  0  0  0  0  0
   21.5781   -4.0340  -19.0251 C   0  0  0  0  0  0  0  0  0  0  0  0
   21.9301   -3.2134  -17.9783 C   0  0  0  0  0  0  0  0  0  0  0  0
   22.4490   -3.7108  -16.8128 C   0  0  0  0  0  0  0  0  0  0  0  0
   21.4845   -4.4710  -14.0231 C   0  0  0  0  0  0  0  0  0  0  0  0
   20.1109   -4.2790  -14.1986 O   0  0  0  0  0  0  0  0  0  0  0  0
   22.1212   -3.4830  -13.5839 O   0  0  0  0  0  0  0  0  0  0  0  0
  2  1  1  6
  2  4  1  0
  3  2  1  0
  4  5  1  6
  6  4  1  0
  7  6  2  0
  8  9  1  0
  9 10  2  0
 12 11  1  1
 11  9  1  0
 12 13  1  0
 13  6  1  0
 14 15  2  0
 14 12  1  0
 16 14  1  0
 17 18  1  6
 17 16  1  0
 19 20  2  0
 19 18  1  0
 21 20  1  0
 22 21  2  0
 23 24  2  0
 23 22  1  0
 24 19  1  0
 25 17  1  0
 26 25  1  0
 27 25  2  0
M  END
$$$$
