TNF.pdb
     RDKit          3D

 27 27  0  0  1  0  0  0  0  0999 V2000
   22.6739  -12.3839  -20.3654 C   0  0  0  0  0  0  0  0  0  0  0  0
   22.2989  -10.9251  -20.2601 C   0  0  1  0  0  0  0  0  0  0  0  0
   21.1265  -10.6589  -20.9905 O   0  0  0  0  0  0  0  0  0  0  0  0
   22.0924  -10.5934  -18.7902 C   0  0  2  0  0  0  0  0  0  0  0  0
   20.8938  -11.2931  -18.3214 N   0  0  0  0  0  0  0  0  0  0  0  0
   21.8875   -9.1135  -18.7046 C   0  0  0  0  0  0  0  0  0  0  0  0
   22.8608   -8.3774  -18.9921 O   0  0  0  0  0  0  0  0  0  0  0  0
   17.2514   -5.2700  -19.1260 N   0  0  0  0  0  0  0  0  0  0  0  0
   18.6222   -5.5760  -19.0288 C   0  0  0  0  0  0  0  0  0  0  0  0
   19.4677   -4.6509  -19.0416 O   0  0  0  0  0  0  0  0  0  0  0  0
   19.0312   -6.9659  -18.9149 C   0  0  0  0  0  0  0  0  0  0  0  0
   20.4381   -7.0570  -18.3018 C   0  0  2  0  0  0  0  0  0  0  0  0
   20.6788   -8.5251  -18.3247 N   0  0  0  0  0  0  0  0  0  0  0  0
   20.4841   -6.5890  -16.9109 C   0  0  0  0  0  0  0  0  0  0  0  0
   19.8649   -7.2351  -15.9906 O   0  0  0  0  0  0  0  0  0  0  0  0
   21.1741   -5.4501  -16.4682 N   0  0  0  0  0  0  0  0  0  0  0  0
   21.1665   -5.0389  -15.0634 C   0  0  1  0  0  0  0  0  0  0  0  0
   22.5450   -5.2623  -14.4561 C   0  0  0  0  0  0  0  0  0  0  0  0
   22.9372   -6.6802  -14.4858 C   0  0  0  0  0  0  0  0  0  0  0  0
   23.7494   -7.1387  -15.4908 C   0  0  0  0  0  0  0  0  0  0  0  0
   24.1301   -8.4632  -15.5202 C   0  0  0  0  0  0  0  0  0  0  0  0
   23.7037   -9.3492  -14.5440 C   0  0  0  0  0  0  0  0  0  0  0  0
   22.8898   -8.8606  -13.5480 C   0  0  0  0  0  0  0  0  0  0  0  0
   22.5050   -7.5471  -13.5082 C   0  0  0  0  0  0  0  0  0  0  0  0
   20.7615   -3.6176  -14.9676 C   0  0  0  0  0  0  0  0  0  0  0  0
   20.6168   -3.0077  -13.7179 O   0  0  0  0  0  0  0  0  0  0  0  0
   20.5270   -2.8875  -15.9608 O   0  0  0  0  0  0  0  0  0  0  0  0
  2  1  1  1
  2  4  1  0
  3  2  1  0
  4  5  1  6
  6  4  1  0
  7  6  2  0
  8  9  1  0
  9 10  2  0
 12 11  1  1
 11  9  1  0
 12 13  1  0
 13  6  1  0
 14 15  2  0
 14 12  1  0
 16 14  1  0
 17 18  1  6
 17 16  1  0
 19 20  2  0
 19 18  1  0
 21 20  1  0
 22 21  2  0
 23 24  2  0
 23 22  1  0
 24 19  1  0
 25 17  1  0
 26 25  1  0
 27 25  2  0
M  END
$$$$
