TNF.pdb
     RDKit          3D

 27 27  0  0  1  0  0  0  0  0999 V2000
   19.4133  -11.5435  -15.0480 C   0  0  0  0  0  0  0  0  0  0  0  0
   18.8295  -10.2003  -14.6808 C   0  0  1  0  0  0  0  0  0  0  0  0
   18.4902   -9.4728  -15.8360 O   0  0  0  0  0  0  0  0  0  0  0  0
   17.5952  -10.4377  -13.8245 C   0  0  2  0  0  0  0  0  0  0  0  0
   16.5359  -10.9801  -14.6788 N   0  0  0  0  0  0  0  0  0  0  0  0
   17.1825   -9.1061  -13.2806 C   0  0  0  0  0  0  0  0  0  0  0  0
   16.3962   -8.4172  -13.9727 O   0  0  0  0  0  0  0  0  0  0  0  0
   16.7712   -4.9922  -10.2193 N   0  0  0  0  0  0  0  0  0  0  0  0
   16.6295   -6.1873   -9.4888 C   0  0  0  0  0  0  0  0  0  0  0  0
   16.2282   -6.1462   -8.3021 O   0  0  0  0  0  0  0  0  0  0  0  0
   16.9531   -7.4512  -10.1290 C   0  0  0  0  0  0  0  0  0  0  0  0
   17.3826   -7.2138  -11.5860 C   0  0  2  0  0  0  0  0  0  0  0  0
   17.6273   -8.6044  -12.0550 N   0  0  0  0  0  0  0  0  0  0  0  0
   18.6312   -6.4487  -11.6937 C   0  0  0  0  0  0  0  0  0  0  0  0
   19.4309   -6.3722  -10.6924 O   0  0  0  0  0  0  0  0  0  0  0  0
   19.0567   -5.7616  -12.8408 N   0  0  0  0  0  0  0  0  0  0  0  0
   20.2968   -4.9842  -12.8610 C   0  0  1  0  0  0  0  0  0  0  0  0
   21.3018   -5.6459  -13.7944 C   0  0  0  0  0  0  0  0  0  0  0  0
   21.5994   -7.0297  -13.3923 C   0  0  0  0  0  0  0  0  0  0  0  0
   22.1323   -7.2766  -12.1534 C   0  0  0  0  0  0  0  0  0  0  0  0
   22.4044   -8.5708  -11.7647 C   0  0  0  0  0  0  0  0  0  0  0  0
   22.1470   -9.6380  -12.6102 C   0  0  0  0  0  0  0  0  0  0  0  0
   21.6121   -9.3597  -13.8469 C   0  0  0  0  0  0  0  0  0  0  0  0
   21.3375   -8.0784  -14.2442 C   0  0  0  0  0  0  0  0  0  0  0  0
   20.0022   -3.5964  -13.2859 C   0  0  0  0  0  0  0  0  0  0  0  0
   18.7088   -3.2377  -13.6768 O   0  0  0  0  0  0  0  0  0  0  0  0
   20.8577   -2.6794  -13.3257 O   0  0  0  0  0  0  0  0  0  0  0  0
  2  1  1  6
  2  4  1  0
  3  2  1  0
  4  5  1  6
  6  4  1  0
  7  6  2  0
  8  9  1  0
  9 10  2  0
 12 11  1  1
 11  9  1  0
 12 13  1  0
 13  6  1  0
 14 15  2  0
 14 12  1  0
 16 14  1  0
 17 18  1  6
 17 16  1  0
 19 20  2  0
 19 18  1  0
 21 20  1  0
 22 21  2  0
 23 24  2  0
 23 22  1  0
 24 19  1  0
 25 17  1  0
 26 25  1  0
 27 25  2  0
M  END
$$$$
