TNF.pdb
     RDKit          3D

 27 27  0  0  1  0  0  0  0  0999 V2000
   28.0544  -16.6101  -17.3194 C   0  0  0  0  0  0  0  0  0  0  0  0
   27.0751  -17.6025  -16.7396 C   0  0  1  0  0  0  0  0  0  0  0  0
   27.0312  -18.7720  -17.5201 O   0  0  0  0  0  0  0  0  0  0  0  0
   27.5156  -17.9302  -15.3213 C   0  0  2  0  0  0  0  0  0  0  0  0
   28.8098  -18.6136  -15.3843 N   0  0  0  0  0  0  0  0  0  0  0  0
   26.4808  -18.8458  -14.7468 C   0  0  0  0  0  0  0  0  0  0  0  0
   25.2985  -18.4303  -14.7080 O   0  0  0  0  0  0  0  0  0  0  0  0
   24.3994  -23.1830  -12.8082 N   0  0  0  0  0  0  0  0  0  0  0  0
   25.0119  -23.3289  -14.0675 C   0  0  0  0  0  0  0  0  0  0  0  0
   24.8393  -24.3824  -14.7240 O   0  0  0  0  0  0  0  0  0  0  0  0
   25.8363  -22.2489  -14.5832 C   0  0  0  0  0  0  0  0  0  0  0  0
   25.7588  -21.0295  -13.6501 C   0  0  2  0  0  0  0  0  0  0  0  0
   26.7690  -20.1230  -14.2596 N   0  0  0  0  0  0  0  0  0  0  0  0
   26.1663  -21.3393  -12.2739 C   0  0  0  0  0  0  0  0  0  0  0  0
   27.3399  -21.8019  -12.0359 O   0  0  0  0  0  0  0  0  0  0  0  0
   25.3593  -21.1687  -11.1387 N   0  0  0  0  0  0  0  0  0  0  0  0
   25.9178  -21.1705   -9.7857 C   0  0  1  0  0  0  0  0  0  0  0  0
   27.0644  -20.1719   -9.7027 C   0  0  0  0  0  0  0  0  0  0  0  0
   27.5517  -20.0053   -8.3244 C   0  0  0  0  0  0  0  0  0  0  0  0
   28.5506  -20.8189   -7.8549 C   0  0  0  0  0  0  0  0  0  0  0  0
   29.0203  -20.6627   -6.5684 C   0  0  0  0  0  0  0  0  0  0  0  0
   28.4974  -19.6896   -5.7320 C   0  0  0  0  0  0  0  0  0  0  0  0
   27.4963  -18.8881   -6.2305 C   0  0  0  0  0  0  0  0  0  0  0  0
   27.0217  -19.0337   -7.5066 C   0  0  0  0  0  0  0  0  0  0  0  0
   24.8510  -20.8455   -8.8112 C   0  0  0  0  0  0  0  0  0  0  0  0
   24.8549  -21.4279   -7.5403 O   0  0  0  0  0  0  0  0  0  0  0  0
   23.9039  -20.0568   -9.0464 O   0  0  0  0  0  0  0  0  0  0  0  0
  2  1  1  6
  2  4  1  0
  3  2  1  0
  4  5  1  6
  6  4  1  0
  7  6  2  0
  8  9  1  0
  9 10  2  0
 12 11  1  6
 11  9  1  0
 12 13  1  0
 13  6  1  0
 14 15  2  0
 14 12  1  0
 16 14  1  0
 17 18  1  6
 17 16  1  0
 19 20  2  0
 19 18  1  0
 21 20  1  0
 22 21  2  0
 23 24  2  0
 23 22  1  0
 24 19  1  0
 25 17  1  0
 26 25  1  0
 27 25  2  0
M  END
$$$$
