TNF.pdb
     RDKit          3D

 27 27  0  0  1  0  0  0  0  0999 V2000
   16.0619  -21.4329    2.7806 C   0  0  0  0  0  0  0  0  0  0  0  0
   15.1683  -21.2364    1.5794 C   0  0  1  0  0  0  0  0  0  0  0  0
   15.5020  -22.1437    0.5575 O   0  0  0  0  0  0  0  0  0  0  0  0
   13.7278  -21.4443    2.0208 C   0  0  2  0  0  0  0  0  0  0  0  0
   12.8756  -21.4585    0.8294 N   0  0  0  0  0  0  0  0  0  0  0  0
   13.3697  -20.2819    2.8925 C   0  0  0  0  0  0  0  0  0  0  0  0
   12.1752  -19.9011    2.8866 O   0  0  0  0  0  0  0  0  0  0  0  0
   10.6099  -19.2434    6.1435 N   0  0  0  0  0  0  0  0  0  0  0  0
   11.9016  -18.6833    6.1455 C   0  0  0  0  0  0  0  0  0  0  0  0
   12.0708  -17.5132    6.5613 O   0  0  0  0  0  0  0  0  0  0  0  0
   13.0186  -19.4779    5.6627 C   0  0  0  0  0  0  0  0  0  0  0  0
   13.9198  -18.6286    4.7516 C   0  0  2  0  0  0  0  0  0  0  0  0
   14.2927  -19.6128    3.6999 N   0  0  0  0  0  0  0  0  0  0  0  0
   15.1399  -18.1687    5.4269 C   0  0  0  0  0  0  0  0  0  0  0  0
   16.0415  -19.0123    5.7780 O   0  0  0  0  0  0  0  0  0  0  0  0
   15.4309  -16.8319    5.7389 N   0  0  0  0  0  0  0  0  0  0  0  0
   16.6941  -16.4420    6.3674 C   0  0  1  0  0  0  0  0  0  0  0  0
   17.2101  -15.1594    5.7289 C   0  0  0  0  0  0  0  0  0  0  0  0
   17.5591  -15.3504    4.3124 C   0  0  0  0  0  0  0  0  0  0  0  0
   16.9212  -14.6102    3.3505 C   0  0  0  0  0  0  0  0  0  0  0  0
   17.2495  -14.7753    2.0220 C   0  0  0  0  0  0  0  0  0  0  0  0
   18.2217  -15.6840    1.6357 C   0  0  0  0  0  0  0  0  0  0  0  0
   18.8448  -16.4124    2.6227 C   0  0  0  0  0  0  0  0  0  0  0  0
   18.5273  -16.2571    3.9455 C   0  0  0  0  0  0  0  0  0  0  0  0
   16.4885  -16.2717    7.8241 C   0  0  0  0  0  0  0  0  0  0  0  0
   15.2214  -16.4587    8.3844 O   0  0  0  0  0  0  0  0  0  0  0  0
   17.3993  -15.9587    8.6283 O   0  0  0  0  0  0  0  0  0  0  0  0
  2  1  1  1
  2  4  1  0
  3  2  1  0
  4  5  1  6
  6  4  1  0
  7  6  2  0
  8  9  1  0
  9 10  2  0
 12 11  1  1
 11  9  1  0
 12 13  1  0
 13  6  1  0
 14 15  2  0
 14 12  1  0
 16 14  1  0
 17 18  1  6
 17 16  1  0
 19 20  2  0
 19 18  1  0
 21 20  1  0
 22 21  2  0
 23 24  2  0
 23 22  1  0
 24 19  1  0
 25 17  1  0
 26 25  1  0
 27 25  2  0
M  END
$$$$
