TNF.pdb
     RDKit          3D

 27 27  0  0  1  0  0  0  0  0999 V2000
   15.7535  -13.6958  -14.1608 C   0  0  0  0  0  0  0  0  0  0  0  0
   16.6881  -12.6508  -14.7217 C   0  0  1  0  0  0  0  0  0  0  0  0
   17.6295  -13.2382  -15.5864 O   0  0  0  0  0  0  0  0  0  0  0  0
   15.8546  -11.6213  -15.4691 C   0  0  2  0  0  0  0  0  0  0  0  0
   15.2977  -12.2565  -16.6659 N   0  0  0  0  0  0  0  0  0  0  0  0
   16.7827  -10.5150  -15.8617 C   0  0  0  0  0  0  0  0  0  0  0  0
   17.4763  -10.6806  -16.8929 O   0  0  0  0  0  0  0  0  0  0  0  0
   16.2970   -6.5831  -17.0731 N   0  0  0  0  0  0  0  0  0  0  0  0
   16.3455   -6.2225  -15.7131 C   0  0  0  0  0  0  0  0  0  0  0  0
   15.7011   -5.2255  -15.3112 O   0  0  0  0  0  0  0  0  0  0  0  0
   17.1463   -7.0181  -14.7977 C   0  0  0  0  0  0  0  0  0  0  0  0
   17.7919   -8.1970  -15.5441 C   0  0  2  0  0  0  0  0  0  0  0  0
   16.9084   -9.3245  -15.1417 N   0  0  0  0  0  0  0  0  0  0  0  0
   19.1594   -8.4782  -15.0891 C   0  0  0  0  0  0  0  0  0  0  0  0
   19.3755   -8.8410  -13.8768 O   0  0  0  0  0  0  0  0  0  0  0  0
   20.3080   -8.3865  -15.8898 N   0  0  0  0  0  0  0  0  0  0  0  0
   21.6414   -8.6878  -15.3666 C   0  0  1  0  0  0  0  0  0  0  0  0
   22.3837   -9.5902  -16.3431 C   0  0  0  0  0  0  0  0  0  0  0  0
   23.7787   -9.8162  -15.9335 C   0  0  0  0  0  0  0  0  0  0  0  0
   24.7764   -9.0415  -16.4667 C   0  0  0  0  0  0  0  0  0  0  0  0
   26.0848   -9.2395  -16.0806 C   0  0  0  0  0  0  0  0  0  0  0  0
   26.4146  -10.2161  -15.1547 C   0  0  0  0  0  0  0  0  0  0  0  0
   25.3926  -10.9778  -14.6367 C   0  0  0  0  0  0  0  0  0  0  0  0
   24.0893  -10.7904  -15.0124 C   0  0  0  0  0  0  0  0  0  0  0  0
   22.3785   -7.4239  -15.1369 C   0  0  0  0  0  0  0  0  0  0  0  0
   23.2056   -7.2827  -14.0187 O   0  0  0  0  0  0  0  0  0  0  0  0
   22.3155   -6.4281  -15.8976 O   0  0  0  0  0  0  0  0  0  0  0  0
  2  1  1  6
  2  4  1  0
  3  2  1  0
  4  5  1  6
  6  4  1  0
  7  6  2  0
  8  9  1  0
  9 10  2  0
 12 11  1  1
 11  9  1  0
 12 13  1  0
 13  6  1  0
 14 15  2  0
 14 12  1  0
 16 14  1  0
 17 18  1  6
 17 16  1  0
 19 20  2  0
 19 18  1  0
 21 20  1  0
 22 21  2  0
 23 24  2  0
 23 22  1  0
 24 19  1  0
 25 17  1  0
 26 25  1  0
 27 25  2  0
M  END
$$$$
