TNF.pdb
     RDKit          3D

 27 27  0  0  1  0  0  0  0  0999 V2000
   28.9093  -21.4655  -16.9426 C   0  0  0  0  0  0  0  0  0  0  0  0
   27.4241  -21.6814  -16.7769 C   0  0  1  0  0  0  0  0  0  0  0  0
   27.1683  -22.9050  -16.1316 O   0  0  0  0  0  0  0  0  0  0  0  0
   26.8652  -20.5265  -15.9602 C   0  0  2  0  0  0  0  0  0  0  0  0
   27.4380  -20.5914  -14.6135 N   0  0  0  0  0  0  0  0  0  0  0  0
   25.3826  -20.7191  -15.8956 C   0  0  0  0  0  0  0  0  0  0  0  0
   24.7589  -20.7750  -16.9817 O   0  0  0  0  0  0  0  0  0  0  0  0
   20.6839  -21.6101  -13.9147 N   0  0  0  0  0  0  0  0  0  0  0  0
   21.6150  -21.6621  -12.8600 C   0  0  0  0  0  0  0  0  0  0  0  0
   21.2322  -21.9746  -11.7081 O   0  0  0  0  0  0  0  0  0  0  0  0
   23.0087  -21.3506  -13.1297 C   0  0  0  0  0  0  0  0  0  0  0  0
   23.1979  -21.0071  -14.6163 C   0  0  2  0  0  0  0  0  0  0  0  0
   24.6739  -20.8378  -14.6976 N   0  0  0  0  0  0  0  0  0  0  0  0
   22.5525  -19.7438  -14.9950 C   0  0  0  0  0  0  0  0  0  0  0  0
   23.1294  -18.6238  -14.7487 O   0  0  0  0  0  0  0  0  0  0  0  0
   21.3070  -19.6368  -15.6326 N   0  0  0  0  0  0  0  0  0  0  0  0
   20.8894  -18.4097  -16.3126 C   0  0  1  0  0  0  0  0  0  0  0  0
   21.9396  -18.0101  -17.3404 C   0  0  0  0  0  0  0  0  0  0  0  0
   21.5311  -16.8274  -18.1146 C   0  0  0  0  0  0  0  0  0  0  0  0
   21.5315  -15.5927  -17.5183 C   0  0  0  0  0  0  0  0  0  0  0  0
   21.1603  -14.4781  -18.2394 C   0  0  0  0  0  0  0  0  0  0  0  0
   20.7831  -14.5821  -19.5686 C   0  0  0  0  0  0  0  0  0  0  0  0
   20.7927  -15.8337  -20.1402 C   0  0  0  0  0  0  0  0  0  0  0  0
   21.1594  -16.9481  -19.4342 C   0  0  0  0  0  0  0  0  0  0  0  0
   19.5692  -18.6231  -16.9489 C   0  0  0  0  0  0  0  0  0  0  0  0
   18.5581  -17.6671  -16.8140 O   0  0  0  0  0  0  0  0  0  0  0  0
   19.2738  -19.6369  -17.6266 O   0  0  0  0  0  0  0  0  0  0  0  0
  2  1  1  1
  2  4  1  0
  3  2  1  0
  4  5  1  1
  6  4  1  0
  7  6  2  0
  8  9  1  0
  9 10  2  0
 12 11  1  1
 11  9  1  0
 12 13  1  0
 13  6  1  0
 14 15  2  0
 14 12  1  0
 16 14  1  0
 17 18  1  6
 17 16  1  0
 19 20  2  0
 19 18  1  0
 21 20  1  0
 22 21  2  0
 23 24  2  0
 23 22  1  0
 24 19  1  0
 25 17  1  0
 26 25  1  0
 27 25  2  0
M  END
$$$$
