TNF.pdb
     RDKit          3D

 27 27  0  0  1  0  0  0  0  0999 V2000
   30.1992  -18.3202  -15.8794 C   0  0  0  0  0  0  0  0  0  0  0  0
   29.1202  -18.3687  -14.8242 C   0  0  1  0  0  0  0  0  0  0  0  0
   28.6503  -17.0751  -14.5335 O   0  0  0  0  0  0  0  0  0  0  0  0
   27.9862  -19.2381  -15.3451 C   0  0  2  0  0  0  0  0  0  0  0  0
   27.4697  -18.6368  -16.5771 N   0  0  0  0  0  0  0  0  0  0  0  0
   26.9231  -19.2403  -14.2919 C   0  0  0  0  0  0  0  0  0  0  0  0
   25.8778  -18.5881  -14.5240 O   0  0  0  0  0  0  0  0  0  0  0  0
   23.3507  -22.4554  -11.7841 N   0  0  0  0  0  0  0  0  0  0  0  0
   23.7564  -21.1227  -11.9870 C   0  0  0  0  0  0  0  0  0  0  0  0
   23.1274  -20.1906  -11.4334 O   0  0  0  0  0  0  0  0  0  0  0  0
   24.9025  -20.8533  -12.8390 C   0  0  0  0  0  0  0  0  0  0  0  0
   25.9522  -20.0317  -12.0730 C   0  0  2  0  0  0  0  0  0  0  0  0
   27.0417  -19.9262  -13.0808 N   0  0  0  0  0  0  0  0  0  0  0  0
   26.4664  -20.7290  -10.8876 C   0  0  0  0  0  0  0  0  0  0  0  0
   27.6555  -21.2126  -10.8871 O   0  0  0  0  0  0  0  0  0  0  0  0
   25.7503  -20.9259   -9.6970 N   0  0  0  0  0  0  0  0  0  0  0  0
   26.4232  -21.0748   -8.4056 C   0  0  1  0  0  0  0  0  0  0  0  0
   27.3703  -19.9034   -8.1827 C   0  0  0  0  0  0  0  0  0  0  0  0
   28.0062  -19.9532   -6.8567 C   0  0  0  0  0  0  0  0  0  0  0  0
   27.5843  -19.1005   -5.8694 C   0  0  0  0  0  0  0  0  0  0  0  0
   28.1674  -19.1477   -4.6212 C   0  0  0  0  0  0  0  0  0  0  0  0
   29.1818  -20.0494   -4.3421 C   0  0  0  0  0  0  0  0  0  0  0  0
   29.5840  -20.8926   -5.3522 C   0  0  0  0  0  0  0  0  0  0  0  0
   29.0125  -20.8551   -6.5958 C   0  0  0  0  0  0  0  0  0  0  0  0
   25.4104  -21.1590   -7.3284 C   0  0  0  0  0  0  0  0  0  0  0  0
   25.6622  -21.9167   -6.1808 O   0  0  0  0  0  0  0  0  0  0  0  0
   24.2974  -20.5810   -7.3665 O   0  0  0  0  0  0  0  0  0  0  0  0
  2  1  1  6
  2  4  1  0
  3  2  1  0
  4  5  1  6
  6  4  1  0
  7  6  2  0
  8  9  1  0
  9 10  2  0
 12 11  1  6
 11  9  1  0
 12 13  1  0
 13  6  1  0
 14 15  2  0
 14 12  1  0
 16 14  1  0
 17 18  1  1
 17 16  1  0
 19 20  2  0
 19 18  1  0
 21 20  1  0
 22 21  2  0
 23 24  2  0
 23 22  1  0
 24 19  1  0
 25 17  1  0
 26 25  1  0
 27 25  2  0
M  END
$$$$
