TNF.pdb
     RDKit          3D

 27 27  0  0  1  0  0  0  0  0999 V2000
   28.7481  -20.8579  -13.1903 C   0  0  0  0  0  0  0  0  0  0  0  0
   28.6159  -19.5205  -13.8786 C   0  0  1  0  0  0  0  0  0  0  0  0
   29.3698  -19.4955  -15.0660 O   0  0  0  0  0  0  0  0  0  0  0  0
   27.1440  -19.2869  -14.1824 C   0  0  2  0  0  0  0  0  0  0  0  0
   27.0000  -17.9584  -14.7826 N   0  0  0  0  0  0  0  0  0  0  0  0
   26.4182  -19.3392  -12.8748 C   0  0  0  0  0  0  0  0  0  0  0  0
   26.5523  -18.3630  -12.0996 O   0  0  0  0  0  0  0  0  0  0  0  0
   22.5702  -19.4954  -12.1817 N   0  0  0  0  0  0  0  0  0  0  0  0
   22.5769  -20.8874  -11.9709 C   0  0  0  0  0  0  0  0  0  0  0  0
   21.5366  -21.5531  -12.1841 O   0  0  0  0  0  0  0  0  0  0  0  0
   23.7966  -21.5275  -11.5078 C   0  0  0  0  0  0  0  0  0  0  0  0
   24.8674  -20.4687  -11.1980 C   0  0  2  0  0  0  0  0  0  0  0  0
   25.6103  -20.4104  -12.4858 N   0  0  0  0  0  0  0  0  0  0  0  0
   25.7900  -20.8866  -10.1350 C   0  0  0  0  0  0  0  0  0  0  0  0
   26.5508  -21.9068  -10.3033 O   0  0  0  0  0  0  0  0  0  0  0  0
   25.9290  -20.2469   -8.8937 N   0  0  0  0  0  0  0  0  0  0  0  0
   26.8151  -20.7667   -7.8510 C   0  0  1  0  0  0  0  0  0  0  0  0
   27.9932  -19.8207   -7.6607 C   0  0  0  0  0  0  0  0  0  0  0  0
   28.3953  -19.7180   -6.2491 C   0  0  0  0  0  0  0  0  0  0  0  0
   29.2301  -20.6632   -5.7108 C   0  0  0  0  0  0  0  0  0  0  0  0
   29.6201  -20.5687   -4.3920 C   0  0  0  0  0  0  0  0  0  0  0  0
   29.1805  -19.5265   -3.5917 C   0  0  0  0  0  0  0  0  0  0  0  0
   28.3439  -18.5931   -4.1591 C   0  0  0  0  0  0  0  0  0  0  0  0
   27.9497  -18.6763   -5.4678 C   0  0  0  0  0  0  0  0  0  0  0  0
   26.0518  -20.9336   -6.5929 C   0  0  0  0  0  0  0  0  0  0  0  0
   24.6971  -20.5923   -6.5390 O   0  0  0  0  0  0  0  0  0  0  0  0
   26.5457  -21.3742   -5.5270 O   0  0  0  0  0  0  0  0  0  0  0  0
  2  1  1  6
  2  4  1  0
  3  2  1  0
  4  5  1  1
  6  4  1  0
  7  6  2  0
  8  9  1  0
  9 10  2  0
 12 11  1  6
 11  9  1  0
 12 13  1  0
 13  6  1  0
 14 15  2  0
 14 12  1  0
 16 14  1  0
 17 18  1  1
 17 16  1  0
 19 20  2  0
 19 18  1  0
 21 20  1  0
 22 21  2  0
 23 24  2  0
 23 22  1  0
 24 19  1  0
 25 17  1  0
 26 25  1  0
 27 25  2  0
M  END
$$$$
