TNF.pdb
     RDKit          3D

 27 27  0  0  1  0  0  0  0  0999 V2000
   23.8855  -11.6994  -18.9895 C   0  0  0  0  0  0  0  0  0  0  0  0
   22.5072  -12.2620  -18.7371 C   0  0  1  0  0  0  0  0  0  0  0  0
   22.5603  -13.6596  -18.5861 O   0  0  0  0  0  0  0  0  0  0  0  0
   21.9544  -11.6151  -17.4765 C   0  0  2  0  0  0  0  0  0  0  0  0
   20.6662  -12.2380  -17.1627 N   0  0  0  0  0  0  0  0  0  0  0  0
   21.7597  -10.1636  -17.7840 C   0  0  0  0  0  0  0  0  0  0  0  0
   22.7871   -9.4557  -17.9074 O   0  0  0  0  0  0  0  0  0  0  0  0
   19.9521   -6.6798  -20.4227 N   0  0  0  0  0  0  0  0  0  0  0  0
   18.7784   -7.2790  -19.9271 C   0  0  0  0  0  0  0  0  0  0  0  0
   17.6881   -7.0897  -20.5155 O   0  0  0  0  0  0  0  0  0  0  0  0
   18.8554   -8.1093  -18.7369 C   0  0  0  0  0  0  0  0  0  0  0  0
   20.2920   -8.1205  -18.1893 C   0  0  2  0  0  0  0  0  0  0  0  0
   20.5037   -9.5716  -17.9374 N   0  0  0  0  0  0  0  0  0  0  0  0
   20.4230   -7.3932  -16.9206 C   0  0  0  0  0  0  0  0  0  0  0  0
   19.7363   -7.7508  -15.8966 O   0  0  0  0  0  0  0  0  0  0  0  0
   21.2682   -6.2935  -16.7078 N   0  0  0  0  0  0  0  0  0  0  0  0
   21.3255   -5.6000  -15.4200 C   0  0  1  0  0  0  0  0  0  0  0  0
   22.7272   -5.7171  -14.8364 C   0  0  0  0  0  0  0  0  0  0  0  0
   23.1196   -7.1188  -14.6218 C   0  0  0  0  0  0  0  0  0  0  0  0
   24.0823   -7.6835  -15.4184 C   0  0  0  0  0  0  0  0  0  0  0  0
   24.4634   -8.9928  -15.2174 C   0  0  0  0  0  0  0  0  0  0  0  0
   23.8868   -9.7573  -14.2158 C   0  0  0  0  0  0  0  0  0  0  0  0
   22.9240   -9.1639  -13.4323 C   0  0  0  0  0  0  0  0  0  0  0  0
   22.5372   -7.8643  -13.6223 C   0  0  0  0  0  0  0  0  0  0  0  0
   20.9375   -4.1828  -15.6052 C   0  0  0  0  0  0  0  0  0  0  0  0
   20.8615   -3.3226  -14.5057 O   0  0  0  0  0  0  0  0  0  0  0  0
   20.6588   -3.6723  -16.7169 O   0  0  0  0  0  0  0  0  0  0  0  0
  2  1  1  1
  2  4  1  0
  3  2  1  0
  4  5  1  6
  6  4  1  0
  7  6  2  0
  8  9  1  0
  9 10  2  0
 12 11  1  1
 11  9  1  0
 12 13  1  0
 13  6  1  0
 14 15  2  0
 14 12  1  0
 16 14  1  0
 17 18  1  6
 17 16  1  0
 19 20  2  0
 19 18  1  0
 21 20  1  0
 22 21  2  0
 23 24  2  0
 23 22  1  0
 24 19  1  0
 25 17  1  0
 26 25  1  0
 27 25  2  0
M  END
$$$$
