TNF.pdb
     RDKit          3D

 27 27  0  0  1  0  0  0  0  0999 V2000
   20.7548  -11.4678  -15.6697 C   0  0  0  0  0  0  0  0  0  0  0  0
   20.0527  -11.4554  -17.0064 C   0  0  1  0  0  0  0  0  0  0  0  0
   20.2847  -12.6564  -17.7013 O   0  0  0  0  0  0  0  0  0  0  0  0
   18.5640  -11.2676  -16.7585 C   0  0  2  0  0  0  0  0  0  0  0  0
   17.8738  -11.2807  -18.0506 N   0  0  0  0  0  0  0  0  0  0  0  0
   18.3989   -9.9323  -16.1035 C   0  0  0  0  0  0  0  0  0  0  0  0
   18.6176   -8.9146  -16.8021 O   0  0  0  0  0  0  0  0  0  0  0  0
   17.3480   -9.4639  -10.8057 N   0  0  0  0  0  0  0  0  0  0  0  0
   17.1816   -9.7984  -12.1630 C   0  0  0  0  0  0  0  0  0  0  0  0
   17.4364  -10.9623  -12.5519 O   0  0  0  0  0  0  0  0  0  0  0  0
   16.7152   -8.7817  -13.0908 C   0  0  0  0  0  0  0  0  0  0  0  0
   17.8144   -8.4518  -14.1138 C   0  0  2  0  0  0  0  0  0  0  0  0
   18.0177   -9.7720  -14.7691 N   0  0  0  0  0  0  0  0  0  0  0  0
   19.0728   -8.0352  -13.4823 C   0  0  0  0  0  0  0  0  0  0  0  0
   19.6693   -8.8139  -12.6541 O   0  0  0  0  0  0  0  0  0  0  0  0
   19.7191   -6.8104  -13.7087 N   0  0  0  0  0  0  0  0  0  0  0  0
   21.0448   -6.5224  -13.1591 C   0  0  1  0  0  0  0  0  0  0  0  0
   22.0301   -7.5928  -13.6090 C   0  0  0  0  0  0  0  0  0  0  0  0
   22.6517   -7.2617  -14.9009 C   0  0  0  0  0  0  0  0  0  0  0  0
   22.5753   -8.1540  -15.9392 C   0  0  0  0  0  0  0  0  0  0  0  0
   23.1457   -7.8473  -17.1560 C   0  0  0  0  0  0  0  0  0  0  0  0
   23.8015   -6.6426  -17.3524 C   0  0  0  0  0  0  0  0  0  0  0  0
   23.8620   -5.7671  -16.2927 C   0  0  0  0  0  0  0  0  0  0  0  0
   23.2992   -6.0605  -15.0794 C   0  0  0  0  0  0  0  0  0  0  0  0
   21.4783   -5.1755  -13.5964 C   0  0  0  0  0  0  0  0  0  0  0  0
   22.5026   -4.5089  -12.9176 O   0  0  0  0  0  0  0  0  0  0  0  0
   20.9770   -4.5593  -14.5677 O   0  0  0  0  0  0  0  0  0  0  0  0
  2  1  1  1
  2  4  1  0
  3  2  1  0
  4  5  1  6
  6  4  1  0
  7  6  2  0
  8  9  1  0
  9 10  2  0
 12 11  1  1
 11  9  1  0
 12 13  1  0
 13  6  1  0
 14 15  2  0
 14 12  1  0
 16 14  1  0
 17 18  1  6
 17 16  1  0
 19 20  2  0
 19 18  1  0
 21 20  1  0
 22 21  2  0
 23 24  2  0
 23 22  1  0
 24 19  1  0
 25 17  1  0
 26 25  1  0
 27 25  2  0
M  END
$$$$
