EDP.pdb
     RDKit          3D

 25 25  0  0  1  0  0  0  0  0999 V2000
   24.1762  -11.0974  -17.5204 N   0  0  0  0  0  0  0  0  0  0  0  0
   23.3958  -10.4612  -18.5487 C   0  0  1  0  0  0  0  0  0  0  0  0
   22.6457  -11.4901  -19.3195 C   0  0  0  0  0  0  0  0  0  0  0  0
   22.0480  -12.5532  -18.4662 C   0  0  0  0  0  0  0  0  0  0  0  0
   21.2138  -13.5434  -19.1744 C   0  0  0  0  0  0  0  0  0  0  0  0
   21.0978  -13.5117  -20.4243 O   0  0  0  0  0  0  0  0  0  0  0  0
   22.4040   -9.5147  -17.9306 C   0  0  0  0  0  0  0  0  0  0  0  0
   21.6847   -8.7628  -18.6512 O   0  0  0  0  0  0  0  0  0  0  0  0
   20.5312  -14.5390  -18.4916 O   0  0  0  0  0  0  0  0  0  0  0  0
   22.2306   -9.4215  -16.5280 N   0  0  0  0  0  0  0  0  0  0  0  0
   21.2559   -8.4600  -15.9575 C   0  0  1  0  0  0  0  0  0  0  0  0
   20.7401   -9.1541  -14.7163 C   0  0  0  0  0  0  0  0  0  0  0  0
   19.6273  -10.0766  -14.9499 C   0  0  0  0  0  0  0  0  0  0  0  0
   19.2684  -10.7768  -13.9425 O   0  0  0  0  0  0  0  0  0  0  0  0
   21.9018   -7.1709  -15.7066 C   0  0  0  0  0  0  0  0  0  0  0  0
   23.1663   -7.1739  -15.4612 O   0  0  0  0  0  0  0  0  0  0  0  0
   18.9306  -10.2777  -16.1108 O   0  0  0  0  0  0  0  0  0  0  0  0
   21.2694   -5.9106  -15.7095 N   0  0  0  0  0  0  0  0  0  0  0  0
   19.8225   -5.7155  -15.9268 C   0  0  0  0  0  0  0  0  0  0  0  0
   19.6776   -4.4097  -16.6414 C   0  0  0  0  0  0  0  0  0  0  0  0
   21.0042   -3.7272  -16.5446 C   0  0  0  0  0  0  0  0  0  0  0  0
   21.7645   -4.5705  -15.5315 C   0  0  1  0  0  0  0  0  0  0  0  0
   21.4410   -4.1095  -14.1536 C   0  0  0  0  0  0  0  0  0  0  0  0
   20.6210   -4.7731  -13.4814 O   0  0  0  0  0  0  0  0  0  0  0  0
   22.0440   -2.9626  -13.6333 O   0  0  0  0  0  0  0  0  0  0  0  0
  2  1  1  1
  2  3  1  0
  3  4  1  0
  5  4  1  0
  5  6  2  0
  7  2  1  0
  7  8  2  0
  9  5  1  0
 10  7  1  0
 11 10  1  0
 12 13  1  0
 11 12  1  1
 13 17  1  0
 14 13  2  0
 15 11  1  0
 16 15  2  0
 18 15  1  0
 18 22  1  0
 19 20  1  0
 19 18  1  0
 20 21  1  0
 22 21  1  0
 22 23  1  1
 24 23  2  0
 25 23  1  0
M  END
$$$$
