EDP.pdb
     RDKit          3D

 25 25  0  0  1  0  0  0  0  0999 V2000
   18.0496  -15.3778  -17.0370 N   0  0  0  0  0  0  0  0  0  0  0  0
   17.6144  -14.0373  -16.7458 C   0  0  1  0  0  0  0  0  0  0  0  0
   16.8997  -14.0133  -15.4404 C   0  0  0  0  0  0  0  0  0  0  0  0
   15.5407  -14.6177  -15.4957 C   0  0  0  0  0  0  0  0  0  0  0  0
   14.7297  -14.4731  -14.2712 C   0  0  0  0  0  0  0  0  0  0  0  0
   13.9124  -13.5279  -14.1479 O   0  0  0  0  0  0  0  0  0  0  0  0
   18.8021  -13.1194  -16.6534 C   0  0  0  0  0  0  0  0  0  0  0  0
   19.8112  -13.4280  -15.9545 O   0  0  0  0  0  0  0  0  0  0  0  0
   14.8387  -15.3688  -13.2180 O   0  0  0  0  0  0  0  0  0  0  0  0
   18.8461  -11.8798  -17.3371 N   0  0  0  0  0  0  0  0  0  0  0  0
   20.0315  -10.9973  -17.2095 C   0  0  1  0  0  0  0  0  0  0  0  0
   19.9499  -10.0963  -18.4219 C   0  0  0  0  0  0  0  0  0  0  0  0
   21.0141   -9.0948  -18.5118 C   0  0  0  0  0  0  0  0  0  0  0  0
   22.1703   -9.5425  -18.8228 O   0  0  0  0  0  0  0  0  0  0  0  0
   20.0037  -10.2920  -15.9274 C   0  0  0  0  0  0  0  0  0  0  0  0
   18.8514  -10.0218  -15.4190 O   0  0  0  0  0  0  0  0  0  0  0  0
   20.9194   -7.7453  -18.3031 O   0  0  0  0  0  0  0  0  0  0  0  0
   21.1273   -9.8762  -15.1838 N   0  0  0  0  0  0  0  0  0  0  0  0
   22.5234  -10.0763  -15.6192 C   0  0  0  0  0  0  0  0  0  0  0  0
   23.3254  -10.2864  -14.3745 C   0  0  0  0  0  0  0  0  0  0  0  0
   22.4431   -9.8926  -13.2336 C   0  0  0  0  0  0  0  0  0  0  0  0
   21.2650   -9.2113  -13.9143 C   0  0  1  0  0  0  0  0  0  0  0  0
   21.5834   -7.7759  -14.1470 C   0  0  0  0  0  0  0  0  0  0  0  0
   21.8830   -7.4132  -15.3060 O   0  0  0  0  0  0  0  0  0  0  0  0
   21.5456   -6.8643  -13.0900 O   0  0  0  0  0  0  0  0  0  0  0  0
  2  1  1  1
  2  3  1  0
  3  4  1  0
  5  4  1  0
  5  6  2  0
  7  2  1  0
  7  8  2  0
  9  5  1  0
 10  7  1  0
 11 10  1  0
 12 13  1  0
 11 12  1  6
 13 17  1  0
 14 13  2  0
 15 11  1  0
 16 15  2  0
 18 15  1  0
 18 22  1  0
 19 20  1  0
 19 18  1  0
 20 21  1  0
 22 21  1  0
 22 23  1  6
 24 23  2  0
 25 23  1  0
M  END
$$$$
