EDP.pdb
     RDKit          3D

 25 25  0  0  1  0  0  0  0  0999 V2000
   25.3731  -33.2697  -10.4072 N   0  0  0  0  0  0  0  0  0  0  0  0
   25.1518  -32.6305   -9.1369 C   0  0  1  0  0  0  0  0  0  0  0  0
   23.7128  -32.2772   -8.9958 C   0  0  0  0  0  0  0  0  0  0  0  0
   22.7919  -33.4126   -9.2754 C   0  0  0  0  0  0  0  0  0  0  0  0
   21.3559  -33.1278   -9.0889 C   0  0  0  0  0  0  0  0  0  0  0  0
   20.4964  -34.0325   -9.2289 O   0  0  0  0  0  0  0  0  0  0  0  0
   25.5227  -33.5654   -8.0189 C   0  0  0  0  0  0  0  0  0  0  0  0
   25.3084  -34.8094   -8.1117 O   0  0  0  0  0  0  0  0  0  0  0  0
   20.9045  -31.8598   -8.7546 O   0  0  0  0  0  0  0  0  0  0  0  0
   26.1226  -33.1022   -6.8224 N   0  0  0  0  0  0  0  0  0  0  0  0
   26.4559  -34.0551   -5.7356 C   0  0  1  0  0  0  0  0  0  0  0  0
   27.3090  -33.2437   -4.7857 C   0  0  0  0  0  0  0  0  0  0  0  0
   27.8151  -33.9883   -3.6311 C   0  0  0  0  0  0  0  0  0  0  0  0
   28.6447  -33.3605   -2.8883 O   0  0  0  0  0  0  0  0  0  0  0  0
   25.2325  -34.5948   -5.1407 C   0  0  0  0  0  0  0  0  0  0  0  0
   24.1846  -33.8458   -5.1461 O   0  0  0  0  0  0  0  0  0  0  0  0
   27.5083  -35.2682   -3.2550 O   0  0  0  0  0  0  0  0  0  0  0  0
   25.0853  -35.8701   -4.5574 N   0  0  0  0  0  0  0  0  0  0  0  0
   26.2053  -36.8018   -4.3204 C   0  0  0  0  0  0  0  0  0  0  0  0
   25.6488  -38.1795   -4.4908 C   0  0  0  0  0  0  0  0  0  0  0  0
   24.1611  -38.0331   -4.5105 C   0  0  0  0  0  0  0  0  0  0  0  0
   23.9398  -36.5934   -4.0702 C   0  0  1  0  0  0  0  0  0  0  0  0
   23.9144  -36.5234   -2.5834 C   0  0  0  0  0  0  0  0  0  0  0  0
   22.9490  -37.0414   -1.9798 O   0  0  0  0  0  0  0  0  0  0  0  0
   24.9484  -35.8924   -1.8888 O   0  0  0  0  0  0  0  0  0  0  0  0
  2  1  1  6
  2  3  1  0
  3  4  1  0
  5  4  1  0
  5  6  2  0
  7  2  1  0
  7  8  2  0
  9  5  1  0
 10  7  1  0
 11 10  1  0
 12 13  1  0
 11 12  1  1
 13 17  1  0
 14 13  2  0
 15 11  1  0
 16 15  2  0
 18 15  1  0
 18 22  1  0
 19 20  1  0
 19 18  1  0
 20 21  1  0
 22 21  1  0
 22 23  1  1
 24 23  2  0
 25 23  1  0
M  END
$$$$
