EDP.pdb
     RDKit          3D

 25 25  0  0  1  0  0  0  0  0999 V2000
   19.9017  -11.5058  -15.6183 N   0  0  0  0  0  0  0  0  0  0  0  0
   19.8931  -10.3082  -16.4162 C   0  0  1  0  0  0  0  0  0  0  0  0
   18.6657  -10.2735  -17.2575 C   0  0  0  0  0  0  0  0  0  0  0  0
   18.6504  -11.3060  -18.3294 C   0  0  0  0  0  0  0  0  0  0  0  0
   17.4744  -11.2806  -19.2207 C   0  0  0  0  0  0  0  0  0  0  0  0
   17.3921  -12.0611  -20.2008 O   0  0  0  0  0  0  0  0  0  0  0  0
   19.8923   -9.0964  -15.5256 C   0  0  0  0  0  0  0  0  0  0  0  0
   19.0182   -8.9529  -14.6216 O   0  0  0  0  0  0  0  0  0  0  0  0
   16.4235  -10.4002  -19.0113 O   0  0  0  0  0  0  0  0  0  0  0  0
   20.8597   -8.0701  -15.6557 N   0  0  0  0  0  0  0  0  0  0  0  0
   20.7532   -6.8348  -14.8414 C   0  0  1  0  0  0  0  0  0  0  0  0
   22.1323   -6.6713  -14.2417 C   0  0  0  0  0  0  0  0  0  0  0  0
   22.3006   -5.4758  -13.4133 C   0  0  0  0  0  0  0  0  0  0  0  0
   22.7816   -4.4526  -14.0098 O   0  0  0  0  0  0  0  0  0  0  0  0
   20.3180   -5.7133  -15.6749 C   0  0  0  0  0  0  0  0  0  0  0  0
   20.8291   -5.6105  -16.8528 O   0  0  0  0  0  0  0  0  0  0  0  0
   22.0069   -5.3245  -12.0850 O   0  0  0  0  0  0  0  0  0  0  0  0
   19.3814   -4.7236  -15.3122 N   0  0  0  0  0  0  0  0  0  0  0  0
   18.6793   -4.6899  -14.0142 C   0  0  0  0  0  0  0  0  0  0  0  0
   17.3253   -4.1150  -14.2840 C   0  0  0  0  0  0  0  0  0  0  0  0
   17.3801   -3.5372  -15.6618 C   0  0  0  0  0  0  0  0  0  0  0  0
   18.8626   -3.5719  -16.0029 C   0  0  1  0  0  0  0  0  0  0  0  0
   19.5258   -2.3473  -15.4767 C   0  0  0  0  0  0  0  0  0  0  0  0
   19.2780   -1.2526  -16.0289 O   0  0  0  0  0  0  0  0  0  0  0  0
   20.4014   -2.4296  -14.3923 O   0  0  0  0  0  0  0  0  0  0  0  0
  2  1  1  1
  2  3  1  0
  3  4  1  0
  5  4  1  0
  5  6  2  0
  7  2  1  0
  7  8  2  0
  9  5  1  0
 10  7  1  0
 11 10  1  0
 12 13  1  0
 11 12  1  6
 13 17  1  0
 14 13  2  0
 15 11  1  0
 16 15  2  0
 18 15  1  0
 18 22  1  0
 19 20  1  0
 19 18  1  0
 20 21  1  0
 22 21  1  0
 22 23  1  1
 24 23  2  0
 25 23  1  0
M  END
$$$$
