EDP.pdb
     RDKit          3D

 25 25  0  0  1  0  0  0  0  0999 V2000
   12.4541  -11.1429  -13.0355 N   0  0  0  0  0  0  0  0  0  0  0  0
   13.8036  -11.3642  -12.5871 C   0  0  1  0  0  0  0  0  0  0  0  0
   14.5369  -12.1873  -13.5872 C   0  0  0  0  0  0  0  0  0  0  0  0
   14.1855  -13.6328  -13.5396 C   0  0  0  0  0  0  0  0  0  0  0  0
   14.9878  -14.4524  -12.6109 C   0  0  0  0  0  0  0  0  0  0  0  0
   15.6013  -13.9241  -11.6511 O   0  0  0  0  0  0  0  0  0  0  0  0
   14.5186  -10.0495  -12.4386 C   0  0  0  0  0  0  0  0  0  0  0  0
   14.2725   -9.0825  -13.2173 O   0  0  0  0  0  0  0  0  0  0  0  0
   15.0939  -15.8270  -12.7617 O   0  0  0  0  0  0  0  0  0  0  0  0
   15.4905   -9.8346  -11.4310 N   0  0  0  0  0  0  0  0  0  0  0  0
   16.1399   -8.5086  -11.2893 C   0  0  1  0  0  0  0  0  0  0  0  0
   15.9893   -8.1820   -9.8200 C   0  0  0  0  0  0  0  0  0  0  0  0
   16.5601   -6.8949   -9.4184 C   0  0  0  0  0  0  0  0  0  0  0  0
   17.1453   -6.2361  -10.3445 O   0  0  0  0  0  0  0  0  0  0  0  0
   17.5251   -8.5689  -11.7577 C   0  0  0  0  0  0  0  0  0  0  0  0
   18.2951   -9.4583  -11.2329 O   0  0  0  0  0  0  0  0  0  0  0  0
   16.5426   -6.3170   -8.1777 O   0  0  0  0  0  0  0  0  0  0  0  0
   18.1063   -7.7413  -12.7403 N   0  0  0  0  0  0  0  0  0  0  0  0
   17.4128   -6.6025  -13.3734 C   0  0  0  0  0  0  0  0  0  0  0  0
   17.9251   -6.5263  -14.7765 C   0  0  0  0  0  0  0  0  0  0  0  0
   19.1265   -7.4142  -14.8349 C   0  0  0  0  0  0  0  0  0  0  0  0
   19.3992   -7.7395  -13.3736 C   0  0  1  0  0  0  0  0  0  0  0  0
   20.2369   -6.6669  -12.7703 C   0  0  0  0  0  0  0  0  0  0  0  0
   19.6801   -5.8166  -12.0411 O   0  0  0  0  0  0  0  0  0  0  0  0
   21.6101   -6.6203  -13.0184 O   0  0  0  0  0  0  0  0  0  0  0  0
  2  1  1  6
  2  3  1  0
  3  4  1  0
  5  4  1  0
  5  6  2  0
  7  2  1  0
  7  8  2  0
  9  5  1  0
 10  7  1  0
 11 10  1  0
 12 13  1  0
 11 12  1  1
 13 17  1  0
 14 13  2  0
 15 11  1  0
 16 15  2  0
 18 15  1  0
 18 22  1  0
 19 20  1  0
 19 18  1  0
 20 21  1  0
 22 21  1  0
 22 23  1  1
 24 23  2  0
 25 23  1  0
M  END
$$$$
