EDP.pdb
     RDKit          3D

 25 25  0  0  1  0  0  0  0  0999 V2000
   19.3672  -13.5278  -16.6194 N   0  0  0  0  0  0  0  0  0  0  0  0
   18.6792  -12.2675  -16.7165 C   0  0  1  0  0  0  0  0  0  0  0  0
   17.6566  -12.1687  -15.6395 C   0  0  0  0  0  0  0  0  0  0  0  0
   16.9253  -13.4419  -15.3957 C   0  0  0  0  0  0  0  0  0  0  0  0
   15.8019  -13.3579  -14.4424 C   0  0  0  0  0  0  0  0  0  0  0  0
   15.4598  -12.2566  -13.9455 O   0  0  0  0  0  0  0  0  0  0  0  0
   19.6544  -11.1348  -16.5503 C   0  0  0  0  0  0  0  0  0  0  0  0
   20.5901  -11.2001  -15.7005 O   0  0  0  0  0  0  0  0  0  0  0  0
   15.0866  -14.4835  -14.0619 O   0  0  0  0  0  0  0  0  0  0  0  0
   19.5719   -9.9545  -17.3289 N   0  0  0  0  0  0  0  0  0  0  0  0
   20.4808   -8.8143  -17.0567 C   0  0  1  0  0  0  0  0  0  0  0  0
   20.8158   -8.2768  -18.4305 C   0  0  0  0  0  0  0  0  0  0  0  0
   21.6812   -7.0958  -18.4302 C   0  0  0  0  0  0  0  0  0  0  0  0
   22.9209   -7.3183  -18.2121 O   0  0  0  0  0  0  0  0  0  0  0  0
   19.8316   -7.8480  -16.1698 C   0  0  0  0  0  0  0  0  0  0  0  0
   18.5481   -7.7536  -16.2261 O   0  0  0  0  0  0  0  0  0  0  0  0
   21.3232   -5.7903  -18.6337 O   0  0  0  0  0  0  0  0  0  0  0  0
   20.4799   -7.0017  -15.2469 N   0  0  0  0  0  0  0  0  0  0  0  0
   21.9432   -6.9549  -15.0592 C   0  0  0  0  0  0  0  0  0  0  0  0
   22.1715   -6.6521  -13.6125 C   0  0  0  0  0  0  0  0  0  0  0  0
   20.8517   -6.2194  -13.0595 C   0  0  0  0  0  0  0  0  0  0  0  0
   19.9902   -6.0340  -14.3001 C   0  0  1  0  0  0  0  0  0  0  0  0
   20.1937   -4.6660  -14.8507 C   0  0  0  0  0  0  0  0  0  0  0  0
   19.6973   -3.6970  -14.2349 O   0  0  0  0  0  0  0  0  0  0  0  0
   20.9231   -4.4798  -16.0267 O   0  0  0  0  0  0  0  0  0  0  0  0
  2  1  1  1
  2  3  1  0
  3  4  1  0
  5  4  1  0
  5  6  2  0
  7  2  1  0
  7  8  2  0
  9  5  1  0
 10  7  1  0
 11 10  1  0
 12 13  1  0
 11 12  1  6
 13 17  1  0
 14 13  2  0
 15 11  1  0
 16 15  2  0
 18 15  1  0
 18 22  1  0
 19 20  1  0
 19 18  1  0
 20 21  1  0
 22 21  1  0
 22 23  1  6
 24 23  2  0
 25 23  1  0
M  END
$$$$
