EDP.pdb
     RDKit          3D

 25 25  0  0  1  0  0  0  0  0999 V2000
   22.4906  -14.0659  -16.8873 N   0  0  0  0  0  0  0  0  0  0  0  0
   22.9089  -13.0966  -15.9091 C   0  0  1  0  0  0  0  0  0  0  0  0
   24.3905  -12.9577  -15.9408 C   0  0  0  0  0  0  0  0  0  0  0  0
   25.1120  -14.1858  -15.5086 C   0  0  0  0  0  0  0  0  0  0  0  0
   26.5765  -14.1599  -15.6887 C   0  0  0  0  0  0  0  0  0  0  0  0
   27.1374  -13.1971  -16.2676 O   0  0  0  0  0  0  0  0  0  0  0  0
   22.3000  -11.7570  -16.2191 C   0  0  0  0  0  0  0  0  0  0  0  0
   22.3455  -11.2756  -17.3889 O   0  0  0  0  0  0  0  0  0  0  0  0
   27.3829  -15.1902  -15.2288 O   0  0  0  0  0  0  0  0  0  0  0  0
   21.6541  -10.9796  -15.2269 N   0  0  0  0  0  0  0  0  0  0  0  0
   21.0215   -9.6865  -15.5845 C   0  0  1  0  0  0  0  0  0  0  0  0
   19.5736   -9.8636  -15.1837 C   0  0  0  0  0  0  0  0  0  0  0  0
   18.7424   -8.6703  -15.3527 C   0  0  0  0  0  0  0  0  0  0  0  0
   18.5382   -8.3048  -16.5606 O   0  0  0  0  0  0  0  0  0  0  0  0
   21.7062   -8.5827  -14.9102 C   0  0  0  0  0  0  0  0  0  0  0  0
   22.1844   -8.8050  -13.7350 O   0  0  0  0  0  0  0  0  0  0  0  0
   18.1623   -7.9039  -14.3781 O   0  0  0  0  0  0  0  0  0  0  0  0
   21.8986   -7.2851  -15.4273 N   0  0  0  0  0  0  0  0  0  0  0  0
   21.3629   -6.8274  -16.7243 C   0  0  0  0  0  0  0  0  0  0  0  0
   22.3567   -5.8509  -17.2680 C   0  0  0  0  0  0  0  0  0  0  0  0
   23.2849   -5.5240  -16.1426 C   0  0  0  0  0  0  0  0  0  0  0  0
   22.5975   -6.1298  -14.9277 C   0  0  1  0  0  0  0  0  0  0  0  0
   21.6095   -5.1617  -14.3774 C   0  0  0  0  0  0  0  0  0  0  0  0
   22.0319   -4.2095  -13.6850 O   0  0  0  0  0  0  0  0  0  0  0  0
   20.2464   -5.3217  -14.6342 O   0  0  0  0  0  0  0  0  0  0  0  0
  2  1  1  6
  2  3  1  0
  3  4  1  0
  5  4  1  0
  5  6  2  0
  7  2  1  0
  7  8  2  0
  9  5  1  0
 10  7  1  0
 11 10  1  0
 12 13  1  0
 11 12  1  1
 13 17  1  0
 14 13  2  0
 15 11  1  0
 16 15  2  0
 18 15  1  0
 18 22  1  0
 19 20  1  0
 19 18  1  0
 20 21  1  0
 22 21  1  0
 22 23  1  6
 24 23  2  0
 25 23  1  0
M  END
$$$$
