EDP.pdb
     RDKit          3D

 25 25  0  0  1  0  0  0  0  0999 V2000
   25.3930  -20.9482  -10.2051 N   0  0  0  0  0  0  0  0  0  0  0  0
   25.3122  -21.5549  -11.5076 C   0  0  1  0  0  0  0  0  0  0  0  0
   23.8855  -21.7621  -11.8780 C   0  0  0  0  0  0  0  0  0  0  0  0
   23.0101  -20.6066  -11.5406 C   0  0  0  0  0  0  0  0  0  0  0  0
   21.9207  -20.3328  -12.4977 C   0  0  0  0  0  0  0  0  0  0  0  0
   21.2699  -21.2719  -13.0187 O   0  0  0  0  0  0  0  0  0  0  0  0
   25.9432  -20.6554  -12.5344 C   0  0  0  0  0  0  0  0  0  0  0  0
   26.1279  -19.4258  -12.2979 O   0  0  0  0  0  0  0  0  0  0  0  0
   21.5769  -19.0378  -12.8556 O   0  0  0  0  0  0  0  0  0  0  0  0
   26.3558  -21.1373  -13.8008 N   0  0  0  0  0  0  0  0  0  0  0  0
   26.9721  -20.2162  -14.7866 C   0  0  1  0  0  0  0  0  0  0  0  0
   27.5858  -21.1390  -15.8163 C   0  0  0  0  0  0  0  0  0  0  0  0
   28.1657  -20.4602  -16.9768 C   0  0  0  0  0  0  0  0  0  0  0  0
   29.0201  -19.5465  -16.7134 O   0  0  0  0  0  0  0  0  0  0  0  0
   25.9663  -19.2966  -15.3200 C   0  0  0  0  0  0  0  0  0  0  0  0
   24.7565  -19.7273  -15.4209 O   0  0  0  0  0  0  0  0  0  0  0  0
   27.9034  -20.6853  -18.3012 O   0  0  0  0  0  0  0  0  0  0  0  0
   26.1932  -17.9689  -15.7372 N   0  0  0  0  0  0  0  0  0  0  0  0
   27.5148  -17.3121  -15.7126 C   0  0  0  0  0  0  0  0  0  0  0  0
   27.2603  -15.8672  -15.4221 C   0  0  0  0  0  0  0  0  0  0  0  0
   25.7907  -15.6552  -15.5964 C   0  0  0  0  0  0  0  0  0  0  0  0
   25.3208  -16.9457  -16.2517 C   0  0  1  0  0  0  0  0  0  0  0  0
   25.4967  -16.8505  -17.7268 C   0  0  0  0  0  0  0  0  0  0  0  0
   26.4408  -17.4784  -18.2551 O   0  0  0  0  0  0  0  0  0  0  0  0
   24.6232  -16.0763  -18.4932 O   0  0  0  0  0  0  0  0  0  0  0  0
  2  1  1  1
  2  3  1  0
  3  4  1  0
  5  4  1  0
  5  6  2  0
  7  2  1  0
  7  8  2  0
  9  5  1  0
 10  7  1  0
 11 10  1  0
 12 13  1  0
 11 12  1  6
 13 17  1  0
 14 13  2  0
 15 11  1  0
 16 15  2  0
 18 15  1  0
 18 22  1  0
 19 20  1  0
 19 18  1  0
 20 21  1  0
 22 21  1  0
 22 23  1  6
 24 23  2  0
 25 23  1  0
M  END
$$$$
