EDP.pdb
     RDKit          3D

 25 25  0  0  1  0  0  0  0  0999 V2000
   12.5286  -15.7610    4.0664 N   0  0  0  0  0  0  0  0  0  0  0  0
   13.9138  -15.8610    4.4438 C   0  0  1  0  0  0  0  0  0  0  0  0
   14.1585  -15.0605    5.6746 C   0  0  0  0  0  0  0  0  0  0  0  0
   14.6487  -13.6823    5.3994 C   0  0  0  0  0  0  0  0  0  0  0  0
   13.6472  -12.7489    4.8483 C   0  0  0  0  0  0  0  0  0  0  0  0
   12.4732  -13.1281    4.6148 O   0  0  0  0  0  0  0  0  0  0  0  0
   14.2665  -17.2942    4.7321 C   0  0  0  0  0  0  0  0  0  0  0  0
   13.6906  -17.9327    5.6610 O   0  0  0  0  0  0  0  0  0  0  0  0
   13.9623  -11.4274    4.5694 O   0  0  0  0  0  0  0  0  0  0  0  0
   15.2493  -17.9890    3.9854 N   0  0  0  0  0  0  0  0  0  0  0  0
   15.5672  -19.4029    4.3014 C   0  0  1  0  0  0  0  0  0  0  0  0
   16.2194  -19.9227    3.0393 C   0  0  0  0  0  0  0  0  0  0  0  0
   16.4976  -21.3602    3.0427 C   0  0  0  0  0  0  0  0  0  0  0  0
   17.7090  -21.6898    2.8017 O   0  0  0  0  0  0  0  0  0  0  0  0
   16.4107  -19.4792    5.4950 C   0  0  0  0  0  0  0  0  0  0  0  0
   17.2014  -18.4903    5.7319 O   0  0  0  0  0  0  0  0  0  0  0  0
   15.6210  -22.3864    3.2709 O   0  0  0  0  0  0  0  0  0  0  0  0
   16.4420  -20.5399    6.4235 N   0  0  0  0  0  0  0  0  0  0  0  0
   15.5594  -21.7210    6.3548 C   0  0  0  0  0  0  0  0  0  0  0  0
   15.2957  -22.1309    7.7688 C   0  0  0  0  0  0  0  0  0  0  0  0
   16.2753  -21.3819    8.6139 C   0  0  0  0  0  0  0  0  0  0  0  0
   17.2380  -20.7850    7.5978 C   0  0  1  0  0  0  0  0  0  0  0  0
   18.2983  -21.7773    7.2704 C   0  0  0  0  0  0  0  0  0  0  0  0
   18.2367  -22.3734    6.1725 O   0  0  0  0  0  0  0  0  0  0  0  0
   19.3326  -22.0289    8.1741 O   0  0  0  0  0  0  0  0  0  0  0  0
  2  1  1  1
  2  3  1  0
  3  4  1  0
  5  4  1  0
  5  6  2  0
  7  2  1  0
  7  8  2  0
  9  5  1  0
 10  7  1  0
 11 10  1  0
 12 13  1  0
 11 12  1  6
 13 17  1  0
 14 13  2  0
 15 11  1  0
 16 15  2  0
 18 15  1  0
 18 22  1  0
 19 20  1  0
 19 18  1  0
 20 21  1  0
 22 21  1  0
 22 23  1  6
 24 23  2  0
 25 23  1  0
M  END
$$$$
