EDP.pdb
     RDKit          3D

 25 25  0  0  1  0  0  0  0  0999 V2000
   17.1940  -24.9516  -11.4004 N   0  0  0  0  0  0  0  0  0  0  0  0
   18.0307  -25.1446  -10.2455 C   0  0  1  0  0  0  0  0  0  0  0  0
   18.6873  -23.8597   -9.8801 C   0  0  0  0  0  0  0  0  0  0  0  0
   19.5889  -23.3306  -10.9396 C   0  0  0  0  0  0  0  0  0  0  0  0
   18.9183  -22.6486  -12.0635 C   0  0  0  0  0  0  0  0  0  0  0  0
   17.9499  -21.8750  -11.8621 O   0  0  0  0  0  0  0  0  0  0  0  0
   17.1996  -25.6015   -9.0784 C   0  0  0  0  0  0  0  0  0  0  0  0
   16.1464  -24.9828   -8.7468 O   0  0  0  0  0  0  0  0  0  0  0  0
   19.3289  -22.8349  -13.3750 O   0  0  0  0  0  0  0  0  0  0  0  0
   17.5532  -26.7335   -8.3041 N   0  0  0  0  0  0  0  0  0  0  0  0
   16.7087  -27.1482   -7.1574 C   0  0  1  0  0  0  0  0  0  0  0  0
   16.1418  -28.4843   -7.5841 C   0  0  0  0  0  0  0  0  0  0  0  0
   15.2369  -29.1024   -6.6131 C   0  0  0  0  0  0  0  0  0  0  0  0
   14.1609  -28.4564   -6.3704 O   0  0  0  0  0  0  0  0  0  0  0  0
   17.5048  -27.1918   -5.9301 C   0  0  0  0  0  0  0  0  0  0  0  0
   18.7384  -27.5487   -6.0305 O   0  0  0  0  0  0  0  0  0  0  0  0
   15.4050  -30.2813   -5.9381 O   0  0  0  0  0  0  0  0  0  0  0  0
   17.0499  -26.8757   -4.6334 N   0  0  0  0  0  0  0  0  0  0  0  0
   15.6782  -26.4236   -4.3291 C   0  0  0  0  0  0  0  0  0  0  0  0
   15.7941  -25.4757   -3.1781 C   0  0  0  0  0  0  0  0  0  0  0  0
   17.1783  -25.6377   -2.6370 C   0  0  0  0  0  0  0  0  0  0  0  0
   17.6934  -26.8819   -3.3456 C   0  0  1  0  0  0  0  0  0  0  0  0
   17.2713  -28.0961   -2.5948 C   0  0  0  0  0  0  0  0  0  0  0  0
   16.2686  -28.7261   -2.9978 O   0  0  0  0  0  0  0  0  0  0  0  0
   17.9845  -28.5133   -1.4692 O   0  0  0  0  0  0  0  0  0  0  0  0
  2  1  1  6
  2  3  1  0
  3  4  1  0
  5  4  1  0
  5  6  2  0
  7  2  1  0
  7  8  2  0
  9  5  1  0
 10  7  1  0
 11 10  1  0
 12 13  1  0
 11 12  1  6
 13 17  1  0
 14 13  2  0
 15 11  1  0
 16 15  2  0
 18 15  1  0
 18 22  1  0
 19 20  1  0
 19 18  1  0
 20 21  1  0
 22 21  1  0
 22 23  1  1
 24 23  2  0
 25 23  1  0
M  END
$$$$
