EDP.pdb
     RDKit          3D

 25 25  0  0  1  0  0  0  0  0999 V2000
   15.0147  -10.4247  -15.2651 N   0  0  0  0  0  0  0  0  0  0  0  0
   15.8991  -10.2137  -14.1496 C   0  0  1  0  0  0  0  0  0  0  0  0
   17.0740  -11.1207  -14.2612 C   0  0  0  0  0  0  0  0  0  0  0  0
   17.4192  -11.4764  -15.6647 C   0  0  0  0  0  0  0  0  0  0  0  0
   18.6075  -12.3357  -15.8294 C   0  0  0  0  0  0  0  0  0  0  0  0
   19.0222  -12.6492  -16.9724 O   0  0  0  0  0  0  0  0  0  0  0  0
   16.3945   -8.7938  -14.1471 C   0  0  0  0  0  0  0  0  0  0  0  0
   16.5695   -8.1629  -15.2303 O   0  0  0  0  0  0  0  0  0  0  0  0
   19.3062  -12.8261  -14.7364 O   0  0  0  0  0  0  0  0  0  0  0  0
   16.6852   -8.1036  -12.9449 N   0  0  0  0  0  0  0  0  0  0  0  0
   17.2696   -6.7409  -12.9877 C   0  0  1  0  0  0  0  0  0  0  0  0
   16.9190   -6.1494  -11.6403 C   0  0  0  0  0  0  0  0  0  0  0  0
   17.5572   -6.8081  -10.4990 C   0  0  0  0  0  0  0  0  0  0  0  0
   17.6379   -8.0819  -10.5696 O   0  0  0  0  0  0  0  0  0  0  0  0
   18.7051   -6.8126  -13.2631 C   0  0  0  0  0  0  0  0  0  0  0  0
   19.3075   -7.9226  -13.0096 O   0  0  0  0  0  0  0  0  0  0  0  0
   18.0737   -6.2265   -9.3727 O   0  0  0  0  0  0  0  0  0  0  0  0
   19.5031   -5.7747  -13.7869 N   0  0  0  0  0  0  0  0  0  0  0  0
   18.9958   -4.4252  -14.1033 C   0  0  0  0  0  0  0  0  0  0  0  0
   19.7799   -3.9480  -15.2841 C   0  0  0  0  0  0  0  0  0  0  0  0
   20.9323   -4.8888  -15.4322 C   0  0  0  0  0  0  0  0  0  0  0  0
   20.8952   -5.7014  -14.1462 C   0  0  1  0  0  0  0  0  0  0  0  0
   21.6381   -4.9797  -13.0770 C   0  0  0  0  0  0  0  0  0  0  0  0
   22.8877   -4.9601  -13.1301 O   0  0  0  0  0  0  0  0  0  0  0  0
   20.9472   -4.3431  -12.0440 O   0  0  0  0  0  0  0  0  0  0  0  0
  2  1  1  6
  2  3  1  0
  3  4  1  0
  5  4  1  0
  5  6  2  0
  7  2  1  0
  7  8  2  0
  9  5  1  0
 10  7  1  0
 11 10  1  0
 12 13  1  0
 11 12  1  1
 13 17  1  0
 14 13  2  0
 15 11  1  0
 16 15  2  0
 18 15  1  0
 18 22  1  0
 19 20  1  0
 19 18  1  0
 20 21  1  0
 22 21  1  0
 22 23  1  1
 24 23  2  0
 25 23  1  0
M  END
$$$$
