FIT.pdb
     RDKit          3D

 27 27  0  0  1  0  0  0  0  0999 V2000
   17.9334  -11.5420  -18.0579 N   0  0  0  0  0  0  0  0  0  0  0  0
   18.9131  -10.5179  -18.3563 C   0  0  1  0  0  0  0  0  0  0  0  0
   18.1816   -9.3560  -18.9936 C   0  0  0  0  0  0  0  0  0  0  0  0
   17.8665   -9.7160  -20.4014 C   0  0  0  0  0  0  0  0  0  0  0  0
   16.5784  -10.0497  -20.7812 C   0  0  0  0  0  0  0  0  0  0  0  0
   16.2586  -10.3876  -22.0798 C   0  0  0  0  0  0  0  0  0  0  0  0
   17.2305  -10.4013  -23.0474 C   0  0  0  0  0  0  0  0  0  0  0  0
   18.5085  -10.0733  -22.6855 C   0  0  0  0  0  0  0  0  0  0  0  0
   18.8341   -9.7337  -21.3845 C   0  0  0  0  0  0  0  0  0  0  0  0
   19.5856  -10.1018  -17.1085 C   0  0  0  0  0  0  0  0  0  0  0  0
   19.1618  -10.5172  -15.9903 O   0  0  0  0  0  0  0  0  0  0  0  0
   24.3194  -10.6352  -14.0956 C   0  0  0  0  0  0  0  0  0  0  0  0
   23.2480   -9.5869  -14.2800 C   0  0  0  0  0  0  0  0  0  0  0  0
   22.5174   -9.9019  -15.5729 C   0  0  2  0  0  0  0  0  0  0  0  0
   23.4635   -9.8759  -16.7491 C   0  0  0  0  0  0  0  0  0  0  0  0
   21.3893   -8.9596  -15.8275 C   0  0  2  0  0  0  0  0  0  0  0  0
   20.7144   -9.2368  -17.0854 N   0  0  0  0  0  0  0  0  0  0  0  0
   21.9379   -7.5526  -15.8452 C   0  0  0  0  0  0  0  0  0  0  0  0
   22.8884   -7.2442  -16.5988 O   0  0  0  0  0  0  0  0  0  0  0  0
   20.1740   -4.4793  -16.7811 C   0  0  0  0  0  0  0  0  0  0  0  0
   20.7289   -4.2045  -15.4240 C   0  0  1  0  0  0  0  0  0  0  0  0
   19.6585   -4.1387  -14.5290 O   0  0  0  0  0  0  0  0  0  0  0  0
   21.7609   -5.1628  -14.9657 C   0  0  2  0  0  0  0  0  0  0  0  0
   21.3875   -6.5480  -15.0072 N   0  0  0  0  0  0  0  0  0  0  0  0
   22.4878   -4.7505  -13.7274 C   0  0  0  0  0  0  0  0  0  0  0  0
   23.2502   -3.6077  -13.7581 O   0  0  0  0  0  0  0  0  0  0  0  0
   22.4342   -5.3897  -12.6656 O   0  0  0  0  0  0  0  0  0  0  0  0
  2  1  1  1
  3  2  1  0
  4  9  2  0
  4  3  1  0
  5  4  1  0
  6  7  1  0
  6  5  2  0
  7  8  2  0
  8  9  1  0
 10 17  1  0
 10  2  1  0
 11 10  2  0
 13 14  1  0
 13 12  1  0
 14 15  1  6
 16 14  1  0
 16 17  1  6
 18 16  1  0
 19 18  2  0
 21 20  1  6
 21 22  1  0
 21 23  1  0
 23 24  1  1
 24 18  1  0
 25 23  1  0
 25 26  1  0
 27 25  2  0
M  END
$$$$
