FIT.pdb
     RDKit          3D

 27 27  0  0  1  0  0  0  0  0999 V2000
   26.5386  -22.6496  -10.7525 N   0  0  0  0  0  0  0  0  0  0  0  0
   25.8442  -21.3798  -10.8075 C   0  0  1  0  0  0  0  0  0  0  0  0
   26.8900  -20.2855  -10.8107 C   0  0  0  0  0  0  0  0  0  0  0  0
   27.3940  -20.1148   -9.4223 C   0  0  0  0  0  0  0  0  0  0  0  0
   26.6009  -19.5481   -8.4401 C   0  0  0  0  0  0  0  0  0  0  0  0
   27.0433  -19.3780   -7.1446 C   0  0  0  0  0  0  0  0  0  0  0  0
   28.3074  -19.7749   -6.7907 C   0  0  0  0  0  0  0  0  0  0  0  0
   29.1022  -20.3368   -7.7521 C   0  0  0  0  0  0  0  0  0  0  0  0
   28.6630  -20.5095   -9.0526 C   0  0  0  0  0  0  0  0  0  0  0  0
   25.0147  -21.3250  -12.0287 C   0  0  0  0  0  0  0  0  0  0  0  0
   25.4405  -21.8308  -13.1083 O   0  0  0  0  0  0  0  0  0  0  0  0
   20.5511  -22.0064  -10.8468 C   0  0  0  0  0  0  0  0  0  0  0  0
   21.1887  -22.3469  -12.1728 C   0  0  0  0  0  0  0  0  0  0  0  0
   21.4517  -21.0420  -12.9025 C   0  0  2  0  0  0  0  0  0  0  0  0
   20.6225  -20.9490  -14.1608 C   0  0  0  0  0  0  0  0  0  0  0  0
   22.8925  -20.8695  -13.2485 C   0  0  2  0  0  0  0  0  0  0  0  0
   23.7278  -20.7206  -12.0675 N   0  0  0  0  0  0  0  0  0  0  0  0
   23.0296  -19.6468  -14.1245 C   0  0  0  0  0  0  0  0  0  0  0  0
   22.8497  -18.4997  -13.6573 O   0  0  0  0  0  0  0  0  0  0  0  0
   24.7341  -17.6943  -18.3722 C   0  0  0  0  0  0  0  0  0  0  0  0
   24.5408  -18.8694  -17.4739 C   0  0  1  0  0  0  0  0  0  0  0  0
   25.7723  -19.1651  -16.8846 O   0  0  0  0  0  0  0  0  0  0  0  0
   23.4772  -18.7086  -16.4558 C   0  0  2  0  0  0  0  0  0  0  0  0
   23.3655  -19.7713  -15.4978 N   0  0  0  0  0  0  0  0  0  0  0  0
   22.1734  -18.2122  -16.9903 C   0  0  0  0  0  0  0  0  0  0  0  0
   21.8650  -16.8806  -16.8487 O   0  0  0  0  0  0  0  0  0  0  0  0
   21.3522  -18.9453  -17.5621 O   0  0  0  0  0  0  0  0  0  0  0  0
  2  1  1  6
  3  2  1  0
  4  9  2  0
  4  3  1  0
  5  4  1  0
  6  7  1  0
  6  5  2  0
  7  8  2  0
  8  9  1  0
 10 17  1  0
 10  2  1  0
 11 10  2  0
 13 14  1  0
 13 12  1  0
 14 15  1  6
 16 14  1  0
 16 17  1  1
 18 16  1  0
 19 18  2  0
 21 20  1  1
 21 22  1  0
 21 23  1  0
 23 24  1  6
 24 18  1  0
 25 23  1  0
 25 26  1  0
 27 25  2  0
M  END
$$$$
