FIT.pdb
     RDKit          3D

 27 27  0  0  1  0  0  0  0  0999 V2000
   21.5144  -19.0250  -15.0693 N   0  0  0  0  0  0  0  0  0  0  0  0
   21.7894  -18.2756  -16.2778 C   0  0  1  0  0  0  0  0  0  0  0  0
   20.4720  -18.0557  -16.9902 C   0  0  0  0  0  0  0  0  0  0  0  0
   19.9860  -19.3681  -17.4924 C   0  0  0  0  0  0  0  0  0  0  0  0
   20.5547  -19.9608  -18.6060 C   0  0  0  0  0  0  0  0  0  0  0  0
   20.1232  -21.1771  -19.0930 C   0  0  0  0  0  0  0  0  0  0  0  0
   19.0978  -21.8433  -18.4720 C   0  0  0  0  0  0  0  0  0  0  0  0
   18.5265  -21.2685  -17.3697 C   0  0  0  0  0  0  0  0  0  0  0  0
   18.9557  -20.0489  -16.8776 C   0  0  0  0  0  0  0  0  0  0  0  0
   22.4237  -16.9888  -15.9252 C   0  0  0  0  0  0  0  0  0  0  0  0
   22.1435  -16.4229  -14.8281 O   0  0  0  0  0  0  0  0  0  0  0  0
   27.5518  -16.2812  -16.0983 C   0  0  0  0  0  0  0  0  0  0  0  0
   26.0675  -16.3209  -15.8223 C   0  0  0  0  0  0  0  0  0  0  0  0
   25.4492  -15.0941  -16.4681 C   0  0  2  0  0  0  0  0  0  0  0  0
   26.0167  -13.8267  -15.8756 C   0  0  0  0  0  0  0  0  0  0  0  0
   23.9633  -15.0761  -16.3377 C   0  0  2  0  0  0  0  0  0  0  0  0
   23.3582  -16.3264  -16.7683 N   0  0  0  0  0  0  0  0  0  0  0  0
   23.4250  -13.9380  -17.1720 C   0  0  0  0  0  0  0  0  0  0  0  0
   23.9828  -13.6079  -18.2426 O   0  0  0  0  0  0  0  0  0  0  0  0
   19.9021  -13.6019  -18.5376 C   0  0  0  0  0  0  0  0  0  0  0  0
   20.2038  -12.3473  -17.7890 C   0  0  1  0  0  0  0  0  0  0  0  0
   19.4116  -12.3341  -16.6386 O   0  0  0  0  0  0  0  0  0  0  0  0
   21.6343  -12.1425  -17.4648 C   0  0  2  0  0  0  0  0  0  0  0  0
   22.2738  -13.2171  -16.7604 N   0  0  0  0  0  0  0  0  0  0  0  0
   21.9686  -10.7782  -16.9563 C   0  0  0  0  0  0  0  0  0  0  0  0
   21.6138   -9.6862  -17.7111 O   0  0  0  0  0  0  0  0  0  0  0  0
   22.5505  -10.5805  -15.8787 O   0  0  0  0  0  0  0  0  0  0  0  0
  2  1  1  1
  3  2  1  0
  4  9  2  0
  4  3  1  0
  5  4  1  0
  6  7  1  0
  6  5  2  0
  7  8  2  0
  8  9  1  0
 10 17  1  0
 10  2  1  0
 11 10  2  0
 13 14  1  0
 13 12  1  0
 14 15  1  1
 16 14  1  0
 16 17  1  6
 18 16  1  0
 19 18  2  0
 21 20  1  1
 21 22  1  0
 21 23  1  0
 23 24  1  1
 24 18  1  0
 25 23  1  0
 25 26  1  0
 27 25  2  0
M  END
$$$$
