FIT.pdb
     RDKit          3D

 27 27  0  0  1  0  0  0  0  0999 V2000
   28.4925  -19.5141  -14.6792 N   0  0  0  0  0  0  0  0  0  0  0  0
   27.3444  -19.9312  -13.9011 C   0  0  1  0  0  0  0  0  0  0  0  0
   27.5462  -19.4356  -12.4851 C   0  0  0  0  0  0  0  0  0  0  0  0
   28.6666  -20.2003  -11.8762 C   0  0  0  0  0  0  0  0  0  0  0  0
   28.4496  -21.4293  -11.2785 C   0  0  0  0  0  0  0  0  0  0  0  0
   29.4705  -22.1595  -10.7062 C   0  0  0  0  0  0  0  0  0  0  0  0
   30.7534  -21.6747  -10.7158 C   0  0  0  0  0  0  0  0  0  0  0  0
   30.9820  -20.4606  -11.3036 C   0  0  0  0  0  0  0  0  0  0  0  0
   29.9614  -19.7247  -11.8788 C   0  0  0  0  0  0  0  0  0  0  0  0
   26.1160  -19.3622  -14.4927 C   0  0  0  0  0  0  0  0  0  0  0  0
   26.1447  -18.2207  -15.0391 O   0  0  0  0  0  0  0  0  0  0  0  0
   23.1118  -18.5786  -18.8079 C   0  0  0  0  0  0  0  0  0  0  0  0
   22.7223  -18.8070  -17.3668 C   0  0  0  0  0  0  0  0  0  0  0  0
   23.9450  -19.3390  -16.6412 C   0  0  2  0  0  0  0  0  0  0  0  0
   24.3582  -20.6830  -17.1909 C   0  0  0  0  0  0  0  0  0  0  0  0
   23.7222  -19.4558  -15.1708 C   0  0  2  0  0  0  0  0  0  0  0  0
   24.8649  -20.0387  -14.4859 N   0  0  0  0  0  0  0  0  0  0  0  0
   22.5006  -20.3134  -14.9402 C   0  0  0  0  0  0  0  0  0  0  0  0
   22.4299  -21.4696  -15.4142 O   0  0  0  0  0  0  0  0  0  0  0  0
   21.2299  -21.4457  -11.6892 C   0  0  0  0  0  0  0  0  0  0  0  0
   20.0585  -20.8073  -12.3566 C   0  0  1  0  0  0  0  0  0  0  0  0
   19.7602  -19.6309  -11.6649 O   0  0  0  0  0  0  0  0  0  0  0  0
   20.2265  -20.5562  -13.8065 C   0  0  2  0  0  0  0  0  0  0  0  0
   21.4048  -19.8272  -14.1804 N   0  0  0  0  0  0  0  0  0  0  0  0
   18.9808  -20.1317  -14.5136 C   0  0  0  0  0  0  0  0  0  0  0  0
   18.9830  -18.9407  -15.1989 O   0  0  0  0  0  0  0  0  0  0  0  0
   17.9397  -20.8062  -14.5161 O   0  0  0  0  0  0  0  0  0  0  0  0
  2  1  1  6
  3  2  1  0
  4  9  2  0
  4  3  1  0
  5  4  1  0
  6  7  1  0
  6  5  2  0
  7  8  2  0
  8  9  1  0
 10 17  1  0
 10  2  1  0
 11 10  2  0
 13 14  1  0
 13 12  1  0
 14 15  1  6
 16 14  1  0
 16 17  1  1
 18 16  1  0
 19 18  2  0
 21 20  1  1
 21 22  1  0
 21 23  1  0
 23 24  1  1
 24 18  1  0
 25 23  1  0
 25 26  1  0
 27 25  2  0
M  END
$$$$
