FIT.pdb
     RDKit          3D

 27 27  0  0  1  0  0  0  0  0999 V2000
   28.3540  -20.2270   -8.3842 N   0  0  0  0  0  0  0  0  0  0  0  0
   26.9447  -20.5204   -8.2245 C   0  0  1  0  0  0  0  0  0  0  0  0
   26.4336  -19.6947   -7.0634 C   0  0  0  0  0  0  0  0  0  0  0  0
   27.4265  -19.7733   -5.9594 C   0  0  0  0  0  0  0  0  0  0  0  0
   27.3696  -20.7875   -5.0197 C   0  0  0  0  0  0  0  0  0  0  0  0
   28.2776  -20.8840   -3.9857 C   0  0  0  0  0  0  0  0  0  0  0  0
   29.2807  -19.9572   -3.8611 C   0  0  0  0  0  0  0  0  0  0  0  0
   29.3486  -18.9490   -4.7835 C   0  0  0  0  0  0  0  0  0  0  0  0
   28.4403  -18.8480   -5.8222 C   0  0  0  0  0  0  0  0  0  0  0  0
   26.2276  -20.1840   -9.4716 C   0  0  0  0  0  0  0  0  0  0  0  0
   26.0930  -18.9743   -9.8196 O   0  0  0  0  0  0  0  0  0  0  0  0
   28.4900  -21.7091  -12.2756 C   0  0  0  0  0  0  0  0  0  0  0  0
   27.5061  -20.6149  -12.6153 C   0  0  0  0  0  0  0  0  0  0  0  0
   26.1335  -21.2532  -12.7297 C   0  0  2  0  0  0  0  0  0  0  0  0
   25.5178  -20.9743  -14.0797 C   0  0  0  0  0  0  0  0  0  0  0  0
   25.2042  -20.7884  -11.6593 C   0  0  2  0  0  0  0  0  0  0  0  0
   25.6619  -21.1655  -10.3315 N   0  0  0  0  0  0  0  0  0  0  0  0
   23.8423  -21.3889  -11.9162 C   0  0  0  0  0  0  0  0  0  0  0  0
   23.6432  -22.6152  -11.7648 O   0  0  0  0  0  0  0  0  0  0  0  0
   18.9781  -20.4929  -12.7541 C   0  0  0  0  0  0  0  0  0  0  0  0
   20.3592  -20.0024  -12.4762 C   0  0  1  0  0  0  0  0  0  0  0  0
   20.3717  -19.4661  -11.1865 O   0  0  0  0  0  0  0  0  0  0  0  0
   21.4279  -21.0122  -12.6541 C   0  0  2  0  0  0  0  0  0  0  0  0
   22.7574  -20.5755  -12.3353 N   0  0  0  0  0  0  0  0  0  0  0  0
   21.3208  -21.8184  -13.9072 C   0  0  0  0  0  0  0  0  0  0  0  0
   20.6226  -23.0014  -13.8744 O   0  0  0  0  0  0  0  0  0  0  0  0
   21.8303  -21.4694  -14.9831 O   0  0  0  0  0  0  0  0  0  0  0  0
  2  1  1  6
  3  2  1  0
  4  9  2  0
  4  3  1  0
  5  4  1  0
  6  7  1  0
  6  5  2  0
  7  8  2  0
  8  9  1  0
 10 17  1  0
 10  2  1  0
 11 10  2  0
 13 14  1  0
 13 12  1  0
 14 15  1  6
 16 14  1  0
 16 17  1  1
 18 16  1  0
 19 18  2  0
 21 20  1  1
 21 22  1  0
 21 23  1  0
 23 24  1  6
 24 18  1  0
 25 23  1  0
 25 26  1  0
 27 25  2  0
M  END
$$$$
