FIT.pdb
     RDKit          3D

 27 27  0  0  1  0  0  0  0  0999 V2000
   25.1851  -15.8698  -22.1209 N   0  0  0  0  0  0  0  0  0  0  0  0
   24.1744  -15.5288  -21.1411 C   0  0  1  0  0  0  0  0  0  0  0  0
   22.8231  -15.6727  -21.8078 C   0  0  0  0  0  0  0  0  0  0  0  0
   22.6505  -14.5481  -22.7650 C   0  0  0  0  0  0  0  0  0  0  0  0
   22.4099  -13.2610  -22.3174 C   0  0  0  0  0  0  0  0  0  0  0  0
   22.2459  -12.1997  -23.1833 C   0  0  0  0  0  0  0  0  0  0  0  0
   22.3189  -12.3985  -24.5382 C   0  0  0  0  0  0  0  0  0  0  0  0
   22.5563  -13.6663  -24.9944 C   0  0  0  0  0  0  0  0  0  0  0  0
   22.7214  -14.7338  -24.1300 C   0  0  0  0  0  0  0  0  0  0  0  0
   24.2917  -16.4322  -19.9782 C   0  0  0  0  0  0  0  0  0  0  0  0
   24.7156  -17.6149  -20.1337 O   0  0  0  0  0  0  0  0  0  0  0  0
   26.2538  -16.7964  -14.4116 C   0  0  0  0  0  0  0  0  0  0  0  0
   25.3009  -17.4368  -15.3928 C   0  0  0  0  0  0  0  0  0  0  0  0
   25.0623  -16.4420  -16.5144 C   0  0  2  0  0  0  0  0  0  0  0  0
   24.5147  -15.1417  -15.9770 C   0  0  0  0  0  0  0  0  0  0  0  0
   24.1341  -16.9750  -17.5535 C   0  0  2  0  0  0  0  0  0  0  0  0
   23.9472  -16.0433  -18.6542 N   0  0  0  0  0  0  0  0  0  0  0  0
   22.8028  -17.2634  -16.9010 C   0  0  0  0  0  0  0  0  0  0  0  0
   22.0481  -16.3309  -16.5443 O   0  0  0  0  0  0  0  0  0  0  0  0
   20.4546  -20.0841  -18.3788 C   0  0  0  0  0  0  0  0  0  0  0  0
   20.5036  -20.1931  -16.8918 C   0  0  1  0  0  0  0  0  0  0  0  0
   21.1800  -21.3724  -16.5710 O   0  0  0  0  0  0  0  0  0  0  0  0
   21.0931  -19.0242  -16.1994 C   0  0  2  0  0  0  0  0  0  0  0  0
   22.3777  -18.5990  -16.6776 N   0  0  0  0  0  0  0  0  0  0  0  0
   20.9592  -19.0488  -14.7117 C   0  0  0  0  0  0  0  0  0  0  0  0
   22.0974  -19.1376  -13.9470 O   0  0  0  0  0  0  0  0  0  0  0  0
   19.8659  -18.9890  -14.1287 O   0  0  0  0  0  0  0  0  0  0  0  0
  2  1  1  6
  3  2  1  0
  4  9  2  0
  4  3  1  0
  5  4  1  0
  6  7  1  0
  6  5  2  0
  7  8  2  0
  8  9  1  0
 10 17  1  0
 10  2  1  0
 11 10  2  0
 13 14  1  0
 13 12  1  0
 14 15  1  1
 16 14  1  0
 16 17  1  6
 18 16  1  0
 19 18  2  0
 21 20  1  6
 21 22  1  0
 21 23  1  0
 23 24  1  1
 24 18  1  0
 25 23  1  0
 25 26  1  0
 27 25  2  0
M  END
$$$$
