FIT.pdb
     RDKit          3D

 27 27  0  0  1  0  0  0  0  0999 V2000
   28.3610  -20.8683   -8.7605 N   0  0  0  0  0  0  0  0  0  0  0  0
   26.9720  -20.5037   -8.5719 C   0  0  1  0  0  0  0  0  0  0  0  0
   26.9322  -19.3301   -7.6167 C   0  0  0  0  0  0  0  0  0  0  0  0
   27.6463  -19.7153   -6.3708 C   0  0  0  0  0  0  0  0  0  0  0  0
   28.9134  -19.2316   -6.0962 C   0  0  0  0  0  0  0  0  0  0  0  0
   29.5982  -19.5728   -4.9484 C   0  0  0  0  0  0  0  0  0  0  0  0
   29.0277  -20.4181   -4.0314 C   0  0  0  0  0  0  0  0  0  0  0  0
   27.7752  -20.9038   -4.2904 C   0  0  0  0  0  0  0  0  0  0  0  0
   27.0844  -20.5644   -5.4401 C   0  0  0  0  0  0  0  0  0  0  0  0
   26.3753  -20.1478   -9.8756 C   0  0  0  0  0  0  0  0  0  0  0  0
   26.7687  -19.1149  -10.4927 O   0  0  0  0  0  0  0  0  0  0  0  0
   26.7542  -20.3770  -15.1510 C   0  0  0  0  0  0  0  0  0  0  0  0
   25.5720  -20.2205  -14.2244 C   0  0  0  0  0  0  0  0  0  0  0  0
   26.0236  -20.6288  -12.8337 C   0  0  2  0  0  0  0  0  0  0  0  0
   26.6208  -22.0154  -12.8442 C   0  0  0  0  0  0  0  0  0  0  0  0
   24.9104  -20.5797  -11.8419 C   0  0  2  0  0  0  0  0  0  0  0  0
   25.3548  -20.9176  -10.4991 N   0  0  0  0  0  0  0  0  0  0  0  0
   23.8379  -21.5485  -12.2803 C   0  0  0  0  0  0  0  0  0  0  0  0
   23.8516  -22.7387  -11.8935 O   0  0  0  0  0  0  0  0  0  0  0  0
   21.1920  -19.4127  -11.1335 C   0  0  0  0  0  0  0  0  0  0  0  0
   20.9636  -20.8395  -11.5043 C   0  0  1  0  0  0  0  0  0  0  0  0
   19.6143  -21.1278  -11.2865 O   0  0  0  0  0  0  0  0  0  0  0  0
   21.3807  -21.2017  -12.8785 C   0  0  2  0  0  0  0  0  0  0  0  0
   22.7898  -21.1306  -13.1414 N   0  0  0  0  0  0  0  0  0  0  0  0
   20.5162  -20.6407  -13.9600 C   0  0  0  0  0  0  0  0  0  0  0  0
   19.2202  -21.0846  -14.0674 O   0  0  0  0  0  0  0  0  0  0  0  0
   20.9109  -19.7865  -14.7684 O   0  0  0  0  0  0  0  0  0  0  0  0
  2  1  1  6
  3  2  1  0
  4  9  2  0
  4  3  1  0
  5  4  1  0
  6  7  1  0
  6  5  2  0
  7  8  2  0
  8  9  1  0
 10 17  1  0
 10  2  1  0
 11 10  2  0
 13 14  1  0
 13 12  1  0
 14 15  1  6
 16 14  1  0
 16 17  1  1
 18 16  1  0
 19 18  2  0
 21 20  1  6
 21 22  1  0
 21 23  1  0
 23 24  1  6
 24 18  1  0
 25 23  1  0
 25 26  1  0
 27 25  2  0
M  END
$$$$
