FIT.pdb
     RDKit          3D

 27 27  0  0  1  0  0  0  0  0999 V2000
   35.3675  -28.2934    3.4628 N   0  0  0  0  0  0  0  0  0  0  0  0
   34.9007  -26.9825    3.8642 C   0  0  1  0  0  0  0  0  0  0  0  0
   33.4343  -27.1071    4.2188 C   0  0  0  0  0  0  0  0  0  0  0  0
   32.6362  -26.4503    3.1500 C   0  0  0  0  0  0  0  0  0  0  0  0
   32.0796  -27.1878    2.1200 C   0  0  0  0  0  0  0  0  0  0  0  0
   31.3352  -26.6041    1.1160 C   0  0  0  0  0  0  0  0  0  0  0  0
   31.1239  -25.2490    1.1141 C   0  0  0  0  0  0  0  0  0  0  0  0
   31.6686  -24.5077    2.1268 C   0  0  0  0  0  0  0  0  0  0  0  0
   32.4159  -25.0886    3.1358 C   0  0  0  0  0  0  0  0  0  0  0  0
   35.6888  -26.5127    5.0220 C   0  0  0  0  0  0  0  0  0  0  0  0
   36.2115  -27.3493    5.8154 O   0  0  0  0  0  0  0  0  0  0  0  0
   39.0105  -24.2207    4.7919 C   0  0  0  0  0  0  0  0  0  0  0  0
   38.0003  -23.1100    4.9550 C   0  0  0  0  0  0  0  0  0  0  0  0
   37.2684  -23.3459    6.2639 C   0  0  2  0  0  0  0  0  0  0  0  0
   38.1467  -23.0055    7.4438 C   0  0  0  0  0  0  0  0  0  0  0  0
   36.7887  -24.7521    6.3967 C   0  0  2  0  0  0  0  0  0  0  0  0
   35.9031  -25.1362    5.3091 N   0  0  0  0  0  0  0  0  0  0  0  0
   36.0621  -24.8858    7.7140 C   0  0  0  0  0  0  0  0  0  0  0  0
   35.0223  -24.2277    7.9426 O   0  0  0  0  0  0  0  0  0  0  0  0
   35.3254  -27.4999   11.8793 C   0  0  0  0  0  0  0  0  0  0  0  0
   35.8794  -27.3385   10.5037 C   0  0  1  0  0  0  0  0  0  0  0  0
   35.0956  -28.1007    9.6343 O   0  0  0  0  0  0  0  0  0  0  0  0
   35.9986  -25.9372   10.0392 C   0  0  2  0  0  0  0  0  0  0  0  0
   36.5424  -25.7611    8.7228 N   0  0  0  0  0  0  0  0  0  0  0  0
   36.5238  -24.9843   11.0628 C   0  0  0  0  0  0  0  0  0  0  0  0
   35.6321  -24.3456   11.8905 O   0  0  0  0  0  0  0  0  0  0  0  0
   37.7320  -24.7420   11.2062 O   0  0  0  0  0  0  0  0  0  0  0  0
  2  1  1  1
  3  2  1  0
  4  9  2  0
  4  3  1  0
  5  4  1  0
  6  7  1  0
  6  5  2  0
  7  8  2  0
  8  9  1  0
 10 17  1  0
 10  2  1  0
 11 10  2  0
 13 14  1  0
 13 12  1  0
 14 15  1  1
 16 14  1  0
 16 17  1  6
 18 16  1  0
 19 18  2  0
 21 20  1  1
 21 22  1  0
 21 23  1  0
 23 24  1  6
 24 18  1  0
 25 23  1  0
 25 26  1  0
 27 25  2  0
M  END
$$$$
