FIT.pdb
     RDKit          3D

 27 27  0  0  1  0  0  0  0  0999 V2000
   27.5818  -19.4644  -16.3193 N   0  0  0  0  0  0  0  0  0  0  0  0
   26.6804  -18.9128  -15.3289 C   0  0  1  0  0  0  0  0  0  0  0  0
   25.7323  -17.9746  -16.0446 C   0  0  0  0  0  0  0  0  0  0  0  0
   26.3838  -16.6424  -16.1526 C   0  0  0  0  0  0  0  0  0  0  0  0
   26.8074  -16.1525  -17.3754 C   0  0  0  0  0  0  0  0  0  0  0  0
   27.4144  -14.9205  -17.5040 C   0  0  0  0  0  0  0  0  0  0  0  0
   27.6174  -14.1339  -16.3990 C   0  0  0  0  0  0  0  0  0  0  0  0
   27.2034  -14.6062  -15.1835 C   0  0  0  0  0  0  0  0  0  0  0  0
   26.5941  -15.8411  -15.0496 C   0  0  0  0  0  0  0  0  0  0  0  0
   25.9439  -20.0100  -14.6686 C   0  0  0  0  0  0  0  0  0  0  0  0
   25.7422  -21.0985  -15.2825 O   0  0  0  0  0  0  0  0  0  0  0  0
   25.5428  -20.6949   -9.0953 C   0  0  0  0  0  0  0  0  0  0  0  0
   25.0406  -20.2204  -10.4382 C   0  0  0  0  0  0  0  0  0  0  0  0
   25.1582  -21.3828  -11.4075 C   0  0  2  0  0  0  0  0  0  0  0  0
   26.5818  -21.8795  -11.4864 C   0  0  0  0  0  0  0  0  0  0  0  0
   24.6846  -21.0262  -12.7764 C   0  0  2  0  0  0  0  0  0  0  0  0
   25.4318  -19.9158  -13.3450 N   0  0  0  0  0  0  0  0  0  0  0  0
   23.2206  -20.6642  -12.6952 C   0  0  0  0  0  0  0  0  0  0  0  0
   22.8529  -19.5958  -12.1571 O   0  0  0  0  0  0  0  0  0  0  0  0
   20.8763  -19.7541  -15.2224 C   0  0  0  0  0  0  0  0  0  0  0  0
   20.2404  -20.9338  -14.5673 C   0  0  1  0  0  0  0  0  0  0  0  0
   20.2957  -22.0032  -15.4642 O   0  0  0  0  0  0  0  0  0  0  0  0
   20.8116  -21.2999  -13.2508 C   0  0  2  0  0  0  0  0  0  0  0  0
   22.2283  -21.5282  -13.2278 N   0  0  0  0  0  0  0  0  0  0  0  0
   20.0079  -22.2941  -12.4779 C   0  0  0  0  0  0  0  0  0  0  0  0
   20.5553  -23.5272  -12.2173 O   0  0  0  0  0  0  0  0  0  0  0  0
   18.8659  -22.0595  -12.0539 O   0  0  0  0  0  0  0  0  0  0  0  0
  2  1  1  6
  3  2  1  0
  4  9  2  0
  4  3  1  0
  5  4  1  0
  6  7  1  0
  6  5  2  0
  7  8  2  0
  8  9  1  0
 10 17  1  0
 10  2  1  0
 11 10  2  0
 13 14  1  0
 13 12  1  0
 14 15  1  6
 16 14  1  0
 16 17  1  1
 18 16  1  0
 19 18  2  0
 21 20  1  6
 21 22  1  0
 21 23  1  0
 23 24  1  6
 24 18  1  0
 25 23  1  0
 25 26  1  0
 27 25  2  0
M  END
$$$$
