VGM.pdb
     RDKit          3D

 20 19  0  0  1  0  0  0  0  0999 V2000
    9.2594  -12.7685   20.1627 C   0  0  0  0  0  0  0  0  0  0  0  0
    7.9720  -13.2321   19.5397 C   0  0  1  0  0  0  0  0  0  0  0  0
    7.6569  -12.4721   18.2702 C   0  0  0  0  0  0  0  0  0  0  0  0
    8.0898  -14.7184   19.2823 C   0  0  2  0  0  0  0  0  0  0  0  0
    6.9945  -15.2061   18.4811 N   0  0  0  0  0  0  0  0  0  0  0  0
    8.1434  -15.4971   20.5378 C   0  0  0  0  0  0  0  0  0  0  0  0
    7.1273  -15.6346   21.2552 O   0  0  0  0  0  0  0  0  0  0  0  0
    9.3525  -16.1218   20.9829 N   0  0  0  0  0  0  0  0  0  0  0  0
    9.3926  -16.9407   22.1671 C   0  0  0  0  0  0  0  0  0  0  0  0
    9.3664  -16.1663   23.4207 C   0  0  0  0  0  0  0  0  0  0  0  0
   10.3649  -15.4024   23.6868 O   0  0  0  0  0  0  0  0  0  0  0  0
    7.2349  -11.0732   27.3841 C   0  0  0  0  0  0  0  0  0  0  0  0
    6.1574  -12.4234   26.9650 S   0  0  0  0  0  0  0  0  0  0  0  0
    6.8117  -14.0469   27.0306 C   0  0  0  0  0  0  0  0  0  0  0  0
    7.2511  -14.7939   25.8742 C   0  0  0  0  0  0  0  0  0  0  0  0
    8.5559  -15.4522   25.6752 C   0  0  2  0  0  0  0  0  0  0  0  0
    8.3386  -16.1889   24.3592 N   0  0  0  0  0  0  0  0  0  0  0  0
    8.8817  -16.5598   26.6335 C   0  0  0  0  0  0  0  0  0  0  0  0
    8.5338  -17.7057   26.4656 O   0  0  0  0  0  0  0  0  0  0  0  0
    9.6323  -16.2806   27.8024 O   0  0  0  0  0  0  0  0  0  0  0  0
  2  1  1  6
  3  2  1  0
  4  2  1  0
  4  5  1  6
  6  8  1  0
  6  4  1  0
  7  6  2  0
  9 10  1  0
  9  8  1  0
 10 17  1  0
 11 10  2  0
 12 13  1  0
 13 14  1  0
 15 14  1  0
 16 15  1  1
 17 16  1  0
 18 16  1  0
 18 20  1  0
 19 18  2  0
M  END
$$$$
