VGM.pdb
     RDKit          3D

 20 19  0  0  1  0  0  0  0  0999 V2000
    6.6562  -13.2435   19.7136 C   0  0  0  0  0  0  0  0  0  0  0  0
    7.8529  -13.4419   20.6017 C   0  0  1  0  0  0  0  0  0  0  0  0
    7.4708  -13.4505   22.0655 C   0  0  0  0  0  0  0  0  0  0  0  0
    8.5230  -14.7361   20.1953 C   0  0  2  0  0  0  0  0  0  0  0  0
    7.6484  -15.8674   20.3821 N   0  0  0  0  0  0  0  0  0  0  0  0
    9.7739  -14.9737   20.9465 C   0  0  0  0  0  0  0  0  0  0  0  0
   10.7435  -14.1884   20.8493 O   0  0  0  0  0  0  0  0  0  0  0  0
    9.9277  -16.1051   21.8106 N   0  0  0  0  0  0  0  0  0  0  0  0
   11.1065  -16.2896   22.6173 C   0  0  0  0  0  0  0  0  0  0  0  0
   10.8546  -16.1736   24.0648 C   0  0  0  0  0  0  0  0  0  0  0  0
   11.8646  -16.1280   24.8580 O   0  0  0  0  0  0  0  0  0  0  0  0
    7.2032  -10.9691   26.1371 C   0  0  0  0  0  0  0  0  0  0  0  0
    7.0170  -12.7102   26.4430 S   0  0  0  0  0  0  0  0  0  0  0  0
    8.4116  -13.7410   26.1958 C   0  0  0  0  0  0  0  0  0  0  0  0
    8.4223  -15.1659   26.4361 C   0  0  0  0  0  0  0  0  0  0  0  0
    9.5273  -16.1093   26.1822 C   0  0  2  0  0  0  0  0  0  0  0  0
    9.5981  -16.1081   24.6602 N   0  0  0  0  0  0  0  0  0  0  0  0
    9.2465  -17.5470   26.5071 C   0  0  0  0  0  0  0  0  0  0  0  0
    8.8627  -18.3492   25.6877 O   0  0  0  0  0  0  0  0  0  0  0  0
    9.4302  -18.0178   27.8308 O   0  0  0  0  0  0  0  0  0  0  0  0
  2  1  1  6
  3  2  1  0
  4  2  1  0
  4  5  1  1
  6  8  1  0
  6  4  1  0
  7  6  2  0
  9 10  1  0
  9  8  1  0
 10 17  1  0
 11 10  2  0
 12 13  1  0
 13 14  1  0
 15 14  1  0
 16 15  1  6
 17 16  1  0
 18 16  1  0
 18 20  1  0
 19 18  2  0
M  END
$$$$
