VGM.pdb
     RDKit          3D

 20 19  0  0  1  0  0  0  0  0999 V2000
    3.5916  -18.7403   20.4206 C   0  0  0  0  0  0  0  0  0  0  0  0
    4.6875  -17.7381   20.6543 C   0  0  1  0  0  0  0  0  0  0  0  0
    4.1353  -16.3708   20.9926 C   0  0  0  0  0  0  0  0  0  0  0  0
    5.5731  -18.2683   21.7605 C   0  0  2  0  0  0  0  0  0  0  0  0
    4.8203  -18.5322   22.9619 N   0  0  0  0  0  0  0  0  0  0  0  0
    6.6743  -17.3368   22.0851 C   0  0  0  0  0  0  0  0  0  0  0  0
    6.5240  -16.4326   22.9371 O   0  0  0  0  0  0  0  0  0  0  0  0
    7.9503  -17.4292   21.4419 N   0  0  0  0  0  0  0  0  0  0  0  0
    8.9966  -16.4709   21.6897 C   0  0  0  0  0  0  0  0  0  0  0  0
    8.9234  -15.8499   23.0243 C   0  0  0  0  0  0  0  0  0  0  0  0
    9.0106  -14.5705   23.1073 O   0  0  0  0  0  0  0  0  0  0  0  0
    6.1224  -11.1653   26.0904 C   0  0  0  0  0  0  0  0  0  0  0  0
    6.2415  -12.9299   26.2682 S   0  0  0  0  0  0  0  0  0  0  0  0
    7.7448  -13.7019   25.8075 C   0  0  0  0  0  0  0  0  0  0  0  0
    7.9927  -15.1223   25.9046 C   0  0  0  0  0  0  0  0  0  0  0  0
    9.2135  -15.8483   25.5072 C   0  0  2  0  0  0  0  0  0  0  0  0
    8.7657  -16.5375   24.2242 N   0  0  0  0  0  0  0  0  0  0  0  0
    9.6067  -16.9969   26.3890 C   0  0  0  0  0  0  0  0  0  0  0  0
    9.2021  -18.1250   26.2284 O   0  0  0  0  0  0  0  0  0  0  0  0
   10.4942  -16.7803   27.4722 O   0  0  0  0  0  0  0  0  0  0  0  0
  2  1  1  1
  3  2  1  0
  4  2  1  0
  4  5  1  1
  6  8  1  0
  6  4  1  0
  7  6  2  0
  9 10  1  0
  9  8  1  0
 10 17  1  0
 11 10  2  0
 12 13  1  0
 13 14  1  0
 15 14  1  0
 16 15  1  1
 17 16  1  0
 18 16  1  0
 18 20  1  0
 19 18  2  0
M  END
$$$$
