VGM.pdb
     RDKit          3D

 20 19  0  0  1  0  0  0  0  0999 V2000
    7.3478  -14.0191   18.1201 C   0  0  0  0  0  0  0  0  0  0  0  0
    8.1802  -13.8068   19.3539 C   0  0  1  0  0  0  0  0  0  0  0  0
    7.9238  -12.4527   19.9781 C   0  0  0  0  0  0  0  0  0  0  0  0
    7.8734  -14.9302   20.3198 C   0  0  2  0  0  0  0  0  0  0  0  0
    6.4605  -15.0240   20.5925 N   0  0  0  0  0  0  0  0  0  0  0  0
    8.5950  -14.7742   21.6006 C   0  0  0  0  0  0  0  0  0  0  0  0
    8.1181  -14.0844   22.5295 O   0  0  0  0  0  0  0  0  0  0  0  0
    9.8617  -15.4012   21.8302 N   0  0  0  0  0  0  0  0  0  0  0  0
   10.7020  -15.0311   22.9399 C   0  0  0  0  0  0  0  0  0  0  0  0
   10.2423  -15.5691   24.2327 C   0  0  0  0  0  0  0  0  0  0  0  0
   11.1236  -15.8478   25.1255 O   0  0  0  0  0  0  0  0  0  0  0  0
    6.6012  -11.1727   26.5987 C   0  0  0  0  0  0  0  0  0  0  0  0
    6.5848  -12.7970   25.8768 S   0  0  0  0  0  0  0  0  0  0  0  0
    7.3227  -14.1042   26.7797 C   0  0  0  0  0  0  0  0  0  0  0  0
    7.4001  -15.4705   26.3158 C   0  0  0  0  0  0  0  0  0  0  0  0
    8.6170  -16.2450   26.0078 C   0  0  2  0  0  0  0  0  0  0  0  0
    8.9153  -15.8066   24.5793 N   0  0  0  0  0  0  0  0  0  0  0  0
    8.4315  -17.7280   25.8752 C   0  0  0  0  0  0  0  0  0  0  0  0
    8.2600  -18.4620   26.8207 O   0  0  0  0  0  0  0  0  0  0  0  0
    8.4538  -18.3276   24.5916 O   0  0  0  0  0  0  0  0  0  0  0  0
  2  1  1  6
  3  2  1  0
  4  2  1  0
  4  5  1  1
  6  8  1  0
  6  4  1  0
  7  6  2  0
  9 10  1  0
  9  8  1  0
 10 17  1  0
 11 10  2  0
 12 13  1  0
 13 14  1  0
 15 14  1  0
 16 15  1  6
 17 16  1  0
 18 16  1  0
 18 20  1  0
 19 18  2  0
M  END
$$$$
