VGM.pdb
     RDKit          3D

 20 19  0  0  1  0  0  0  0  0999 V2000
   10.4836  -18.5672   20.2635 C   0  0  0  0  0  0  0  0  0  0  0  0
    9.5800  -18.7296   19.0730 C   0  0  1  0  0  0  0  0  0  0  0  0
   10.0875  -19.7926   18.1237 C   0  0  0  0  0  0  0  0  0  0  0  0
    8.1940  -19.0572   19.5836 C   0  0  2  0  0  0  0  0  0  0  0  0
    7.3045  -19.4193   18.5078 N   0  0  0  0  0  0  0  0  0  0  0  0
    7.5980  -17.9316   20.3342 C   0  0  0  0  0  0  0  0  0  0  0  0
    7.6935  -16.7558   19.9166 O   0  0  0  0  0  0  0  0  0  0  0  0
    6.8919  -18.1382   21.5626 N   0  0  0  0  0  0  0  0  0  0  0  0
    6.3604  -17.0392   22.3269 C   0  0  0  0  0  0  0  0  0  0  0  0
    7.3961  -16.2250   22.9876 C   0  0  0  0  0  0  0  0  0  0  0  0
    8.2166  -15.5662   22.2500 O   0  0  0  0  0  0  0  0  0  0  0  0
    5.3875  -11.8387   26.9648 C   0  0  0  0  0  0  0  0  0  0  0  0
    6.9595  -11.4115   26.2535 S   0  0  0  0  0  0  0  0  0  0  0  0
    8.0727  -12.7117   25.8812 C   0  0  0  0  0  0  0  0  0  0  0  0
    7.6919  -13.9499   25.2409 C   0  0  0  0  0  0  0  0  0  0  0  0
    8.5711  -15.0749   24.8706 C   0  0  2  0  0  0  0  0  0  0  0  0
    7.5681  -16.1038   24.3635 N   0  0  0  0  0  0  0  0  0  0  0  0
    9.2380  -15.7858   26.0113 C   0  0  0  0  0  0  0  0  0  0  0  0
    8.7022  -16.6603   26.6518 O   0  0  0  0  0  0  0  0  0  0  0  0
   10.5608  -15.4369   26.3805 O   0  0  0  0  0  0  0  0  0  0  0  0
  2  1  1  1
  3  2  1  0
  4  2  1  0
  4  5  1  6
  6  8  1  0
  6  4  1  0
  7  6  2  0
  9 10  1  0
  9  8  1  0
 10 17  1  0
 11 10  2  0
 12 13  1  0
 13 14  1  0
 15 14  1  0
 16 15  1  1
 17 16  1  0
 18 16  1  0
 18 20  1  0
 19 18  2  0
M  END
$$$$
