VGM.pdb
     RDKit          3D

 20 19  0  0  1  0  0  0  0  0999 V2000
    7.5953  -12.4820   18.6514 C   0  0  0  0  0  0  0  0  0  0  0  0
    8.2280  -13.1759   19.8255 C   0  0  1  0  0  0  0  0  0  0  0  0
    7.3986  -13.0238   21.0815 C   0  0  0  0  0  0  0  0  0  0  0  0
    8.4170  -14.6313   19.4579 C   0  0  2  0  0  0  0  0  0  0  0  0
    7.1529  -15.3092   19.3098 N   0  0  0  0  0  0  0  0  0  0  0  0
    9.2301  -15.3557   20.4578 C   0  0  0  0  0  0  0  0  0  0  0  0
   10.4391  -15.0806   20.6273 O   0  0  0  0  0  0  0  0  0  0  0  0
    8.6721  -16.3959   21.2683 N   0  0  0  0  0  0  0  0  0  0  0  0
    9.4686  -17.1263   22.2205 C   0  0  0  0  0  0  0  0  0  0  0  0
    9.6801  -16.4054   23.4885 C   0  0  0  0  0  0  0  0  0  0  0  0
   10.7019  -15.6324   23.5876 O   0  0  0  0  0  0  0  0  0  0  0  0
    6.3335  -11.0557   26.1473 C   0  0  0  0  0  0  0  0  0  0  0  0
    6.4939  -12.7649   26.6084 S   0  0  0  0  0  0  0  0  0  0  0  0
    7.8387  -13.6711   25.9462 C   0  0  0  0  0  0  0  0  0  0  0  0
    8.1422  -15.0420   26.2877 C   0  0  0  0  0  0  0  0  0  0  0  0
    9.3308  -15.8218   25.8941 C   0  0  2  0  0  0  0  0  0  0  0  0
    8.8575  -16.4884   24.6082 N   0  0  0  0  0  0  0  0  0  0  0  0
    9.6683  -16.9880   26.7757 C   0  0  0  0  0  0  0  0  0  0  0  0
   10.3119  -16.8849   27.7942 O   0  0  0  0  0  0  0  0  0  0  0  0
    9.2257  -18.2872   26.4237 O   0  0  0  0  0  0  0  0  0  0  0  0
  2  1  1  6
  3  2  1  0
  4  2  1  0
  4  5  1  1
  6  8  1  0
  6  4  1  0
  7  6  2  0
  9 10  1  0
  9  8  1  0
 10 17  1  0
 11 10  2  0
 12 13  1  0
 13 14  1  0
 15 14  1  0
 16 15  1  1
 17 16  1  0
 18 16  1  0
 18 20  1  0
 19 18  2  0
M  END
$$$$
