VGM.pdb
     RDKit          3D

 20 19  0  0  1  0  0  0  0  0999 V2000
    5.9362  -19.0095   24.3313 C   0  0  0  0  0  0  0  0  0  0  0  0
    7.0159  -19.9213   23.8184 C   0  0  1  0  0  0  0  0  0  0  0  0
    6.7776  -21.3587   24.2257 C   0  0  0  0  0  0  0  0  0  0  0  0
    7.0726  -19.7729   22.3137 C   0  0  2  0  0  0  0  0  0  0  0  0
    7.8476  -20.8262   21.7059 N   0  0  0  0  0  0  0  0  0  0  0  0
    7.6393  -18.4700   21.9051 C   0  0  0  0  0  0  0  0  0  0  0  0
    8.8757  -18.3100   21.7970 O   0  0  0  0  0  0  0  0  0  0  0  0
    6.8025  -17.3439   21.6183 N   0  0  0  0  0  0  0  0  0  0  0  0
    7.3490  -16.0799   21.1963 C   0  0  0  0  0  0  0  0  0  0  0  0
    7.9812  -15.3171   22.2873 C   0  0  0  0  0  0  0  0  0  0  0  0
    8.5599  -14.2063   21.9994 O   0  0  0  0  0  0  0  0  0  0  0  0
    6.9560  -10.9131   27.2458 C   0  0  0  0  0  0  0  0  0  0  0  0
    5.9991  -12.1635   26.4209 S   0  0  0  0  0  0  0  0  0  0  0  0
    6.7843  -13.1075   25.1717 C   0  0  0  0  0  0  0  0  0  0  0  0
    7.5912  -14.2794   25.4242 C   0  0  0  0  0  0  0  0  0  0  0  0
    8.7174  -14.7834   24.6160 C   0  0  2  0  0  0  0  0  0  0  0  0
    8.0083  -15.6989   23.6256 N   0  0  0  0  0  0  0  0  0  0  0  0
    9.6620  -15.7127   25.3197 C   0  0  0  0  0  0  0  0  0  0  0  0
    9.3972  -16.8668   25.5652 O   0  0  0  0  0  0  0  0  0  0  0  0
   10.9348  -15.2440   25.7297 O   0  0  0  0  0  0  0  0  0  0  0  0
  2  1  1  6
  3  2  1  0
  4  2  1  0
  4  5  1  6
  6  8  1  0
  6  4  1  0
  7  6  2  0
  9 10  1  0
  9  8  1  0
 10 17  1  0
 11 10  2  0
 12 13  1  0
 13 14  1  0
 15 14  1  0
 16 15  1  1
 17 16  1  0
 18 16  1  0
 18 20  1  0
 19 18  2  0
M  END
$$$$
