VGM.pdb
     RDKit          3D

 20 19  0  0  1  0  0  0  0  0999 V2000
    9.2741  -12.1448   18.2200 C   0  0  0  0  0  0  0  0  0  0  0  0
    8.5823  -12.9977   19.2467 C   0  0  1  0  0  0  0  0  0  0  0  0
    7.0949  -12.7252   19.2932 C   0  0  0  0  0  0  0  0  0  0  0  0
    8.8712  -14.4460   18.9179 C   0  0  2  0  0  0  0  0  0  0  0  0
    8.4316  -14.7855   17.5872 N   0  0  0  0  0  0  0  0  0  0  0  0
    8.2345  -15.3715   19.8791 C   0  0  0  0  0  0  0  0  0  0  0  0
    7.3118  -16.1376   19.5218 O   0  0  0  0  0  0  0  0  0  0  0  0
    8.6439  -15.4291   21.2500 N   0  0  0  0  0  0  0  0  0  0  0  0
    8.0554  -16.3584   22.1797 C   0  0  0  0  0  0  0  0  0  0  0  0
    8.6620  -16.3136   23.5221 C   0  0  0  0  0  0  0  0  0  0  0  0
    9.9349  -16.4599   23.6214 O   0  0  0  0  0  0  0  0  0  0  0  0
    7.0177  -11.4008   27.6377 C   0  0  0  0  0  0  0  0  0  0  0  0
    5.9649  -12.6811   26.9957 S   0  0  0  0  0  0  0  0  0  0  0  0
    6.6898  -14.2328   26.6282 C   0  0  0  0  0  0  0  0  0  0  0  0
    8.0840  -14.4212   26.2982 C   0  0  0  0  0  0  0  0  0  0  0  0
    8.7575  -15.6835   25.9393 C   0  0  2  0  0  0  0  0  0  0  0  0
    7.9673  -16.1237   24.7131 N   0  0  0  0  0  0  0  0  0  0  0  0
    8.5617  -16.8231   26.8955 C   0  0  0  0  0  0  0  0  0  0  0  0
    9.1201  -16.8943   27.9656 O   0  0  0  0  0  0  0  0  0  0  0  0
    7.6857  -17.8838   26.5556 O   0  0  0  0  0  0  0  0  0  0  0  0
  2  1  1  6
  3  2  1  0
  4  2  1  0
  4  5  1  6
  6  8  1  0
  6  4  1  0
  7  6  2  0
  9 10  1  0
  9  8  1  0
 10 17  1  0
 11 10  2  0
 12 13  1  0
 13 14  1  0
 15 14  1  0
 16 15  1  1
 17 16  1  0
 18 16  1  0
 18 20  1  0
 19 18  2  0
M  END
$$$$
