VGM.pdb
     RDKit          3D

 20 19  0  0  1  0  0  0  0  0999 V2000
    6.6283  -13.5628   19.5799 C   0  0  0  0  0  0  0  0  0  0  0  0
    7.7461  -13.7448   20.5687 C   0  0  1  0  0  0  0  0  0  0  0  0
    7.2322  -13.8206   21.9896 C   0  0  0  0  0  0  0  0  0  0  0  0
    8.5055  -14.9961   20.1856 C   0  0  2  0  0  0  0  0  0  0  0  0
    7.6927  -16.1773   20.3386 N   0  0  0  0  0  0  0  0  0  0  0  0
    9.7399  -15.1624   20.9820 C   0  0  0  0  0  0  0  0  0  0  0  0
   10.6441  -14.2976   20.9580 O   0  0  0  0  0  0  0  0  0  0  0  0
    9.9513  -16.3126   21.8082 N   0  0  0  0  0  0  0  0  0  0  0  0
   11.1313  -16.4567   22.6214 C   0  0  0  0  0  0  0  0  0  0  0  0
   10.8792  -16.2812   24.0628 C   0  0  0  0  0  0  0  0  0  0  0  0
   11.8891  -16.2060   24.8540 O   0  0  0  0  0  0  0  0  0  0  0  0
    6.9462  -11.0741   26.3263 C   0  0  0  0  0  0  0  0  0  0  0  0
    6.8802  -12.8243   26.6297 S   0  0  0  0  0  0  0  0  0  0  0  0
    8.2528  -13.7951   26.1384 C   0  0  0  0  0  0  0  0  0  0  0  0
    8.3607  -15.2197   26.3556 C   0  0  0  0  0  0  0  0  0  0  0  0
    9.5542  -16.0666   26.1718 C   0  0  2  0  0  0  0  0  0  0  0  0
    9.6227  -16.1880   24.6544 N   0  0  0  0  0  0  0  0  0  0  0  0
    9.4190  -17.4921   26.6198 C   0  0  0  0  0  0  0  0  0  0  0  0
    9.5563  -17.8418   27.7692 O   0  0  0  0  0  0  0  0  0  0  0  0
    9.1163  -18.5015   25.6725 O   0  0  0  0  0  0  0  0  0  0  0  0
  2  1  1  6
  3  2  1  0
  4  2  1  0
  4  5  1  1
  6  8  1  0
  6  4  1  0
  7  6  2  0
  9 10  1  0
  9  8  1  0
 10 17  1  0
 11 10  2  0
 12 13  1  0
 13 14  1  0
 15 14  1  0
 16 15  1  6
 17 16  1  0
 18 16  1  0
 18 20  1  0
 19 18  2  0
M  END
$$$$
