VGM.pdb
     RDKit          3D

 20 19  0  0  1  0  0  0  0  0999 V2000
    7.7907  -12.4584   18.9716 C   0  0  0  0  0  0  0  0  0  0  0  0
    8.2603  -13.2672   20.1487 C   0  0  1  0  0  0  0  0  0  0  0  0
    7.5229  -12.8947   21.4161 C   0  0  0  0  0  0  0  0  0  0  0  0
    8.0769  -14.7302   19.8094 C   0  0  2  0  0  0  0  0  0  0  0  0
    6.7234  -15.0142   19.4012 N   0  0  0  0  0  0  0  0  0  0  0  0
    8.4256  -15.6115   20.9441 C   0  0  0  0  0  0  0  0  0  0  0  0
    7.5366  -16.1092   21.6708 O   0  0  0  0  0  0  0  0  0  0  0  0
    9.7861  -15.9297   21.2574 N   0  0  0  0  0  0  0  0  0  0  0  0
   10.1292  -16.8043   22.3491 C   0  0  0  0  0  0  0  0  0  0  0  0
   10.0406  -16.1594   23.6714 C   0  0  0  0  0  0  0  0  0  0  0  0
   11.1327  -15.8867   24.2915 O   0  0  0  0  0  0  0  0  0  0  0  0
    6.9606  -11.7618   27.7520 C   0  0  0  0  0  0  0  0  0  0  0  0
    6.3447  -12.1986   26.1428 S   0  0  0  0  0  0  0  0  0  0  0  0
    7.1063  -13.5367   25.3075 C   0  0  0  0  0  0  0  0  0  0  0  0
    7.6282  -14.7137   25.9636 C   0  0  0  0  0  0  0  0  0  0  0  0
    8.9493  -15.3388   25.7655 C   0  0  2  0  0  0  0  0  0  0  0  0
    8.8589  -15.8133   24.3204 N   0  0  0  0  0  0  0  0  0  0  0  0
    9.1910  -16.6101   26.5248 C   0  0  0  0  0  0  0  0  0  0  0  0
    8.8516  -17.6983   26.1213 O   0  0  0  0  0  0  0  0  0  0  0  0
    9.8466  -16.5658   27.7802 O   0  0  0  0  0  0  0  0  0  0  0  0
  2  1  1  6
  3  2  1  0
  4  2  1  0
  4  5  1  1
  6  8  1  0
  6  4  1  0
  7  6  2  0
  9 10  1  0
  9  8  1  0
 10 17  1  0
 11 10  2  0
 12 13  1  0
 13 14  1  0
 15 14  1  0
 16 15  1  1
 17 16  1  0
 18 16  1  0
 18 20  1  0
 19 18  2  0
M  END
$$$$
