VGM.pdb
     RDKit          3D

 20 19  0  0  1  0  0  0  0  0999 V2000
    8.7128  -12.3747   18.2172 C   0  0  0  0  0  0  0  0  0  0  0  0
    8.5723  -13.1216   19.5145 C   0  0  1  0  0  0  0  0  0  0  0  0
    7.3380  -12.6942   20.2777 C   0  0  0  0  0  0  0  0  0  0  0  0
    8.5446  -14.6008   19.1978 C   0  0  2  0  0  0  0  0  0  0  0  0
    7.5997  -14.9012   18.1507 N   0  0  0  0  0  0  0  0  0  0  0  0
    8.2134  -15.4169   20.3851 C   0  0  0  0  0  0  0  0  0  0  0  0
    7.0308  -15.5342   20.7773 O   0  0  0  0  0  0  0  0  0  0  0  0
    9.2251  -16.1022   21.1314 N   0  0  0  0  0  0  0  0  0  0  0  0
    8.9280  -16.7838   22.3650 C   0  0  0  0  0  0  0  0  0  0  0  0
    9.4715  -16.1090   23.5572 C   0  0  0  0  0  0  0  0  0  0  0  0
   10.5828  -15.4735   23.4449 O   0  0  0  0  0  0  0  0  0  0  0  0
    5.5648  -11.9606   26.4050 C   0  0  0  0  0  0  0  0  0  0  0  0
    7.2446  -12.3996   26.7861 S   0  0  0  0  0  0  0  0  0  0  0  0
    7.8281  -13.9603   26.2460 C   0  0  0  0  0  0  0  0  0  0  0  0
    9.1920  -14.4143   26.3942 C   0  0  0  0  0  0  0  0  0  0  0  0
    9.7463  -15.7267   26.0123 C   0  0  2  0  0  0  0  0  0  0  0  0
    8.8785  -16.0984   24.8164 N   0  0  0  0  0  0  0  0  0  0  0  0
    9.4931  -16.8484   26.9762 C   0  0  0  0  0  0  0  0  0  0  0  0
    8.6702  -17.7136   26.7853 O   0  0  0  0  0  0  0  0  0  0  0  0
   10.2388  -16.9243   28.1786 O   0  0  0  0  0  0  0  0  0  0  0  0
  2  1  1  6
  3  2  1  0
  4  2  1  0
  4  5  1  6
  6  8  1  0
  6  4  1  0
  7  6  2  0
  9 10  1  0
  9  8  1  0
 10 17  1  0
 11 10  2  0
 12 13  1  0
 13 14  1  0
 15 14  1  0
 16 15  1  1
 17 16  1  0
 18 16  1  0
 18 20  1  0
 19 18  2  0
M  END
$$$$
