VGM.pdb
     RDKit          3D

 20 19  0  0  1  0  0  0  0  0999 V2000
    9.0755  -12.7155   20.3534 C   0  0  0  0  0  0  0  0  0  0  0  0
    7.9500  -13.2185   19.4928 C   0  0  1  0  0  0  0  0  0  0  0  0
    7.8187  -12.4181   18.2157 C   0  0  0  0  0  0  0  0  0  0  0  0
    8.2030  -14.6825   19.2067 C   0  0  2  0  0  0  0  0  0  0  0  0
    7.2880  -15.1952   18.2171 N   0  0  0  0  0  0  0  0  0  0  0  0
    8.0986  -15.5127   20.4256 C   0  0  0  0  0  0  0  0  0  0  0  0
    7.0031  -15.6625   21.0117 O   0  0  0  0  0  0  0  0  0  0  0  0
    9.2391  -16.1752   20.9830 N   0  0  0  0  0  0  0  0  0  0  0  0
    9.1538  -16.9369   22.2024 C   0  0  0  0  0  0  0  0  0  0  0  0
    9.3527  -16.1278   23.4181 C   0  0  0  0  0  0  0  0  0  0  0  0
   10.1552  -15.1258   23.3595 O   0  0  0  0  0  0  0  0  0  0  0  0
    6.0792  -10.8857   26.8980 C   0  0  0  0  0  0  0  0  0  0  0  0
    6.1291  -12.6392   26.6111 S   0  0  0  0  0  0  0  0  0  0  0  0
    7.6951  -13.3889   26.3791 C   0  0  0  0  0  0  0  0  0  0  0  0
    7.8954  -14.8037   26.1639 C   0  0  0  0  0  0  0  0  0  0  0  0
    9.1572  -15.4893   25.8271 C   0  0  2  0  0  0  0  0  0  0  0  0
    8.7383  -16.3561   24.6460 N   0  0  0  0  0  0  0  0  0  0  0  0
    9.6421  -16.4947   26.8298 C   0  0  0  0  0  0  0  0  0  0  0  0
   10.3139  -16.2012   27.7914 O   0  0  0  0  0  0  0  0  0  0  0  0
    9.3134  -17.8635   26.6688 O   0  0  0  0  0  0  0  0  0  0  0  0
  2  1  1  1
  3  2  1  0
  4  2  1  0
  4  5  1  6
  6  8  1  0
  6  4  1  0
  7  6  2  0
  9 10  1  0
  9  8  1  0
 10 17  1  0
 11 10  2  0
 12 13  1  0
 13 14  1  0
 15 14  1  0
 16 15  1  1
 17 16  1  0
 18 16  1  0
 18 20  1  0
 19 18  2  0
M  END
$$$$
