VGM.pdb
     RDKit          3D

 20 19  0  0  1  0  0  0  0  0999 V2000
    2.7657  -18.8364   21.4034 C   0  0  0  0  0  0  0  0  0  0  0  0
    3.8705  -17.8186   21.4630 C   0  0  1  0  0  0  0  0  0  0  0  0
    4.0645  -17.2816   22.8640 C   0  0  0  0  0  0  0  0  0  0  0  0
    5.1312  -18.4708   20.9391 C   0  0  2  0  0  0  0  0  0  0  0  0
    5.6042  -19.5018   21.8295 N   0  0  0  0  0  0  0  0  0  0  0  0
    6.2174  -17.4903   20.7281 C   0  0  0  0  0  0  0  0  0  0  0  0
    6.1077  -16.5799   19.8766 O   0  0  0  0  0  0  0  0  0  0  0  0
    7.4326  -17.5415   21.4838 N   0  0  0  0  0  0  0  0  0  0  0  0
    8.3986  -16.4741   21.4412 C   0  0  0  0  0  0  0  0  0  0  0  0
    8.7249  -15.9210   22.7678 C   0  0  0  0  0  0  0  0  0  0  0  0
    9.6456  -15.0279   22.8466 O   0  0  0  0  0  0  0  0  0  0  0  0
    6.1371  -11.0297   26.4702 C   0  0  0  0  0  0  0  0  0  0  0  0
    6.0843  -12.8035   26.3671 S   0  0  0  0  0  0  0  0  0  0  0  0
    7.5815  -13.6518   26.0403 C   0  0  0  0  0  0  0  0  0  0  0  0
    7.6924  -15.0872   25.9159 C   0  0  0  0  0  0  0  0  0  0  0  0
    8.7750  -15.8497   25.2661 C   0  0  2  0  0  0  0  0  0  0  0  0
    8.1144  -16.2860   23.9642 N   0  0  0  0  0  0  0  0  0  0  0  0
    9.1369  -17.1529   25.9155 C   0  0  0  0  0  0  0  0  0  0  0  0
    9.8019  -17.2299   26.9226 O   0  0  0  0  0  0  0  0  0  0  0  0
    8.6928  -18.3710   25.3438 O   0  0  0  0  0  0  0  0  0  0  0  0
  2  1  1  1
  3  2  1  0
  4  2  1  0
  4  5  1  1
  6  8  1  0
  6  4  1  0
  7  6  2  0
  9 10  1  0
  9  8  1  0
 10 17  1  0
 11 10  2  0
 12 13  1  0
 13 14  1  0
 15 14  1  0
 16 15  1  1
 17 16  1  0
 18 16  1  0
 18 20  1  0
 19 18  2  0
M  END
$$$$
