VGM.pdb
     RDKit          3D

 20 19  0  0  1  0  0  0  0  0999 V2000
    8.0782  -12.2176   17.8882 C   0  0  0  0  0  0  0  0  0  0  0  0
    7.6766  -13.2369   18.9179 C   0  0  1  0  0  0  0  0  0  0  0  0
    6.9065  -14.3841   18.3019 C   0  0  0  0  0  0  0  0  0  0  0  0
    8.9336  -13.7194   19.6082 C   0  0  2  0  0  0  0  0  0  0  0  0
    9.7438  -14.5271   18.7304 N   0  0  0  0  0  0  0  0  0  0  0  0
    8.6331  -14.4985   20.8281 C   0  0  0  0  0  0  0  0  0  0  0  0
    8.0742  -13.9651   21.8126 O   0  0  0  0  0  0  0  0  0  0  0  0
    8.9673  -15.8869   20.9338 N   0  0  0  0  0  0  0  0  0  0  0  0
    8.6252  -16.6637   22.0974 C   0  0  0  0  0  0  0  0  0  0  0  0
    9.4843  -16.3892   23.2631 C   0  0  0  0  0  0  0  0  0  0  0  0
   10.4459  -15.5476   23.1275 O   0  0  0  0  0  0  0  0  0  0  0  0
   10.6006  -13.0148   29.5113 C   0  0  0  0  0  0  0  0  0  0  0  0
   10.5781  -13.9492   27.9994 S   0  0  0  0  0  0  0  0  0  0  0  0
    9.3027  -15.1302   27.7831 C   0  0  0  0  0  0  0  0  0  0  0  0
    9.1255  -15.9265   26.5903 C   0  0  0  0  0  0  0  0  0  0  0  0
   10.1723  -16.4021   25.6664 C   0  0  2  0  0  0  0  0  0  0  0  0
    9.3450  -16.9706   24.5201 N   0  0  0  0  0  0  0  0  0  0  0  0
   10.9653  -17.5876   26.1322 C   0  0  0  0  0  0  0  0  0  0  0  0
   10.5349  -18.7176   26.1250 O   0  0  0  0  0  0  0  0  0  0  0  0
   12.2867  -17.4060   26.6102 O   0  0  0  0  0  0  0  0  0  0  0  0
  2  1  1  6
  3  2  1  0
  4  2  1  0
  4  5  1  6
  6  8  1  0
  6  4  1  0
  7  6  2  0
  9 10  1  0
  9  8  1  0
 10 17  1  0
 11 10  2  0
 12 13  1  0
 13 14  1  0
 15 14  1  0
 16 15  1  1
 17 16  1  0
 18 16  1  0
 18 20  1  0
 19 18  2  0
M  END
$$$$
