YTS.pdb
     RDKit          3D

 26 26  0  0  1  0  0  0  0  0999 V2000
   28.3931  -18.8547   -3.3363 O   0  0  0  0  0  0  0  0  0  0  0  0
   28.2253  -19.3586   -4.6131 C   0  0  0  0  0  0  0  0  0  0  0  0
   28.3405  -20.7069   -4.9131 C   0  0  0  0  0  0  0  0  0  0  0  0
   28.1694  -21.1879   -6.1915 C   0  0  0  0  0  0  0  0  0  0  0  0
   27.8731  -20.3394   -7.2391 C   0  0  0  0  0  0  0  0  0  0  0  0
   27.6887  -20.8156   -8.6272 C   0  0  0  0  0  0  0  0  0  0  0  0
   26.2777  -20.6381   -9.1332 C   0  0  2  0  0  0  0  0  0  0  0  0
   25.3320  -21.3479   -8.2877 N   0  0  0  0  0  0  0  0  0  0  0  0
   26.0748  -21.0709  -10.5208 C   0  0  0  0  0  0  0  0  0  0  0  0
   26.3454  -22.2536  -10.9198 O   0  0  0  0  0  0  0  0  0  0  0  0
   27.7578  -18.9997   -6.9471 C   0  0  0  0  0  0  0  0  0  0  0  0
   27.9310  -18.5089   -5.6493 C   0  0  0  0  0  0  0  0  0  0  0  0
   24.8247  -22.9351  -12.0765 C   0  0  0  0  0  0  0  0  0  0  0  0
   24.2784  -21.7522  -12.8470 C   0  0  1  0  0  0  0  0  0  0  0  0
   23.1360  -21.3586  -12.1008 O   0  0  0  0  0  0  0  0  0  0  0  0
   25.2951  -20.6520  -12.8450 C   0  0  2  0  0  0  0  0  0  0  0  0
   25.5678  -20.1951  -11.4863 N   0  0  0  0  0  0  0  0  0  0  0  0
   24.8477  -19.4930  -13.6118 C   0  0  0  0  0  0  0  0  0  0  0  0
   24.0971  -18.6287  -13.0147 O   0  0  0  0  0  0  0  0  0  0  0  0
   26.8257  -17.3773  -16.1352 O   0  0  0  0  0  0  0  0  0  0  0  0
   25.5335  -17.4664  -16.6693 C   0  0  0  0  0  0  0  0  0  0  0  0
   24.6349  -17.9440  -15.5486 C   0  0  2  0  0  0  0  0  0  0  0  0
   25.1299  -19.1728  -14.9518 N   0  0  0  0  0  0  0  0  0  0  0  0
   23.3084  -18.2234  -16.1372 C   0  0  0  0  0  0  0  0  0  0  0  0
   22.3734  -17.2113  -16.2354 O   0  0  0  0  0  0  0  0  0  0  0  0
   22.9825  -19.3587  -16.5613 O   0  0  0  0  0  0  0  0  0  0  0  0
  2  1  1  0
  2  3  2  0
  4  3  1  0
  5  4  2  0
  6  5  1  0
  7  6  1  0
  7  9  1  0
  7  8  1  1
  9 10  2  0
  9 17  1  0
 11 12  2  0
 11  5  1  0
 12  2  1  0
 14 13  1  1
 14 15  1  0
 16 14  1  0
 16 17  1  1
 18 16  1  0
 18 19  2  0
 20 21  1  0
 22 21  1  6
 22 23  1  0
 23 18  1  0
 24 22  1  0
 25 24  1  0
 26 24  2  0
M  END
$$$$
