YTS.pdb
     RDKit          3D

 26 26  0  0  1  0  0  0  0  0999 V2000
   28.4664  -19.3790   -3.2896 O   0  0  0  0  0  0  0  0  0  0  0  0
   28.2954  -19.6848   -4.6274 C   0  0  0  0  0  0  0  0  0  0  0  0
   27.7518  -18.7954   -5.5409 C   0  0  0  0  0  0  0  0  0  0  0  0
   27.5903  -19.1199   -6.8689 C   0  0  0  0  0  0  0  0  0  0  0  0
   27.9666  -20.3570   -7.3517 C   0  0  0  0  0  0  0  0  0  0  0  0
   27.8033  -20.7465   -8.7692 C   0  0  0  0  0  0  0  0  0  0  0  0
   26.4389  -20.4142   -9.3226 C   0  0  2  0  0  0  0  0  0  0  0  0
   25.3967  -21.0966   -8.5735 N   0  0  0  0  0  0  0  0  0  0  0  0
   26.2707  -20.7317  -10.7456 C   0  0  0  0  0  0  0  0  0  0  0  0
   27.1901  -21.2799  -11.4422 O   0  0  0  0  0  0  0  0  0  0  0  0
   28.5067  -21.2441   -6.4491 C   0  0  0  0  0  0  0  0  0  0  0  0
   28.6718  -20.9166   -5.0998 C   0  0  0  0  0  0  0  0  0  0  0  0
   24.9656  -23.2161  -12.3079 C   0  0  0  0  0  0  0  0  0  0  0  0
   24.1461  -22.1080  -12.9340 C   0  0  1  0  0  0  0  0  0  0  0  0
   22.9707  -22.0633  -12.1383 O   0  0  0  0  0  0  0  0  0  0  0  0
   24.8942  -20.8157  -12.8154 C   0  0  2  0  0  0  0  0  0  0  0  0
   25.0772  -20.4445  -11.4161 N   0  0  0  0  0  0  0  0  0  0  0  0
   24.1914  -19.7153  -13.4686 C   0  0  0  0  0  0  0  0  0  0  0  0
   23.4418  -18.9603  -12.7371 O   0  0  0  0  0  0  0  0  0  0  0  0
   25.4223  -17.1758  -16.1208 O   0  0  0  0  0  0  0  0  0  0  0  0
   24.1384  -17.5720  -16.5184 C   0  0  0  0  0  0  0  0  0  0  0  0
   23.4813  -18.1898  -15.3028 C   0  0  2  0  0  0  0  0  0  0  0  0
   24.2182  -19.3476  -14.8257 N   0  0  0  0  0  0  0  0  0  0  0  0
   22.1350  -18.6414  -15.7125 C   0  0  0  0  0  0  0  0  0  0  0  0
   21.1680  -17.7107  -16.0394 O   0  0  0  0  0  0  0  0  0  0  0  0
   21.8202  -19.8544  -15.7795 O   0  0  0  0  0  0  0  0  0  0  0  0
  2  1  1  0
  2  3  2  0
  4  3  1  0
  5  4  2  0
  6  5  1  0
  7  6  1  0
  7  9  1  0
  7  8  1  1
  9 10  2  0
  9 17  1  0
 11 12  2  0
 11  5  1  0
 12  2  1  0
 14 13  1  1
 14 15  1  0
 16 14  1  0
 16 17  1  1
 18 16  1  0
 18 19  2  0
 20 21  1  0
 22 21  1  6
 22 23  1  0
 23 18  1  0
 24 22  1  0
 25 24  1  0
 26 24  2  0
M  END
$$$$
