YTS.pdb
     RDKit          3D

 26 26  0  0  1  0  0  0  0  0999 V2000
   22.0256  -18.3538  -15.4635 O   0  0  0  0  0  0  0  0  0  0  0  0
   22.2168  -16.9843  -15.4797 C   0  0  0  0  0  0  0  0  0  0  0  0
   21.6344  -16.1525  -16.4232 C   0  0  0  0  0  0  0  0  0  0  0  0
   21.8378  -14.7911  -16.4215 C   0  0  0  0  0  0  0  0  0  0  0  0
   22.6383  -14.1906  -15.4707 C   0  0  0  0  0  0  0  0  0  0  0  0
   22.8874  -12.7331  -15.4388 C   0  0  0  0  0  0  0  0  0  0  0  0
   23.3587  -12.1824  -16.7628 C   0  0  2  0  0  0  0  0  0  0  0  0
   24.7359  -12.5681  -17.0226 N   0  0  0  0  0  0  0  0  0  0  0  0
   23.2557  -10.7231  -16.8810 C   0  0  0  0  0  0  0  0  0  0  0  0
   24.2737   -9.9541  -16.8249 O   0  0  0  0  0  0  0  0  0  0  0  0
   23.2192  -15.0117  -14.5316 C   0  0  0  0  0  0  0  0  0  0  0  0
   23.0140  -16.3947  -14.5314 C   0  0  0  0  0  0  0  0  0  0  0  0
   20.7643   -6.8285  -18.4325 C   0  0  0  0  0  0  0  0  0  0  0  0
   20.8831   -8.3320  -18.3029 C   0  0  1  0  0  0  0  0  0  0  0  0
   21.3113   -8.7514  -19.5903 O   0  0  0  0  0  0  0  0  0  0  0  0
   21.9317   -8.6565  -17.2836 C   0  0  2  0  0  0  0  0  0  0  0  0
   22.0186  -10.0964  -17.0635 N   0  0  0  0  0  0  0  0  0  0  0  0
   21.6498   -8.0358  -15.9927 C   0  0  0  0  0  0  0  0  0  0  0  0
   20.9223   -8.6941  -15.1535 O   0  0  0  0  0  0  0  0  0  0  0  0
   22.6291   -4.2750  -14.8529 O   0  0  0  0  0  0  0  0  0  0  0  0
   22.5391   -5.1393  -13.7537 C   0  0  0  0  0  0  0  0  0  0  0  0
   21.6923   -6.3136  -14.1959 C   0  0  2  0  0  0  0  0  0  0  0  0
   22.0746   -6.7824  -15.5170 N   0  0  0  0  0  0  0  0  0  0  0  0
   20.2923   -5.8452  -14.2641 C   0  0  0  0  0  0  0  0  0  0  0  0
   19.5784   -5.6417  -13.0991 O   0  0  0  0  0  0  0  0  0  0  0  0
   19.7074   -5.6185  -15.3510 O   0  0  0  0  0  0  0  0  0  0  0  0
  2  1  1  0
  2  3  2  0
  4  3  1  0
  5  4  2  0
  6  5  1  0
  7  6  1  0
  7  9  1  0
  7  8  1  1
  9 10  2  0
  9 17  1  0
 11 12  2  0
 11  5  1  0
 12  2  1  0
 14 13  1  6
 14 15  1  0
 16 14  1  0
 16 17  1  1
 18 16  1  0
 18 19  2  0
 20 21  1  0
 22 21  1  6
 22 23  1  0
 23 18  1  0
 24 22  1  0
 25 24  1  0
 26 24  2  0
M  END
$$$$
