YTS.pdb
     RDKit          3D

 26 26  0  0  1  0  0  0  0  0999 V2000
   39.6564   -6.2145   -7.1955 O   0  0  0  0  0  0  0  0  0  0  0  0
   39.1602   -6.3969   -8.4732 C   0  0  0  0  0  0  0  0  0  0  0  0
   37.9448   -7.0120   -8.7297 C   0  0  0  0  0  0  0  0  0  0  0  0
   37.4688   -7.1836  -10.0099 C   0  0  0  0  0  0  0  0  0  0  0  0
   38.1889   -6.7462  -11.1032 C   0  0  0  0  0  0  0  0  0  0  0  0
   37.7158   -6.9178  -12.4940 C   0  0  0  0  0  0  0  0  0  0  0  0
   37.7675   -8.3506  -12.9660 C   0  0  2  0  0  0  0  0  0  0  0  0
   39.1196   -8.8765  -12.8756 N   0  0  0  0  0  0  0  0  0  0  0  0
   37.2818   -8.5530  -14.3361 C   0  0  0  0  0  0  0  0  0  0  0  0
   38.0686   -8.6742  -15.3347 O   0  0  0  0  0  0  0  0  0  0  0  0
   39.3964   -6.1350  -10.8545 C   0  0  0  0  0  0  0  0  0  0  0  0
   39.8818   -5.9595   -9.5550 C   0  0  0  0  0  0  0  0  0  0  0  0
   35.9344  -11.3187  -15.5808 C   0  0  0  0  0  0  0  0  0  0  0  0
   34.8709  -10.3304  -16.0094 C   0  0  1  0  0  0  0  0  0  0  0  0
   33.8559  -10.4757  -15.0269 O   0  0  0  0  0  0  0  0  0  0  0  0
   35.4380   -8.9448  -15.9586 C   0  0  2  0  0  0  0  0  0  0  0  0
   35.9134   -8.6237  -14.6169 N   0  0  0  0  0  0  0  0  0  0  0  0
   34.4479   -7.9353  -16.3221 C   0  0  0  0  0  0  0  0  0  0  0  0
   34.2698   -6.9466  -15.5112 O   0  0  0  0  0  0  0  0  0  0  0  0
   31.0279   -5.4810  -16.6503 O   0  0  0  0  0  0  0  0  0  0  0  0
   31.8798   -6.5601  -16.3799 C   0  0  0  0  0  0  0  0  0  0  0  0
   32.6604   -6.8229  -17.6499 C   0  0  2  0  0  0  0  0  0  0  0  0
   33.6360   -7.8843  -17.4692 N   0  0  0  0  0  0  0  0  0  0  0  0
   33.3909   -5.5817  -17.9819 C   0  0  0  0  0  0  0  0  0  0  0  0
   32.7122   -4.5109  -18.5305 O   0  0  0  0  0  0  0  0  0  0  0  0
   34.6233   -5.4497  -17.7858 O   0  0  0  0  0  0  0  0  0  0  0  0
  2  1  1  0
  2  3  2  0
  4  3  1  0
  5  4  2  0
  6  5  1  0
  7  6  1  0
  7  9  1  0
  7  8  1  6
  9 10  2  0
  9 17  1  0
 11 12  2  0
 11  5  1  0
 12  2  1  0
 14 13  1  1
 14 15  1  0
 16 14  1  0
 16 17  1  1
 18 16  1  0
 18 19  2  0
 20 21  1  0
 22 21  1  1
 22 23  1  0
 23 18  1  0
 24 22  1  0
 25 24  1  0
 26 24  2  0
M  END
$$$$
