YTS.pdb
     RDKit          3D

 26 26  0  0  1  0  0  0  0  0999 V2000
   23.8170  -16.2835  -22.3551 O   0  0  0  0  0  0  0  0  0  0  0  0
   23.5811  -17.0976  -21.2624 C   0  0  0  0  0  0  0  0  0  0  0  0
   24.5734  -17.8512  -20.6551 C   0  0  0  0  0  0  0  0  0  0  0  0
   24.3173  -18.6555  -19.5677 C   0  0  0  0  0  0  0  0  0  0  0  0
   23.0489  -18.7465  -19.0308 C   0  0  0  0  0  0  0  0  0  0  0  0
   22.7316  -19.6039  -17.8682 C   0  0  0  0  0  0  0  0  0  0  0  0
   22.3591  -18.8176  -16.6348 C   0  0  2  0  0  0  0  0  0  0  0  0
   23.4727  -17.9965  -16.1891 N   0  0  0  0  0  0  0  0  0  0  0  0
   21.9094  -19.6412  -15.5064 C   0  0  0  0  0  0  0  0  0  0  0  0
   22.7079  -20.3645  -14.8206 O   0  0  0  0  0  0  0  0  0  0  0  0
   22.0599  -18.0006  -19.6298 C   0  0  0  0  0  0  0  0  0  0  0  0
   22.3177  -17.1829  -20.7343 C   0  0  0  0  0  0  0  0  0  0  0  0
   19.6448  -20.1851  -11.5231 C   0  0  0  0  0  0  0  0  0  0  0  0
   20.3277  -19.5257  -12.7023 C   0  0  1  0  0  0  0  0  0  0  0  0
   21.6979  -19.4989  -12.3302 O   0  0  0  0  0  0  0  0  0  0  0  0
   20.1441  -20.3810  -13.9183 C   0  0  2  0  0  0  0  0  0  0  0  0
   20.5646  -19.6733  -15.1231 N   0  0  0  0  0  0  0  0  0  0  0  0
   18.7498  -20.7703  -14.1073 C   0  0  0  0  0  0  0  0  0  0  0  0
   17.9342  -19.8838  -14.5720 O   0  0  0  0  0  0  0  0  0  0  0  0
   14.9439  -23.7268  -14.0639 O   0  0  0  0  0  0  0  0  0  0  0  0
   16.3287  -23.6612  -13.8610 C   0  0  0  0  0  0  0  0  0  0  0  0
   16.7189  -22.2065  -14.0125 C   0  0  2  0  0  0  0  0  0  0  0  0
   18.1500  -22.0157  -13.8488 N   0  0  0  0  0  0  0  0  0  0  0  0
   16.0317  -21.4530  -12.9429 C   0  0  0  0  0  0  0  0  0  0  0  0
   14.8832  -20.7420  -13.2323 O   0  0  0  0  0  0  0  0  0  0  0  0
   16.4487  -21.4267  -11.7595 O   0  0  0  0  0  0  0  0  0  0  0  0
  2  1  1  0
  2  3  2  0
  4  3  1  0
  5  4  2  0
  6  5  1  0
  7  6  1  0
  7  9  1  0
  7  8  1  1
  9 10  2  0
  9 17  1  0
 11 12  2  0
 11  5  1  0
 12  2  1  0
 14 13  1  1
 14 15  1  0
 16 14  1  0
 16 17  1  6
 18 16  1  0
 18 19  2  0
 20 21  1  0
 22 21  1  1
 22 23  1  0
 23 18  1  0
 24 22  1  0
 25 24  1  0
 26 24  2  0
M  END
$$$$
