YTS.pdb
     RDKit          3D

 26 26  0  0  1  0  0  0  0  0999 V2000
   23.3180  -18.4208  -14.4583 O   0  0  0  0  0  0  0  0  0  0  0  0
   23.2322  -17.0559  -14.6633 C   0  0  0  0  0  0  0  0  0  0  0  0
   22.0390  -16.4089  -14.9440 C   0  0  0  0  0  0  0  0  0  0  0  0
   21.9754  -15.0486  -15.1448 C   0  0  0  0  0  0  0  0  0  0  0  0
   23.1085  -14.2634  -15.0744 C   0  0  0  0  0  0  0  0  0  0  0  0
   23.0833  -12.8005  -15.2905 C   0  0  0  0  0  0  0  0  0  0  0  0
   22.7706  -12.4165  -16.7164 C   0  0  2  0  0  0  0  0  0  0  0  0
   23.7605  -12.9650  -17.6287 N   0  0  0  0  0  0  0  0  0  0  0  0
   22.6796  -10.9698  -16.9461 C   0  0  0  0  0  0  0  0  0  0  0  0
   23.6372  -10.2909  -17.4492 O   0  0  0  0  0  0  0  0  0  0  0  0
   24.2960  -14.9005  -14.7962 C   0  0  0  0  0  0  0  0  0  0  0  0
   24.3629  -16.2821  -14.5918 C   0  0  0  0  0  0  0  0  0  0  0  0
   20.1089   -7.1441  -18.1769 C   0  0  0  0  0  0  0  0  0  0  0  0
   20.3342   -8.6296  -17.9922 C   0  0  1  0  0  0  0  0  0  0  0  0
   20.8041   -9.0624  -19.2605 O   0  0  0  0  0  0  0  0  0  0  0  0
   21.3934   -8.8411  -16.9543 C   0  0  2  0  0  0  0  0  0  0  0  0
   21.5220  -10.2556  -16.6198 N   0  0  0  0  0  0  0  0  0  0  0  0
   21.0958   -8.1270  -15.7162 C   0  0  0  0  0  0  0  0  0  0  0  0
   20.2230   -8.6439  -14.9174 O   0  0  0  0  0  0  0  0  0  0  0  0
   22.7312   -4.6181  -14.4735 O   0  0  0  0  0  0  0  0  0  0  0  0
   22.2569   -5.4081  -13.4180 C   0  0  0  0  0  0  0  0  0  0  0  0
   21.2035   -6.3240  -14.0035 C   0  0  2  0  0  0  0  0  0  0  0  0
   21.6449   -6.9177  -15.2540 N   0  0  0  0  0  0  0  0  0  0  0  0
   20.0104   -5.4986  -14.2850 C   0  0  0  0  0  0  0  0  0  0  0  0
   19.2359   -5.0317  -13.2407 O   0  0  0  0  0  0  0  0  0  0  0  0
   19.6585   -5.1945  -15.4506 O   0  0  0  0  0  0  0  0  0  0  0  0
  2  1  1  0
  2  3  2  0
  4  3  1  0
  5  4  2  0
  6  5  1  0
  7  6  1  0
  7  9  1  0
  7  8  1  6
  9 10  2  0
  9 17  1  0
 11 12  2  0
 11  5  1  0
 12  2  1  0
 14 13  1  6
 14 15  1  0
 16 14  1  0
 16 17  1  1
 18 16  1  0
 18 19  2  0
 20 21  1  0
 22 21  1  6
 22 23  1  0
 23 18  1  0
 24 22  1  0
 25 24  1  0
 26 24  2  0
M  END
$$$$
