YTS.pdb
     RDKit          3D

 26 26  0  0  1  0  0  0  0  0999 V2000
   22.0626  -21.9929   -6.5951 O   0  0  0  0  0  0  0  0  0  0  0  0
   22.9770  -21.5121   -7.5144 C   0  0  0  0  0  0  0  0  0  0  0  0
   24.3228  -21.3498   -7.2254 C   0  0  0  0  0  0  0  0  0  0  0  0
   25.2168  -20.8694   -8.1555 C   0  0  0  0  0  0  0  0  0  0  0  0
   24.8066  -20.5255   -9.4278 C   0  0  0  0  0  0  0  0  0  0  0  0
   25.7340  -19.9996  -10.4530 C   0  0  0  0  0  0  0  0  0  0  0  0
   25.7671  -20.8365  -11.7087 C   0  0  2  0  0  0  0  0  0  0  0  0
   26.3202  -22.1533  -11.4382 N   0  0  0  0  0  0  0  0  0  0  0  0
   26.5207  -20.2353  -12.8154 C   0  0  0  0  0  0  0  0  0  0  0  0
   27.6859  -20.6350  -13.1522 O   0  0  0  0  0  0  0  0  0  0  0  0
   23.4714  -20.6844   -9.7202 C   0  0  0  0  0  0  0  0  0  0  0  0
   22.5617  -21.1722   -8.7771 C   0  0  0  0  0  0  0  0  0  0  0  0
   27.6568  -20.8746  -15.1698 C   0  0  0  0  0  0  0  0  0  0  0  0
   26.8748  -19.7253  -15.7689 C   0  0  1  0  0  0  0  0  0  0  0  0
   25.6190  -20.3022  -16.0956 O   0  0  0  0  0  0  0  0  0  0  0  0
   26.6944  -18.6596  -14.7317 C   0  0  2  0  0  0  0  0  0  0  0  0
   25.9899  -19.1802  -13.5648 N   0  0  0  0  0  0  0  0  0  0  0  0
   25.9210  -17.5296  -15.2379 C   0  0  0  0  0  0  0  0  0  0  0  0
   24.6495  -17.5209  -15.0138 O   0  0  0  0  0  0  0  0  0  0  0  0
   26.9171  -13.7917  -15.4300 O   0  0  0  0  0  0  0  0  0  0  0  0
   26.1862  -14.0498  -16.5973 C   0  0  0  0  0  0  0  0  0  0  0  0
   25.4657  -15.3623  -16.3744 C   0  0  2  0  0  0  0  0  0  0  0  0
   26.3801  -16.4112  -15.9564 N   0  0  0  0  0  0  0  0  0  0  0  0
   24.8707  -15.7623  -17.6667 C   0  0  0  0  0  0  0  0  0  0  0  0
   23.7140  -15.1504  -18.1093 O   0  0  0  0  0  0  0  0  0  0  0  0
   25.3750  -16.6492  -18.3974 O   0  0  0  0  0  0  0  0  0  0  0  0
  2  1  1  0
  2  3  2  0
  4  3  1  0
  5  4  2  0
  6  5  1  0
  7  6  1  0
  7  9  1  0
  7  8  1  1
  9 10  2  0
  9 17  1  0
 11 12  2  0
 11  5  1  0
 12  2  1  0
 14 13  1  1
 14 15  1  0
 16 14  1  0
 16 17  1  1
 18 16  1  0
 18 19  2  0
 20 21  1  0
 22 21  1  6
 22 23  1  0
 23 18  1  0
 24 22  1  0
 25 24  1  0
 26 24  2  0
M  END
$$$$
