YTS.pdb
     RDKit          3D

 26 26  0  0  1  0  0  0  0  0999 V2000
   38.0796   -6.7266  -11.5314 O   0  0  0  0  0  0  0  0  0  0  0  0
   37.0297   -6.6024  -12.4227 C   0  0  0  0  0  0  0  0  0  0  0  0
   36.4921   -5.3785  -12.7891 C   0  0  0  0  0  0  0  0  0  0  0  0
   35.4465   -5.2769  -13.6786 C   0  0  0  0  0  0  0  0  0  0  0  0
   34.8834   -6.4007  -14.2489 C   0  0  0  0  0  0  0  0  0  0  0  0
   33.7551   -6.3344  -15.2028 C   0  0  0  0  0  0  0  0  0  0  0  0
   34.1856   -6.4784  -16.6423 C   0  0  2  0  0  0  0  0  0  0  0  0
   35.1269   -5.4328  -17.0077 N   0  0  0  0  0  0  0  0  0  0  0  0
   33.0800   -6.4651  -17.6075 C   0  0  0  0  0  0  0  0  0  0  0  0
   32.9075   -5.5156  -18.4439 O   0  0  0  0  0  0  0  0  0  0  0  0
   35.4130   -7.6185  -13.8885 C   0  0  0  0  0  0  0  0  0  0  0  0
   36.4752   -7.7241  -12.9853 C   0  0  0  0  0  0  0  0  0  0  0  0
   30.7373   -8.8655  -20.8661 C   0  0  0  0  0  0  0  0  0  0  0  0
   31.7321   -8.7102  -19.7357 C   0  0  1  0  0  0  0  0  0  0  0  0
   32.9178   -8.2736  -20.3837 O   0  0  0  0  0  0  0  0  0  0  0  0
   31.2445   -7.6528  -18.7933 C   0  0  2  0  0  0  0  0  0  0  0  0
   32.1491   -7.5079  -17.6575 N   0  0  0  0  0  0  0  0  0  0  0  0
   29.9222   -7.9644  -18.2588 C   0  0  0  0  0  0  0  0  0  0  0  0
   29.8375   -8.8887  -17.3613 O   0  0  0  0  0  0  0  0  0  0  0  0
   25.1641   -7.4484  -17.6941 O   0  0  0  0  0  0  0  0  0  0  0  0
   26.2590   -7.0445  -18.4694 C   0  0  0  0  0  0  0  0  0  0  0  0
   27.4528   -7.8327  -17.9745 C   0  0  2  0  0  0  0  0  0  0  0  0
   28.6875   -7.3796  -18.5921 N   0  0  0  0  0  0  0  0  0  0  0  0
   27.2391   -9.2432  -18.3603 C   0  0  0  0  0  0  0  0  0  0  0  0
   26.8502  -10.1648  -17.4076 O   0  0  0  0  0  0  0  0  0  0  0  0
   27.3969   -9.6539  -19.5356 O   0  0  0  0  0  0  0  0  0  0  0  0
  2  1  1  0
  2  3  2  0
  4  3  1  0
  5  4  2  0
  6  5  1  0
  7  6  1  0
  7  9  1  0
  7  8  1  6
  9 10  2  0
  9 17  1  0
 11 12  2  0
 11  5  1  0
 12  2  1  0
 14 13  1  6
 14 15  1  0
 16 14  1  0
 16 17  1  1
 18 16  1  0
 18 19  2  0
 20 21  1  0
 22 21  1  6
 22 23  1  0
 23 18  1  0
 24 22  1  0
 25 24  1  0
 26 24  2  0
M  END
$$$$
