YTS.pdb
     RDKit          3D

 26 26  0  0  1  0  0  0  0  0999 V2000
   23.7501  -20.6607   -7.4999 O   0  0  0  0  0  0  0  0  0  0  0  0
   24.1906  -20.5948   -8.8091 C   0  0  0  0  0  0  0  0  0  0  0  0
   23.3286  -20.5295   -9.8926 C   0  0  0  0  0  0  0  0  0  0  0  0
   23.7881  -20.4644  -11.1885 C   0  0  0  0  0  0  0  0  0  0  0  0
   25.1401  -20.4614  -11.4667 C   0  0  0  0  0  0  0  0  0  0  0  0
   25.6736  -20.3995  -12.8448 C   0  0  0  0  0  0  0  0  0  0  0  0
   25.1928  -21.5323  -13.7188 C   0  0  2  0  0  0  0  0  0  0  0  0
   25.6548  -22.8122  -13.2073 N   0  0  0  0  0  0  0  0  0  0  0  0
   25.5957  -21.4225  -15.1258 C   0  0  0  0  0  0  0  0  0  0  0  0
   26.7647  -21.7356  -15.5338 O   0  0  0  0  0  0  0  0  0  0  0  0
   26.0005  -20.5262  -10.3948 C   0  0  0  0  0  0  0  0  0  0  0  0
   25.5360  -20.5924   -9.0777 C   0  0  0  0  0  0  0  0  0  0  0  0
   24.3745  -21.9222  -19.7204 C   0  0  0  0  0  0  0  0  0  0  0  0
   24.0354  -21.9076  -18.2452 C   0  0  1  0  0  0  0  0  0  0  0  0
   24.1782  -23.2641  -17.8501 O   0  0  0  0  0  0  0  0  0  0  0  0
   25.0315  -21.0555  -17.5201 C   0  0  2  0  0  0  0  0  0  0  0  0
   24.7047  -20.9626  -16.1010 N   0  0  0  0  0  0  0  0  0  0  0  0
   25.0725  -19.6944  -18.0466 C   0  0  0  0  0  0  0  0  0  0  0  0
   24.1041  -18.8988  -17.7364 O   0  0  0  0  0  0  0  0  0  0  0  0
   27.8999  -18.1576  -20.4854 O   0  0  0  0  0  0  0  0  0  0  0  0
   27.3136  -17.1675  -19.6858 C   0  0  0  0  0  0  0  0  0  0  0  0
   25.9689  -17.7068  -19.2473 C   0  0  2  0  0  0  0  0  0  0  0  0
   26.0508  -19.1071  -18.8687 N   0  0  0  0  0  0  0  0  0  0  0  0
   25.0535  -17.5980  -20.4025 C   0  0  0  0  0  0  0  0  0  0  0  0
   24.6829  -16.3523  -20.8705 O   0  0  0  0  0  0  0  0  0  0  0  0
   24.5864  -18.6027  -20.9918 O   0  0  0  0  0  0  0  0  0  0  0  0
  2  1  1  0
  2  3  2  0
  4  3  1  0
  5  4  2  0
  6  5  1  0
  7  6  1  0
  7  9  1  0
  7  8  1  1
  9 10  2  0
  9 17  1  0
 11 12  2  0
 11  5  1  0
 12  2  1  0
 14 13  1  6
 14 15  1  0
 16 14  1  0
 16 17  1  1
 18 16  1  0
 18 19  2  0
 20 21  1  0
 22 21  1  6
 22 23  1  0
 23 18  1  0
 24 22  1  0
 25 24  1  0
 26 24  2  0
M  END
$$$$
