YTS.pdb
     RDKit          3D

 26 26  0  0  1  0  0  0  0  0999 V2000
   18.4908  -12.5067  -20.9352 O   0  0  0  0  0  0  0  0  0  0  0  0
   18.4611  -11.5525  -19.9348 C   0  0  0  0  0  0  0  0  0  0  0  0
   17.5333  -11.5679  -18.9052 C   0  0  0  0  0  0  0  0  0  0  0  0
   17.5211  -10.6080  -17.9186 C   0  0  0  0  0  0  0  0  0  0  0  0
   18.4415   -9.5793  -17.9128 C   0  0  0  0  0  0  0  0  0  0  0  0
   18.4575   -8.5253  -16.8753 C   0  0  0  0  0  0  0  0  0  0  0  0
   19.6024   -8.6677  -15.9021 C   0  0  2  0  0  0  0  0  0  0  0  0
   19.5114   -9.9241  -15.1767 N   0  0  0  0  0  0  0  0  0  0  0  0
   19.7057   -7.5756  -14.9271 C   0  0  0  0  0  0  0  0  0  0  0  0
   19.1789   -7.6377  -13.7654 O   0  0  0  0  0  0  0  0  0  0  0  0
   19.3649   -9.5590  -18.9328 C   0  0  0  0  0  0  0  0  0  0  0  0
   19.3792  -10.5330  -19.9359 C   0  0  0  0  0  0  0  0  0  0  0  0
   22.9791   -5.5720  -14.3805 C   0  0  0  0  0  0  0  0  0  0  0  0
   21.7950   -5.5149  -13.4392 C   0  0  1  0  0  0  0  0  0  0  0  0
   22.0398   -4.3567  -12.6547 O   0  0  0  0  0  0  0  0  0  0  0  0
   20.5401   -5.3365  -14.2376 C   0  0  2  0  0  0  0  0  0  0  0  0
   20.3964   -6.3974  -15.2290 N   0  0  0  0  0  0  0  0  0  0  0  0
   20.5252   -4.0655  -14.9558 C   0  0  0  0  0  0  0  0  0  0  0  0
   21.2271   -3.9754  -16.0357 O   0  0  0  0  0  0  0  0  0  0  0  0
   17.5603   -1.9035  -15.8822 O   0  0  0  0  0  0  0  0  0  0  0  0
   18.5443   -0.9845  -15.4945 C   0  0  0  0  0  0  0  0  0  0  0  0
   19.8612   -1.7308  -15.5071 C   0  0  2  0  0  0  0  0  0  0  0  0
   19.8299   -2.8877  -14.6287 N   0  0  0  0  0  0  0  0  0  0  0  0
   20.8970   -0.8035  -15.0056 C   0  0  0  0  0  0  0  0  0  0  0  0
   21.1877    0.3482  -15.7108 O   0  0  0  0  0  0  0  0  0  0  0  0
   21.5392   -1.0153  -13.9484 O   0  0  0  0  0  0  0  0  0  0  0  0
  2  1  1  0
  2  3  2  0
  4  3  1  0
  5  4  2  0
  6  5  1  0
  7  6  1  0
  7  9  1  0
  7  8  1  1
  9 10  2  0
  9 17  1  0
 11 12  2  0
 11  5  1  0
 12  2  1  0
 14 13  1  6
 14 15  1  0
 16 14  1  0
 16 17  1  6
 18 16  1  0
 18 19  2  0
 20 21  1  0
 22 21  1  1
 22 23  1  0
 23 18  1  0
 24 22  1  0
 25 24  1  0
 26 24  2  0
M  END
$$$$
