YTS.pdb
     RDKit          3D

 26 26  0  0  1  0  0  0  0  0999 V2000
   19.1514  -17.5580  -16.8638 O   0  0  0  0  0  0  0  0  0  0  0  0
   19.4218  -16.2021  -16.8855 C   0  0  0  0  0  0  0  0  0  0  0  0
   18.9540  -15.3241  -15.9204 C   0  0  0  0  0  0  0  0  0  0  0  0
   19.2349  -13.9771  -15.9606 C   0  0  0  0  0  0  0  0  0  0  0  0
   20.0020  -13.4384  -16.9738 C   0  0  0  0  0  0  0  0  0  0  0  0
   20.3203  -11.9964  -17.0566 C   0  0  0  0  0  0  0  0  0  0  0  0
   19.1635  -11.1604  -17.5477 C   0  0  2  0  0  0  0  0  0  0  0  0
   18.7257  -11.6039  -18.8609 N   0  0  0  0  0  0  0  0  0  0  0  0
   19.4436   -9.7213  -17.6137 C   0  0  0  0  0  0  0  0  0  0  0  0
   20.0915   -9.1894  -18.5771 O   0  0  0  0  0  0  0  0  0  0  0  0
   20.4690  -14.3054  -17.9349 C   0  0  0  0  0  0  0  0  0  0  0  0
   20.1849  -15.6740  -17.8960 C   0  0  0  0  0  0  0  0  0  0  0  0
   17.2477   -7.1068  -18.0968 C   0  0  0  0  0  0  0  0  0  0  0  0
   17.9554   -6.6646  -16.8338 C   0  0  1  0  0  0  0  0  0  0  0  0
   17.0660   -7.0459  -15.7945 O   0  0  0  0  0  0  0  0  0  0  0  0
   19.2455   -7.4148  -16.7045 C   0  0  2  0  0  0  0  0  0  0  0  0
   19.0073   -8.8512  -16.6091 N   0  0  0  0  0  0  0  0  0  0  0  0
   19.9917   -7.0179  -15.5141 C   0  0  0  0  0  0  0  0  0  0  0  0
   20.3304   -7.9425  -14.6791 O   0  0  0  0  0  0  0  0  0  0  0  0
   23.1728   -5.3622  -15.3459 O   0  0  0  0  0  0  0  0  0  0  0  0
   22.6705   -6.0631  -14.2415 C   0  0  0  0  0  0  0  0  0  0  0  0
   21.2769   -5.5290  -13.9885 C   0  0  2  0  0  0  0  0  0  0  0  0
   20.4097   -5.7292  -15.1370 N   0  0  0  0  0  0  0  0  0  0  0  0
   21.3989   -4.0747  -13.7553 C   0  0  0  0  0  0  0  0  0  0  0  0
   20.7291   -3.1887  -14.5766 O   0  0  0  0  0  0  0  0  0  0  0  0
   22.0956   -3.5948  -12.8284 O   0  0  0  0  0  0  0  0  0  0  0  0
  2  1  1  0
  2  3  2  0
  4  3  1  0
  5  4  2  0
  6  5  1  0
  7  6  1  0
  7  9  1  0
  7  8  1  6
  9 10  2  0
  9 17  1  0
 11 12  2  0
 11  5  1  0
 12  2  1  0
 14 13  1  6
 14 15  1  0
 16 14  1  0
 16 17  1  1
 18 16  1  0
 18 19  2  0
 20 21  1  0
 22 21  1  6
 22 23  1  0
 23 18  1  0
 24 22  1  0
 25 24  1  0
 26 24  2  0
M  END
$$$$
