YTS.pdb
     RDKit          3D

 26 26  0  0  1  0  0  0  0  0999 V2000
   18.2693  -23.3405  -13.9582 O   0  0  0  0  0  0  0  0  0  0  0  0
   19.4295  -23.3536  -14.7105 C   0  0  0  0  0  0  0  0  0  0  0  0
   20.5360  -24.1189  -14.3771 C   0  0  0  0  0  0  0  0  0  0  0  0
   21.6818  -24.1175  -15.1401 C   0  0  0  0  0  0  0  0  0  0  0  0
   21.7783  -23.3462  -16.2807 C   0  0  0  0  0  0  0  0  0  0  0  0
   22.9935  -23.3116  -17.1231 C   0  0  0  0  0  0  0  0  0  0  0  0
   24.0747  -22.4159  -16.5689 C   0  0  2  0  0  0  0  0  0  0  0  0
   23.6192  -21.0372  -16.5000 N   0  0  0  0  0  0  0  0  0  0  0  0
   25.3335  -22.4514  -17.3226 C   0  0  0  0  0  0  0  0  0  0  0  0
   25.5020  -21.8069  -18.4122 O   0  0  0  0  0  0  0  0  0  0  0  0
   20.6828  -22.5842  -16.6164 C   0  0  0  0  0  0  0  0  0  0  0  0
   19.5179  -22.5841  -15.8429 C   0  0  0  0  0  0  0  0  0  0  0  0
   27.8302  -20.7198  -17.3045 C   0  0  0  0  0  0  0  0  0  0  0  0
   28.5511  -22.0292  -17.0653 C   0  0  1  0  0  0  0  0  0  0  0  0
   28.6604  -22.1038  -15.6514 O   0  0  0  0  0  0  0  0  0  0  0  0
   27.7053  -23.1563  -17.5736 C   0  0  2  0  0  0  0  0  0  0  0  0
   26.4245  -23.2042  -16.8761 N   0  0  0  0  0  0  0  0  0  0  0  0
   28.3512  -24.4521  -17.3859 C   0  0  0  0  0  0  0  0  0  0  0  0
   27.9875  -25.1656  -16.3731 O   0  0  0  0  0  0  0  0  0  0  0  0
   31.3639  -26.1358  -19.6365 O   0  0  0  0  0  0  0  0  0  0  0  0
   30.4780  -27.0493  -19.0501 C   0  0  0  0  0  0  0  0  0  0  0  0
   29.8846  -26.3595  -17.8403 C   0  0  2  0  0  0  0  0  0  0  0  0
   29.3439  -25.0542  -18.1793 N   0  0  0  0  0  0  0  0  0  0  0  0
   30.9781  -26.1627  -16.8658 C   0  0  0  0  0  0  0  0  0  0  0  0
   31.5764  -27.2581  -16.2740 O   0  0  0  0  0  0  0  0  0  0  0  0
   31.3989  -25.0254  -16.5426 O   0  0  0  0  0  0  0  0  0  0  0  0
  2  1  1  0
  2  3  2  0
  4  3  1  0
  5  4  2  0
  6  5  1  0
  7  6  1  0
  7  9  1  0
  7  8  1  6
  9 10  2  0
  9 17  1  0
 11 12  2  0
 11  5  1  0
 12  2  1  0
 14 13  1  1
 14 15  1  0
 16 14  1  0
 16 17  1  1
 18 16  1  0
 18 19  2  0
 20 21  1  0
 22 21  1  6
 22 23  1  0
 23 18  1  0
 24 22  1  0
 25 24  1  0
 26 24  2  0
M  END
$$$$
