ERY.pdb
     RDKit          3D

 33 33  0  0  1  0  0  0  0  0999 V2000
   28.5618  -20.0605  -15.3334 N   0  0  0  0  0  0  0  0  0  0  0  0
   28.0326  -18.9164  -14.6503 C   0  0  1  0  0  0  0  0  0  0  0  0
   27.5083  -17.8169  -15.5044 C   0  0  0  0  0  0  0  0  0  0  0  0
   27.8740  -17.8267  -16.9378 C   0  0  0  0  0  0  0  0  0  0  0  0
   27.3923  -16.6479  -17.6597 C   0  0  0  0  0  0  0  0  0  0  0  0
   26.3914  -16.6615  -18.3733 O   0  0  0  0  0  0  0  0  0  0  0  0
   26.9575  -19.4070  -13.7129 C   0  0  0  0  0  0  0  0  0  0  0  0
   26.2655  -18.5768  -13.1095 O   0  0  0  0  0  0  0  0  0  0  0  0
   28.1183  -15.4448  -17.5223 O   0  0  0  0  0  0  0  0  0  0  0  0
   24.1524  -24.9745  -17.1976 N   0  0  0  0  0  0  0  0  0  0  0  0
   25.3721  -25.3410  -16.5510 C   0  0  0  0  0  0  0  0  0  0  0  0
   26.3039  -25.9193  -17.2579 N   0  0  0  0  0  0  0  0  0  0  0  0
   25.5057  -25.0581  -15.1821 N   0  0  0  0  0  0  0  0  0  0  0  0
   24.4561  -24.3920  -14.4820 C   0  0  0  0  0  0  0  0  0  0  0  0
   24.7130  -22.8997  -14.2838 C   0  0  0  0  0  0  0  0  0  0  0  0
   25.5162  -22.7854  -13.0019 C   0  0  0  0  0  0  0  0  0  0  0  0
   25.8318  -21.3632  -12.6356 C   0  0  2  0  0  0  0  0  0  0  0  0
   26.7883  -20.8071  -13.5656 N   0  0  0  0  0  0  0  0  0  0  0  0
   26.4053  -21.3782  -11.2599 C   0  0  0  0  0  0  0  0  0  0  0  0
   27.6255  -21.6106  -11.0518 O   0  0  0  0  0  0  0  0  0  0  0  0
   27.2061  -26.1938  -16.8213 O   0  0  0  0  0  0  0  0  0  0  0  0
   28.9712  -19.1303   -3.5247 C   0  0  0  0  0  0  0  0  0  0  0  0
   28.5269  -19.3565   -4.8284 C   0  0  0  0  0  0  0  0  0  0  0  0
   29.2103  -20.2121   -5.6857 C   0  0  0  0  0  0  0  0  0  0  0  0
   28.7628  -20.4245   -6.9653 C   0  0  0  0  0  0  0  0  0  0  0  0
   27.6176  -19.7702   -7.3849 C   0  0  0  0  0  0  0  0  0  0  0  0
   27.1464  -19.9911   -8.7603 C   0  0  1  0  0  0  0  0  0  0  0  0
   26.1661  -21.1242   -8.7805 N   0  0  0  0  0  0  0  0  0  0  0  0
   25.5847  -21.1293  -10.1325 C   0  0  0  0  0  0  0  0  0  0  0  0
   25.0561  -20.9475   -7.8165 O   0  0  0  0  0  0  0  0  0  0  0  0
   23.8195  -20.3986   -8.2118 C   0  0  0  0  0  0  0  0  0  0  0  0
   26.9402  -18.9215   -6.5332 C   0  0  0  0  0  0  0  0  0  0  0  0
   27.3822  -18.6996   -5.2407 O   0  0  0  0  0  0  0  0  0  0  0  0
  2  3  1  0
  2  1  1  6
  3  4  1  0
  4  5  1  0
  5  6  2  0
  7  2  1  0
  7 18  1  0
  8  7  2  0
  9  5  1  0
 10 11  1  0
 11 12  2  0
 13 11  1  0
 13 14  1  0
 15 16  1  0
 15 14  1  0
 17 16  1  6
 17 18  1  0
 17 19  1  0
 19 20  2  0
 19 28  1  0
 22 21  1  0
 23 22  2  0
 24 23  1  0
 25 24  2  0
 25 31  1  0
 26 25  1  0
 27 26  1  6
 28 27  1  0
 29 30  1  0
 29 27  1  0
 31 32  2  0
 32 22  1  0
 33 29  2  0
M  END
$$$$
