ERY.pdb
     RDKit          3D

 33 33  0  0  1  0  0  0  0  0999 V2000
   23.1779  -15.6022  -19.2752 N   0  0  0  0  0  0  0  0  0  0  0  0
   24.0054  -15.8531  -18.1316 C   0  0  1  0  0  0  0  0  0  0  0  0
   23.7644  -14.9990  -16.9375 C   0  0  0  0  0  0  0  0  0  0  0  0
   22.3887  -14.9475  -16.3961 C   0  0  0  0  0  0  0  0  0  0  0  0
   21.9705  -13.5953  -16.0229 C   0  0  0  0  0  0  0  0  0  0  0  0
   22.7133  -12.6187  -16.0993 O   0  0  0  0  0  0  0  0  0  0  0  0
   23.8493  -17.3095  -17.7716 C   0  0  0  0  0  0  0  0  0  0  0  0
   22.7416  -17.8445  -17.9097 O   0  0  0  0  0  0  0  0  0  0  0  0
   20.6505  -13.4159  -15.5552 O   0  0  0  0  0  0  0  0  0  0  0  0
   26.4569  -23.9582  -15.1079 N   0  0  0  0  0  0  0  0  0  0  0  0
   27.1943  -24.2459  -16.2968 C   0  0  0  0  0  0  0  0  0  0  0  0
   27.1420  -25.4542  -16.7866 N   0  0  0  0  0  0  0  0  0  0  0  0
   27.9401  -23.2087  -16.8796 N   0  0  0  0  0  0  0  0  0  0  0  0
   27.7733  -21.8653  -16.4293 C   0  0  0  0  0  0  0  0  0  0  0  0
   26.3124  -21.4243  -16.3694 C   0  0  0  0  0  0  0  0  0  0  0  0
   26.3094  -19.9531  -16.7399 C   0  0  0  0  0  0  0  0  0  0  0  0
   24.9245  -19.3973  -16.9115 C   0  0  2  0  0  0  0  0  0  0  0  0
   24.9875  -18.0033  -17.2881 N   0  0  0  0  0  0  0  0  0  0  0  0
   24.2250  -19.5425  -15.6032 C   0  0  0  0  0  0  0  0  0  0  0  0
   24.4281  -18.7450  -14.6498 O   0  0  0  0  0  0  0  0  0  0  0  0
   27.6532  -25.6944  -17.6589 O   0  0  0  0  0  0  0  0  0  0  0  0
   18.5595  -19.5164   -9.4233 C   0  0  0  0  0  0  0  0  0  0  0  0
   19.3887  -19.4822  -10.5454 C   0  0  0  0  0  0  0  0  0  0  0  0
   20.7415  -19.1789  -10.4344 C   0  0  0  0  0  0  0  0  0  0  0  0
   21.5450  -19.1478  -11.5463 C   0  0  0  0  0  0  0  0  0  0  0  0
   20.9818  -19.4248  -12.7798 C   0  0  0  0  0  0  0  0  0  0  0  0
   21.8429  -19.3800  -13.9711 C   0  0  1  0  0  0  0  0  0  0  0  0
   22.5619  -20.6861  -14.1217 N   0  0  0  0  0  0  0  0  0  0  0  0
   23.3009  -20.5947  -15.3911 C   0  0  0  0  0  0  0  0  0  0  0  0
   21.6448  -21.8445  -14.2199 O   0  0  0  0  0  0  0  0  0  0  0  0
   21.2832  -22.5943  -13.0823 C   0  0  0  0  0  0  0  0  0  0  0  0
   19.6394  -19.7258  -12.8887 C   0  0  0  0  0  0  0  0  0  0  0  0
   18.8194  -19.7600  -11.7744 O   0  0  0  0  0  0  0  0  0  0  0  0
  2  3  1  0
  2  1  1  6
  3  4  1  0
  4  5  1  0
  5  6  2  0
  7  2  1  0
  7 18  1  0
  8  7  2  0
  9  5  1  0
 10 11  1  0
 11 12  2  0
 13 11  1  0
 13 14  1  0
 15 16  1  0
 15 14  1  0
 17 16  1  1
 17 18  1  0
 17 19  1  0
 19 20  2  0
 19 28  1  0
 22 21  1  0
 23 22  2  0
 24 23  1  0
 25 24  2  0
 25 31  1  0
 26 25  1  0
 27 26  1  1
 28 27  1  0
 29 30  1  0
 29 27  1  0
 31 32  2  0
 32 22  1  0
 33 29  2  0
M  END
$$$$
