ERY.pdb
     RDKit          3D

 33 33  0  0  1  0  0  0  0  0999 V2000
   20.1296  -22.3179  -14.5875 N   0  0  0  0  0  0  0  0  0  0  0  0
   19.9059  -21.0104  -14.0435 C   0  0  1  0  0  0  0  0  0  0  0  0
   19.5755  -20.9417  -12.5945 C   0  0  0  0  0  0  0  0  0  0  0  0
   18.4293  -21.7433  -12.1127 C   0  0  0  0  0  0  0  0  0  0  0  0
   17.1906  -21.4672  -12.8420 C   0  0  0  0  0  0  0  0  0  0  0  0
   16.8770  -22.0526  -13.8766 O   0  0  0  0  0  0  0  0  0  0  0  0
   21.1313  -20.1821  -14.3392 C   0  0  0  0  0  0  0  0  0  0  0  0
   21.2388  -19.0651  -13.8167 O   0  0  0  0  0  0  0  0  0  0  0  0
   16.3230  -20.4811  -12.3241 O   0  0  0  0  0  0  0  0  0  0  0  0
   29.1887  -22.0513  -16.5178 N   0  0  0  0  0  0  0  0  0  0  0  0
   27.9793  -22.7664  -16.7749 C   0  0  0  0  0  0  0  0  0  0  0  0
   28.0361  -23.8464  -17.5048 N   0  0  0  0  0  0  0  0  0  0  0  0
   26.7869  -22.2679  -16.2258 N   0  0  0  0  0  0  0  0  0  0  0  0
   26.8161  -21.1386  -15.3545 C   0  0  0  0  0  0  0  0  0  0  0  0
   25.4679  -20.8443  -14.7003 C   0  0  0  0  0  0  0  0  0  0  0  0
   24.4445  -20.9022  -15.8187 C   0  0  0  0  0  0  0  0  0  0  0  0
   23.2835  -19.9754  -15.5961 C   0  0  2  0  0  0  0  0  0  0  0  0
   22.1107  -20.7259  -15.2084 N   0  0  0  0  0  0  0  0  0  0  0  0
   23.0334  -19.2639  -16.8819 C   0  0  0  0  0  0  0  0  0  0  0  0
   22.7070  -19.8816  -17.9298 O   0  0  0  0  0  0  0  0  0  0  0  0
   27.1674  -24.3477  -17.7769 O   0  0  0  0  0  0  0  0  0  0  0  0
   22.3096  -12.7390  -22.6555 C   0  0  0  0  0  0  0  0  0  0  0  0
   22.4587  -13.4842  -21.4848 C   0  0  0  0  0  0  0  0  0  0  0  0
   21.4300  -14.2874  -21.0045 C   0  0  0  0  0  0  0  0  0  0  0  0
   21.5900  -15.0140  -19.8515 C   0  0  0  0  0  0  0  0  0  0  0  0
   22.7958  -14.9314  -19.1771 C   0  0  0  0  0  0  0  0  0  0  0  0
   22.9605  -15.7027  -17.9359 C   0  0  1  0  0  0  0  0  0  0  0  0
   22.9536  -17.1680  -18.2492 N   0  0  0  0  0  0  0  0  0  0  0  0
   23.1578  -17.8554  -16.9641 C   0  0  0  0  0  0  0  0  0  0  0  0
   24.0543  -17.5725  -19.1533 O   0  0  0  0  0  0  0  0  0  0  0  0
   25.3757  -17.7166  -18.6841 C   0  0  0  0  0  0  0  0  0  0  0  0
   23.8158  -14.1342  -19.6549 C   0  0  0  0  0  0  0  0  0  0  0  0
   23.6659  -13.3969  -20.8163 O   0  0  0  0  0  0  0  0  0  0  0  0
  2  3  1  0
  2  1  1  1
  3  4  1  0
  4  5  1  0
  5  6  2  0
  7  2  1  0
  7 18  1  0
  8  7  2  0
  9  5  1  0
 10 11  1  0
 11 12  2  0
 13 11  1  0
 13 14  1  0
 15 16  1  0
 15 14  1  0
 17 16  1  6
 17 18  1  0
 17 19  1  0
 19 20  2  0
 19 28  1  0
 22 21  1  0
 23 22  2  0
 24 23  1  0
 25 24  2  0
 25 31  1  0
 26 25  1  0
 27 26  1  1
 28 27  1  0
 29 30  1  0
 29 27  1  0
 31 32  2  0
 32 22  1  0
 33 29  2  0
M  END
$$$$
