ERY.pdb
     RDKit          3D

 33 33  0  0  1  0  0  0  0  0999 V2000
   22.7544  -21.7627  -18.3615 N   0  0  0  0  0  0  0  0  0  0  0  0
   23.0016  -20.6570  -17.4830 C   0  0  1  0  0  0  0  0  0  0  0  0
   21.8126  -19.8748  -17.0494 C   0  0  0  0  0  0  0  0  0  0  0  0
   20.7613  -20.5871  -16.2906 C   0  0  0  0  0  0  0  0  0  0  0  0
   19.4678  -20.5970  -16.9757 C   0  0  0  0  0  0  0  0  0  0  0  0
   18.4859  -21.1987  -16.5456 O   0  0  0  0  0  0  0  0  0  0  0  0
   23.7416  -21.1906  -16.2819 C   0  0  0  0  0  0  0  0  0  0  0  0
   23.2169  -22.0838  -15.6042 O   0  0  0  0  0  0  0  0  0  0  0  0
   19.3539  -19.8784  -18.1857 O   0  0  0  0  0  0  0  0  0  0  0  0
   28.3501  -23.3759  -18.3104 N   0  0  0  0  0  0  0  0  0  0  0  0
   29.3778  -23.5264  -17.3300 C   0  0  0  0  0  0  0  0  0  0  0  0
   29.9424  -24.6946  -17.1920 N   0  0  0  0  0  0  0  0  0  0  0  0
   29.7289  -22.4042  -16.5624 N   0  0  0  0  0  0  0  0  0  0  0  0
   29.0717  -21.1559  -16.7754 C   0  0  0  0  0  0  0  0  0  0  0  0
   27.5530  -21.2408  -16.6396 C   0  0  0  0  0  0  0  0  0  0  0  0
   27.2574  -21.0279  -15.1669 C   0  0  0  0  0  0  0  0  0  0  0  0
   25.7902  -21.0925  -14.8508 C   0  0  2  0  0  0  0  0  0  0  0  0
   25.0137  -20.6403  -15.9829 N   0  0  0  0  0  0  0  0  0  0  0  0
   25.5514  -20.2032  -13.6787 C   0  0  0  0  0  0  0  0  0  0  0  0
   25.4886  -18.9509  -13.7974 O   0  0  0  0  0  0  0  0  0  0  0  0
   30.7010  -24.8371  -16.4961 O   0  0  0  0  0  0  0  0  0  0  0  0
   18.5323  -18.9347   -9.4036 C   0  0  0  0  0  0  0  0  0  0  0  0
   19.6450  -19.3717  -10.1240 C   0  0  0  0  0  0  0  0  0  0  0  0
   20.0762  -20.6921  -10.0557 C   0  0  0  0  0  0  0  0  0  0  0  0
   21.1724  -21.1079  -10.7687 C   0  0  0  0  0  0  0  0  0  0  0  0
   21.8395  -20.1865  -11.5571 C   0  0  0  0  0  0  0  0  0  0  0  0
   23.0205  -20.6322  -12.3115 C   0  0  2  0  0  0  0  0  0  0  0  0
   24.2625  -20.3158  -11.5351 N   0  0  0  0  0  0  0  0  0  0  0  0
   25.3869  -20.7468  -12.3812 C   0  0  0  0  0  0  0  0  0  0  0  0
   24.3526  -21.0591  -10.2577 O   0  0  0  0  0  0  0  0  0  0  0  0
   23.9356  -20.4829   -9.0408 C   0  0  0  0  0  0  0  0  0  0  0  0
   21.4106  -18.8766  -11.6242 C   0  0  0  0  0  0  0  0  0  0  0  0
   20.3065  -18.4460  -10.9096 O   0  0  0  0  0  0  0  0  0  0  0  0
  2  3  1  0
  2  1  1  6
  3  4  1  0
  4  5  1  0
  5  6  2  0
  7  2  1  0
  7 18  1  0
  8  7  2  0
  9  5  1  0
 10 11  1  0
 11 12  2  0
 13 11  1  0
 13 14  1  0
 15 16  1  0
 15 14  1  0
 17 16  1  6
 17 18  1  0
 17 19  1  0
 19 20  2  0
 19 28  1  0
 22 21  1  0
 23 22  2  0
 24 23  1  0
 25 24  2  0
 25 31  1  0
 26 25  1  0
 27 26  1  6
 28 27  1  0
 29 30  1  0
 29 27  1  0
 31 32  2  0
 32 22  1  0
 33 29  2  0
M  END
$$$$
