ERY.pdb
     RDKit          3D

 33 33  0  0  1  0  0  0  0  0999 V2000
   18.2337   -9.4045  -18.0968 N   0  0  0  0  0  0  0  0  0  0  0  0
   17.8263  -10.1222  -16.9245 C   0  0  1  0  0  0  0  0  0  0  0  0
   18.7893  -11.1225  -16.3902 C   0  0  0  0  0  0  0  0  0  0  0  0
   20.0603  -10.6186  -15.8254 C   0  0  0  0  0  0  0  0  0  0  0  0
   20.9357  -11.6876  -15.3421 C   0  0  0  0  0  0  0  0  0  0  0  0
   20.6200  -12.8755  -15.3672 O   0  0  0  0  0  0  0  0  0  0  0  0
   17.4904   -9.1031  -15.8645 C   0  0  0  0  0  0  0  0  0  0  0  0
   18.1190   -8.0370  -15.8391 O   0  0  0  0  0  0  0  0  0  0  0  0
   22.1992  -11.3263  -14.8259 O   0  0  0  0  0  0  0  0  0  0  0  0
   10.7767  -10.1736  -10.8864 N   0  0  0  0  0  0  0  0  0  0  0  0
   12.1031  -10.6265  -10.6113 C   0  0  0  0  0  0  0  0  0  0  0  0
   12.2591  -11.6777   -9.8543 N   0  0  0  0  0  0  0  0  0  0  0  0
   13.1748   -9.9139  -11.1728 N   0  0  0  0  0  0  0  0  0  0  0  0
   12.9699   -8.5999  -11.6893 C   0  0  0  0  0  0  0  0  0  0  0  0
   14.2409   -7.9647  -12.2489 C   0  0  0  0  0  0  0  0  0  0  0  0
   14.8068   -8.9709  -13.2332 C   0  0  0  0  0  0  0  0  0  0  0  0
   16.0563   -8.4852  -13.9111 C   0  0  2  0  0  0  0  0  0  0  0  0
   16.4621   -9.4159  -14.9396 N   0  0  0  0  0  0  0  0  0  0  0  0
   17.1147   -8.3839  -12.8664 C   0  0  0  0  0  0  0  0  0  0  0  0
   17.7021   -9.4026  -12.4155 O   0  0  0  0  0  0  0  0  0  0  0  0
   13.2102  -12.0223   -9.6164 O   0  0  0  0  0  0  0  0  0  0  0  0
   23.8884   -5.5897   -8.3562 C   0  0  0  0  0  0  0  0  0  0  0  0
   22.7953   -5.6723   -9.2201 C   0  0  0  0  0  0  0  0  0  0  0  0
   21.7915   -4.7099   -9.2082 C   0  0  0  0  0  0  0  0  0  0  0  0
   20.7218   -4.8042  -10.0625 C   0  0  0  0  0  0  0  0  0  0  0  0
   20.6628   -5.8761  -10.9360 C   0  0  0  0  0  0  0  0  0  0  0  0
   19.5098   -5.9805  -11.8428 C   0  0  2  0  0  0  0  0  0  0  0  0
   18.5679   -7.0320  -11.3402 N   0  0  0  0  0  0  0  0  0  0  0  0
   17.4948   -7.1238  -12.3431 C   0  0  0  0  0  0  0  0  0  0  0  0
   17.9420   -6.6784  -10.0457 O   0  0  0  0  0  0  0  0  0  0  0  0
   16.6071   -6.2315   -9.9723 C   0  0  0  0  0  0  0  0  0  0  0  0
   21.6596   -6.8304  -10.9470 C   0  0  0  0  0  0  0  0  0  0  0  0
   22.7429   -6.7457  -10.0900 O   0  0  0  0  0  0  0  0  0  0  0  0
  2  3  1  0
  2  1  1  6
  3  4  1  0
  4  5  1  0
  5  6  2  0
  7  2  1  0
  7 18  1  0
  8  7  2  0
  9  5  1  0
 10 11  1  0
 11 12  2  0
 13 11  1  0
 13 14  1  0
 15 16  1  0
 15 14  1  0
 17 16  1  1
 17 18  1  0
 17 19  1  0
 19 20  2  0
 19 28  1  0
 22 21  1  0
 23 22  2  0
 24 23  1  0
 25 24  2  0
 25 31  1  0
 26 25  1  0
 27 26  1  6
 28 27  1  0
 29 30  1  0
 29 27  1  0
 31 32  2  0
 32 22  1  0
 33 29  2  0
M  END
$$$$
