ERY.pdb
     RDKit          3D

 33 33  0  0  1  0  0  0  0  0999 V2000
   24.3628  -16.0723  -19.7077 N   0  0  0  0  0  0  0  0  0  0  0  0
   24.2454  -15.9263  -18.2862 C   0  0  1  0  0  0  0  0  0  0  0  0
   23.4264  -14.7827  -17.8016 C   0  0  0  0  0  0  0  0  0  0  0  0
   23.8940  -13.4171  -18.1255 C   0  0  0  0  0  0  0  0  0  0  0  0
   22.8389  -12.5669  -18.6792 C   0  0  0  0  0  0  0  0  0  0  0  0
   23.0359  -11.7563  -19.5822 O   0  0  0  0  0  0  0  0  0  0  0  0
   23.7030  -17.2243  -17.7419 C   0  0  0  0  0  0  0  0  0  0  0  0
   22.6696  -17.6945  -18.2351 O   0  0  0  0  0  0  0  0  0  0  0  0
   21.5384  -12.6923  -18.1440 O   0  0  0  0  0  0  0  0  0  0  0  0
   27.0664  -23.2014  -16.0732 N   0  0  0  0  0  0  0  0  0  0  0  0
   28.2604  -22.4237  -16.1707 C   0  0  0  0  0  0  0  0  0  0  0  0
   29.2472  -22.8828  -16.8903 N   0  0  0  0  0  0  0  0  0  0  0  0
   28.3102  -21.1997  -15.4843 N   0  0  0  0  0  0  0  0  0  0  0  0
   27.1273  -20.6569  -14.9000 C   0  0  0  0  0  0  0  0  0  0  0  0
   26.1259  -20.1398  -15.9306 C   0  0  0  0  0  0  0  0  0  0  0  0
   24.9391  -19.6308  -15.1343 C   0  0  0  0  0  0  0  0  0  0  0  0
   23.8797  -19.0088  -15.9988 C   0  0  2  0  0  0  0  0  0  0  0  0
   24.4078  -17.8503  -16.6827 N   0  0  0  0  0  0  0  0  0  0  0  0
   22.7583  -18.6067  -15.1027 C   0  0  0  0  0  0  0  0  0  0  0  0
   22.8311  -17.5895  -14.3638 O   0  0  0  0  0  0  0  0  0  0  0  0
   30.1331  -22.3467  -16.9775 O   0  0  0  0  0  0  0  0  0  0  0  0
   15.4610  -15.6259  -12.2535 C   0  0  0  0  0  0  0  0  0  0  0  0
   16.6062  -16.1002  -12.8949 C   0  0  0  0  0  0  0  0  0  0  0  0
   16.5321  -16.7284  -14.1335 C   0  0  0  0  0  0  0  0  0  0  0  0
   17.6662  -17.1909  -14.7523 C   0  0  0  0  0  0  0  0  0  0  0  0
   18.8847  -17.0189  -14.1190 C   0  0  0  0  0  0  0  0  0  0  0  0
   20.0971  -17.5253  -14.7794 C   0  0  1  0  0  0  0  0  0  0  0  0
   20.4177  -18.8945  -14.2618 N   0  0  0  0  0  0  0  0  0  0  0  0
   21.5640  -19.3665  -15.0549 C   0  0  0  0  0  0  0  0  0  0  0  0
   19.3119  -19.8603  -14.4541 O   0  0  0  0  0  0  0  0  0  0  0  0
   18.3431  -20.0775  -13.4536 C   0  0  0  0  0  0  0  0  0  0  0  0
   18.9570  -16.3953  -12.8901 C   0  0  0  0  0  0  0  0  0  0  0  0
   17.8201  -15.9250  -12.2565 O   0  0  0  0  0  0  0  0  0  0  0  0
  2  3  1  0
  2  1  1  6
  3  4  1  0
  4  5  1  0
  5  6  2  0
  7  2  1  0
  7 18  1  0
  8  7  2  0
  9  5  1  0
 10 11  1  0
 11 12  2  0
 13 11  1  0
 13 14  1  0
 15 16  1  0
 15 14  1  0
 17 16  1  1
 17 18  1  0
 17 19  1  0
 19 20  2  0
 19 28  1  0
 22 21  1  0
 23 22  2  0
 24 23  1  0
 25 24  2  0
 25 31  1  0
 26 25  1  0
 27 26  1  1
 28 27  1  0
 29 30  1  0
 29 27  1  0
 31 32  2  0
 32 22  1  0
 33 29  2  0
M  END
$$$$
