ERY.pdb
     RDKit          3D

 33 33  0  0  1  0  0  0  0  0999 V2000
   25.6505  -18.7520  -21.0865 N   0  0  0  0  0  0  0  0  0  0  0  0
   24.5622  -19.6837  -21.1442 C   0  0  1  0  0  0  0  0  0  0  0  0
   24.4366  -20.4813  -22.3938 C   0  0  0  0  0  0  0  0  0  0  0  0
   24.3155  -19.7436  -23.6703 C   0  0  0  0  0  0  0  0  0  0  0  0
   24.9416  -20.4396  -24.7955 C   0  0  0  0  0  0  0  0  0  0  0  0
   25.4367  -19.8523  -25.7554 O   0  0  0  0  0  0  0  0  0  0  0  0
   24.6867  -20.5985  -19.9514 C   0  0  0  0  0  0  0  0  0  0  0  0
   23.7995  -21.4367  -19.7452 O   0  0  0  0  0  0  0  0  0  0  0  0
   24.9733  -21.8508  -24.7663 O   0  0  0  0  0  0  0  0  0  0  0  0
   30.7604  -24.7084  -15.4026 N   0  0  0  0  0  0  0  0  0  0  0  0
   30.3037  -24.7174  -16.7559 C   0  0  0  0  0  0  0  0  0  0  0  0
   30.3396  -25.8405  -17.4191 N   0  0  0  0  0  0  0  0  0  0  0  0
   29.8372  -23.5119  -17.3044 N   0  0  0  0  0  0  0  0  0  0  0  0
   29.3191  -22.4904  -16.4538 C   0  0  0  0  0  0  0  0  0  0  0  0
   27.7985  -22.3636  -16.5175 C   0  0  0  0  0  0  0  0  0  0  0  0
   27.5041  -21.5420  -17.7584 C   0  0  0  0  0  0  0  0  0  0  0  0
   26.0352  -21.3075  -17.9681 C   0  0  2  0  0  0  0  0  0  0  0  0
   25.8231  -20.4547  -19.1156 N   0  0  0  0  0  0  0  0  0  0  0  0
   25.5130  -20.6483  -16.7374 C   0  0  0  0  0  0  0  0  0  0  0  0
   26.1657  -19.7557  -16.1345 O   0  0  0  0  0  0  0  0  0  0  0  0
   30.0798  -25.8698  -18.4249 O   0  0  0  0  0  0  0  0  0  0  0  0
   18.9962  -17.9166  -18.3726 C   0  0  0  0  0  0  0  0  0  0  0  0
   20.1440  -18.1562  -17.6155 C   0  0  0  0  0  0  0  0  0  0  0  0
   20.1065  -18.1485  -16.2253 C   0  0  0  0  0  0  0  0  0  0  0  0
   21.2430  -18.3847  -15.4935 C   0  0  0  0  0  0  0  0  0  0  0  0
   22.4267  -18.6310  -16.1672 C   0  0  0  0  0  0  0  0  0  0  0  0
   23.6453  -18.8730  -15.3804 C   0  0  1  0  0  0  0  0  0  0  0  0
   23.7273  -20.3233  -15.0127 N   0  0  0  0  0  0  0  0  0  0  0  0
   24.2525  -21.0112  -16.2030 C   0  0  0  0  0  0  0  0  0  0  0  0
   22.4077  -20.9170  -14.6982 O   0  0  0  0  0  0  0  0  0  0  0  0
   21.7005  -20.5608  -13.5321 C   0  0  0  0  0  0  0  0  0  0  0  0
   22.4626  -18.6386  -17.5467 C   0  0  0  0  0  0  0  0  0  0  0  0
   21.3229  -18.4016  -18.2951 O   0  0  0  0  0  0  0  0  0  0  0  0
  2  3  1  0
  2  1  1  6
  3  4  1  0
  4  5  1  0
  5  6  2  0
  7  2  1  0
  7 18  1  0
  8  7  2  0
  9  5  1  0
 10 11  1  0
 11 12  2  0
 13 11  1  0
 13 14  1  0
 15 16  1  0
 15 14  1  0
 17 16  1  1
 17 18  1  0
 17 19  1  0
 19 20  2  0
 19 28  1  0
 22 21  1  0
 23 22  2  0
 24 23  1  0
 25 24  2  0
 25 31  1  0
 26 25  1  0
 27 26  1  1
 28 27  1  0
 29 30  1  0
 29 27  1  0
 31 32  2  0
 32 22  1  0
 33 29  2  0
M  END
$$$$
