ERY.pdb
     RDKit          3D

 33 33  0  0  1  0  0  0  0  0999 V2000
   21.2978  -13.7636  -16.3332 N   0  0  0  0  0  0  0  0  0  0  0  0
   22.0835  -12.6929  -15.7930 C   0  0  1  0  0  0  0  0  0  0  0  0
   23.4544  -12.5299  -16.3477 C   0  0  0  0  0  0  0  0  0  0  0  0
   24.4462  -13.5861  -16.0491 C   0  0  0  0  0  0  0  0  0  0  0  0
   25.8009  -13.2380  -16.4808 C   0  0  0  0  0  0  0  0  0  0  0  0
   26.7746  -13.9617  -16.2819 O   0  0  0  0  0  0  0  0  0  0  0  0
   21.2943  -11.4196  -15.9694 C   0  0  0  0  0  0  0  0  0  0  0  0
   20.8604  -11.1356  -17.0934 O   0  0  0  0  0  0  0  0  0  0  0  0
   25.9861  -12.0121  -17.1562 O   0  0  0  0  0  0  0  0  0  0  0  0
   15.3970   -8.8363  -10.6995 N   0  0  0  0  0  0  0  0  0  0  0  0
   15.5717   -9.7716  -11.7648 C   0  0  0  0  0  0  0  0  0  0  0  0
   14.7806  -10.8076  -11.8216 N   0  0  0  0  0  0  0  0  0  0  0  0
   16.5900   -9.5260  -12.6999 N   0  0  0  0  0  0  0  0  0  0  0  0
   17.4285   -8.3800  -12.5623 C   0  0  0  0  0  0  0  0  0  0  0  0
   18.3869   -8.1872  -13.7357 C   0  0  0  0  0  0  0  0  0  0  0  0
   19.3027   -9.3966  -13.7241 C   0  0  0  0  0  0  0  0  0  0  0  0
   20.2537   -9.4198  -14.8867 C   0  0  2  0  0  0  0  0  0  0  0  0
   21.0845  -10.6012  -14.8306 N   0  0  0  0  0  0  0  0  0  0  0  0
   21.0985   -8.1954  -14.7906 C   0  0  0  0  0  0  0  0  0  0  0  0
   21.9968   -8.0756  -13.9160 O   0  0  0  0  0  0  0  0  0  0  0  0
   14.8700  -11.5005  -12.5909 O   0  0  0  0  0  0  0  0  0  0  0  0
   24.8125   -0.6078  -16.9278 C   0  0  0  0  0  0  0  0  0  0  0  0
   24.0760   -1.7931  -16.9495 C   0  0  0  0  0  0  0  0  0  0  0  0
   22.6896   -1.7797  -17.0588 C   0  0  0  0  0  0  0  0  0  0  0  0
   21.9780   -2.9528  -17.0779 C   0  0  0  0  0  0  0  0  0  0  0  0
   22.6681   -4.1490  -16.9865 C   0  0  0  0  0  0  0  0  0  0  0  0
   21.9021   -5.4043  -16.9961 C   0  0  1  0  0  0  0  0  0  0  0  0
   21.7630   -5.9198  -15.5960 N   0  0  0  0  0  0  0  0  0  0  0  0
   20.9131   -7.1175  -15.6905 C   0  0  0  0  0  0  0  0  0  0  0  0
   21.0883   -4.9622  -14.6902 O   0  0  0  0  0  0  0  0  0  0  0  0
   21.8214   -4.0325  -13.9253 C   0  0  0  0  0  0  0  0  0  0  0  0
   24.0438   -4.1611  -16.8783 C   0  0  0  0  0  0  0  0  0  0  0  0
   24.7719   -2.9844  -16.8579 O   0  0  0  0  0  0  0  0  0  0  0  0
  2  3  1  0
  2  1  1  6
  3  4  1  0
  4  5  1  0
  5  6  2  0
  7  2  1  0
  7 18  1  0
  8  7  2  0
  9  5  1  0
 10 11  1  0
 11 12  2  0
 13 11  1  0
 13 14  1  0
 15 16  1  0
 15 14  1  0
 17 16  1  1
 17 18  1  0
 17 19  1  0
 19 20  2  0
 19 28  1  0
 22 21  1  0
 23 22  2  0
 24 23  1  0
 25 24  2  0
 25 31  1  0
 26 25  1  0
 27 26  1  6
 28 27  1  0
 29 30  1  0
 29 27  1  0
 31 32  2  0
 32 22  1  0
 33 29  2  0
M  END
$$$$
