ERY.pdb
     RDKit          3D

 33 33  0  0  1  0  0  0  0  0999 V2000
   27.3927  -16.6985  -20.4974 N   0  0  0  0  0  0  0  0  0  0  0  0
   26.6712  -16.8049  -19.2630 C   0  0  1  0  0  0  0  0  0  0  0  0
   25.3686  -16.0898  -19.1915 C   0  0  0  0  0  0  0  0  0  0  0  0
   24.5040  -16.3529  -18.0203 C   0  0  0  0  0  0  0  0  0  0  0  0
   23.2070  -15.6795  -18.1033 C   0  0  0  0  0  0  0  0  0  0  0  0
   22.7713  -14.9517  -17.2135 O   0  0  0  0  0  0  0  0  0  0  0  0
   26.4769  -18.2733  -18.9782 C   0  0  0  0  0  0  0  0  0  0  0  0
   25.7866  -18.9469  -19.7541 O   0  0  0  0  0  0  0  0  0  0  0  0
   22.4288  -15.8821  -19.2638 O   0  0  0  0  0  0  0  0  0  0  0  0
   29.1855  -25.4351  -16.4566 N   0  0  0  0  0  0  0  0  0  0  0  0
   29.9207  -24.7556  -17.4753 C   0  0  0  0  0  0  0  0  0  0  0  0
   30.3539  -25.4431  -18.4961 N   0  0  0  0  0  0  0  0  0  0  0  0
   30.1394  -23.3768  -17.3248 N   0  0  0  0  0  0  0  0  0  0  0  0
   29.5552  -22.6736  -16.2295 C   0  0  0  0  0  0  0  0  0  0  0  0
   28.1268  -22.2075  -16.5025 C   0  0  0  0  0  0  0  0  0  0  0  0
   28.2441  -20.7699  -16.9727 C   0  0  0  0  0  0  0  0  0  0  0  0
   26.9399  -20.2075  -17.4621 C   0  0  2  0  0  0  0  0  0  0  0  0
   27.0990  -18.8179  -17.8263 N   0  0  0  0  0  0  0  0  0  0  0  0
   25.9581  -20.3351  -16.3478 C   0  0  0  0  0  0  0  0  0  0  0  0
   26.2037  -19.8964  -15.1931 O   0  0  0  0  0  0  0  0  0  0  0  0
   30.9594  -24.9992  -19.2148 O   0  0  0  0  0  0  0  0  0  0  0  0
   19.3512  -19.9764  -11.1387 C   0  0  0  0  0  0  0  0  0  0  0  0
   20.3661  -19.9132  -12.0948 C   0  0  0  0  0  0  0  0  0  0  0  0
   20.0786  -19.7100  -13.4403 C   0  0  0  0  0  0  0  0  0  0  0  0
   21.0863  -19.6510  -14.3698 C   0  0  0  0  0  0  0  0  0  0  0  0
   22.3940  -19.7974  -13.9408 C   0  0  0  0  0  0  0  0  0  0  0  0
   23.4712  -19.7448  -14.9406 C   0  0  1  0  0  0  0  0  0  0  0  0
   23.7643  -21.1276  -15.4379 N   0  0  0  0  0  0  0  0  0  0  0  0
   24.7053  -20.9618  -16.5572 C   0  0  0  0  0  0  0  0  0  0  0  0
   22.5652  -21.8219  -15.9601 O   0  0  0  0  0  0  0  0  0  0  0  0
   21.8128  -22.6980  -15.1518 C   0  0  0  0  0  0  0  0  0  0  0  0
   22.6780  -19.9989  -12.6055 C   0  0  0  0  0  0  0  0  0  0  0  0
   21.6701  -20.0603  -11.6592 O   0  0  0  0  0  0  0  0  0  0  0  0
  2  3  1  0
  2  1  1  6
  3  4  1  0
  4  5  1  0
  5  6  2  0
  7  2  1  0
  7 18  1  0
  8  7  2  0
  9  5  1  0
 10 11  1  0
 11 12  2  0
 13 11  1  0
 13 14  1  0
 15 16  1  0
 15 14  1  0
 17 16  1  1
 17 18  1  0
 17 19  1  0
 19 20  2  0
 19 28  1  0
 22 21  1  0
 23 22  2  0
 24 23  1  0
 25 24  2  0
 25 31  1  0
 26 25  1  0
 27 26  1  1
 28 27  1  0
 29 30  1  0
 29 27  1  0
 31 32  2  0
 32 22  1  0
 33 29  2  0
M  END
$$$$
