ERY.pdb
     RDKit          3D

 33 33  0  0  1  0  0  0  0  0999 V2000
   25.2923  -16.0889  -19.5308 N   0  0  0  0  0  0  0  0  0  0  0  0
   25.0622  -17.2473  -20.3437 C   0  0  1  0  0  0  0  0  0  0  0  0
   26.1004  -17.5605  -21.3623 C   0  0  0  0  0  0  0  0  0  0  0  0
   27.5050  -17.2312  -21.0352 C   0  0  0  0  0  0  0  0  0  0  0  0
   28.2939  -16.8573  -22.2102 C   0  0  0  0  0  0  0  0  0  0  0  0
   27.8308  -16.8333  -23.3487 O   0  0  0  0  0  0  0  0  0  0  0  0
   24.8715  -18.4205  -19.4150 C   0  0  0  0  0  0  0  0  0  0  0  0
   24.6019  -19.5280  -19.8978 O   0  0  0  0  0  0  0  0  0  0  0  0
   29.6483  -16.5098  -22.0150 O   0  0  0  0  0  0  0  0  0  0  0  0
   24.9246  -20.3934  -11.5985 N   0  0  0  0  0  0  0  0  0  0  0  0
   26.0540  -21.2285  -11.8580 C   0  0  0  0  0  0  0  0  0  0  0  0
   26.2749  -22.2427  -11.0675 N   0  0  0  0  0  0  0  0  0  0  0  0
   26.8711  -20.9133  -12.9556 N   0  0  0  0  0  0  0  0  0  0  0  0
   26.5914  -19.7618  -13.7502 C   0  0  0  0  0  0  0  0  0  0  0  0
   25.4492  -19.9738  -14.7416 C   0  0  0  0  0  0  0  0  0  0  0  0
   25.8504  -19.2271  -15.9998 C   0  0  0  0  0  0  0  0  0  0  0  0
   24.7842  -19.2513  -17.0578 C   0  0  2  0  0  0  0  0  0  0  0  0
   25.0112  -18.1984  -18.0216 N   0  0  0  0  0  0  0  0  0  0  0  0
   23.4769  -19.0442  -16.3723 C   0  0  0  0  0  0  0  0  0  0  0  0
   23.1602  -17.9344  -15.8682 O   0  0  0  0  0  0  0  0  0  0  0  0
   27.0289  -22.9255  -11.2805 O   0  0  0  0  0  0  0  0  0  0  0  0
   19.9179  -15.0045  -19.2507 C   0  0  0  0  0  0  0  0  0  0  0  0
   19.9790  -16.2307  -18.5868 C   0  0  0  0  0  0  0  0  0  0  0  0
   19.4679  -16.3822  -17.3023 C   0  0  0  0  0  0  0  0  0  0  0  0
   19.5356  -17.5935  -16.6609 C   0  0  0  0  0  0  0  0  0  0  0  0
   20.1223  -18.6606  -17.3186 C   0  0  0  0  0  0  0  0  0  0  0  0
   20.2034  -19.9546  -16.6246 C   0  0  2  0  0  0  0  0  0  0  0  0
   21.2633  -19.8930  -15.5672 N   0  0  0  0  0  0  0  0  0  0  0  0
   22.5415  -20.1025  -16.2658 C   0  0  0  0  0  0  0  0  0  0  0  0
   21.1292  -20.9601  -14.5494 O   0  0  0  0  0  0  0  0  0  0  0  0
   22.1310  -21.9355  -14.3705 C   0  0  0  0  0  0  0  0  0  0  0  0
   20.6289  -18.5090  -18.5932 C   0  0  0  0  0  0  0  0  0  0  0  0
   20.5664  -17.2924  -19.2498 O   0  0  0  0  0  0  0  0  0  0  0  0
  2  3  1  0
  2  1  1  1
  3  4  1  0
  4  5  1  0
  5  6  2  0
  7  2  1  0
  7 18  1  0
  8  7  2  0
  9  5  1  0
 10 11  1  0
 11 12  2  0
 13 11  1  0
 13 14  1  0
 15 16  1  0
 15 14  1  0
 17 16  1  1
 17 18  1  0
 17 19  1  0
 19 20  2  0
 19 28  1  0
 22 21  1  0
 23 22  2  0
 24 23  1  0
 25 24  2  0
 25 31  1  0
 26 25  1  0
 27 26  1  6
 28 27  1  0
 29 30  1  0
 29 27  1  0
 31 32  2  0
 32 22  1  0
 33 29  2  0
M  END
$$$$
