ERY.pdb
     RDKit          3D

 33 33  0  0  1  0  0  0  0  0999 V2000
   28.0413  -21.2226  -15.5412 N   0  0  0  0  0  0  0  0  0  0  0  0
   28.2584  -19.9018  -15.0273 C   0  0  1  0  0  0  0  0  0  0  0  0
   28.1759  -18.7859  -16.0078 C   0  0  0  0  0  0  0  0  0  0  0  0
   27.8482  -19.1262  -17.4096 C   0  0  0  0  0  0  0  0  0  0  0  0
   29.0347  -19.2965  -18.2498 C   0  0  0  0  0  0  0  0  0  0  0  0
   29.8610  -18.4046  -18.4318 O   0  0  0  0  0  0  0  0  0  0  0  0
   27.2729  -19.6855  -13.9061 C   0  0  0  0  0  0  0  0  0  0  0  0
   27.2489  -18.5879  -13.3342 O   0  0  0  0  0  0  0  0  0  0  0  0
   29.2293  -20.5473  -18.8750 O   0  0  0  0  0  0  0  0  0  0  0  0
   23.3817  -23.9950  -15.8388 N   0  0  0  0  0  0  0  0  0  0  0  0
   23.5406  -24.5827  -14.5468 C   0  0  0  0  0  0  0  0  0  0  0  0
   24.1530  -25.7312  -14.4546 N   0  0  0  0  0  0  0  0  0  0  0  0
   23.0278  -23.8906  -13.4379 N   0  0  0  0  0  0  0  0  0  0  0  0
   22.4270  -22.6079  -13.6087 C   0  0  0  0  0  0  0  0  0  0  0  0
   23.4422  -21.4693  -13.6818 C   0  0  0  0  0  0  0  0  0  0  0  0
   24.4329  -21.7265  -12.5621 C   0  0  0  0  0  0  0  0  0  0  0  0
   25.4832  -20.6579  -12.4550 C   0  0  2  0  0  0  0  0  0  0  0  0
   26.4131  -20.7576  -13.5569 N   0  0  0  0  0  0  0  0  0  0  0  0
   26.1965  -20.8675  -11.1631 C   0  0  0  0  0  0  0  0  0  0  0  0
   27.3819  -21.2908  -11.1204 O   0  0  0  0  0  0  0  0  0  0  0  0
   24.3150  -26.1719  -13.5276 O   0  0  0  0  0  0  0  0  0  0  0  0
   29.9201  -19.5803   -3.7092 C   0  0  0  0  0  0  0  0  0  0  0  0
   29.3144  -19.6609   -4.9640 C   0  0  0  0  0  0  0  0  0  0  0  0
   28.2135  -18.8745   -5.2861 C   0  0  0  0  0  0  0  0  0  0  0  0
   27.6272  -18.9648   -6.5234 C   0  0  0  0  0  0  0  0  0  0  0  0
   28.1541  -19.8539   -7.4440 C   0  0  0  0  0  0  0  0  0  0  0  0
   27.5171  -19.9565   -8.7654 C   0  0  1  0  0  0  0  0  0  0  0  0
   26.2743  -20.7873   -8.6618 N   0  0  0  0  0  0  0  0  0  0  0  0
   25.5541  -20.5943   -9.9307 C   0  0  0  0  0  0  0  0  0  0  0  0
   25.3767  -20.3534   -7.5670 O   0  0  0  0  0  0  0  0  0  0  0  0
   25.5220  -20.8512   -6.2563 C   0  0  0  0  0  0  0  0  0  0  0  0
   29.2466  -20.6336   -7.1233 C   0  0  0  0  0  0  0  0  0  0  0  0
   29.8460  -20.5512   -5.8787 O   0  0  0  0  0  0  0  0  0  0  0  0
  2  3  1  0
  2  1  1  6
  3  4  1  0
  4  5  1  0
  5  6  2  0
  7  2  1  0
  7 18  1  0
  8  7  2  0
  9  5  1  0
 10 11  1  0
 11 12  2  0
 13 11  1  0
 13 14  1  0
 15 16  1  0
 15 14  1  0
 17 16  1  6
 17 18  1  0
 17 19  1  0
 19 20  2  0
 19 28  1  0
 22 21  1  0
 23 22  2  0
 24 23  1  0
 25 24  2  0
 25 31  1  0
 26 25  1  0
 27 26  1  6
 28 27  1  0
 29 30  1  0
 29 27  1  0
 31 32  2  0
 32 22  1  0
 33 29  2  0
M  END
$$$$
