ERY.pdb
     RDKit          3D

 33 33  0  0  1  0  0  0  0  0999 V2000
   25.6523  -20.2928  -16.2680 N   0  0  0  0  0  0  0  0  0  0  0  0
   26.5780  -20.4997  -15.1929 C   0  0  1  0  0  0  0  0  0  0  0  0
   27.9443  -19.9402  -15.3762 C   0  0  0  0  0  0  0  0  0  0  0  0
   28.6968  -20.3467  -16.5832 C   0  0  0  0  0  0  0  0  0  0  0  0
   28.6866  -21.7938  -16.8038 C   0  0  0  0  0  0  0  0  0  0  0  0
   28.2430  -22.3129  -17.8261 O   0  0  0  0  0  0  0  0  0  0  0  0
   25.9488  -19.9412  -13.9410 C   0  0  0  0  0  0  0  0  0  0  0  0
   25.9356  -18.7147  -13.7740 O   0  0  0  0  0  0  0  0  0  0  0  0
   29.2136  -22.6220  -15.7892 O   0  0  0  0  0  0  0  0  0  0  0  0
   19.8617  -21.6892  -14.6958 N   0  0  0  0  0  0  0  0  0  0  0  0
   20.2873  -22.7673  -13.8611 C   0  0  0  0  0  0  0  0  0  0  0  0
   20.0722  -23.9899  -14.2627 N   0  0  0  0  0  0  0  0  0  0  0  0
   20.9184  -22.4539  -12.6465 N   0  0  0  0  0  0  0  0  0  0  0  0
   21.1600  -21.0925  -12.2946 C   0  0  0  0  0  0  0  0  0  0  0  0
   22.5449  -20.5978  -12.7064 C   0  0  0  0  0  0  0  0  0  0  0  0
   23.4669  -20.9426  -11.5521 C   0  0  0  0  0  0  0  0  0  0  0  0
   24.8601  -20.4128  -11.7395 C   0  0  2  0  0  0  0  0  0  0  0  0
   25.3974  -20.8541  -13.0066 N   0  0  0  0  0  0  0  0  0  0  0  0
   25.6887  -20.9435  -10.6198 C   0  0  0  0  0  0  0  0  0  0  0  0
   25.6276  -22.1496  -10.2625 O   0  0  0  0  0  0  0  0  0  0  0  0
   20.4067  -24.7981  -13.7015 O   0  0  0  0  0  0  0  0  0  0  0  0
   29.2509  -19.9479   -2.6977 C   0  0  0  0  0  0  0  0  0  0  0  0
   28.9266  -19.8102   -4.0482 C   0  0  0  0  0  0  0  0  0  0  0  0
   29.4840  -20.6425   -5.0129 C   0  0  0  0  0  0  0  0  0  0  0  0
   29.1569  -20.4952   -6.3374 C   0  0  0  0  0  0  0  0  0  0  0  0
   28.2610  -19.5021   -6.6931 C   0  0  0  0  0  0  0  0  0  0  0  0
   27.9207  -19.3394   -8.1145 C   0  0  1  0  0  0  0  0  0  0  0  0
   26.9431  -20.3992   -8.5224 N   0  0  0  0  0  0  0  0  0  0  0  0
   26.5793  -20.0964   -9.9159 C   0  0  0  0  0  0  0  0  0  0  0  0
   25.6985  -20.3793   -7.7203 O   0  0  0  0  0  0  0  0  0  0  0  0
   25.4903  -21.2886   -6.6636 C   0  0  0  0  0  0  0  0  0  0  0  0
   27.7084  -18.6770   -5.7349 C   0  0  0  0  0  0  0  0  0  0  0  0
   28.0309  -18.8161   -4.3963 O   0  0  0  0  0  0  0  0  0  0  0  0
  2  3  1  0
  2  1  1  6
  3  4  1  0
  4  5  1  0
  5  6  2  0
  7  2  1  0
  7 18  1  0
  8  7  2  0
  9  5  1  0
 10 11  1  0
 11 12  2  0
 13 11  1  0
 13 14  1  0
 15 16  1  0
 15 14  1  0
 17 16  1  1
 17 18  1  0
 17 19  1  0
 19 20  2  0
 19 28  1  0
 22 21  1  0
 23 22  2  0
 24 23  1  0
 25 24  2  0
 25 31  1  0
 26 25  1  0
 27 26  1  6
 28 27  1  0
 29 30  1  0
 29 27  1  0
 31 32  2  0
 32 22  1  0
 33 29  2  0
M  END
$$$$
