THR.pdb
     RDKit          3D

 29 29  0  0  1  0  0  0  0  0999 V2000
   12.7089  -12.2026  -13.5579 C   0  0  0  0  0  0  0  0  0  0  0  0
   13.4077  -11.1450  -12.7644 C   0  0  1  0  0  0  0  0  0  0  0  0
   12.6849  -10.7213  -11.6482 O   0  0  0  0  0  0  0  0  0  0  0  0
   14.7229  -11.7449  -12.2502 C   0  0  2  0  0  0  0  0  0  0  0  0
   14.4659  -12.6508  -11.1455 N   0  0  0  0  0  0  0  0  0  0  0  0
   15.5649  -10.5945  -11.8305 C   0  0  0  0  0  0  0  0  0  0  0  0
   15.5847  -10.1636  -10.6498 O   0  0  0  0  0  0  0  0  0  0  0  0
   16.3677   -9.9815  -12.8329 N   0  0  0  0  0  0  0  0  0  0  0  0
   17.2854   -8.9201  -12.5620 C   0  0  1  0  0  0  0  0  0  0  0  0
   18.2309   -8.6636  -13.7117 C   0  0  0  0  0  0  0  0  0  0  0  0
   19.2327   -7.6189  -13.3823 C   0  0  0  0  0  0  0  0  0  0  0  0
   19.3149   -6.9530  -12.1717 C   0  0  0  0  0  0  0  0  0  0  0  0
   20.3467   -6.0711  -12.2277 N   0  0  0  0  0  0  0  0  0  0  0  0
   20.8997   -6.1718  -13.4273 C   0  0  0  0  0  0  0  0  0  0  0  0
   20.2262   -7.1070  -14.1243 N   0  0  0  0  0  0  0  0  0  0  0  0
   16.5082   -7.6865  -12.2566 C   0  0  0  0  0  0  0  0  0  0  0  0
   15.5027   -7.3730  -12.9574 O   0  0  0  0  0  0  0  0  0  0  0  0
   13.4281   -4.0403   -4.9470 N   0  0  0  0  0  0  0  0  0  0  0  0
   13.0311   -3.1503   -5.9721 C   0  0  0  0  0  0  0  0  0  0  0  0
   12.2403   -2.1730   -5.7769 N   0  0  0  0  0  0  0  0  0  0  0  0
   13.5406   -3.3639   -7.2699 N   0  0  0  0  0  0  0  0  0  0  0  0
   14.4493   -4.4457   -7.5961 C   0  0  0  0  0  0  0  0  0  0  0  0
   14.8122   -4.4380   -9.0656 C   0  0  0  0  0  0  0  0  0  0  0  0
   15.6725   -5.5986   -9.4310 C   0  0  0  0  0  0  0  0  0  0  0  0
   16.0521   -5.6660  -10.8923 C   0  0  2  0  0  0  0  0  0  0  0  0
   16.8582   -6.8255  -11.1840 N   0  0  0  0  0  0  0  0  0  0  0  0
   16.6771   -4.4162  -11.3696 C   0  0  0  0  0  0  0  0  0  0  0  0
   17.6822   -3.9250  -10.8257 O   0  0  0  0  0  0  0  0  0  0  0  0
   16.1368   -3.7595  -12.4567 O   0  0  0  0  0  0  0  0  0  0  0  0
  2  1  1  1
  2  3  1  0
  4  2  1  0
  4  5  1  1
  6  4  1  0
  7  6  2  0
  8  6  1  0
  9  8  1  0
 10 11  1  0
  9 10  1  6
 11 15  1  0
 12 11  2  0
 12 13  1  0
 13 14  1  0
 15 14  2  0
 16  9  1  0
 16 17  2  0
 19 18  1  0
 20 19  2  0
 21 19  1  0
 22 21  1  0
 23 22  1  0
 25 24  1  1
 24 23  1  0
 25 26  1  0
 26 16  1  0
 27 25  1  0
 28 27  2  0
 29 27  1  0
M  END
$$$$
