THR.pdb
     RDKit          3D

 29 29  0  0  1  0  0  0  0  0999 V2000
   25.9196  -28.2442  -17.6396 C   0  0  0  0  0  0  0  0  0  0  0  0
   25.7259  -26.8659  -17.0926 C   0  0  1  0  0  0  0  0  0  0  0  0
   25.4383  -26.8470  -15.7271 O   0  0  0  0  0  0  0  0  0  0  0  0
   27.0414  -26.1009  -17.2882 C   0  0  2  0  0  0  0  0  0  0  0  0
   28.0936  -26.6932  -16.4824 N   0  0  0  0  0  0  0  0  0  0  0  0
   26.7665  -24.6974  -16.8841 C   0  0  0  0  0  0  0  0  0  0  0  0
   27.2949  -24.1664  -15.8747 O   0  0  0  0  0  0  0  0  0  0  0  0
   25.8639  -23.9559  -17.6968 N   0  0  0  0  0  0  0  0  0  0  0  0
   25.5235  -22.5908  -17.4463 C   0  0  1  0  0  0  0  0  0  0  0  0
   24.6883  -21.9893  -18.5517 C   0  0  0  0  0  0  0  0  0  0  0  0
   25.0677  -20.5812  -18.8288 C   0  0  0  0  0  0  0  0  0  0  0  0
   25.9987  -19.8543  -18.1072 C   0  0  0  0  0  0  0  0  0  0  0  0
   26.0890  -18.6085  -18.6413 N   0  0  0  0  0  0  0  0  0  0  0  0
   25.2483  -18.5449  -19.6631 C   0  0  0  0  0  0  0  0  0  0  0  0
   24.6317  -19.7369  -19.7758 N   0  0  0  0  0  0  0  0  0  0  0  0
   24.7881  -22.5144  -16.1529 C   0  0  0  0  0  0  0  0  0  0  0  0
   23.8739  -23.3469  -15.8857 O   0  0  0  0  0  0  0  0  0  0  0  0
   26.8567  -19.4077   -8.0495 N   0  0  0  0  0  0  0  0  0  0  0  0
   25.6259  -20.0892   -7.9034 C   0  0  0  0  0  0  0  0  0  0  0  0
   25.0802  -20.3048   -6.7746 N   0  0  0  0  0  0  0  0  0  0  0  0
   24.9795  -20.5486   -9.0698 N   0  0  0  0  0  0  0  0  0  0  0  0
   25.5994  -20.5251  -10.3804 C   0  0  0  0  0  0  0  0  0  0  0  0
   24.6485  -21.0179  -11.4501 C   0  0  0  0  0  0  0  0  0  0  0  0
   25.3085  -21.1027  -12.7834 C   0  0  0  0  0  0  0  0  0  0  0  0
   24.3969  -21.5267  -13.9118 C   0  0  2  0  0  0  0  0  0  0  0  0
   25.0781  -21.5200  -15.1826 N   0  0  0  0  0  0  0  0  0  0  0  0
   23.1432  -20.7474  -13.9453 C   0  0  0  0  0  0  0  0  0  0  0  0
   22.2112  -20.9515  -13.1471 O   0  0  0  0  0  0  0  0  0  0  0  0
   22.9866  -19.7543  -14.8910 O   0  0  0  0  0  0  0  0  0  0  0  0
  2  1  1  1
  2  3  1  0
  4  2  1  0
  4  5  1  1
  6  4  1  0
  7  6  2  0
  8  6  1  0
  9  8  1  0
 10 11  1  0
  9 10  1  6
 11 15  1  0
 12 11  2  0
 12 13  1  0
 13 14  1  0
 15 14  2  0
 16  9  1  0
 16 17  2  0
 19 18  1  0
 20 19  2  0
 21 19  1  0
 22 21  1  0
 23 22  1  0
 25 24  1  1
 24 23  1  0
 25 26  1  0
 26 16  1  0
 27 25  1  0
 28 27  2  0
 29 27  1  0
M  END
$$$$
