THR.pdb
     RDKit          3D

 29 29  0  0  1  0  0  0  0  0999 V2000
   29.6304   -8.8262  -16.9119 C   0  0  0  0  0  0  0  0  0  0  0  0
   30.5618   -8.8162  -18.0819 C   0  0  1  0  0  0  0  0  0  0  0  0
   31.6828   -8.0071  -17.8907 O   0  0  0  0  0  0  0  0  0  0  0  0
   31.0684  -10.2504  -18.2829 C   0  0  2  0  0  0  0  0  0  0  0  0
   32.0445  -10.2945  -19.3565 N   0  0  0  0  0  0  0  0  0  0  0  0
   29.8701  -11.0708  -18.5983 C   0  0  0  0  0  0  0  0  0  0  0  0
   29.3924  -11.1559  -19.7579 O   0  0  0  0  0  0  0  0  0  0  0  0
   29.2662  -11.7744  -17.5188 N   0  0  0  0  0  0  0  0  0  0  0  0
   28.1454  -12.6461  -17.6802 C   0  0  1  0  0  0  0  0  0  0  0  0
   28.2879  -13.9260  -16.8909 C   0  0  0  0  0  0  0  0  0  0  0  0
   29.1292  -14.9228  -17.5994 C   0  0  0  0  0  0  0  0  0  0  0  0
   29.7895  -14.6965  -18.7947 C   0  0  0  0  0  0  0  0  0  0  0  0
   30.4585  -15.8259  -19.1445 N   0  0  0  0  0  0  0  0  0  0  0  0
   30.2329  -16.7357  -18.2083 C   0  0  0  0  0  0  0  0  0  0  0  0
   29.4297  -16.1894  -17.2753 N   0  0  0  0  0  0  0  0  0  0  0  0
   26.9148  -11.9210  -17.2570 C   0  0  0  0  0  0  0  0  0  0  0  0
   26.8708  -11.3328  -16.1378 O   0  0  0  0  0  0  0  0  0  0  0  0
   22.4151   -6.5520  -21.8849 N   0  0  0  0  0  0  0  0  0  0  0  0
   23.3139   -6.2633  -20.8316 C   0  0  0  0  0  0  0  0  0  0  0  0
   24.0251   -5.2092  -20.7937 N   0  0  0  0  0  0  0  0  0  0  0  0
   23.4210   -7.1940  -19.7772 N   0  0  0  0  0  0  0  0  0  0  0  0
   22.6374   -8.4124  -19.7134 C   0  0  0  0  0  0  0  0  0  0  0  0
   23.0356   -9.2636  -18.5266 C   0  0  0  0  0  0  0  0  0  0  0  0
   24.2413  -10.0900  -18.8159 C   0  0  0  0  0  0  0  0  0  0  0  0
   24.6438  -11.0286  -17.7018 C   0  0  2  0  0  0  0  0  0  0  0  0
   25.7592  -11.8611  -18.0788 N   0  0  0  0  0  0  0  0  0  0  0  0
   23.5047  -11.8175  -17.1915 C   0  0  0  0  0  0  0  0  0  0  0  0
   23.3920  -13.0379  -17.4042 O   0  0  0  0  0  0  0  0  0  0  0  0
   22.5230  -11.1909  -16.4509 O   0  0  0  0  0  0  0  0  0  0  0  0
  2  1  1  1
  2  3  1  0
  4  2  1  0
  4  5  1  6
  6  4  1  0
  7  6  2  0
  8  6  1  0
  9  8  1  0
 10 11  1  0
  9 10  1  1
 11 15  1  0
 12 11  2  0
 12 13  1  0
 13 14  1  0
 15 14  2  0
 16  9  1  0
 16 17  2  0
 19 18  1  0
 20 19  2  0
 21 19  1  0
 22 21  1  0
 23 22  1  0
 25 24  1  6
 24 23  1  0
 25 26  1  0
 26 16  1  0
 27 25  1  0
 28 27  2  0
 29 27  1  0
M  END
$$$$
