THR.pdb
     RDKit          3D

 29 29  0  0  1  0  0  0  0  0999 V2000
   34.5125  -35.7834   -4.4607 C   0  0  0  0  0  0  0  0  0  0  0  0
   33.9458  -36.8288   -5.3677 C   0  0  1  0  0  0  0  0  0  0  0  0
   33.0483  -37.6872   -4.7311 O   0  0  0  0  0  0  0  0  0  0  0  0
   33.1713  -36.1077   -6.4785 C   0  0  2  0  0  0  0  0  0  0  0  0
   34.0419  -35.1833   -7.1818 N   0  0  0  0  0  0  0  0  0  0  0  0
   32.0497  -35.4006   -5.8073 C   0  0  0  0  0  0  0  0  0  0  0  0
   32.2254  -34.6051   -4.8501 O   0  0  0  0  0  0  0  0  0  0  0  0
   30.7382  -35.6594   -6.2953 N   0  0  0  0  0  0  0  0  0  0  0  0
   29.5817  -34.9467   -5.8520 C   0  0  1  0  0  0  0  0  0  0  0  0
   28.5323  -34.8162   -6.9304 C   0  0  0  0  0  0  0  0  0  0  0  0
   27.3780  -33.9967   -6.4836 C   0  0  0  0  0  0  0  0  0  0  0  0
   27.2261  -33.4668   -5.2140 C   0  0  0  0  0  0  0  0  0  0  0  0
   26.0566  -32.7773   -5.1658 N   0  0  0  0  0  0  0  0  0  0  0  0
   25.4863  -32.8649   -6.3583 C   0  0  0  0  0  0  0  0  0  0  0  0
   26.2851  -33.6017   -7.1539 N   0  0  0  0  0  0  0  0  0  0  0  0
   29.0126  -35.6529   -4.6702 C   0  0  0  0  0  0  0  0  0  0  0  0
   28.8234  -36.9034   -4.7010 O   0  0  0  0  0  0  0  0  0  0  0  0
   31.2629  -37.0839    3.3964 N   0  0  0  0  0  0  0  0  0  0  0  0
   30.0321  -37.7699    3.2737 C   0  0  0  0  0  0  0  0  0  0  0  0
   29.5975  -38.5811    4.1522 N   0  0  0  0  0  0  0  0  0  0  0  0
   29.2558  -37.5381    2.1192 N   0  0  0  0  0  0  0  0  0  0  0  0
   29.7260  -36.7561    0.9923 C   0  0  0  0  0  0  0  0  0  0  0  0
   28.6527  -36.6107   -0.0653 C   0  0  0  0  0  0  0  0  0  0  0  0
   29.1428  -35.8565   -1.2533 C   0  0  0  0  0  0  0  0  0  0  0  0
   28.1227  -35.6850   -2.3553 C   0  0  2  0  0  0  0  0  0  0  0  0
   28.6645  -34.9630   -3.4797 N   0  0  0  0  0  0  0  0  0  0  0  0
   26.8608  -35.0941   -1.8669 C   0  0  0  0  0  0  0  0  0  0  0  0
   26.6707  -33.8652   -1.8329 O   0  0  0  0  0  0  0  0  0  0  0  0
   25.8478  -35.9233   -1.4296 O   0  0  0  0  0  0  0  0  0  0  0  0
  2  1  1  1
  2  3  1  0
  4  2  1  0
  4  5  1  1
  6  4  1  0
  7  6  2  0
  8  6  1  0
  9  8  1  0
 10 11  1  0
  9 10  1  6
 11 15  1  0
 12 11  2  0
 12 13  1  0
 13 14  1  0
 15 14  2  0
 16  9  1  0
 16 17  2  0
 19 18  1  0
 20 19  2  0
 21 19  1  0
 22 21  1  0
 23 22  1  0
 25 24  1  1
 24 23  1  0
 25 26  1  0
 26 16  1  0
 27 25  1  0
 28 27  2  0
 29 27  1  0
M  END
$$$$
