THR.pdb
     RDKit          3D

 29 29  0  0  1  0  0  0  0  0999 V2000
   27.0312  -16.4981  -15.8298 C   0  0  0  0  0  0  0  0  0  0  0  0
   25.9788  -15.6448  -16.4630 C   0  0  1  0  0  0  0  0  0  0  0  0
   26.4615  -14.8518  -17.5051 O   0  0  0  0  0  0  0  0  0  0  0  0
   24.9208  -16.5816  -17.0605 C   0  0  2  0  0  0  0  0  0  0  0  0
   23.8908  -15.8131  -17.7358 N   0  0  0  0  0  0  0  0  0  0  0  0
   24.3663  -17.3579  -15.9210 C   0  0  0  0  0  0  0  0  0  0  0  0
   23.6136  -16.8461  -15.0541 O   0  0  0  0  0  0  0  0  0  0  0  0
   24.7236  -18.7331  -15.8413 N   0  0  0  0  0  0  0  0  0  0  0  0
   24.2402  -19.6110  -14.8227 C   0  0  1  0  0  0  0  0  0  0  0  0
   23.8547  -20.9682  -15.3620 C   0  0  0  0  0  0  0  0  0  0  0  0
   22.5194  -20.9477  -16.0101 C   0  0  0  0  0  0  0  0  0  0  0  0
   21.6798  -19.8486  -16.0612 C   0  0  0  0  0  0  0  0  0  0  0  0
   20.5486  -20.1940  -16.7295 N   0  0  0  0  0  0  0  0  0  0  0  0
   20.6637  -21.4636  -17.0897 C   0  0  0  0  0  0  0  0  0  0  0  0
   21.8545  -21.9183  -16.6547 N   0  0  0  0  0  0  0  0  0  0  0  0
   25.2957  -19.7575  -13.7816 C   0  0  0  0  0  0  0  0  0  0  0  0
   26.5158  -19.8171  -14.1104 O   0  0  0  0  0  0  0  0  0  0  0  0
   20.6024  -20.7288   -8.7868 N   0  0  0  0  0  0  0  0  0  0  0  0
   21.4820  -21.3138   -7.8463 C   0  0  0  0  0  0  0  0  0  0  0  0
   21.0950  -21.7762   -6.7261 N   0  0  0  0  0  0  0  0  0  0  0  0
   22.8522  -21.3837   -8.1737 N   0  0  0  0  0  0  0  0  0  0  0  0
   23.3760  -21.0110   -9.4734 C   0  0  0  0  0  0  0  0  0  0  0  0
   24.8875  -21.0883   -9.5025 C   0  0  0  0  0  0  0  0  0  0  0  0
   25.4982  -19.8269  -10.0090 C   0  0  0  0  0  0  0  0  0  0  0  0
   26.0355  -19.9091  -11.4192 C   0  0  2  0  0  0  0  0  0  0  0  0
   24.9810  -19.8353  -12.3999 N   0  0  0  0  0  0  0  0  0  0  0  0
   26.9063  -21.0842  -11.6219 C   0  0  0  0  0  0  0  0  0  0  0  0
   26.4901  -22.1415  -12.1282 O   0  0  0  0  0  0  0  0  0  0  0  0
   28.2313  -21.0208  -11.2405 O   0  0  0  0  0  0  0  0  0  0  0  0
  2  1  1  6
  2  3  1  0
  4  2  1  0
  4  5  1  1
  6  4  1  0
  7  6  2  0
  8  6  1  0
  9  8  1  0
 10 11  1  0
  9 10  1  6
 11 15  1  0
 12 11  2  0
 12 13  1  0
 13 14  1  0
 15 14  2  0
 16  9  1  0
 16 17  2  0
 19 18  1  0
 20 19  2  0
 21 19  1  0
 22 21  1  0
 23 22  1  0
 25 24  1  1
 24 23  1  0
 25 26  1  0
 26 16  1  0
 27 25  1  0
 28 27  2  0
 29 27  1  0
M  END
$$$$
