THR.pdb
     RDKit          3D

 29 29  0  0  1  0  0  0  0  0999 V2000
   29.5290  -23.0036  -18.4405 C   0  0  0  0  0  0  0  0  0  0  0  0
   28.5933  -23.1273  -17.2804 C   0  0  1  0  0  0  0  0  0  0  0  0
   29.2459  -23.2741  -16.0555 O   0  0  0  0  0  0  0  0  0  0  0  0
   27.7757  -21.8313  -17.2046 C   0  0  2  0  0  0  0  0  0  0  0  0
   28.6550  -20.6903  -17.0252 N   0  0  0  0  0  0  0  0  0  0  0  0
   26.8491  -21.9947  -16.0543 C   0  0  0  0  0  0  0  0  0  0  0  0
   25.9083  -22.8283  -16.0544 O   0  0  0  0  0  0  0  0  0  0  0  0
   27.0667  -21.1565  -14.9250 N   0  0  0  0  0  0  0  0  0  0  0  0
   26.2586  -21.2021  -13.7474 C   0  0  1  0  0  0  0  0  0  0  0  0
   26.8331  -20.3803  -12.6178 C   0  0  0  0  0  0  0  0  0  0  0  0
   26.0409  -20.5230  -11.3706 C   0  0  0  0  0  0  0  0  0  0  0  0
   24.8652  -21.2443  -11.2563 C   0  0  0  0  0  0  0  0  0  0  0  0
   24.4205  -21.1544   -9.9758 N   0  0  0  0  0  0  0  0  0  0  0  0
   25.2798  -20.4050   -9.3012 C   0  0  0  0  0  0  0  0  0  0  0  0
   26.2584  -20.0239  -10.1445 N   0  0  0  0  0  0  0  0  0  0  0  0
   24.8931  -20.7141  -14.0891 C   0  0  0  0  0  0  0  0  0  0  0  0
   24.7415  -19.6506  -14.7572 O   0  0  0  0  0  0  0  0  0  0  0  0
   16.9838  -23.5290  -15.5220 N   0  0  0  0  0  0  0  0  0  0  0  0
   17.1201  -22.5664  -16.5494 C   0  0  0  0  0  0  0  0  0  0  0  0
   16.1543  -22.2013  -17.2927 N   0  0  0  0  0  0  0  0  0  0  0  0
   18.3908  -21.9891  -16.7530 N   0  0  0  0  0  0  0  0  0  0  0  0
   19.6049  -22.5180  -16.1627 C   0  0  0  0  0  0  0  0  0  0  0  0
   20.2934  -21.4848  -15.2966 C   0  0  0  0  0  0  0  0  0  0  0  0
   21.6455  -21.9364  -14.8626 C   0  0  0  0  0  0  0  0  0  0  0  0
   22.4216  -20.9187  -14.0587 C   0  0  2  0  0  0  0  0  0  0  0  0
   23.7244  -21.4109  -13.6855 N   0  0  0  0  0  0  0  0  0  0  0  0
   21.6589  -20.4189  -12.8973 C   0  0  0  0  0  0  0  0  0  0  0  0
   21.9689  -20.7012  -11.7262 O   0  0  0  0  0  0  0  0  0  0  0  0
   20.5609  -19.6087  -13.1044 O   0  0  0  0  0  0  0  0  0  0  0  0
  2  1  1  6
  2  3  1  0
  4  2  1  0
  4  5  1  1
  6  4  1  0
  7  6  2  0
  8  6  1  0
  9  8  1  0
 10 11  1  0
  9 10  1  1
 11 15  1  0
 12 11  2  0
 12 13  1  0
 13 14  1  0
 15 14  2  0
 16  9  1  0
 16 17  2  0
 19 18  1  0
 20 19  2  0
 21 19  1  0
 22 21  1  0
 23 22  1  0
 25 24  1  1
 24 23  1  0
 25 26  1  0
 26 16  1  0
 27 25  1  0
 28 27  2  0
 29 27  1  0
M  END
$$$$
