THR.pdb
     RDKit          3D

 29 29  0  0  1  0  0  0  0  0999 V2000
   22.1070  -23.0167  -18.9236 C   0  0  0  0  0  0  0  0  0  0  0  0
   23.5119  -23.4420  -19.2098 C   0  0  1  0  0  0  0  0  0  0  0  0
   23.6639  -24.0482  -20.4577 O   0  0  0  0  0  0  0  0  0  0  0  0
   24.3865  -22.1815  -19.2099 C   0  0  2  0  0  0  0  0  0  0  0  0
   25.7572  -22.5190  -19.5484 N   0  0  0  0  0  0  0  0  0  0  0  0
   24.2853  -21.6090  -17.8423 C   0  0  0  0  0  0  0  0  0  0  0  0
   24.1258  -22.3212  -16.8189 O   0  0  0  0  0  0  0  0  0  0  0  0
   24.3774  -20.1936  -17.7257 N   0  0  0  0  0  0  0  0  0  0  0  0
   24.1897  -19.4944  -16.4937 C   0  0  1  0  0  0  0  0  0  0  0  0
   24.5925  -18.0415  -16.5844 C   0  0  0  0  0  0  0  0  0  0  0  0
   26.0601  -17.8824  -16.7404 C   0  0  0  0  0  0  0  0  0  0  0  0
   26.9821  -18.9115  -16.6594 C   0  0  0  0  0  0  0  0  0  0  0  0
   28.2257  -18.3996  -16.8516 N   0  0  0  0  0  0  0  0  0  0  0  0
   28.1001  -17.0954  -17.0474 C   0  0  0  0  0  0  0  0  0  0  0  0
   26.7916  -16.7837  -16.9800 N   0  0  0  0  0  0  0  0  0  0  0  0
   22.7571  -19.6023  -16.0998 C   0  0  0  0  0  0  0  0  0  0  0  0
   21.8420  -19.3650  -16.9404 O   0  0  0  0  0  0  0  0  0  0  0  0
   17.7377  -25.1697  -11.5969 N   0  0  0  0  0  0  0  0  0  0  0  0
   16.8572  -24.2788  -12.2540 C   0  0  0  0  0  0  0  0  0  0  0  0
   15.5958  -24.4421  -12.2821 N   0  0  0  0  0  0  0  0  0  0  0  0
   17.4125  -23.1588  -12.9072 N   0  0  0  0  0  0  0  0  0  0  0  0
   18.8401  -22.9217  -12.9976 C   0  0  0  0  0  0  0  0  0  0  0  0
   19.1377  -21.5685  -13.6072 C   0  0  0  0  0  0  0  0  0  0  0  0
   20.5884  -21.3998  -13.9029 C   0  0  0  0  0  0  0  0  0  0  0  0
   20.9681  -20.0384  -14.4382 C   0  0  2  0  0  0  0  0  0  0  0  0
   22.3658  -19.9697  -14.7859 N   0  0  0  0  0  0  0  0  0  0  0  0
   20.5628  -18.9447  -13.5327 C   0  0  0  0  0  0  0  0  0  0  0  0
   19.3696  -18.6747  -13.3076 O   0  0  0  0  0  0  0  0  0  0  0  0
   21.5324  -18.1871  -12.9073 O   0  0  0  0  0  0  0  0  0  0  0  0
  2  1  1  6
  2  3  1  0
  4  2  1  0
  4  5  1  1
  6  4  1  0
  7  6  2  0
  8  6  1  0
  9  8  1  0
 10 11  1  0
  9 10  1  6
 11 15  1  0
 12 11  2  0
 12 13  1  0
 13 14  1  0
 15 14  2  0
 16  9  1  0
 16 17  2  0
 19 18  1  0
 20 19  2  0
 21 19  1  0
 22 21  1  0
 23 22  1  0
 25 24  1  1
 24 23  1  0
 25 26  1  0
 26 16  1  0
 27 25  1  0
 28 27  2  0
 29 27  1  0
M  END
$$$$
