THR.pdb
     RDKit          3D

 29 29  0  0  1  0  0  0  0  0999 V2000
   47.3351  -15.1561   -6.1148 C   0  0  0  0  0  0  0  0  0  0  0  0
   48.7658  -15.3621   -6.4985 C   0  0  1  0  0  0  0  0  0  0  0  0
   49.6683  -14.9181   -5.5310 O   0  0  0  0  0  0  0  0  0  0  0  0
   48.9878  -16.8710   -6.6653 C   0  0  2  0  0  0  0  0  0  0  0  0
   50.3942  -17.1519   -6.8897 N   0  0  0  0  0  0  0  0  0  0  0  0
   48.1550  -17.2850   -7.8244 C   0  0  0  0  0  0  0  0  0  0  0  0
   48.5445  -17.1720   -9.0142 O   0  0  0  0  0  0  0  0  0  0  0  0
   46.8709  -17.8269   -7.5368 N   0  0  0  0  0  0  0  0  0  0  0  0
   45.9209  -18.1712   -8.5473 C   0  0  1  0  0  0  0  0  0  0  0  0
   44.9307  -19.2124   -8.0815 C   0  0  0  0  0  0  0  0  0  0  0  0
   44.2099  -19.8387   -9.2180 C   0  0  0  0  0  0  0  0  0  0  0  0
   44.3046  -19.4321  -10.5376 C   0  0  0  0  0  0  0  0  0  0  0  0
   43.5111  -20.2303  -11.2984 N   0  0  0  0  0  0  0  0  0  0  0  0
   42.9338  -21.1107  -10.4943 C   0  0  0  0  0  0  0  0  0  0  0  0
   43.3564  -20.8736   -9.2376 N   0  0  0  0  0  0  0  0  0  0  0  0
   45.2020  -16.9350   -8.9645 C   0  0  0  0  0  0  0  0  0  0  0  0
   45.0579  -15.9737   -8.1548 O   0  0  0  0  0  0  0  0  0  0  0  0
   42.8610  -10.0932   -7.0816 N   0  0  0  0  0  0  0  0  0  0  0  0
   42.9297   -9.7952   -8.4625 C   0  0  0  0  0  0  0  0  0  0  0  0
   42.8408   -8.6130   -8.9240 N   0  0  0  0  0  0  0  0  0  0  0  0
   43.1049  -10.8656   -9.3642 N   0  0  0  0  0  0  0  0  0  0  0  0
   43.2785  -12.2404   -8.9375 C   0  0  0  0  0  0  0  0  0  0  0  0
   43.6442  -13.1377  -10.1005 C   0  0  0  0  0  0  0  0  0  0  0  0
   43.9490  -14.5268   -9.6554 C   0  0  0  0  0  0  0  0  0  0  0  0
   44.3251  -15.4768  -10.7690 C   0  0  2  0  0  0  0  0  0  0  0  0
   44.6573  -16.7870  -10.2667 N   0  0  0  0  0  0  0  0  0  0  0  0
   45.3813  -14.9289  -11.6434 C   0  0  0  0  0  0  0  0  0  0  0  0
   46.4450  -15.5355  -11.8624 O   0  0  0  0  0  0  0  0  0  0  0  0
   45.1946  -13.7010  -12.2453 O   0  0  0  0  0  0  0  0  0  0  0  0
  2  1  1  1
  2  3  1  0
  4  2  1  0
  4  5  1  6
  6  4  1  0
  7  6  2  0
  8  6  1  0
  9  8  1  0
 10 11  1  0
  9 10  1  1
 11 15  1  0
 12 11  2  0
 12 13  1  0
 13 14  1  0
 15 14  2  0
 16  9  1  0
 16 17  2  0
 19 18  1  0
 20 19  2  0
 21 19  1  0
 22 21  1  0
 23 22  1  0
 25 24  1  1
 24 23  1  0
 25 26  1  0
 26 16  1  0
 27 25  1  0
 28 27  2  0
 29 27  1  0
M  END
$$$$
