THR.pdb
     RDKit          3D

 29 29  0  0  1  0  0  0  0  0999 V2000
   24.6611  -22.5659  -16.9917 C   0  0  0  0  0  0  0  0  0  0  0  0
   25.9014  -22.4115  -16.1705 C   0  0  1  0  0  0  0  0  0  0  0  0
   27.0572  -22.8369  -16.8271 O   0  0  0  0  0  0  0  0  0  0  0  0
   26.0756  -20.9168  -15.8712 C   0  0  2  0  0  0  0  0  0  0  0  0
   27.3320  -20.6837  -15.1822 N   0  0  0  0  0  0  0  0  0  0  0  0
   24.9115  -20.5251  -15.0346 C   0  0  0  0  0  0  0  0  0  0  0  0
   24.8315  -20.8025  -13.8113 O   0  0  0  0  0  0  0  0  0  0  0  0
   23.8647  -19.8081  -15.6791 N   0  0  0  0  0  0  0  0  0  0  0  0
   22.7656  -19.2248  -14.9764 C   0  0  1  0  0  0  0  0  0  0  0  0
   22.0890  -18.1289  -15.7654 C   0  0  0  0  0  0  0  0  0  0  0  0
   21.0377  -17.4438  -14.9723 C   0  0  0  0  0  0  0  0  0  0  0  0
   20.7085  -17.7472  -13.6626 C   0  0  0  0  0  0  0  0  0  0  0  0
   19.7071  -16.9215  -13.2616 N   0  0  0  0  0  0  0  0  0  0  0  0
   19.4104  -16.1235  -14.2766 C   0  0  0  0  0  0  0  0  0  0  0  0
   20.2146  -16.4396  -15.3097 N   0  0  0  0  0  0  0  0  0  0  0  0
   21.7854  -20.2987  -14.6521 C   0  0  0  0  0  0  0  0  0  0  0  0
   21.6081  -21.2658  -15.4481 O   0  0  0  0  0  0  0  0  0  0  0  0
   19.5168  -24.6805   -7.9607 N   0  0  0  0  0  0  0  0  0  0  0  0
   18.8089  -25.3610   -8.9788 C   0  0  0  0  0  0  0  0  0  0  0  0
   18.5391  -26.6032   -8.9271 N   0  0  0  0  0  0  0  0  0  0  0  0
   18.3859  -24.6196  -10.1017 N   0  0  0  0  0  0  0  0  0  0  0  0
   18.7411  -23.2298  -10.3129 C   0  0  0  0  0  0  0  0  0  0  0  0
   19.9015  -23.0965  -11.2758 C   0  0  0  0  0  0  0  0  0  0  0  0
   20.1609  -21.6748  -11.6389 C   0  0  0  0  0  0  0  0  0  0  0  0
   20.1685  -21.3954  -13.1242 C   0  0  2  0  0  0  0  0  0  0  0  0
   21.0218  -20.2814  -13.4558 N   0  0  0  0  0  0  0  0  0  0  0  0
   18.8071  -21.2399  -13.6744 C   0  0  0  0  0  0  0  0  0  0  0  0
   18.2825  -22.0991  -14.4051 O   0  0  0  0  0  0  0  0  0  0  0  0
   18.0798  -20.1057  -13.3754 O   0  0  0  0  0  0  0  0  0  0  0  0
  2  1  1  6
  2  3  1  0
  4  2  1  0
  4  5  1  1
  6  4  1  0
  7  6  2  0
  8  6  1  0
  9  8  1  0
 10 11  1  0
  9 10  1  6
 11 15  1  0
 12 11  2  0
 12 13  1  0
 13 14  1  0
 15 14  2  0
 16  9  1  0
 16 17  2  0
 19 18  1  0
 20 19  2  0
 21 19  1  0
 22 21  1  0
 23 22  1  0
 25 24  1  1
 24 23  1  0
 25 26  1  0
 26 16  1  0
 27 25  1  0
 28 27  2  0
 29 27  1  0
M  END
$$$$
