THR.pdb
     RDKit          3D

 29 29  0  0  1  0  0  0  0  0999 V2000
   15.6022  -12.0021  -11.3893 C   0  0  0  0  0  0  0  0  0  0  0  0
   16.1740  -11.1042  -12.4397 C   0  0  1  0  0  0  0  0  0  0  0  0
   16.0971  -11.6381  -13.7268 O   0  0  0  0  0  0  0  0  0  0  0  0
   15.3529   -9.8081  -12.4381 C   0  0  2  0  0  0  0  0  0  0  0  0
   15.1165   -9.3594  -13.7982 N   0  0  0  0  0  0  0  0  0  0  0  0
   16.1465   -8.8178  -11.6649 C   0  0  0  0  0  0  0  0  0  0  0  0
   16.3354   -8.9185  -10.4263 O   0  0  0  0  0  0  0  0  0  0  0  0
   16.6994   -7.7251  -12.3899 N   0  0  0  0  0  0  0  0  0  0  0  0
   17.4935   -6.7034  -11.7836 C   0  0  1  0  0  0  0  0  0  0  0  0
   18.5294   -6.1381  -12.7263 C   0  0  0  0  0  0  0  0  0  0  0  0
   19.6303   -7.1008  -12.9810 C   0  0  0  0  0  0  0  0  0  0  0  0
   19.7331   -8.3569  -12.4090 C   0  0  0  0  0  0  0  0  0  0  0  0
   20.8626   -8.9552  -12.8694 N   0  0  0  0  0  0  0  0  0  0  0  0
   21.4555   -8.1125  -13.7022 C   0  0  0  0  0  0  0  0  0  0  0  0
   20.7106   -6.9925  -13.7690 N   0  0  0  0  0  0  0  0  0  0  0  0
   16.5898   -5.6180  -11.3096 C   0  0  0  0  0  0  0  0  0  0  0  0
   15.7469   -5.0971  -12.0962 O   0  0  0  0  0  0  0  0  0  0  0  0
   12.8542   -3.4427   -3.5206 N   0  0  0  0  0  0  0  0  0  0  0  0
   12.2926   -2.5896   -4.4991 C   0  0  0  0  0  0  0  0  0  0  0  0
   11.2670   -1.8676   -4.2862 N   0  0  0  0  0  0  0  0  0  0  0  0
   12.9048   -2.5435   -5.7689 N   0  0  0  0  0  0  0  0  0  0  0  0
   13.8596   -3.5350   -6.2245 C   0  0  0  0  0  0  0  0  0  0  0  0
   14.3117   -3.2561   -7.6419 C   0  0  0  0  0  0  0  0  0  0  0  0
   15.2424   -4.3058   -8.1444 C   0  0  0  0  0  0  0  0  0  0  0  0
   15.7372   -4.0858   -9.5555 C   0  0  2  0  0  0  0  0  0  0  0  0
   16.6364   -5.1311   -9.9773 N   0  0  0  0  0  0  0  0  0  0  0  0
   16.3153   -2.7405   -9.7457 C   0  0  0  0  0  0  0  0  0  0  0  0
   15.6100   -1.7199   -9.8370 O   0  0  0  0  0  0  0  0  0  0  0  0
   17.6855   -2.5960   -9.8270 O   0  0  0  0  0  0  0  0  0  0  0  0
  2  1  1  1
  2  3  1  0
  4  2  1  0
  4  5  1  6
  6  4  1  0
  7  6  2  0
  8  6  1  0
  9  8  1  0
 10 11  1  0
  9 10  1  6
 11 15  1  0
 12 11  2  0
 12 13  1  0
 13 14  1  0
 15 14  2  0
 16  9  1  0
 16 17  2  0
 19 18  1  0
 20 19  2  0
 21 19  1  0
 22 21  1  0
 23 22  1  0
 25 24  1  1
 24 23  1  0
 25 26  1  0
 26 16  1  0
 27 25  1  0
 28 27  2  0
 29 27  1  0
M  END
$$$$
