THR.pdb
     RDKit          3D

 29 29  0  0  1  0  0  0  0  0999 V2000
   24.8779  -22.4267  -14.0994 C   0  0  0  0  0  0  0  0  0  0  0  0
   24.7641  -22.3138  -12.6125 C   0  0  1  0  0  0  0  0  0  0  0  0
   24.9059  -23.5348  -11.9516 O   0  0  0  0  0  0  0  0  0  0  0  0
   25.9005  -21.4035  -12.1289 C   0  0  2  0  0  0  0  0  0  0  0  0
   25.8808  -21.2983  -10.6812 N   0  0  0  0  0  0  0  0  0  0  0  0
   25.6770  -20.0848  -12.7768 C   0  0  0  0  0  0  0  0  0  0  0  0
   24.8428  -19.2497  -12.3448 O   0  0  0  0  0  0  0  0  0  0  0  0
   26.4572  -19.7910  -13.9301 N   0  0  0  0  0  0  0  0  0  0  0  0
   26.3539  -18.5637  -14.6548 C   0  0  1  0  0  0  0  0  0  0  0  0
   27.5415  -18.3207  -15.5558 C   0  0  0  0  0  0  0  0  0  0  0  0
   27.4111  -17.0509  -16.3135 C   0  0  0  0  0  0  0  0  0  0  0  0
   26.3344  -16.1852  -16.2305 C   0  0  0  0  0  0  0  0  0  0  0  0
   26.5562  -15.1318  -17.0592 N   0  0  0  0  0  0  0  0  0  0  0  0
   27.7286  -15.3198  -17.6468 C   0  0  0  0  0  0  0  0  0  0  0  0
   28.2444  -16.4793  -17.1959 N   0  0  0  0  0  0  0  0  0  0  0  0
   25.1008  -18.5916  -15.4600 C   0  0  0  0  0  0  0  0  0  0  0  0
   24.8327  -19.5869  -16.1934 O   0  0  0  0  0  0  0  0  0  0  0  0
   20.4876  -21.6337  -12.3481 N   0  0  0  0  0  0  0  0  0  0  0  0
   19.8223  -20.3959  -12.1873 C   0  0  0  0  0  0  0  0  0  0  0  0
   19.2377  -20.0555  -11.1099 N   0  0  0  0  0  0  0  0  0  0  0  0
   19.8110  -19.5023  -13.2785 N   0  0  0  0  0  0  0  0  0  0  0  0
   20.5053  -19.7644  -14.5242 C   0  0  0  0  0  0  0  0  0  0  0  0
   21.8226  -19.0215  -14.5892 C   0  0  0  0  0  0  0  0  0  0  0  0
   21.7450  -17.8310  -15.4821 C   0  0  0  0  0  0  0  0  0  0  0  0
   23.0000  -17.5584  -16.2789 C   0  0  2  0  0  0  0  0  0  0  0  0
   24.1709  -17.5196  -15.4382 N   0  0  0  0  0  0  0  0  0  0  0  0
   22.8790  -16.3542  -17.1248 C   0  0  0  0  0  0  0  0  0  0  0  0
   23.1090  -15.2109  -16.6918 O   0  0  0  0  0  0  0  0  0  0  0  0
   22.4979  -16.4875  -18.4446 O   0  0  0  0  0  0  0  0  0  0  0  0
  2  1  1  6
  2  3  1  0
  4  2  1  0
  4  5  1  1
  6  4  1  0
  7  6  2  0
  8  6  1  0
  9  8  1  0
 10 11  1  0
  9 10  1  6
 11 15  1  0
 12 11  2  0
 12 13  1  0
 13 14  1  0
 15 14  2  0
 16  9  1  0
 16 17  2  0
 19 18  1  0
 20 19  2  0
 21 19  1  0
 22 21  1  0
 23 22  1  0
 25 24  1  1
 24 23  1  0
 25 26  1  0
 26 16  1  0
 27 25  1  0
 28 27  2  0
 29 27  1  0
M  END
$$$$
