THR.pdb
     RDKit          3D

 29 29  0  0  1  0  0  0  0  0999 V2000
   30.7980  -36.3055   -6.4668 C   0  0  0  0  0  0  0  0  0  0  0  0
   30.8859  -35.3968   -5.2823 C   0  0  1  0  0  0  0  0  0  0  0  0
   31.5233  -34.1864   -5.5586 O   0  0  0  0  0  0  0  0  0  0  0  0
   29.4529  -35.0640   -4.8467 C   0  0  2  0  0  0  0  0  0  0  0  0
   28.7284  -34.4340   -5.9356 N   0  0  0  0  0  0  0  0  0  0  0  0
   29.5776  -34.1578   -3.6755 C   0  0  0  0  0  0  0  0  0  0  0  0
   29.0444  -33.0201   -3.6383 O   0  0  0  0  0  0  0  0  0  0  0  0
   30.3387  -34.6314   -2.5702 N   0  0  0  0  0  0  0  0  0  0  0  0
   29.9471  -34.4406   -1.2092 C   0  0  1  0  0  0  0  0  0  0  0  0
   28.5681  -34.9853   -0.9209 C   0  0  0  0  0  0  0  0  0  0  0  0
   28.1406  -34.7014    0.4720 C   0  0  0  0  0  0  0  0  0  0  0  0
   28.8500  -33.9319    1.3778 C   0  0  0  0  0  0  0  0  0  0  0  0
   28.1610  -33.8886    2.5478 N   0  0  0  0  0  0  0  0  0  0  0  0
   27.0561  -34.6028    2.3928 C   0  0  0  0  0  0  0  0  0  0  0  0
   27.0444  -35.0934    1.1386 N   0  0  0  0  0  0  0  0  0  0  0  0
   30.9504  -35.1022   -0.3290 C   0  0  0  0  0  0  0  0  0  0  0  0
   30.9419  -36.3583   -0.1792 O   0  0  0  0  0  0  0  0  0  0  0  0
   38.5904  -31.4831    0.4843 N   0  0  0  0  0  0  0  0  0  0  0  0
   38.2544  -32.1784   -0.7008 C   0  0  0  0  0  0  0  0  0  0  0  0
   38.9544  -32.1232   -1.7616 N   0  0  0  0  0  0  0  0  0  0  0  0
   37.0857  -32.9680   -0.6978 N   0  0  0  0  0  0  0  0  0  0  0  0
   36.2388  -33.1251    0.4686 C   0  0  0  0  0  0  0  0  0  0  0  0
   35.0624  -34.0326    0.1788 C   0  0  0  0  0  0  0  0  0  0  0  0
   34.1686  -34.1778    1.3623 C   0  0  0  0  0  0  0  0  0  0  0  0
   32.9542  -35.0474    1.1316 C   0  0  2  0  0  0  0  0  0  0  0  0
   31.9416  -34.3623    0.3672 N   0  0  0  0  0  0  0  0  0  0  0  0
   32.4203  -35.6127    2.3869 C   0  0  0  0  0  0  0  0  0  0  0  0
   31.2485  -35.4207    2.7577 O   0  0  0  0  0  0  0  0  0  0  0  0
   33.2398  -36.3832    3.1867 O   0  0  0  0  0  0  0  0  0  0  0  0
  2  1  1  6
  2  3  1  0
  4  2  1  0
  4  5  1  6
  6  4  1  0
  7  6  2  0
  8  6  1  0
  9  8  1  0
 10 11  1  0
  9 10  1  6
 11 15  1  0
 12 11  2  0
 12 13  1  0
 13 14  1  0
 15 14  2  0
 16  9  1  0
 16 17  2  0
 19 18  1  0
 20 19  2  0
 21 19  1  0
 22 21  1  0
 23 22  1  0
 25 24  1  1
 24 23  1  0
 25 26  1  0
 26 16  1  0
 27 25  1  0
 28 27  2  0
 29 27  1  0
M  END
$$$$
