THR.pdb
     RDKit          3D

 29 29  0  0  1  0  0  0  0  0999 V2000
   23.5850  -21.3025   -9.5094 C   0  0  0  0  0  0  0  0  0  0  0  0
   24.5292  -20.4164   -8.7612 C   0  0  1  0  0  0  0  0  0  0  0  0
   24.5327  -20.6473   -7.3848 O   0  0  0  0  0  0  0  0  0  0  0  0
   25.9452  -20.7117   -9.2728 C   0  0  2  0  0  0  0  0  0  0  0  0
   26.9195  -19.9185   -8.5456 N   0  0  0  0  0  0  0  0  0  0  0  0
   25.9386  -20.3781  -10.7209 C   0  0  0  0  0  0  0  0  0  0  0  0
   26.2162  -19.2312  -11.1540 O   0  0  0  0  0  0  0  0  0  0  0  0
   25.5997  -21.4247  -11.6236 N   0  0  0  0  0  0  0  0  0  0  0  0
   25.5892  -21.2630  -13.0434 C   0  0  1  0  0  0  0  0  0  0  0  0
   25.9955  -22.5214  -13.7733 C   0  0  0  0  0  0  0  0  0  0  0  0
   26.0144  -22.3264  -15.2448 C   0  0  0  0  0  0  0  0  0  0  0  0
   25.7014  -21.1436  -15.8919 C   0  0  0  0  0  0  0  0  0  0  0  0
   25.8262  -21.3325  -17.2314 N   0  0  0  0  0  0  0  0  0  0  0  0
   26.2040  -22.5868  -17.4292 C   0  0  0  0  0  0  0  0  0  0  0  0
   26.3175  -23.1865  -16.2286 N   0  0  0  0  0  0  0  0  0  0  0  0
   24.2215  -20.8489  -13.4642 C   0  0  0  0  0  0  0  0  0  0  0  0
   23.2024  -21.4330  -12.9943 O   0  0  0  0  0  0  0  0  0  0  0  0
   21.9096  -15.0365  -19.4993 N   0  0  0  0  0  0  0  0  0  0  0  0
   22.9644  -15.5059  -18.6822 C   0  0  0  0  0  0  0  0  0  0  0  0
   24.1756  -15.1485  -18.8367 N   0  0  0  0  0  0  0  0  0  0  0  0
   22.6498  -16.4137  -17.6495 N   0  0  0  0  0  0  0  0  0  0  0  0
   21.3593  -17.0643  -17.5326 C   0  0  0  0  0  0  0  0  0  0  0  0
   21.3045  -17.9684  -16.3198 C   0  0  0  0  0  0  0  0  0  0  0  0
   22.6547  -18.4733  -15.9423 C   0  0  0  0  0  0  0  0  0  0  0  0
   22.6675  -19.4142  -14.7596 C   0  0  2  0  0  0  0  0  0  0  0  0
   24.0084  -19.7990  -14.3951 N   0  0  0  0  0  0  0  0  0  0  0  0
   21.7858  -20.5816  -14.9598 C   0  0  0  0  0  0  0  0  0  0  0  0
   22.0923  -21.5264  -15.7086 O   0  0  0  0  0  0  0  0  0  0  0  0
   20.5756  -20.6392  -14.2986 O   0  0  0  0  0  0  0  0  0  0  0  0
  2  1  1  6
  2  3  1  0
  4  2  1  0
  4  5  1  1
  6  4  1  0
  7  6  2  0
  8  6  1  0
  9  8  1  0
 10 11  1  0
  9 10  1  6
 11 15  1  0
 12 11  2  0
 12 13  1  0
 13 14  1  0
 15 14  2  0
 16  9  1  0
 16 17  2  0
 19 18  1  0
 20 19  2  0
 21 19  1  0
 22 21  1  0
 23 22  1  0
 25 24  1  6
 24 23  1  0
 25 26  1  0
 26 16  1  0
 27 25  1  0
 28 27  2  0
 29 27  1  0
M  END
$$$$
