THR.pdb
     RDKit          3D

 29 29  0  0  1  0  0  0  0  0999 V2000
   27.6358  -19.8565   -7.1386 C   0  0  0  0  0  0  0  0  0  0  0  0
   27.4124  -20.0420   -8.6057 C   0  0  1  0  0  0  0  0  0  0  0  0
   27.7258  -21.3253   -9.0559 O   0  0  0  0  0  0  0  0  0  0  0  0
   25.9191  -19.8194   -8.8785 C   0  0  2  0  0  0  0  0  0  0  0  0
   25.1482  -20.9639   -8.4277 N   0  0  0  0  0  0  0  0  0  0  0  0
   25.7932  -19.6180  -10.3455 C   0  0  0  0  0  0  0  0  0  0  0  0
   26.4106  -18.7126  -10.9612 O   0  0  0  0  0  0  0  0  0  0  0  0
   24.9300  -20.5050  -11.0479 N   0  0  0  0  0  0  0  0  0  0  0  0
   24.6418  -20.3787  -12.4418 C   0  0  1  0  0  0  0  0  0  0  0  0
   25.1454  -21.5534  -13.2467 C   0  0  0  0  0  0  0  0  0  0  0  0
   26.3764  -21.2180  -14.0053 C   0  0  0  0  0  0  0  0  0  0  0  0
   26.9289  -19.9525  -14.1003 C   0  0  0  0  0  0  0  0  0  0  0  0
   28.0460  -20.0205  -14.8704 N   0  0  0  0  0  0  0  0  0  0  0  0
   28.1986  -21.2803  -15.2507 C   0  0  0  0  0  0  0  0  0  0  0  0
   27.1896  -22.0031  -14.7277 N   0  0  0  0  0  0  0  0  0  0  0  0
   23.1684  -20.2391  -12.6114 C   0  0  0  0  0  0  0  0  0  0  0  0
   22.3780  -21.0361  -12.0278 O   0  0  0  0  0  0  0  0  0  0  0  0
   18.5573  -22.1087  -18.6629 N   0  0  0  0  0  0  0  0  0  0  0  0
   19.2161  -21.0489  -19.3288 C   0  0  0  0  0  0  0  0  0  0  0  0
   18.7372  -20.4673  -20.3540 N   0  0  0  0  0  0  0  0  0  0  0  0
   20.4631  -20.6229  -18.8259 N   0  0  0  0  0  0  0  0  0  0  0  0
   21.1010  -21.2283  -17.6731 C   0  0  0  0  0  0  0  0  0  0  0  0
   20.6562  -20.5681  -16.3856 C   0  0  0  0  0  0  0  0  0  0  0  0
   21.8140  -20.1857  -15.5290 C   0  0  0  0  0  0  0  0  0  0  0  0
   21.4406  -19.5050  -14.2324 C   0  0  2  0  0  0  0  0  0  0  0  0
   22.5994  -19.2225  -13.4221 N   0  0  0  0  0  0  0  0  0  0  0  0
   20.4038  -20.2457  -13.4862 C   0  0  0  0  0  0  0  0  0  0  0  0
   19.2922  -19.7527  -13.2245 O   0  0  0  0  0  0  0  0  0  0  0  0
   20.6643  -21.5317  -13.0580 O   0  0  0  0  0  0  0  0  0  0  0  0
  2  1  1  1
  2  3  1  0
  4  2  1  0
  4  5  1  6
  6  4  1  0
  7  6  2  0
  8  6  1  0
  9  8  1  0
 10 11  1  0
  9 10  1  6
 11 15  1  0
 12 11  2  0
 12 13  1  0
 13 14  1  0
 15 14  2  0
 16  9  1  0
 16 17  2  0
 19 18  1  0
 20 19  2  0
 21 19  1  0
 22 21  1  0
 23 22  1  0
 25 24  1  6
 24 23  1  0
 25 26  1  0
 26 16  1  0
 27 25  1  0
 28 27  2  0
 29 27  1  0
M  END
$$$$
