THR.pdb
     RDKit          3D

 29 29  0  0  1  0  0  0  0  0999 V2000
   33.1205  -32.6992   -4.6497 C   0  0  0  0  0  0  0  0  0  0  0  0
   32.8867  -33.4789   -5.9043 C   0  0  1  0  0  0  0  0  0  0  0  0
   33.5563  -32.9588   -7.0129 O   0  0  0  0  0  0  0  0  0  0  0  0
   33.4254  -34.8971   -5.6752 C   0  0  2  0  0  0  0  0  0  0  0  0
   33.4119  -35.6483   -6.9174 N   0  0  0  0  0  0  0  0  0  0  0  0
   32.5412  -35.5142   -4.6525 C   0  0  0  0  0  0  0  0  0  0  0  0
   31.4170  -36.0015   -4.9330 O   0  0  0  0  0  0  0  0  0  0  0  0
   33.0203  -35.5362   -3.3126 N   0  0  0  0  0  0  0  0  0  0  0  0
   32.2472  -36.0175   -2.2114 C   0  0  1  0  0  0  0  0  0  0  0  0
   33.0296  -36.0398   -0.9195 C   0  0  0  0  0  0  0  0  0  0  0  0
   32.2254  -36.5790    0.2057 C   0  0  0  0  0  0  0  0  0  0  0  0
   30.9031  -36.9778    0.1154 C   0  0  0  0  0  0  0  0  0  0  0  0
   30.4947  -37.4148    1.3351 N   0  0  0  0  0  0  0  0  0  0  0  0
   31.5173  -37.2986    2.1693 C   0  0  0  0  0  0  0  0  0  0  0  0
   32.5624  -36.7936    1.4863 N   0  0  0  0  0  0  0  0  0  0  0  0
   31.0429  -35.1533   -2.0627 C   0  0  0  0  0  0  0  0  0  0  0  0
   31.1277  -33.9022   -2.2298 O   0  0  0  0  0  0  0  0  0  0  0  0
   26.1741  -32.5871   -7.5617 N   0  0  0  0  0  0  0  0  0  0  0  0
   25.1986  -32.9072   -6.5888 C   0  0  0  0  0  0  0  0  0  0  0  0
   23.9650  -32.6264   -6.7224 N   0  0  0  0  0  0  0  0  0  0  0  0
   25.6222  -33.5690   -5.4174 N   0  0  0  0  0  0  0  0  0  0  0  0
   27.0145  -33.8500   -5.1259 C   0  0  0  0  0  0  0  0  0  0  0  0
   27.1663  -34.5817   -3.8095 C   0  0  0  0  0  0  0  0  0  0  0  0
   28.4075  -34.1785   -3.0902 C   0  0  0  0  0  0  0  0  0  0  0  0
   28.6022  -34.8448   -1.7476 C   0  0  2  0  0  0  0  0  0  0  0  0
   29.7708  -35.6893   -1.7327 N   0  0  0  0  0  0  0  0  0  0  0  0
   27.3917  -35.5573   -1.2923 C   0  0  0  0  0  0  0  0  0  0  0  0
   27.2886  -36.7958   -1.3462 O   0  0  0  0  0  0  0  0  0  0  0  0
   26.3294  -34.8356   -0.7867 O   0  0  0  0  0  0  0  0  0  0  0  0
  2  1  1  1
  2  3  1  0
  4  2  1  0
  4  5  1  6
  6  4  1  0
  7  6  2  0
  8  6  1  0
  9  8  1  0
 10 11  1  0
  9 10  1  1
 11 15  1  0
 12 11  2  0
 12 13  1  0
 13 14  1  0
 15 14  2  0
 16  9  1  0
 16 17  2  0
 19 18  1  0
 20 19  2  0
 21 19  1  0
 22 21  1  0
 23 22  1  0
 25 24  1  6
 24 23  1  0
 25 26  1  0
 26 16  1  0
 27 25  1  0
 28 27  2  0
 29 27  1  0
M  END
$$$$
