THR.pdb
     RDKit          3D

 29 29  0  0  1  0  0  0  0  0999 V2000
   23.6583  -17.9771  -20.4887 C   0  0  0  0  0  0  0  0  0  0  0  0
   24.5996  -18.5177  -19.4600 C   0  0  1  0  0  0  0  0  0  0  0  0
   25.8394  -17.8768  -19.4522 O   0  0  0  0  0  0  0  0  0  0  0  0
   23.9630  -18.2875  -18.0832 C   0  0  2  0  0  0  0  0  0  0  0  0
   23.8455  -16.8660  -17.8134 N   0  0  0  0  0  0  0  0  0  0  0  0
   24.8518  -18.9598  -17.1000 C   0  0  0  0  0  0  0  0  0  0  0  0
   25.1259  -20.1850  -17.1605 O   0  0  0  0  0  0  0  0  0  0  0  0
   25.3960  -18.1518  -16.0627 N   0  0  0  0  0  0  0  0  0  0  0  0
   26.3483  -18.6327  -15.1119 C   0  0  1  0  0  0  0  0  0  0  0  0
   27.5042  -17.6803  -14.9164 C   0  0  0  0  0  0  0  0  0  0  0  0
   28.2925  -17.5032  -16.1617 C   0  0  0  0  0  0  0  0  0  0  0  0
   29.2219  -18.4069  -16.6469 C   0  0  0  0  0  0  0  0  0  0  0  0
   29.7448  -17.9179  -17.8014 N   0  0  0  0  0  0  0  0  0  0  0  0
   29.1706  -16.7485  -18.0417 C   0  0  0  0  0  0  0  0  0  0  0  0
   28.2935  -16.4986  -17.0508 N   0  0  0  0  0  0  0  0  0  0  0  0
   25.6513  -18.8610  -13.8153 C   0  0  0  0  0  0  0  0  0  0  0  0
   24.5708  -18.2571  -13.5539 O   0  0  0  0  0  0  0  0  0  0  0  0
   21.5195  -25.2687  -14.3930 N   0  0  0  0  0  0  0  0  0  0  0  0
   22.8742  -25.3362  -13.9920 C   0  0  0  0  0  0  0  0  0  0  0  0
   23.6502  -26.2890  -14.3213 N   0  0  0  0  0  0  0  0  0  0  0  0
   23.3809  -24.2934  -13.1887 N   0  0  0  0  0  0  0  0  0  0  0  0
   22.5874  -23.1502  -12.7815 C   0  0  0  0  0  0  0  0  0  0  0  0
   23.3979  -22.1864  -11.9414 C   0  0  0  0  0  0  0  0  0  0  0  0
   24.3683  -21.4122  -12.7656 C   0  0  0  0  0  0  0  0  0  0  0  0
   25.2615  -20.4812  -11.9784 C   0  0  2  0  0  0  0  0  0  0  0  0
   26.1625  -19.7509  -12.8350 N   0  0  0  0  0  0  0  0  0  0  0  0
   25.9693  -21.1732  -10.8828 C   0  0  0  0  0  0  0  0  0  0  0  0
   27.1601  -21.5211  -10.9749 O   0  0  0  0  0  0  0  0  0  0  0  0
   25.2977  -21.4502   -9.7092 O   0  0  0  0  0  0  0  0  0  0  0  0
  2  1  1  6
  2  3  1  0
  4  2  1  0
  4  5  1  1
  6  4  1  0
  7  6  2  0
  8  6  1  0
  9  8  1  0
 10 11  1  0
  9 10  1  1
 11 15  1  0
 12 11  2  0
 12 13  1  0
 13 14  1  0
 15 14  2  0
 16  9  1  0
 16 17  2  0
 19 18  1  0
 20 19  2  0
 21 19  1  0
 22 21  1  0
 23 22  1  0
 25 24  1  6
 24 23  1  0
 25 26  1  0
 26 16  1  0
 27 25  1  0
 28 27  2  0
 29 27  1  0
M  END
$$$$
