THR.pdb
     RDKit          3D

 29 29  0  0  1  0  0  0  0  0999 V2000
   25.8095  -16.1275  -17.7341 C   0  0  0  0  0  0  0  0  0  0  0  0
   25.9373  -16.4840  -16.2873 C   0  0  1  0  0  0  0  0  0  0  0  0
   24.7763  -16.2405  -15.5521 O   0  0  0  0  0  0  0  0  0  0  0  0
   26.2174  -17.9902  -16.2045 C   0  0  2  0  0  0  0  0  0  0  0  0
   27.4331  -18.3174  -16.9271 N   0  0  0  0  0  0  0  0  0  0  0  0
   25.0314  -18.6635  -16.7948 C   0  0  0  0  0  0  0  0  0  0  0  0
   24.8343  -18.7261  -18.0347 O   0  0  0  0  0  0  0  0  0  0  0  0
   24.1034  -19.2497  -15.8890 N   0  0  0  0  0  0  0  0  0  0  0  0
   22.9509  -19.9814  -16.3112 C   0  0  1  0  0  0  0  0  0  0  0  0
   23.0500  -21.4543  -15.9912 C   0  0  0  0  0  0  0  0  0  0  0  0
   23.9483  -22.1666  -16.9341 C   0  0  0  0  0  0  0  0  0  0  0  0
   25.1148  -22.8204  -16.5769 C   0  0  0  0  0  0  0  0  0  0  0  0
   25.6748  -23.3553  -17.6930 N   0  0  0  0  0  0  0  0  0  0  0  0
   24.8951  -23.0538  -18.7207 C   0  0  0  0  0  0  0  0  0  0  0  0
   23.8523  -22.3357  -18.2615 N   0  0  0  0  0  0  0  0  0  0  0  0
   21.7494  -19.3967  -15.6527 C   0  0  0  0  0  0  0  0  0  0  0  0
   21.7618  -19.1325  -14.4155 O   0  0  0  0  0  0  0  0  0  0  0  0
   17.2532  -12.9110  -16.2285 N   0  0  0  0  0  0  0  0  0  0  0  0
   18.2228  -13.6286  -15.4899 C   0  0  0  0  0  0  0  0  0  0  0  0
   19.1523  -13.0640  -14.8297 N   0  0  0  0  0  0  0  0  0  0  0  0
   18.1485  -15.0371  -15.4908 N   0  0  0  0  0  0  0  0  0  0  0  0
   17.1981  -15.7797  -16.2955 C   0  0  0  0  0  0  0  0  0  0  0  0
   17.2725  -17.2642  -16.0087 C   0  0  0  0  0  0  0  0  0  0  0  0
   18.4588  -17.8952  -16.6532 C   0  0  0  0  0  0  0  0  0  0  0  0
   19.4102  -18.5734  -15.6945 C   0  0  2  0  0  0  0  0  0  0  0  0
   20.5599  -19.1164  -16.3744 N   0  0  0  0  0  0  0  0  0  0  0  0
   18.7353  -19.5775  -14.8480 C   0  0  0  0  0  0  0  0  0  0  0  0
   18.2311  -19.2898  -13.7478 O   0  0  0  0  0  0  0  0  0  0  0  0
   18.6541  -20.8856  -15.2809 O   0  0  0  0  0  0  0  0  0  0  0  0
  2  1  1  6
  2  3  1  0
  4  2  1  0
  4  5  1  6
  6  4  1  0
  7  6  2  0
  8  6  1  0
  9  8  1  0
 10 11  1  0
  9 10  1  1
 11 15  1  0
 12 11  2  0
 12 13  1  0
 13 14  1  0
 15 14  2  0
 16  9  1  0
 16 17  2  0
 19 18  1  0
 20 19  2  0
 21 19  1  0
 22 21  1  0
 23 22  1  0
 25 24  1  6
 24 23  1  0
 25 26  1  0
 26 16  1  0
 27 25  1  0
 28 27  2  0
 29 27  1  0
M  END
$$$$
