THR.pdb
     RDKit          3D

 29 29  0  0  1  0  0  0  0  0999 V2000
   26.4242  -12.7344  -16.6726 C   0  0  0  0  0  0  0  0  0  0  0  0
   25.2455  -11.8967  -16.2912 C   0  0  1  0  0  0  0  0  0  0  0  0
   24.3537  -12.5502  -15.4396 O   0  0  0  0  0  0  0  0  0  0  0  0
   25.7741  -10.6696  -15.5370 C   0  0  2  0  0  0  0  0  0  0  0  0
   24.6713   -9.9020  -14.9876 N   0  0  0  0  0  0  0  0  0  0  0  0
   26.5513   -9.8798  -16.5272 C   0  0  0  0  0  0  0  0  0  0  0  0
   26.0051   -9.1338  -17.3787 O   0  0  0  0  0  0  0  0  0  0  0  0
   27.9687   -9.9983  -16.4790 N   0  0  0  0  0  0  0  0  0  0  0  0
   28.8406   -9.3696  -17.4206 C   0  0  1  0  0  0  0  0  0  0  0  0
   30.2911   -9.4418  -17.0057 C   0  0  0  0  0  0  0  0  0  0  0  0
   31.1843   -8.7958  -17.9998 C   0  0  0  0  0  0  0  0  0  0  0  0
   30.7582   -8.1583  -19.1521 C   0  0  0  0  0  0  0  0  0  0  0  0
   31.8449   -7.6880  -19.8182 N   0  0  0  0  0  0  0  0  0  0  0  0
   32.9207   -8.0136  -19.1170 C   0  0  0  0  0  0  0  0  0  0  0  0
   32.5209   -8.6828  -18.0188 N   0  0  0  0  0  0  0  0  0  0  0  0
   28.6570  -10.0222  -18.7472 C   0  0  0  0  0  0  0  0  0  0  0  0
   28.3925  -11.2571  -18.8224 O   0  0  0  0  0  0  0  0  0  0  0  0
   22.9369  -13.3457  -22.8039 N   0  0  0  0  0  0  0  0  0  0  0  0
   23.8427  -13.2565  -23.8865 C   0  0  0  0  0  0  0  0  0  0  0  0
   23.6140  -13.7683  -25.0285 N   0  0  0  0  0  0  0  0  0  0  0  0
   25.0553  -12.5658  -23.6816 N   0  0  0  0  0  0  0  0  0  0  0  0
   25.3838  -11.8933  -22.4397 C   0  0  0  0  0  0  0  0  0  0  0  0
   26.7246  -11.1962  -22.5269 C   0  0  0  0  0  0  0  0  0  0  0  0
   27.1166  -10.5821  -21.2270 C   0  0  0  0  0  0  0  0  0  0  0  0
   28.4857   -9.9420  -21.2201 C   0  0  2  0  0  0  0  0  0  0  0  0
   28.7697   -9.2972  -19.9621 N   0  0  0  0  0  0  0  0  0  0  0  0
   28.6902   -9.0386  -22.3701 C   0  0  0  0  0  0  0  0  0  0  0  0
   28.7657   -7.8037  -22.2410 O   0  0  0  0  0  0  0  0  0  0  0  0
   28.8031   -9.5701  -23.6388 O   0  0  0  0  0  0  0  0  0  0  0  0
  2  1  1  1
  2  3  1  0
  4  2  1  0
  4  5  1  6
  6  4  1  0
  7  6  2  0
  8  6  1  0
  9  8  1  0
 10 11  1  0
  9 10  1  1
 11 15  1  0
 12 11  2  0
 12 13  1  0
 13 14  1  0
 15 14  2  0
 16  9  1  0
 16 17  2  0
 19 18  1  0
 20 19  2  0
 21 19  1  0
 22 21  1  0
 23 22  1  0
 25 24  1  1
 24 23  1  0
 25 26  1  0
 26 16  1  0
 27 25  1  0
 28 27  2  0
 29 27  1  0
M  END
$$$$
