THR.pdb
     RDKit          3D

 29 29  0  0  1  0  0  0  0  0999 V2000
   26.2086  -22.3904  -18.3902 C   0  0  0  0  0  0  0  0  0  0  0  0
   27.4972  -22.2859  -17.6384 C   0  0  1  0  0  0  0  0  0  0  0  0
   28.6204  -22.2528  -18.4661 O   0  0  0  0  0  0  0  0  0  0  0  0
   27.4720  -20.9655  -16.8575 C   0  0  2  0  0  0  0  0  0  0  0  0
   28.7706  -20.7069  -16.2625 N   0  0  0  0  0  0  0  0  0  0  0  0
   26.4162  -21.1181  -15.8229 C   0  0  0  0  0  0  0  0  0  0  0  0
   25.2039  -21.2842  -16.1103 O   0  0  0  0  0  0  0  0  0  0  0  0
   26.8323  -21.0691  -14.4628 N   0  0  0  0  0  0  0  0  0  0  0  0
   25.9311  -21.2024  -13.3619 C   0  0  1  0  0  0  0  0  0  0  0  0
   26.6356  -21.1530  -12.0267 C   0  0  0  0  0  0  0  0  0  0  0  0
   25.6757  -21.1180  -10.8950 C   0  0  0  0  0  0  0  0  0  0  0  0
   25.5276  -20.0613  -10.0135 C   0  0  0  0  0  0  0  0  0  0  0  0
   24.5621  -20.3772   -9.1115 N   0  0  0  0  0  0  0  0  0  0  0  0
   24.1130  -21.5879   -9.4075 C   0  0  0  0  0  0  0  0  0  0  0  0
   24.7863  -22.0348  -10.4850 N   0  0  0  0  0  0  0  0  0  0  0  0
   24.9172  -20.1140  -13.4434 C   0  0  0  0  0  0  0  0  0  0  0  0
   25.2789  -18.9019  -13.4640 O   0  0  0  0  0  0  0  0  0  0  0  0
   23.1973  -19.4557  -18.9682 N   0  0  0  0  0  0  0  0  0  0  0  0
   21.9729  -18.7786  -19.1754 C   0  0  0  0  0  0  0  0  0  0  0  0
   21.2263  -18.9849  -20.1846 N   0  0  0  0  0  0  0  0  0  0  0  0
   21.5679  -17.8307  -18.2127 N   0  0  0  0  0  0  0  0  0  0  0  0
   22.3220  -17.5565  -17.0049 C   0  0  0  0  0  0  0  0  0  0  0  0
   22.1314  -18.6491  -15.9748 C   0  0  0  0  0  0  0  0  0  0  0  0
   22.8843  -18.3666  -14.7203 C   0  0  0  0  0  0  0  0  0  0  0  0
   22.5765  -19.3048  -13.5760 C   0  0  2  0  0  0  0  0  0  0  0  0
   23.5257  -20.3875  -13.5003 N   0  0  0  0  0  0  0  0  0  0  0  0
   21.1807  -19.7858  -13.6027 C   0  0  0  0  0  0  0  0  0  0  0  0
   20.2377  -19.1175  -13.1428 O   0  0  0  0  0  0  0  0  0  0  0  0
   20.8984  -21.0190  -14.1545 O   0  0  0  0  0  0  0  0  0  0  0  0
  2  1  1  6
  2  3  1  0
  4  2  1  0
  4  5  1  1
  6  4  1  0
  7  6  2  0
  8  6  1  0
  9  8  1  0
 10 11  1  0
  9 10  1  1
 11 15  1  0
 12 11  2  0
 12 13  1  0
 13 14  1  0
 15 14  2  0
 16  9  1  0
 16 17  2  0
 19 18  1  0
 20 19  2  0
 21 19  1  0
 22 21  1  0
 23 22  1  0
 25 24  1  6
 24 23  1  0
 25 26  1  0
 26 16  1  0
 27 25  1  0
 28 27  2  0
 29 27  1  0
M  END
$$$$
