HHM.pdb
     RDKit          3D

 29 30  0  0  1  0  0  0  0  0999 V2000
   16.7612  -12.1772  -15.0752 N   0  0  0  0  0  0  0  0  0  0  0  0
   16.3243  -10.7830  -14.9839 C   0  0  1  0  0  0  0  0  0  0  0  0
   14.8267  -10.7386  -14.7644 C   0  0  0  0  0  0  0  0  0  0  0  0
   14.0979  -11.0992  -16.0127 C   0  0  0  0  0  0  0  0  0  0  0  0
   13.6096  -12.3227  -16.3944 C   0  0  0  0  0  0  0  0  0  0  0  0
   13.0303  -12.1568  -17.5960 N   0  0  0  0  0  0  0  0  0  0  0  0
   13.1415  -10.8877  -17.9685 C   0  0  0  0  0  0  0  0  0  0  0  0
   13.7972  -10.2382  -16.9956 N   0  0  0  0  0  0  0  0  0  0  0  0
   17.0306  -10.1834  -13.8319 C   0  0  0  0  0  0  0  0  0  0  0  0
   17.2113  -10.8449  -12.7735 O   0  0  0  0  0  0  0  0  0  0  0  0
   17.5384   -8.8503  -13.8481 N   0  0  0  0  0  0  0  0  0  0  0  0
   18.1352   -8.2018  -12.7262 C   0  0  1  0  0  0  0  0  0  0  0  0
   19.3184   -7.3182  -13.0865 C   0  0  0  0  0  0  0  0  0  0  0  0
   20.4537   -8.0864  -13.6055 C   0  0  0  0  0  0  0  0  0  0  0  0
   20.6019   -9.4499  -13.7595 C   0  0  0  0  0  0  0  0  0  0  0  0
   21.8062   -9.7103  -14.2716 N   0  0  0  0  0  0  0  0  0  0  0  0
   22.4300   -8.5317  -14.4471 C   0  0  0  0  0  0  0  0  0  0  0  0
   21.6099   -7.5534  -14.0437 N   0  0  0  0  0  0  0  0  0  0  0  0
   17.1427   -7.3734  -11.9628 C   0  0  0  0  0  0  0  0  0  0  0  0
   16.1826   -6.8516  -12.5837 O   0  0  0  0  0  0  0  0  0  0  0  0
   11.5954   -7.1150   -7.0475 C   0  0  0  0  0  0  0  0  0  0  0  0
   12.9144   -7.9705   -7.9438 S   0  0  0  0  0  0  0  0  0  0  0  0
   14.0740   -6.7568   -8.5685 C   0  0  0  0  0  0  0  0  0  0  0  0
   15.1947   -7.3159   -9.3569 C   0  0  0  0  0  0  0  0  0  0  0  0
   16.1659   -6.3442   -9.8811 C   0  0  2  0  0  0  0  0  0  0  0  0
   17.2360   -7.1521  -10.5796 N   0  0  0  0  0  0  0  0  0  0  0  0
   16.8149   -5.5304   -8.8584 C   0  0  0  0  0  0  0  0  0  0  0  0
   16.1468   -4.3941   -8.3501 O   0  0  0  0  0  0  0  0  0  0  0  0
   17.9325   -5.7373   -8.3697 O   0  0  0  0  0  0  0  0  0  0  0  0
  2  3  1  0
  2  1  1  1
  3  4  1  0
  4  8  1  0
  5  4  2  0
  5  6  1  0
  6  7  1  0
  8  7  2  0
  9 10  2  0
  9  2  1  0
 11  9  1  0
 12 11  1  0
 13 14  1  0
 12 13  1  6
 14 18  1  0
 14 15  2  0
 15 16  1  0
 17 16  1  0
 18 17  2  0
 19 20  2  0
 19 12  1  0
 22 21  1  0
 23 22  1  0
 25 24  1  1
 24 23  1  0
 25 26  1  0
 26 19  1  0
 27 25  1  0
 28 27  1  0
 29 27  2  0
M  END
$$$$
