HHM.pdb
     RDKit          3D

 29 30  0  0  1  0  0  0  0  0999 V2000
   20.9720  -12.3255  -15.5967 N   0  0  0  0  0  0  0  0  0  0  0  0
   20.3813  -11.1417  -16.2233 C   0  0  1  0  0  0  0  0  0  0  0  0
   18.9625  -10.9641  -15.7251 C   0  0  0  0  0  0  0  0  0  0  0  0
   18.0835  -12.0555  -16.2307 C   0  0  0  0  0  0  0  0  0  0  0  0
   17.5991  -12.2445  -17.4999 C   0  0  0  0  0  0  0  0  0  0  0  0
   16.8524  -13.3619  -17.4728 N   0  0  0  0  0  0  0  0  0  0  0  0
   16.8565  -13.8664  -16.2451 C   0  0  0  0  0  0  0  0  0  0  0  0
   17.6130  -13.0638  -15.4823 N   0  0  0  0  0  0  0  0  0  0  0  0
   21.2128   -9.9844  -15.8301 C   0  0  0  0  0  0  0  0  0  0  0  0
   21.3475   -9.6727  -14.6156 O   0  0  0  0  0  0  0  0  0  0  0  0
   21.8970   -9.1689  -16.7799 N   0  0  0  0  0  0  0  0  0  0  0  0
   22.6138   -7.9795  -16.4526 C   0  0  1  0  0  0  0  0  0  0  0  0
   24.0748   -8.0092  -16.8713 C   0  0  0  0  0  0  0  0  0  0  0  0
   24.8423   -9.0317  -16.1545 C   0  0  0  0  0  0  0  0  0  0  0  0
   24.4671   -9.8440  -15.1038 C   0  0  0  0  0  0  0  0  0  0  0  0
   25.4899  -10.6301  -14.7632 N   0  0  0  0  0  0  0  0  0  0  0  0
   26.5143  -10.3313  -15.5821 C   0  0  0  0  0  0  0  0  0  0  0  0
   26.1192   -9.3655  -16.4209 N   0  0  0  0  0  0  0  0  0  0  0  0
   21.9767   -6.7576  -17.0485 C   0  0  0  0  0  0  0  0  0  0  0  0
   21.5260   -6.8185  -18.2201 O   0  0  0  0  0  0  0  0  0  0  0  0
   18.5476    0.1950  -15.7137 C   0  0  0  0  0  0  0  0  0  0  0  0
   19.3362   -1.2810  -15.0248 S   0  0  0  0  0  0  0  0  0  0  0  0
   20.0218   -2.2522  -16.3645 C   0  0  0  0  0  0  0  0  0  0  0  0
   20.6959   -3.5011  -15.9453 C   0  0  0  0  0  0  0  0  0  0  0  0
   21.1933   -4.3633  -17.0277 C   0  0  2  0  0  0  0  0  0  0  0  0
   21.8594   -5.5424  -16.3555 N   0  0  0  0  0  0  0  0  0  0  0  0
   22.1777   -3.7290  -17.8983 C   0  0  0  0  0  0  0  0  0  0  0  0
   21.7408   -3.0419  -19.0527 O   0  0  0  0  0  0  0  0  0  0  0  0
   23.4030   -3.7290  -17.7266 O   0  0  0  0  0  0  0  0  0  0  0  0
  2  3  1  0
  2  1  1  1
  3  4  1  0
  4  8  1  0
  5  4  2  0
  5  6  1  0
  6  7  1  0
  8  7  2  0
  9 10  2  0
  9  2  1  0
 11  9  1  0
 12 11  1  0
 13 14  1  0
 12 13  1  6
 14 18  1  0
 14 15  2  0
 15 16  1  0
 17 16  1  0
 18 17  2  0
 19 20  2  0
 19 12  1  0
 22 21  1  0
 23 22  1  0
 25 24  1  1
 24 23  1  0
 25 26  1  0
 26 19  1  0
 27 25  1  0
 28 27  1  0
 29 27  2  0
M  END
$$$$
