HHM.pdb
     RDKit          3D

 29 30  0  0  1  0  0  0  0  0999 V2000
   19.8556  -10.5991  -17.1916 N   0  0  0  0  0  0  0  0  0  0  0  0
   20.9822   -9.8276  -16.6641 C   0  0  1  0  0  0  0  0  0  0  0  0
   21.8573   -9.3670  -17.8108 C   0  0  0  0  0  0  0  0  0  0  0  0
   22.5325  -10.5257  -18.4597 C   0  0  0  0  0  0  0  0  0  0  0  0
   22.4812  -11.8508  -18.1098 C   0  0  0  0  0  0  0  0  0  0  0  0
   23.2499  -12.5187  -18.9873 N   0  0  0  0  0  0  0  0  0  0  0  0
   23.7703  -11.6636  -19.8589 C   0  0  0  0  0  0  0  0  0  0  0  0
   23.3294  -10.4394  -19.5347 N   0  0  0  0  0  0  0  0  0  0  0  0
   20.4132   -8.6636  -15.9522 C   0  0  0  0  0  0  0  0  0  0  0  0
   19.4051   -8.0600  -16.4101 O   0  0  0  0  0  0  0  0  0  0  0  0
   20.9586   -8.1644  -14.7320 N   0  0  0  0  0  0  0  0  0  0  0  0
   20.4290   -7.0557  -14.0069 C   0  0  1  0  0  0  0  0  0  0  0  0
   20.2957   -7.3069  -12.5136 C   0  0  0  0  0  0  0  0  0  0  0  0
   19.1797   -8.2016  -12.1935 C   0  0  0  0  0  0  0  0  0  0  0  0
   18.2883   -8.8382  -13.0330 C   0  0  0  0  0  0  0  0  0  0  0  0
   17.4315   -9.5585  -12.3067 N   0  0  0  0  0  0  0  0  0  0  0  0
   17.7631   -9.3908  -11.0140 C   0  0  0  0  0  0  0  0  0  0  0  0
   18.8193   -8.5707  -10.9498 N   0  0  0  0  0  0  0  0  0  0  0  0
   21.2469   -5.8125  -14.2052 C   0  0  0  0  0  0  0  0  0  0  0  0
   22.4878   -5.9226  -14.3721 O   0  0  0  0  0  0  0  0  0  0  0  0
   23.7402   -1.5857  -19.3439 C   0  0  0  0  0  0  0  0  0  0  0  0
   22.8414   -2.9676  -18.5972 S   0  0  0  0  0  0  0  0  0  0  0  0
   22.5215   -2.5900  -16.8758 C   0  0  0  0  0  0  0  0  0  0  0  0
   21.8115   -3.6515  -16.1280 C   0  0  0  0  0  0  0  0  0  0  0  0
   21.5106   -3.3601  -14.7185 C   0  0  2  0  0  0  0  0  0  0  0  0
   20.6889   -4.5243  -14.2132 N   0  0  0  0  0  0  0  0  0  0  0  0
   20.7370   -2.1409  -14.5078 C   0  0  0  0  0  0  0  0  0  0  0  0
   21.4135   -0.9144  -14.3239 O   0  0  0  0  0  0  0  0  0  0  0  0
   19.5027   -2.0636  -14.4713 O   0  0  0  0  0  0  0  0  0  0  0  0
  2  3  1  0
  2  1  1  6
  3  4  1  0
  4  8  1  0
  5  4  2  0
  5  6  1  0
  6  7  1  0
  8  7  2  0
  9 10  2  0
  9  2  1  0
 11  9  1  0
 12 11  1  0
 13 14  1  0
 12 13  1  1
 14 18  1  0
 14 15  2  0
 15 16  1  0
 17 16  1  0
 18 17  2  0
 19 20  2  0
 19 12  1  0
 22 21  1  0
 23 22  1  0
 25 24  1  6
 24 23  1  0
 25 26  1  0
 26 19  1  0
 27 25  1  0
 28 27  1  0
 29 27  2  0
M  END
$$$$
