HHM.pdb
     RDKit          3D

 29 30  0  0  1  0  0  0  0  0999 V2000
   22.4282  -19.8819  -17.6011 N   0  0  0  0  0  0  0  0  0  0  0  0
   22.6903  -19.0818  -16.4036 C   0  0  1  0  0  0  0  0  0  0  0  0
   21.3817  -18.7794  -15.7044 C   0  0  0  0  0  0  0  0  0  0  0  0
   20.5875  -17.7825  -16.4758 C   0  0  0  0  0  0  0  0  0  0  0  0
   20.6151  -16.4141  -16.3870 C   0  0  0  0  0  0  0  0  0  0  0  0
   19.7260  -15.9447  -17.2793 N   0  0  0  0  0  0  0  0  0  0  0  0
   19.1544  -16.9627  -17.9107 C   0  0  0  0  0  0  0  0  0  0  0  0
   19.6839  -18.0915  -17.4171 N   0  0  0  0  0  0  0  0  0  0  0  0
   23.5664  -19.8887  -15.5279 C   0  0  0  0  0  0  0  0  0  0  0  0
   23.1388  -20.9455  -14.9889 O   0  0  0  0  0  0  0  0  0  0  0  0
   24.9176  -19.5279  -15.2463 N   0  0  0  0  0  0  0  0  0  0  0  0
   25.7956  -20.2817  -14.4118 C   0  0  1  0  0  0  0  0  0  0  0  0
   27.2600  -20.1712  -14.8041 C   0  0  0  0  0  0  0  0  0  0  0  0
   27.5501  -20.8345  -16.0785 C   0  0  0  0  0  0  0  0  0  0  0  0
   27.7887  -22.1669  -16.3474 C   0  0  0  0  0  0  0  0  0  0  0  0
   28.0089  -22.3236  -17.6540 N   0  0  0  0  0  0  0  0  0  0  0  0
   27.9144  -21.1091  -18.2243 C   0  0  0  0  0  0  0  0  0  0  0  0
   27.6373  -20.2125  -17.2695 N   0  0  0  0  0  0  0  0  0  0  0  0
   25.6639  -19.8981  -12.9663 C   0  0  0  0  0  0  0  0  0  0  0  0
   25.6361  -18.6789  -12.6622 O   0  0  0  0  0  0  0  0  0  0  0  0
   21.0347  -20.5616   -9.0393 C   0  0  0  0  0  0  0  0  0  0  0  0
   22.3166  -21.2928   -7.9918 S   0  0  0  0  0  0  0  0  0  0  0  0
   23.9192  -20.7194   -8.5494 C   0  0  0  0  0  0  0  0  0  0  0  0
   24.1834  -20.9185   -9.9918 C   0  0  0  0  0  0  0  0  0  0  0  0
   25.4483  -20.3678  -10.5006 C   0  0  2  0  0  0  0  0  0  0  0  0
   25.5697  -20.8416  -11.9311 N   0  0  0  0  0  0  0  0  0  0  0  0
   26.6340  -20.8164   -9.7779 C   0  0  0  0  0  0  0  0  0  0  0  0
   26.9086  -20.2834   -8.4987 O   0  0  0  0  0  0  0  0  0  0  0  0
   27.4575  -21.6466  -10.1821 O   0  0  0  0  0  0  0  0  0  0  0  0
  2  3  1  0
  2  1  1  6
  3  4  1  0
  4  8  1  0
  5  4  2  0
  5  6  1  0
  6  7  1  0
  8  7  2  0
  9 10  2  0
  9  2  1  0
 11  9  1  0
 12 11  1  0
 13 14  1  0
 12 13  1  6
 14 18  1  0
 14 15  2  0
 15 16  1  0
 17 16  1  0
 18 17  2  0
 19 20  2  0
 19 12  1  0
 22 21  1  0
 23 22  1  0
 25 24  1  1
 24 23  1  0
 25 26  1  0
 26 19  1  0
 27 25  1  0
 28 27  1  0
 29 27  2  0
M  END
$$$$
