HHM.pdb
     RDKit          3D

 29 30  0  0  1  0  0  0  0  0999 V2000
   14.6994  -22.3303   -2.1078 N   0  0  0  0  0  0  0  0  0  0  0  0
   14.2986  -23.1447   -0.9593 C   0  0  1  0  0  0  0  0  0  0  0  0
   14.4124  -24.6113   -1.3184 C   0  0  0  0  0  0  0  0  0  0  0  0
   13.3752  -24.9937   -2.3172 C   0  0  0  0  0  0  0  0  0  0  0  0
   13.3504  -24.7382   -3.6645 C   0  0  0  0  0  0  0  0  0  0  0  0
   12.2173  -25.2780   -4.1458 N   0  0  0  0  0  0  0  0  0  0  0  0
   11.5462  -25.8524   -3.1551 C   0  0  0  0  0  0  0  0  0  0  0  0
   12.2578  -25.6778   -2.0319 N   0  0  0  0  0  0  0  0  0  0  0  0
   15.2204  -22.8136    0.1480 C   0  0  0  0  0  0  0  0  0  0  0  0
   16.4399  -22.5851   -0.0775 O   0  0  0  0  0  0  0  0  0  0  0  0
   14.7951  -22.7350    1.5074 N   0  0  0  0  0  0  0  0  0  0  0  0
   15.6357  -22.3488    2.5936 C   0  0  1  0  0  0  0  0  0  0  0  0
   14.9270  -21.5208    3.6532 C   0  0  0  0  0  0  0  0  0  0  0  0
   14.8100  -20.1094    3.2755 C   0  0  0  0  0  0  0  0  0  0  0  0
   15.3189  -19.4423    2.1798 C   0  0  0  0  0  0  0  0  0  0  0  0
   14.9653  -18.1572    2.2389 N   0  0  0  0  0  0  0  0  0  0  0  0
   14.2370  -17.9934    3.3577 C   0  0  0  0  0  0  0  0  0  0  0  0
   14.1455  -19.1747    3.9811 N   0  0  0  0  0  0  0  0  0  0  0  0
   16.2666  -23.5343    3.2648 C   0  0  0  0  0  0  0  0  0  0  0  0
   15.5254  -24.4547    3.6931 O   0  0  0  0  0  0  0  0  0  0  0  0
   22.3411  -24.3073    0.6835 C   0  0  0  0  0  0  0  0  0  0  0  0
   21.2330  -25.5207    1.4417 S   0  0  0  0  0  0  0  0  0  0  0  0
   20.1137  -24.6708    2.5522 C   0  0  0  0  0  0  0  0  0  0  0  0
   19.1114  -25.5390    3.2091 C   0  0  0  0  0  0  0  0  0  0  0  0
   18.2028  -24.8769    4.1568 C   0  0  2  0  0  0  0  0  0  0  0  0
   17.6535  -23.6654    3.4383 N   0  0  0  0  0  0  0  0  0  0  0  0
   18.8440  -24.4173    5.3843 C   0  0  0  0  0  0  0  0  0  0  0  0
   19.3797  -25.3663    6.2833 O   0  0  0  0  0  0  0  0  0  0  0  0
   18.9737  -23.2382    5.7359 O   0  0  0  0  0  0  0  0  0  0  0  0
  2  3  1  0
  2  1  1  6
  3  4  1  0
  4  8  1  0
  5  4  2  0
  5  6  1  0
  6  7  1  0
  8  7  2  0
  9 10  2  0
  9  2  1  0
 11  9  1  0
 12 11  1  0
 13 14  1  0
 12 13  1  1
 14 18  1  0
 14 15  2  0
 15 16  1  0
 17 16  1  0
 18 17  2  0
 19 20  2  0
 19 12  1  0
 22 21  1  0
 23 22  1  0
 25 24  1  6
 24 23  1  0
 25 26  1  0
 26 19  1  0
 27 25  1  0
 28 27  1  0
 29 27  2  0
M  END
$$$$
