HHM.pdb
     RDKit          3D

 29 30  0  0  1  0  0  0  0  0999 V2000
   25.3321  -33.5800   -9.3573 N   0  0  0  0  0  0  0  0  0  0  0  0
   25.4493  -32.7003   -8.1931 C   0  0  1  0  0  0  0  0  0  0  0  0
   24.0770  -32.1872   -7.8102 C   0  0  0  0  0  0  0  0  0  0  0  0
   23.6377  -31.1077   -8.7382 C   0  0  0  0  0  0  0  0  0  0  0  0
   24.3155  -30.5644   -9.7996 C   0  0  0  0  0  0  0  0  0  0  0  0
   23.5183  -29.6236  -10.3346 N   0  0  0  0  0  0  0  0  0  0  0  0
   22.3829  -29.5651   -9.6496 C   0  0  0  0  0  0  0  0  0  0  0  0
   22.4564  -30.4770   -8.6691 N   0  0  0  0  0  0  0  0  0  0  0  0
   26.0199  -33.5097   -7.0955 C   0  0  0  0  0  0  0  0  0  0  0  0
   25.5117  -34.6214   -6.7853 O   0  0  0  0  0  0  0  0  0  0  0  0
   27.1542  -33.0908   -6.3384 N   0  0  0  0  0  0  0  0  0  0  0  0
   27.7087  -33.8224   -5.2462 C   0  0  1  0  0  0  0  0  0  0  0  0
   29.0772  -33.3268   -4.8079 C   0  0  0  0  0  0  0  0  0  0  0  0
   30.1568  -33.8395   -5.6563 C   0  0  0  0  0  0  0  0  0  0  0  0
   30.1263  -34.8129   -6.6341 C   0  0  0  0  0  0  0  0  0  0  0  0
   31.3468  -34.9593   -7.1530 N   0  0  0  0  0  0  0  0  0  0  0  0
   32.1574  -34.0925   -6.5200 C   0  0  0  0  0  0  0  0  0  0  0  0
   31.4350  -33.4181   -5.6169 N   0  0  0  0  0  0  0  0  0  0  0  0
   26.8008  -33.8209   -4.0505 C   0  0  0  0  0  0  0  0  0  0  0  0
   26.0504  -32.8310   -3.8596 O   0  0  0  0  0  0  0  0  0  0  0  0
   22.2901  -34.1803    0.5028 C   0  0  0  0  0  0  0  0  0  0  0  0
   22.5016  -33.9149   -1.2748 S   0  0  0  0  0  0  0  0  0  0  0  0
   23.1929  -35.3971   -2.0051 C   0  0  0  0  0  0  0  0  0  0  0  0
   24.4022  -35.1781   -2.8295 C   0  0  0  0  0  0  0  0  0  0  0  0
   25.6477  -34.9123   -2.0944 C   0  0  2  0  0  0  0  0  0  0  0  0
   26.7494  -34.8790   -3.1292 N   0  0  0  0  0  0  0  0  0  0  0  0
   25.9919  -35.9290   -1.1060 C   0  0  0  0  0  0  0  0  0  0  0  0
   26.5535  -37.1517   -1.5366 O   0  0  0  0  0  0  0  0  0  0  0  0
   25.8383  -35.8307    0.1177 O   0  0  0  0  0  0  0  0  0  0  0  0
  2  3  1  0
  2  1  1  6
  3  4  1  0
  4  8  1  0
  5  4  2  0
  5  6  1  0
  6  7  1  0
  8  7  2  0
  9 10  2  0
  9  2  1  0
 11  9  1  0
 12 11  1  0
 13 14  1  0
 12 13  1  1
 14 18  1  0
 14 15  2  0
 15 16  1  0
 17 16  1  0
 18 17  2  0
 19 20  2  0
 19 12  1  0
 22 21  1  0
 23 22  1  0
 25 24  1  6
 24 23  1  0
 25 26  1  0
 26 19  1  0
 27 25  1  0
 28 27  1  0
 29 27  2  0
M  END
$$$$
