HHM.pdb
     RDKit          3D

 29 30  0  0  1  0  0  0  0  0999 V2000
   27.0449  -17.1997  -20.3895 N   0  0  0  0  0  0  0  0  0  0  0  0
   26.8335  -18.3458  -19.5037 C   0  0  1  0  0  0  0  0  0  0  0  0
   28.1740  -18.8905  -19.0573 C   0  0  0  0  0  0  0  0  0  0  0  0
   28.8793  -19.5540  -20.1894 C   0  0  0  0  0  0  0  0  0  0  0  0
   30.1347  -19.3013  -20.6804 C   0  0  0  0  0  0  0  0  0  0  0  0
   30.3345  -20.1501  -21.7035 N   0  0  0  0  0  0  0  0  0  0  0  0
   29.2588  -20.9114  -21.8622 C   0  0  0  0  0  0  0  0  0  0  0  0
   28.3651  -20.5452  -20.9320 N   0  0  0  0  0  0  0  0  0  0  0  0
   26.0642  -17.8565  -18.3400 C   0  0  0  0  0  0  0  0  0  0  0  0
   25.7376  -16.6418  -18.2501 O   0  0  0  0  0  0  0  0  0  0  0  0
   25.6545  -18.7101  -17.2729 N   0  0  0  0  0  0  0  0  0  0  0  0
   24.4840  -18.5073  -16.4828 C   0  0  1  0  0  0  0  0  0  0  0  0
   23.1996  -18.4480  -17.2936 C   0  0  0  0  0  0  0  0  0  0  0  0
   22.0267  -18.1558  -16.4645 C   0  0  0  0  0  0  0  0  0  0  0  0
   21.5303  -16.9431  -16.0314 C   0  0  0  0  0  0  0  0  0  0  0  0
   20.4374  -17.1487  -15.2942 N   0  0  0  0  0  0  0  0  0  0  0  0
   20.2283  -18.4767  -15.2500 C   0  0  0  0  0  0  0  0  0  0  0  0
   21.1902  -19.0814  -15.9581 N   0  0  0  0  0  0  0  0  0  0  0  0
   24.3280  -19.5642  -15.4280 C   0  0  0  0  0  0  0  0  0  0  0  0
   24.3090  -20.7715  -15.7769 O   0  0  0  0  0  0  0  0  0  0  0  0
   25.8366  -21.3953   -7.9745 C   0  0  0  0  0  0  0  0  0  0  0  0
   25.8818  -20.1690   -9.3047 S   0  0  0  0  0  0  0  0  0  0  0  0
   24.9669  -20.8012  -10.7087 C   0  0  0  0  0  0  0  0  0  0  0  0
   24.9543  -19.9140  -11.8931 C   0  0  0  0  0  0  0  0  0  0  0  0
   24.1880  -20.3930  -13.0531 C   0  0  2  0  0  0  0  0  0  0  0  0
   24.2015  -19.2670  -14.0618 N   0  0  0  0  0  0  0  0  0  0  0  0
   22.7953  -20.7173  -12.7622 C   0  0  0  0  0  0  0  0  0  0  0  0
   21.8116  -19.7095  -12.8734 O   0  0  0  0  0  0  0  0  0  0  0  0
   22.3671  -21.8247  -12.4145 O   0  0  0  0  0  0  0  0  0  0  0  0
  2  3  1  0
  2  1  1  6
  3  4  1  0
  4  8  1  0
  5  4  2  0
  5  6  1  0
  6  7  1  0
  8  7  2  0
  9 10  2  0
  9  2  1  0
 11  9  1  0
 12 11  1  0
 13 14  1  0
 12 13  1  6
 14 18  1  0
 14 15  2  0
 15 16  1  0
 17 16  1  0
 18 17  2  0
 19 20  2  0
 19 12  1  0
 22 21  1  0
 23 22  1  0
 25 24  1  1
 24 23  1  0
 25 26  1  0
 26 19  1  0
 27 25  1  0
 28 27  1  0
 29 27  2  0
M  END
$$$$
