HHM.pdb
     RDKit          3D

 29 30  0  0  1  0  0  0  0  0999 V2000
   25.5214  -20.3341  -17.0332 N   0  0  0  0  0  0  0  0  0  0  0  0
   26.4917  -20.5319  -15.9551 C   0  0  1  0  0  0  0  0  0  0  0  0
   27.7623  -19.7736  -16.2767 C   0  0  0  0  0  0  0  0  0  0  0  0
   28.4808  -20.4050  -17.4189 C   0  0  0  0  0  0  0  0  0  0  0  0
   28.1122  -21.4972  -18.1622 C   0  0  0  0  0  0  0  0  0  0  0  0
   29.0749  -21.6906  -19.0802 N   0  0  0  0  0  0  0  0  0  0  0  0
   30.0170  -20.7672  -18.9334 C   0  0  0  0  0  0  0  0  0  0  0  0
   29.6518  -19.9775  -17.9130 N   0  0  0  0  0  0  0  0  0  0  0  0
   25.8773  -20.0041  -14.7185 C   0  0  0  0  0  0  0  0  0  0  0  0
   25.6957  -18.7652  -14.5691 O   0  0  0  0  0  0  0  0  0  0  0  0
   25.4626  -20.8460  -13.6440 N   0  0  0  0  0  0  0  0  0  0  0  0
   24.7932  -20.3850  -12.4714 C   0  0  1  0  0  0  0  0  0  0  0  0
   23.3069  -20.7029  -12.4488 C   0  0  0  0  0  0  0  0  0  0  0  0
   22.5627  -19.9757  -13.4810 C   0  0  0  0  0  0  0  0  0  0  0  0
   22.1513  -18.6587  -13.5118 C   0  0  0  0  0  0  0  0  0  0  0  0
   21.4994  -18.4239  -14.6520 N   0  0  0  0  0  0  0  0  0  0  0  0
   21.4883  -19.5731  -15.3507 C   0  0  0  0  0  0  0  0  0  0  0  0
   22.1314  -20.5079  -14.6402 N   0  0  0  0  0  0  0  0  0  0  0  0
   25.4124  -20.9337  -11.2186 C   0  0  0  0  0  0  0  0  0  0  0  0
   25.6239  -22.1699  -11.1374 O   0  0  0  0  0  0  0  0  0  0  0  0
   29.1769  -19.4948   -4.4592 C   0  0  0  0  0  0  0  0  0  0  0  0
   28.5465  -18.8447   -6.0261 S   0  0  0  0  0  0  0  0  0  0  0  0
   27.5243  -20.0932   -6.8036 C   0  0  0  0  0  0  0  0  0  0  0  0
   27.1393  -19.7990   -8.2019 C   0  0  0  0  0  0  0  0  0  0  0  0
   26.2492  -20.7752   -8.8476 C   0  0  2  0  0  0  0  0  0  0  0  0
   25.7690  -20.1271  -10.1263 N   0  0  0  0  0  0  0  0  0  0  0  0
   25.0752  -21.1334   -8.0585 C   0  0  0  0  0  0  0  0  0  0  0  0
   25.2108  -22.0489   -6.9912 O   0  0  0  0  0  0  0  0  0  0  0  0
   23.9279  -20.7038   -8.2314 O   0  0  0  0  0  0  0  0  0  0  0  0
  2  3  1  0
  2  1  1  6
  3  4  1  0
  4  8  1  0
  5  4  2  0
  5  6  1  0
  6  7  1  0
  8  7  2  0
  9 10  2  0
  9  2  1  0
 11  9  1  0
 12 11  1  0
 13 14  1  0
 12 13  1  6
 14 18  1  0
 14 15  2  0
 15 16  1  0
 17 16  1  0
 18 17  2  0
 19 20  2  0
 19 12  1  0
 22 21  1  0
 23 22  1  0
 25 24  1  1
 24 23  1  0
 25 26  1  0
 26 19  1  0
 27 25  1  0
 28 27  1  0
 29 27  2  0
M  END
$$$$
