HHM.pdb
     RDKit          3D

 29 30  0  0  1  0  0  0  0  0999 V2000
   25.4826  -16.6905  -17.1667 N   0  0  0  0  0  0  0  0  0  0  0  0
   25.3628  -16.5937  -15.7110 C   0  0  1  0  0  0  0  0  0  0  0  0
   24.0015  -16.0345  -15.3545 C   0  0  0  0  0  0  0  0  0  0  0  0
   23.8616  -14.6328  -15.8393 C   0  0  0  0  0  0  0  0  0  0  0  0
   24.6899  -13.5633  -15.6130 C   0  0  0  0  0  0  0  0  0  0  0  0
   24.1538  -12.5093  -16.2524 N   0  0  0  0  0  0  0  0  0  0  0  0
   23.0347  -12.8837  -16.8599 C   0  0  0  0  0  0  0  0  0  0  0  0
   22.8555  -14.1882  -16.6062 N   0  0  0  0  0  0  0  0  0  0  0  0
   25.5131  -17.9625  -15.1730 C   0  0  0  0  0  0  0  0  0  0  0  0
   24.5744  -18.7987  -15.2722 O   0  0  0  0  0  0  0  0  0  0  0  0
   26.7023  -18.4090  -14.5237 N   0  0  0  0  0  0  0  0  0  0  0  0
   26.8971  -19.7288  -14.0180 C   0  0  1  0  0  0  0  0  0  0  0  0
   28.0697  -20.4609  -14.6502 C   0  0  0  0  0  0  0  0  0  0  0  0
   27.8544  -20.7404  -16.0728 C   0  0  0  0  0  0  0  0  0  0  0  0
   27.2978  -21.8467  -16.6820 C   0  0  0  0  0  0  0  0  0  0  0  0
   27.3019  -21.6740  -18.0050 N   0  0  0  0  0  0  0  0  0  0  0  0
   27.8536  -20.4720  -18.2500 C   0  0  0  0  0  0  0  0  0  0  0  0
   28.1860  -19.9114  -17.0806 N   0  0  0  0  0  0  0  0  0  0  0  0
   27.0827  -19.7379  -12.5283 C   0  0  0  0  0  0  0  0  0  0  0  0
   28.1612  -19.3063  -12.0485 O   0  0  0  0  0  0  0  0  0  0  0  0
   27.7970  -19.3497   -5.2670 C   0  0  0  0  0  0  0  0  0  0  0  0
   27.2566  -18.7112   -6.8718 S   0  0  0  0  0  0  0  0  0  0  0  0
   26.9538  -20.0906   -7.9735 C   0  0  0  0  0  0  0  0  0  0  0  0
   26.6926  -19.7162   -9.3812 C   0  0  0  0  0  0  0  0  0  0  0  0
   26.5253  -20.8295  -10.3272 C   0  0  2  0  0  0  0  0  0  0  0  0
   26.1033  -20.2084  -11.6393 N   0  0  0  0  0  0  0  0  0  0  0  0
   25.5050  -21.7987   -9.9415 C   0  0  0  0  0  0  0  0  0  0  0  0
   25.7709  -22.7029   -8.8892 O   0  0  0  0  0  0  0  0  0  0  0  0
   24.3873  -21.9181  -10.4586 O   0  0  0  0  0  0  0  0  0  0  0  0
  2  3  1  0
  2  1  1  6
  3  4  1  0
  4  8  1  0
  5  4  2  0
  5  6  1  0
  6  7  1  0
  8  7  2  0
  9 10  2  0
  9  2  1  0
 11  9  1  0
 12 11  1  0
 13 14  1  0
 12 13  1  6
 14 18  1  0
 14 15  2  0
 15 16  1  0
 17 16  1  0
 18 17  2  0
 19 20  2  0
 19 12  1  0
 22 21  1  0
 23 22  1  0
 25 24  1  1
 24 23  1  0
 25 26  1  0
 26 19  1  0
 27 25  1  0
 28 27  1  0
 29 27  2  0
M  END
$$$$
