HHM.pdb
     RDKit          3D

 29 30  0  0  1  0  0  0  0  0999 V2000
   23.9974  -14.6903  -17.8456 N   0  0  0  0  0  0  0  0  0  0  0  0
   24.0513  -13.8306  -16.6620 C   0  0  1  0  0  0  0  0  0  0  0  0
   25.4932  -13.4803  -16.3600 C   0  0  0  0  0  0  0  0  0  0  0  0
   26.2595  -14.6932  -15.9585 C   0  0  0  0  0  0  0  0  0  0  0  0
   26.3534  -15.2739  -14.7195 C   0  0  0  0  0  0  0  0  0  0  0  0
   27.1558  -16.3448  -14.8476 N   0  0  0  0  0  0  0  0  0  0  0  0
   27.5584  -16.4468  -16.1083 C   0  0  0  0  0  0  0  0  0  0  0  0
   27.0075  -15.4323  -16.7905 N   0  0  0  0  0  0  0  0  0  0  0  0
   23.2814  -12.6092  -16.9797 C   0  0  0  0  0  0  0  0  0  0  0  0
   23.3703  -12.0709  -18.1166 O   0  0  0  0  0  0  0  0  0  0  0  0
   22.4115  -11.9803  -16.0400 N   0  0  0  0  0  0  0  0  0  0  0  0
   21.5309  -10.9025  -16.3533 C   0  0  1  0  0  0  0  0  0  0  0  0
   20.1007  -11.1242  -15.8886 C   0  0  0  0  0  0  0  0  0  0  0  0
   19.4274  -12.1897  -16.6366 C   0  0  0  0  0  0  0  0  0  0  0  0
   19.5532  -12.5551  -17.9615 C   0  0  0  0  0  0  0  0  0  0  0  0
   18.7449  -13.5855  -18.2165 N   0  0  0  0  0  0  0  0  0  0  0  0
   18.1037  -13.8840  -17.0723 C   0  0  0  0  0  0  0  0  0  0  0  0
   18.5186  -13.0388  -16.1206 N   0  0  0  0  0  0  0  0  0  0  0  0
   22.0146   -9.5990  -15.7868 C   0  0  0  0  0  0  0  0  0  0  0  0
   22.3643   -9.5541  -14.5805 O   0  0  0  0  0  0  0  0  0  0  0  0
   26.1796   -6.2944  -19.7937 C   0  0  0  0  0  0  0  0  0  0  0  0
   24.6557   -5.6482  -19.0619 S   0  0  0  0  0  0  0  0  0  0  0  0
   24.1987   -6.6771  -17.6689 C   0  0  0  0  0  0  0  0  0  0  0  0
   22.9816   -6.2426  -16.9479 C   0  0  0  0  0  0  0  0  0  0  0  0
   22.5131   -7.1310  -15.8739 C   0  0  2  0  0  0  0  0  0  0  0  0
   22.0956   -8.4200  -16.5447 N   0  0  0  0  0  0  0  0  0  0  0  0
   21.3664   -6.6218  -15.1288 C   0  0  0  0  0  0  0  0  0  0  0  0
   21.5552   -5.5800  -14.1936 O   0  0  0  0  0  0  0  0  0  0  0  0
   20.2000   -7.0212  -15.2328 O   0  0  0  0  0  0  0  0  0  0  0  0
  2  3  1  0
  2  1  1  6
  3  4  1  0
  4  8  1  0
  5  4  2  0
  5  6  1  0
  6  7  1  0
  8  7  2  0
  9 10  2  0
  9  2  1  0
 11  9  1  0
 12 11  1  0
 13 14  1  0
 12 13  1  1
 14 18  1  0
 14 15  2  0
 15 16  1  0
 17 16  1  0
 18 17  2  0
 19 20  2  0
 19 12  1  0
 22 21  1  0
 23 22  1  0
 25 24  1  6
 24 23  1  0
 25 26  1  0
 26 19  1  0
 27 25  1  0
 28 27  1  0
 29 27  2  0
M  END
$$$$
