HHM.pdb
     RDKit          3D

 29 30  0  0  1  0  0  0  0  0999 V2000
   25.9467  -21.7365  -16.2608 N   0  0  0  0  0  0  0  0  0  0  0  0
   24.9777  -22.7182  -15.7707 C   0  0  1  0  0  0  0  0  0  0  0  0
   25.7042  -23.8006  -15.0002 C   0  0  0  0  0  0  0  0  0  0  0  0
   26.5834  -24.5942  -15.9040 C   0  0  0  0  0  0  0  0  0  0  0  0
   27.9172  -24.4178  -16.1705 C   0  0  0  0  0  0  0  0  0  0  0  0
   28.2728  -25.3749  -17.0449 N   0  0  0  0  0  0  0  0  0  0  0  0
   27.2179  -26.1296  -17.3268 C   0  0  0  0  0  0  0  0  0  0  0  0
   26.1803  -25.6500  -16.6257 N   0  0  0  0  0  0  0  0  0  0  0  0
   24.0418  -21.9957  -14.8833 C   0  0  0  0  0  0  0  0  0  0  0  0
   24.4639  -21.3884  -13.8618 O   0  0  0  0  0  0  0  0  0  0  0  0
   22.6366  -21.9437  -15.1238 N   0  0  0  0  0  0  0  0  0  0  0  0
   21.6830  -21.3981  -14.2136 C   0  0  1  0  0  0  0  0  0  0  0  0
   20.8803  -20.2414  -14.7867 C   0  0  0  0  0  0  0  0  0  0  0  0
   19.9462  -19.6706  -13.8120 C   0  0  0  0  0  0  0  0  0  0  0  0
   20.1979  -18.9265  -12.6773 C   0  0  0  0  0  0  0  0  0  0  0  0
   19.0433  -18.6154  -12.0853 N   0  0  0  0  0  0  0  0  0  0  0  0
   18.0566  -19.1507  -12.8264 C   0  0  0  0  0  0  0  0  0  0  0  0
   18.6060  -19.7871  -13.8682 N   0  0  0  0  0  0  0  0  0  0  0  0
   20.7221  -22.4387  -13.7160 C   0  0  0  0  0  0  0  0  0  0  0  0
   20.2425  -23.2629  -14.5348 O   0  0  0  0  0  0  0  0  0  0  0  0
   18.2178  -23.1498   -7.2911 C   0  0  0  0  0  0  0  0  0  0  0  0
   18.6799  -24.7292   -8.0441 S   0  0  0  0  0  0  0  0  0  0  0  0
   18.4921  -24.6026   -9.8208 C   0  0  0  0  0  0  0  0  0  0  0  0
   19.4896  -23.7392  -10.4914 C   0  0  0  0  0  0  0  0  0  0  0  0
   19.3702  -23.6261  -11.9526 C   0  0  2  0  0  0  0  0  0  0  0  0
   20.3308  -22.5363  -12.3713 N   0  0  0  0  0  0  0  0  0  0  0  0
   18.0391  -23.2542  -12.4208 C   0  0  0  0  0  0  0  0  0  0  0  0
   17.1790  -24.2535  -12.9282 O   0  0  0  0  0  0  0  0  0  0  0  0
   17.5645  -22.1116  -12.4209 O   0  0  0  0  0  0  0  0  0  0  0  0
  2  3  1  0
  2  1  1  1
  3  4  1  0
  4  8  1  0
  5  4  2  0
  5  6  1  0
  6  7  1  0
  8  7  2  0
  9 10  2  0
  9  2  1  0
 11  9  1  0
 12 11  1  0
 13 14  1  0
 12 13  1  6
 14 18  1  0
 14 15  2  0
 15 16  1  0
 17 16  1  0
 18 17  2  0
 19 20  2  0
 19 12  1  0
 22 21  1  0
 23 22  1  0
 25 24  1  1
 24 23  1  0
 25 26  1  0
 26 19  1  0
 27 25  1  0
 28 27  1  0
 29 27  2  0
M  END
$$$$
