EPL.pdb
     RDKit          3D

 25 25  0  0  1  0  0  0  0  0999 V2000
    7.4672  -19.2421   20.0823 N   0  0  0  0  0  0  0  0  0  0  0  0
    7.1024  -18.1427   20.9340 C   0  0  1  0  0  0  0  0  0  0  0  0
    6.6143  -18.7841   22.2463 C   0  0  0  0  0  0  0  0  0  0  0  0
    5.5629  -19.7938   21.8863 C   0  0  0  0  0  0  0  0  0  0  0  0
    5.3482  -20.7945   22.9544 C   0  0  0  0  0  0  0  0  0  0  0  0
    5.1785  -21.9847   22.6582 O   0  0  0  0  0  0  0  0  0  0  0  0
    8.1427  -17.1860   21.2540 C   0  0  0  0  0  0  0  0  0  0  0  0
    9.3546  -17.5979   21.2006 O   0  0  0  0  0  0  0  0  0  0  0  0
    5.3334  -20.4224   24.2863 O   0  0  0  0  0  0  0  0  0  0  0  0
    7.9395  -15.8433   21.6190 N   0  0  0  0  0  0  0  0  0  0  0  0
    6.7353  -15.0935   21.8894 C   0  0  0  0  0  0  0  0  0  0  0  0
    6.9731  -13.7986   21.1266 C   0  0  0  0  0  0  0  0  0  0  0  0
    8.4556  -13.6533   21.0794 C   0  0  0  0  0  0  0  0  0  0  0  0
    9.0139  -14.8405   21.8108 C   0  0  1  0  0  0  0  0  0  0  0  0
    9.2332  -14.5953   23.2506 C   0  0  0  0  0  0  0  0  0  0  0  0
   10.1965  -13.8690   23.6461 O   0  0  0  0  0  0  0  0  0  0  0  0
    7.7043  -11.9472   26.2257 C   0  0  0  0  0  0  0  0  0  0  0  0
    6.7955  -13.0719   25.6999 C   0  0  2  0  0  0  0  0  0  0  0  0
    5.3993  -12.7105   26.1531 C   0  0  0  0  0  0  0  0  0  0  0  0
    7.3241  -14.3359   26.2972 C   0  0  0  0  0  0  0  0  0  0  0  0
    8.5614  -14.8772   25.6586 C   0  0  2  0  0  0  0  0  0  0  0  0
    8.3884  -15.1532   24.2489 N   0  0  0  0  0  0  0  0  0  0  0  0
    9.1391  -16.0464   26.3490 C   0  0  0  0  0  0  0  0  0  0  0  0
    9.3394  -17.2643   25.7191 O   0  0  0  0  0  0  0  0  0  0  0  0
    9.4686  -15.9438   27.5678 O   0  0  0  0  0  0  0  0  0  0  0  0
  2  1  1  6
  3  2  1  0
  4  3  1  0
  5  4  1  0
  6  5  2  0
  7 10  1  0
  7  2  1  0
  8  7  2  0
  9  5  1  0
 10 14  1  0
 11 10  1  0
 11 12  1  0
 12 13  1  0
 14 13  1  0
 14 15  1  1
 15 22  1  0
 16 15  2  0
 18 19  1  1
 18 17  1  0
 20 18  1  0
 21 22  1  0
 21 20  1  1
 23 21  1  0
 23 24  1  0
 25 23  2  0
M  END
$$$$
