EPL.pdb
     RDKit          3D

 25 25  0  0  1  0  0  0  0  0999 V2000
   11.9672  -17.4354   19.1445 N   0  0  0  0  0  0  0  0  0  0  0  0
   10.8965  -17.8249   20.0214 C   0  0  1  0  0  0  0  0  0  0  0  0
   11.5701  -18.5814   21.1813 C   0  0  0  0  0  0  0  0  0  0  0  0
   12.8992  -17.9284   21.4289 C   0  0  0  0  0  0  0  0  0  0  0  0
   13.4270  -18.2111   22.7816 C   0  0  0  0  0  0  0  0  0  0  0  0
   12.8187  -17.7995   23.7785 O   0  0  0  0  0  0  0  0  0  0  0  0
   10.0856  -16.7621   20.5807 C   0  0  0  0  0  0  0  0  0  0  0  0
   10.5977  -15.5883   20.6120 O   0  0  0  0  0  0  0  0  0  0  0  0
   14.5949  -18.9314   22.9541 O   0  0  0  0  0  0  0  0  0  0  0  0
    8.7840  -16.9053   21.0935 N   0  0  0  0  0  0  0  0  0  0  0  0
    7.9674  -18.0732   21.3273 C   0  0  0  0  0  0  0  0  0  0  0  0
    6.6163  -17.6494   20.7702 C   0  0  0  0  0  0  0  0  0  0  0  0
    6.6002  -16.1651   20.9031 C   0  0  0  0  0  0  0  0  0  0  0  0
    7.9124  -15.7888   21.5296 C   0  0  1  0  0  0  0  0  0  0  0  0
    7.8639  -15.7242   23.0043 C   0  0  0  0  0  0  0  0  0  0  0  0
    8.4008  -16.6313   23.7119 O   0  0  0  0  0  0  0  0  0  0  0  0
    5.9569  -11.6909   27.3127 C   0  0  0  0  0  0  0  0  0  0  0  0
    7.0167  -12.7553   26.9790 C   0  0  2  0  0  0  0  0  0  0  0  0
    8.3507  -12.0998   27.2547 C   0  0  0  0  0  0  0  0  0  0  0  0
    6.7966  -13.1140   25.5448 C   0  0  0  0  0  0  0  0  0  0  0  0
    7.5061  -14.3422   25.0759 C   0  0  2  0  0  0  0  0  0  0  0  0
    7.2224  -14.6583   23.6929 N   0  0  0  0  0  0  0  0  0  0  0  0
    7.2999  -15.5264   25.9316 C   0  0  0  0  0  0  0  0  0  0  0  0
    6.2206  -16.3820   25.7785 O   0  0  0  0  0  0  0  0  0  0  0  0
    8.1374  -15.7807   26.8473 O   0  0  0  0  0  0  0  0  0  0  0  0
  2  1  1  6
  3  2  1  0
  4  3  1  0
  5  4  1  0
  6  5  2  0
  7 10  1  0
  7  2  1  0
  8  7  2  0
  9  5  1  0
 10 14  1  0
 11 10  1  0
 11 12  1  0
 12 13  1  0
 14 13  1  0
 14 15  1  1
 15 22  1  0
 16 15  2  0
 18 19  1  6
 18 17  1  0
 20 18  1  0
 21 22  1  0
 21 20  1  1
 23 21  1  0
 23 24  1  0
 25 23  2  0
M  END
$$$$
