EPL.pdb
     RDKit          3D

 25 25  0  0  1  0  0  0  0  0999 V2000
   12.0705  -17.7752   19.5654 N   0  0  0  0  0  0  0  0  0  0  0  0
   10.7680  -17.9147   20.1579 C   0  0  1  0  0  0  0  0  0  0  0  0
   10.9460  -18.9223   21.3089 C   0  0  0  0  0  0  0  0  0  0  0  0
   12.0363  -18.3975   22.1977 C   0  0  0  0  0  0  0  0  0  0  0  0
   12.0680  -19.0706   23.5145 C   0  0  0  0  0  0  0  0  0  0  0  0
   12.6401  -18.5288   24.4697 O   0  0  0  0  0  0  0  0  0  0  0  0
   10.1577  -16.7144   20.6934 C   0  0  0  0  0  0  0  0  0  0  0  0
   10.8954  -15.6708   20.7815 O   0  0  0  0  0  0  0  0  0  0  0  0
   11.4664  -20.3021   23.6994 O   0  0  0  0  0  0  0  0  0  0  0  0
    8.8252  -16.5935   21.1263 N   0  0  0  0  0  0  0  0  0  0  0  0
    7.7714  -17.5698   21.2738 C   0  0  0  0  0  0  0  0  0  0  0  0
    6.5750  -16.8617   20.6555 C   0  0  0  0  0  0  0  0  0  0  0  0
    6.8583  -15.4098   20.8372 C   0  0  0  0  0  0  0  0  0  0  0  0
    8.1782  -15.3291   21.5496 C   0  0  1  0  0  0  0  0  0  0  0  0
    8.0519  -15.2870   23.0205 C   0  0  0  0  0  0  0  0  0  0  0  0
    8.0199  -16.3587   23.7003 O   0  0  0  0  0  0  0  0  0  0  0  0
    5.6932  -11.5799   27.2420 C   0  0  0  0  0  0  0  0  0  0  0  0
    6.7500  -12.6845   27.0673 C   0  0  2  0  0  0  0  0  0  0  0  0
    7.9699  -12.2011   27.8179 C   0  0  0  0  0  0  0  0  0  0  0  0
    6.9544  -12.8236   25.5933 C   0  0  0  0  0  0  0  0  0  0  0  0
    7.7579  -14.0088   25.1674 C   0  0  2  0  0  0  0  0  0  0  0  0
    7.9610  -14.0616   23.7359 N   0  0  0  0  0  0  0  0  0  0  0  0
    7.2469  -15.2998   25.6668 C   0  0  0  0  0  0  0  0  0  0  0  0
    7.8964  -16.0336   26.6466 O   0  0  0  0  0  0  0  0  0  0  0  0
    6.1715  -15.7662   25.1868 O   0  0  0  0  0  0  0  0  0  0  0  0
  2  1  1  1
  3  2  1  0
  4  3  1  0
  5  4  1  0
  6  5  2  0
  7 10  1  0
  7  2  1  0
  8  7  2  0
  9  5  1  0
 10 14  1  0
 11 10  1  0
 11 12  1  0
 12 13  1  0
 14 13  1  0
 14 15  1  1
 15 22  1  0
 16 15  2  0
 18 19  1  1
 18 17  1  0
 20 18  1  0
 21 22  1  0
 21 20  1  6
 23 21  1  0
 23 24  1  0
 25 23  2  0
M  END
$$$$
