EPL.pdb
     RDKit          3D

 25 25  0  0  1  0  0  0  0  0999 V2000
    7.0135  -19.7842   21.1108 N   0  0  0  0  0  0  0  0  0  0  0  0
    6.7263  -18.4575   21.5847 C   0  0  1  0  0  0  0  0  0  0  0  0
    6.0362  -18.6488   22.9481 C   0  0  0  0  0  0  0  0  0  0  0  0
    6.7358  -19.7773   23.6489 C   0  0  0  0  0  0  0  0  0  0  0  0
    6.7833  -19.5917   25.1157 C   0  0  0  0  0  0  0  0  0  0  0  0
    6.3522  -20.4797   25.8632 O   0  0  0  0  0  0  0  0  0  0  0  0
    7.8543  -17.5660   21.7661 C   0  0  0  0  0  0  0  0  0  0  0  0
    9.0252  -18.0819   21.7042 O   0  0  0  0  0  0  0  0  0  0  0  0
    7.3038  -18.4369   25.6708 O   0  0  0  0  0  0  0  0  0  0  0  0
    7.7773  -16.1824   22.0051 N   0  0  0  0  0  0  0  0  0  0  0  0
    6.6545  -15.3162   22.2778 C   0  0  0  0  0  0  0  0  0  0  0  0
    6.9283  -14.1241   21.3727 C   0  0  0  0  0  0  0  0  0  0  0  0
    8.4097  -14.1031   21.2115 C   0  0  0  0  0  0  0  0  0  0  0  0
    8.9332  -15.2549   22.0210 C   0  0  1  0  0  0  0  0  0  0  0  0
    9.2768  -14.8901   23.4103 C   0  0  0  0  0  0  0  0  0  0  0  0
   10.2597  -14.1252   23.6565 O   0  0  0  0  0  0  0  0  0  0  0  0
    7.5784  -12.0631   25.9558 C   0  0  0  0  0  0  0  0  0  0  0  0
    6.8250  -13.3943   25.7901 C   0  0  2  0  0  0  0  0  0  0  0  0
    5.4327  -13.1413   26.3220 C   0  0  0  0  0  0  0  0  0  0  0  0
    7.6037  -14.4033   26.5708 C   0  0  0  0  0  0  0  0  0  0  0  0
    8.8086  -14.9551   25.8814 C   0  0  2  0  0  0  0  0  0  0  0  0
    8.5342  -15.3715   24.5232 N   0  0  0  0  0  0  0  0  0  0  0  0
    9.4946  -16.0294   26.6247 C   0  0  0  0  0  0  0  0  0  0  0  0
    9.7954  -17.2578   26.0582 O   0  0  0  0  0  0  0  0  0  0  0  0
    9.8263  -15.8317   27.8311 O   0  0  0  0  0  0  0  0  0  0  0  0
  2  1  1  1
  3  2  1  0
  4  3  1  0
  5  4  1  0
  6  5  2  0
  7 10  1  0
  7  2  1  0
  8  7  2  0
  9  5  1  0
 10 14  1  0
 11 10  1  0
 11 12  1  0
 12 13  1  0
 14 13  1  0
 14 15  1  1
 15 22  1  0
 16 15  2  0
 18 19  1  1
 18 17  1  0
 20 18  1  0
 21 22  1  0
 21 20  1  1
 23 21  1  0
 23 24  1  0
 25 23  2  0
M  END
$$$$
