EPL.pdb
     RDKit          3D

 25 25  0  0  1  0  0  0  0  0999 V2000
   10.6669  -17.9593   19.2724 N   0  0  0  0  0  0  0  0  0  0  0  0
    9.4536  -17.3771   19.7783 C   0  0  1  0  0  0  0  0  0  0  0  0
    8.7309  -18.5155   20.5223 C   0  0  0  0  0  0  0  0  0  0  0  0
    9.6595  -19.0098   21.5935 C   0  0  0  0  0  0  0  0  0  0  0  0
    9.0543  -20.0758   22.4213 C   0  0  0  0  0  0  0  0  0  0  0  0
    9.6749  -20.5288   23.3923 O   0  0  0  0  0  0  0  0  0  0  0  0
    9.5914  -16.2555   20.6854 C   0  0  0  0  0  0  0  0  0  0  0  0
   10.7695  -15.9867   21.1108 O   0  0  0  0  0  0  0  0  0  0  0  0
    7.7998  -20.5791   22.1286 O   0  0  0  0  0  0  0  0  0  0  0  0
    8.5446  -15.4347   21.1415 N   0  0  0  0  0  0  0  0  0  0  0  0
    7.1193  -15.4809   20.9136 C   0  0  0  0  0  0  0  0  0  0  0  0
    6.7835  -14.0261   20.6205 C   0  0  0  0  0  0  0  0  0  0  0  0
    7.8282  -13.2436   21.3397 C   0  0  0  0  0  0  0  0  0  0  0  0
    8.7097  -14.2521   22.0194 C   0  0  1  0  0  0  0  0  0  0  0  0
    8.2832  -14.5740   23.3963 C   0  0  0  0  0  0  0  0  0  0  0  0
    7.2875  -15.3330   23.6067 O   0  0  0  0  0  0  0  0  0  0  0  0
    5.7044  -12.0952   26.8061 C   0  0  0  0  0  0  0  0  0  0  0  0
    7.1516  -12.5968   26.9526 C   0  0  2  0  0  0  0  0  0  0  0  0
    8.0177  -11.5222   26.3358 C   0  0  0  0  0  0  0  0  0  0  0  0
    7.2027  -13.9083   26.2377 C   0  0  0  0  0  0  0  0  0  0  0  0
    8.5716  -14.3945   25.8891 C   0  0  2  0  0  0  0  0  0  0  0  0
    8.9574  -14.0566   24.5362 N   0  0  0  0  0  0  0  0  0  0  0  0
    8.7898  -15.8308   26.1473 C   0  0  0  0  0  0  0  0  0  0  0  0
    9.2851  -16.6976   25.1863 O   0  0  0  0  0  0  0  0  0  0  0  0
    8.5159  -16.3016   27.2910 O   0  0  0  0  0  0  0  0  0  0  0  0
  2  1  1  1
  3  2  1  0
  4  3  1  0
  5  4  1  0
  6  5  2  0
  7 10  1  0
  7  2  1  0
  8  7  2  0
  9  5  1  0
 10 14  1  0
 11 10  1  0
 11 12  1  0
 12 13  1  0
 14 13  1  0
 14 15  1  1
 15 22  1  0
 16 15  2  0
 18 19  1  6
 18 17  1  0
 20 18  1  0
 21 22  1  0
 21 20  1  6
 23 21  1  0
 23 24  1  0
 25 23  2  0
M  END
$$$$
