EPL.pdb
     RDKit          3D

 25 25  0  0  1  0  0  0  0  0999 V2000
    6.9304  -19.9211   21.4496 N   0  0  0  0  0  0  0  0  0  0  0  0
    6.7060  -18.6275   22.0353 C   0  0  1  0  0  0  0  0  0  0  0  0
    6.3671  -18.8987   23.5129 C   0  0  0  0  0  0  0  0  0  0  0  0
    7.4014  -19.8502   24.0413 C   0  0  0  0  0  0  0  0  0  0  0  0
    7.2646  -20.0866   25.4951 C   0  0  0  0  0  0  0  0  0  0  0  0
    6.2172  -20.5703   25.9446 O   0  0  0  0  0  0  0  0  0  0  0  0
    7.8048  -17.6841   21.9857 C   0  0  0  0  0  0  0  0  0  0  0  0
    8.9745  -18.1575   21.7646 O   0  0  0  0  0  0  0  0  0  0  0  0
    8.2919  -19.7751   26.3670 O   0  0  0  0  0  0  0  0  0  0  0  0
    7.7011  -16.2925   22.1595 N   0  0  0  0  0  0  0  0  0  0  0  0
    6.5790  -15.4481   22.4962 C   0  0  0  0  0  0  0  0  0  0  0  0
    6.7207  -14.2995   21.5085 C   0  0  0  0  0  0  0  0  0  0  0  0
    8.1780  -14.2411   21.2016 C   0  0  0  0  0  0  0  0  0  0  0  0
    8.8186  -15.3299   22.0140 C   0  0  1  0  0  0  0  0  0  0  0  0
    9.2811  -14.8791   23.3423 C   0  0  0  0  0  0  0  0  0  0  0  0
   10.3060  -14.1386   23.4559 O   0  0  0  0  0  0  0  0  0  0  0  0
    7.3750  -11.7124   25.6413 C   0  0  0  0  0  0  0  0  0  0  0  0
    7.2124  -13.2421   25.6742 C   0  0  2  0  0  0  0  0  0  0  0  0
    5.8640  -13.4930   26.3100 C   0  0  0  0  0  0  0  0  0  0  0  0
    8.3684  -13.7578   26.4688 C   0  0  0  0  0  0  0  0  0  0  0  0
    9.1111  -14.8981   25.8523 C   0  0  2  0  0  0  0  0  0  0  0  0
    8.6105  -15.2477   24.5406 N   0  0  0  0  0  0  0  0  0  0  0  0
    9.2035  -16.0962   26.7086 C   0  0  0  0  0  0  0  0  0  0  0  0
    9.8503  -16.0926   27.9341 O   0  0  0  0  0  0  0  0  0  0  0  0
    8.6737  -17.1781   26.3169 O   0  0  0  0  0  0  0  0  0  0  0  0
  2  1  1  1
  3  2  1  0
  4  3  1  0
  5  4  1  0
  6  5  2  0
  7 10  1  0
  7  2  1  0
  8  7  2  0
  9  5  1  0
 10 14  1  0
 11 10  1  0
 11 12  1  0
 12 13  1  0
 14 13  1  0
 14 15  1  1
 15 22  1  0
 16 15  2  0
 18 19  1  1
 18 17  1  0
 20 18  1  0
 21 22  1  0
 21 20  1  1
 23 21  1  0
 23 24  1  0
 25 23  2  0
M  END
$$$$
