EPL.pdb
     RDKit          3D

 25 25  0  0  1  0  0  0  0  0999 V2000
   12.0112  -17.4603   19.7102 N   0  0  0  0  0  0  0  0  0  0  0  0
   10.6246  -17.4454   20.0898 C   0  0  1  0  0  0  0  0  0  0  0  0
   10.3833  -18.7815   20.8166 C   0  0  0  0  0  0  0  0  0  0  0  0
   11.3670  -18.8589   21.9482 C   0  0  0  0  0  0  0  0  0  0  0  0
   11.1272  -20.0224   22.8297 C   0  0  0  0  0  0  0  0  0  0  0  0
   10.6476  -19.8515   23.9584 O   0  0  0  0  0  0  0  0  0  0  0  0
   10.1929  -16.3695   20.9593 C   0  0  0  0  0  0  0  0  0  0  0  0
   11.1016  -15.6106   21.4486 O   0  0  0  0  0  0  0  0  0  0  0  0
   11.4310  -21.3058   22.4134 O   0  0  0  0  0  0  0  0  0  0  0  0
    8.8625  -16.0842   21.3145 N   0  0  0  0  0  0  0  0  0  0  0  0
    7.6307  -16.7993   21.0759 C   0  0  0  0  0  0  0  0  0  0  0  0
    6.6870  -15.6929   20.6282 C   0  0  0  0  0  0  0  0  0  0  0  0
    7.2167  -14.4585   21.2737 C   0  0  0  0  0  0  0  0  0  0  0  0
    8.4193  -14.8859   22.0656 C   0  0  1  0  0  0  0  0  0  0  0  0
    8.1065  -15.2455   23.4635 C   0  0  0  0  0  0  0  0  0  0  0  0
    8.0847  -16.4602   23.8320 O   0  0  0  0  0  0  0  0  0  0  0  0
    5.8464  -12.7877   25.7542 C   0  0  0  0  0  0  0  0  0  0  0  0
    6.6983  -12.8996   27.0306 C   0  0  2  0  0  0  0  0  0  0  0  0
    6.4466  -11.6226   27.7995 C   0  0  0  0  0  0  0  0  0  0  0  0
    8.1091  -13.0655   26.5659 C   0  0  0  0  0  0  0  0  0  0  0  0
    8.3829  -14.3068   25.7812 C   0  0  2  0  0  0  0  0  0  0  0  0
    7.8185  -14.2627   24.4498 N   0  0  0  0  0  0  0  0  0  0  0  0
    7.9981  -15.5556   26.4667 C   0  0  0  0  0  0  0  0  0  0  0  0
    8.6694  -16.0363   27.5795 O   0  0  0  0  0  0  0  0  0  0  0  0
    7.0155  -16.2239   26.0280 O   0  0  0  0  0  0  0  0  0  0  0  0
  2  1  1  1
  3  2  1  0
  4  3  1  0
  5  4  1  0
  6  5  2  0
  7 10  1  0
  7  2  1  0
  8  7  2  0
  9  5  1  0
 10 14  1  0
 11 10  1  0
 11 12  1  0
 12 13  1  0
 14 13  1  0
 14 15  1  1
 15 22  1  0
 16 15  2  0
 18 19  1  1
 18 17  1  0
 20 18  1  0
 21 22  1  0
 21 20  1  1
 23 21  1  0
 23 24  1  0
 25 23  2  0
M  END
$$$$
