EPL.pdb
     RDKit          3D

 25 25  0  0  1  0  0  0  0  0999 V2000
   12.3287  -17.8007   19.9293 N   0  0  0  0  0  0  0  0  0  0  0  0
   10.9767  -17.9369   20.3990 C   0  0  1  0  0  0  0  0  0  0  0  0
   11.0395  -18.9726   21.5369 C   0  0  0  0  0  0  0  0  0  0  0  0
   11.8392  -18.3635   22.6522 C   0  0  0  0  0  0  0  0  0  0  0  0
   11.8894  -19.2275   23.8518 C   0  0  0  0  0  0  0  0  0  0  0  0
   12.4960  -18.8453   24.8613 O   0  0  0  0  0  0  0  0  0  0  0  0
   10.3337  -16.7414   20.9062 C   0  0  0  0  0  0  0  0  0  0  0  0
   11.0862  -15.7402   21.1756 O   0  0  0  0  0  0  0  0  0  0  0  0
   11.2671  -20.4625   23.8664 O   0  0  0  0  0  0  0  0  0  0  0  0
    8.9545  -16.5825   21.1297 N   0  0  0  0  0  0  0  0  0  0  0  0
    7.8559  -17.5168   21.0545 C   0  0  0  0  0  0  0  0  0  0  0  0
    6.8002  -16.7262   20.2959 C   0  0  0  0  0  0  0  0  0  0  0  0
    7.1033  -15.2992   20.6008 C   0  0  0  0  0  0  0  0  0  0  0  0
    8.2945  -15.3128   21.5156 C   0  0  1  0  0  0  0  0  0  0  0  0
    7.9364  -15.3378   22.9483 C   0  0  0  0  0  0  0  0  0  0  0  0
    8.0946  -16.3913   23.6388 O   0  0  0  0  0  0  0  0  0  0  0  0
    5.6653  -11.5334   27.2703 C   0  0  0  0  0  0  0  0  0  0  0  0
    6.7139  -12.6283   27.0072 C   0  0  2  0  0  0  0  0  0  0  0  0
    8.0073  -12.0977   27.5825 C   0  0  0  0  0  0  0  0  0  0  0  0
    6.7380  -12.8220   25.5255 C   0  0  0  0  0  0  0  0  0  0  0  0
    7.4590  -14.0413   25.0509 C   0  0  2  0  0  0  0  0  0  0  0  0
    7.4046  -14.1993   23.6137 N   0  0  0  0  0  0  0  0  0  0  0  0
    7.0515  -15.2887   25.7256 C   0  0  0  0  0  0  0  0  0  0  0  0
    7.8153  -15.8896   26.7134 O   0  0  0  0  0  0  0  0  0  0  0  0
    5.9608  -15.8419   25.3959 O   0  0  0  0  0  0  0  0  0  0  0  0
  2  1  1  1
  3  2  1  0
  4  3  1  0
  5  4  1  0
  6  5  2  0
  7 10  1  0
  7  2  1  0
  8  7  2  0
  9  5  1  0
 10 14  1  0
 11 10  1  0
 11 12  1  0
 12 13  1  0
 14 13  1  0
 14 15  1  1
 15 22  1  0
 16 15  2  0
 18 19  1  6
 18 17  1  0
 20 18  1  0
 21 22  1  0
 21 20  1  1
 23 21  1  0
 23 24  1  0
 25 23  2  0
M  END
$$$$
