EPL.pdb
     RDKit          3D

 25 25  0  0  1  0  0  0  0  0999 V2000
   12.5084  -15.9001   19.7121 N   0  0  0  0  0  0  0  0  0  0  0  0
   11.2280  -16.4260   20.1006 C   0  0  1  0  0  0  0  0  0  0  0  0
   11.5307  -17.7522   20.8226 C   0  0  0  0  0  0  0  0  0  0  0  0
   11.7098  -18.8050   19.7673 C   0  0  0  0  0  0  0  0  0  0  0  0
   12.7207  -19.8178   20.1422 C   0  0  0  0  0  0  0  0  0  0  0  0
   12.3743  -20.8363   20.7553 O   0  0  0  0  0  0  0  0  0  0  0  0
   10.4187  -15.6042   20.9778 C   0  0  0  0  0  0  0  0  0  0  0  0
   11.0054  -14.6406   21.5848 O   0  0  0  0  0  0  0  0  0  0  0  0
   14.0543  -19.6466   19.8185 O   0  0  0  0  0  0  0  0  0  0  0  0
    9.0441  -15.7711   21.2227 N   0  0  0  0  0  0  0  0  0  0  0  0
    8.1108  -16.7898   20.8024 C   0  0  0  0  0  0  0  0  0  0  0  0
    6.9057  -15.9728   20.3605 C   0  0  0  0  0  0  0  0  0  0  0  0
    6.9853  -14.7173   21.1595 C   0  0  0  0  0  0  0  0  0  0  0  0
    8.2041  -14.8522   22.0268 C   0  0  1  0  0  0  0  0  0  0  0  0
    7.9224  -15.4436   23.3505 C   0  0  0  0  0  0  0  0  0  0  0  0
    8.1866  -16.6627   23.5864 O   0  0  0  0  0  0  0  0  0  0  0  0
    8.1659  -12.2101   26.8582 C   0  0  0  0  0  0  0  0  0  0  0  0
    6.8260  -12.7237   26.3030 C   0  0  2  0  0  0  0  0  0  0  0  0
    5.7667  -11.8338   26.9123 C   0  0  0  0  0  0  0  0  0  0  0  0
    6.7345  -14.1562   26.7193 C   0  0  0  0  0  0  0  0  0  0  0  0
    7.3652  -15.1361   25.7845 C   0  0  2  0  0  0  0  0  0  0  0  0
    7.3496  -14.6870   24.4093 N   0  0  0  0  0  0  0  0  0  0  0  0
    6.8284  -16.5066   25.8888 C   0  0  0  0  0  0  0  0  0  0  0  0
    7.1998  -17.3815   26.8972 O   0  0  0  0  0  0  0  0  0  0  0  0
    5.9936  -16.9106   25.0261 O   0  0  0  0  0  0  0  0  0  0  0  0
  2  1  1  1
  3  2  1  0
  4  3  1  0
  5  4  1  0
  6  5  2  0
  7 10  1  0
  7  2  1  0
  8  7  2  0
  9  5  1  0
 10 14  1  0
 11 10  1  0
 11 12  1  0
 12 13  1  0
 14 13  1  0
 14 15  1  1
 15 22  1  0
 16 15  2  0
 18 19  1  1
 18 17  1  0
 20 18  1  0
 21 22  1  0
 21 20  1  1
 23 21  1  0
 23 24  1  0
 25 23  2  0
M  END
$$$$
