EPL.pdb
     RDKit          3D

 25 25  0  0  1  0  0  0  0  0999 V2000
    9.0767  -17.3194   19.2484 N   0  0  0  0  0  0  0  0  0  0  0  0
    9.1072  -17.9953   20.5169 C   0  0  1  0  0  0  0  0  0  0  0  0
   10.5972  -18.0955   20.8932 C   0  0  0  0  0  0  0  0  0  0  0  0
   11.0799  -16.7035   21.1820 C   0  0  0  0  0  0  0  0  0  0  0  0
   12.4306  -16.6851   21.7848 C   0  0  0  0  0  0  0  0  0  0  0  0
   12.5987  -17.1177   22.9328 O   0  0  0  0  0  0  0  0  0  0  0  0
    8.4016  -17.3649   21.6145 C   0  0  0  0  0  0  0  0  0  0  0  0
    7.9208  -16.1956   21.4079 O   0  0  0  0  0  0  0  0  0  0  0  0
   13.5161  -16.1904   21.0851 O   0  0  0  0  0  0  0  0  0  0  0  0
    8.1978  -17.9237   22.8888 N   0  0  0  0  0  0  0  0  0  0  0  0
    8.7431  -19.1036   23.5180 C   0  0  0  0  0  0  0  0  0  0  0  0
    7.5141  -19.7394   24.1509 C   0  0  0  0  0  0  0  0  0  0  0  0
    6.5867  -18.6008   24.4051 C   0  0  0  0  0  0  0  0  0  0  0  0
    7.3008  -17.3679   23.9294 C   0  0  1  0  0  0  0  0  0  0  0  0
    8.0920  -16.7019   24.9838 C   0  0  0  0  0  0  0  0  0  0  0  0
    9.2955  -17.0407   25.2040 O   0  0  0  0  0  0  0  0  0  0  0  0
    7.7536  -12.1920   25.1842 C   0  0  0  0  0  0  0  0  0  0  0  0
    6.7998  -12.9579   26.1175 C   0  0  2  0  0  0  0  0  0  0  0  0
    5.8659  -11.9148   26.6877 C   0  0  0  0  0  0  0  0  0  0  0  0
    7.6706  -13.6206   27.1355 C   0  0  0  0  0  0  0  0  0  0  0  0
    8.3681  -14.8582   26.6731 C   0  0  2  0  0  0  0  0  0  0  0  0
    7.5516  -15.6641   25.7916 N   0  0  0  0  0  0  0  0  0  0  0  0
    8.9264  -15.6831   27.7617 C   0  0  0  0  0  0  0  0  0  0  0  0
    8.4784  -16.9657   28.0344 O   0  0  0  0  0  0  0  0  0  0  0  0
    9.8533  -15.2090   28.4833 O   0  0  0  0  0  0  0  0  0  0  0  0
  2  1  1  6
  3  2  1  0
  4  3  1  0
  5  4  1  0
  6  5  2  0
  7 10  1  0
  7  2  1  0
  8  7  2  0
  9  5  1  0
 10 14  1  0
 11 10  1  0
 11 12  1  0
 12 13  1  0
 14 13  1  0
 14 15  1  1
 15 22  1  0
 16 15  2  0
 18 19  1  1
 18 17  1  0
 20 18  1  0
 21 22  1  0
 21 20  1  1
 23 21  1  0
 23 24  1  0
 25 23  2  0
M  END
$$$$
