GEV.pdb
     RDKit          3D

 21 20  0  0  1  0  0  0  0  0999 V2000
    3.9560  -18.9316   21.3288 N   0  0  0  0  0  0  0  0  0  0  0  0
    5.2621  -18.3888   21.5664 C   0  0  0  0  0  0  0  0  0  0  0  0
    5.4605  -18.0768   23.0262 C   0  0  0  0  0  0  0  0  0  0  0  0
    4.4677  -17.7251   23.7064 O   0  0  0  0  0  0  0  0  0  0  0  0
    6.7425  -18.1779   23.6227 N   0  0  0  0  0  0  0  0  0  0  0  0
    7.0466  -17.8187   24.9884 C   0  0  1  0  0  0  0  0  0  0  0  0
    7.9731  -18.7926   25.6168 C   0  0  0  0  0  0  0  0  0  0  0  0
    8.4136  -18.4795   27.0024 C   0  0  0  0  0  0  0  0  0  0  0  0
    9.3721  -19.4078   27.6003 C   0  0  0  0  0  0  0  0  0  0  0  0
   10.4688  -19.0036   28.0655 O   0  0  0  0  0  0  0  0  0  0  0  0
    7.6481  -16.4400   25.0058 C   0  0  0  0  0  0  0  0  0  0  0  0
    8.4361  -16.1123   24.0882 O   0  0  0  0  0  0  0  0  0  0  0  0
    9.1196  -20.7693   27.6830 O   0  0  0  0  0  0  0  0  0  0  0  0
    7.6746  -11.8160   26.5150 C   0  0  0  0  0  0  0  0  0  0  0  0
    6.9376  -13.1321   26.4212 C   0  0  1  0  0  0  0  0  0  0  0  0
    5.7865  -13.0110   25.4482 C   0  0  0  0  0  0  0  0  0  0  0  0
    7.9218  -14.1985   25.9870 C   0  0  2  0  0  0  0  0  0  0  0  0
    7.3418  -15.5146   26.0318 N   0  0  0  0  0  0  0  0  0  0  0  0
    9.0850  -14.1822   26.9072 C   0  0  0  0  0  0  0  0  0  0  0  0
   10.0862  -13.2206   26.8365 O   0  0  0  0  0  0  0  0  0  0  0  0
    9.2140  -15.0510   27.8011 O   0  0  0  0  0  0  0  0  0  0  0  0
  2  1  1  0
  3  4  2  0
  3  2  1  0
  5  3  1  0
  6  5  1  0
  6 11  1  0
  6  7  1  6
  8  9  1  0
  8  7  1  0
  9 13  1  0
 10  9  2  0
 11 12  2  0
 15 14  1  6
 15 16  1  0
 17 15  1  0
 18 11  1  0
 17 18  1  1
 19 20  1  0
 19 17  1  0
 21 19  2  0
M  END
$$$$
