GEV.pdb
     RDKit          3D

 21 20  0  0  1  0  0  0  0  0999 V2000
    5.4162  -16.4398   19.3493 N   0  0  0  0  0  0  0  0  0  0  0  0
    6.3886  -15.5463   19.9086 C   0  0  0  0  0  0  0  0  0  0  0  0
    6.8604  -16.0338   21.2531 C   0  0  0  0  0  0  0  0  0  0  0  0
    6.0608  -16.6754   21.9747 O   0  0  0  0  0  0  0  0  0  0  0  0
    8.1815  -15.7743   21.6968 N   0  0  0  0  0  0  0  0  0  0  0  0
    8.7290  -16.2171   22.9581 C   0  0  1  0  0  0  0  0  0  0  0  0
   10.0479  -16.8737   22.7816 C   0  0  0  0  0  0  0  0  0  0  0  0
   10.7134  -17.3536   24.0220 C   0  0  0  0  0  0  0  0  0  0  0  0
   12.0284  -17.9699   23.8519 C   0  0  0  0  0  0  0  0  0  0  0  0
   12.2083  -19.1953   24.0729 O   0  0  0  0  0  0  0  0  0  0  0  0
    8.8546  -15.0320   23.8762 C   0  0  0  0  0  0  0  0  0  0  0  0
    9.5328  -14.0468   23.5027 O   0  0  0  0  0  0  0  0  0  0  0  0
   13.1330  -17.2382   23.4414 O   0  0  0  0  0  0  0  0  0  0  0  0
    7.1783  -12.0536   27.1899 C   0  0  0  0  0  0  0  0  0  0  0  0
    6.9922  -13.1775   26.1967 C   0  0  1  0  0  0  0  0  0  0  0  0
    6.4089  -12.6381   24.9101 C   0  0  0  0  0  0  0  0  0  0  0  0
    8.3371  -13.8344   25.9642 C   0  0  2  0  0  0  0  0  0  0  0  0
    8.2252  -15.0110   25.1436 N   0  0  0  0  0  0  0  0  0  0  0  0
    8.9045  -14.2439   27.2720 C   0  0  0  0  0  0  0  0  0  0  0  0
    9.5602  -13.3570   28.1180 O   0  0  0  0  0  0  0  0  0  0  0  0
    8.8140  -15.4276   27.6735 O   0  0  0  0  0  0  0  0  0  0  0  0
  2  1  1  0
  3  4  2  0
  3  2  1  0
  5  3  1  0
  6  5  1  0
  6 11  1  0
  6  7  1  6
  8  9  1  0
  8  7  1  0
  9 13  1  0
 10  9  2  0
 11 12  2  0
 15 14  1  1
 15 16  1  0
 17 15  1  0
 18 11  1  0
 17 18  1  6
 19 20  1  0
 19 17  1  0
 21 19  2  0
M  END
$$$$
