GEV.pdb
     RDKit          3D

 21 20  0  0  1  0  0  0  0  0999 V2000
    8.2294  -16.1746   18.6143 N   0  0  0  0  0  0  0  0  0  0  0  0
    9.0236  -16.3056   19.8013 C   0  0  0  0  0  0  0  0  0  0  0  0
    8.1684  -16.2103   21.0372 C   0  0  0  0  0  0  0  0  0  0  0  0
    6.9891  -15.8006   20.9224 O   0  0  0  0  0  0  0  0  0  0  0  0
    8.6833  -16.5760   22.3064 N   0  0  0  0  0  0  0  0  0  0  0  0
    7.9209  -16.5852   23.5333 C   0  0  1  0  0  0  0  0  0  0  0  0
    8.1206  -17.8447   24.2920 C   0  0  0  0  0  0  0  0  0  0  0  0
    7.3476  -19.0245   23.8204 C   0  0  0  0  0  0  0  0  0  0  0  0
    7.4095  -20.2164   24.6651 C   0  0  0  0  0  0  0  0  0  0  0  0
    6.4965  -20.4801   25.4894 O   0  0  0  0  0  0  0  0  0  0  0  0
    8.3296  -15.4025   24.3683 C   0  0  0  0  0  0  0  0  0  0  0  0
    9.5387  -15.0749   24.4021 O   0  0  0  0  0  0  0  0  0  0  0  0
    8.4705  -21.1075   24.5984 O   0  0  0  0  0  0  0  0  0  0  0  0
    7.2647  -11.5390   27.1833 C   0  0  0  0  0  0  0  0  0  0  0  0
    6.7141  -12.6105   26.2706 C   0  0  1  0  0  0  0  0  0  0  0  0
    6.1475  -11.9807   25.0181 C   0  0  0  0  0  0  0  0  0  0  0  0
    7.8315  -13.5807   25.9478 C   0  0  2  0  0  0  0  0  0  0  0  0
    7.3802  -14.6598   25.1098 N   0  0  0  0  0  0  0  0  0  0  0  0
    8.3386  -14.1677   27.2120 C   0  0  0  0  0  0  0  0  0  0  0  0
    9.3418  -13.5725   27.9681 O   0  0  0  0  0  0  0  0  0  0  0  0
    7.8747  -15.2435   27.6567 O   0  0  0  0  0  0  0  0  0  0  0  0
  2  1  1  0
  3  4  2  0
  3  2  1  0
  5  3  1  0
  6  5  1  0
  6 11  1  0
  6  7  1  1
  8  9  1  0
  8  7  1  0
  9 13  1  0
 10  9  2  0
 11 12  2  0
 15 14  1  1
 15 16  1  0
 17 15  1  0
 18 11  1  0
 17 18  1  6
 19 20  1  0
 19 17  1  0
 21 19  2  0
M  END
$$$$
