GEV.pdb
     RDKit          3D

 21 20  0  0  1  0  0  0  0  0999 V2000
    4.4711  -16.8049   20.7266 N   0  0  0  0  0  0  0  0  0  0  0  0
    5.5864  -15.9036   20.7532 C   0  0  0  0  0  0  0  0  0  0  0  0
    6.5116  -16.2220   21.8980 C   0  0  0  0  0  0  0  0  0  0  0  0
    6.0359  -16.7666   22.9221 O   0  0  0  0  0  0  0  0  0  0  0  0
    7.8931  -15.9137   21.8223 N   0  0  0  0  0  0  0  0  0  0  0  0
    8.8585  -16.1963   22.8590 C   0  0  1  0  0  0  0  0  0  0  0  0
   10.2042  -16.4654   22.2948 C   0  0  0  0  0  0  0  0  0  0  0  0
   10.4979  -17.8807   21.9444 C   0  0  0  0  0  0  0  0  0  0  0  0
   11.8081  -18.3876   22.3502 C   0  0  0  0  0  0  0  0  0  0  0  0
   12.0368  -18.7260   23.5400 O   0  0  0  0  0  0  0  0  0  0  0  0
    8.9130  -15.0272   23.8041 C   0  0  0  0  0  0  0  0  0  0  0  0
    9.4434  -13.9602   23.4162 O   0  0  0  0  0  0  0  0  0  0  0  0
   12.8542  -18.5189   21.4488 O   0  0  0  0  0  0  0  0  0  0  0  0
    7.1610  -12.2539   27.2058 C   0  0  0  0  0  0  0  0  0  0  0  0
    7.0448  -13.3624   26.1849 C   0  0  1  0  0  0  0  0  0  0  0  0
    6.4605  -12.8212   24.8996 C   0  0  0  0  0  0  0  0  0  0  0  0
    8.4224  -13.9518   25.9639 C   0  0  2  0  0  0  0  0  0  0  0  0
    8.3800  -15.1110   25.1125 N   0  0  0  0  0  0  0  0  0  0  0  0
    8.9825  -14.3686   27.2725 C   0  0  0  0  0  0  0  0  0  0  0  0
    9.5561  -13.4707   28.1652 O   0  0  0  0  0  0  0  0  0  0  0  0
    8.9609  -15.5690   27.6319 O   0  0  0  0  0  0  0  0  0  0  0  0
  2  1  1  0
  3  4  2  0
  3  2  1  0
  5  3  1  0
  6  5  1  0
  6 11  1  0
  6  7  1  6
  8  9  1  0
  8  7  1  0
  9 13  1  0
 10  9  2  0
 11 12  2  0
 15 14  1  1
 15 16  1  0
 17 15  1  0
 18 11  1  0
 17 18  1  6
 19 20  1  0
 19 17  1  0
 21 19  2  0
M  END
$$$$
