GEV.pdb
     RDKit          3D

 21 20  0  0  1  0  0  0  0  0999 V2000
    7.6275  -12.9972   18.9960 N   0  0  0  0  0  0  0  0  0  0  0  0
    8.2608  -14.0970   19.6641 C   0  0  0  0  0  0  0  0  0  0  0  0
    7.6850  -14.2968   21.0412 C   0  0  0  0  0  0  0  0  0  0  0  0
    6.9282  -13.4142   21.5106 O   0  0  0  0  0  0  0  0  0  0  0  0
    7.9903  -15.4583   21.7943 N   0  0  0  0  0  0  0  0  0  0  0  0
    7.4393  -15.7664   23.0936 C   0  0  1  0  0  0  0  0  0  0  0  0
    7.5724  -17.2086   23.4162 C   0  0  0  0  0  0  0  0  0  0  0  0
    6.9903  -17.6476   24.7125 C   0  0  0  0  0  0  0  0  0  0  0  0
    7.0860  -19.0755   25.0125 C   0  0  0  0  0  0  0  0  0  0  0  0
    7.6038  -19.4839   26.0839 O   0  0  0  0  0  0  0  0  0  0  0  0
    8.1424  -14.9327   24.1297 C   0  0  0  0  0  0  0  0  0  0  0  0
    9.3696  -14.7151   24.0000 O   0  0  0  0  0  0  0  0  0  0  0  0
    6.6134  -20.0415   24.1364 O   0  0  0  0  0  0  0  0  0  0  0  0
    7.0176  -11.4898   25.5141 C   0  0  0  0  0  0  0  0  0  0  0  0
    7.2961  -12.4175   26.6743 C   0  0  1  0  0  0  0  0  0  0  0  0
    5.9946  -12.9173   27.2597 C   0  0  0  0  0  0  0  0  0  0  0  0
    8.1551  -13.5603   26.1739 C   0  0  2  0  0  0  0  0  0  0  0  0
    7.4474  -14.3942   25.2388 N   0  0  0  0  0  0  0  0  0  0  0  0
    8.5514  -14.4046   27.3272 C   0  0  0  0  0  0  0  0  0  0  0  0
    9.4148  -13.9609   28.3222 O   0  0  0  0  0  0  0  0  0  0  0  0
    8.1160  -15.5730   27.4526 O   0  0  0  0  0  0  0  0  0  0  0  0
  2  1  1  0
  3  4  2  0
  3  2  1  0
  5  3  1  0
  6  5  1  0
  6 11  1  0
  6  7  1  1
  8  9  1  0
  8  7  1  0
  9 13  1  0
 10  9  2  0
 11 12  2  0
 15 14  1  6
 15 16  1  0
 17 15  1  0
 18 11  1  0
 17 18  1  6
 19 20  1  0
 19 17  1  0
 21 19  2  0
M  END
$$$$
