GEV.pdb
     RDKit          3D

 21 20  0  0  1  0  0  0  0  0999 V2000
    7.8859  -13.0928   18.0007 N   0  0  0  0  0  0  0  0  0  0  0  0
    8.7746  -13.3247   19.1021 C   0  0  0  0  0  0  0  0  0  0  0  0
    8.0903  -14.1041   20.1940 C   0  0  0  0  0  0  0  0  0  0  0  0
    6.8764  -14.3877   20.0603 O   0  0  0  0  0  0  0  0  0  0  0  0
    8.8015  -14.5106   21.3510 N   0  0  0  0  0  0  0  0  0  0  0  0
    8.2471  -15.3059   22.4220 C   0  0  1  0  0  0  0  0  0  0  0  0
    8.7376  -16.7055   22.3743 C   0  0  0  0  0  0  0  0  0  0  0  0
   10.2139  -16.8845   22.3925 C   0  0  0  0  0  0  0  0  0  0  0  0
   10.6976  -18.2633   22.3358 C   0  0  0  0  0  0  0  0  0  0  0  0
    9.9575  -19.1985   21.9358 O   0  0  0  0  0  0  0  0  0  0  0  0
    8.6090  -14.6704   23.7366 C   0  0  0  0  0  0  0  0  0  0  0  0
    9.7627  -14.2048   23.8860 O   0  0  0  0  0  0  0  0  0  0  0  0
   11.9870  -18.6036   22.7175 O   0  0  0  0  0  0  0  0  0  0  0  0
    7.2196  -12.0689   27.5349 C   0  0  0  0  0  0  0  0  0  0  0  0
    6.8085  -12.8997   26.3411 C   0  0  1  0  0  0  0  0  0  0  0  0
    6.3760  -11.9966   25.2080 C   0  0  0  0  0  0  0  0  0  0  0  0
    7.9818  -13.7700   25.9406 C   0  0  2  0  0  0  0  0  0  0  0  0
    7.6766  -14.5900   24.7983 N   0  0  0  0  0  0  0  0  0  0  0  0
    8.3198  -14.6704   27.0698 C   0  0  0  0  0  0  0  0  0  0  0  0
    9.0849  -14.2602   28.1554 O   0  0  0  0  0  0  0  0  0  0  0  0
    7.9221  -15.8586   27.0902 O   0  0  0  0  0  0  0  0  0  0  0  0
  2  1  1  0
  3  4  2  0
  3  2  1  0
  5  3  1  0
  6  5  1  0
  6 11  1  0
  6  7  1  1
  8  9  1  0
  8  7  1  0
  9 13  1  0
 10  9  2  0
 11 12  2  0
 15 14  1  1
 15 16  1  0
 17 15  1  0
 18 11  1  0
 17 18  1  6
 19 20  1  0
 19 17  1  0
 21 19  2  0
M  END
$$$$
