GEV.pdb
     RDKit          3D

 21 20  0  0  1  0  0  0  0  0999 V2000
    7.5244  -13.0264   18.1662 N   0  0  0  0  0  0  0  0  0  0  0  0
    8.4559  -13.0727   19.2557 C   0  0  0  0  0  0  0  0  0  0  0  0
    7.9364  -13.9363   20.3747 C   0  0  0  0  0  0  0  0  0  0  0  0
    6.6965  -14.0412   20.5275 O   0  0  0  0  0  0  0  0  0  0  0  0
    8.8287  -14.6185   21.2396 N   0  0  0  0  0  0  0  0  0  0  0  0
    8.4258  -15.4535   22.3474 C   0  0  1  0  0  0  0  0  0  0  0  0
    9.1490  -16.7491   22.3472 C   0  0  0  0  0  0  0  0  0  0  0  0
    8.8853  -17.6478   21.1919 C   0  0  0  0  0  0  0  0  0  0  0  0
    9.5284  -18.9603   21.2352 C   0  0  0  0  0  0  0  0  0  0  0  0
   10.3966  -19.2898   20.3865 O   0  0  0  0  0  0  0  0  0  0  0  0
    8.6810  -14.7133   23.6319 C   0  0  0  0  0  0  0  0  0  0  0  0
    9.8217  -14.2381   23.8396 O   0  0  0  0  0  0  0  0  0  0  0  0
    9.2144  -19.8984   22.2075 O   0  0  0  0  0  0  0  0  0  0  0  0
    7.0769  -12.1844   27.4532 C   0  0  0  0  0  0  0  0  0  0  0  0
    6.7054  -12.9890   26.2289 C   0  0  1  0  0  0  0  0  0  0  0  0
    6.1867  -12.0705   25.1454 C   0  0  0  0  0  0  0  0  0  0  0  0
    7.9314  -13.7514   25.7708 C   0  0  2  0  0  0  0  0  0  0  0  0
    7.6636  -14.5458   24.6013 N   0  0  0  0  0  0  0  0  0  0  0  0
    8.3603  -14.6681   26.8551 C   0  0  0  0  0  0  0  0  0  0  0  0
    8.2332  -16.0494   26.7660 O   0  0  0  0  0  0  0  0  0  0  0  0
    8.8632  -14.2255   27.9142 O   0  0  0  0  0  0  0  0  0  0  0  0
  2  1  1  0
  3  4  2  0
  3  2  1  0
  5  3  1  0
  6  5  1  0
  6 11  1  0
  6  7  1  1
  8  9  1  0
  8  7  1  0
  9 13  1  0
 10  9  2  0
 11 12  2  0
 15 14  1  1
 15 16  1  0
 17 15  1  0
 18 11  1  0
 17 18  1  6
 19 20  1  0
 19 17  1  0
 21 19  2  0
M  END
$$$$
