GEV.pdb
     RDKit          3D

 21 20  0  0  1  0  0  0  0  0999 V2000
    7.4515  -12.9190   18.7937 N   0  0  0  0  0  0  0  0  0  0  0  0
    8.6121  -13.3407   19.5232 C   0  0  0  0  0  0  0  0  0  0  0  0
    8.2239  -14.0990   20.7651 C   0  0  0  0  0  0  0  0  0  0  0  0
    7.0917  -13.8966   21.2641 O   0  0  0  0  0  0  0  0  0  0  0  0
    9.1182  -15.0239   21.3603 N   0  0  0  0  0  0  0  0  0  0  0  0
    8.8197  -15.8271   22.5233 C   0  0  1  0  0  0  0  0  0  0  0  0
    9.6783  -17.0355   22.5886 C   0  0  0  0  0  0  0  0  0  0  0  0
    9.4475  -18.0622   21.5376 C   0  0  0  0  0  0  0  0  0  0  0  0
   10.5194  -19.0372   21.3412 C   0  0  0  0  0  0  0  0  0  0  0  0
   10.8904  -19.7957   22.2737 O   0  0  0  0  0  0  0  0  0  0  0  0
    9.0077  -14.9859   23.7561 C   0  0  0  0  0  0  0  0  0  0  0  0
   10.0417  -14.2854   23.8584 O   0  0  0  0  0  0  0  0  0  0  0  0
   11.1738  -19.1717   20.1256 O   0  0  0  0  0  0  0  0  0  0  0  0
    7.0405  -12.3025   27.2261 C   0  0  0  0  0  0  0  0  0  0  0  0
    6.8386  -13.2905   26.1003 C   0  0  1  0  0  0  0  0  0  0  0  0
    6.3413  -12.5724   24.8661 C   0  0  0  0  0  0  0  0  0  0  0  0
    8.1557  -13.9925   25.8416 C   0  0  2  0  0  0  0  0  0  0  0  0
    8.0451  -14.9721   24.7935 N   0  0  0  0  0  0  0  0  0  0  0  0
    8.5771  -14.6947   27.0782 C   0  0  0  0  0  0  0  0  0  0  0  0
    9.3311  -14.0808   28.0717 O   0  0  0  0  0  0  0  0  0  0  0  0
    8.2649  -15.8915   27.2800 O   0  0  0  0  0  0  0  0  0  0  0  0
  2  1  1  0
  3  4  2  0
  3  2  1  0
  5  3  1  0
  6  5  1  0
  6 11  1  0
  6  7  1  1
  8  9  1  0
  8  7  1  0
  9 13  1  0
 10  9  2  0
 11 12  2  0
 15 14  1  1
 15 16  1  0
 17 15  1  0
 18 11  1  0
 17 18  1  6
 19 20  1  0
 19 17  1  0
 21 19  2  0
M  END
$$$$
