GEV.pdb
     RDKit          3D

 21 20  0  0  1  0  0  0  0  0999 V2000
    7.4451  -12.7290   18.5290 N   0  0  0  0  0  0  0  0  0  0  0  0
    8.5898  -13.2576   19.2126 C   0  0  0  0  0  0  0  0  0  0  0  0
    8.1851  -13.9581   20.4828 C   0  0  0  0  0  0  0  0  0  0  0  0
    7.0264  -13.7774   20.9263 O   0  0  0  0  0  0  0  0  0  0  0  0
    9.0934  -14.8056   21.1657 N   0  0  0  0  0  0  0  0  0  0  0  0
    8.7786  -15.5634   22.3545 C   0  0  1  0  0  0  0  0  0  0  0  0
    9.5734  -16.8139   22.4325 C   0  0  0  0  0  0  0  0  0  0  0  0
    9.3012  -17.6929   23.6009 C   0  0  0  0  0  0  0  0  0  0  0  0
   10.1455  -18.8801   23.7262 C   0  0  0  0  0  0  0  0  0  0  0  0
    9.9313  -19.9090   23.0348 O   0  0  0  0  0  0  0  0  0  0  0  0
    9.0380  -14.7038   23.5615 C   0  0  0  0  0  0  0  0  0  0  0  0
   10.1149  -14.0669   23.6302 O   0  0  0  0  0  0  0  0  0  0  0  0
   11.2159  -18.9283   24.6072 O   0  0  0  0  0  0  0  0  0  0  0  0
    5.9458  -13.5106   26.2236 C   0  0  0  0  0  0  0  0  0  0  0  0
    7.1768  -12.7108   25.8638 C   0  0  1  0  0  0  0  0  0  0  0  0
    7.4656  -11.6936   26.9446 C   0  0  0  0  0  0  0  0  0  0  0  0
    8.3328  -13.6727   25.6832 C   0  0  2  0  0  0  0  0  0  0  0  0
    8.0947  -14.6031   24.6117 N   0  0  0  0  0  0  0  0  0  0  0  0
    8.5089  -14.4526   26.9324 C   0  0  0  0  0  0  0  0  0  0  0  0
    9.1386  -13.9360   28.0589 O   0  0  0  0  0  0  0  0  0  0  0  0
    8.0898  -15.6301   27.0236 O   0  0  0  0  0  0  0  0  0  0  0  0
  2  1  1  0
  3  4  2  0
  3  2  1  0
  5  3  1  0
  6  5  1  0
  6 11  1  0
  6  7  1  1
  8  9  1  0
  8  7  1  0
  9 13  1  0
 10  9  2  0
 11 12  2  0
 15 14  1  1
 15 16  1  0
 17 15  1  0
 18 11  1  0
 17 18  1  6
 19 20  1  0
 19 17  1  0
 21 19  2  0
M  END
$$$$
