GEV.pdb
     RDKit          3D

 21 20  0  0  1  0  0  0  0  0999 V2000
    4.3654  -18.6208   22.4397 N   0  0  0  0  0  0  0  0  0  0  0  0
    5.2133  -17.5238   22.0726 C   0  0  0  0  0  0  0  0  0  0  0  0
    6.4184  -17.4475   22.9726 C   0  0  0  0  0  0  0  0  0  0  0  0
    6.3793  -18.0320   24.0810 O   0  0  0  0  0  0  0  0  0  0  0  0
    7.5754  -16.7301   22.5773 N   0  0  0  0  0  0  0  0  0  0  0  0
    8.7729  -16.5944   23.3737 C   0  0  1  0  0  0  0  0  0  0  0  0
    9.9974  -16.6902   22.5412 C   0  0  0  0  0  0  0  0  0  0  0  0
   11.2928  -16.6042   23.2667 C   0  0  0  0  0  0  0  0  0  0  0  0
   12.4992  -16.6585   22.4423 C   0  0  0  0  0  0  0  0  0  0  0  0
   13.4281  -15.8228   22.5893 O   0  0  0  0  0  0  0  0  0  0  0  0
    8.7319  -15.2731   24.0916 C   0  0  0  0  0  0  0  0  0  0  0  0
    9.0910  -14.2406   23.4791 O   0  0  0  0  0  0  0  0  0  0  0  0
   12.6763  -17.6274   21.4656 O   0  0  0  0  0  0  0  0  0  0  0  0
    7.0082  -12.5142   24.9764 C   0  0  0  0  0  0  0  0  0  0  0  0
    7.3359  -13.1102   26.3261 C   0  0  1  0  0  0  0  0  0  0  0  0
    6.1583  -13.9091   26.8374 C   0  0  0  0  0  0  0  0  0  0  0  0
    8.5708  -13.9745   26.1772 C   0  0  2  0  0  0  0  0  0  0  0  0
    8.2982  -15.1769   25.4353 N   0  0  0  0  0  0  0  0  0  0  0  0
    9.0464  -14.3696   27.5255 C   0  0  0  0  0  0  0  0  0  0  0  0
    9.5571  -13.4560   28.4402 O   0  0  0  0  0  0  0  0  0  0  0  0
    9.0064  -15.5648   27.9002 O   0  0  0  0  0  0  0  0  0  0  0  0
  2  1  1  0
  3  4  2  0
  3  2  1  0
  5  3  1  0
  6  5  1  0
  6 11  1  0
  6  7  1  6
  8  9  1  0
  8  7  1  0
  9 13  1  0
 10  9  2  0
 11 12  2  0
 15 14  1  6
 15 16  1  0
 17 15  1  0
 18 11  1  0
 17 18  1  6
 19 20  1  0
 19 17  1  0
 21 19  2  0
M  END
$$$$
