GEV.pdb
     RDKit          3D

 21 20  0  0  1  0  0  0  0  0999 V2000
    7.6114  -12.9607   18.6964 N   0  0  0  0  0  0  0  0  0  0  0  0
    8.4726  -13.8514   19.4188 C   0  0  0  0  0  0  0  0  0  0  0  0
    7.8848  -14.2021   20.7603 C   0  0  0  0  0  0  0  0  0  0  0  0
    6.8942  -13.5527   21.1712 O   0  0  0  0  0  0  0  0  0  0  0  0
    8.4378  -15.2451   21.5450 N   0  0  0  0  0  0  0  0  0  0  0  0
    7.8429  -15.7734   22.7507 C   0  0  1  0  0  0  0  0  0  0  0  0
    8.2091  -17.1954   22.9638 C   0  0  0  0  0  0  0  0  0  0  0  0
    7.6642  -17.8368   24.1901 C   0  0  0  0  0  0  0  0  0  0  0  0
    7.0556  -19.1545   24.0133 C   0  0  0  0  0  0  0  0  0  0  0  0
    7.6971  -20.2080   24.2606 O   0  0  0  0  0  0  0  0  0  0  0  0
    8.2901  -14.9383   23.9194 C   0  0  0  0  0  0  0  0  0  0  0  0
    9.4985  -14.6183   24.0069 O   0  0  0  0  0  0  0  0  0  0  0  0
    5.7506  -19.3050   23.5678 O   0  0  0  0  0  0  0  0  0  0  0  0
    7.2828  -11.8636   27.5651 C   0  0  0  0  0  0  0  0  0  0  0  0
    6.7213  -12.7392   26.4686 C   0  0  1  0  0  0  0  0  0  0  0  0
    6.1441  -11.8799   25.3664 C   0  0  0  0  0  0  0  0  0  0  0  0
    7.8337  -13.6292   25.9541 C   0  0  2  0  0  0  0  0  0  0  0  0
    7.3772  -14.5116   24.9132 N   0  0  0  0  0  0  0  0  0  0  0  0
    8.3362  -14.4652   27.0715 C   0  0  0  0  0  0  0  0  0  0  0  0
    9.3139  -14.0274   27.9573 O   0  0  0  0  0  0  0  0  0  0  0  0
    7.8915  -15.6208   27.2646 O   0  0  0  0  0  0  0  0  0  0  0  0
  2  1  1  0
  3  4  2  0
  3  2  1  0
  5  3  1  0
  6  5  1  0
  6 11  1  0
  6  7  1  1
  8  9  1  0
  8  7  1  0
  9 13  1  0
 10  9  2  0
 11 12  2  0
 15 14  1  1
 15 16  1  0
 17 15  1  0
 18 11  1  0
 17 18  1  6
 19 20  1  0
 19 17  1  0
 21 19  2  0
M  END
$$$$
