IFK.pdb
     RDKit          3D

 29 29  0  0  1  0  0  0  0  0999 V2000
    8.2155  -20.5768   19.0541 C   0  0  0  0  0  0  0  0  0  0  0  0
    8.2695  -19.0726   18.9123 C   0  0  0  0  0  0  0  0  0  0  0  0
    8.5261  -18.3901   20.2249 C   0  0  2  0  0  0  0  0  0  0  0  0
    7.4671  -18.8381   21.2074 C   0  0  0  0  0  0  0  0  0  0  0  0
    8.4971  -16.8750   20.0889 C   0  0  2  0  0  0  0  0  0  0  0  0
    9.5121  -16.4596   19.1452 N   0  0  0  0  0  0  0  0  0  0  0  0
    8.7452  -16.2171   21.3783 C   0  0  0  0  0  0  0  0  0  0  0  0
    9.8856  -16.2286   21.8942 O   0  0  0  0  0  0  0  0  0  0  0  0
    7.7273  -15.5346   22.1163 N   0  0  0  0  0  0  0  0  0  0  0  0
    8.0231  -14.9186   23.3984 C   0  0  1  0  0  0  0  0  0  0  0  0
    7.0671  -13.7266   23.5147 C   0  0  0  0  0  0  0  0  0  0  0  0
    7.1623  -13.0859   24.8311 C   0  0  0  0  0  0  0  0  0  0  0  0
    8.1967  -12.2322   25.1516 C   0  0  0  0  0  0  0  0  0  0  0  0
    8.2665  -11.6426   26.3920 C   0  0  0  0  0  0  0  0  0  0  0  0
    7.3241  -11.8655   27.3704 C   0  0  0  0  0  0  0  0  0  0  0  0
    6.2818  -12.7159   27.0696 C   0  0  0  0  0  0  0  0  0  0  0  0
    6.2080  -13.3079   25.8303 C   0  0  0  0  0  0  0  0  0  0  0  0
    7.8210  -15.8509   24.5171 C   0  0  0  0  0  0  0  0  0  0  0  0
    6.8077  -16.5867   24.6480 O   0  0  0  0  0  0  0  0  0  0  0  0
    8.8136  -15.9459   25.5234 N   0  0  0  0  0  0  0  0  0  0  0  0
    9.2807  -17.2158   26.0705 C   0  0  1  0  0  0  0  0  0  0  0  0
    9.9319  -18.0610   25.0459 C   0  0  0  0  0  0  0  0  0  0  0  0
   10.5084  -19.3215   25.6229 C   0  0  0  0  0  0  0  0  0  0  0  0
    9.7898  -20.5667   25.1673 C   0  0  0  0  0  0  0  0  0  0  0  0
   10.3975  -21.8147   25.7229 C   0  0  0  0  0  0  0  0  0  0  0  0
    9.7122  -22.9775   25.1920 N   0  0  0  0  0  0  0  0  0  0  0  0
   10.2141  -16.9109   27.1700 C   0  0  0  0  0  0  0  0  0  0  0  0
   10.2364  -17.5656   28.3990 O   0  0  0  0  0  0  0  0  0  0  0  0
   11.0658  -15.9798   26.9937 O   0  0  0  0  0  0  0  0  0  0  0  0
  2  1  1  0
  3  2  1  0
  3  4  1  1
  5  3  1  0
  5  6  1  6
  7  8  2  0
  7  5  1  0
  9  7  1  0
 10  9  1  0
 10 11  1  1
 12 17  2  0
 12 11  1  0
 13 12  1  0
 14 15  1  0
 14 13  2  0
 15 16  2  0
 16 17  1  0
 18 20  1  0
 18 10  1  0
 19 18  2  0
 21 20  1  0
 21 27  1  0
 21 22  1  6
 22 23  1  0
 24 23  1  0
 25 26  1  0
 25 24  1  0
 27 28  1  0
 29 27  2  0
M  END
$$$$
