IFK.pdb
     RDKit          3D

 29 29  0  0  1  0  0  0  0  0999 V2000
    7.8245  -13.3969   16.7255 C   0  0  0  0  0  0  0  0  0  0  0  0
    8.0729  -14.5675   17.6495 C   0  0  0  0  0  0  0  0  0  0  0  0
    8.4937  -14.1252   19.0213 C   0  0  2  0  0  0  0  0  0  0  0  0
    9.8065  -13.3842   18.8988 C   0  0  0  0  0  0  0  0  0  0  0  0
    8.6520  -15.3034   19.9708 C   0  0  2  0  0  0  0  0  0  0  0  0
    7.4981  -16.1689   19.8561 N   0  0  0  0  0  0  0  0  0  0  0  0
    8.7766  -14.8550   21.3638 C   0  0  0  0  0  0  0  0  0  0  0  0
    9.8237  -14.3000   21.7668 O   0  0  0  0  0  0  0  0  0  0  0  0
    7.7369  -15.0169   22.3331 N   0  0  0  0  0  0  0  0  0  0  0  0
    7.9551  -14.6636   23.7253 C   0  0  1  0  0  0  0  0  0  0  0  0
    6.7944  -13.7372   24.1035 C   0  0  0  0  0  0  0  0  0  0  0  0
    6.8880  -13.2985   25.5004 C   0  0  0  0  0  0  0  0  0  0  0  0
    6.1780  -13.9187   26.5068 C   0  0  0  0  0  0  0  0  0  0  0  0
    6.2806  -13.4908   27.8097 C   0  0  0  0  0  0  0  0  0  0  0  0
    7.0841  -12.4363   28.1802 C   0  0  0  0  0  0  0  0  0  0  0  0
    7.8022  -11.8029   27.1886 C   0  0  0  0  0  0  0  0  0  0  0  0
    7.7028  -12.2274   25.8842 C   0  0  0  0  0  0  0  0  0  0  0  0
    7.9736  -15.8471   24.5975 C   0  0  0  0  0  0  0  0  0  0  0  0
    7.0373  -16.6859   24.6683 O   0  0  0  0  0  0  0  0  0  0  0  0
    9.1038  -16.0805   25.4191 N   0  0  0  0  0  0  0  0  0  0  0  0
    9.3755  -17.3621   26.0623 C   0  0  1  0  0  0  0  0  0  0  0  0
    9.6468  -18.4348   25.0805 C   0  0  0  0  0  0  0  0  0  0  0  0
   10.8815  -18.1709   24.2681 C   0  0  0  0  0  0  0  0  0  0  0  0
   11.1912  -19.2702   23.2830 C   0  0  0  0  0  0  0  0  0  0  0  0
   12.3773  -18.9565   22.4285 C   0  0  0  0  0  0  0  0  0  0  0  0
   12.6981  -20.0956   21.5900 N   0  0  0  0  0  0  0  0  0  0  0  0
   10.5260  -17.1729   26.9644 C   0  0  0  0  0  0  0  0  0  0  0  0
   11.0264  -18.1427   27.8296 O   0  0  0  0  0  0  0  0  0  0  0  0
   11.1115  -16.0412   26.9613 O   0  0  0  0  0  0  0  0  0  0  0  0
  2  1  1  0
  3  2  1  0
  3  4  1  6
  5  3  1  0
  5  6  1  1
  7  8  2  0
  7  5  1  0
  9  7  1  0
 10  9  1  0
 10 11  1  1
 12 17  2  0
 12 11  1  0
 13 12  1  0
 14 15  1  0
 14 13  2  0
 15 16  2  0
 16 17  1  0
 18 20  1  0
 18 10  1  0
 19 18  2  0
 21 20  1  0
 21 27  1  0
 21 22  1  6
 22 23  1  0
 24 23  1  0
 25 26  1  0
 25 24  1  0
 27 28  1  0
 29 27  2  0
M  END
$$$$
