IFK.pdb
     RDKit          3D

 29 29  0  0  1  0  0  0  0  0999 V2000
    7.4244  -12.2777   19.6710 C   0  0  0  0  0  0  0  0  0  0  0  0
    8.1661  -13.1680   20.6420 C   0  0  0  0  0  0  0  0  0  0  0  0
    8.8396  -14.3190   19.9520 C   0  0  2  0  0  0  0  0  0  0  0  0
    8.3642  -14.3556   18.5167 C   0  0  0  0  0  0  0  0  0  0  0  0
    8.5309  -15.6444   20.6326 C   0  0  2  0  0  0  0  0  0  0  0  0
    7.1257  -15.9493   20.4713 N   0  0  0  0  0  0  0  0  0  0  0  0
    8.8484  -15.5967   22.0657 C   0  0  0  0  0  0  0  0  0  0  0  0
   10.0239  -15.4153   22.4556 O   0  0  0  0  0  0  0  0  0  0  0  0
    7.8619  -15.7504   23.0904 N   0  0  0  0  0  0  0  0  0  0  0  0
    8.2299  -15.6851   24.4943 C   0  0  1  0  0  0  0  0  0  0  0  0
    6.9270  -15.4050   25.2506 C   0  0  0  0  0  0  0  0  0  0  0  0
    6.8312  -13.9983   25.6566 C   0  0  0  0  0  0  0  0  0  0  0  0
    5.6923  -13.4859   26.2414 C   0  0  0  0  0  0  0  0  0  0  0  0
    5.6241  -12.1639   26.6140 C   0  0  0  0  0  0  0  0  0  0  0  0
    6.6704  -11.2888   26.4286 C   0  0  0  0  0  0  0  0  0  0  0  0
    7.8180  -11.7817   25.8454 C   0  0  0  0  0  0  0  0  0  0  0  0
    7.8907  -13.1032   25.4712 C   0  0  0  0  0  0  0  0  0  0  0  0
    8.8373  -16.9392   24.9633 C   0  0  0  0  0  0  0  0  0  0  0  0
    8.2421  -18.0486   24.9791 O   0  0  0  0  0  0  0  0  0  0  0  0
   10.1742  -16.9249   25.4317 N   0  0  0  0  0  0  0  0  0  0  0  0
   10.8652  -18.1148   25.9184 C   0  0  1  0  0  0  0  0  0  0  0  0
   12.2376  -18.2256   25.3775 C   0  0  0  0  0  0  0  0  0  0  0  0
   12.2629  -18.7908   23.9868 C   0  0  0  0  0  0  0  0  0  0  0  0
   13.6583  -18.9708   23.4435 C   0  0  0  0  0  0  0  0  0  0  0  0
   13.6687  -19.6070   22.0905 C   0  0  0  0  0  0  0  0  0  0  0  0
   14.3325  -18.7362   21.1394 N   0  0  0  0  0  0  0  0  0  0  0  0
   10.8853  -18.0474   27.3909 C   0  0  0  0  0  0  0  0  0  0  0  0
   11.2820  -19.0862   28.2293 O   0  0  0  0  0  0  0  0  0  0  0  0
   10.5118  -16.9638   27.9474 O   0  0  0  0  0  0  0  0  0  0  0  0
  2  1  1  0
  3  2  1  0
  3  4  1  6
  5  3  1  0
  5  6  1  1
  7  8  2  0
  7  5  1  0
  9  7  1  0
 10  9  1  0
 10 11  1  1
 12 17  2  0
 12 11  1  0
 13 12  1  0
 14 15  1  0
 14 13  2  0
 15 16  2  0
 16 17  1  0
 18 20  1  0
 18 10  1  0
 19 18  2  0
 21 20  1  0
 21 27  1  0
 21 22  1  6
 22 23  1  0
 24 23  1  0
 25 26  1  0
 25 24  1  0
 27 28  1  0
 29 27  2  0
M  END
$$$$
