IFK.pdb
     RDKit          3D

 29 29  0  0  1  0  0  0  0  0999 V2000
    6.2378  -21.5979   20.5602 C   0  0  0  0  0  0  0  0  0  0  0  0
    5.7984  -20.1543   20.4681 C   0  0  0  0  0  0  0  0  0  0  0  0
    6.6295  -19.2541   21.3361 C   0  0  2  0  0  0  0  0  0  0  0  0
    6.5185  -19.7380   22.7648 C   0  0  0  0  0  0  0  0  0  0  0  0
    6.1757  -17.8048   21.2447 C   0  0  2  0  0  0  0  0  0  0  0  0
    6.3303  -17.3398   19.8833 N   0  0  0  0  0  0  0  0  0  0  0  0
    6.9600  -16.9411   22.1368 C   0  0  0  0  0  0  0  0  0  0  0  0
    8.1489  -16.6553   21.8693 O   0  0  0  0  0  0  0  0  0  0  0  0
    6.4340  -16.3803   23.3432 N   0  0  0  0  0  0  0  0  0  0  0  0
    7.2782  -15.6006   24.2321 C   0  0  1  0  0  0  0  0  0  0  0  0
    6.3186  -14.7669   25.0879 C   0  0  0  0  0  0  0  0  0  0  0  0
    7.0434  -13.9311   26.0516 C   0  0  0  0  0  0  0  0  0  0  0  0
    7.2424  -14.3310   27.3562 C   0  0  0  0  0  0  0  0  0  0  0  0
    7.9247  -13.5315   28.2430 C   0  0  0  0  0  0  0  0  0  0  0  0
    8.4405  -12.3058   27.8873 C   0  0  0  0  0  0  0  0  0  0  0  0
    8.2522  -11.8879   26.5873 C   0  0  0  0  0  0  0  0  0  0  0  0
    7.5704  -12.6842   25.6969 C   0  0  0  0  0  0  0  0  0  0  0  0
    8.1174  -16.4552   25.0848 C   0  0  0  0  0  0  0  0  0  0  0  0
    7.6638  -17.2966   25.9043 O   0  0  0  0  0  0  0  0  0  0  0  0
    9.5270  -16.3440   24.9978 N   0  0  0  0  0  0  0  0  0  0  0  0
   10.4453  -17.2862   25.6295 C   0  0  1  0  0  0  0  0  0  0  0  0
   11.4481  -17.8135   24.6784 C   0  0  0  0  0  0  0  0  0  0  0  0
   12.1537  -16.7234   23.9247 C   0  0  0  0  0  0  0  0  0  0  0  0
   12.9893  -17.2374   22.7792 C   0  0  0  0  0  0  0  0  0  0  0  0
   13.5848  -16.1344   21.9642 C   0  0  0  0  0  0  0  0  0  0  0  0
   14.4483  -16.6878   20.9387 N   0  0  0  0  0  0  0  0  0  0  0  0
   11.1009  -16.5867   26.7494 C   0  0  0  0  0  0  0  0  0  0  0  0
   10.9076  -15.2458   27.0721 O   0  0  0  0  0  0  0  0  0  0  0  0
   11.9075  -17.2485   27.4807 O   0  0  0  0  0  0  0  0  0  0  0  0
  2  1  1  0
  3  2  1  0
  3  4  1  1
  5  3  1  0
  5  6  1  6
  7  8  2  0
  7  5  1  0
  9  7  1  0
 10  9  1  0
 10 11  1  1
 12 17  2  0
 12 11  1  0
 13 12  1  0
 14 15  1  0
 14 13  2  0
 15 16  2  0
 16 17  1  0
 18 20  1  0
 18 10  1  0
 19 18  2  0
 21 20  1  0
 21 27  1  0
 21 22  1  6
 22 23  1  0
 24 23  1  0
 25 26  1  0
 25 24  1  0
 27 28  1  0
 29 27  2  0
M  END
$$$$
