IFK.pdb
     RDKit          3D

 29 29  0  0  1  0  0  0  0  0999 V2000
    9.5027  -17.5851   16.6919 C   0  0  0  0  0  0  0  0  0  0  0  0
    8.3870  -16.7659   17.3001 C   0  0  0  0  0  0  0  0  0  0  0  0
    8.8192  -16.0679   18.5573 C   0  0  2  0  0  0  0  0  0  0  0  0
    9.3028  -17.1129   19.5378 C   0  0  0  0  0  0  0  0  0  0  0  0
    7.6847  -15.2645   19.1758 C   0  0  2  0  0  0  0  0  0  0  0  0
    7.3042  -14.2001   18.2726 N   0  0  0  0  0  0  0  0  0  0  0  0
    8.0828  -14.6799   20.4629 C   0  0  0  0  0  0  0  0  0  0  0  0
    8.5475  -13.5192   20.5229 O   0  0  0  0  0  0  0  0  0  0  0  0
    7.9703  -15.3779   21.7066 N   0  0  0  0  0  0  0  0  0  0  0  0
    8.2400  -14.7047   22.9655 C   0  0  1  0  0  0  0  0  0  0  0  0
    6.8679  -14.3338   23.5383 C   0  0  0  0  0  0  0  0  0  0  0  0
    6.9888  -13.6762   24.8442 C   0  0  0  0  0  0  0  0  0  0  0  0
    7.2675  -12.3304   24.9580 C   0  0  0  0  0  0  0  0  0  0  0  0
    7.3767  -11.7344   26.1925 C   0  0  0  0  0  0  0  0  0  0  0  0
    7.2172  -12.4335   27.3675 C   0  0  0  0  0  0  0  0  0  0  0  0
    6.9381  -13.7802   27.2751 C   0  0  0  0  0  0  0  0  0  0  0  0
    6.8280  -14.3806   26.0426 C   0  0  0  0  0  0  0  0  0  0  0  0
    8.9735  -15.5660   23.9046 C   0  0  0  0  0  0  0  0  0  0  0  0
    8.6709  -16.7640   24.1466 O   0  0  0  0  0  0  0  0  0  0  0  0
   10.0941  -15.0388   24.5925 N   0  0  0  0  0  0  0  0  0  0  0  0
   10.8952  -15.8161   25.5328 C   0  0  1  0  0  0  0  0  0  0  0  0
   10.0631  -16.4893   26.5540 C   0  0  0  0  0  0  0  0  0  0  0  0
   10.8714  -17.3650   27.4672 C   0  0  0  0  0  0  0  0  0  0  0  0
   10.0488  -18.0095   28.5546 C   0  0  0  0  0  0  0  0  0  0  0  0
   10.8856  -18.7765   29.5278 C   0  0  0  0  0  0  0  0  0  0  0  0
   10.0396  -19.3807   30.5391 N   0  0  0  0  0  0  0  0  0  0  0  0
   11.6674  -16.8003   24.7529 C   0  0  0  0  0  0  0  0  0  0  0  0
   11.5550  -16.9903   23.3778 O   0  0  0  0  0  0  0  0  0  0  0  0
   12.5003  -17.5379   25.3738 O   0  0  0  0  0  0  0  0  0  0  0  0
  2  1  1  0
  3  2  1  0
  3  4  1  1
  5  3  1  0
  5  6  1  6
  7  8  2  0
  7  5  1  0
  9  7  1  0
 10  9  1  0
 10 11  1  1
 12 17  2  0
 12 11  1  0
 13 12  1  0
 14 15  1  0
 14 13  2  0
 15 16  2  0
 16 17  1  0
 18 20  1  0
 18 10  1  0
 19 18  2  0
 21 20  1  0
 21 27  1  0
 21 22  1  1
 22 23  1  0
 24 23  1  0
 25 26  1  0
 25 24  1  0
 27 28  1  0
 29 27  2  0
M  END
$$$$
