IFK.pdb
     RDKit          3D

 29 29  0  0  1  0  0  0  0  0999 V2000
    7.6536  -19.7082   18.4671 C   0  0  0  0  0  0  0  0  0  0  0  0
    7.8360  -18.2074   18.4685 C   0  0  0  0  0  0  0  0  0  0  0  0
    8.1497  -17.6776   19.8379 C   0  0  2  0  0  0  0  0  0  0  0  0
    7.0127  -18.0507   20.7628 C   0  0  0  0  0  0  0  0  0  0  0  0
    8.3354  -16.1674   19.8305 C   0  0  2  0  0  0  0  0  0  0  0  0
    9.4314  -15.8244   18.9504 N   0  0  0  0  0  0  0  0  0  0  0  0
    8.6256  -15.6573   21.1767 C   0  0  0  0  0  0  0  0  0  0  0  0
    9.7353  -15.8680   21.7161 O   0  0  0  0  0  0  0  0  0  0  0  0
    7.6847  -14.9031   21.9465 N   0  0  0  0  0  0  0  0  0  0  0  0
    7.9983  -14.4813   23.3009 C   0  0  1  0  0  0  0  0  0  0  0  0
    6.8606  -13.5421   23.7153 C   0  0  0  0  0  0  0  0  0  0  0  0
    7.0201  -13.0799   25.0986 C   0  0  0  0  0  0  0  0  0  0  0  0
    8.1721  -13.3198   25.8175 C   0  0  0  0  0  0  0  0  0  0  0  0
    8.3002  -12.8775   27.1133 C   0  0  0  0  0  0  0  0  0  0  0  0
    7.3034  -12.1813   27.7586 C   0  0  0  0  0  0  0  0  0  0  0  0
    6.1435  -11.9313   27.0570 C   0  0  0  0  0  0  0  0  0  0  0  0
    6.0110  -12.3716   25.7608 C   0  0  0  0  0  0  0  0  0  0  0  0
    8.0873  -15.6207   24.2259 C   0  0  0  0  0  0  0  0  0  0  0  0
    7.1318  -16.4009   24.4781 O   0  0  0  0  0  0  0  0  0  0  0  0
    9.3135  -15.8779   24.8871 N   0  0  0  0  0  0  0  0  0  0  0  0
    9.6523  -17.1716   25.4716 C   0  0  1  0  0  0  0  0  0  0  0  0
   10.5073  -17.9830   24.5777 C   0  0  0  0  0  0  0  0  0  0  0  0
   10.8277  -19.3305   25.1570 C   0  0  0  0  0  0  0  0  0  0  0  0
   11.7130  -20.1654   24.2661 C   0  0  0  0  0  0  0  0  0  0  0  0
   11.9622  -21.5305   24.8228 C   0  0  0  0  0  0  0  0  0  0  0  0
   12.7232  -22.3204   23.8739 N   0  0  0  0  0  0  0  0  0  0  0  0
   10.3292  -16.9166   26.7561 C   0  0  0  0  0  0  0  0  0  0  0  0
   11.4396  -16.0922   26.9203 O   0  0  0  0  0  0  0  0  0  0  0  0
    9.8736  -17.4899   27.7988 O   0  0  0  0  0  0  0  0  0  0  0  0
  2  1  1  0
  3  2  1  0
  3  4  1  1
  5  3  1  0
  5  6  1  6
  7  8  2  0
  7  5  1  0
  9  7  1  0
 10  9  1  0
 10 11  1  1
 12 17  2  0
 12 11  1  0
 13 12  1  0
 14 15  1  0
 14 13  2  0
 15 16  2  0
 16 17  1  0
 18 20  1  0
 18 10  1  0
 19 18  2  0
 21 20  1  0
 21 27  1  0
 21 22  1  6
 22 23  1  0
 24 23  1  0
 25 26  1  0
 25 24  1  0
 27 28  1  0
 29 27  2  0
M  END
$$$$
