IFK.pdb
     RDKit          3D

 29 29  0  0  1  0  0  0  0  0999 V2000
    6.9256  -12.0145   18.8358 C   0  0  0  0  0  0  0  0  0  0  0  0
    7.1870  -13.4436   19.2540 C   0  0  0  0  0  0  0  0  0  0  0  0
    8.0225  -13.5242   20.4991 C   0  0  2  0  0  0  0  0  0  0  0  0
    9.3579  -12.8726   20.2172 C   0  0  0  0  0  0  0  0  0  0  0  0
    8.2337  -14.9634   20.9454 C   0  0  2  0  0  0  0  0  0  0  0  0
    6.9479  -15.5922   21.1576 N   0  0  0  0  0  0  0  0  0  0  0  0
    9.0094  -15.0291   22.1907 C   0  0  0  0  0  0  0  0  0  0  0  0
   10.2332  -14.7667   22.1976 O   0  0  0  0  0  0  0  0  0  0  0  0
    8.4356  -15.3884   23.4510 N   0  0  0  0  0  0  0  0  0  0  0  0
    9.2508  -15.4419   24.6523 C   0  0  1  0  0  0  0  0  0  0  0  0
    8.3370  -14.9810   25.7929 C   0  0  0  0  0  0  0  0  0  0  0  0
    9.0711  -14.8637   27.0578 C   0  0  0  0  0  0  0  0  0  0  0  0
    9.5812  -13.6591   27.4939 C   0  0  0  0  0  0  0  0  0  0  0  0
   10.2664  -13.5720   28.6830 C   0  0  0  0  0  0  0  0  0  0  0  0
   10.4802  -14.6632   29.4945 C   0  0  0  0  0  0  0  0  0  0  0  0
    9.9781  -15.8768   29.0762 C   0  0  0  0  0  0  0  0  0  0  0  0
    9.2921  -15.9687   27.8876 C   0  0  0  0  0  0  0  0  0  0  0  0
    9.7569  -16.7971   24.9146 C   0  0  0  0  0  0  0  0  0  0  0  0
    9.0277  -17.8212   24.9848 O   0  0  0  0  0  0  0  0  0  0  0  0
   11.1477  -16.9892   25.1037 N   0  0  0  0  0  0  0  0  0  0  0  0
   11.7627  -18.3052   25.2442 C   0  0  1  0  0  0  0  0  0  0  0  0
   12.9055  -18.4903   24.3232 C   0  0  0  0  0  0  0  0  0  0  0  0
   12.6513  -19.5595   23.3003 C   0  0  0  0  0  0  0  0  0  0  0  0
   13.7650  -19.6947   22.2923 C   0  0  0  0  0  0  0  0  0  0  0  0
   13.5098  -20.7825   21.2988 C   0  0  0  0  0  0  0  0  0  0  0  0
   14.4717  -20.6997   20.2165 N   0  0  0  0  0  0  0  0  0  0  0  0
   12.1909  -18.4495   26.6474 C   0  0  0  0  0  0  0  0  0  0  0  0
   12.5096  -17.3910   27.4946 O   0  0  0  0  0  0  0  0  0  0  0  0
   12.2813  -19.6253   27.1296 O   0  0  0  0  0  0  0  0  0  0  0  0
  2  1  1  0
  3  2  1  0
  3  4  1  6
  5  3  1  0
  5  6  1  1
  7  8  2  0
  7  5  1  0
  9  7  1  0
 10  9  1  0
 10 11  1  1
 12 17  2  0
 12 11  1  0
 13 12  1  0
 14 15  1  0
 14 13  2  0
 15 16  2  0
 16 17  1  0
 18 20  1  0
 18 10  1  0
 19 18  2  0
 21 20  1  0
 21 27  1  0
 21 22  1  6
 22 23  1  0
 24 23  1  0
 25 26  1  0
 25 24  1  0
 27 28  1  0
 29 27  2  0
M  END
$$$$
