IFK.pdb
     RDKit          3D

 29 29  0  0  1  0  0  0  0  0999 V2000
   10.6083  -20.8671   22.0974 C   0  0  0  0  0  0  0  0  0  0  0  0
   10.1006  -19.5373   21.5880 C   0  0  0  0  0  0  0  0  0  0  0  0
    8.6006  -19.4845   21.5435 C   0  0  2  0  0  0  0  0  0  0  0  0
    8.1147  -20.5789   20.6197 C   0  0  0  0  0  0  0  0  0  0  0  0
    8.0972  -18.1344   21.0550 C   0  0  2  0  0  0  0  0  0  0  0  0
    8.7124  -17.8262   19.7822 N   0  0  0  0  0  0  0  0  0  0  0  0
    8.4162  -17.0663   22.0113 C   0  0  0  0  0  0  0  0  0  0  0  0
    9.4586  -16.3848   21.8860 O   0  0  0  0  0  0  0  0  0  0  0  0
    7.5796  -16.7383   23.1244 N   0  0  0  0  0  0  0  0  0  0  0  0
    7.9553  -15.6871   24.0542 C   0  0  1  0  0  0  0  0  0  0  0  0
    6.6371  -15.1225   24.5946 C   0  0  0  0  0  0  0  0  0  0  0  0
    6.8688  -14.0386   25.5559 C   0  0  0  0  0  0  0  0  0  0  0  0
    6.7742  -14.2406   26.9167 C   0  0  0  0  0  0  0  0  0  0  0  0
    6.9953  -13.2101   27.8000 C   0  0  0  0  0  0  0  0  0  0  0  0
    7.3185  -11.9379   27.3855 C   0  0  0  0  0  0  0  0  0  0  0  0
    7.4180  -11.7154   26.0289 C   0  0  0  0  0  0  0  0  0  0  0  0
    7.1977  -12.7430   25.1417 C   0  0  0  0  0  0  0  0  0  0  0  0
    8.7861  -16.1966   25.1551 C   0  0  0  0  0  0  0  0  0  0  0  0
    8.4401  -17.1294   25.9267 O   0  0  0  0  0  0  0  0  0  0  0  0
   10.0594  -15.6187   25.3824 N   0  0  0  0  0  0  0  0  0  0  0  0
   11.0972  -16.2578   26.1853 C   0  0  1  0  0  0  0  0  0  0  0  0
   12.4569  -15.8457   25.7732 C   0  0  0  0  0  0  0  0  0  0  0  0
   13.5303  -16.5259   26.5729 C   0  0  0  0  0  0  0  0  0  0  0  0
   14.5927  -17.1683   25.7167 C   0  0  0  0  0  0  0  0  0  0  0  0
   15.6475  -17.8502   26.5278 C   0  0  0  0  0  0  0  0  0  0  0  0
   16.7243  -18.2961   25.6646 N   0  0  0  0  0  0  0  0  0  0  0  0
   10.8478  -15.9087   27.5956 C   0  0  0  0  0  0  0  0  0  0  0  0
   11.2449  -16.6767   28.6874 O   0  0  0  0  0  0  0  0  0  0  0  0
   10.2214  -14.8275   27.8447 O   0  0  0  0  0  0  0  0  0  0  0  0
  2  1  1  0
  3  2  1  0
  3  4  1  6
  5  3  1  0
  5  6  1  6
  7  8  2  0
  7  5  1  0
  9  7  1  0
 10  9  1  0
 10 11  1  1
 12 17  2  0
 12 11  1  0
 13 12  1  0
 14 15  1  0
 14 13  2  0
 15 16  2  0
 16 17  1  0
 18 20  1  0
 18 10  1  0
 19 18  2  0
 21 20  1  0
 21 27  1  0
 21 22  1  6
 22 23  1  0
 24 23  1  0
 25 26  1  0
 25 24  1  0
 27 28  1  0
 29 27  2  0
M  END
$$$$
