IFK.pdb
     RDKit          3D

 29 29  0  0  1  0  0  0  0  0999 V2000
    9.6693  -18.1235   18.0523 C   0  0  0  0  0  0  0  0  0  0  0  0
    8.4671  -17.2292   18.2541 C   0  0  0  0  0  0  0  0  0  0  0  0
    8.6889  -16.2220   19.3453 C   0  0  2  0  0  0  0  0  0  0  0  0
   10.0074  -15.5270   19.0885 C   0  0  0  0  0  0  0  0  0  0  0  0
    8.7072  -16.8734   20.7201 C   0  0  2  0  0  0  0  0  0  0  0  0
    7.4556  -17.5660   20.9383 N   0  0  0  0  0  0  0  0  0  0  0  0
    8.8932  -15.8764   21.7823 C   0  0  0  0  0  0  0  0  0  0  0  0
   10.0059  -15.3317   21.9617 O   0  0  0  0  0  0  0  0  0  0  0  0
    7.8431  -15.4681   22.6638 N   0  0  0  0  0  0  0  0  0  0  0  0
    8.0990  -14.5291   23.7425 C   0  0  1  0  0  0  0  0  0  0  0  0
    6.7471  -13.8776   24.0528 C   0  0  0  0  0  0  0  0  0  0  0  0
    6.8473  -12.9359   25.1734 C   0  0  0  0  0  0  0  0  0  0  0  0
    6.0971  -13.0877   26.3205 C   0  0  0  0  0  0  0  0  0  0  0  0
    6.2066  -12.1928   27.3589 C   0  0  0  0  0  0  0  0  0  0  0  0
    7.0568  -11.1110   27.3157 C   0  0  0  0  0  0  0  0  0  0  0  0
    7.8156  -10.9416   26.1775 C   0  0  0  0  0  0  0  0  0  0  0  0
    7.7093  -11.8342   25.1365 C   0  0  0  0  0  0  0  0  0  0  0  0
    8.6348  -15.1963   24.9381 C   0  0  0  0  0  0  0  0  0  0  0  0
    8.8455  -14.6156   26.0352 O   0  0  0  0  0  0  0  0  0  0  0  0
    8.9412  -16.5781   24.8776 N   0  0  0  0  0  0  0  0  0  0  0  0
    9.0949  -17.4171   26.0618 C   0  0  1  0  0  0  0  0  0  0  0  0
    8.1441  -18.5503   26.0724 C   0  0  0  0  0  0  0  0  0  0  0  0
    8.3292  -19.4442   27.2643 C   0  0  0  0  0  0  0  0  0  0  0  0
    7.5365  -20.7242   27.1763 C   0  0  0  0  0  0  0  0  0  0  0  0
    7.7111  -21.5905   28.3823 C   0  0  0  0  0  0  0  0  0  0  0  0
    7.0592  -22.8689   28.1718 N   0  0  0  0  0  0  0  0  0  0  0  0
   10.4875  -17.9001   26.0880 C   0  0  0  0  0  0  0  0  0  0  0  0
   11.2107  -18.1803   27.2447 O   0  0  0  0  0  0  0  0  0  0  0  0
   11.0830  -18.0754   24.9753 O   0  0  0  0  0  0  0  0  0  0  0  0
  2  1  1  0
  3  2  1  0
  3  4  1  6
  5  3  1  0
  5  6  1  1
  7  8  2  0
  7  5  1  0
  9  7  1  0
 10  9  1  0
 10 11  1  1
 12 17  2  0
 12 11  1  0
 13 12  1  0
 14 15  1  0
 14 13  2  0
 15 16  2  0
 16 17  1  0
 18 20  1  0
 18 10  1  0
 19 18  2  0
 21 20  1  0
 21 27  1  0
 21 22  1  6
 22 23  1  0
 24 23  1  0
 25 26  1  0
 25 24  1  0
 27 28  1  0
 29 27  2  0
M  END
$$$$
