IFK.pdb
     RDKit          3D

 29 29  0  0  1  0  0  0  0  0999 V2000
    8.7822  -19.7892   18.2296 C   0  0  0  0  0  0  0  0  0  0  0  0
    7.9780  -18.5437   18.5256 C   0  0  0  0  0  0  0  0  0  0  0  0
    8.3196  -17.9553   19.8641 C   0  0  2  0  0  0  0  0  0  0  0  0
    7.2250  -18.3275   20.8392 C   0  0  0  0  0  0  0  0  0  0  0  0
    8.4590  -16.4417   19.7968 C   0  0  2  0  0  0  0  0  0  0  0  0
    9.5332  -16.0999   18.8897 N   0  0  0  0  0  0  0  0  0  0  0  0
    8.7499  -15.8717   21.1187 C   0  0  0  0  0  0  0  0  0  0  0  0
    9.8293  -16.1225   21.7008 O   0  0  0  0  0  0  0  0  0  0  0  0
    7.8436  -15.0121   21.8160 N   0  0  0  0  0  0  0  0  0  0  0  0
    8.1354  -14.5595   23.1653 C   0  0  1  0  0  0  0  0  0  0  0  0
    7.0660  -13.5110   23.4900 C   0  0  0  0  0  0  0  0  0  0  0  0
    7.1795  -13.0358   24.8734 C   0  0  0  0  0  0  0  0  0  0  0  0
    6.2191  -13.3200   25.8213 C   0  0  0  0  0  0  0  0  0  0  0  0
    6.3455  -12.8642   27.1126 C   0  0  0  0  0  0  0  0  0  0  0  0
    7.4196  -12.1103   27.5284 C   0  0  0  0  0  0  0  0  0  0  0  0
    8.3907  -11.8154   26.5957 C   0  0  0  0  0  0  0  0  0  0  0  0
    8.2685  -12.2691   25.3031 C   0  0  0  0  0  0  0  0  0  0  0  0
    8.0877  -15.6609   24.1381 C   0  0  0  0  0  0  0  0  0  0  0  0
    7.0752  -16.3819   24.3384 O   0  0  0  0  0  0  0  0  0  0  0  0
    9.2398  -15.9489   24.9106 N   0  0  0  0  0  0  0  0  0  0  0  0
    9.3307  -17.0871   25.8195 C   0  0  1  0  0  0  0  0  0  0  0  0
   10.0057  -18.2474   25.1979 C   0  0  0  0  0  0  0  0  0  0  0  0
   10.1037  -19.4213   26.1286 C   0  0  0  0  0  0  0  0  0  0  0  0
   10.7191  -20.6394   25.4866 C   0  0  0  0  0  0  0  0  0  0  0  0
   10.6679  -21.8422   26.3732 C   0  0  0  0  0  0  0  0  0  0  0  0
   11.0663  -23.0221   25.6299 N   0  0  0  0  0  0  0  0  0  0  0  0
   10.0566  -16.6401   27.0222 C   0  0  0  0  0  0  0  0  0  0  0  0
    9.8302  -17.1168   28.3110 O   0  0  0  0  0  0  0  0  0  0  0  0
   10.9581  -15.7505   26.8832 O   0  0  0  0  0  0  0  0  0  0  0  0
  2  1  1  0
  3  2  1  0
  3  4  1  1
  5  3  1  0
  5  6  1  6
  7  8  2  0
  7  5  1  0
  9  7  1  0
 10  9  1  0
 10 11  1  1
 12 17  2  0
 12 11  1  0
 13 12  1  0
 14 15  1  0
 14 13  2  0
 15 16  2  0
 16 17  1  0
 18 20  1  0
 18 10  1  0
 19 18  2  0
 21 20  1  0
 21 27  1  0
 21 22  1  6
 22 23  1  0
 24 23  1  0
 25 26  1  0
 25 24  1  0
 27 28  1  0
 29 27  2  0
M  END
$$$$
