IFK.pdb
     RDKit          3D

 29 29  0  0  1  0  0  0  0  0999 V2000
    7.5930  -11.9165   18.7131 C   0  0  0  0  0  0  0  0  0  0  0  0
    7.1710  -13.1942   19.4023 C   0  0  0  0  0  0  0  0  0  0  0  0
    8.1182  -13.5832   20.5005 C   0  0  2  0  0  0  0  0  0  0  0  0
    9.4735  -13.8513   19.8851 C   0  0  0  0  0  0  0  0  0  0  0  0
    7.6378  -14.8170   21.2501 C   0  0  2  0  0  0  0  0  0  0  0  0
    6.1999  -14.7567   21.3992 N   0  0  0  0  0  0  0  0  0  0  0  0
    8.2530  -14.9080   22.5806 C   0  0  0  0  0  0  0  0  0  0  0  0
    9.2850  -14.2551   22.8551 O   0  0  0  0  0  0  0  0  0  0  0  0
    7.7295  -15.7282   23.6294 N   0  0  0  0  0  0  0  0  0  0  0  0
    8.4319  -15.8581   24.8944 C   0  0  1  0  0  0  0  0  0  0  0  0
    7.3963  -15.5366   25.9773 C   0  0  0  0  0  0  0  0  0  0  0  0
    7.3365  -14.0973   26.2555 C   0  0  0  0  0  0  0  0  0  0  0  0
    8.4658  -13.3683   26.5637 C   0  0  0  0  0  0  0  0  0  0  0  0
    8.3866  -12.0198   26.8213 C   0  0  0  0  0  0  0  0  0  0  0  0
    7.1962  -11.3295   26.7874 C   0  0  0  0  0  0  0  0  0  0  0  0
    6.0556  -12.0403   26.4811 C   0  0  0  0  0  0  0  0  0  0  0  0
    6.1299  -13.3891   26.2228 C   0  0  0  0  0  0  0  0  0  0  0  0
    8.9741  -17.2111   25.0870 C   0  0  0  0  0  0  0  0  0  0  0  0
    8.3210  -18.1697   25.5764 O   0  0  0  0  0  0  0  0  0  0  0  0
   10.3123  -17.4783   24.7062 N   0  0  0  0  0  0  0  0  0  0  0  0
   10.9502  -18.7792   24.8810 C   0  0  1  0  0  0  0  0  0  0  0  0
   12.2433  -18.8689   24.1681 C   0  0  0  0  0  0  0  0  0  0  0  0
   12.9348  -20.1819   24.3958 C   0  0  0  0  0  0  0  0  0  0  0  0
   14.2854  -20.2659   23.7299 C   0  0  0  0  0  0  0  0  0  0  0  0
   14.9787  -21.5624   24.0017 C   0  0  0  0  0  0  0  0  0  0  0  0
   16.3361  -21.5137   23.4930 N   0  0  0  0  0  0  0  0  0  0  0  0
   11.1324  -18.9954   26.3277 C   0  0  0  0  0  0  0  0  0  0  0  0
   11.4437  -17.9977   27.2482 O   0  0  0  0  0  0  0  0  0  0  0  0
   10.9995  -20.1795   26.7792 O   0  0  0  0  0  0  0  0  0  0  0  0
  2  1  1  0
  3  2  1  0
  3  4  1  6
  5  3  1  0
  5  6  1  1
  7  8  2  0
  7  5  1  0
  9  7  1  0
 10  9  1  0
 10 11  1  1
 12 17  2  0
 12 11  1  0
 13 12  1  0
 14 15  1  0
 14 13  2  0
 15 16  2  0
 16 17  1  0
 18 20  1  0
 18 10  1  0
 19 18  2  0
 21 20  1  0
 21 27  1  0
 21 22  1  6
 22 23  1  0
 24 23  1  0
 25 26  1  0
 25 24  1  0
 27 28  1  0
 29 27  2  0
M  END
$$$$
