IFK.pdb
     RDKit          3D

 29 29  0  0  1  0  0  0  0  0999 V2000
    7.6437  -12.8272   16.9364 C   0  0  0  0  0  0  0  0  0  0  0  0
    8.0221  -14.0955   17.6669 C   0  0  0  0  0  0  0  0  0  0  0  0
    8.3361  -13.8423   19.1133 C   0  0  2  0  0  0  0  0  0  0  0  0
    9.4733  -12.8478   19.1848 C   0  0  0  0  0  0  0  0  0  0  0  0
    8.7223  -15.1221   19.8399 C   0  0  2  0  0  0  0  0  0  0  0  0
    7.6752  -16.1055   19.6666 N   0  0  0  0  0  0  0  0  0  0  0  0
    8.9212  -14.8834   21.2753 C   0  0  0  0  0  0  0  0  0  0  0  0
   10.0291  -14.4991   21.7132 O   0  0  0  0  0  0  0  0  0  0  0  0
    7.8894  -15.0684   22.2488 N   0  0  0  0  0  0  0  0  0  0  0  0
    8.1344  -14.7959   23.6547 C   0  0  1  0  0  0  0  0  0  0  0  0
    6.8838  -14.0675   24.1586 C   0  0  0  0  0  0  0  0  0  0  0  0
    7.0674  -13.5632   25.5240 C   0  0  0  0  0  0  0  0  0  0  0  0
    7.7912  -12.4189   25.7857 C   0  0  0  0  0  0  0  0  0  0  0  0
    7.9509  -11.9641   27.0737 C   0  0  0  0  0  0  0  0  0  0  0  0
    7.4071  -12.6127   28.1593 C   0  0  0  0  0  0  0  0  0  0  0  0
    6.6799  -13.7586   27.9187 C   0  0  0  0  0  0  0  0  0  0  0  0
    6.5175  -14.2173   26.6323 C   0  0  0  0  0  0  0  0  0  0  0  0
    8.3564  -16.0290   24.4241 C   0  0  0  0  0  0  0  0  0  0  0  0
    7.5403  -16.9864   24.4732 O   0  0  0  0  0  0  0  0  0  0  0  0
    9.5554  -16.1730   25.1648 N   0  0  0  0  0  0  0  0  0  0  0  0
    9.9771  -17.4328   25.7691 C   0  0  1  0  0  0  0  0  0  0  0  0
   11.2363  -17.9412   25.1825 C   0  0  0  0  0  0  0  0  0  0  0  0
   11.6704  -19.2421   25.7935 C   0  0  0  0  0  0  0  0  0  0  0  0
   12.9236  -19.8031   25.1695 C   0  0  0  0  0  0  0  0  0  0  0  0
   13.3478  -21.0928   25.7960 C   0  0  0  0  0  0  0  0  0  0  0  0
   14.4853  -21.6393   25.0813 N   0  0  0  0  0  0  0  0  0  0  0  0
   10.1277  -17.2037   27.2176 C   0  0  0  0  0  0  0  0  0  0  0  0
   10.9972  -16.2788   27.7905 O   0  0  0  0  0  0  0  0  0  0  0  0
    9.4160  -17.8998   28.0127 O   0  0  0  0  0  0  0  0  0  0  0  0
  2  1  1  0
  3  2  1  0
  3  4  1  6
  5  3  1  0
  5  6  1  1
  7  8  2  0
  7  5  1  0
  9  7  1  0
 10  9  1  0
 10 11  1  1
 12 17  2  0
 12 11  1  0
 13 12  1  0
 14 15  1  0
 14 13  2  0
 15 16  2  0
 16 17  1  0
 18 20  1  0
 18 10  1  0
 19 18  2  0
 21 20  1  0
 21 27  1  0
 21 22  1  6
 22 23  1  0
 24 23  1  0
 25 26  1  0
 25 24  1  0
 27 28  1  0
 29 27  2  0
M  END
$$$$
