HRI.pdb
     RDKit          3D

 30 30  0  0  1  0  0  0  0  0999 V2000
    6.5627  -16.2878   19.0071 N   0  0  0  0  0  0  0  0  0  0  0  0
    7.5658  -15.7228   19.8518 C   0  0  1  0  0  0  0  0  0  0  0  0
    7.7912  -14.2780   19.3958 C   0  0  0  0  0  0  0  0  0  0  0  0
    8.2109  -14.2516   17.9738 C   0  0  0  0  0  0  0  0  0  0  0  0
    7.6522  -13.6685   16.8805 C   0  0  0  0  0  0  0  0  0  0  0  0
    8.4371  -13.9515   15.8243 N   0  0  0  0  0  0  0  0  0  0  0  0
    9.4728  -14.6994   16.2425 C   0  0  0  0  0  0  0  0  0  0  0  0
    9.3342  -14.8820   17.5526 N   0  0  0  0  0  0  0  0  0  0  0  0
    7.1250  -15.7482   21.2768 C   0  0  0  0  0  0  0  0  0  0  0  0
    6.3809  -14.8458   21.7413 O   0  0  0  0  0  0  0  0  0  0  0  0
    7.1798  -22.7807   26.5495 N   0  0  0  0  0  0  0  0  0  0  0  0
    8.2431  -21.9706   26.1394 C   0  0  0  0  0  0  0  0  0  0  0  0
    9.4793  -22.3853   26.1564 N   0  0  0  0  0  0  0  0  0  0  0  0
    8.0252  -20.6611   25.6827 N   0  0  0  0  0  0  0  0  0  0  0  0
    6.9100  -19.8440   26.0673 C   0  0  0  0  0  0  0  0  0  0  0  0
    6.9230  -18.4398   25.5290 C   0  0  0  0  0  0  0  0  0  0  0  0
    7.1782  -18.3195   24.0767 C   0  0  0  0  0  0  0  0  0  0  0  0
    7.2430  -16.9298   23.5259 C   0  0  2  0  0  0  0  0  0  0  0  0
    7.5417  -16.8025   22.1440 N   0  0  0  0  0  0  0  0  0  0  0  0
    7.8786  -15.9690   24.4382 C   0  0  0  0  0  0  0  0  0  0  0  0
    9.1487  -15.8813   24.3746 O   0  0  0  0  0  0  0  0  0  0  0  0
   10.2075  -21.7389   25.7932 C   0  0  0  0  0  0  0  0  0  0  0  0
    6.7332  -10.5672   27.2044 C   0  0  0  0  0  0  0  0  0  0  0  0
    7.6477  -11.7068   26.9527 C   0  0  2  0  0  0  0  0  0  0  0  0
    7.1119  -12.9039   26.2779 C   0  0  0  0  0  0  0  0  0  0  0  0
    5.6923  -13.1663   26.7396 C   0  0  2  0  0  0  0  0  0  0  0  0
    7.9683  -14.0991   26.1369 N   0  0  0  0  0  0  0  0  0  0  0  0
    7.2287  -15.1429   25.3744 C   0  0  0  0  0  0  0  0  0  0  0  0
    8.4544  -14.7536   27.3403 O   0  0  0  0  0  0  0  0  0  0  0  0
    9.4584  -14.1913   28.1336 O   0  0  0  0  0  0  0  0  0  0  0  0
  2  9  1  0
  2  3  1  0
  2  1  1  6
  3  4  1  0
  4  8  1  0
  5  6  1  0
  5  4  2  0
  6  7  1  0
  7  8  2  0
  9 10  2  0
 11 12  1  0
 12 14  1  0
 12 13  2  0
 14 15  1  0
 15 16  1  0
 16 17  1  0
 18 17  1  1
 18 20  1  0
 19 18  1  0
 19  9  1  0
 20 21  2  0
 22 23  1  0
 23 24  1  0
 24 25  1  6
 24 26  1  0
 26 28  1  0
 27 20  1  0
 26 27  1  1
 28 30  2  0
 28 29  1  0
M  END
$$$$
