HRI.pdb
     RDKit          3D

 30 30  0  0  1  0  0  0  0  0999 V2000
    7.8017  -17.0497   18.4077 N   0  0  0  0  0  0  0  0  0  0  0  0
    8.3602  -16.0115   19.2134 C   0  0  1  0  0  0  0  0  0  0  0  0
    7.5346  -14.7446   18.9691 C   0  0  0  0  0  0  0  0  0  0  0  0
    7.7843  -14.2290   17.6014 C   0  0  0  0  0  0  0  0  0  0  0  0
    8.5494  -14.7066   16.5845 C   0  0  0  0  0  0  0  0  0  0  0  0
    8.4274  -13.8539   15.5502 N   0  0  0  0  0  0  0  0  0  0  0  0
    7.6003  -12.8560   15.9068 C   0  0  0  0  0  0  0  0  0  0  0  0
    7.2089  -13.0852   17.1571 N   0  0  0  0  0  0  0  0  0  0  0  0
    8.3110  -16.3854   20.6568 C   0  0  0  0  0  0  0  0  0  0  0  0
    7.2146  -16.6179   21.2292 O   0  0  0  0  0  0  0  0  0  0  0  0
   13.2157  -21.9551   25.1719 N   0  0  0  0  0  0  0  0  0  0  0  0
   12.1783  -21.9084   24.2356 C   0  0  0  0  0  0  0  0  0  0  0  0
   11.8637  -22.9348   23.4953 N   0  0  0  0  0  0  0  0  0  0  0  0
   11.4180  -20.7428   24.0505 N   0  0  0  0  0  0  0  0  0  0  0  0
   11.5949  -19.5326   24.8010 C   0  0  0  0  0  0  0  0  0  0  0  0
   10.6073  -18.4383   24.5027 C   0  0  0  0  0  0  0  0  0  0  0  0
   10.5816  -17.9724   23.0987 C   0  0  0  0  0  0  0  0  0  0  0  0
    9.6222  -16.8689   22.7818 C   0  0  2  0  0  0  0  0  0  0  0  0
    9.5135  -16.4871   21.4189 N   0  0  0  0  0  0  0  0  0  0  0  0
    9.6222  -15.7903   23.7799 C   0  0  0  0  0  0  0  0  0  0  0  0
   10.5617  -14.9335   23.6892 O   0  0  0  0  0  0  0  0  0  0  0  0
   11.1046  -22.8082   22.7969 C   0  0  0  0  0  0  0  0  0  0  0  0
    6.0177  -11.9015   24.8007 C   0  0  0  0  0  0  0  0  0  0  0  0
    7.3570  -12.5278   24.9119 C   0  0  2  0  0  0  0  0  0  0  0  0
    7.5057  -13.7266   25.7584 C   0  0  0  0  0  0  0  0  0  0  0  0
    6.8938  -13.4760   27.1223 C   0  0  2  0  0  0  0  0  0  0  0  0
    8.7897  -14.4567   25.7594 N   0  0  0  0  0  0  0  0  0  0  0  0
    8.6955  -15.6120   24.8243 C   0  0  0  0  0  0  0  0  0  0  0  0
    9.2815  -14.9993   27.0152 O   0  0  0  0  0  0  0  0  0  0  0  0
    9.3439  -16.3753   27.2520 O   0  0  0  0  0  0  0  0  0  0  0  0
  2  9  1  0
  2  3  1  0
  2  1  1  6
  3  4  1  0
  4  8  1  0
  5  6  1  0
  5  4  2  0
  6  7  1  0
  7  8  2  0
  9 10  2  0
 11 12  1  0
 12 14  1  0
 12 13  2  0
 14 15  1  0
 15 16  1  0
 16 17  1  0
 18 17  1  6
 18 20  1  0
 19 18  1  0
 19  9  1  0
 20 21  2  0
 22 23  1  0
 23 24  1  0
 24 25  1  6
 24 26  1  0
 26 28  1  0
 27 20  1  0
 26 27  1  1
 28 30  2  0
 28 29  1  0
M  END
$$$$
