HRI.pdb
     RDKit          3D

 30 30  0  0  1  0  0  0  0  0999 V2000
    9.4901  -15.7383   19.6014 N   0  0  0  0  0  0  0  0  0  0  0  0
    8.7279  -14.8115   20.3754 C   0  0  1  0  0  0  0  0  0  0  0  0
    7.3811  -14.6216   19.6709 C   0  0  0  0  0  0  0  0  0  0  0  0
    7.5959  -14.2337   18.2559 C   0  0  0  0  0  0  0  0  0  0  0  0
    7.9568  -13.0513   17.6910 C   0  0  0  0  0  0  0  0  0  0  0  0
    8.0108  -13.2381   16.3590 N   0  0  0  0  0  0  0  0  0  0  0  0
    7.6901  -14.5149   16.0874 C   0  0  0  0  0  0  0  0  0  0  0  0
    7.4372  -15.1210   17.2439 N   0  0  0  0  0  0  0  0  0  0  0  0
    8.5153  -15.3335   21.7566 C   0  0  0  0  0  0  0  0  0  0  0  0
    7.4899  -15.0223   22.4165 O   0  0  0  0  0  0  0  0  0  0  0  0
   11.6932  -21.6760   21.3949 N   0  0  0  0  0  0  0  0  0  0  0  0
   10.4849  -21.3749   20.7589 C   0  0  0  0  0  0  0  0  0  0  0  0
   10.3616  -21.3853   19.4608 N   0  0  0  0  0  0  0  0  0  0  0  0
    9.3366  -21.0476   21.4973 N   0  0  0  0  0  0  0  0  0  0  0  0
    9.3443  -20.2781   22.7084 C   0  0  0  0  0  0  0  0  0  0  0  0
   10.0710  -18.9635   22.6330 C   0  0  0  0  0  0  0  0  0  0  0  0
    9.9871  -18.1218   23.8468 C   0  0  0  0  0  0  0  0  0  0  0  0
    9.4202  -16.7490   23.6661 C   0  0  2  0  0  0  0  0  0  0  0  0
    9.4764  -16.2006   22.3580 N   0  0  0  0  0  0  0  0  0  0  0  0
    9.7174  -15.8425   24.7839 C   0  0  0  0  0  0  0  0  0  0  0  0
   10.9158  -15.4156   24.8649 O   0  0  0  0  0  0  0  0  0  0  0  0
    9.4664  -21.0405   19.0610 C   0  0  0  0  0  0  0  0  0  0  0  0
    6.5349  -11.7905   25.8328 C   0  0  0  0  0  0  0  0  0  0  0  0
    7.6300  -12.7814   25.7026 C   0  0  2  0  0  0  0  0  0  0  0  0
    8.1909  -13.3764   26.9302 C   0  0  0  0  0  0  0  0  0  0  0  0
    8.4672  -12.2912   27.9516 C   0  0  2  0  0  0  0  0  0  0  0  0
    9.2245  -14.4257   26.8186 N   0  0  0  0  0  0  0  0  0  0  0  0
    8.8164  -15.4041   25.7725 C   0  0  0  0  0  0  0  0  0  0  0  0
    9.5476  -15.2134   27.9969 O   0  0  0  0  0  0  0  0  0  0  0  0
   10.4863  -14.7834   28.9389 O   0  0  0  0  0  0  0  0  0  0  0  0
  2  9  1  0
  2  3  1  0
  2  1  1  6
  3  4  1  0
  4  8  1  0
  5  6  1  0
  5  4  2  0
  6  7  1  0
  7  8  2  0
  9 10  2  0
 11 12  1  0
 12 14  1  0
 12 13  2  0
 14 15  1  0
 15 16  1  0
 16 17  1  0
 18 17  1  6
 18 20  1  0
 19 18  1  0
 19  9  1  0
 20 21  2  0
 22 23  1  0
 23 24  1  0
 24 25  1  1
 24 26  1  0
 26 28  1  0
 27 20  1  0
 26 27  1  6
 28 30  2  0
 28 29  1  0
M  END
$$$$
