HRI.pdb
     RDKit          3D

 30 30  0  0  1  0  0  0  0  0999 V2000
    9.5120  -15.1779   18.7800 N   0  0  0  0  0  0  0  0  0  0  0  0
    8.5651  -14.3056   19.3975 C   0  0  1  0  0  0  0  0  0  0  0  0
    7.3315  -14.2496   18.4912 C   0  0  0  0  0  0  0  0  0  0  0  0
    7.7324  -13.9107   17.1045 C   0  0  0  0  0  0  0  0  0  0  0  0
    8.0814  -12.7288   16.5311 C   0  0  0  0  0  0  0  0  0  0  0  0
    8.3569  -12.9719   15.2362 N   0  0  0  0  0  0  0  0  0  0  0  0
    8.1853  -14.2833   14.9957 C   0  0  0  0  0  0  0  0  0  0  0  0
    7.8046  -14.8548   16.1348 N   0  0  0  0  0  0  0  0  0  0  0  0
    8.1870  -14.8151   20.7477 C   0  0  0  0  0  0  0  0  0  0  0  0
    7.3865  -14.1778   21.4803 O   0  0  0  0  0  0  0  0  0  0  0  0
   12.6100  -19.8751   25.4419 N   0  0  0  0  0  0  0  0  0  0  0  0
   11.5186  -20.1869   26.2584 C   0  0  0  0  0  0  0  0  0  0  0  0
   11.6659  -20.6685   27.4612 N   0  0  0  0  0  0  0  0  0  0  0  0
   10.2006  -19.9903   25.8166 N   0  0  0  0  0  0  0  0  0  0  0  0
    9.8353  -19.7069   24.4582 C   0  0  0  0  0  0  0  0  0  0  0  0
    9.2207  -18.3544   24.2240 C   0  0  0  0  0  0  0  0  0  0  0  0
    9.2294  -17.8882   22.8199 C   0  0  0  0  0  0  0  0  0  0  0  0
    8.6577  -16.5288   22.5672 C   0  0  2  0  0  0  0  0  0  0  0  0
    8.7294  -16.0419   21.2357 N   0  0  0  0  0  0  0  0  0  0  0  0
    8.9341  -15.5693   23.6453 C   0  0  0  0  0  0  0  0  0  0  0  0
   10.1567  -15.2588   23.8288 O   0  0  0  0  0  0  0  0  0  0  0  0
   10.8054  -20.9284   27.9828 C   0  0  0  0  0  0  0  0  0  0  0  0
    7.7266  -10.6899   26.5061 C   0  0  0  0  0  0  0  0  0  0  0  0
    7.5472  -12.0933   26.9495 C   0  0  2  0  0  0  0  0  0  0  0  0
    7.3271  -13.1325   25.9261 C   0  0  0  0  0  0  0  0  0  0  0  0
    5.9413  -13.7263   26.0813 C   0  0  2  0  0  0  0  0  0  0  0  0
    8.4057  -14.0978   25.6318 N   0  0  0  0  0  0  0  0  0  0  0  0
    7.9885  -14.9649   24.4951 C   0  0  0  0  0  0  0  0  0  0  0  0
    8.8381  -15.0017   26.6849 O   0  0  0  0  0  0  0  0  0  0  0  0
    9.7664  -14.6153   27.6558 O   0  0  0  0  0  0  0  0  0  0  0  0
  2  9  1  0
  2  3  1  0
  2  1  1  6
  3  4  1  0
  4  8  1  0
  5  6  1  0
  5  4  2  0
  6  7  1  0
  7  8  2  0
  9 10  2  0
 11 12  1  0
 12 14  1  0
 12 13  2  0
 14 15  1  0
 15 16  1  0
 16 17  1  0
 18 17  1  6
 18 20  1  0
 19 18  1  0
 19  9  1  0
 20 21  2  0
 22 23  1  0
 23 24  1  0
 24 25  1  6
 24 26  1  0
 26 28  1  0
 27 20  1  0
 26 27  1  1
 28 30  2  0
 28 29  1  0
M  END
$$$$
