HRI.pdb
     RDKit          3D

 30 30  0  0  1  0  0  0  0  0999 V2000
    7.0067  -16.7076   19.1501 N   0  0  0  0  0  0  0  0  0  0  0  0
    7.5040  -15.7900   20.1246 C   0  0  1  0  0  0  0  0  0  0  0  0
    7.0575  -14.3861   19.7049 C   0  0  0  0  0  0  0  0  0  0  0  0
    7.7664  -13.9735   18.4696 C   0  0  0  0  0  0  0  0  0  0  0  0
    8.7378  -13.0472   18.2553 C   0  0  0  0  0  0  0  0  0  0  0  0
    9.0350  -13.0675   16.9427 N   0  0  0  0  0  0  0  0  0  0  0  0
    8.2658  -13.9897   16.3387 C   0  0  0  0  0  0  0  0  0  0  0  0
    7.4928  -14.5413   17.2699 N   0  0  0  0  0  0  0  0  0  0  0  0
    6.9634  -16.1177   21.4759 C   0  0  0  0  0  0  0  0  0  0  0  0
    5.8232  -15.7213   21.8316 O   0  0  0  0  0  0  0  0  0  0  0  0
    8.6574  -18.9993   28.4075 N   0  0  0  0  0  0  0  0  0  0  0  0
    8.0837  -20.2728   28.3444 C   0  0  0  0  0  0  0  0  0  0  0  0
    8.4342  -21.2337   29.1532 N   0  0  0  0  0  0  0  0  0  0  0  0
    7.0911  -20.5768   27.3993 N   0  0  0  0  0  0  0  0  0  0  0  0
    7.2032  -20.3131   25.9933 C   0  0  0  0  0  0  0  0  0  0  0  0
    7.2501  -18.8592   25.6112 C   0  0  0  0  0  0  0  0  0  0  0  0
    7.3022  -18.5865   24.1580 C   0  0  0  0  0  0  0  0  0  0  0  0
    7.4200  -17.1505   23.7548 C   0  0  2  0  0  0  0  0  0  0  0  0
    7.7341  -16.8914   22.3949 N   0  0  0  0  0  0  0  0  0  0  0  0
    8.0815  -16.3126   24.7647 C   0  0  0  0  0  0  0  0  0  0  0  0
    9.3537  -16.3773   24.8105 O   0  0  0  0  0  0  0  0  0  0  0  0
    8.0668  -22.1855   28.9554 C   0  0  0  0  0  0  0  0  0  0  0  0
    5.8977  -11.5169   26.3371 C   0  0  0  0  0  0  0  0  0  0  0  0
    6.8264  -12.6025   25.9407 C   0  0  2  0  0  0  0  0  0  0  0  0
    7.4418  -13.4243   26.9997 C   0  0  0  0  0  0  0  0  0  0  0  0
    8.0535  -12.5296   28.0592 C   0  0  2  0  0  0  0  0  0  0  0  0
    8.2423  -14.6075   26.6240 N   0  0  0  0  0  0  0  0  0  0  0  0
    7.4533  -15.4531   25.6856 C   0  0  0  0  0  0  0  0  0  0  0  0
    8.7015  -15.5003   27.6752 O   0  0  0  0  0  0  0  0  0  0  0  0
    9.9215  -15.3067   28.3290 O   0  0  0  0  0  0  0  0  0  0  0  0
  2  9  1  0
  2  3  1  0
  2  1  1  6
  3  4  1  0
  4  8  1  0
  5  6  1  0
  5  4  2  0
  6  7  1  0
  7  8  2  0
  9 10  2  0
 11 12  1  0
 12 14  1  0
 12 13  2  0
 14 15  1  0
 15 16  1  0
 16 17  1  0
 18 17  1  1
 18 20  1  0
 19 18  1  0
 19  9  1  0
 20 21  2  0
 22 23  1  0
 23 24  1  0
 24 25  1  1
 24 26  1  0
 26 28  1  0
 27 20  1  0
 26 27  1  6
 28 30  2  0
 28 29  1  0
M  END
$$$$
