HRI.pdb
     RDKit          3D

 30 30  0  0  1  0  0  0  0  0999 V2000
    9.4637  -15.4748   18.9485 N   0  0  0  0  0  0  0  0  0  0  0  0
    8.4665  -14.6925   19.6060 C   0  0  1  0  0  0  0  0  0  0  0  0
    7.1688  -14.8326   18.8044 C   0  0  0  0  0  0  0  0  0  0  0  0
    7.4057  -14.4774   17.3843 C   0  0  0  0  0  0  0  0  0  0  0  0
    7.5213  -15.2477   16.2705 C   0  0  0  0  0  0  0  0  0  0  0  0
    7.7333  -14.4234   15.2276 N   0  0  0  0  0  0  0  0  0  0  0  0
    7.7511  -13.1557   15.6743 C   0  0  0  0  0  0  0  0  0  0  0  0
    7.5514  -13.1894   16.9888 N   0  0  0  0  0  0  0  0  0  0  0  0
    8.2609  -15.1735   21.0031 C   0  0  0  0  0  0  0  0  0  0  0  0
    7.3476  -14.6960   21.7253 O   0  0  0  0  0  0  0  0  0  0  0  0
   10.4787  -20.4404   19.5593 N   0  0  0  0  0  0  0  0  0  0  0  0
    9.8057  -21.4938   20.1857 C   0  0  0  0  0  0  0  0  0  0  0  0
    9.3300  -22.5086   19.5191 N   0  0  0  0  0  0  0  0  0  0  0  0
    9.6124  -21.5083   21.5762 N   0  0  0  0  0  0  0  0  0  0  0  0
    9.9938  -20.4427   22.4583 C   0  0  0  0  0  0  0  0  0  0  0  0
    9.3246  -19.1208   22.2003 C   0  0  0  0  0  0  0  0  0  0  0  0
    9.7205  -18.0216   23.1079 C   0  0  0  0  0  0  0  0  0  0  0  0
    9.0644  -16.6974   22.8742 C   0  0  2  0  0  0  0  0  0  0  0  0
    9.1011  -16.1901   21.5489 N   0  0  0  0  0  0  0  0  0  0  0  0
    9.2841  -15.7362   23.9639 C   0  0  0  0  0  0  0  0  0  0  0  0
   10.3341  -15.0180   23.8837 O   0  0  0  0  0  0  0  0  0  0  0  0
    8.8202  -23.2385   20.0551 C   0  0  0  0  0  0  0  0  0  0  0  0
    5.6207  -12.2992   25.4801 C   0  0  0  0  0  0  0  0  0  0  0  0
    6.8695  -13.0540   25.2174 C   0  0  2  0  0  0  0  0  0  0  0  0
    7.5662  -13.6808   26.3564 C   0  0  0  0  0  0  0  0  0  0  0  0
    7.6673  -12.6978   27.5056 C   0  0  2  0  0  0  0  0  0  0  0  0
    8.7719  -14.4967   26.1067 N   0  0  0  0  0  0  0  0  0  0  0  0
    8.4572  -15.5334   25.0848 C   0  0  0  0  0  0  0  0  0  0  0  0
    9.3759  -15.2067   27.2221 O   0  0  0  0  0  0  0  0  0  0  0  0
   10.2673  -14.5833   28.0997 O   0  0  0  0  0  0  0  0  0  0  0  0
  2  9  1  0
  2  3  1  0
  2  1  1  6
  3  4  1  0
  4  8  1  0
  5  6  1  0
  5  4  2  0
  6  7  1  0
  7  8  2  0
  9 10  2  0
 11 12  1  0
 12 14  1  0
 12 13  2  0
 14 15  1  0
 15 16  1  0
 16 17  1  0
 18 17  1  6
 18 20  1  0
 19 18  1  0
 19  9  1  0
 20 21  2  0
 22 23  1  0
 23 24  1  0
 24 25  1  1
 24 26  1  0
 26 28  1  0
 27 20  1  0
 26 27  1  6
 28 30  2  0
 28 29  1  0
M  END
$$$$
