HRI.pdb
     RDKit          3D

 30 30  0  0  1  0  0  0  0  0999 V2000
    7.3360  -16.8827   18.7201 N   0  0  0  0  0  0  0  0  0  0  0  0
    8.0495  -15.9954   19.5818 C   0  0  1  0  0  0  0  0  0  0  0  0
    7.8163  -14.5705   19.0704 C   0  0  0  0  0  0  0  0  0  0  0  0
    8.2418  -14.4608   17.6542 C   0  0  0  0  0  0  0  0  0  0  0  0
    8.7968  -15.3679   16.8077 C   0  0  0  0  0  0  0  0  0  0  0  0
    8.9908  -14.7538   15.6257 N   0  0  0  0  0  0  0  0  0  0  0  0
    8.5661  -13.4822   15.7235 C   0  0  0  0  0  0  0  0  0  0  0  0
    8.1098  -13.3043   16.9600 N   0  0  0  0  0  0  0  0  0  0  0  0
    7.5606  -16.1231   20.9855 C   0  0  0  0  0  0  0  0  0  0  0  0
    6.6359  -15.3880   21.4192 O   0  0  0  0  0  0  0  0  0  0  0  0
    7.9161  -21.9858   27.3200 N   0  0  0  0  0  0  0  0  0  0  0  0
    6.8928  -21.6908   26.4140 C   0  0  0  0  0  0  0  0  0  0  0  0
    6.5317  -22.5239   25.4782 N   0  0  0  0  0  0  0  0  0  0  0  0
    6.1980  -20.4723   26.4737 N   0  0  0  0  0  0  0  0  0  0  0  0
    6.2070  -19.4828   25.4346 C   0  0  0  0  0  0  0  0  0  0  0  0
    7.5209  -18.7828   25.2215 C   0  0  0  0  0  0  0  0  0  0  0  0
    7.9319  -18.6211   23.8094 C   0  0  0  0  0  0  0  0  0  0  0  0
    7.8672  -17.2337   23.2528 C   0  0  2  0  0  0  0  0  0  0  0  0
    8.1361  -17.0871   21.8667 N   0  0  0  0  0  0  0  0  0  0  0  0
    8.4274  -16.2165   24.1534 C   0  0  0  0  0  0  0  0  0  0  0  0
    9.6632  -15.9433   24.0018 O   0  0  0  0  0  0  0  0  0  0  0  0
    6.9687  -23.4668   25.4801 C   0  0  0  0  0  0  0  0  0  0  0  0
    5.8023  -11.6926   25.5525 C   0  0  0  0  0  0  0  0  0  0  0  0
    6.8661  -12.6739   25.2306 C   0  0  2  0  0  0  0  0  0  0  0  0
    7.4940  -13.4202   26.3372 C   0  0  0  0  0  0  0  0  0  0  0  0
    7.9479  -12.4590   27.4176 C   0  0  2  0  0  0  0  0  0  0  0  0
    8.4293  -14.5210   26.0284 N   0  0  0  0  0  0  0  0  0  0  0  0
    7.7400  -15.5200   25.1653 C   0  0  0  0  0  0  0  0  0  0  0  0
    9.0052  -15.2753   27.1295 O   0  0  0  0  0  0  0  0  0  0  0  0
   10.1509  -14.8423   27.8028 O   0  0  0  0  0  0  0  0  0  0  0  0
  2  9  1  0
  2  3  1  0
  2  1  1  6
  3  4  1  0
  4  8  1  0
  5  6  1  0
  5  4  2  0
  6  7  1  0
  7  8  2  0
  9 10  2  0
 11 12  1  0
 12 14  1  0
 12 13  2  0
 14 15  1  0
 15 16  1  0
 16 17  1  0
 18 17  1  1
 18 20  1  0
 19 18  1  0
 19  9  1  0
 20 21  2  0
 22 23  1  0
 23 24  1  0
 24 25  1  1
 24 26  1  0
 26 28  1  0
 27 20  1  0
 26 27  1  6
 28 30  2  0
 28 29  1  0
M  END
$$$$
