HRI.pdb
     RDKit          3D

 30 30  0  0  1  0  0  0  0  0999 V2000
   11.2425  -15.5420   18.3131 N   0  0  0  0  0  0  0  0  0  0  0  0
   11.5274  -15.2968   19.6907 C   0  0  1  0  0  0  0  0  0  0  0  0
   12.2991  -13.9763   19.7731 C   0  0  0  0  0  0  0  0  0  0  0  0
   13.7236  -14.1953   19.4246 C   0  0  0  0  0  0  0  0  0  0  0  0
   14.6066  -15.1559   19.8055 C   0  0  0  0  0  0  0  0  0  0  0  0
   15.7788  -14.8929   19.1984 N   0  0  0  0  0  0  0  0  0  0  0  0
   15.6391  -13.7867   18.4476 C   0  0  0  0  0  0  0  0  0  0  0  0
   14.3863  -13.3621   18.5860 N   0  0  0  0  0  0  0  0  0  0  0  0
   10.2636  -15.2025   20.4777 C   0  0  0  0  0  0  0  0  0  0  0  0
    9.4701  -14.2391   20.3167 O   0  0  0  0  0  0  0  0  0  0  0  0
    7.7780  -17.8550   18.2549 N   0  0  0  0  0  0  0  0  0  0  0  0
    6.9641  -18.9904   18.1972 C   0  0  0  0  0  0  0  0  0  0  0  0
    6.6038  -19.5303   17.0662 N   0  0  0  0  0  0  0  0  0  0  0  0
    6.4954  -19.6090   19.3670 N   0  0  0  0  0  0  0  0  0  0  0  0
    6.7157  -19.1068   20.6931 C   0  0  0  0  0  0  0  0  0  0  0  0
    7.7011  -17.9757   20.7992 C   0  0  0  0  0  0  0  0  0  0  0  0
    7.8873  -17.4220   22.1585 C   0  0  0  0  0  0  0  0  0  0  0  0
    8.7865  -16.2318   22.2742 C   0  0  2  0  0  0  0  0  0  0  0  0
    9.9296  -16.2091   21.4328 N   0  0  0  0  0  0  0  0  0  0  0  0
    8.9652  -15.7670   23.6568 C   0  0  0  0  0  0  0  0  0  0  0  0
   10.0964  -16.0057   24.1938 O   0  0  0  0  0  0  0  0  0  0  0  0
    6.0100  -20.3821   17.1086 C   0  0  0  0  0  0  0  0  0  0  0  0
    5.9906  -11.5945   25.7290 C   0  0  0  0  0  0  0  0  0  0  0  0
    7.1187  -12.5030   25.4123 C   0  0  2  0  0  0  0  0  0  0  0  0
    7.3486  -13.6705   26.2840 C   0  0  0  0  0  0  0  0  0  0  0  0
    7.4696  -13.2230   27.7270 C   0  0  2  0  0  0  0  0  0  0  0  0
    8.3021  -14.7149   25.8576 N   0  0  0  0  0  0  0  0  0  0  0  0
    8.0150  -15.0917   24.4457 C   0  0  0  0  0  0  0  0  0  0  0  0
    8.3471  -15.9628   26.6020 O   0  0  0  0  0  0  0  0  0  0  0  0
    9.2128  -16.1475   27.6836 O   0  0  0  0  0  0  0  0  0  0  0  0
  2  9  1  0
  2  3  1  0
  2  1  1  6
  3  4  1  0
  4  8  1  0
  5  6  1  0
  5  4  2  0
  6  7  1  0
  7  8  2  0
  9 10  2  0
 11 12  1  0
 12 14  1  0
 12 13  2  0
 14 15  1  0
 15 16  1  0
 16 17  1  0
 18 17  1  1
 18 20  1  0
 19 18  1  0
 19  9  1  0
 20 21  2  0
 22 23  1  0
 23 24  1  0
 24 25  1  6
 24 26  1  0
 26 28  1  0
 27 20  1  0
 26 27  1  6
 28 30  2  0
 28 29  1  0
M  END
$$$$
