HRI.pdb
     RDKit          3D

 30 30  0  0  1  0  0  0  0  0999 V2000
    8.9544  -16.2087   19.2473 N   0  0  0  0  0  0  0  0  0  0  0  0
    8.3057  -15.0195   19.6988 C   0  0  1  0  0  0  0  0  0  0  0  0
    7.2291  -14.6632   18.6692 C   0  0  0  0  0  0  0  0  0  0  0  0
    7.8422  -14.4849   17.3309 C   0  0  0  0  0  0  0  0  0  0  0  0
    8.4141  -13.4031   16.7391 C   0  0  0  0  0  0  0  0  0  0  0  0
    8.8152  -13.7780   15.5101 N   0  0  0  0  0  0  0  0  0  0  0  0
    8.5027  -15.0727   15.3287 C   0  0  0  0  0  0  0  0  0  0  0  0
    7.9096  -15.5029   16.4388 N   0  0  0  0  0  0  0  0  0  0  0  0
    7.6836  -15.2384   21.0369 C   0  0  0  0  0  0  0  0  0  0  0  0
    7.0360  -14.3230   21.6083 O   0  0  0  0  0  0  0  0  0  0  0  0
    6.5362  -22.7147   26.2260 N   0  0  0  0  0  0  0  0  0  0  0  0
    6.4595  -21.5866   27.0485 C   0  0  0  0  0  0  0  0  0  0  0  0
    6.1839  -21.6713   28.3202 N   0  0  0  0  0  0  0  0  0  0  0  0
    6.6815  -20.2980   26.5374 N   0  0  0  0  0  0  0  0  0  0  0  0
    6.8995  -20.0031   25.1501 C   0  0  0  0  0  0  0  0  0  0  0  0
    7.0116  -18.5423   24.8109 C   0  0  0  0  0  0  0  0  0  0  0  0
    7.3244  -18.2417   23.3964 C   0  0  0  0  0  0  0  0  0  0  0  0
    7.4377  -16.7946   23.0335 C   0  0  2  0  0  0  0  0  0  0  0  0
    7.8120  -16.4974   21.6968 N   0  0  0  0  0  0  0  0  0  0  0  0
    8.0365  -15.9717   24.0936 C   0  0  0  0  0  0  0  0  0  0  0  0
    9.2798  -16.1468   24.3137 O   0  0  0  0  0  0  0  0  0  0  0  0
    6.2451  -20.8002   28.8836 C   0  0  0  0  0  0  0  0  0  0  0  0
    7.3338  -10.3626   26.5759 C   0  0  0  0  0  0  0  0  0  0  0  0
    8.0303  -11.6714   26.5771 C   0  0  2  0  0  0  0  0  0  0  0  0
    7.4246  -12.7921   25.8335 C   0  0  0  0  0  0  0  0  0  0  0  0
    5.9400  -12.8671   26.1294 C   0  0  2  0  0  0  0  0  0  0  0  0
    8.1303  -14.0885   25.7773 N   0  0  0  0  0  0  0  0  0  0  0  0
    7.3764  -15.0172   24.8902 C   0  0  0  0  0  0  0  0  0  0  0  0
    8.3536  -14.8143   27.0168 O   0  0  0  0  0  0  0  0  0  0  0  0
    9.3703  -14.4602   27.9080 O   0  0  0  0  0  0  0  0  0  0  0  0
  2  9  1  0
  2  3  1  0
  2  1  1  6
  3  4  1  0
  4  8  1  0
  5  6  1  0
  5  4  2  0
  6  7  1  0
  7  8  2  0
  9 10  2  0
 11 12  1  0
 12 14  1  0
 12 13  2  0
 14 15  1  0
 15 16  1  0
 16 17  1  0
 18 17  1  1
 18 20  1  0
 19 18  1  0
 19  9  1  0
 20 21  2  0
 22 23  1  0
 23 24  1  0
 24 25  1  6
 24 26  1  0
 26 28  1  0
 27 20  1  0
 26 27  1  1
 28 30  2  0
 28 29  1  0
M  END
$$$$
