HRI.pdb
     RDKit          3D

 30 30  0  0  1  0  0  0  0  0999 V2000
    7.8747  -16.9914   18.6516 N   0  0  0  0  0  0  0  0  0  0  0  0
    8.0529  -15.8544   19.4968 C   0  0  1  0  0  0  0  0  0  0  0  0
    7.2471  -14.7006   18.8922 C   0  0  0  0  0  0  0  0  0  0  0  0
    7.8270  -14.3026   17.5868 C   0  0  0  0  0  0  0  0  0  0  0  0
    8.7454  -13.3552   17.2605 C   0  0  0  0  0  0  0  0  0  0  0  0
    8.9220  -13.4038   15.9270 N   0  0  0  0  0  0  0  0  0  0  0  0
    8.1300  -14.3643   15.4200 C   0  0  0  0  0  0  0  0  0  0  0  0
    7.4628  -14.9115   16.4321 N   0  0  0  0  0  0  0  0  0  0  0  0
    7.5712  -16.1482   20.8778 C   0  0  0  0  0  0  0  0  0  0  0  0
    6.3410  -16.1951   21.1389 O   0  0  0  0  0  0  0  0  0  0  0  0
    9.7818  -22.3199   26.4743 N   0  0  0  0  0  0  0  0  0  0  0  0
    9.8362  -21.7569   25.1956 C   0  0  0  0  0  0  0  0  0  0  0  0
   10.2231  -22.4372   24.1527 N   0  0  0  0  0  0  0  0  0  0  0  0
    9.4694  -20.4200   24.9739 N   0  0  0  0  0  0  0  0  0  0  0  0
    8.3704  -19.7633   25.6219 C   0  0  0  0  0  0  0  0  0  0  0  0
    8.1055  -18.3528   25.1721 C   0  0  0  0  0  0  0  0  0  0  0  0
    8.3980  -18.0755   23.7485 C   0  0  0  0  0  0  0  0  0  0  0  0
    8.1908  -16.6666   23.2894 C   0  0  2  0  0  0  0  0  0  0  0  0
    8.5022  -16.3830   21.9338 N   0  0  0  0  0  0  0  0  0  0  0  0
    8.5821  -15.6630   24.2890 C   0  0  0  0  0  0  0  0  0  0  0  0
    9.8256  -15.3935   24.3656 O   0  0  0  0  0  0  0  0  0  0  0  0
   10.2997  -21.9290   23.2494 C   0  0  0  0  0  0  0  0  0  0  0  0
    6.5813  -10.5018   26.9580 C   0  0  0  0  0  0  0  0  0  0  0  0
    7.5828  -11.5937   26.9037 C   0  0  2  0  0  0  0  0  0  0  0  0
    7.2567  -12.8108   26.1369 C   0  0  0  0  0  0  0  0  0  0  0  0
    5.8217  -13.2202   26.4018 C   0  0  2  0  0  0  0  0  0  0  0  0
    8.2358  -13.9155   26.0825 N   0  0  0  0  0  0  0  0  0  0  0  0
    7.7256  -14.9760   25.1698 C   0  0  0  0  0  0  0  0  0  0  0  0
    8.5928  -14.5914   27.3189 O   0  0  0  0  0  0  0  0  0  0  0  0
    9.4784  -14.0267   28.2410 O   0  0  0  0  0  0  0  0  0  0  0  0
  2  9  1  0
  2  3  1  0
  2  1  1  6
  3  4  1  0
  4  8  1  0
  5  6  1  0
  5  4  2  0
  6  7  1  0
  7  8  2  0
  9 10  2  0
 11 12  1  0
 12 14  1  0
 12 13  2  0
 14 15  1  0
 15 16  1  0
 16 17  1  0
 18 17  1  1
 18 20  1  0
 19 18  1  0
 19  9  1  0
 20 21  2  0
 22 23  1  0
 23 24  1  0
 24 25  1  6
 24 26  1  0
 26 28  1  0
 27 20  1  0
 26 27  1  1
 28 30  2  0
 28 29  1  0
M  END
$$$$
