HRI.pdb
     RDKit          3D

 30 30  0  0  1  0  0  0  0  0999 V2000
    8.3930  -16.5588   18.6296 N   0  0  0  0  0  0  0  0  0  0  0  0
    8.2038  -15.3503   19.3662 C   0  0  1  0  0  0  0  0  0  0  0  0
    7.2786  -14.4494   18.5426 C   0  0  0  0  0  0  0  0  0  0  0  0
    7.8468  -14.2352   17.1899 C   0  0  0  0  0  0  0  0  0  0  0  0
    8.9618  -14.7323   16.5923 C   0  0  0  0  0  0  0  0  0  0  0  0
    9.0199  -14.2175   15.3499 N   0  0  0  0  0  0  0  0  0  0  0  0
    7.9610  -13.4101   15.1658 C   0  0  0  0  0  0  0  0  0  0  0  0
    7.2466  -13.4213   16.2876 N   0  0  0  0  0  0  0  0  0  0  0  0
    7.5900  -15.6380   20.6952 C   0  0  0  0  0  0  0  0  0  0  0  0
    6.4385  -15.2189   20.9817 O   0  0  0  0  0  0  0  0  0  0  0  0
    9.0060  -19.3015   27.3823 N   0  0  0  0  0  0  0  0  0  0  0  0
    7.8139  -20.0230   27.4978 C   0  0  0  0  0  0  0  0  0  0  0  0
    7.3642  -20.4424   28.6476 N   0  0  0  0  0  0  0  0  0  0  0  0
    7.0371  -20.3288   26.3691 N   0  0  0  0  0  0  0  0  0  0  0  0
    7.4000  -19.9957   25.0213 C   0  0  0  0  0  0  0  0  0  0  0  0
    7.4299  -18.5256   24.7057 C   0  0  0  0  0  0  0  0  0  0  0  0
    7.7225  -18.1853   23.2959 C   0  0  0  0  0  0  0  0  0  0  0  0
    7.8548  -16.7294   22.9771 C   0  0  2  0  0  0  0  0  0  0  0  0
    8.3017  -16.3984   21.6711 N   0  0  0  0  0  0  0  0  0  0  0  0
    8.3940  -15.9346   24.0893 C   0  0  0  0  0  0  0  0  0  0  0  0
    9.6635  -15.8405   24.1562 O   0  0  0  0  0  0  0  0  0  0  0  0
    6.4270  -20.8913   28.6617 C   0  0  0  0  0  0  0  0  0  0  0  0
    5.5753  -11.6613   26.1853 C   0  0  0  0  0  0  0  0  0  0  0  0
    6.6837  -12.5099   25.6856 C   0  0  2  0  0  0  0  0  0  0  0  0
    7.3403  -13.4367   26.6266 C   0  0  0  0  0  0  0  0  0  0  0  0
    7.7605  -12.6920   27.8780 C   0  0  2  0  0  0  0  0  0  0  0  0
    8.3147  -14.4203   26.1119 N   0  0  0  0  0  0  0  0  0  0  0  0
    7.6524  -15.2735   25.0866 C   0  0  0  0  0  0  0  0  0  0  0  0
    8.9404  -15.3375   27.0501 O   0  0  0  0  0  0  0  0  0  0  0  0
   10.1033  -15.0012   27.7488 O   0  0  0  0  0  0  0  0  0  0  0  0
  2  9  1  0
  2  3  1  0
  2  1  1  6
  3  4  1  0
  4  8  1  0
  5  6  1  0
  5  4  2  0
  6  7  1  0
  7  8  2  0
  9 10  2  0
 11 12  1  0
 12 14  1  0
 12 13  2  0
 14 15  1  0
 15 16  1  0
 16 17  1  0
 18 17  1  1
 18 20  1  0
 19 18  1  0
 19  9  1  0
 20 21  2  0
 22 23  1  0
 23 24  1  0
 24 25  1  1
 24 26  1  0
 26 28  1  0
 27 20  1  0
 26 27  1  6
 28 30  2  0
 28 29  1  0
M  END
$$$$
