KVE.pdb
     RDKit          3D

 26 25  0  0  1  0  0  0  0  0999 V2000
    7.8413  -14.0417   20.6519 N   0  0  0  0  0  0  0  0  0  0  0  0
    7.0088  -14.2691   21.8089 C   0  0  1  0  0  0  0  0  0  0  0  0
    6.3506  -15.5979   21.7068 C   0  0  0  0  0  0  0  0  0  0  0  0
    7.0616  -16.4316   20.6709 C   0  0  0  0  0  0  0  0  0  0  0  0
    6.4026  -17.7451   20.3789 C   0  0  0  0  0  0  0  0  0  0  0  0
    7.1247  -18.4779   19.2392 C   0  0  0  0  0  0  0  0  0  0  0  0
    6.4107  -19.7020   18.9849 N   0  0  0  0  0  0  0  0  0  0  0  0
    7.7844  -14.0763   23.0466 C   0  0  0  0  0  0  0  0  0  0  0  0
    9.0151  -14.3176   23.0249 O   0  0  0  0  0  0  0  0  0  0  0  0
    7.1714  -11.2281   25.8914 C   0  0  0  0  0  0  0  0  0  0  0  0
    7.3514  -12.6204   26.4352 C   0  0  1  0  0  0  0  0  0  0  0  0
    6.0362  -13.1220   26.9314 C   0  0  0  0  0  0  0  0  0  0  0  0
    8.0871  -13.5225   25.4983 C   0  0  2  0  0  0  0  0  0  0  0  0
    7.2426  -13.6324   24.2819 N   0  0  0  0  0  0  0  0  0  0  0  0
    8.3637  -14.8712   26.0254 C   0  0  0  0  0  0  0  0  0  0  0  0
    7.4890  -15.7996   25.9608 O   0  0  0  0  0  0  0  0  0  0  0  0
    9.5871  -15.2501   26.6316 N   0  0  0  0  0  0  0  0  0  0  0  0
    9.8698  -16.5737   27.0935 C   0  0  1  0  0  0  0  0  0  0  0  0
   10.5748  -17.4600   26.1434 C   0  0  0  0  0  0  0  0  0  0  0  0
   11.8876  -17.0094   25.6457 C   0  0  0  0  0  0  0  0  0  0  0  0
   12.5319  -17.9453   24.7125 C   0  0  0  0  0  0  0  0  0  0  0  0
   13.2100  -18.9404   25.0157 O   0  0  0  0  0  0  0  0  0  0  0  0
   10.4845  -16.5666   28.4527 C   0  0  0  0  0  0  0  0  0  0  0  0
   10.7585  -15.3462   29.0394 O   0  0  0  0  0  0  0  0  0  0  0  0
   12.3497  -17.6680   23.3410 O   0  0  0  0  0  0  0  0  0  0  0  0
   10.7633  -17.6101   29.0852 O   0  0  0  0  0  0  0  0  0  0  0  0
  2  3  1  0
  2  1  1  6
  4  3  1  0
  5  4  1  0
  5  6  1  0
  7  6  1  0
  8  9  2  0
  8  2  1  0
 11 10  1  6
 11 12  1  0
 11 13  1  0
 13 14  1  6
 14  8  1  0
 15 16  2  0
 15 13  1  0
 17 15  1  0
 18 19  1  6
 18 17  1  0
 20 19  1  0
 20 21  1  0
 21 25  1  0
 22 21  2  0
 23 18  1  0
 24 23  1  0
 26 23  2  0
M  END
$$$$
