KVE.pdb
     RDKit          3D

 26 25  0  0  1  0  0  0  0  0999 V2000
    8.5384  -17.3785   16.2206 N   0  0  0  0  0  0  0  0  0  0  0  0
    8.0397  -17.5219   17.5675 C   0  0  1  0  0  0  0  0  0  0  0  0
    8.2920  -18.9024   18.0573 C   0  0  0  0  0  0  0  0  0  0  0  0
    7.6897  -19.8943   17.0945 C   0  0  0  0  0  0  0  0  0  0  0  0
    7.8096  -21.3237   17.5270 C   0  0  0  0  0  0  0  0  0  0  0  0
    7.2744  -22.2701   16.4428 C   0  0  0  0  0  0  0  0  0  0  0  0
    7.4801  -23.6196   16.9001 N   0  0  0  0  0  0  0  0  0  0  0  0
    8.5907  -16.4664   18.4353 C   0  0  0  0  0  0  0  0  0  0  0  0
    9.7538  -16.0540   18.2104 O   0  0  0  0  0  0  0  0  0  0  0  0
    8.0207  -13.2521   22.2079 C   0  0  0  0  0  0  0  0  0  0  0  0
    7.5314  -14.0756   21.0463 C   0  0  1  0  0  0  0  0  0  0  0  0
    6.8165  -13.1845   20.0859 C   0  0  0  0  0  0  0  0  0  0  0  0
    8.5925  -14.9519   20.4638 C   0  0  2  0  0  0  0  0  0  0  0  0
    7.9005  -15.8689   19.5229 N   0  0  0  0  0  0  0  0  0  0  0  0
    9.3525  -15.7431   21.4484 C   0  0  0  0  0  0  0  0  0  0  0  0
    8.8425  -16.7729   22.0059 O   0  0  0  0  0  0  0  0  0  0  0  0
   10.6772  -15.4445   21.8530 N   0  0  0  0  0  0  0  0  0  0  0  0
   11.4461  -16.2704   22.7315 C   0  0  1  0  0  0  0  0  0  0  0  0
   12.9146  -16.1245   22.6461 C   0  0  0  0  0  0  0  0  0  0  0  0
   13.7287  -16.9241   23.5801 C   0  0  0  0  0  0  0  0  0  0  0  0
   15.1775  -16.7090   23.4529 C   0  0  0  0  0  0  0  0  0  0  0  0
   15.9697  -16.4547   24.3746 O   0  0  0  0  0  0  0  0  0  0  0  0
   10.9337  -16.2176   24.1315 C   0  0  0  0  0  0  0  0  0  0  0  0
   11.1301  -17.3196   24.9411 O   0  0  0  0  0  0  0  0  0  0  0  0
   15.7003  -16.8053   22.1457 O   0  0  0  0  0  0  0  0  0  0  0  0
   10.3358  -15.2257   24.6064 O   0  0  0  0  0  0  0  0  0  0  0  0
  2  3  1  0
  2  1  1  6
  4  3  1  0
  5  4  1  0
  5  6  1  0
  7  6  1  0
  8  9  2  0
  8  2  1  0
 11 10  1  1
 11 12  1  0
 11 13  1  0
 13 14  1  6
 14  8  1  0
 15 16  2  0
 15 13  1  0
 17 15  1  0
 18 19  1  1
 18 17  1  0
 20 19  1  0
 20 21  1  0
 21 25  1  0
 22 21  2  0
 23 18  1  0
 24 23  1  0
 26 23  2  0
M  END
$$$$
