KVE.pdb
     RDKit          3D

 26 25  0  0  1  0  0  0  0  0999 V2000
    8.6455  -15.1720   19.9774 N   0  0  0  0  0  0  0  0  0  0  0  0
    7.7954  -15.5945   21.0648 C   0  0  1  0  0  0  0  0  0  0  0  0
    7.5646  -17.0609   20.9877 C   0  0  0  0  0  0  0  0  0  0  0  0
    7.3092  -17.4538   19.5545 C   0  0  0  0  0  0  0  0  0  0  0  0
    5.9637  -18.0675   19.3142 C   0  0  0  0  0  0  0  0  0  0  0  0
    5.7895  -18.4422   17.8355 C   0  0  0  0  0  0  0  0  0  0  0  0
    4.4258  -18.8645   17.6492 N   0  0  0  0  0  0  0  0  0  0  0  0
    8.3448  -15.1398   22.3539 C   0  0  0  0  0  0  0  0  0  0  0  0
    9.5857  -15.1967   22.5286 O   0  0  0  0  0  0  0  0  0  0  0  0
    7.4852  -12.0220   24.5415 C   0  0  0  0  0  0  0  0  0  0  0  0
    7.4249  -13.2714   25.3796 C   0  0  1  0  0  0  0  0  0  0  0  0
    6.0050  -13.5362   25.7554 C   0  0  0  0  0  0  0  0  0  0  0  0
    8.1685  -14.4172   24.7737 C   0  0  2  0  0  0  0  0  0  0  0  0
    7.5709  -14.6344   23.4318 N   0  0  0  0  0  0  0  0  0  0  0  0
    8.1086  -15.6721   25.5450 C   0  0  0  0  0  0  0  0  0  0  0  0
    7.2365  -16.5683   25.2848 O   0  0  0  0  0  0  0  0  0  0  0  0
    8.9862  -15.9903   26.6110 N   0  0  0  0  0  0  0  0  0  0  0  0
    9.9382  -17.0565   26.5666 C   0  0  1  0  0  0  0  0  0  0  0  0
   10.7800  -17.1300   25.3537 C   0  0  0  0  0  0  0  0  0  0  0  0
   11.8505  -18.1439   25.3344 C   0  0  0  0  0  0  0  0  0  0  0  0
   12.6005  -18.2043   24.0713 C   0  0  0  0  0  0  0  0  0  0  0  0
   13.1060  -17.2450   23.4663 O   0  0  0  0  0  0  0  0  0  0  0  0
   10.7247  -17.1498   27.8307 C   0  0  0  0  0  0  0  0  0  0  0  0
   10.9189  -18.3988   28.3885 O   0  0  0  0  0  0  0  0  0  0  0  0
   12.7498  -19.4888   23.5065 O   0  0  0  0  0  0  0  0  0  0  0  0
   11.2155  -16.1540   28.4087 O   0  0  0  0  0  0  0  0  0  0  0  0
  2  3  1  0
  2  1  1  6
  4  3  1  0
  5  4  1  0
  5  6  1  0
  7  6  1  0
  8  9  2  0
  8  2  1  0
 11 10  1  6
 11 12  1  0
 11 13  1  0
 13 14  1  6
 14  8  1  0
 15 16  2  0
 15 13  1  0
 17 15  1  0
 18 19  1  6
 18 17  1  0
 20 19  1  0
 20 21  1  0
 21 25  1  0
 22 21  2  0
 23 18  1  0
 24 23  1  0
 26 23  2  0
M  END
$$$$
