KVE.pdb
     RDKit          3D

 26 25  0  0  1  0  0  0  0  0999 V2000
    7.2379  -15.2477   21.0595 N   0  0  0  0  0  0  0  0  0  0  0  0
    6.7770  -15.6197   22.3758 C   0  0  1  0  0  0  0  0  0  0  0  0
    6.8652  -17.0937   22.5462 C   0  0  0  0  0  0  0  0  0  0  0  0
    6.0098  -17.7711   21.5056 C   0  0  0  0  0  0  0  0  0  0  0  0
    5.9614  -19.2638   21.6242 C   0  0  0  0  0  0  0  0  0  0  0  0
    4.9949  -19.8635   20.5929 C   0  0  0  0  0  0  0  0  0  0  0  0
    5.0077  -21.2932   20.7614 N   0  0  0  0  0  0  0  0  0  0  0  0
    7.4944  -14.8515   23.4082 C   0  0  0  0  0  0  0  0  0  0  0  0
    8.6686  -14.4803   23.1695 O   0  0  0  0  0  0  0  0  0  0  0  0
    7.5211  -12.4390   27.7622 C   0  0  0  0  0  0  0  0  0  0  0  0
    6.8724  -12.9947   26.5223 C   0  0  1  0  0  0  0  0  0  0  0  0
    6.1910  -11.8859   25.7918 C   0  0  0  0  0  0  0  0  0  0  0  0
    7.7957  -13.8453   25.7116 C   0  0  2  0  0  0  0  0  0  0  0  0
    6.9556  -14.4920   24.6718 N   0  0  0  0  0  0  0  0  0  0  0  0
    8.5141  -14.8819   26.4748 C   0  0  0  0  0  0  0  0  0  0  0  0
    7.8927  -15.6795   27.2552 O   0  0  0  0  0  0  0  0  0  0  0  0
    9.9153  -15.0834   26.4137 N   0  0  0  0  0  0  0  0  0  0  0  0
   10.6134  -16.0590   27.1920 C   0  0  1  0  0  0  0  0  0  0  0  0
   11.9610  -16.4334   26.7135 C   0  0  0  0  0  0  0  0  0  0  0  0
   12.3654  -15.9450   25.3823 C   0  0  0  0  0  0  0  0  0  0  0  0
   13.6882  -16.4141   24.9445 C   0  0  0  0  0  0  0  0  0  0  0  0
   14.0099  -17.5870   24.6942 O   0  0  0  0  0  0  0  0  0  0  0  0
   10.5791  -15.7343   28.6476 C   0  0  0  0  0  0  0  0  0  0  0  0
   10.0634  -14.5117   29.0322 O   0  0  0  0  0  0  0  0  0  0  0  0
   14.6765  -15.4173   24.8004 O   0  0  0  0  0  0  0  0  0  0  0  0
   10.9942  -16.5138   29.5346 O   0  0  0  0  0  0  0  0  0  0  0  0
  2  3  1  0
  2  1  1  6
  4  3  1  0
  5  4  1  0
  5  6  1  0
  7  6  1  0
  8  9  2  0
  8  2  1  0
 11 10  1  1
 11 12  1  0
 11 13  1  0
 13 14  1  6
 14  8  1  0
 15 16  2  0
 15 13  1  0
 17 15  1  0
 18 19  1  6
 18 17  1  0
 20 19  1  0
 20 21  1  0
 21 25  1  0
 22 21  2  0
 23 18  1  0
 24 23  1  0
 26 23  2  0
M  END
$$$$
