KVE.pdb
     RDKit          3D

 26 25  0  0  1  0  0  0  0  0999 V2000
    8.1910  -15.6812   21.1569 N   0  0  0  0  0  0  0  0  0  0  0  0
    7.6570  -16.0794   22.4375 C   0  0  1  0  0  0  0  0  0  0  0  0
    8.0326  -17.4880   22.7277 C   0  0  0  0  0  0  0  0  0  0  0  0
    7.5351  -18.3789   21.6176 C   0  0  0  0  0  0  0  0  0  0  0  0
    7.7962  -19.8381   21.8347 C   0  0  0  0  0  0  0  0  0  0  0  0
    7.1583  -20.6797   20.7202 C   0  0  0  0  0  0  0  0  0  0  0  0
    7.4564  -22.0619   20.9910 N   0  0  0  0  0  0  0  0  0  0  0  0
    8.0597  -15.1226   23.4829 C   0  0  0  0  0  0  0  0  0  0  0  0
    9.2158  -14.6382   23.4370 O   0  0  0  0  0  0  0  0  0  0  0  0
    6.8526  -12.0284   27.1733 C   0  0  0  0  0  0  0  0  0  0  0  0
    6.5410  -12.9651   26.0365 C   0  0  1  0  0  0  0  0  0  0  0  0
    5.8082  -12.2142   24.9751 C   0  0  0  0  0  0  0  0  0  0  0  0
    7.7295  -13.7498   25.5841 C   0  0  2  0  0  0  0  0  0  0  0  0
    7.2316  -14.6977   24.5553 N   0  0  0  0  0  0  0  0  0  0  0  0
    8.4183  -14.5010   26.6492 C   0  0  0  0  0  0  0  0  0  0  0  0
    7.7625  -15.1612   27.5241 O   0  0  0  0  0  0  0  0  0  0  0  0
    9.8265  -14.5592   26.7950 N   0  0  0  0  0  0  0  0  0  0  0  0
   10.4910  -15.3259   27.8028 C   0  0  1  0  0  0  0  0  0  0  0  0
   10.1297  -16.7572   27.8786 C   0  0  0  0  0  0  0  0  0  0  0  0
   10.4164  -17.5902   26.6962 C   0  0  0  0  0  0  0  0  0  0  0  0
   10.4676  -19.0331   26.9736 C   0  0  0  0  0  0  0  0  0  0  0  0
   10.4000  -19.9484   26.1372 O   0  0  0  0  0  0  0  0  0  0  0  0
   11.9647  -15.0946   27.7931 C   0  0  0  0  0  0  0  0  0  0  0  0
   12.4904  -14.2715   26.8159 O   0  0  0  0  0  0  0  0  0  0  0  0
   10.6078  -19.3930   28.3308 O   0  0  0  0  0  0  0  0  0  0  0  0
   12.7457  -15.6091   28.6251 O   0  0  0  0  0  0  0  0  0  0  0  0
  2  3  1  0
  2  1  1  6
  4  3  1  0
  5  4  1  0
  5  6  1  0
  7  6  1  0
  8  9  2  0
  8  2  1  0
 11 10  1  1
 11 12  1  0
 11 13  1  0
 13 14  1  6
 14  8  1  0
 15 16  2  0
 15 13  1  0
 17 15  1  0
 18 19  1  6
 18 17  1  0
 20 19  1  0
 20 21  1  0
 21 25  1  0
 22 21  2  0
 23 18  1  0
 24 23  1  0
 26 23  2  0
M  END
$$$$
