KVE.pdb
     RDKit          3D

 26 25  0  0  1  0  0  0  0  0999 V2000
    8.3849  -14.0228   20.2995 N   0  0  0  0  0  0  0  0  0  0  0  0
    7.5910  -14.6703   21.3164 C   0  0  1  0  0  0  0  0  0  0  0  0
    7.5450  -16.1350   21.0677 C   0  0  0  0  0  0  0  0  0  0  0  0
    7.1356  -16.3886   19.6388 C   0  0  0  0  0  0  0  0  0  0  0  0
    6.9653  -17.8367   19.2944 C   0  0  0  0  0  0  0  0  0  0  0  0
    6.4209  -17.9994   17.8680 C   0  0  0  0  0  0  0  0  0  0  0  0
    6.2796  -19.4091   17.6122 N   0  0  0  0  0  0  0  0  0  0  0  0
    8.0758  -14.3037   22.6585 C   0  0  0  0  0  0  0  0  0  0  0  0
    9.3102  -14.3389   22.8787 O   0  0  0  0  0  0  0  0  0  0  0  0
    7.1391  -12.8598   27.3483 C   0  0  0  0  0  0  0  0  0  0  0  0
    6.7919  -12.9854   25.8887 C   0  0  1  0  0  0  0  0  0  0  0  0
    6.5025  -11.6281   25.3395 C   0  0  0  0  0  0  0  0  0  0  0  0
    7.7772  -13.8073   25.1229 C   0  0  2  0  0  0  0  0  0  0  0  0
    7.2454  -13.9076   23.7401 N   0  0  0  0  0  0  0  0  0  0  0  0
    8.0045  -15.1615   25.6592 C   0  0  0  0  0  0  0  0  0  0  0  0
    7.3732  -16.1712   25.1972 O   0  0  0  0  0  0  0  0  0  0  0  0
    8.9162  -15.4586   26.7024 N   0  0  0  0  0  0  0  0  0  0  0  0
    9.7644  -16.6098   26.7139 C   0  0  1  0  0  0  0  0  0  0  0  0
   10.5780  -16.8335   25.5002 C   0  0  0  0  0  0  0  0  0  0  0  0
   11.4625  -18.0132   25.4872 C   0  0  0  0  0  0  0  0  0  0  0  0
   12.3069  -18.1203   24.2885 C   0  0  0  0  0  0  0  0  0  0  0  0
   12.4812  -17.2426   23.4276 O   0  0  0  0  0  0  0  0  0  0  0  0
   10.5572  -16.7012   27.9742 C   0  0  0  0  0  0  0  0  0  0  0  0
   10.8484  -15.5314   28.6491 O   0  0  0  0  0  0  0  0  0  0  0  0
   12.9773  -19.3501   24.1173 O   0  0  0  0  0  0  0  0  0  0  0  0
   10.9703  -17.7836   28.4482 O   0  0  0  0  0  0  0  0  0  0  0  0
  2  3  1  0
  2  1  1  6
  4  3  1  0
  5  4  1  0
  5  6  1  0
  7  6  1  0
  8  9  2  0
  8  2  1  0
 11 10  1  1
 11 12  1  0
 11 13  1  0
 13 14  1  6
 14  8  1  0
 15 16  2  0
 15 13  1  0
 17 15  1  0
 18 19  1  6
 18 17  1  0
 20 19  1  0
 20 21  1  0
 21 25  1  0
 22 21  2  0
 23 18  1  0
 24 23  1  0
 26 23  2  0
M  END
$$$$
