KVE.pdb
     RDKit          3D

 26 25  0  0  1  0  0  0  0  0999 V2000
    7.3916  -14.7065   20.6710 N   0  0  0  0  0  0  0  0  0  0  0  0
    7.0198  -15.3221   21.9225 C   0  0  1  0  0  0  0  0  0  0  0  0
    7.3073  -16.7796   21.8759 C   0  0  0  0  0  0  0  0  0  0  0  0
    6.4119  -17.4352   20.8550 C   0  0  0  0  0  0  0  0  0  0  0  0
    6.4175  -18.9327   20.9015 C   0  0  0  0  0  0  0  0  0  0  0  0
    5.4772  -19.5166   19.8375 C   0  0  0  0  0  0  0  0  0  0  0  0
    5.6415  -20.9468   19.8463 N   0  0  0  0  0  0  0  0  0  0  0  0
    7.6565  -14.6199   23.0504 C   0  0  0  0  0  0  0  0  0  0  0  0
    8.8328  -14.2071   22.9106 O   0  0  0  0  0  0  0  0  0  0  0  0
    7.3835  -12.4599   27.5166 C   0  0  0  0  0  0  0  0  0  0  0  0
    6.8237  -12.9598   26.2114 C   0  0  1  0  0  0  0  0  0  0  0  0
    6.2045  -11.8166   25.4786 C   0  0  0  0  0  0  0  0  0  0  0  0
    7.7983  -13.7860   25.4364 C   0  0  2  0  0  0  0  0  0  0  0  0
    7.0365  -14.3688   24.3029 N   0  0  0  0  0  0  0  0  0  0  0  0
    8.4401  -14.8692   26.2032 C   0  0  0  0  0  0  0  0  0  0  0  0
    7.7763  -15.8893   26.5907 O   0  0  0  0  0  0  0  0  0  0  0  0
    9.8092  -14.8790   26.5680 N   0  0  0  0  0  0  0  0  0  0  0  0
   10.4544  -15.9836   27.2072 C   0  0  1  0  0  0  0  0  0  0  0  0
   11.7921  -16.3454   26.6925 C   0  0  0  0  0  0  0  0  0  0  0  0
   11.8483  -17.0913   25.4218 C   0  0  0  0  0  0  0  0  0  0  0  0
   13.2112  -17.3552   24.9377 C   0  0  0  0  0  0  0  0  0  0  0  0
   13.5807  -17.3853   23.7526 O   0  0  0  0  0  0  0  0  0  0  0  0
   10.4123  -15.8652   28.6937 C   0  0  0  0  0  0  0  0  0  0  0  0
   10.8052  -16.9544   29.4472 O   0  0  0  0  0  0  0  0  0  0  0  0
   14.1811  -17.5955   25.9341 O   0  0  0  0  0  0  0  0  0  0  0  0
   10.0389  -14.8295   29.2893 O   0  0  0  0  0  0  0  0  0  0  0  0
  2  3  1  0
  2  1  1  6
  4  3  1  0
  5  4  1  0
  5  6  1  0
  7  6  1  0
  8  9  2  0
  8  2  1  0
 11 10  1  1
 11 12  1  0
 11 13  1  0
 13 14  1  6
 14  8  1  0
 15 16  2  0
 15 13  1  0
 17 15  1  0
 18 19  1  6
 18 17  1  0
 20 19  1  0
 20 21  1  0
 21 25  1  0
 22 21  2  0
 23 18  1  0
 24 23  1  0
 26 23  2  0
M  END
$$$$
