KVE.pdb
     RDKit          3D

 26 25  0  0  1  0  0  0  0  0999 V2000
    7.9728  -14.4365   20.4969 N   0  0  0  0  0  0  0  0  0  0  0  0
    7.3475  -15.0207   21.6593 C   0  0  1  0  0  0  0  0  0  0  0  0
    7.4098  -16.5035   21.5773 C   0  0  0  0  0  0  0  0  0  0  0  0
    6.6567  -16.9706   20.3574 C   0  0  0  0  0  0  0  0  0  0  0  0
    6.4557  -18.4537   20.2876 C   0  0  0  0  0  0  0  0  0  0  0  0
    5.5313  -18.8261   19.1197 C   0  0  0  0  0  0  0  0  0  0  0  0
    5.4603  -20.2628   19.0593 N   0  0  0  0  0  0  0  0  0  0  0  0
    7.9297  -14.4622   22.8921 C   0  0  0  0  0  0  0  0  0  0  0  0
    9.1586  -14.2116   22.9129 O   0  0  0  0  0  0  0  0  0  0  0  0
    7.4060  -12.4677   27.4170 C   0  0  0  0  0  0  0  0  0  0  0  0
    6.8958  -12.9174   26.0737 C   0  0  1  0  0  0  0  0  0  0  0  0
    6.3333  -11.7404   25.3488 C   0  0  0  0  0  0  0  0  0  0  0  0
    7.8876  -13.7413   25.3184 C   0  0  2  0  0  0  0  0  0  0  0  0
    7.2004  -14.1802   24.0774 N   0  0  0  0  0  0  0  0  0  0  0  0
    8.3918  -14.9223   26.0425 C   0  0  0  0  0  0  0  0  0  0  0  0
    7.5942  -15.8088   26.5000 O   0  0  0  0  0  0  0  0  0  0  0  0
    9.7641  -15.1756   26.2883 N   0  0  0  0  0  0  0  0  0  0  0  0
   10.2530  -16.3580   26.9270 C   0  0  1  0  0  0  0  0  0  0  0  0
   11.5326  -16.8940   26.4169 C   0  0  0  0  0  0  0  0  0  0  0  0
   11.6685  -17.0436   24.9562 C   0  0  0  0  0  0  0  0  0  0  0  0
   13.0240  -17.3974   24.5101 C   0  0  0  0  0  0  0  0  0  0  0  0
   13.4047  -17.5243   23.3350 O   0  0  0  0  0  0  0  0  0  0  0  0
   10.2202  -16.2386   28.4136 C   0  0  0  0  0  0  0  0  0  0  0  0
    9.9307  -15.0047   28.9636 O   0  0  0  0  0  0  0  0  0  0  0  0
   13.9716  -17.6096   25.5338 O   0  0  0  0  0  0  0  0  0  0  0  0
   10.4420  -17.1996   29.1843 O   0  0  0  0  0  0  0  0  0  0  0  0
  2  3  1  0
  2  1  1  6
  4  3  1  0
  5  4  1  0
  5  6  1  0
  7  6  1  0
  8  9  2  0
  8  2  1  0
 11 10  1  1
 11 12  1  0
 11 13  1  0
 13 14  1  6
 14  8  1  0
 15 16  2  0
 15 13  1  0
 17 15  1  0
 18 19  1  6
 18 17  1  0
 20 19  1  0
 20 21  1  0
 21 25  1  0
 22 21  2  0
 23 18  1  0
 24 23  1  0
 26 23  2  0
M  END
$$$$
