KVE.pdb
     RDKit          3D

 26 25  0  0  1  0  0  0  0  0999 V2000
    7.6534  -14.9483   20.7959 N   0  0  0  0  0  0  0  0  0  0  0  0
    6.9738  -15.3194   22.0141 C   0  0  1  0  0  0  0  0  0  0  0  0
    6.8824  -16.7997   22.1130 C   0  0  0  0  0  0  0  0  0  0  0  0
    5.9864  -17.3213   21.0181 C   0  0  0  0  0  0  0  0  0  0  0  0
    5.7529  -18.8005   21.0652 C   0  0  0  0  0  0  0  0  0  0  0  0
    4.7937  -19.2387   19.9493 C   0  0  0  0  0  0  0  0  0  0  0  0
    4.5560  -20.6499   20.1062 N   0  0  0  0  0  0  0  0  0  0  0  0
    7.6136  -14.6780   23.1760 C   0  0  0  0  0  0  0  0  0  0  0  0
    8.8646  -14.5896   23.1966 O   0  0  0  0  0  0  0  0  0  0  0  0
    7.2308  -12.2730   27.5375 C   0  0  0  0  0  0  0  0  0  0  0  0
    6.6720  -12.7971   26.2414 C   0  0  1  0  0  0  0  0  0  0  0  0
    6.0607  -11.6662   25.4832 C   0  0  0  0  0  0  0  0  0  0  0  0
    7.6445  -13.6441   25.4865 C   0  0  2  0  0  0  0  0  0  0  0  0
    6.9173  -14.1435   24.2921 N   0  0  0  0  0  0  0  0  0  0  0  0
    8.1878  -14.7873   26.2422 C   0  0  0  0  0  0  0  0  0  0  0  0
    7.4723  -15.8153   26.4930 O   0  0  0  0  0  0  0  0  0  0  0  0
    9.5119  -14.8498   26.7426 N   0  0  0  0  0  0  0  0  0  0  0  0
   10.0589  -15.9930   27.4053 C   0  0  1  0  0  0  0  0  0  0  0  0
   11.0929  -16.7450   26.6633 C   0  0  0  0  0  0  0  0  0  0  0  0
   12.3486  -16.0383   26.3505 C   0  0  0  0  0  0  0  0  0  0  0  0
   13.1450  -16.6670   25.2864 C   0  0  0  0  0  0  0  0  0  0  0  0
   12.8614  -17.7057   24.6680 O   0  0  0  0  0  0  0  0  0  0  0  0
   10.4565  -15.6820   28.8090 C   0  0  0  0  0  0  0  0  0  0  0  0
   10.8527  -16.7262   29.6223 O   0  0  0  0  0  0  0  0  0  0  0  0
   14.3470  -16.0094   24.9490 O   0  0  0  0  0  0  0  0  0  0  0  0
   10.4482  -14.5240   29.2841 O   0  0  0  0  0  0  0  0  0  0  0  0
  2  3  1  0
  2  1  1  6
  4  3  1  0
  5  4  1  0
  5  6  1  0
  7  6  1  0
  8  9  2  0
  8  2  1  0
 11 10  1  1
 11 12  1  0
 11 13  1  0
 13 14  1  6
 14  8  1  0
 15 16  2  0
 15 13  1  0
 17 15  1  0
 18 19  1  6
 18 17  1  0
 20 19  1  0
 20 21  1  0
 21 25  1  0
 22 21  2  0
 23 18  1  0
 24 23  1  0
 26 23  2  0
M  END
$$$$
