HYN.pdb
     RDKit          3D

 31 32  0  0  1  0  0  0  0  0999 V2000
   25.6683  -20.8217  -19.3521 N   0  0  0  0  0  0  0  0  0  0  0  0
   25.3375  -19.7489  -18.4545 C   0  0  1  0  0  0  0  0  0  0  0  0
   24.1464  -19.0021  -19.0223 C   0  0  0  0  0  0  0  0  0  0  0  0
   24.6542  -17.9110  -19.9023 C   0  0  0  0  0  0  0  0  0  0  0  0
   24.6839  -16.5784  -19.5395 C   0  0  0  0  0  0  0  0  0  0  0  0
   25.2009  -15.9085  -20.5777 N   0  0  0  0  0  0  0  0  0  0  0  0
   25.4825  -16.7952  -21.5517 C   0  0  0  0  0  0  0  0  0  0  0  0
   25.1489  -18.0444  -21.1481 N   0  0  0  0  0  0  0  0  0  0  0  0
   25.0250  -20.2713  -17.1075 C   0  0  0  0  0  0  0  0  0  0  0  0
   24.1795  -21.1885  -17.0194 O   0  0  0  0  0  0  0  0  0  0  0  0
   24.4907  -21.4514   -8.3195 O   0  0  0  0  0  0  0  0  0  0  0  0
   24.9111  -21.0221   -9.5932 C   0  0  0  0  0  0  0  0  0  0  0  0
   24.5112  -19.8077  -10.0950 C   0  0  0  0  0  0  0  0  0  0  0  0
   24.9226  -19.3768  -11.3580 C   0  0  0  0  0  0  0  0  0  0  0  0
   25.7327  -20.1290  -12.1487 C   0  0  0  0  0  0  0  0  0  0  0  0
   26.2231  -19.7465  -13.4945 C   0  0  0  0  0  0  0  0  0  0  0  0
   25.2614  -20.1440  -14.5935 C   0  0  2  0  0  0  0  0  0  0  0  0
   25.6340  -19.7870  -15.9104 N   0  0  0  0  0  0  0  0  0  0  0  0
   23.8893  -19.8838  -14.1946 C   0  0  0  0  0  0  0  0  0  0  0  0
   23.4380  -18.7012  -14.3640 O   0  0  0  0  0  0  0  0  0  0  0  0
   26.1288  -21.3665  -11.6148 C   0  0  0  0  0  0  0  0  0  0  0  0
   25.7318  -21.8003  -10.3764 C   0  0  0  0  0  0  0  0  0  0  0  0
   18.8880  -19.3427  -13.5759 N   0  0  0  0  0  0  0  0  0  0  0  0
   19.3965  -20.4597  -14.3266 C   0  0  0  0  0  0  0  0  0  0  0  0
   18.5612  -21.2443  -14.8099 O   0  0  0  0  0  0  0  0  0  0  0  0
   20.8261  -20.6283  -14.4864 C   0  0  0  0  0  0  0  0  0  0  0  0
   21.6159  -20.5071  -13.2346 C   0  0  2  0  0  0  0  0  0  0  0  0
   23.0115  -20.8356  -13.6367 N   0  0  0  0  0  0  0  0  0  0  0  0
   21.2526  -21.3651  -12.1104 C   0  0  0  0  0  0  0  0  0  0  0  0
   21.8750  -22.4547  -11.9318 O   0  0  0  0  0  0  0  0  0  0  0  0
   20.2584  -21.1089  -11.1679 O   0  0  0  0  0  0  0  0  0  0  0  0
  2  1  1  6
  3  2  1  0
  3  4  1  0
  4  5  2  0
  5  6  1  0
  7  6  1  0
  8  4  1  0
  8  7  2  0
  9 18  1  0
  9  2  1  0
 10  9  2  0
 11 12  1  0
 12 13  2  0
 13 14  1  0
 15 16  1  0
 15 14  2  0
 17 16  1  1
 17 18  1  0
 19 17  1  0
 20 19  2  0
 21 15  1  0
 22 21  2  0
 22 12  1  0
 23 24  1  0
 24 25  2  0
 24 26  1  0
 27 26  1  6
 27 29  1  0
 27 28  1  0
 28 19  1  0
 29 31  1  0
 30 29  2  0
M  END
$$$$
