HYN.pdb
     RDKit          3D

 31 32  0  0  1  0  0  0  0  0999 V2000
   23.0803  -13.1908  -16.8820 N   0  0  0  0  0  0  0  0  0  0  0  0
   23.5226  -12.0869  -16.0748 C   0  0  1  0  0  0  0  0  0  0  0  0
   24.8908  -11.6554  -16.5653 C   0  0  0  0  0  0  0  0  0  0  0  0
   25.8493  -12.7707  -16.3197 C   0  0  0  0  0  0  0  0  0  0  0  0
   25.9523  -13.4492  -15.1209 C   0  0  0  0  0  0  0  0  0  0  0  0
   26.9104  -14.3713  -15.2817 N   0  0  0  0  0  0  0  0  0  0  0  0
   27.3857  -14.2687  -16.5378 C   0  0  0  0  0  0  0  0  0  0  0  0
   26.7369  -13.2787  -17.1965 N   0  0  0  0  0  0  0  0  0  0  0  0
   22.5666  -10.9626  -16.1568 C   0  0  0  0  0  0  0  0  0  0  0  0
   22.2007  -10.5900  -17.2930 O   0  0  0  0  0  0  0  0  0  0  0  0
   16.9096  -13.6509  -17.3019 O   0  0  0  0  0  0  0  0  0  0  0  0
   17.6074  -12.6667  -16.5757 C   0  0  0  0  0  0  0  0  0  0  0  0
   18.3427  -12.9996  -15.4644 C   0  0  0  0  0  0  0  0  0  0  0  0
   19.0354  -12.0283  -14.7385 C   0  0  0  0  0  0  0  0  0  0  0  0
   19.0187  -10.7156  -15.0906 C   0  0  0  0  0  0  0  0  0  0  0  0
   19.7295   -9.6230  -14.3844 C   0  0  0  0  0  0  0  0  0  0  0  0
   21.0504   -9.2772  -15.0375 C   0  0  2  0  0  0  0  0  0  0  0  0
   22.0426  -10.2850  -15.0145 N   0  0  0  0  0  0  0  0  0  0  0  0
   21.4603   -7.9291  -14.6853 C   0  0  0  0  0  0  0  0  0  0  0  0
   21.9907   -7.7530  -13.5370 O   0  0  0  0  0  0  0  0  0  0  0  0
   18.2605  -10.3989  -16.2301 C   0  0  0  0  0  0  0  0  0  0  0  0
   17.5766  -11.3434  -16.9509 C   0  0  0  0  0  0  0  0  0  0  0  0
   22.8815   -2.8745  -14.9355 N   0  0  0  0  0  0  0  0  0  0  0  0
   22.9161   -3.5304  -16.2155 C   0  0  0  0  0  0  0  0  0  0  0  0
   23.3975   -2.8901  -17.1669 O   0  0  0  0  0  0  0  0  0  0  0  0
   22.3998   -4.8772  -16.3482 C   0  0  0  0  0  0  0  0  0  0  0  0
   21.7990   -5.4432  -15.1137 C   0  0  2  0  0  0  0  0  0  0  0  0
   21.3225   -6.7963  -15.5130 N   0  0  0  0  0  0  0  0  0  0  0  0
   20.6801   -4.7277  -14.5070 C   0  0  0  0  0  0  0  0  0  0  0  0
   20.8704   -3.5744  -14.0167 O   0  0  0  0  0  0  0  0  0  0  0  0
   19.3683   -5.1873  -14.4049 O   0  0  0  0  0  0  0  0  0  0  0  0
  2  1  1  6
  3  2  1  0
  3  4  1  0
  4  5  2  0
  5  6  1  0
  7  6  1  0
  8  4  1  0
  8  7  2  0
  9 18  1  0
  9  2  1  0
 10  9  2  0
 11 12  1  0
 12 13  2  0
 13 14  1  0
 15 16  1  0
 15 14  2  0
 17 16  1  1
 17 18  1  0
 19 17  1  0
 20 19  2  0
 21 15  1  0
 22 21  2  0
 22 12  1  0
 23 24  1  0
 24 25  2  0
 24 26  1  0
 27 26  1  6
 27 29  1  0
 27 28  1  0
 28 19  1  0
 29 31  1  0
 30 29  2  0
M  END
$$$$
