HYN.pdb
     RDKit          3D

 31 32  0  0  1  0  0  0  0  0999 V2000
   16.4266  -12.2733  -17.6649 N   0  0  0  0  0  0  0  0  0  0  0  0
   16.6155  -11.5169  -16.4574 C   0  0  1  0  0  0  0  0  0  0  0  0
   17.6416  -12.2334  -15.6014 C   0  0  0  0  0  0  0  0  0  0  0  0
   17.0073  -13.4593  -15.0378 C   0  0  0  0  0  0  0  0  0  0  0  0
   15.6861  -13.8074  -15.2418 C   0  0  0  0  0  0  0  0  0  0  0  0
   15.4861  -14.9586  -14.5871 N   0  0  0  0  0  0  0  0  0  0  0  0
   16.6438  -15.3130  -13.9970 C   0  0  0  0  0  0  0  0  0  0  0  0
   17.5995  -14.3920  -14.2673 N   0  0  0  0  0  0  0  0  0  0  0  0
   17.0681  -10.1440  -16.7653 C   0  0  0  0  0  0  0  0  0  0  0  0
   17.9145   -9.9991  -17.6744 O   0  0  0  0  0  0  0  0  0  0  0  0
   12.4881   -8.3489  -20.8262 O   0  0  0  0  0  0  0  0  0  0  0  0
   13.3491   -7.9219  -19.7969 C   0  0  0  0  0  0  0  0  0  0  0  0
   14.4026   -7.0816  -20.0627 C   0  0  0  0  0  0  0  0  0  0  0  0
   15.2615   -6.6560  -19.0471 C   0  0  0  0  0  0  0  0  0  0  0  0
   15.1011   -7.0468  -17.7552 C   0  0  0  0  0  0  0  0  0  0  0  0
   15.9579   -6.6379  -16.6166 C   0  0  0  0  0  0  0  0  0  0  0  0
   17.0330   -7.6576  -16.3082 C   0  0  2  0  0  0  0  0  0  0  0  0
   16.5925   -8.9829  -16.0840 N   0  0  0  0  0  0  0  0  0  0  0  0
   18.0072   -7.1121  -15.3793 C   0  0  0  0  0  0  0  0  0  0  0  0
   17.7909   -7.2755  -14.1314 O   0  0  0  0  0  0  0  0  0  0  0  0
   14.0174   -7.9057  -17.5074 C   0  0  0  0  0  0  0  0  0  0  0  0
   13.1674   -8.3302  -18.4958 C   0  0  0  0  0  0  0  0  0  0  0  0
   22.2352   -5.5043  -12.9185 N   0  0  0  0  0  0  0  0  0  0  0  0
   22.1830   -6.7626  -13.6141 C   0  0  0  0  0  0  0  0  0  0  0  0
   23.1146   -7.5610  -13.4106 O   0  0  0  0  0  0  0  0  0  0  0  0
   21.0776   -7.0465  -14.5059 C   0  0  0  0  0  0  0  0  0  0  0  0
   20.1577   -5.9060  -14.7477 C   0  0  2  0  0  0  0  0  0  0  0  0
   19.1781   -6.4176  -15.7457 N   0  0  0  0  0  0  0  0  0  0  0  0
   20.7276   -4.6650  -15.2646 C   0  0  0  0  0  0  0  0  0  0  0  0
   20.7347   -4.4560  -16.5147 O   0  0  0  0  0  0  0  0  0  0  0  0
   21.2852   -3.6374  -14.5060 O   0  0  0  0  0  0  0  0  0  0  0  0
  2  1  1  6
  3  2  1  0
  3  4  1  0
  4  5  2  0
  5  6  1  0
  7  6  1  0
  8  4  1  0
  8  7  2  0
  9 18  1  0
  9  2  1  0
 10  9  2  0
 11 12  1  0
 12 13  2  0
 13 14  1  0
 15 16  1  0
 15 14  2  0
 17 16  1  1
 17 18  1  0
 19 17  1  0
 20 19  2  0
 21 15  1  0
 22 21  2  0
 22 12  1  0
 23 24  1  0
 24 25  2  0
 24 26  1  0
 27 26  1  6
 27 29  1  0
 27 28  1  0
 28 19  1  0
 29 31  1  0
 30 29  2  0
M  END
$$$$
