HYN.pdb
     RDKit          3D

 31 32  0  0  1  0  0  0  0  0999 V2000
   22.8561  -12.8305  -18.1186 N   0  0  0  0  0  0  0  0  0  0  0  0
   22.7212  -11.5876  -18.8278 C   0  0  1  0  0  0  0  0  0  0  0  0
   21.6589  -11.7606  -19.8957 C   0  0  0  0  0  0  0  0  0  0  0  0
   22.1413  -12.7756  -20.8756 C   0  0  0  0  0  0  0  0  0  0  0  0
   21.8083  -14.1153  -20.8253 C   0  0  0  0  0  0  0  0  0  0  0  0
   22.4234  -14.7037  -21.8594 N   0  0  0  0  0  0  0  0  0  0  0  0
   23.1146  -13.7612  -22.5288 C   0  0  0  0  0  0  0  0  0  0  0  0
   22.9498  -12.5571  -21.9306 N   0  0  0  0  0  0  0  0  0  0  0  0
   22.3507  -10.4953  -17.9034 C   0  0  0  0  0  0  0  0  0  0  0  0
   21.2677  -10.5957  -17.2863 O   0  0  0  0  0  0  0  0  0  0  0  0
   22.0536   -2.7446  -13.5942 O   0  0  0  0  0  0  0  0  0  0  0  0
   22.5200   -3.8690  -14.3023 C   0  0  0  0  0  0  0  0  0  0  0  0
   22.9828   -3.7487  -15.5899 C   0  0  0  0  0  0  0  0  0  0  0  0
   23.4447   -4.8598  -16.2986 C   0  0  0  0  0  0  0  0  0  0  0  0
   23.4609   -6.1060  -15.7563 C   0  0  0  0  0  0  0  0  0  0  0  0
   23.9404   -7.3356  -16.4318 C   0  0  0  0  0  0  0  0  0  0  0  0
   22.8034   -8.2267  -16.8832 C   0  0  2  0  0  0  0  0  0  0  0  0
   23.1594   -9.3401  -17.6797 N   0  0  0  0  0  0  0  0  0  0  0  0
   21.6684   -7.4312  -17.3175 C   0  0  0  0  0  0  0  0  0  0  0  0
   21.6558   -7.0311  -18.5302 O   0  0  0  0  0  0  0  0  0  0  0  0
   22.9831   -6.2047  -14.4389 C   0  0  0  0  0  0  0  0  0  0  0  0
   22.5274   -5.1214  -13.7330 C   0  0  0  0  0  0  0  0  0  0  0  0
   16.9849   -5.1671  -17.7807 N   0  0  0  0  0  0  0  0  0  0  0  0
   17.0979   -6.5976  -17.6767 C   0  0  0  0  0  0  0  0  0  0  0  0
   16.0743   -7.2647  -17.9087 O   0  0  0  0  0  0  0  0  0  0  0  0
   18.3662   -7.1946  -17.3121 C   0  0  0  0  0  0  0  0  0  0  0  0
   19.4487   -6.2268  -17.0007 C   0  0  2  0  0  0  0  0  0  0  0  0
   20.5743   -7.0671  -16.5064 N   0  0  0  0  0  0  0  0  0  0  0  0
   19.1786   -5.1956  -16.0028 C   0  0  0  0  0  0  0  0  0  0  0  0
   19.2964   -5.4740  -14.7718 O   0  0  0  0  0  0  0  0  0  0  0  0
   18.7930   -3.8816  -16.2615 O   0  0  0  0  0  0  0  0  0  0  0  0
  2  1  1  1
  3  2  1  0
  3  4  1  0
  4  5  2  0
  5  6  1  0
  7  6  1  0
  8  4  1  0
  8  7  2  0
  9 18  1  0
  9  2  1  0
 10  9  2  0
 11 12  1  0
 12 13  2  0
 13 14  1  0
 15 16  1  0
 15 14  2  0
 17 16  1  6
 17 18  1  0
 19 17  1  0
 20 19  2  0
 21 15  1  0
 22 21  2  0
 22 12  1  0
 23 24  1  0
 24 25  2  0
 24 26  1  0
 27 26  1  1
 27 29  1  0
 27 28  1  0
 28 19  1  0
 29 31  1  0
 30 29  2  0
M  END
$$$$
