HYN.pdb
     RDKit          3D

 31 32  0  0  1  0  0  0  0  0999 V2000
   26.3288  -23.6988  -15.1226 N   0  0  0  0  0  0  0  0  0  0  0  0
   25.2837  -23.3492  -16.0455 C   0  0  1  0  0  0  0  0  0  0  0  0
   24.7542  -24.6244  -16.6717 C   0  0  0  0  0  0  0  0  0  0  0  0
   25.8494  -25.2424  -17.4727 C   0  0  0  0  0  0  0  0  0  0  0  0
   26.3754  -26.4950  -17.2226 C   0  0  0  0  0  0  0  0  0  0  0  0
   27.3286  -26.7022  -18.1405 N   0  0  0  0  0  0  0  0  0  0  0  0
   27.3919  -25.6152  -18.9333 C   0  0  0  0  0  0  0  0  0  0  0  0
   26.4790  -24.6985  -18.5320 N   0  0  0  0  0  0  0  0  0  0  0  0
   24.1971  -22.6233  -15.3549 C   0  0  0  0  0  0  0  0  0  0  0  0
   23.8298  -23.0485  -14.2376 O   0  0  0  0  0  0  0  0  0  0  0  0
   18.3664  -16.6032  -12.5963 O   0  0  0  0  0  0  0  0  0  0  0  0
   19.3465  -17.2658  -13.3601 C   0  0  0  0  0  0  0  0  0  0  0  0
   19.0980  -17.6322  -14.6603 C   0  0  0  0  0  0  0  0  0  0  0  0
   20.0646  -18.2914  -15.4227 C   0  0  0  0  0  0  0  0  0  0  0  0
   21.2900  -18.6015  -14.9230 C   0  0  0  0  0  0  0  0  0  0  0  0
   22.3750  -19.2901  -15.6621 C   0  0  0  0  0  0  0  0  0  0  0  0
   22.5049  -20.7466  -15.2718 C   0  0  2  0  0  0  0  0  0  0  0  0
   23.5497  -21.4700  -15.8928 N   0  0  0  0  0  0  0  0  0  0  0  0
   21.1995  -21.3804  -15.2100 C   0  0  0  0  0  0  0  0  0  0  0  0
   20.6765  -21.7662  -16.3093 O   0  0  0  0  0  0  0  0  0  0  0  0
   21.5214  -18.2171  -13.5917 C   0  0  0  0  0  0  0  0  0  0  0  0
   20.5807  -17.5694  -12.8334 C   0  0  0  0  0  0  0  0  0  0  0  0
   19.8973  -24.8041  -15.0014 N   0  0  0  0  0  0  0  0  0  0  0  0
   19.7763  -24.6412  -13.5770 C   0  0  0  0  0  0  0  0  0  0  0  0
   20.1018  -25.6090  -12.8669 O   0  0  0  0  0  0  0  0  0  0  0  0
   19.2894  -23.3895  -13.0347 C   0  0  0  0  0  0  0  0  0  0  0  0
   19.1402  -22.2927  -14.0246 C   0  0  2  0  0  0  0  0  0  0  0  0
   20.4624  -21.6078  -14.0299 N   0  0  0  0  0  0  0  0  0  0  0  0
   18.1086  -21.2880  -13.7825 C   0  0  0  0  0  0  0  0  0  0  0  0
   18.4139  -20.2136  -13.1834 O   0  0  0  0  0  0  0  0  0  0  0  0
   16.7688  -21.3785  -14.1553 O   0  0  0  0  0  0  0  0  0  0  0  0
  2  1  1  1
  3  2  1  0
  3  4  1  0
  4  5  2  0
  5  6  1  0
  7  6  1  0
  8  4  1  0
  8  7  2  0
  9 18  1  0
  9  2  1  0
 10  9  2  0
 11 12  1  0
 12 13  2  0
 13 14  1  0
 15 16  1  0
 15 14  2  0
 17 16  1  6
 17 18  1  0
 19 17  1  0
 20 19  2  0
 21 15  1  0
 22 21  2  0
 22 12  1  0
 23 24  1  0
 24 25  2  0
 24 26  1  0
 27 26  1  1
 27 29  1  0
 27 28  1  0
 28 19  1  0
 29 31  1  0
 30 29  2  0
M  END
$$$$
