HYN.pdb
     RDKit          3D

 31 32  0  0  1  0  0  0  0  0999 V2000
   30.8483  -27.5626  -17.4919 N   0  0  0  0  0  0  0  0  0  0  0  0
   30.3621  -26.3341  -16.9259 C   0  0  1  0  0  0  0  0  0  0  0  0
   31.2295  -25.1989  -17.4335 C   0  0  0  0  0  0  0  0  0  0  0  0
   32.5065  -25.2054  -16.6641 C   0  0  0  0  0  0  0  0  0  0  0  0
   32.8300  -26.1552  -15.7146 C   0  0  0  0  0  0  0  0  0  0  0  0
   34.0428  -25.8333  -15.2460 N   0  0  0  0  0  0  0  0  0  0  0  0
   34.4578  -24.7215  -15.8831 C   0  0  0  0  0  0  0  0  0  0  0  0
   33.5149  -24.3183  -16.7679 N   0  0  0  0  0  0  0  0  0  0  0  0
   28.9491  -26.1101  -17.2974 C   0  0  0  0  0  0  0  0  0  0  0  0
   28.6575  -26.1182  -18.5135 O   0  0  0  0  0  0  0  0  0  0  0  0
   25.6514  -31.7789  -18.4245 O   0  0  0  0  0  0  0  0  0  0  0  0
   25.6321  -30.5045  -17.8257 C   0  0  0  0  0  0  0  0  0  0  0  0
   26.4168  -30.2272  -16.7331 C   0  0  0  0  0  0  0  0  0  0  0  0
   26.4009  -28.9663  -16.1331 C   0  0  0  0  0  0  0  0  0  0  0  0
   25.6160  -27.9572  -16.5949 C   0  0  0  0  0  0  0  0  0  0  0  0
   25.5434  -26.5902  -16.0259 C   0  0  0  0  0  0  0  0  0  0  0  0
   26.5475  -25.6489  -16.6556 C   0  0  2  0  0  0  0  0  0  0  0  0
   27.9072  -25.8869  -16.3471 N   0  0  0  0  0  0  0  0  0  0  0  0
   26.0780  -24.2762  -16.5872 C   0  0  0  0  0  0  0  0  0  0  0  0
   26.4758  -23.5632  -15.6053 O   0  0  0  0  0  0  0  0  0  0  0  0
   24.8224  -28.2638  -17.7127 C   0  0  0  0  0  0  0  0  0  0  0  0
   24.8296  -29.4976  -18.3104 C   0  0  0  0  0  0  0  0  0  0  0  0
   23.5771  -19.9717  -20.0142 N   0  0  0  0  0  0  0  0  0  0  0  0
   24.5363  -20.3440  -19.0087 C   0  0  0  0  0  0  0  0  0  0  0  0
   25.0253  -19.4269  -18.3256 O   0  0  0  0  0  0  0  0  0  0  0  0
   24.8915  -21.7373  -18.8339 C   0  0  0  0  0  0  0  0  0  0  0  0
   24.8210  -22.2321  -17.4355 C   0  0  2  0  0  0  0  0  0  0  0  0
   25.2186  -23.6645  -17.5225 N   0  0  0  0  0  0  0  0  0  0  0  0
   23.5353  -22.1580  -16.7474 C   0  0  0  0  0  0  0  0  0  0  0  0
   22.7388  -23.1420  -16.8079 O   0  0  0  0  0  0  0  0  0  0  0  0
   23.0657  -21.0826  -15.9953 O   0  0  0  0  0  0  0  0  0  0  0  0
  2  1  1  6
  3  2  1  0
  3  4  1  0
  4  5  2  0
  5  6  1  0
  7  6  1  0
  8  4  1  0
  8  7  2  0
  9 18  1  0
  9  2  1  0
 10  9  2  0
 11 12  1  0
 12 13  2  0
 13 14  1  0
 15 16  1  0
 15 14  2  0
 17 16  1  1
 17 18  1  0
 19 17  1  0
 20 19  2  0
 21 15  1  0
 22 21  2  0
 22 12  1  0
 23 24  1  0
 24 25  2  0
 24 26  1  0
 27 26  1  6
 27 29  1  0
 27 28  1  0
 28 19  1  0
 29 31  1  0
 30 29  2  0
M  END
$$$$
