HYN.pdb
     RDKit          3D

 31 32  0  0  1  0  0  0  0  0999 V2000
   22.0393  -18.6740  -21.8841 N   0  0  0  0  0  0  0  0  0  0  0  0
   20.6350  -18.9426  -21.7359 C   0  0  1  0  0  0  0  0  0  0  0  0
   20.3155  -20.2298  -22.4706 C   0  0  0  0  0  0  0  0  0  0  0  0
   20.5288  -20.0020  -23.9286 C   0  0  0  0  0  0  0  0  0  0  0  0
   19.6808  -19.2572  -24.7250 C   0  0  0  0  0  0  0  0  0  0  0  0
   20.1963  -19.2785  -25.9611 N   0  0  0  0  0  0  0  0  0  0  0  0
   21.3259  -20.0115  -25.9326 C   0  0  0  0  0  0  0  0  0  0  0  0
   21.5472  -20.4684  -24.6769 N   0  0  0  0  0  0  0  0  0  0  0  0
   20.2726  -19.0597  -20.3078 C   0  0  0  0  0  0  0  0  0  0  0  0
   21.0493  -19.6918  -19.5589 O   0  0  0  0  0  0  0  0  0  0  0  0
   20.4648  -12.8691  -21.0016 O   0  0  0  0  0  0  0  0  0  0  0  0
   19.9855  -13.9217  -20.1983 C   0  0  0  0  0  0  0  0  0  0  0  0
   18.7065  -14.3986  -20.3509 C   0  0  0  0  0  0  0  0  0  0  0  0
   18.2241  -15.4406  -19.5563 C   0  0  0  0  0  0  0  0  0  0  0  0
   18.9877  -16.0320  -18.5999 C   0  0  0  0  0  0  0  0  0  0  0  0
   18.5601  -17.1459  -17.7200 C   0  0  0  0  0  0  0  0  0  0  0  0
   18.7476  -18.4996  -18.3705 C   0  0  2  0  0  0  0  0  0  0  0  0
   19.0904  -18.4923  -19.7427 N   0  0  0  0  0  0  0  0  0  0  0  0
   17.7080  -19.4214  -17.9473 C   0  0  0  0  0  0  0  0  0  0  0  0
   16.5870  -19.3690  -18.5566 O   0  0  0  0  0  0  0  0  0  0  0  0
   20.2917  -15.5280  -18.4619 C   0  0  0  0  0  0  0  0  0  0  0  0
   20.7766  -14.5058  -19.2361 C   0  0  0  0  0  0  0  0  0  0  0  0
   16.6411  -24.9020  -16.6580 N   0  0  0  0  0  0  0  0  0  0  0  0
   16.6457  -23.7120  -15.8493 C   0  0  0  0  0  0  0  0  0  0  0  0
   15.9024  -23.7024  -14.8523 O   0  0  0  0  0  0  0  0  0  0  0  0
   17.4916  -22.5953  -16.2171 C   0  0  0  0  0  0  0  0  0  0  0  0
   16.7661  -21.3522  -16.5824 C   0  0  2  0  0  0  0  0  0  0  0  0
   17.8385  -20.3748  -16.9170 N   0  0  0  0  0  0  0  0  0  0  0  0
   15.8964  -20.7470  -15.5777 C   0  0  0  0  0  0  0  0  0  0  0  0
   14.7252  -21.2024  -15.4118 O   0  0  0  0  0  0  0  0  0  0  0  0
   16.2236  -19.6815  -14.7410 O   0  0  0  0  0  0  0  0  0  0  0  0
  2  1  1  1
  3  2  1  0
  3  4  1  0
  4  5  2  0
  5  6  1  0
  7  6  1  0
  8  4  1  0
  8  7  2  0
  9 18  1  0
  9  2  1  0
 10  9  2  0
 11 12  1  0
 12 13  2  0
 13 14  1  0
 15 16  1  0
 15 14  2  0
 17 16  1  6
 17 18  1  0
 19 17  1  0
 20 19  2  0
 21 15  1  0
 22 21  2  0
 22 12  1  0
 23 24  1  0
 24 25  2  0
 24 26  1  0
 27 26  1  1
 27 29  1  0
 27 28  1  0
 28 19  1  0
 29 31  1  0
 30 29  2  0
M  END
$$$$
