HYN.pdb
     RDKit          3D

 31 32  0  0  1  0  0  0  0  0999 V2000
   23.6909  -31.1240    1.5473 N   0  0  0  0  0  0  0  0  0  0  0  0
   24.1065  -32.1394    0.6187 C   0  0  1  0  0  0  0  0  0  0  0  0
   23.4802  -31.8385   -0.7289 C   0  0  0  0  0  0  0  0  0  0  0  0
   22.0106  -32.0662   -0.6234 C   0  0  0  0  0  0  0  0  0  0  0  0
   21.0680  -31.0579   -0.6780 C   0  0  0  0  0  0  0  0  0  0  0  0
   19.8702  -31.6435   -0.5503 N   0  0  0  0  0  0  0  0  0  0  0  0
   20.0629  -32.9703   -0.4211 C   0  0  0  0  0  0  0  0  0  0  0  0
   21.3875  -33.2499   -0.4646 N   0  0  0  0  0  0  0  0  0  0  0  0
   25.5799  -32.1748    0.5069 C   0  0  0  0  0  0  0  0  0  0  0  0
   26.1585  -31.1447    0.0970 O   0  0  0  0  0  0  0  0  0  0  0  0
   26.0972  -32.1604    6.9783 O   0  0  0  0  0  0  0  0  0  0  0  0
   26.6728  -32.1944    5.6936 C   0  0  0  0  0  0  0  0  0  0  0  0
   26.3938  -31.2166    4.7703 C   0  0  0  0  0  0  0  0  0  0  0  0
   26.9595  -31.2454    3.4939 C   0  0  0  0  0  0  0  0  0  0  0  0
   27.8078  -32.2326    3.1024 C   0  0  0  0  0  0  0  0  0  0  0  0
   28.4581  -32.3361    1.7742 C   0  0  0  0  0  0  0  0  0  0  0  0
   27.7847  -33.3547    0.8799 C   0  0  2  0  0  0  0  0  0  0  0  0
   26.3713  -33.3154    0.8404 N   0  0  0  0  0  0  0  0  0  0  0  0
   28.4123  -34.6569    1.0210 C   0  0  0  0  0  0  0  0  0  0  0  0
   27.8378  -35.5120    1.7757 O   0  0  0  0  0  0  0  0  0  0  0  0
   28.0784  -33.2213    4.0630 C   0  0  0  0  0  0  0  0  0  0  0  0
   27.5295  -33.2037    5.3192 C   0  0  0  0  0  0  0  0  0  0  0  0
   32.6356  -38.2333   -1.6712 N   0  0  0  0  0  0  0  0  0  0  0  0
   31.7650  -37.9007   -0.5751 C   0  0  0  0  0  0  0  0  0  0  0  0
   31.6068  -38.7655    0.3047 O   0  0  0  0  0  0  0  0  0  0  0  0
   31.1181  -36.6054   -0.5374 C   0  0  0  0  0  0  0  0  0  0  0  0
   30.2618  -36.3661    0.6521 C   0  0  2  0  0  0  0  0  0  0  0  0
   29.6067  -35.0554    0.3869 N   0  0  0  0  0  0  0  0  0  0  0  0
   30.9098  -36.2946    1.9586 C   0  0  0  0  0  0  0  0  0  0  0  0
   31.4253  -35.2010    2.3392 O   0  0  0  0  0  0  0  0  0  0  0  0
   31.0275  -37.3367    2.8765 O   0  0  0  0  0  0  0  0  0  0  0  0
  2  1  1  1
  3  2  1  0
  3  4  1  0
  4  5  2  0
  5  6  1  0
  7  6  1  0
  8  4  1  0
  8  7  2  0
  9 18  1  0
  9  2  1  0
 10  9  2  0
 11 12  1  0
 12 13  2  0
 13 14  1  0
 15 16  1  0
 15 14  2  0
 17 16  1  1
 17 18  1  0
 19 17  1  0
 20 19  2  0
 21 15  1  0
 22 21  2  0
 22 12  1  0
 23 24  1  0
 24 25  2  0
 24 26  1  0
 27 26  1  6
 27 29  1  0
 27 28  1  0
 28 19  1  0
 29 31  1  0
 30 29  2  0
M  END
$$$$
