HYN.pdb
     RDKit          3D

 31 32  0  0  1  0  0  0  0  0999 V2000
   26.5346  -23.7851  -15.8470 N   0  0  0  0  0  0  0  0  0  0  0  0
   25.8253  -22.5365  -15.9086 C   0  0  1  0  0  0  0  0  0  0  0  0
   25.1047  -22.4625  -17.2406 C   0  0  0  0  0  0  0  0  0  0  0  0
   26.1201  -22.2465  -18.3107 C   0  0  0  0  0  0  0  0  0  0  0  0
   26.4465  -23.1896  -19.2658 C   0  0  0  0  0  0  0  0  0  0  0  0
   27.3862  -22.6387  -20.0452 N   0  0  0  0  0  0  0  0  0  0  0  0
   27.6343  -21.3957  -19.5894 C   0  0  0  0  0  0  0  0  0  0  0  0
   26.8557  -21.1362  -18.5119 N   0  0  0  0  0  0  0  0  0  0  0  0
   24.8614  -22.4269  -14.7934 C   0  0  0  0  0  0  0  0  0  0  0  0
   24.3675  -23.4839  -14.3434 O   0  0  0  0  0  0  0  0  0  0  0  0
   28.2046  -20.9748   -8.5425 O   0  0  0  0  0  0  0  0  0  0  0  0
   27.1538  -20.7098   -9.4417 C   0  0  0  0  0  0  0  0  0  0  0  0
   27.3447  -20.8107  -10.7981 C   0  0  0  0  0  0  0  0  0  0  0  0
   26.3077  -20.5473  -11.6955 C   0  0  0  0  0  0  0  0  0  0  0  0
   25.0672  -20.1814  -11.2776 C   0  0  0  0  0  0  0  0  0  0  0  0
   23.9099  -19.8920  -12.1578 C   0  0  0  0  0  0  0  0  0  0  0  0
   23.6010  -21.0358  -13.0996 C   0  0  2  0  0  0  0  0  0  0  0  0
   24.4679  -21.1859  -14.2072 N   0  0  0  0  0  0  0  0  0  0  0  0
   22.1735  -21.1214  -13.3533 C   0  0  0  0  0  0  0  0  0  0  0  0
   21.7360  -20.6260  -14.4459 O   0  0  0  0  0  0  0  0  0  0  0  0
   24.8954  -20.0847   -9.8867 C   0  0  0  0  0  0  0  0  0  0  0  0
   25.9056  -20.3410   -8.9959 C   0  0  0  0  0  0  0  0  0  0  0  0
   17.0331  -22.2376  -12.9624 N   0  0  0  0  0  0  0  0  0  0  0  0
   17.7756  -22.8983  -11.9222 C   0  0  0  0  0  0  0  0  0  0  0  0
   17.1556  -23.7092  -11.2117 O   0  0  0  0  0  0  0  0  0  0  0  0
   19.1818  -22.6014  -11.7421 C   0  0  0  0  0  0  0  0  0  0  0  0
   19.7647  -21.6864  -12.7561 C   0  0  2  0  0  0  0  0  0  0  0  0
   21.2294  -21.7125  -12.4890 N   0  0  0  0  0  0  0  0  0  0  0  0
   19.3266  -20.2935  -12.7532 C   0  0  0  0  0  0  0  0  0  0  0  0
   19.7482  -19.5098  -11.8507 O   0  0  0  0  0  0  0  0  0  0  0  0
   18.4630  -19.7010  -13.6728 O   0  0  0  0  0  0  0  0  0  0  0  0
  2  1  1  1
  3  2  1  0
  3  4  1  0
  4  5  2  0
  5  6  1  0
  7  6  1  0
  8  4  1  0
  8  7  2  0
  9 18  1  0
  9  2  1  0
 10  9  2  0
 11 12  1  0
 12 13  2  0
 13 14  1  0
 15 16  1  0
 15 14  2  0
 17 16  1  6
 17 18  1  0
 19 17  1  0
 20 19  2  0
 21 15  1  0
 22 21  2  0
 22 12  1  0
 23 24  1  0
 24 25  2  0
 24 26  1  0
 27 26  1  1
 27 29  1  0
 27 28  1  0
 28 19  1  0
 29 31  1  0
 30 29  2  0
M  END
$$$$
