HYN.pdb
     RDKit          3D

 31 32  0  0  1  0  0  0  0  0999 V2000
   28.1413  -22.5570  -18.5291 N   0  0  0  0  0  0  0  0  0  0  0  0
   27.7883  -21.2866  -17.9570 C   0  0  1  0  0  0  0  0  0  0  0  0
   26.9159  -20.5426  -18.9492 C   0  0  0  0  0  0  0  0  0  0  0  0
   27.7850  -20.0394  -20.0513 C   0  0  0  0  0  0  0  0  0  0  0  0
   28.1201  -18.7104  -20.2236 C   0  0  0  0  0  0  0  0  0  0  0  0
   28.9058  -18.6490  -21.3066 N   0  0  0  0  0  0  0  0  0  0  0  0
   29.0535  -19.8976  -21.7898 C   0  0  0  0  0  0  0  0  0  0  0  0
   28.3634  -20.7737  -21.0211 N   0  0  0  0  0  0  0  0  0  0  0  0
   27.0729  -21.4700  -16.6767 C   0  0  0  0  0  0  0  0  0  0  0  0
   26.2862  -22.4374  -16.5816 O   0  0  0  0  0  0  0  0  0  0  0  0
   24.2023  -20.9505   -8.3213 O   0  0  0  0  0  0  0  0  0  0  0  0
   24.8918  -20.6831   -9.5197 C   0  0  0  0  0  0  0  0  0  0  0  0
   24.4647  -19.6952  -10.3730 C   0  0  0  0  0  0  0  0  0  0  0  0
   25.1425  -19.4262  -11.5639 C   0  0  0  0  0  0  0  0  0  0  0  0
   26.2497  -20.1208  -11.9370 C   0  0  0  0  0  0  0  0  0  0  0  0
   27.0330  -19.8967  -13.1756 C   0  0  0  0  0  0  0  0  0  0  0  0
   26.4753  -20.6605  -14.3572 C   0  0  2  0  0  0  0  0  0  0  0  0
   27.2323  -20.6066  -15.5508 N   0  0  0  0  0  0  0  0  0  0  0  0
   25.0409  -20.4609  -14.4673 C   0  0  0  0  0  0  0  0  0  0  0  0
   24.6337  -19.4420  -15.1207 O   0  0  0  0  0  0  0  0  0  0  0  0
   26.6677  -21.1259  -11.0490 C   0  0  0  0  0  0  0  0  0  0  0  0
   26.0109  -21.3991   -9.8770 C   0  0  0  0  0  0  0  0  0  0  0  0
   20.0937  -22.1608  -16.2477 N   0  0  0  0  0  0  0  0  0  0  0  0
   20.6483  -22.3182  -14.9295 C   0  0  0  0  0  0  0  0  0  0  0  0
   19.8457  -22.4797  -13.9933 O   0  0  0  0  0  0  0  0  0  0  0  0
   22.0842  -22.2812  -14.7439 C   0  0  0  0  0  0  0  0  0  0  0  0
   22.5988  -21.0602  -14.0732 C   0  0  2  0  0  0  0  0  0  0  0  0
   24.0586  -21.3061  -13.9120 N   0  0  0  0  0  0  0  0  0  0  0  0
   22.0488  -20.7143  -12.7656 C   0  0  0  0  0  0  0  0  0  0  0  0
   22.5267  -21.2580  -11.7251 O   0  0  0  0  0  0  0  0  0  0  0  0
   21.0154  -19.8117  -12.5206 O   0  0  0  0  0  0  0  0  0  0  0  0
  2  1  1  6
  3  2  1  0
  3  4  1  0
  4  5  2  0
  5  6  1  0
  7  6  1  0
  8  4  1  0
  8  7  2  0
  9 18  1  0
  9  2  1  0
 10  9  2  0
 11 12  1  0
 12 13  2  0
 13 14  1  0
 15 16  1  0
 15 14  2  0
 17 16  1  1
 17 18  1  0
 19 17  1  0
 20 19  2  0
 21 15  1  0
 22 21  2  0
 22 12  1  0
 23 24  1  0
 24 25  2  0
 24 26  1  0
 27 26  1  1
 27 29  1  0
 27 28  1  0
 28 19  1  0
 29 31  1  0
 30 29  2  0
M  END
$$$$
