HYN.pdb
     RDKit          3D

 31 32  0  0  1  0  0  0  0  0999 V2000
   21.6992  -33.5542  -14.5328 N   0  0  0  0  0  0  0  0  0  0  0  0
   22.6977  -32.5792  -14.1889 C   0  0  1  0  0  0  0  0  0  0  0  0
   23.8237  -33.2863  -13.4601 C   0  0  0  0  0  0  0  0  0  0  0  0
   23.3332  -33.6769  -12.1074 C   0  0  0  0  0  0  0  0  0  0  0  0
   23.0756  -32.7775  -11.0911 C   0  0  0  0  0  0  0  0  0  0  0  0
   22.6555  -33.4942  -10.0404 N   0  0  0  0  0  0  0  0  0  0  0  0
   22.6524  -34.7942  -10.3928 C   0  0  0  0  0  0  0  0  0  0  0  0
   23.0708  -34.9252  -11.6745 N   0  0  0  0  0  0  0  0  0  0  0  0
   23.2100  -31.9053  -15.4005 C   0  0  0  0  0  0  0  0  0  0  0  0
   23.4671  -32.6146  -16.3978 O   0  0  0  0  0  0  0  0  0  0  0  0
   17.6374  -29.5259  -15.8669 O   0  0  0  0  0  0  0  0  0  0  0  0
   18.9783  -29.4388  -16.2884 C   0  0  0  0  0  0  0  0  0  0  0  0
   19.4436  -30.2136  -17.3227 C   0  0  0  0  0  0  0  0  0  0  0  0
   20.7724  -30.1338  -17.7443 C   0  0  0  0  0  0  0  0  0  0  0  0
   21.6660  -29.2931  -17.1593 C   0  0  0  0  0  0  0  0  0  0  0  0
   23.0885  -29.1388  -17.5474 C   0  0  0  0  0  0  0  0  0  0  0  0
   24.0285  -29.8233  -16.5786 C   0  0  2  0  0  0  0  0  0  0  0  0
   23.4247  -30.4966  -15.4911 N   0  0  0  0  0  0  0  0  0  0  0  0
   25.1721  -28.9767  -16.2875 C   0  0  0  0  0  0  0  0  0  0  0  0
   25.2250  -28.4295  -15.1348 O   0  0  0  0  0  0  0  0  0  0  0  0
   21.1678  -28.5109  -16.1041 C   0  0  0  0  0  0  0  0  0  0  0  0
   19.8654  -28.5801  -15.6814 C   0  0  0  0  0  0  0  0  0  0  0  0
   29.6919  -30.8233  -17.8762 N   0  0  0  0  0  0  0  0  0  0  0  0
   28.8487  -29.9806  -17.0708 C   0  0  0  0  0  0  0  0  0  0  0  0
   28.3943  -30.4710  -16.0221 O   0  0  0  0  0  0  0  0  0  0  0  0
   28.5639  -28.6269  -17.5001 C   0  0  0  0  0  0  0  0  0  0  0  0
   27.4537  -27.9590  -16.7743 C   0  0  2  0  0  0  0  0  0  0  0  0
   26.2339  -28.7124  -17.1766 N   0  0  0  0  0  0  0  0  0  0  0  0
   27.2198  -26.5417  -17.0360 C   0  0  0  0  0  0  0  0  0  0  0  0
   26.2694  -26.1981  -17.8010 O   0  0  0  0  0  0  0  0  0  0  0  0
   27.9525  -25.4771  -16.5142 O   0  0  0  0  0  0  0  0  0  0  0  0
  2  1  1  6
  3  2  1  0
  3  4  1  0
  4  5  2  0
  5  6  1  0
  7  6  1  0
  8  4  1  0
  8  7  2  0
  9 18  1  0
  9  2  1  0
 10  9  2  0
 11 12  1  0
 12 13  2  0
 13 14  1  0
 15 16  1  0
 15 14  2  0
 17 16  1  1
 17 18  1  0
 19 17  1  0
 20 19  2  0
 21 15  1  0
 22 21  2  0
 22 12  1  0
 23 24  1  0
 24 25  2  0
 24 26  1  0
 27 26  1  6
 27 29  1  0
 27 28  1  0
 28 19  1  0
 29 31  1  0
 30 29  2  0
M  END
$$$$
