HYN.pdb
     RDKit          3D

 31 32  0  0  1  0  0  0  0  0999 V2000
   30.3290  -28.1498  -18.4811 N   0  0  0  0  0  0  0  0  0  0  0  0
   31.3543  -28.9865  -19.0419 C   0  0  1  0  0  0  0  0  0  0  0  0
   32.4294  -28.0940  -19.6305 C   0  0  0  0  0  0  0  0  0  0  0  0
   32.0284  -27.7321  -21.0202 C   0  0  0  0  0  0  0  0  0  0  0  0
   31.8943  -26.4332  -21.4707 C   0  0  0  0  0  0  0  0  0  0  0  0
   31.5255  -26.5080  -22.7562 N   0  0  0  0  0  0  0  0  0  0  0  0
   31.4339  -27.8092  -23.0920 C   0  0  0  0  0  0  0  0  0  0  0  0
   31.7434  -28.5834  -22.0245 N   0  0  0  0  0  0  0  0  0  0  0  0
   31.9286  -29.8740  -18.0089 C   0  0  0  0  0  0  0  0  0  0  0  0
   32.0975  -29.4023  -16.8631 O   0  0  0  0  0  0  0  0  0  0  0  0
   26.5103  -31.8780  -15.8081 O   0  0  0  0  0  0  0  0  0  0  0  0
   27.8435  -32.2362  -16.0860 C   0  0  0  0  0  0  0  0  0  0  0  0
   28.7650  -32.3611  -15.0752 C   0  0  0  0  0  0  0  0  0  0  0  0
   30.0891  -32.7139  -15.3440 C   0  0  0  0  0  0  0  0  0  0  0  0
   30.5308  -32.9504  -16.6074 C   0  0  0  0  0  0  0  0  0  0  0  0
   31.9125  -33.3367  -16.9811 C   0  0  0  0  0  0  0  0  0  0  0  0
   32.7865  -32.1374  -17.2784 C   0  0  2  0  0  0  0  0  0  0  0  0
   32.2977  -31.2322  -18.2492 N   0  0  0  0  0  0  0  0  0  0  0  0
   34.1817  -32.5296  -17.3745 C   0  0  0  0  0  0  0  0  0  0  0  0
   34.6621  -32.7261  -18.5412 O   0  0  0  0  0  0  0  0  0  0  0  0
   29.5711  -32.8168  -17.6246 C   0  0  0  0  0  0  0  0  0  0  0  0
   28.2684  -32.4712  -17.3733 C   0  0  0  0  0  0  0  0  0  0  0  0
   38.8980  -30.5958  -14.6286 N   0  0  0  0  0  0  0  0  0  0  0  0
   38.2433  -31.3684  -15.6506 C   0  0  0  0  0  0  0  0  0  0  0  0
   38.6678  -31.2448  -16.8130 O   0  0  0  0  0  0  0  0  0  0  0  0
   37.1397  -32.2381  -15.2990 C   0  0  0  0  0  0  0  0  0  0  0  0
   36.5125  -32.9491  -16.4420 C   0  0  2  0  0  0  0  0  0  0  0  0
   35.0521  -32.7079  -16.2798 N   0  0  0  0  0  0  0  0  0  0  0  0
   36.7261  -34.3893  -16.5525 C   0  0  0  0  0  0  0  0  0  0  0  0
   35.8506  -35.1855  -16.0985 O   0  0  0  0  0  0  0  0  0  0  0  0
   37.8297  -35.0153  -17.1293 O   0  0  0  0  0  0  0  0  0  0  0  0
  2  1  1  1
  3  2  1  0
  3  4  1  0
  4  5  2  0
  5  6  1  0
  7  6  1  0
  8  4  1  0
  8  7  2  0
  9 18  1  0
  9  2  1  0
 10  9  2  0
 11 12  1  0
 12 13  2  0
 13 14  1  0
 15 16  1  0
 15 14  2  0
 17 16  1  6
 17 18  1  0
 19 17  1  0
 20 19  2  0
 21 15  1  0
 22 21  2  0
 22 12  1  0
 23 24  1  0
 24 25  2  0
 24 26  1  0
 27 26  1  1
 27 29  1  0
 27 28  1  0
 28 19  1  0
 29 31  1  0
 30 29  2  0
M  END
$$$$
