HYN.pdb
     RDKit          3D

 31 32  0  0  1  0  0  0  0  0999 V2000
   28.3750  -16.3285  -20.2075 N   0  0  0  0  0  0  0  0  0  0  0  0
   27.2866  -17.1482  -20.6649 C   0  0  1  0  0  0  0  0  0  0  0  0
   27.4716  -18.5441  -20.1025 C   0  0  0  0  0  0  0  0  0  0  0  0
   28.7101  -19.1266  -20.6939 C   0  0  0  0  0  0  0  0  0  0  0  0
   28.7148  -20.0256  -21.7427 C   0  0  0  0  0  0  0  0  0  0  0  0
   29.9977  -20.3179  -21.9931 N   0  0  0  0  0  0  0  0  0  0  0  0
   30.7632  -19.6237  -21.1291 C   0  0  0  0  0  0  0  0  0  0  0  0
   29.9785  -18.8782  -20.3147 N   0  0  0  0  0  0  0  0  0  0  0  0
   25.9900  -16.5852  -20.2327 C   0  0  0  0  0  0  0  0  0  0  0  0
   25.7793  -16.4824  -19.0043 O   0  0  0  0  0  0  0  0  0  0  0  0
   17.8522  -13.0703  -19.9366 O   0  0  0  0  0  0  0  0  0  0  0  0
   19.1058  -13.5173  -20.3968 C   0  0  0  0  0  0  0  0  0  0  0  0
   19.2224  -14.6982  -21.0884 C   0  0  0  0  0  0  0  0  0  0  0  0
   20.4626  -15.1484  -21.5458 C   0  0  0  0  0  0  0  0  0  0  0  0
   21.6079  -14.4481  -21.3330 C   0  0  0  0  0  0  0  0  0  0  0  0
   22.9611  -14.8465  -21.7891 C   0  0  0  0  0  0  0  0  0  0  0  0
   23.6814  -15.7083  -20.7746 C   0  0  2  0  0  0  0  0  0  0  0  0
   24.9732  -16.1554  -21.1381 N   0  0  0  0  0  0  0  0  0  0  0  0
   22.7760  -16.6847  -20.1947 C   0  0  0  0  0  0  0  0  0  0  0  0
   22.6893  -17.8236  -20.7658 O   0  0  0  0  0  0  0  0  0  0  0  0
   21.4643  -13.2439  -20.6239 C   0  0  0  0  0  0  0  0  0  0  0  0
   20.2523  -12.7914  -20.1701 C   0  0  0  0  0  0  0  0  0  0  0  0
   19.8090  -19.4800  -16.9546 N   0  0  0  0  0  0  0  0  0  0  0  0
   21.1600  -19.1316  -16.6031 C   0  0  0  0  0  0  0  0  0  0  0  0
   21.6723  -19.7431  -15.6490 O   0  0  0  0  0  0  0  0  0  0  0  0
   21.8564  -18.1056  -17.3516 C   0  0  0  0  0  0  0  0  0  0  0  0
   21.0898  -17.5253  -18.4834 C   0  0  2  0  0  0  0  0  0  0  0  0
   21.9852  -16.4769  -19.0462 N   0  0  0  0  0  0  0  0  0  0  0  0
   19.7978  -16.9110  -18.1913 C   0  0  0  0  0  0  0  0  0  0  0  0
   18.7332  -17.5558  -18.4308 O   0  0  0  0  0  0  0  0  0  0  0  0
   19.5934  -15.6424  -17.6517 O   0  0  0  0  0  0  0  0  0  0  0  0
  2  1  1  1
  3  2  1  0
  3  4  1  0
  4  5  2  0
  5  6  1  0
  7  6  1  0
  8  4  1  0
  8  7  2  0
  9 18  1  0
  9  2  1  0
 10  9  2  0
 11 12  1  0
 12 13  2  0
 13 14  1  0
 15 16  1  0
 15 14  2  0
 17 16  1  6
 17 18  1  0
 19 17  1  0
 20 19  2  0
 21 15  1  0
 22 21  2  0
 22 12  1  0
 23 24  1  0
 24 25  2  0
 24 26  1  0
 27 26  1  1
 27 29  1  0
 27 28  1  0
 28 19  1  0
 29 31  1  0
 30 29  2  0
M  END
$$$$
