EHF.pdb
     RDKit          3D

 31 32  0  0  1  0  0  0  0  0999 V2000
   27.8828  -34.9061   -5.2383 N   0  0  0  0  0  0  0  0  0  0  0  0
   28.3579  -35.2701   -3.9462 C   0  0  1  0  0  0  0  0  0  0  0  0
   29.7613  -34.7580   -3.7386 C   0  0  0  0  0  0  0  0  0  0  0  0
   30.7906  -35.8379   -3.7047 C   0  0  0  0  0  0  0  0  0  0  0  0
   31.3397  -36.1133   -2.3659 C   0  0  0  0  0  0  0  0  0  0  0  0
   31.0598  -35.4693   -1.3191 O   0  0  0  0  0  0  0  0  0  0  0  0
   27.5053  -34.7686   -2.8317 C   0  0  0  0  0  0  0  0  0  0  0  0
   26.9208  -33.6366   -2.8720 O   0  0  0  0  0  0  0  0  0  0  0  0
   32.2500  -37.1758   -2.2345 O   0  0  0  0  0  0  0  0  0  0  0  0
   27.3605  -35.6060   -1.7013 N   0  0  0  0  0  0  0  0  0  0  0  0
   26.4948  -35.2295   -0.5450 C   0  0  1  0  0  0  0  0  0  0  0  0
   25.5153  -36.3472   -0.3184 C   0  0  0  0  0  0  0  0  0  0  0  0
   24.6434  -36.1367    0.8476 C   0  0  0  0  0  0  0  0  0  0  0  0
   23.9901  -34.9559    1.2147 C   0  0  0  0  0  0  0  0  0  0  0  0
   23.3018  -35.1690    2.3296 N   0  0  0  0  0  0  0  0  0  0  0  0
   23.5101  -36.4536    2.6664 C   0  0  0  0  0  0  0  0  0  0  0  0
   24.3148  -37.0312    1.7760 N   0  0  0  0  0  0  0  0  0  0  0  0
   27.4129  -34.9256    0.5395 C   0  0  0  0  0  0  0  0  0  0  0  0
   28.4853  -35.6329    0.6852 O   0  0  0  0  0  0  0  0  0  0  0  0
   27.3097  -33.9089    1.5167 N   0  0  0  0  0  0  0  0  0  0  0  0
   28.3148  -33.6961    2.5626 C   0  0  1  0  0  0  0  0  0  0  0  0
   28.6702  -32.2378    2.6593 C   0  0  0  0  0  0  0  0  0  0  0  0
   27.4756  -31.4396    2.9355 C   0  0  0  0  0  0  0  0  0  0  0  0
   26.5671  -31.0641    1.9798 C   0  0  0  0  0  0  0  0  0  0  0  0
   25.4389  -30.3224    2.2601 C   0  0  0  0  0  0  0  0  0  0  0  0
   25.1879  -29.9241    3.5664 C   0  0  0  0  0  0  0  0  0  0  0  0
   26.0880  -30.2897    4.5464 C   0  0  0  0  0  0  0  0  0  0  0  0
   27.1993  -31.0252    4.2423 C   0  0  0  0  0  0  0  0  0  0  0  0
   27.7677  -34.1685    3.8338 C   0  0  0  0  0  0  0  0  0  0  0  0
   28.4534  -34.2276    5.0351 O   0  0  0  0  0  0  0  0  0  0  0  0
   26.5598  -34.5719    3.8940 O   0  0  0  0  0  0  0  0  0  0  0  0
  2  1  1  6
  3  2  1  0
  3  4  1  0
  4  5  1  0
  5  9  1  0
  6  5  2  0
  7  2  1  0
  8  7  2  0
 10  7  1  0
 11 10  1  0
 11 12  1  1
 12 13  1  0
 13 17  1  0
 14 13  2  0
 14 15  1  0
 15 16  1  0
 17 16  2  0
 18 19  2  0
 18 11  1  0
 20 18  1  0
 21 22  1  1
 21 20  1  0
 23 28  1  0
 23 22  1  0
 24 23  2  0
 25 26  2  0
 25 24  1  0
 26 27  1  0
 27 28  2  0
 29 21  1  0
 30 29  1  0
 31 29  2  0
M  END
$$$$
