EHF.pdb
     RDKit          3D

 31 32  0  0  1  0  0  0  0  0999 V2000
   27.5924  -19.8401  -15.5447 N   0  0  0  0  0  0  0  0  0  0  0  0
   27.9645  -18.9294  -14.5152 C   0  0  1  0  0  0  0  0  0  0  0  0
   27.8573  -17.5076  -15.0069 C   0  0  0  0  0  0  0  0  0  0  0  0
   28.9325  -17.1275  -15.9695 C   0  0  0  0  0  0  0  0  0  0  0  0
   28.5091  -17.1131  -17.3802 C   0  0  0  0  0  0  0  0  0  0  0  0
   27.3219  -17.2423  -17.7839 O   0  0  0  0  0  0  0  0  0  0  0  0
   27.1475  -19.0606  -13.2758 C   0  0  0  0  0  0  0  0  0  0  0  0
   27.2196  -18.2250  -12.3160 O   0  0  0  0  0  0  0  0  0  0  0  0
   29.4998  -16.9437  -18.3623 O   0  0  0  0  0  0  0  0  0  0  0  0
   26.2690  -20.1657  -13.1947 N   0  0  0  0  0  0  0  0  0  0  0  0
   25.2132  -20.2601  -12.1436 C   0  0  1  0  0  0  0  0  0  0  0  0
   24.1451  -21.1920  -12.6444 C   0  0  0  0  0  0  0  0  0  0  0  0
   22.9953  -21.3106  -11.7345 C   0  0  0  0  0  0  0  0  0  0  0  0
   22.8305  -20.6897  -10.4922 C   0  0  0  0  0  0  0  0  0  0  0  0
   21.6612  -21.0509   -9.9780 N   0  0  0  0  0  0  0  0  0  0  0  0
   21.0932  -21.8816  -10.8692 C   0  0  0  0  0  0  0  0  0  0  0  0
   21.8953  -22.0354  -11.9212 N   0  0  0  0  0  0  0  0  0  0  0  0
   25.9125  -20.6479  -10.9303 C   0  0  0  0  0  0  0  0  0  0  0  0
   26.8777  -21.5055  -10.9962 O   0  0  0  0  0  0  0  0  0  0  0  0
   25.6890  -20.1995   -9.6081 N   0  0  0  0  0  0  0  0  0  0  0  0
   26.5177  -20.6101   -8.4705 C   0  0  1  0  0  0  0  0  0  0  0  0
   27.3630  -19.4603   -7.9955 C   0  0  0  0  0  0  0  0  0  0  0  0
   27.9945  -19.7866   -6.7167 C   0  0  0  0  0  0  0  0  0  0  0  0
   29.1339  -20.5394   -6.5947 C   0  0  0  0  0  0  0  0  0  0  0  0
   29.7233  -20.8265   -5.3817 C   0  0  0  0  0  0  0  0  0  0  0  0
   29.1545  -20.3410   -4.2117 C   0  0  0  0  0  0  0  0  0  0  0  0
   28.0069  -19.5807   -4.3083 C   0  0  0  0  0  0  0  0  0  0  0  0
   27.4421  -19.3105   -5.5234 C   0  0  0  0  0  0  0  0  0  0  0  0
   25.6367  -21.0674   -7.3968 C   0  0  0  0  0  0  0  0  0  0  0  0
   25.9977  -21.9133   -6.3619 O   0  0  0  0  0  0  0  0  0  0  0  0
   24.4216  -20.6827   -7.3658 O   0  0  0  0  0  0  0  0  0  0  0  0
  2  1  1  6
  3  2  1  0
  3  4  1  0
  4  5  1  0
  5  9  1  0
  6  5  2  0
  7  2  1  0
  8  7  2  0
 10  7  1  0
 11 10  1  0
 11 12  1  6
 12 13  1  0
 13 17  1  0
 14 13  2  0
 14 15  1  0
 15 16  1  0
 17 16  2  0
 18 19  2  0
 18 11  1  0
 20 18  1  0
 21 22  1  1
 21 20  1  0
 23 28  1  0
 23 22  1  0
 24 23  2  0
 25 26  2  0
 25 24  1  0
 26 27  1  0
 27 28  2  0
 29 21  1  0
 30 29  1  0
 31 29  2  0
M  END
$$$$
