EHF.pdb
     RDKit          3D

 31 32  0  0  1  0  0  0  0  0999 V2000
   22.1144  -24.8383  -16.9627 N   0  0  0  0  0  0  0  0  0  0  0  0
   22.1530  -23.5913  -16.2762 C   0  0  1  0  0  0  0  0  0  0  0  0
   22.1739  -23.8128  -14.7844 C   0  0  0  0  0  0  0  0  0  0  0  0
   22.9746  -25.0019  -14.3699 C   0  0  0  0  0  0  0  0  0  0  0  0
   24.3317  -24.6854  -13.8925 C   0  0  0  0  0  0  0  0  0  0  0  0
   24.6132  -24.2352  -12.7493 O   0  0  0  0  0  0  0  0  0  0  0  0
   23.3223  -22.7428  -16.6415 C   0  0  0  0  0  0  0  0  0  0  0  0
   24.5002  -23.2147  -16.7625 O   0  0  0  0  0  0  0  0  0  0  0  0
   25.4051  -24.8975  -14.7744 O   0  0  0  0  0  0  0  0  0  0  0  0
   23.0804  -21.3660  -16.8550 N   0  0  0  0  0  0  0  0  0  0  0  0
   24.1433  -20.4457  -17.3566 C   0  0  1  0  0  0  0  0  0  0  0  0
   23.4864  -19.4154  -18.2325 C   0  0  0  0  0  0  0  0  0  0  0  0
   24.4327  -18.4549  -18.8206 C   0  0  0  0  0  0  0  0  0  0  0  0
   25.8144  -18.3919  -18.6135 C   0  0  0  0  0  0  0  0  0  0  0  0
   26.3136  -17.3837  -19.3180 N   0  0  0  0  0  0  0  0  0  0  0  0
   25.2770  -16.8167  -19.9592 C   0  0  0  0  0  0  0  0  0  0  0  0
   24.1507  -17.4611  -19.6590 N   0  0  0  0  0  0  0  0  0  0  0  0
   24.8263  -19.9636  -16.1681 C   0  0  0  0  0  0  0  0  0  0  0  0
   24.1345  -19.5289  -15.1663 O   0  0  0  0  0  0  0  0  0  0  0  0
   26.2172  -19.8983  -15.9221 N   0  0  0  0  0  0  0  0  0  0  0  0
   26.7893  -19.3449  -14.6908 C   0  0  1  0  0  0  0  0  0  0  0  0
   27.5443  -20.4071  -13.9398 C   0  0  0  0  0  0  0  0  0  0  0  0
   26.8290  -20.7719  -12.7167 C   0  0  0  0  0  0  0  0  0  0  0  0
   26.5664  -19.8982  -11.6931 C   0  0  0  0  0  0  0  0  0  0  0  0
   25.8790  -20.2559  -10.5525 C   0  0  0  0  0  0  0  0  0  0  0  0
   25.4197  -21.5585  -10.4096 C   0  0  0  0  0  0  0  0  0  0  0  0
   25.6718  -22.4566  -11.4264 C   0  0  0  0  0  0  0  0  0  0  0  0
   26.3559  -22.0769  -12.5472 C   0  0  0  0  0  0  0  0  0  0  0  0
   27.6848  -18.2458  -15.0494 C   0  0  0  0  0  0  0  0  0  0  0  0
   28.0635  -17.2085  -14.2144 O   0  0  0  0  0  0  0  0  0  0  0  0
   28.1867  -18.1924  -16.2201 O   0  0  0  0  0  0  0  0  0  0  0  0
  2  1  1  6
  3  2  1  0
  3  4  1  0
  4  5  1  0
  5  9  1  0
  6  5  2  0
  7  2  1  0
  8  7  2  0
 10  7  1  0
 11 10  1  0
 11 12  1  1
 12 13  1  0
 13 17  1  0
 14 13  2  0
 14 15  1  0
 15 16  1  0
 17 16  2  0
 18 19  2  0
 18 11  1  0
 20 18  1  0
 21 22  1  6
 21 20  1  0
 23 28  1  0
 23 22  1  0
 24 23  2  0
 25 26  2  0
 25 24  1  0
 26 27  1  0
 27 28  2  0
 29 21  1  0
 30 29  1  0
 31 29  2  0
M  END
$$$$
