EHF.pdb
     RDKit          3D

 31 32  0  0  1  0  0  0  0  0999 V2000
   17.2769  -11.1549  -18.8167 N   0  0  0  0  0  0  0  0  0  0  0  0
   17.6427   -9.7826  -18.9210 C   0  0  1  0  0  0  0  0  0  0  0  0
   16.5256   -8.9013  -18.4208 C   0  0  0  0  0  0  0  0  0  0  0  0
   15.5704   -8.4859  -19.4895 C   0  0  0  0  0  0  0  0  0  0  0  0
   15.6815   -7.0725  -19.8891 C   0  0  0  0  0  0  0  0  0  0  0  0
   16.5096   -6.2471  -19.4180 O   0  0  0  0  0  0  0  0  0  0  0  0
   18.8848   -9.4357  -18.1744 C   0  0  0  0  0  0  0  0  0  0  0  0
   19.1752   -9.9565  -17.0479 O   0  0  0  0  0  0  0  0  0  0  0  0
   14.7979   -6.5958  -20.8723 O   0  0  0  0  0  0  0  0  0  0  0  0
   19.7522   -8.4892  -18.7672 N   0  0  0  0  0  0  0  0  0  0  0  0
   21.0725   -8.1411  -18.1638 C   0  0  1  0  0  0  0  0  0  0  0  0
   22.0910   -8.1081  -19.2691 C   0  0  0  0  0  0  0  0  0  0  0  0
   22.6014   -9.4378  -19.6373 C   0  0  0  0  0  0  0  0  0  0  0  0
   22.3427  -10.6524  -18.9942 C   0  0  0  0  0  0  0  0  0  0  0  0
   22.9890  -11.6246  -19.6261 N   0  0  0  0  0  0  0  0  0  0  0  0
   23.6441  -11.0457  -20.6473 C   0  0  0  0  0  0  0  0  0  0  0  0
   23.4098   -9.7347  -20.6514 N   0  0  0  0  0  0  0  0  0  0  0  0
   20.8479   -6.9040  -17.4355 C   0  0  0  0  0  0  0  0  0  0  0  0
   20.0488   -6.0122  -17.9229 O   0  0  0  0  0  0  0  0  0  0  0  0
   21.3990   -6.5037  -16.1963 N   0  0  0  0  0  0  0  0  0  0  0  0
   21.0515   -5.2431  -15.5332 C   0  0  1  0  0  0  0  0  0  0  0  0
   20.0241   -5.4807  -14.4607 C   0  0  0  0  0  0  0  0  0  0  0  0
   20.4771   -6.5275  -13.5444 C   0  0  0  0  0  0  0  0  0  0  0  0
   21.2330   -6.2916  -12.4251 C   0  0  0  0  0  0  0  0  0  0  0  0
   21.6403   -7.2893  -11.5647 C   0  0  0  0  0  0  0  0  0  0  0  0
   21.2803   -8.6054  -11.8224 C   0  0  0  0  0  0  0  0  0  0  0  0
   20.5197   -8.8683  -12.9434 C   0  0  0  0  0  0  0  0  0  0  0  0
   20.1288   -7.8611  -13.7807 C   0  0  0  0  0  0  0  0  0  0  0  0
   22.2672   -4.6751  -14.9520 C   0  0  0  0  0  0  0  0  0  0  0  0
   22.3609   -3.4485  -14.3169 O   0  0  0  0  0  0  0  0  0  0  0  0
   23.3619   -5.3260  -15.0091 O   0  0  0  0  0  0  0  0  0  0  0  0
  2  1  1  1
  3  2  1  0
  3  4  1  0
  4  5  1  0
  5  9  1  0
  6  5  2  0
  7  2  1  0
  8  7  2  0
 10  7  1  0
 11 10  1  0
 11 12  1  6
 12 13  1  0
 13 17  1  0
 14 13  2  0
 14 15  1  0
 15 16  1  0
 17 16  2  0
 18 19  2  0
 18 11  1  0
 20 18  1  0
 21 22  1  1
 21 20  1  0
 23 28  1  0
 23 22  1  0
 24 23  2  0
 25 26  2  0
 25 24  1  0
 26 27  1  0
 27 28  2  0
 29 21  1  0
 30 29  1  0
 31 29  2  0
M  END
$$$$
