EHF.pdb
     RDKit          3D

 31 32  0  0  1  0  0  0  0  0999 V2000
   23.8850  -16.6335  -17.6430 N   0  0  0  0  0  0  0  0  0  0  0  0
   24.1343  -17.0978  -16.3201 C   0  0  1  0  0  0  0  0  0  0  0  0
   22.9204  -16.8847  -15.4507 C   0  0  0  0  0  0  0  0  0  0  0  0
   21.6385  -17.2634  -16.1142 C   0  0  0  0  0  0  0  0  0  0  0  0
   21.0998  -18.5692  -15.6967 C   0  0  0  0  0  0  0  0  0  0  0  0
   20.7810  -18.8804  -14.5175 O   0  0  0  0  0  0  0  0  0  0  0  0
   24.5136  -18.5374  -16.2525 C   0  0  0  0  0  0  0  0  0  0  0  0
   23.9723  -19.4240  -16.9912 O   0  0  0  0  0  0  0  0  0  0  0  0
   20.9244  -19.5541  -16.6836 O   0  0  0  0  0  0  0  0  0  0  0  0
   25.5157  -18.8988  -15.3226 N   0  0  0  0  0  0  0  0  0  0  0  0
   25.9907  -20.3069  -15.1805 C   0  0  1  0  0  0  0  0  0  0  0  0
   27.4940  -20.2888  -15.1765 C   0  0  0  0  0  0  0  0  0  0  0  0
   28.0789  -19.8112  -16.4390 C   0  0  0  0  0  0  0  0  0  0  0  0
   27.3981  -19.4637  -17.6101 C   0  0  0  0  0  0  0  0  0  0  0  0
   28.2788  -19.0847  -18.5282 N   0  0  0  0  0  0  0  0  0  0  0  0
   29.4918  -19.1875  -17.9580 C   0  0  0  0  0  0  0  0  0  0  0  0
   29.3688  -19.6233  -16.7055 N   0  0  0  0  0  0  0  0  0  0  0  0
   25.3331  -20.8158  -13.9889 C   0  0  0  0  0  0  0  0  0  0  0  0
   25.4409  -22.0680  -13.6858 O   0  0  0  0  0  0  0  0  0  0  0  0
   24.5497  -20.1068  -13.0492 N   0  0  0  0  0  0  0  0  0  0  0  0
   23.9104  -20.7439  -11.8939 C   0  0  1  0  0  0  0  0  0  0  0  0
   24.4773  -20.1962  -10.6128 C   0  0  0  0  0  0  0  0  0  0  0  0
   25.9057  -20.4985  -10.5178 C   0  0  0  0  0  0  0  0  0  0  0  0
   26.8617  -19.5798  -10.1683 C   0  0  0  0  0  0  0  0  0  0  0  0
   28.2028  -19.8853  -10.0707 C   0  0  0  0  0  0  0  0  0  0  0  0
   28.6316  -21.1795  -10.3341 C   0  0  0  0  0  0  0  0  0  0  0  0
   27.6881  -22.1222  -10.6881 C   0  0  0  0  0  0  0  0  0  0  0  0
   26.3643  -21.7937  -10.7780 C   0  0  0  0  0  0  0  0  0  0  0  0
   22.4723  -20.4877  -11.9606 C   0  0  0  0  0  0  0  0  0  0  0  0
   21.5301  -20.9341  -11.0496 O   0  0  0  0  0  0  0  0  0  0  0  0
   21.9943  -19.7991  -12.9212 O   0  0  0  0  0  0  0  0  0  0  0  0
  2  1  1  6
  3  2  1  0
  3  4  1  0
  4  5  1  0
  5  9  1  0
  6  5  2  0
  7  2  1  0
  8  7  2  0
 10  7  1  0
 11 10  1  0
 11 12  1  1
 12 13  1  0
 13 17  1  0
 14 13  2  0
 14 15  1  0
 15 16  1  0
 17 16  2  0
 18 19  2  0
 18 11  1  0
 20 18  1  0
 21 22  1  1
 21 20  1  0
 23 28  1  0
 23 22  1  0
 24 23  2  0
 25 26  2  0
 25 24  1  0
 26 27  1  0
 27 28  2  0
 29 21  1  0
 30 29  1  0
 31 29  2  0
M  END
$$$$
