EHF.pdb
     RDKit          3D

 31 32  0  0  1  0  0  0  0  0999 V2000
   20.0997  -14.3358  -21.1119 N   0  0  0  0  0  0  0  0  0  0  0  0
   19.9256  -13.3353  -20.1137 C   0  0  1  0  0  0  0  0  0  0  0  0
   19.3836  -13.9464  -18.8458 C   0  0  0  0  0  0  0  0  0  0  0  0
   18.0113  -14.5128  -18.9967 C   0  0  0  0  0  0  0  0  0  0  0  0
   17.4856  -15.1653  -17.7852 C   0  0  0  0  0  0  0  0  0  0  0  0
   17.0800  -14.5644  -16.7540 O   0  0  0  0  0  0  0  0  0  0  0  0
   21.1766  -12.5968  -19.7817 C   0  0  0  0  0  0  0  0  0  0  0  0
   22.3142  -13.1687  -19.7204 O   0  0  0  0  0  0  0  0  0  0  0  0
   17.4286  -16.5693  -17.7668 O   0  0  0  0  0  0  0  0  0  0  0  0
   21.0614  -11.2099  -19.5310 N   0  0  0  0  0  0  0  0  0  0  0  0
   22.2407  -10.3738  -19.1587 C   0  0  1  0  0  0  0  0  0  0  0  0
   22.5598   -9.4803  -20.3248 C   0  0  0  0  0  0  0  0  0  0  0  0
   23.6531   -8.5332  -20.0571 C   0  0  0  0  0  0  0  0  0  0  0  0
   25.0239   -8.7513  -20.2285 C   0  0  0  0  0  0  0  0  0  0  0  0
   25.6854   -7.6562  -19.8743 N   0  0  0  0  0  0  0  0  0  0  0  0
   24.7606   -6.7610  -19.4863 C   0  0  0  0  0  0  0  0  0  0  0  0
   23.5432   -7.2897  -19.5971 N   0  0  0  0  0  0  0  0  0  0  0  0
   21.8738   -9.7258  -17.9110 C   0  0  0  0  0  0  0  0  0  0  0  0
   20.6925   -9.2172  -17.7791 O   0  0  0  0  0  0  0  0  0  0  0  0
   22.6569   -9.5608  -16.7453 N   0  0  0  0  0  0  0  0  0  0  0  0
   22.1976   -8.8166  -15.5685 C   0  0  1  0  0  0  0  0  0  0  0  0
   22.8736   -9.3298  -14.3268 C   0  0  0  0  0  0  0  0  0  0  0  0
   24.1282   -9.9998  -14.6698 C   0  0  0  0  0  0  0  0  0  0  0  0
   25.2521   -9.3459  -15.1047 C   0  0  0  0  0  0  0  0  0  0  0  0
   26.4310   -9.9922  -15.4113 C   0  0  0  0  0  0  0  0  0  0  0  0
   26.5093  -11.3725  -15.2813 C   0  0  0  0  0  0  0  0  0  0  0  0
   25.3910  -12.0534  -14.8454 C   0  0  0  0  0  0  0  0  0  0  0  0
   24.2340  -11.3890  -14.5482 C   0  0  0  0  0  0  0  0  0  0  0  0
   22.5084   -7.4013  -15.7653 C   0  0  0  0  0  0  0  0  0  0  0  0
   22.0306   -6.3555  -14.9939 O   0  0  0  0  0  0  0  0  0  0  0  0
   23.2811   -7.0474  -16.7156 O   0  0  0  0  0  0  0  0  0  0  0  0
  2  1  1  6
  3  2  1  0
  3  4  1  0
  4  5  1  0
  5  9  1  0
  6  5  2  0
  7  2  1  0
  8  7  2  0
 10  7  1  0
 11 10  1  0
 11 12  1  6
 12 13  1  0
 13 17  1  0
 14 13  2  0
 14 15  1  0
 15 16  1  0
 17 16  2  0
 18 19  2  0
 18 11  1  0
 20 18  1  0
 21 22  1  1
 21 20  1  0
 23 28  1  0
 23 22  1  0
 24 23  2  0
 25 26  2  0
 25 24  1  0
 26 27  1  0
 27 28  2  0
 29 21  1  0
 30 29  1  0
 31 29  2  0
M  END
$$$$
