EHF.pdb
     RDKit          3D

 31 32  0  0  1  0  0  0  0  0999 V2000
   16.2819  -19.6567    2.4344 N   0  0  0  0  0  0  0  0  0  0  0  0
   16.2328  -19.1600    3.7681 C   0  0  1  0  0  0  0  0  0  0  0  0
   16.3670  -20.2918    4.7559 C   0  0  0  0  0  0  0  0  0  0  0  0
   15.0602  -20.7720    5.2929 C   0  0  0  0  0  0  0  0  0  0  0  0
   14.6320  -20.1078    6.5360 C   0  0  0  0  0  0  0  0  0  0  0  0
   15.2728  -20.1149    7.6215 O   0  0  0  0  0  0  0  0  0  0  0  0
   17.2837  -18.1471    4.0687 C   0  0  0  0  0  0  0  0  0  0  0  0
   18.4887  -18.2715    3.6722 O   0  0  0  0  0  0  0  0  0  0  0  0
   13.4129  -19.4089    6.5218 O   0  0  0  0  0  0  0  0  0  0  0  0
   16.8949  -17.0171    4.8249 N   0  0  0  0  0  0  0  0  0  0  0  0
   17.8656  -15.9483    5.2041 C   0  0  1  0  0  0  0  0  0  0  0  0
   17.0804  -14.7169    5.5609 C   0  0  0  0  0  0  0  0  0  0  0  0
   17.9238  -13.5574    5.8896 C   0  0  0  0  0  0  0  0  0  0  0  0
   19.3141  -13.4609    5.7735 C   0  0  0  0  0  0  0  0  0  0  0  0
   19.7006  -12.2553    6.1725 N   0  0  0  0  0  0  0  0  0  0  0  0
   18.5853  -11.5979    6.5345 C   0  0  0  0  0  0  0  0  0  0  0  0
   17.5217  -12.3811    6.3638 N   0  0  0  0  0  0  0  0  0  0  0  0
   18.6905  -16.5314    6.2485 C   0  0  0  0  0  0  0  0  0  0  0  0
   18.2737  -17.5792    6.8809 O   0  0  0  0  0  0  0  0  0  0  0  0
   19.9599  -16.1057    6.7034 N   0  0  0  0  0  0  0  0  0  0  0  0
   20.6830  -16.7637    7.7959 C   0  0  1  0  0  0  0  0  0  0  0  0
   21.9615  -17.3713    7.2874 C   0  0  0  0  0  0  0  0  0  0  0  0
   22.7356  -17.9308    8.3957 C   0  0  0  0  0  0  0  0  0  0  0  0
   23.7740  -17.2799    9.0105 C   0  0  0  0  0  0  0  0  0  0  0  0
   24.4848  -17.8169   10.0630 C   0  0  0  0  0  0  0  0  0  0  0  0
   24.1520  -19.0769   10.5423 C   0  0  0  0  0  0  0  0  0  0  0  0
   23.1104  -19.7523    9.9397 C   0  0  0  0  0  0  0  0  0  0  0  0
   22.4215  -19.1978    8.8974 C   0  0  0  0  0  0  0  0  0  0  0  0
   20.9716  -15.7673    8.8266 C   0  0  0  0  0  0  0  0  0  0  0  0
   20.9621  -15.9933   10.1925 O   0  0  0  0  0  0  0  0  0  0  0  0
   21.2624  -14.5724    8.4903 O   0  0  0  0  0  0  0  0  0  0  0  0
  2  1  1  6
  3  2  1  0
  3  4  1  0
  4  5  1  0
  5  9  1  0
  6  5  2  0
  7  2  1  0
  8  7  2  0
 10  7  1  0
 11 10  1  0
 11 12  1  1
 12 13  1  0
 13 17  1  0
 14 13  2  0
 14 15  1  0
 15 16  1  0
 17 16  2  0
 18 19  2  0
 18 11  1  0
 20 18  1  0
 21 22  1  6
 21 20  1  0
 23 28  1  0
 23 22  1  0
 24 23  2  0
 25 26  2  0
 25 24  1  0
 26 27  1  0
 27 28  2  0
 29 21  1  0
 30 29  1  0
 31 29  2  0
M  END
$$$$
