EHF.pdb
     RDKit          3D

 31 32  0  0  1  0  0  0  0  0999 V2000
   26.5688  -19.4606  -18.8729 N   0  0  0  0  0  0  0  0  0  0  0  0
   26.5214  -19.9574  -17.5392 C   0  0  1  0  0  0  0  0  0  0  0  0
   27.8067  -19.6435  -16.8152 C   0  0  0  0  0  0  0  0  0  0  0  0
   28.8483  -20.7016  -16.9644 C   0  0  0  0  0  0  0  0  0  0  0  0
   29.3642  -20.8588  -18.3351 C   0  0  0  0  0  0  0  0  0  0  0  0
   30.0759  -20.0158  -18.9447 O   0  0  0  0  0  0  0  0  0  0  0  0
   25.3871  -19.4160  -16.7386 C   0  0  0  0  0  0  0  0  0  0  0  0
   25.1903  -18.1657  -16.5875 O   0  0  0  0  0  0  0  0  0  0  0  0
   29.0420  -22.0384  -19.0276 O   0  0  0  0  0  0  0  0  0  0  0  0
   24.5148  -20.3529  -16.1376 N   0  0  0  0  0  0  0  0  0  0  0  0
   23.3921  -19.9301  -15.2493 C   0  0  1  0  0  0  0  0  0  0  0  0
   22.1039  -20.3439  -15.9046 C   0  0  0  0  0  0  0  0  0  0  0  0
   21.6125  -19.3758  -16.8972 C   0  0  0  0  0  0  0  0  0  0  0  0
   21.8047  -17.9906  -16.8968 C   0  0  0  0  0  0  0  0  0  0  0  0
   21.2033  -17.4684  -17.9589 N   0  0  0  0  0  0  0  0  0  0  0  0
   20.6411  -18.4943  -18.6212 C   0  0  0  0  0  0  0  0  0  0  0  0
   20.8881  -19.6364  -17.9823 N   0  0  0  0  0  0  0  0  0  0  0  0
   23.6894  -20.5115  -13.9512 C   0  0  0  0  0  0  0  0  0  0  0  0
   23.9229  -21.7796  -13.8580 O   0  0  0  0  0  0  0  0  0  0  0  0
   23.7730  -19.8619  -12.6980 N   0  0  0  0  0  0  0  0  0  0  0  0
   23.9197  -20.5817  -11.4292 C   0  0  1  0  0  0  0  0  0  0  0  0
   25.1613  -20.1297  -10.7105 C   0  0  0  0  0  0  0  0  0  0  0  0
   26.3446  -20.3731  -11.5358 C   0  0  0  0  0  0  0  0  0  0  0  0
   26.7834  -19.5211  -12.5164 C   0  0  0  0  0  0  0  0  0  0  0  0
   27.9089  -19.7598  -13.2763 C   0  0  0  0  0  0  0  0  0  0  0  0
   28.6517  -20.9124  -13.0572 C   0  0  0  0  0  0  0  0  0  0  0  0
   28.2301  -21.7860  -12.0757 C   0  0  0  0  0  0  0  0  0  0  0  0
   27.1103  -21.5261  -11.3361 C   0  0  0  0  0  0  0  0  0  0  0  0
   22.7375  -20.3206  -10.6091 C   0  0  0  0  0  0  0  0  0  0  0  0
   22.4269  -20.9524   -9.4170 O   0  0  0  0  0  0  0  0  0  0  0  0
   21.8885  -19.4450  -10.9804 O   0  0  0  0  0  0  0  0  0  0  0  0
  2  1  1  6
  3  2  1  0
  3  4  1  0
  4  5  1  0
  5  9  1  0
  6  5  2  0
  7  2  1  0
  8  7  2  0
 10  7  1  0
 11 10  1  0
 11 12  1  6
 12 13  1  0
 13 17  1  0
 14 13  2  0
 14 15  1  0
 15 16  1  0
 17 16  2  0
 18 19  2  0
 18 11  1  0
 20 18  1  0
 21 22  1  1
 21 20  1  0
 23 28  1  0
 23 22  1  0
 24 23  2  0
 25 26  2  0
 25 24  1  0
 26 27  1  0
 27 28  2  0
 29 21  1  0
 30 29  1  0
 31 29  2  0
M  END
$$$$
