GYI.pdb
     RDKit          3D

 25 25  0  0  1  0  0  0  0  0999 V2000
    7.1433  -21.8265   27.4270 N   0  0  0  0  0  0  0  0  0  0  0  0
    6.9554  -21.0252   26.2395 C   0  0  0  0  0  0  0  0  0  0  0  0
    7.1457  -19.5925   26.5493 C   0  0  0  0  0  0  0  0  0  0  0  0
    6.3235  -19.0052   27.2965 O   0  0  0  0  0  0  0  0  0  0  0  0
   11.3534  -14.7975   31.5868 O   0  0  0  0  0  0  0  0  0  0  0  0
   11.0031  -15.4024   30.3866 C   0  0  0  0  0  0  0  0  0  0  0  0
   10.9536  -16.7744   30.2644 C   0  0  0  0  0  0  0  0  0  0  0  0
   10.6115  -17.4184   29.0944 C   0  0  0  0  0  0  0  0  0  0  0  0
   10.2940  -16.6985   27.9618 C   0  0  0  0  0  0  0  0  0  0  0  0
    9.9104  -17.3181   26.7032 C   0  0  0  0  0  0  0  0  0  0  0  0
    8.4448  -17.4854   26.4263 C   0  0  2  0  0  0  0  0  0  0  0  0
    8.2493  -18.9058   26.0005 N   0  0  0  0  0  0  0  0  0  0  0  0
    7.9588  -16.6010   25.3548 C   0  0  0  0  0  0  0  0  0  0  0  0
    7.7416  -17.1778   24.2219 O   0  0  0  0  0  0  0  0  0  0  0  0
   10.3466  -15.3017   28.0927 C   0  0  0  0  0  0  0  0  0  0  0  0
   10.6885  -14.6702   29.2616 C   0  0  0  0  0  0  0  0  0  0  0  0
    5.9245  -11.6045   26.2760 C   0  0  0  0  0  0  0  0  0  0  0  0
    5.8336  -12.8623   25.4741 C   0  0  0  0  0  0  0  0  0  0  0  0
    7.0268  -13.0435   24.5572 C   0  0  2  0  0  0  0  0  0  0  0  0
    6.8171  -12.3710   23.2238 C   0  0  0  0  0  0  0  0  0  0  0  0
    7.2565  -14.5265   24.2606 C   0  0  2  0  0  0  0  0  0  0  0  0
    7.7074  -15.2081   25.4599 N   0  0  0  0  0  0  0  0  0  0  0  0
    8.3336  -14.5619   23.2529 C   0  0  0  0  0  0  0  0  0  0  0  0
    9.5227  -14.6566   23.6394 O   0  0  0  0  0  0  0  0  0  0  0  0
    8.0496  -14.4922   21.8758 O   0  0  0  0  0  0  0  0  0  0  0  0
  2  3  1  0
  2  1  1  0
  3  4  2  0
  6  7  2  0
  6  5  1  0
  8  7  1  0
  9  8  2  0
 10  9  1  0
 11 10  1  6
 12 11  1  0
 12  3  1  0
 13 22  1  0
 13 11  1  0
 14 13  2  0
 15  9  1  0
 15 16  2  0
 16  6  1  0
 18 17  1  0
 19 20  1  6
 19 18  1  0
 21 19  1  0
 21 22  1  1
 23 25  1  0
 23 21  1  0
 24 23  2  0
M  END
$$$$
