GYI.pdb
     RDKit          3D

 25 25  0  0  1  0  0  0  0  0999 V2000
    6.8246  -16.8836   18.9295 N   0  0  0  0  0  0  0  0  0  0  0  0
    7.9744  -17.0262   19.7928 C   0  0  0  0  0  0  0  0  0  0  0  0
    7.5513  -17.0930   21.2075 C   0  0  0  0  0  0  0  0  0  0  0  0
    6.3967  -16.7142   21.5278 O   0  0  0  0  0  0  0  0  0  0  0  0
    8.2015  -19.0696   29.9282 O   0  0  0  0  0  0  0  0  0  0  0  0
    8.2925  -18.9984   28.5441 C   0  0  0  0  0  0  0  0  0  0  0  0
    7.1921  -19.2137   27.7425 C   0  0  0  0  0  0  0  0  0  0  0  0
    7.2348  -19.1534   26.3659 C   0  0  0  0  0  0  0  0  0  0  0  0
    8.4137  -18.8665   25.7103 C   0  0  0  0  0  0  0  0  0  0  0  0
    8.5201  -18.7733   24.2629 C   0  0  0  0  0  0  0  0  0  0  0  0
    8.0083  -17.5252   23.6047 C   0  0  2  0  0  0  0  0  0  0  0  0
    8.4518  -17.5816   22.1774 N   0  0  0  0  0  0  0  0  0  0  0  0
    8.5393  -16.2957   24.2151 C   0  0  0  0  0  0  0  0  0  0  0  0
    9.8022  -16.0978   24.0437 O   0  0  0  0  0  0  0  0  0  0  0  0
    9.5307  -18.6486   26.5323 C   0  0  0  0  0  0  0  0  0  0  0  0
    9.4780  -18.7110   27.9016 C   0  0  0  0  0  0  0  0  0  0  0  0
    5.5213  -12.0583   26.5521 C   0  0  0  0  0  0  0  0  0  0  0  0
    6.4025  -13.2538   26.3863 C   0  0  0  0  0  0  0  0  0  0  0  0
    7.6029  -12.9622   25.5079 C   0  0  2  0  0  0  0  0  0  0  0  0
    7.1982  -12.6601   24.0869 C   0  0  0  0  0  0  0  0  0  0  0  0
    8.5294  -14.1777   25.4431 C   0  0  2  0  0  0  0  0  0  0  0  0
    7.8005  -15.3311   24.9488 N   0  0  0  0  0  0  0  0  0  0  0  0
    8.9420  -14.4301   26.8370 C   0  0  0  0  0  0  0  0  0  0  0  0
    9.7226  -13.6222   27.3941 O   0  0  0  0  0  0  0  0  0  0  0  0
    8.4765  -15.5540   27.5456 O   0  0  0  0  0  0  0  0  0  0  0  0
  2  3  1  0
  2  1  1  0
  3  4  2  0
  6  7  2  0
  6  5  1  0
  8  7  1  0
  9  8  2  0
 10  9  1  0
 11 10  1  1
 12 11  1  0
 12  3  1  0
 13 22  1  0
 13 11  1  0
 14 13  2  0
 15  9  1  0
 15 16  2  0
 16  6  1  0
 18 17  1  0
 19 20  1  6
 19 18  1  0
 21 19  1  0
 21 22  1  1
 23 25  1  0
 23 21  1  0
 24 23  2  0
M  END
$$$$
