GYI.pdb
     RDKit          3D

 25 25  0  0  1  0  0  0  0  0999 V2000
    6.4413  -20.6406   25.8046 N   0  0  0  0  0  0  0  0  0  0  0  0
    5.9092  -19.3005   25.7128 C   0  0  0  0  0  0  0  0  0  0  0  0
    6.7843  -18.4551   24.8736 C   0  0  0  0  0  0  0  0  0  0  0  0
    7.9003  -18.8965   24.5008 O   0  0  0  0  0  0  0  0  0  0  0  0
    8.9694  -12.7418   18.5086 O   0  0  0  0  0  0  0  0  0  0  0  0
    8.3445  -13.3973   19.5616 C   0  0  0  0  0  0  0  0  0  0  0  0
    8.2763  -14.7731   19.6086 C   0  0  0  0  0  0  0  0  0  0  0  0
    7.6669  -15.4663   20.6326 C   0  0  0  0  0  0  0  0  0  0  0  0
    7.0820  -14.7955   21.6861 C   0  0  0  0  0  0  0  0  0  0  0  0
    6.4381  -15.4689   22.8028 C   0  0  0  0  0  0  0  0  0  0  0  0
    7.2897  -16.3468   23.6728 C   0  0  2  0  0  0  0  0  0  0  0  0
    6.3523  -17.1640   24.5037 N   0  0  0  0  0  0  0  0  0  0  0  0
    8.1714  -15.5829   24.5703 C   0  0  0  0  0  0  0  0  0  0  0  0
    7.6829  -14.4717   25.0062 O   0  0  0  0  0  0  0  0  0  0  0  0
    7.1545  -13.3945   21.6321 C   0  0  0  0  0  0  0  0  0  0  0  0
    7.7631  -12.7138   20.6083 C   0  0  0  0  0  0  0  0  0  0  0  0
    9.2890  -14.9095   29.1265 C   0  0  0  0  0  0  0  0  0  0  0  0
    9.6132  -15.4350   27.7656 C   0  0  0  0  0  0  0  0  0  0  0  0
    9.8562  -14.3220   26.7657 C   0  0  2  0  0  0  0  0  0  0  0  0
    8.5917  -13.5618   26.4540 C   0  0  0  0  0  0  0  0  0  0  0  0
   10.3546  -14.8928   25.4368 C   0  0  2  0  0  0  0  0  0  0  0  0
    9.4737  -15.9570   24.9926 N   0  0  0  0  0  0  0  0  0  0  0  0
   11.6853  -15.4596   25.7288 C   0  0  0  0  0  0  0  0  0  0  0  0
   11.8227  -16.7058   25.7475 O   0  0  0  0  0  0  0  0  0  0  0  0
   12.7937  -14.6301   25.9842 O   0  0  0  0  0  0  0  0  0  0  0  0
  2  3  1  0
  2  1  1  0
  3  4  2  0
  6  7  2  0
  6  5  1  0
  8  7  1  0
  9  8  2  0
 10  9  1  0
 11 10  1  1
 12 11  1  0
 12  3  1  0
 13 22  1  0
 13 11  1  0
 14 13  2  0
 15  9  1  0
 15 16  2  0
 16  6  1  0
 18 17  1  0
 19 20  1  6
 19 18  1  0
 21 19  1  0
 21 22  1  1
 23 25  1  0
 23 21  1  0
 24 23  2  0
M  END
$$$$
