GYI.pdb
     RDKit          3D

 25 25  0  0  1  0  0  0  0  0999 V2000
    8.8024  -20.5760   25.9326 N   0  0  0  0  0  0  0  0  0  0  0  0
    9.1950  -19.4926   25.0610 C   0  0  0  0  0  0  0  0  0  0  0  0
    8.2959  -18.3335   25.2428 C   0  0  0  0  0  0  0  0  0  0  0  0
    7.0709  -18.5253   25.4470 O   0  0  0  0  0  0  0  0  0  0  0  0
   11.0088  -15.0686   30.7710 O   0  0  0  0  0  0  0  0  0  0  0  0
   10.4076  -14.9628   29.5234 C   0  0  0  0  0  0  0  0  0  0  0  0
   10.5582  -15.9473   28.5706 C   0  0  0  0  0  0  0  0  0  0  0  0
    9.9809  -15.8853   27.3202 C   0  0  0  0  0  0  0  0  0  0  0  0
    9.2043  -14.8053   26.9564 C   0  0  0  0  0  0  0  0  0  0  0  0
    8.5561  -14.6886   25.6597 C   0  0  0  0  0  0  0  0  0  0  0  0
    7.8498  -15.8986   25.1216 C   0  0  2  0  0  0  0  0  0  0  0  0
    8.8281  -17.0282   25.1842 N   0  0  0  0  0  0  0  0  0  0  0  0
    7.4096  -15.7331   23.7269 C   0  0  0  0  0  0  0  0  0  0  0  0
    6.2752  -15.1384   23.5752 O   0  0  0  0  0  0  0  0  0  0  0  0
    9.0550  -13.8061   27.9311 C   0  0  0  0  0  0  0  0  0  0  0  0
    9.6339  -13.8768   29.1727 C   0  0  0  0  0  0  0  0  0  0  0  0
    7.8151  -12.1747   19.6581 C   0  0  0  0  0  0  0  0  0  0  0  0
    7.5102  -13.6289   19.8184 C   0  0  0  0  0  0  0  0  0  0  0  0
    7.8941  -14.1459   21.1906 C   0  0  2  0  0  0  0  0  0  0  0  0
    9.3620  -13.9488   21.4740 C   0  0  0  0  0  0  0  0  0  0  0  0
    7.6339  -15.6500   21.2903 C   0  0  2  0  0  0  0  0  0  0  0  0
    8.1102  -16.1522   22.5659 N   0  0  0  0  0  0  0  0  0  0  0  0
    8.4295  -16.2576   20.2063 C   0  0  0  0  0  0  0  0  0  0  0  0
    9.5076  -16.8300   20.4931 O   0  0  0  0  0  0  0  0  0  0  0  0
    8.0003  -16.2055   18.8665 O   0  0  0  0  0  0  0  0  0  0  0  0
  2  3  1  0
  2  1  1  0
  3  4  2  0
  6  7  2  0
  6  5  1  0
  8  7  1  0
  9  8  2  0
 10  9  1  0
 11 10  1  6
 12 11  1  0
 12  3  1  0
 13 22  1  0
 13 11  1  0
 14 13  2  0
 15  9  1  0
 15 16  2  0
 16  6  1  0
 18 17  1  0
 19 20  1  6
 19 18  1  0
 21 19  1  0
 21 22  1  1
 23 25  1  0
 23 21  1  0
 24 23  2  0
M  END
$$$$
