GYI.pdb
     RDKit          3D

 25 25  0  0  1  0  0  0  0  0999 V2000
    4.8878  -20.7752   22.0934 N   0  0  0  0  0  0  0  0  0  0  0  0
    5.5937  -19.5208   21.9685 C   0  0  0  0  0  0  0  0  0  0  0  0
    5.6701  -18.8400   23.2783 C   0  0  0  0  0  0  0  0  0  0  0  0
    4.6203  -18.3992   23.8100 O   0  0  0  0  0  0  0  0  0  0  0  0
    6.0015  -23.6740   28.1723 O   0  0  0  0  0  0  0  0  0  0  0  0
    6.4555  -22.4562   27.6825 C   0  0  0  0  0  0  0  0  0  0  0  0
    7.2177  -22.3852   26.5363 C   0  0  0  0  0  0  0  0  0  0  0  0
    7.6899  -21.2002   26.0134 C   0  0  0  0  0  0  0  0  0  0  0  0
    7.4127  -19.9985   26.6307 C   0  0  0  0  0  0  0  0  0  0  0  0
    7.8681  -18.7150   26.1207 C   0  0  0  0  0  0  0  0  0  0  0  0
    6.9438  -17.9576   25.2126 C   0  0  2  0  0  0  0  0  0  0  0  0
    6.9224  -18.6955   23.9118 N   0  0  0  0  0  0  0  0  0  0  0  0
    7.3882  -16.5766   24.9639 C   0  0  0  0  0  0  0  0  0  0  0  0
    8.0996  -16.4110   23.9009 O   0  0  0  0  0  0  0  0  0  0  0  0
    6.6363  -20.0777   27.7977 C   0  0  0  0  0  0  0  0  0  0  0  0
    6.1712  -21.2621   28.3104 C   0  0  0  0  0  0  0  0  0  0  0  0
    5.0746  -11.9194   26.9420 C   0  0  0  0  0  0  0  0  0  0  0  0
    5.7128  -12.8572   25.9690 C   0  0  0  0  0  0  0  0  0  0  0  0
    7.1911  -13.0480   26.2441 C   0  0  2  0  0  0  0  0  0  0  0  0
    7.9922  -11.8232   25.8805 C   0  0  0  0  0  0  0  0  0  0  0  0
    7.7510  -14.1952   25.4011 C   0  0  2  0  0  0  0  0  0  0  0  0
    7.1025  -15.4412   25.7660 N   0  0  0  0  0  0  0  0  0  0  0  0
    9.1819  -14.2765   25.7518 C   0  0  0  0  0  0  0  0  0  0  0  0
    9.5232  -14.9470   26.7549 O   0  0  0  0  0  0  0  0  0  0  0  0
   10.1617  -13.6191   24.9840 O   0  0  0  0  0  0  0  0  0  0  0  0
  2  3  1  0
  2  1  1  0
  3  4  2  0
  6  7  2  0
  6  5  1  0
  8  7  1  0
  9  8  2  0
 10  9  1  0
 11 10  1  1
 12 11  1  0
 12  3  1  0
 13 22  1  0
 13 11  1  0
 14 13  2  0
 15  9  1  0
 15 16  2  0
 16  6  1  0
 18 17  1  0
 19 20  1  6
 19 18  1  0
 21 19  1  0
 21 22  1  1
 23 25  1  0
 23 21  1  0
 24 23  2  0
M  END
$$$$
