GYI.pdb
     RDKit          3D

 25 25  0  0  1  0  0  0  0  0999 V2000
    4.6033  -17.5554   20.6496 N   0  0  0  0  0  0  0  0  0  0  0  0
    5.8851  -16.9014   20.5197 C   0  0  0  0  0  0  0  0  0  0  0  0
    6.6758  -17.0672   21.7575 C   0  0  0  0  0  0  0  0  0  0  0  0
    6.1018  -17.4258   22.8164 O   0  0  0  0  0  0  0  0  0  0  0  0
   10.6616  -23.0352   21.1191 O   0  0  0  0  0  0  0  0  0  0  0  0
   10.5462  -21.6967   21.4718 C   0  0  0  0  0  0  0  0  0  0  0  0
    9.7408  -21.2989   22.5171 C   0  0  0  0  0  0  0  0  0  0  0  0
    9.5955  -19.9833   22.9026 C   0  0  0  0  0  0  0  0  0  0  0  0
   10.2690  -18.9777   22.2415 C   0  0  0  0  0  0  0  0  0  0  0  0
   10.1699  -17.5742   22.6096 C   0  0  0  0  0  0  0  0  0  0  0  0
    8.8194  -17.0495   23.0013 C   0  0  2  0  0  0  0  0  0  0  0  0
    8.0646  -16.8201   21.7307 N   0  0  0  0  0  0  0  0  0  0  0  0
    8.8902  -15.7803   23.7433 C   0  0  0  0  0  0  0  0  0  0  0  0
    9.6637  -14.8854   23.2294 O   0  0  0  0  0  0  0  0  0  0  0  0
   11.0873  -19.3894   21.1777 C   0  0  0  0  0  0  0  0  0  0  0  0
   11.2251  -20.7014   20.8014 C   0  0  0  0  0  0  0  0  0  0  0  0
    6.1249  -11.3353   26.6767 C   0  0  0  0  0  0  0  0  0  0  0  0
    7.3968  -12.0655   26.3899 C   0  0  0  0  0  0  0  0  0  0  0  0
    7.1535  -13.3771   25.6700 C   0  0  2  0  0  0  0  0  0  0  0  0
    6.2009  -14.2657   26.4296 C   0  0  0  0  0  0  0  0  0  0  0  0
    8.4581  -14.1636   25.5303 C   0  0  2  0  0  0  0  0  0  0  0  0
    8.1935  -15.4618   24.9381 N   0  0  0  0  0  0  0  0  0  0  0  0
    8.9497  -14.3541   26.9083 C   0  0  0  0  0  0  0  0  0  0  0  0
    8.7433  -15.4511   27.4795 O   0  0  0  0  0  0  0  0  0  0  0  0
    9.6417  -13.3324   27.5860 O   0  0  0  0  0  0  0  0  0  0  0  0
  2  3  1  0
  2  1  1  0
  3  4  2  0
  6  7  2  0
  6  5  1  0
  8  7  1  0
  9  8  2  0
 10  9  1  0
 11 10  1  6
 12 11  1  0
 12  3  1  0
 13 22  1  0
 13 11  1  0
 14 13  2  0
 15  9  1  0
 15 16  2  0
 16  6  1  0
 18 17  1  0
 19 20  1  1
 19 18  1  0
 21 19  1  0
 21 22  1  1
 23 25  1  0
 23 21  1  0
 24 23  2  0
M  END
$$$$
