GYI.pdb
     RDKit          3D

 25 25  0  0  1  0  0  0  0  0999 V2000
    9.7525  -21.1523   27.2200 N   0  0  0  0  0  0  0  0  0  0  0  0
    8.5723  -20.5658   26.6276 C   0  0  0  0  0  0  0  0  0  0  0  0
    8.4500  -19.1461   27.0201 C   0  0  0  0  0  0  0  0  0  0  0  0
    7.6212  -18.8169   27.9055 O   0  0  0  0  0  0  0  0  0  0  0  0
   13.2690  -17.8248   31.7229 O   0  0  0  0  0  0  0  0  0  0  0  0
   12.5867  -17.4404   30.5758 C   0  0  0  0  0  0  0  0  0  0  0  0
   11.6596  -16.4208   30.6025 C   0  0  0  0  0  0  0  0  0  0  0  0
   10.9589  -16.0055   29.4902 C   0  0  0  0  0  0  0  0  0  0  0  0
   11.1601  -16.6080   28.2662 C   0  0  0  0  0  0  0  0  0  0  0  0
   10.4645  -16.2056   27.0540 C   0  0  0  0  0  0  0  0  0  0  0  0
    9.0890  -16.7596   26.8226 C   0  0  2  0  0  0  0  0  0  0  0  0
    9.2670  -18.1814   26.3937 N   0  0  0  0  0  0  0  0  0  0  0  0
    8.3496  -16.0397   25.7731 C   0  0  0  0  0  0  0  0  0  0  0  0
    8.2866  -16.6410   24.6339 O   0  0  0  0  0  0  0  0  0  0  0  0
   12.1053  -17.6458   28.2458 C   0  0  0  0  0  0  0  0  0  0  0  0
   12.7974  -18.0521   29.3583 C   0  0  0  0  0  0  0  0  0  0  0  0
    6.8359  -10.6062   25.7872 C   0  0  0  0  0  0  0  0  0  0  0  0
    7.3970  -11.9538   25.4674 C   0  0  0  0  0  0  0  0  0  0  0  0
    6.3172  -12.9477   25.0880 C   0  0  2  0  0  0  0  0  0  0  0  0
    5.3389  -13.1702   26.2139 C   0  0  0  0  0  0  0  0  0  0  0  0
    6.9303  -14.3134   24.7734 C   0  0  2  0  0  0  0  0  0  0  0  0
    7.7102  -14.7794   25.9050 N   0  0  0  0  0  0  0  0  0  0  0  0
    7.8326  -14.0831   23.6290 C   0  0  0  0  0  0  0  0  0  0  0  0
    9.0705  -14.1805   23.8036 O   0  0  0  0  0  0  0  0  0  0  0  0
    7.3297  -13.7589   22.3546 O   0  0  0  0  0  0  0  0  0  0  0  0
  2  3  1  0
  2  1  1  0
  3  4  2  0
  6  7  2  0
  6  5  1  0
  8  7  1  0
  9  8  2  0
 10  9  1  0
 11 10  1  6
 12 11  1  0
 12  3  1  0
 13 22  1  0
 13 11  1  0
 14 13  2  0
 15  9  1  0
 15 16  2  0
 16  6  1  0
 18 17  1  0
 19 20  1  1
 19 18  1  0
 21 19  1  0
 21 22  1  1
 23 25  1  0
 23 21  1  0
 24 23  2  0
M  END
$$$$
