GYI.pdb
     RDKit          3D

 25 25  0  0  1  0  0  0  0  0999 V2000
    2.9770  -19.0801   21.3135 N   0  0  0  0  0  0  0  0  0  0  0  0
    4.3922  -18.7936   21.3664 C   0  0  0  0  0  0  0  0  0  0  0  0
    4.7969  -18.4492   22.7456 C   0  0  0  0  0  0  0  0  0  0  0  0
    3.9550  -17.9465   23.5315 O   0  0  0  0  0  0  0  0  0  0  0  0
    9.5778  -18.7530   30.2807 O   0  0  0  0  0  0  0  0  0  0  0  0
    9.0212  -18.9126   29.0182 C   0  0  0  0  0  0  0  0  0  0  0  0
    9.7821  -18.7715   27.8776 C   0  0  0  0  0  0  0  0  0  0  0  0
    9.2734  -18.9206   26.6050 C   0  0  0  0  0  0  0  0  0  0  0  0
    7.9429  -19.2268   26.4104 C   0  0  0  0  0  0  0  0  0  0  0  0
    7.3503  -19.4121   25.0952 C   0  0  0  0  0  0  0  0  0  0  0  0
    6.4772  -18.3137   24.5625 C   0  0  2  0  0  0  0  0  0  0  0  0
    6.1241  -18.6906   23.1588 N   0  0  0  0  0  0  0  0  0  0  0  0
    7.1493  -17.0044   24.5441 C   0  0  0  0  0  0  0  0  0  0  0  0
    7.8487  -16.7602   23.4883 O   0  0  0  0  0  0  0  0  0  0  0  0
    7.1733  -19.3688   27.5759 C   0  0  0  0  0  0  0  0  0  0  0  0
    7.6889  -19.2182   28.8381 C   0  0  0  0  0  0  0  0  0  0  0  0
    5.4778  -12.3337   27.0305 C   0  0  0  0  0  0  0  0  0  0  0  0
    6.0248  -13.2619   25.9949 C   0  0  0  0  0  0  0  0  0  0  0  0
    7.4328  -13.7179   26.3219 C   0  0  2  0  0  0  0  0  0  0  0  0
    8.4314  -12.5959   26.1879 C   0  0  0  0  0  0  0  0  0  0  0  0
    7.8820  -14.8127   25.3525 C   0  0  2  0  0  0  0  0  0  0  0  0
    7.0893  -16.0112   25.5562 N   0  0  0  0  0  0  0  0  0  0  0  0
    9.2856  -15.0978   25.7072 C   0  0  0  0  0  0  0  0  0  0  0  0
    9.5246  -15.9255   26.6183 O   0  0  0  0  0  0  0  0  0  0  0  0
   10.3515  -14.4609   25.0439 O   0  0  0  0  0  0  0  0  0  0  0  0
  2  3  1  0
  2  1  1  0
  3  4  2  0
  6  7  2  0
  6  5  1  0
  8  7  1  0
  9  8  2  0
 10  9  1  0
 11 10  1  6
 12 11  1  0
 12  3  1  0
 13 22  1  0
 13 11  1  0
 14 13  2  0
 15  9  1  0
 15 16  2  0
 16  6  1  0
 18 17  1  0
 19 20  1  6
 19 18  1  0
 21 19  1  0
 21 22  1  1
 23 25  1  0
 23 21  1  0
 24 23  2  0
M  END
$$$$
