GYI.pdb
     RDKit          3D

 25 25  0  0  1  0  0  0  0  0999 V2000
    3.3534  -19.4165   21.6416 N   0  0  0  0  0  0  0  0  0  0  0  0
    4.3715  -19.4612   22.6658 C   0  0  0  0  0  0  0  0  0  0  0  0
    4.9112  -18.1080   22.9153 C   0  0  0  0  0  0  0  0  0  0  0  0
    4.5726  -17.1577   22.1660 O   0  0  0  0  0  0  0  0  0  0  0  0
    7.7303  -11.0049   27.3356 O   0  0  0  0  0  0  0  0  0  0  0  0
    7.4227  -12.2916   26.9128 C   0  0  0  0  0  0  0  0  0  0  0  0
    8.4022  -13.1497   26.4611 C   0  0  0  0  0  0  0  0  0  0  0  0
    8.1442  -14.4342   26.0320 C   0  0  0  0  0  0  0  0  0  0  0  0
    6.8584  -14.9326   26.0360 C   0  0  0  0  0  0  0  0  0  0  0  0
    6.5240  -16.2827   25.6110 C   0  0  0  0  0  0  0  0  0  0  0  0
    6.3869  -16.5365   24.1381 C   0  0  2  0  0  0  0  0  0  0  0  0
    5.7993  -17.9041   23.9925 N   0  0  0  0  0  0  0  0  0  0  0  0
    7.6751  -16.4988   23.4271 C   0  0  0  0  0  0  0  0  0  0  0  0
    8.2690  -17.6371   23.3047 O   0  0  0  0  0  0  0  0  0  0  0  0
    5.8654  -14.0537   26.4969 C   0  0  0  0  0  0  0  0  0  0  0  0
    6.1323  -12.7769   26.9216 C   0  0  0  0  0  0  0  0  0  0  0  0
    7.4935  -12.5789   19.7197 C   0  0  0  0  0  0  0  0  0  0  0  0
    7.5722  -13.8635   20.4794 C   0  0  0  0  0  0  0  0  0  0  0  0
    9.0011  -14.2448   20.8117 C   0  0  2  0  0  0  0  0  0  0  0  0
    9.8138  -14.5122   19.5699 C   0  0  0  0  0  0  0  0  0  0  0  0
    9.0359  -15.5333   21.6355 C   0  0  2  0  0  0  0  0  0  0  0  0
    8.2993  -15.3511   22.8725 N   0  0  0  0  0  0  0  0  0  0  0  0
   10.4596  -15.7575   21.9515 C   0  0  0  0  0  0  0  0  0  0  0  0
   10.8766  -15.4801   23.1010 O   0  0  0  0  0  0  0  0  0  0  0  0
   11.3495  -16.2742   20.9907 O   0  0  0  0  0  0  0  0  0  0  0  0
  2  3  1  0
  2  1  1  0
  3  4  2  0
  6  7  2  0
  6  5  1  0
  8  7  1  0
  9  8  2  0
 10  9  1  0
 11 10  1  1
 12 11  1  0
 12  3  1  0
 13 22  1  0
 13 11  1  0
 14 13  2  0
 15  9  1  0
 15 16  2  0
 16  6  1  0
 18 17  1  0
 19 20  1  6
 19 18  1  0
 21 19  1  0
 21 22  1  1
 23 25  1  0
 23 21  1  0
 24 23  2  0
M  END
$$$$
