GYI.pdb
     RDKit          3D

 25 25  0  0  1  0  0  0  0  0999 V2000
   13.1536  -17.0063   20.0129 N   0  0  0  0  0  0  0  0  0  0  0  0
   12.0663  -17.5572   20.7886 C   0  0  0  0  0  0  0  0  0  0  0  0
   11.5365  -16.5438   21.7251 C   0  0  0  0  0  0  0  0  0  0  0  0
   12.1614  -15.4662   21.8910 O   0  0  0  0  0  0  0  0  0  0  0  0
    6.9684  -13.3693   17.9885 O   0  0  0  0  0  0  0  0  0  0  0  0
    7.3167  -13.9111   19.2190 C   0  0  0  0  0  0  0  0  0  0  0  0
    7.8078  -13.1207   20.2358 C   0  0  0  0  0  0  0  0  0  0  0  0
    8.1662  -13.6138   21.4723 C   0  0  0  0  0  0  0  0  0  0  0  0
    8.0456  -14.9580   21.7558 C   0  0  0  0  0  0  0  0  0  0  0  0
    8.3916  -15.5365   23.0445 C   0  0  0  0  0  0  0  0  0  0  0  0
    9.8470  -15.7389   23.3501 C   0  0  2  0  0  0  0  0  0  0  0  0
   10.3357  -16.8027   22.4192 N   0  0  0  0  0  0  0  0  0  0  0  0
   10.0870  -16.1773   24.7345 C   0  0  0  0  0  0  0  0  0  0  0  0
   10.7632  -17.2688   24.8561 O   0  0  0  0  0  0  0  0  0  0  0  0
    7.5452  -15.7577   20.7160 C   0  0  0  0  0  0  0  0  0  0  0  0
    7.1916  -15.2574   19.4887 C   0  0  0  0  0  0  0  0  0  0  0  0
    9.5996  -12.6098   28.9076 C   0  0  0  0  0  0  0  0  0  0  0  0
   10.1440  -13.5890   27.9185 C   0  0  0  0  0  0  0  0  0  0  0  0
    9.8299  -15.0220   28.3001 C   0  0  2  0  0  0  0  0  0  0  0  0
   10.6058  -15.4617   29.5161 C   0  0  0  0  0  0  0  0  0  0  0  0
   10.2207  -15.9769   27.1708 C   0  0  2  0  0  0  0  0  0  0  0  0
    9.6577  -15.5166   25.9149 N   0  0  0  0  0  0  0  0  0  0  0  0
    9.6109  -17.2729   27.5254 C   0  0  0  0  0  0  0  0  0  0  0  0
    8.4454  -17.5214   27.1356 O   0  0  0  0  0  0  0  0  0  0  0  0
   10.3115  -18.2268   28.2878 O   0  0  0  0  0  0  0  0  0  0  0  0
  2  3  1  0
  2  1  1  0
  3  4  2  0
  6  7  2  0
  6  5  1  0
  8  7  1  0
  9  8  2  0
 10  9  1  0
 11 10  1  1
 12 11  1  0
 12  3  1  0
 13 22  1  0
 13 11  1  0
 14 13  2  0
 15  9  1  0
 15 16  2  0
 16  6  1  0
 18 17  1  0
 19 20  1  1
 19 18  1  0
 21 19  1  0
 21 22  1  6
 23 25  1  0
 23 21  1  0
 24 23  2  0
M  END
$$$$
