GYI.pdb
     RDKit          3D

 25 25  0  0  1  0  0  0  0  0999 V2000
    7.3886  -20.1493   25.2089 N   0  0  0  0  0  0  0  0  0  0  0  0
    7.2006  -19.2413   26.3169 C   0  0  0  0  0  0  0  0  0  0  0  0
    7.2281  -17.8406   25.8455 C   0  0  0  0  0  0  0  0  0  0  0  0
    6.1824  -17.1461   25.9043 O   0  0  0  0  0  0  0  0  0  0  0  0
   10.5685  -14.8635   31.0367 O   0  0  0  0  0  0  0  0  0  0  0  0
   10.3626  -14.9783   29.6680 C   0  0  0  0  0  0  0  0  0  0  0  0
    9.7675  -13.9658   28.9464 C   0  0  0  0  0  0  0  0  0  0  0  0
    9.5429  -14.0353   27.5880 C   0  0  0  0  0  0  0  0  0  0  0  0
    9.9146  -15.1522   26.8695 C   0  0  0  0  0  0  0  0  0  0  0  0
    9.7194  -15.2795   25.4339 C   0  0  0  0  0  0  0  0  0  0  0  0
    8.4199  -15.8583   24.9553 C   0  0  2  0  0  0  0  0  0  0  0  0
    8.4296  -17.3046   25.3362 N   0  0  0  0  0  0  0  0  0  0  0  0
    8.2488  -15.7560   23.4970 C   0  0  0  0  0  0  0  0  0  0  0  0
    8.1724  -16.8817   22.8722 O   0  0  0  0  0  0  0  0  0  0  0  0
   10.5198  -16.1798   27.6101 C   0  0  0  0  0  0  0  0  0  0  0  0
   10.7387  -16.1013   28.9620 C   0  0  0  0  0  0  0  0  0  0  0  0
    6.8018  -12.1582   18.6415 C   0  0  0  0  0  0  0  0  0  0  0  0
    7.2427  -13.4530   19.2436 C   0  0  0  0  0  0  0  0  0  0  0  0
    7.4626  -13.3428   20.7393 C   0  0  2  0  0  0  0  0  0  0  0  0
    8.5702  -12.3756   21.0737 C   0  0  0  0  0  0  0  0  0  0  0  0
    7.8798  -14.6942   21.3222 C   0  0  2  0  0  0  0  0  0  0  0  0
    8.1548  -14.5588   22.7407 N   0  0  0  0  0  0  0  0  0  0  0  0
    9.1277  -15.0540   20.6220 C   0  0  0  0  0  0  0  0  0  0  0  0
   10.2255  -14.8244   21.1828 O   0  0  0  0  0  0  0  0  0  0  0  0
    9.1054  -15.6465   19.3451 O   0  0  0  0  0  0  0  0  0  0  0  0
  2  3  1  0
  2  1  1  0
  3  4  2  0
  6  7  2  0
  6  5  1  0
  8  7  1  0
  9  8  2  0
 10  9  1  0
 11 10  1  6
 12 11  1  0
 12  3  1  0
 13 22  1  0
 13 11  1  0
 14 13  2  0
 15  9  1  0
 15 16  2  0
 16  6  1  0
 18 17  1  0
 19 20  1  6
 19 18  1  0
 21 19  1  0
 21 22  1  1
 23 25  1  0
 23 21  1  0
 24 23  2  0
M  END
$$$$
