ETW.pdb
     RDKit          3D

 31 32  0  0  1  0  0  0  0  0999 V2000
   42.3772  -10.8156   -8.1948 N   0  0  0  0  0  0  0  0  0  0  0  0
   43.6667  -10.7224   -7.5431 C   0  0  1  0  0  0  0  0  0  0  0  0
   43.4813  -10.1631   -6.1758 C   0  0  0  0  0  0  0  0  0  0  0  0
   42.7410   -8.8293   -6.3371 C   0  0  0  0  0  0  0  0  0  0  0  0
   42.4236   -8.2526   -5.0079 C   0  0  0  0  0  0  0  0  0  0  0  0
   41.8401   -7.1614   -4.9142 O   0  0  0  0  0  0  0  0  0  0  0  0
   44.3774  -11.9959   -7.6198 C   0  0  0  0  0  0  0  0  0  0  0  0
   45.5261  -12.0859   -7.1154 O   0  0  0  0  0  0  0  0  0  0  0  0
   42.7787   -8.9325   -3.8670 O   0  0  0  0  0  0  0  0  0  0  0  0
   43.0202  -15.2153  -10.0823 C   0  0  0  0  0  0  0  0  0  0  0  0
   43.6025  -15.4975   -8.7303 C   0  0  1  0  0  0  0  0  0  0  0  0
   44.0738  -16.7781   -8.5872 O   0  0  0  0  0  0  0  0  0  0  0  0
   44.6007  -14.4251   -8.3142 C   0  0  2  0  0  0  0  0  0  0  0  0
   43.8559  -13.1678   -8.2362 N   0  0  0  0  0  0  0  0  0  0  0  0
   45.7630  -14.3296   -9.1884 C   0  0  0  0  0  0  0  0  0  0  0  0
   45.8127  -13.4572  -10.0828 O   0  0  0  0  0  0  0  0  0  0  0  0
   46.8437  -15.2224   -9.0306 N   0  0  0  0  0  0  0  0  0  0  0  0
   48.0495  -15.2041   -9.8636 C   0  0  1  0  0  0  0  0  0  0  0  0
   48.4932  -13.8089  -10.0908 C   0  0  0  0  0  0  0  0  0  0  0  0
   49.5809  -13.6515  -11.0422 C   0  0  0  0  0  0  0  0  0  0  0  0
   49.6874  -14.1027  -12.3534 C   0  0  0  0  0  0  0  0  0  0  0  0
   50.8692  -13.7741  -12.8901 N   0  0  0  0  0  0  0  0  0  0  0  0
   51.5673  -13.1058  -11.9630 C   0  0  0  0  0  0  0  0  0  0  0  0
   52.8436  -12.5427  -12.0402 C   0  0  0  0  0  0  0  0  0  0  0  0
   53.3844  -11.8721  -10.9696 C   0  0  0  0  0  0  0  0  0  0  0  0
   52.6141  -11.7783   -9.8152 C   0  0  0  0  0  0  0  0  0  0  0  0
   51.3627  -12.3336   -9.7458 C   0  0  0  0  0  0  0  0  0  0  0  0
   50.7984  -13.0137  -10.8112 C   0  0  0  0  0  0  0  0  0  0  0  0
   49.0066  -16.1808   -9.3991 C   0  0  0  0  0  0  0  0  0  0  0  0
   48.8502  -16.8643   -8.2277 O   0  0  0  0  0  0  0  0  0  0  0  0
   50.0442  -16.4191  -10.1003 O   0  0  0  0  0  0  0  0  0  0  0  0
  2  3  1  0
  2  1  1  1
  3  4  1  0
  4  5  1  0
  5  9  1  0
  6  5  2  0
  7  2  1  0
  8  7  2  0
 11 10  1  6
 11 13  1  0
 12 11  1  0
 13 14  1  6
 14  7  1  0
 15 13  1  0
 15 17  1  0
 16 15  2  0
 18 17  1  0
 18 29  1  0
 18 19  1  1
 20 19  1  0
 20 21  2  0
 22 21  1  0
 23 22  1  0
 24 23  2  0
 25 24  1  0
 26 25  2  0
 26 27  1  0
 27 28  2  0
 28 23  1  0
 28 20  1  0
 29 30  1  0
 31 29  2  0
M  END
$$$$
