ETW.pdb
     RDKit          3D

 31 32  0  0  1  0  0  0  0  0999 V2000
   28.0841  -21.2529  -17.7978 N   0  0  0  0  0  0  0  0  0  0  0  0
   27.1994  -21.8145  -16.7987 C   0  0  1  0  0  0  0  0  0  0  0  0
   26.8700  -23.2171  -17.1740 C   0  0  0  0  0  0  0  0  0  0  0  0
   25.8164  -23.1444  -18.2864 C   0  0  0  0  0  0  0  0  0  0  0  0
   24.4767  -22.8739  -17.7098 C   0  0  0  0  0  0  0  0  0  0  0  0
   24.0915  -23.4744  -16.6945 O   0  0  0  0  0  0  0  0  0  0  0  0
   27.7479  -21.6254  -15.4585 C   0  0  0  0  0  0  0  0  0  0  0  0
   28.9772  -21.3931  -15.3285 O   0  0  0  0  0  0  0  0  0  0  0  0
   23.6522  -21.9488  -18.3051 O   0  0  0  0  0  0  0  0  0  0  0  0
   28.6253  -19.3828  -14.4368 C   0  0  0  0  0  0  0  0  0  0  0  0
   27.6002  -19.5575  -13.3573 C   0  0  1  0  0  0  0  0  0  0  0  0
   26.4374  -18.8644  -13.5812 O   0  0  0  0  0  0  0  0  0  0  0  0
   27.3846  -21.0271  -13.0205 C   0  0  2  0  0  0  0  0  0  0  0  0
   26.9785  -21.6858  -14.2627 N   0  0  0  0  0  0  0  0  0  0  0  0
   26.4364  -21.2512  -11.9366 C   0  0  0  0  0  0  0  0  0  0  0  0
   25.2353  -21.4937  -12.1859 O   0  0  0  0  0  0  0  0  0  0  0  0
   26.8683  -21.1970  -10.5948 N   0  0  0  0  0  0  0  0  0  0  0  0
   26.0078  -21.4899   -9.4450 C   0  0  1  0  0  0  0  0  0  0  0  0
   26.8209  -21.5928   -8.2107 C   0  0  0  0  0  0  0  0  0  0  0  0
   27.0036  -20.3476   -7.4833 C   0  0  0  0  0  0  0  0  0  0  0  0
   26.5118  -19.0763   -7.7591 C   0  0  0  0  0  0  0  0  0  0  0  0
   26.9313  -18.1820   -6.8554 N   0  0  0  0  0  0  0  0  0  0  0  0
   27.7009  -18.8268   -5.9691 C   0  0  0  0  0  0  0  0  0  0  0  0
   28.3581  -18.3400   -4.8364 C   0  0  0  0  0  0  0  0  0  0  0  0
   29.0947  -19.1777   -4.0340 C   0  0  0  0  0  0  0  0  0  0  0  0
   29.1581  -20.5199   -4.3940 C   0  0  0  0  0  0  0  0  0  0  0  0
   28.5114  -20.9910   -5.5071 C   0  0  0  0  0  0  0  0  0  0  0  0
   27.7645  -20.1655   -6.3298 C   0  0  0  0  0  0  0  0  0  0  0  0
   24.8403  -20.6399   -9.4505 C   0  0  0  0  0  0  0  0  0  0  0  0
   23.6809  -20.9787   -8.8142 O   0  0  0  0  0  0  0  0  0  0  0  0
   24.8811  -19.5290  -10.0746 O   0  0  0  0  0  0  0  0  0  0  0  0
  2  3  1  0
  2  1  1  6
  3  4  1  0
  4  5  1  0
  5  9  1  0
  6  5  2  0
  7  2  1  0
  8  7  2  0
 11 10  1  6
 11 13  1  0
 12 11  1  0
 13 14  1  6
 14  7  1  0
 15 13  1  0
 15 17  1  0
 16 15  2  0
 18 17  1  0
 18 29  1  0
 18 19  1  1
 20 19  1  0
 20 21  2  0
 22 21  1  0
 23 22  1  0
 24 23  2  0
 25 24  1  0
 26 25  2  0
 26 27  1  0
 27 28  2  0
 28 23  1  0
 28 20  1  0
 29 30  1  0
 31 29  2  0
M  END
$$$$
