ETW.pdb
     RDKit          3D

 31 32  0  0  1  0  0  0  0  0999 V2000
   25.0345  -19.8843  -16.3896 N   0  0  0  0  0  0  0  0  0  0  0  0
   24.4894  -18.6837  -15.7915 C   0  0  1  0  0  0  0  0  0  0  0  0
   23.4885  -18.0894  -16.7197 C   0  0  0  0  0  0  0  0  0  0  0  0
   23.0273  -19.2135  -17.6561 C   0  0  0  0  0  0  0  0  0  0  0  0
   21.5694  -19.4426  -17.5065 C   0  0  0  0  0  0  0  0  0  0  0  0
   21.1340  -20.5584  -17.1821 O   0  0  0  0  0  0  0  0  0  0  0  0
   24.0207  -18.9499  -14.4343 C   0  0  0  0  0  0  0  0  0  0  0  0
   22.8362  -18.6576  -14.1286 O   0  0  0  0  0  0  0  0  0  0  0  0
   20.6903  -18.4094  -17.7293 O   0  0  0  0  0  0  0  0  0  0  0  0
   22.0542  -20.2143  -13.1700 C   0  0  0  0  0  0  0  0  0  0  0  0
   23.1333  -20.8566  -12.3517 C   0  0  1  0  0  0  0  0  0  0  0  0
   23.5243  -22.0860  -12.8190 O   0  0  0  0  0  0  0  0  0  0  0  0
   24.2901  -19.8992  -12.0977 C   0  0  2  0  0  0  0  0  0  0  0  0
   24.8217  -19.5277  -13.4097 N   0  0  0  0  0  0  0  0  0  0  0  0
   25.3168  -20.4356  -11.2132 C   0  0  0  0  0  0  0  0  0  0  0  0
   26.2810  -21.0806  -11.6801 O   0  0  0  0  0  0  0  0  0  0  0  0
   25.2306  -20.2296   -9.8204 N   0  0  0  0  0  0  0  0  0  0  0  0
   26.1836  -20.7775   -8.8508 C   0  0  1  0  0  0  0  0  0  0  0  0
   27.2463  -19.7863   -8.5621 C   0  0  0  0  0  0  0  0  0  0  0  0
   28.3127  -20.2564   -7.6932 C   0  0  0  0  0  0  0  0  0  0  0  0
   29.2810  -21.2285   -7.9200 C   0  0  0  0  0  0  0  0  0  0  0  0
   30.0723  -21.3904   -6.8522 N   0  0  0  0  0  0  0  0  0  0  0  0
   29.6562  -20.5423   -5.9030 C   0  0  0  0  0  0  0  0  0  0  0  0
   30.1615  -20.3211   -4.6193 C   0  0  0  0  0  0  0  0  0  0  0  0
   29.5973  -19.3803   -3.7918 C   0  0  0  0  0  0  0  0  0  0  0  0
   28.5107  -18.6633   -4.2818 C   0  0  0  0  0  0  0  0  0  0  0  0
   28.0193  -18.8856   -5.5421 C   0  0  0  0  0  0  0  0  0  0  0  0
   28.5714  -19.8281   -6.3924 C   0  0  0  0  0  0  0  0  0  0  0  0
   25.4897  -21.4066   -7.7515 C   0  0  0  0  0  0  0  0  0  0  0  0
   24.1327  -21.3538   -7.6117 O   0  0  0  0  0  0  0  0  0  0  0  0
   26.1610  -22.0352   -6.8687 O   0  0  0  0  0  0  0  0  0  0  0  0
  2  3  1  0
  2  1  1  6
  3  4  1  0
  4  5  1  0
  5  9  1  0
  6  5  2  0
  7  2  1  0
  8  7  2  0
 11 10  1  6
 11 13  1  0
 12 11  1  0
 13 14  1  6
 14  7  1  0
 15 13  1  0
 15 17  1  0
 16 15  2  0
 18 17  1  0
 18 29  1  0
 18 19  1  1
 20 19  1  0
 20 21  2  0
 22 21  1  0
 23 22  1  0
 24 23  2  0
 25 24  1  0
 26 25  2  0
 26 27  1  0
 27 28  2  0
 28 23  1  0
 28 20  1  0
 29 30  1  0
 31 29  2  0
M  END
$$$$
