ETW.pdb
     RDKit          3D

 31 32  0  0  1  0  0  0  0  0999 V2000
   27.0795  -22.3136  -17.1765 N   0  0  0  0  0  0  0  0  0  0  0  0
   28.4466  -22.0275  -16.7950 C   0  0  1  0  0  0  0  0  0  0  0  0
   29.1327  -21.3401  -17.9234 C   0  0  0  0  0  0  0  0  0  0  0  0
   29.0705  -22.2893  -19.1268 C   0  0  0  0  0  0  0  0  0  0  0  0
   27.9326  -21.9297  -20.0080 C   0  0  0  0  0  0  0  0  0  0  0  0
   27.2273  -22.8114  -20.5226 O   0  0  0  0  0  0  0  0  0  0  0  0
   28.4902  -21.3388  -15.5080 C   0  0  0  0  0  0  0  0  0  0  0  0
   29.6074  -21.0688  -14.9970 O   0  0  0  0  0  0  0  0  0  0  0  0
   27.6554  -20.6066  -20.2581 O   0  0  0  0  0  0  0  0  0  0  0  0
   27.5028  -18.0162  -14.6590 C   0  0  0  0  0  0  0  0  0  0  0  0
   26.7317  -18.8831  -13.7101 C   0  0  1  0  0  0  0  0  0  0  0  0
   25.3965  -18.9810  -14.0107 O   0  0  0  0  0  0  0  0  0  0  0  0
   27.4141  -20.2280  -13.4976 C   0  0  2  0  0  0  0  0  0  0  0  0
   27.3381  -20.9419  -14.7729 N   0  0  0  0  0  0  0  0  0  0  0  0
   26.8618  -21.0021  -12.3931 C   0  0  0  0  0  0  0  0  0  0  0  0
   26.2556  -22.0737  -12.6117 O   0  0  0  0  0  0  0  0  0  0  0  0
   27.0084  -20.5473  -11.0660 N   0  0  0  0  0  0  0  0  0  0  0  0
   26.4587  -21.2403   -9.8972 C   0  0  1  0  0  0  0  0  0  0  0  0
   27.4822  -21.3344   -8.8301 C   0  0  0  0  0  0  0  0  0  0  0  0
   27.4886  -20.2354   -7.8787 C   0  0  0  0  0  0  0  0  0  0  0  0
   26.7926  -19.0317   -7.9061 C   0  0  0  0  0  0  0  0  0  0  0  0
   27.0941  -18.2673   -6.8490 N   0  0  0  0  0  0  0  0  0  0  0  0
   27.9847  -18.9340   -6.1034 C   0  0  0  0  0  0  0  0  0  0  0  0
   28.5928  -18.5690   -4.8997 C   0  0  0  0  0  0  0  0  0  0  0  0
   29.4788  -19.4121   -4.2732 C   0  0  0  0  0  0  0  0  0  0  0  0
   29.7425  -20.6343   -4.8828 C   0  0  0  0  0  0  0  0  0  0  0  0
   29.1429  -20.9861   -6.0643 C   0  0  0  0  0  0  0  0  0  0  0  0
   28.2481  -20.1527   -6.7130 C   0  0  0  0  0  0  0  0  0  0  0  0
   25.1466  -20.7319   -9.5719 C   0  0  0  0  0  0  0  0  0  0  0  0
   24.3375  -21.3241   -8.6454 O   0  0  0  0  0  0  0  0  0  0  0  0
   24.7149  -19.6924  -10.1704 O   0  0  0  0  0  0  0  0  0  0  0  0
  2  3  1  0
  2  1  1  6
  3  4  1  0
  4  5  1  0
  5  9  1  0
  6  5  2  0
  7  2  1  0
  8  7  2  0
 11 10  1  6
 11 13  1  0
 12 11  1  0
 13 14  1  6
 14  7  1  0
 15 13  1  0
 15 17  1  0
 16 15  2  0
 18 17  1  0
 18 29  1  0
 18 19  1  1
 20 19  1  0
 20 21  2  0
 22 21  1  0
 23 22  1  0
 24 23  2  0
 25 24  1  0
 26 25  2  0
 26 27  1  0
 27 28  2  0
 28 23  1  0
 28 20  1  0
 29 30  1  0
 31 29  2  0
M  END
$$$$
