ETW.pdb
     RDKit          3D

 31 32  0  0  1  0  0  0  0  0999 V2000
   18.3128  -13.7271  -18.3646 N   0  0  0  0  0  0  0  0  0  0  0  0
   18.0197  -12.5154  -17.6283 C   0  0  1  0  0  0  0  0  0  0  0  0
   17.5131  -12.8784  -16.2762 C   0  0  0  0  0  0  0  0  0  0  0  0
   16.1351  -13.5221  -16.4753 C   0  0  0  0  0  0  0  0  0  0  0  0
   15.5566  -13.9154  -15.1672 C   0  0  0  0  0  0  0  0  0  0  0  0
   14.5968  -13.2929  -14.6866 O   0  0  0  0  0  0  0  0  0  0  0  0
   19.1607  -11.6043  -17.6580 C   0  0  0  0  0  0  0  0  0  0  0  0
   20.3242  -12.0822  -17.6616 O   0  0  0  0  0  0  0  0  0  0  0  0
   16.0882  -14.9802  -14.4790 O   0  0  0  0  0  0  0  0  0  0  0  0
   20.8011   -9.9173  -20.0419 C   0  0  0  0  0  0  0  0  0  0  0  0
   20.3796   -8.8090  -19.1250 C   0  0  1  0  0  0  0  0  0  0  0  0
   19.3112   -8.0836  -19.5885 O   0  0  0  0  0  0  0  0  0  0  0  0
   20.2154   -9.2978  -17.6920 C   0  0  2  0  0  0  0  0  0  0  0  0
   19.0519  -10.1856  -17.6835 N   0  0  0  0  0  0  0  0  0  0  0  0
   20.1035   -8.2251  -16.7116 C   0  0  0  0  0  0  0  0  0  0  0  0
   18.9803   -7.8406  -16.3191 O   0  0  0  0  0  0  0  0  0  0  0  0
   21.2647   -7.6122  -16.1964 N   0  0  0  0  0  0  0  0  0  0  0  0
   21.2591   -6.6351  -15.1038 C   0  0  1  0  0  0  0  0  0  0  0  0
   22.4004   -6.8813  -14.1916 C   0  0  0  0  0  0  0  0  0  0  0  0
   23.6909   -7.0384  -14.8419 C   0  0  0  0  0  0  0  0  0  0  0  0
   24.4883   -6.0915  -15.4757 C   0  0  0  0  0  0  0  0  0  0  0  0
   25.6007   -6.6437  -15.9761 N   0  0  0  0  0  0  0  0  0  0  0  0
   25.5713   -7.9519  -15.6914 C   0  0  0  0  0  0  0  0  0  0  0  0
   26.5034   -8.9506  -15.9839 C   0  0  0  0  0  0  0  0  0  0  0  0
   26.2951  -10.2487  -15.5841 C   0  0  0  0  0  0  0  0  0  0  0  0
   25.1266  -10.5244  -14.8816 C   0  0  0  0  0  0  0  0  0  0  0  0
   24.2157   -9.5400  -14.5983 C   0  0  0  0  0  0  0  0  0  0  0  0
   24.4045   -8.2262  -14.9915 C   0  0  0  0  0  0  0  0  0  0  0  0
   21.0384   -5.3013  -15.6118 C   0  0  0  0  0  0  0  0  0  0  0  0
   20.6609   -4.2624  -14.8107 O   0  0  0  0  0  0  0  0  0  0  0  0
   21.1950   -5.0747  -16.8565 O   0  0  0  0  0  0  0  0  0  0  0  0
  2  3  1  0
  2  1  1  1
  3  4  1  0
  4  5  1  0
  5  9  1  0
  6  5  2  0
  7  2  1  0
  8  7  2  0
 11 10  1  6
 11 13  1  0
 12 11  1  0
 13 14  1  6
 14  7  1  0
 15 13  1  0
 15 17  1  0
 16 15  2  0
 18 17  1  0
 18 29  1  0
 18 19  1  6
 20 19  1  0
 20 21  2  0
 22 21  1  0
 23 22  1  0
 24 23  2  0
 25 24  1  0
 26 25  2  0
 26 27  1  0
 27 28  2  0
 28 23  1  0
 28 20  1  0
 29 30  1  0
 31 29  2  0
M  END
$$$$
