ETW.pdb
     RDKit          3D

 31 32  0  0  1  0  0  0  0  0999 V2000
   27.5983  -20.7377  -18.0292 N   0  0  0  0  0  0  0  0  0  0  0  0
   28.3679  -21.4726  -17.0474 C   0  0  1  0  0  0  0  0  0  0  0  0
   29.6962  -21.8137  -17.6269 C   0  0  0  0  0  0  0  0  0  0  0  0
   29.4749  -22.9916  -18.5843 C   0  0  0  0  0  0  0  0  0  0  0  0
   29.2494  -22.4977  -19.9648 C   0  0  0  0  0  0  0  0  0  0  0  0
   28.2445  -22.8445  -20.6049 O   0  0  0  0  0  0  0  0  0  0  0  0
   28.3925  -20.7609  -15.7724 C   0  0  0  0  0  0  0  0  0  0  0  0
   28.9955  -19.6595  -15.6991 O   0  0  0  0  0  0  0  0  0  0  0  0
   30.1621  -21.6472  -20.5423 O   0  0  0  0  0  0  0  0  0  0  0  0
   27.6319  -18.3608  -14.8205 C   0  0  0  0  0  0  0  0  0  0  0  0
   26.8645  -19.1542  -13.8065 C   0  0  1  0  0  0  0  0  0  0  0  0
   25.5601  -19.3904  -14.1607 O   0  0  0  0  0  0  0  0  0  0  0  0
   27.6224  -20.4052  -13.3821 C   0  0  2  0  0  0  0  0  0  0  0  0
   27.7718  -21.2309  -14.5812 N   0  0  0  0  0  0  0  0  0  0  0  0
   26.9972  -21.1294  -12.2825 C   0  0  0  0  0  0  0  0  0  0  0  0
   26.2933  -22.1380  -12.5077 O   0  0  0  0  0  0  0  0  0  0  0  0
   27.1833  -20.6972  -10.9528 N   0  0  0  0  0  0  0  0  0  0  0  0
   26.6119  -21.3729   -9.7843 C   0  0  1  0  0  0  0  0  0  0  0  0
   27.6125  -21.4431   -8.6939 C   0  0  0  0  0  0  0  0  0  0  0  0
   27.5666  -20.3480   -7.7391 C   0  0  0  0  0  0  0  0  0  0  0  0
   26.8205  -19.1747   -7.7671 C   0  0  0  0  0  0  0  0  0  0  0  0
   27.0829  -18.4018   -6.7058 N   0  0  0  0  0  0  0  0  0  0  0  0
   27.9962  -19.0327   -5.9566 C   0  0  0  0  0  0  0  0  0  0  0  0
   28.5809  -18.6465   -4.7480 C   0  0  0  0  0  0  0  0  0  0  0  0
   29.4978  -19.4535   -4.1185 C   0  0  0  0  0  0  0  0  0  0  0  0
   29.8168  -20.6614   -4.7302 C   0  0  0  0  0  0  0  0  0  0  0  0
   29.2399  -21.0342   -5.9166 C   0  0  0  0  0  0  0  0  0  0  0  0
   28.3146  -20.2372   -6.5684 C   0  0  0  0  0  0  0  0  0  0  0  0
   25.2905  -20.8662   -9.4963 C   0  0  0  0  0  0  0  0  0  0  0  0
   24.4319  -21.4952   -8.6413 O   0  0  0  0  0  0  0  0  0  0  0  0
   24.8982  -19.7924  -10.0602 O   0  0  0  0  0  0  0  0  0  0  0  0
  2  3  1  0
  2  1  1  6
  3  4  1  0
  4  5  1  0
  5  9  1  0
  6  5  2  0
  7  2  1  0
  8  7  2  0
 11 10  1  6
 11 13  1  0
 12 11  1  0
 13 14  1  6
 14  7  1  0
 15 13  1  0
 15 17  1  0
 16 15  2  0
 18 17  1  0
 18 29  1  0
 18 19  1  1
 20 19  1  0
 20 21  2  0
 22 21  1  0
 23 22  1  0
 24 23  2  0
 25 24  1  0
 26 25  2  0
 26 27  1  0
 27 28  2  0
 28 23  1  0
 28 20  1  0
 29 30  1  0
 31 29  2  0
M  END
$$$$
