ETW.pdb
     RDKit          3D

 31 32  0  0  1  0  0  0  0  0999 V2000
   27.1650  -19.5699  -16.8829 N   0  0  0  0  0  0  0  0  0  0  0  0
   27.7048  -19.0496  -15.6443 C   0  0  1  0  0  0  0  0  0  0  0  0
   28.1992  -17.6641  -15.8734 C   0  0  0  0  0  0  0  0  0  0  0  0
   29.2386  -17.7427  -16.9987 C   0  0  0  0  0  0  0  0  0  0  0  0
   28.8531  -16.8501  -18.1190 C   0  0  0  0  0  0  0  0  0  0  0  0
   29.1573  -15.6472  -18.1034 O   0  0  0  0  0  0  0  0  0  0  0  0
   26.7463  -19.2123  -14.5546 C   0  0  0  0  0  0  0  0  0  0  0  0
   25.6267  -18.6449  -14.6359 O   0  0  0  0  0  0  0  0  0  0  0  0
   28.1517  -17.3591  -19.1862 O   0  0  0  0  0  0  0  0  0  0  0  0
   24.3391  -20.3302  -14.2605 C   0  0  0  0  0  0  0  0  0  0  0  0
   24.8642  -21.0318  -13.0444 C   0  0  1  0  0  0  0  0  0  0  0  0
   25.1900  -22.3468  -13.2619 O   0  0  0  0  0  0  0  0  0  0  0  0
   25.9667  -20.2296  -12.3658 C   0  0  2  0  0  0  0  0  0  0  0  0
   26.9899  -19.9815  -13.3823 N   0  0  0  0  0  0  0  0  0  0  0  0
   26.5107  -20.8660  -11.1728 C   0  0  0  0  0  0  0  0  0  0  0  0
   27.6272  -21.4278  -11.2080 O   0  0  0  0  0  0  0  0  0  0  0  0
   25.7800  -20.8516   -9.9663 N   0  0  0  0  0  0  0  0  0  0  0  0
   26.2675  -21.4211   -8.7067 C   0  0  1  0  0  0  0  0  0  0  0  0
   27.6549  -20.9719   -8.4453 C   0  0  0  0  0  0  0  0  0  0  0  0
   27.7826  -19.8657   -7.5109 C   0  0  0  0  0  0  0  0  0  0  0  0
   27.2445  -18.5846   -7.5708 C   0  0  0  0  0  0  0  0  0  0  0  0
   27.6207  -17.8456   -6.5197 N   0  0  0  0  0  0  0  0  0  0  0  0
   28.4063  -18.6056   -5.7460 C   0  0  0  0  0  0  0  0  0  0  0  0
   29.0336  -18.2987   -4.5359 C   0  0  0  0  0  0  0  0  0  0  0  0
   29.7946  -19.2353   -3.8787 C   0  0  0  0  0  0  0  0  0  0  0  0
   29.9131  -20.4916   -4.4640 C   0  0  0  0  0  0  0  0  0  0  0  0
   29.2956  -20.7861   -5.6519 C   0  0  0  0  0  0  0  0  0  0  0  0
   28.5250  -19.8584   -6.3314 C   0  0  0  0  0  0  0  0  0  0  0  0
   25.2751  -21.2850   -7.6663 C   0  0  0  0  0  0  0  0  0  0  0  0
   24.1451  -20.5348   -7.8214 O   0  0  0  0  0  0  0  0  0  0  0  0
   25.4531  -21.8809   -6.5535 O   0  0  0  0  0  0  0  0  0  0  0  0
  2  3  1  0
  2  1  1  6
  3  4  1  0
  4  5  1  0
  5  9  1  0
  6  5  2  0
  7  2  1  0
  8  7  2  0
 11 10  1  6
 11 13  1  0
 12 11  1  0
 13 14  1  6
 14  7  1  0
 15 13  1  0
 15 17  1  0
 16 15  2  0
 18 17  1  0
 18 29  1  0
 18 19  1  1
 20 19  1  0
 20 21  2  0
 22 21  1  0
 23 22  1  0
 24 23  2  0
 25 24  1  0
 26 25  2  0
 26 27  1  0
 27 28  2  0
 28 23  1  0
 28 20  1  0
 29 30  1  0
 31 29  2  0
M  END
$$$$
