ETW.pdb
     RDKit          3D

 31 32  0  0  1  0  0  0  0  0999 V2000
   19.7228  -20.8153  -15.0047 N   0  0  0  0  0  0  0  0  0  0  0  0
   20.8776  -20.0832  -14.5286 C   0  0  1  0  0  0  0  0  0  0  0  0
   20.4252  -18.7976  -13.9295 C   0  0  0  0  0  0  0  0  0  0  0  0
   19.0308  -18.5074  -14.4990 C   0  0  0  0  0  0  0  0  0  0  0  0
   18.0474  -18.3525  -13.3993 C   0  0  0  0  0  0  0  0  0  0  0  0
   16.8391  -18.5537  -13.5975 O   0  0  0  0  0  0  0  0  0  0  0  0
   21.7079  -20.9275  -13.6739 C   0  0  0  0  0  0  0  0  0  0  0  0
   21.4063  -22.1407  -13.5354 O   0  0  0  0  0  0  0  0  0  0  0  0
   18.4775  -17.9822  -12.1471 O   0  0  0  0  0  0  0  0  0  0  0  0
   24.7784  -21.5794  -14.7278 C   0  0  0  0  0  0  0  0  0  0  0  0
   24.2656  -22.3241  -13.5324 C   0  0  1  0  0  0  0  0  0  0  0  0
   25.0844  -23.3468  -13.1246 O   0  0  0  0  0  0  0  0  0  0  0  0
   23.8615  -21.3759  -12.4112 C   0  0  2  0  0  0  0  0  0  0  0  0
   22.8576  -20.4699  -12.9709 N   0  0  0  0  0  0  0  0  0  0  0  0
   24.9809  -20.6622  -11.8097 C   0  0  0  0  0  0  0  0  0  0  0  0
   25.5824  -19.7726  -12.4503 O   0  0  0  0  0  0  0  0  0  0  0  0
   25.3942  -20.9700  -10.4966 N   0  0  0  0  0  0  0  0  0  0  0  0
   26.5362  -20.3394   -9.8283 C   0  0  1  0  0  0  0  0  0  0  0  0
   26.4824  -20.5981   -8.3705 C   0  0  0  0  0  0  0  0  0  0  0  0
   27.3931  -19.8008   -7.5655 C   0  0  0  0  0  0  0  0  0  0  0  0
   28.1619  -18.6981   -7.9219 C   0  0  0  0  0  0  0  0  0  0  0  0
   28.8962  -18.2592   -6.8920 N   0  0  0  0  0  0  0  0  0  0  0  0
   28.6375  -19.0473   -5.8406 C   0  0  0  0  0  0  0  0  0  0  0  0
   29.1395  -18.9916   -4.5380 C   0  0  0  0  0  0  0  0  0  0  0  0
   28.7304  -19.8935   -3.5854 C   0  0  0  0  0  0  0  0  0  0  0  0
   27.8029  -20.8565   -3.9693 C   0  0  0  0  0  0  0  0  0  0  0  0
   27.3147  -20.9061   -5.2493 C   0  0  0  0  0  0  0  0  0  0  0  0
   27.7130  -20.0085   -6.2250 C   0  0  0  0  0  0  0  0  0  0  0  0
   27.7603  -20.6069  -10.5465 C   0  0  0  0  0  0  0  0  0  0  0  0
   28.2976  -21.8581  -10.6436 O   0  0  0  0  0  0  0  0  0  0  0  0
   28.3741  -19.6435  -11.1123 O   0  0  0  0  0  0  0  0  0  0  0  0
  2  3  1  0
  2  1  1  1
  3  4  1  0
  4  5  1  0
  5  9  1  0
  6  5  2  0
  7  2  1  0
  8  7  2  0
 11 10  1  6
 11 13  1  0
 12 11  1  0
 13 14  1  6
 14  7  1  0
 15 13  1  0
 15 17  1  0
 16 15  2  0
 18 17  1  0
 18 29  1  0
 18 19  1  1
 20 19  1  0
 20 21  2  0
 22 21  1  0
 23 22  1  0
 24 23  2  0
 25 24  1  0
 26 25  2  0
 26 27  1  0
 27 28  2  0
 28 23  1  0
 28 20  1  0
 29 30  1  0
 31 29  2  0
M  END
$$$$
