ETW.pdb
     RDKit          3D

 31 32  0  0  1  0  0  0  0  0999 V2000
   26.4532  -22.7878  -16.9567 N   0  0  0  0  0  0  0  0  0  0  0  0
   27.4404  -21.7287  -16.9736 C   0  0  1  0  0  0  0  0  0  0  0  0
   27.3808  -21.0293  -18.2866 C   0  0  0  0  0  0  0  0  0  0  0  0
   27.6104  -22.0926  -19.3681 C   0  0  0  0  0  0  0  0  0  0  0  0
   29.0609  -22.3587  -19.5289 C   0  0  0  0  0  0  0  0  0  0  0  0
   29.5292  -23.4818  -19.2857 O   0  0  0  0  0  0  0  0  0  0  0  0
   27.3073  -20.8799  -15.7927 C   0  0  0  0  0  0  0  0  0  0  0  0
   27.6440  -19.6704  -15.8685 O   0  0  0  0  0  0  0  0  0  0  0  0
   29.8961  -21.3519  -19.9515 O   0  0  0  0  0  0  0  0  0  0  0  0
   25.8407  -18.6983  -15.0896 C   0  0  0  0  0  0  0  0  0  0  0  0
   25.4279  -19.4880  -13.8844 C   0  0  1  0  0  0  0  0  0  0  0  0
   24.2062  -20.0987  -14.0149 O   0  0  0  0  0  0  0  0  0  0  0  0
   26.5362  -20.4236  -13.4198 C   0  0  2  0  0  0  0  0  0  0  0  0
   26.8145  -21.3290  -14.5354 N   0  0  0  0  0  0  0  0  0  0  0  0
   26.2276  -21.1379  -12.1874 C   0  0  0  0  0  0  0  0  0  0  0  0
   25.9827  -22.3639  -12.2106 O   0  0  0  0  0  0  0  0  0  0  0  0
   26.2039  -20.4497  -10.9564 N   0  0  0  0  0  0  0  0  0  0  0  0
   25.9291  -21.0885   -9.6661 C   0  0  1  0  0  0  0  0  0  0  0  0
   27.1332  -21.0393   -8.8042 C   0  0  0  0  0  0  0  0  0  0  0  0
   26.8757  -20.8091   -7.3922 C   0  0  0  0  0  0  0  0  0  0  0  0
   25.8016  -21.2136   -6.6067 C   0  0  0  0  0  0  0  0  0  0  0  0
   25.9226  -20.7746   -5.3477 N   0  0  0  0  0  0  0  0  0  0  0  0
   27.0634  -20.0778   -5.2657 C   0  0  0  0  0  0  0  0  0  0  0  0
   27.6398  -19.4344   -4.1677 C   0  0  0  0  0  0  0  0  0  0  0  0
   28.8418  -18.7790   -4.2855 C   0  0  0  0  0  0  0  0  0  0  0  0
   29.4556  -18.7829   -5.5337 C   0  0  0  0  0  0  0  0  0  0  0  0
   28.8844  -19.4156   -6.6073 C   0  0  0  0  0  0  0  0  0  0  0  0
   27.6744  -20.0813   -6.5119 C   0  0  0  0  0  0  0  0  0  0  0  0
   24.6631  -20.6416   -9.1338 C   0  0  0  0  0  0  0  0  0  0  0  0
   23.9253  -21.3914   -8.2637 O   0  0  0  0  0  0  0  0  0  0  0  0
   24.2046  -19.5057   -9.4869 O   0  0  0  0  0  0  0  0  0  0  0  0
  2  3  1  0
  2  1  1  6
  3  4  1  0
  4  5  1  0
  5  9  1  0
  6  5  2  0
  7  2  1  0
  8  7  2  0
 11 10  1  6
 11 13  1  0
 12 11  1  0
 13 14  1  6
 14  7  1  0
 15 13  1  0
 15 17  1  0
 16 15  2  0
 18 17  1  0
 18 29  1  0
 18 19  1  1
 20 19  1  0
 20 21  2  0
 22 21  1  0
 23 22  1  0
 24 23  2  0
 25 24  1  0
 26 25  2  0
 26 27  1  0
 27 28  2  0
 28 23  1  0
 28 20  1  0
 29 30  1  0
 31 29  2  0
M  END
$$$$
