QWD.pdb
     RDKit          3D

 32 33  0  0  1  0  0  0  0  0999 V2000
   18.3099  -14.1051  -20.7920 N   0  0  0  0  0  0  0  0  0  0  0  0
   17.6965  -13.0155  -20.0781 C   0  0  0  0  0  0  0  0  0  0  0  0
   16.4553  -13.0381  -19.9971 O   0  0  0  0  0  0  0  0  0  0  0  0
   18.5279  -11.9458  -19.4926 C   0  0  0  0  0  0  0  0  0  0  0  0
   17.9694  -11.3474  -18.2456 C   0  0  0  0  0  0  0  0  0  0  0  0
   18.6826  -11.8403  -17.0241 C   0  0  2  0  0  0  0  0  0  0  0  0
   18.4402  -13.2057  -16.7334 N   0  0  0  0  0  0  0  0  0  0  0  0
   18.4548  -10.9544  -15.8574 C   0  0  0  0  0  0  0  0  0  0  0  0
   17.2645  -10.9177  -15.4177 O   0  0  0  0  0  0  0  0  0  0  0  0
   19.4097  -10.1699  -15.2057 N   0  0  0  0  0  0  0  0  0  0  0  0
   19.0838   -9.3033  -14.0898 C   0  0  1  0  0  0  0  0  0  0  0  0
   20.3459   -9.0399  -13.3132 C   0  0  0  0  0  0  0  0  0  0  0  0
   20.1727   -8.0273  -12.2586 C   0  0  0  0  0  0  0  0  0  0  0  0
   19.5382   -8.2008  -11.0465 C   0  0  0  0  0  0  0  0  0  0  0  0
   19.5796   -7.0540  -10.3474 N   0  0  0  0  0  0  0  0  0  0  0  0
   20.2422   -6.1304  -11.1041 C   0  0  0  0  0  0  0  0  0  0  0  0
   20.5659   -4.8083  -10.8774 C   0  0  0  0  0  0  0  0  0  0  0  0
   21.2520   -4.1130  -11.8408 C   0  0  0  0  0  0  0  0  0  0  0  0
   21.6330   -4.6885  -13.0348 C   0  0  0  0  0  0  0  0  0  0  0  0
   21.3134   -6.0080  -13.2681 C   0  0  0  0  0  0  0  0  0  0  0  0
   20.6242   -6.7188  -12.3086 C   0  0  0  0  0  0  0  0  0  0  0  0
   18.4995   -8.0669  -14.6623 C   0  0  0  0  0  0  0  0  0  0  0  0
   19.0061   -7.6509  -15.7375 O   0  0  0  0  0  0  0  0  0  0  0  0
   17.4459   -7.3509  -14.0964 N   0  0  0  0  0  0  0  0  0  0  0  0
   16.9567   -6.1207  -14.7566 C   0  0  1  0  0  0  0  0  0  0  0  0
   15.5178   -6.3464  -15.1987 C   0  0  0  0  0  0  0  0  0  0  0  0
   14.9771   -5.1162  -15.7603 C   0  0  0  0  0  0  0  0  0  0  0  0
   15.5632   -4.2876  -16.4832 O   0  0  0  0  0  0  0  0  0  0  0  0
   17.0849   -5.0650  -13.7294 C   0  0  0  0  0  0  0  0  0  0  0  0
   17.1183   -3.7192  -14.0109 O   0  0  0  0  0  0  0  0  0  0  0  0
   13.6338   -4.8148  -15.4591 O   0  0  0  0  0  0  0  0  0  0  0  0
   17.1711   -5.3821  -12.5192 O   0  0  0  0  0  0  0  0  0  0  0  0
  2  1  1  0
  3  2  2  0
  4  2  1  0
  5  4  1  0
  6  8  1  0
  6  5  1  0
  6  7  1  1
  8  9  2  0
 10 11  1  0
 10  8  1  0
 11 12  1  6
 12 13  1  0
 13 14  2  0
 15 14  1  0
 16 15  1  0
 17 16  2  0
 18 17  1  0
 19 20  1  0
 19 18  2  0
 20 21  2  0
 21 16  1  0
 21 13  1  0
 22 11  1  0
 23 22  2  0
 24 22  1  0
 25 24  1  0
 25 26  1  1
 27 26  1  0
 27 28  2  0
 29 25  1  0
 29 30  1  0
 31 27  1  0
 32 29  2  0
M  END
$$$$
