QWD.pdb
     RDKit          3D

 32 33  0  0  1  0  0  0  0  0999 V2000
   26.9112  -20.4247  -17.7455 N   0  0  0  0  0  0  0  0  0  0  0  0
   28.0584  -21.2723  -17.9422 C   0  0  0  0  0  0  0  0  0  0  0  0
   28.6956  -21.1023  -18.9972 O   0  0  0  0  0  0  0  0  0  0  0  0
   28.4239  -22.2799  -16.9277 C   0  0  0  0  0  0  0  0  0  0  0  0
   27.5600  -22.2679  -15.7117 C   0  0  0  0  0  0  0  0  0  0  0  0
   28.0191  -21.2502  -14.7130 C   0  0  2  0  0  0  0  0  0  0  0  0
   29.4281  -21.1686  -14.5876 N   0  0  0  0  0  0  0  0  0  0  0  0
   27.3336  -21.4098  -13.4082 C   0  0  0  0  0  0  0  0  0  0  0  0
   26.1812  -21.9405  -13.4526 O   0  0  0  0  0  0  0  0  0  0  0  0
   27.8271  -21.0390  -12.1549 N   0  0  0  0  0  0  0  0  0  0  0  0
   27.0412  -21.1415  -10.9407 C   0  0  1  0  0  0  0  0  0  0  0  0
   27.9098  -20.7332   -9.7812 C   0  0  0  0  0  0  0  0  0  0  0  0
   27.1691  -20.6374   -8.5124 C   0  0  0  0  0  0  0  0  0  0  0  0
   25.8227  -20.8699   -8.3250 C   0  0  0  0  0  0  0  0  0  0  0  0
   25.5089  -20.6856   -7.0316 N   0  0  0  0  0  0  0  0  0  0  0  0
   26.6518  -20.3323   -6.3734 C   0  0  0  0  0  0  0  0  0  0  0  0
   26.9025  -20.0297   -5.0506 C   0  0  0  0  0  0  0  0  0  0  0  0
   28.1792  -19.7023   -4.6697 C   0  0  0  0  0  0  0  0  0  0  0  0
   29.2284  -19.6637   -5.5639 C   0  0  0  0  0  0  0  0  0  0  0  0
   28.9858  -19.9647   -6.8861 C   0  0  0  0  0  0  0  0  0  0  0  0
   27.7076  -20.2955   -7.2828 C   0  0  0  0  0  0  0  0  0  0  0  0
   25.8670  -20.2530  -11.1126 C   0  0  0  0  0  0  0  0  0  0  0  0
   26.1083  -19.0521  -11.4049 O   0  0  0  0  0  0  0  0  0  0  0  0
   24.5398  -20.6556  -10.9738 N   0  0  0  0  0  0  0  0  0  0  0  0
   23.4844  -19.9904  -11.7689 C   0  0  1  0  0  0  0  0  0  0  0  0
   23.7743  -20.2164  -13.2460 C   0  0  0  0  0  0  0  0  0  0  0  0
   22.6870  -19.6747  -14.0492 C   0  0  0  0  0  0  0  0  0  0  0  0
   21.6547  -19.1043  -13.6470 O   0  0  0  0  0  0  0  0  0  0  0  0
   22.2235  -20.6231  -11.3260 C   0  0  0  0  0  0  0  0  0  0  0  0
   21.0053  -19.9847  -11.3175 O   0  0  0  0  0  0  0  0  0  0  0  0
   22.8026  -19.8033  -15.4478 O   0  0  0  0  0  0  0  0  0  0  0  0
   22.2308  -21.8121  -10.9278 O   0  0  0  0  0  0  0  0  0  0  0  0
  2  1  1  0
  3  2  2  0
  4  2  1  0
  5  4  1  0
  6  8  1  0
  6  5  1  0
  6  7  1  1
  8  9  2  0
 10 11  1  0
 10  8  1  0
 11 12  1  1
 12 13  1  0
 13 14  2  0
 15 14  1  0
 16 15  1  0
 17 16  2  0
 18 17  1  0
 19 20  1  0
 19 18  2  0
 20 21  2  0
 21 16  1  0
 21 13  1  0
 22 11  1  0
 23 22  2  0
 24 22  1  0
 25 24  1  0
 25 26  1  6
 27 26  1  0
 27 28  2  0
 29 25  1  0
 29 30  1  0
 31 27  1  0
 32 29  2  0
M  END
$$$$
