QWD.pdb
     RDKit          3D

 32 33  0  0  1  0  0  0  0  0999 V2000
   28.1479  -16.7382  -15.1317 N   0  0  0  0  0  0  0  0  0  0  0  0
   28.4884  -17.4723  -16.3226 C   0  0  0  0  0  0  0  0  0  0  0  0
   29.3187  -16.9397  -17.0807 O   0  0  0  0  0  0  0  0  0  0  0  0
   27.8617  -18.7800  -16.5972 C   0  0  0  0  0  0  0  0  0  0  0  0
   26.9473  -19.2605  -15.5211 C   0  0  0  0  0  0  0  0  0  0  0  0
   27.6613  -20.1285  -14.5308 C   0  0  2  0  0  0  0  0  0  0  0  0
   28.5546  -21.0551  -15.1235 N   0  0  0  0  0  0  0  0  0  0  0  0
   26.7216  -20.7648  -13.5769 C   0  0  0  0  0  0  0  0  0  0  0  0
   26.3211  -21.9277  -13.8909 O   0  0  0  0  0  0  0  0  0  0  0  0
   26.2436  -20.2161  -12.3843 N   0  0  0  0  0  0  0  0  0  0  0  0
   25.3784  -20.9445  -11.4770 C   0  0  1  0  0  0  0  0  0  0  0  0
   25.6559  -20.4682  -10.0765 C   0  0  0  0  0  0  0  0  0  0  0  0
   27.0122  -20.8034   -9.6122 C   0  0  0  0  0  0  0  0  0  0  0  0
   27.9283  -21.6077  -10.2570 C   0  0  0  0  0  0  0  0  0  0  0  0
   29.0561  -21.6794   -9.5302 N   0  0  0  0  0  0  0  0  0  0  0  0
   28.8764  -20.9207   -8.4092 C   0  0  0  0  0  0  0  0  0  0  0  0
   29.6991  -20.6452   -7.3361 C   0  0  0  0  0  0  0  0  0  0  0  0
   29.2390  -19.8309   -6.3324 C   0  0  0  0  0  0  0  0  0  0  0  0
   27.9777  -19.2735   -6.3548 C   0  0  0  0  0  0  0  0  0  0  0  0
   27.1509  -19.5440   -7.4230 C   0  0  0  0  0  0  0  0  0  0  0  0
   27.6003  -20.3607   -8.4387 C   0  0  0  0  0  0  0  0  0  0  0  0
   23.9843  -20.6756  -11.9037 C   0  0  0  0  0  0  0  0  0  0  0  0
   23.6993  -19.4788  -12.1725 O   0  0  0  0  0  0  0  0  0  0  0  0
   22.9898  -21.6450  -12.0236 N   0  0  0  0  0  0  0  0  0  0  0  0
   21.6593  -21.2696  -12.5502 C   0  0  1  0  0  0  0  0  0  0  0  0
   20.9676  -22.5253  -13.0615 C   0  0  0  0  0  0  0  0  0  0  0  0
   21.3641  -22.7789  -14.4397 C   0  0  0  0  0  0  0  0  0  0  0  0
   21.3506  -23.8665  -15.0477 O   0  0  0  0  0  0  0  0  0  0  0  0
   20.9598  -20.6533  -11.4026 C   0  0  0  0  0  0  0  0  0  0  0  0
   20.0544  -19.6243  -11.5171 O   0  0  0  0  0  0  0  0  0  0  0  0
   21.8185  -21.6730  -15.1857 O   0  0  0  0  0  0  0  0  0  0  0  0
   21.1832  -21.0704  -10.2413 O   0  0  0  0  0  0  0  0  0  0  0  0
  2  1  1  0
  3  2  2  0
  4  2  1  0
  5  4  1  0
  6  8  1  0
  6  5  1  0
  6  7  1  6
  8  9  2  0
 10 11  1  0
 10  8  1  0
 11 12  1  1
 12 13  1  0
 13 14  2  0
 15 14  1  0
 16 15  1  0
 17 16  2  0
 18 17  1  0
 19 20  1  0
 19 18  2  0
 20 21  2  0
 21 16  1  0
 21 13  1  0
 22 11  1  0
 23 22  2  0
 24 22  1  0
 25 24  1  0
 25 26  1  1
 27 26  1  0
 27 28  2  0
 29 25  1  0
 29 30  1  0
 31 27  1  0
 32 29  2  0
M  END
$$$$
