QWD.pdb
     RDKit          3D

 32 33  0  0  1  0  0  0  0  0999 V2000
   28.8628  -19.3155  -17.0404 N   0  0  0  0  0  0  0  0  0  0  0  0
   27.6372  -19.9060  -17.5119 C   0  0  0  0  0  0  0  0  0  0  0  0
   27.5262  -20.0374  -18.7441 O   0  0  0  0  0  0  0  0  0  0  0  0
   26.5906  -20.3156  -16.5553 C   0  0  0  0  0  0  0  0  0  0  0  0
   26.8956  -19.9851  -15.1331 C   0  0  0  0  0  0  0  0  0  0  0  0
   27.5117  -21.1446  -14.4122 C   0  0  2  0  0  0  0  0  0  0  0  0
   27.5709  -22.3310  -15.1847 N   0  0  0  0  0  0  0  0  0  0  0  0
   26.8965  -21.3556  -13.0799 C   0  0  0  0  0  0  0  0  0  0  0  0
   25.8366  -22.0542  -13.0670 O   0  0  0  0  0  0  0  0  0  0  0  0
   27.3648  -20.8679  -11.8574 N   0  0  0  0  0  0  0  0  0  0  0  0
   26.6146  -20.9948  -10.6230 C   0  0  1  0  0  0  0  0  0  0  0  0
   27.5053  -20.5748   -9.4848 C   0  0  0  0  0  0  0  0  0  0  0  0
   26.8026  -20.5237   -8.1920 C   0  0  0  0  0  0  0  0  0  0  0  0
   25.4910  -20.8766   -7.9529 C   0  0  0  0  0  0  0  0  0  0  0  0
   25.2055  -20.6973   -6.6522 N   0  0  0  0  0  0  0  0  0  0  0  0
   26.3323  -20.2268   -6.0411 C   0  0  0  0  0  0  0  0  0  0  0  0
   26.5984  -19.8768   -4.7330 C   0  0  0  0  0  0  0  0  0  0  0  0
   27.8512  -19.4249   -4.4033 C   0  0  0  0  0  0  0  0  0  0  0  0
   28.8612  -19.3064   -5.3349 C   0  0  0  0  0  0  0  0  0  0  0  0
   28.6028  -19.6541   -6.6426 C   0  0  0  0  0  0  0  0  0  0  0  0
   27.3484  -20.1097   -6.9881 C   0  0  0  0  0  0  0  0  0  0  0  0
   25.4172  -20.1311  -10.7571 C   0  0  0  0  0  0  0  0  0  0  0  0
   25.6049  -18.9787  -11.2288 O   0  0  0  0  0  0  0  0  0  0  0  0
   24.1231  -20.5073  -10.4010 N   0  0  0  0  0  0  0  0  0  0  0  0
   22.9734  -20.0224  -11.1957 C   0  0  1  0  0  0  0  0  0  0  0  0
   23.2483  -20.3003  -12.6668 C   0  0  0  0  0  0  0  0  0  0  0  0
   22.1044  -19.8867  -13.4676 C   0  0  0  0  0  0  0  0  0  0  0  0
   21.5634  -18.7646  -13.4995 O   0  0  0  0  0  0  0  0  0  0  0  0
   21.8114  -20.7738  -10.6749 C   0  0  0  0  0  0  0  0  0  0  0  0
   21.7995  -22.1361  -10.4860 O   0  0  0  0  0  0  0  0  0  0  0  0
   21.5316  -20.8598  -14.3108 O   0  0  0  0  0  0  0  0  0  0  0  0
   20.7576  -20.1622  -10.3783 O   0  0  0  0  0  0  0  0  0  0  0  0
  2  1  1  0
  3  2  2  0
  4  2  1  0
  5  4  1  0
  6  8  1  0
  6  5  1  0
  6  7  1  6
  8  9  2  0
 10 11  1  0
 10  8  1  0
 11 12  1  1
 12 13  1  0
 13 14  2  0
 15 14  1  0
 16 15  1  0
 17 16  2  0
 18 17  1  0
 19 20  1  0
 19 18  2  0
 20 21  2  0
 21 16  1  0
 21 13  1  0
 22 11  1  0
 23 22  2  0
 24 22  1  0
 25 24  1  0
 25 26  1  6
 27 26  1  0
 27 28  2  0
 29 25  1  0
 29 30  1  0
 31 27  1  0
 32 29  2  0
M  END
$$$$
