QWD.pdb
     RDKit          3D

 32 33  0  0  1  0  0  0  0  0999 V2000
   29.8952  -23.5862  -16.7609 N   0  0  0  0  0  0  0  0  0  0  0  0
   29.9208  -22.2410  -17.2737 C   0  0  0  0  0  0  0  0  0  0  0  0
   30.5485  -22.0663  -18.3336 O   0  0  0  0  0  0  0  0  0  0  0  0
   29.2327  -21.1540  -16.5505 C   0  0  0  0  0  0  0  0  0  0  0  0
   28.5557  -21.5857  -15.2933 C   0  0  0  0  0  0  0  0  0  0  0  0
   27.8851  -20.4392  -14.6006 C   0  0  2  0  0  0  0  0  0  0  0  0
   28.6856  -19.2728  -14.5217 N   0  0  0  0  0  0  0  0  0  0  0  0
   27.3221  -20.8405  -13.2892 C   0  0  0  0  0  0  0  0  0  0  0  0
   26.5294  -21.8319  -13.3100 O   0  0  0  0  0  0  0  0  0  0  0  0
   27.5775  -20.2424  -12.0527 N   0  0  0  0  0  0  0  0  0  0  0  0
   26.9403  -20.6766  -10.8247 C   0  0  1  0  0  0  0  0  0  0  0  0
   27.6637  -20.0409   -9.6680 C   0  0  0  0  0  0  0  0  0  0  0  0
   27.0566  -20.3578   -8.3647 C   0  0  0  0  0  0  0  0  0  0  0  0
   25.8200  -20.9289   -8.1491 C   0  0  0  0  0  0  0  0  0  0  0  0
   25.6104  -21.0662   -6.8290 N   0  0  0  0  0  0  0  0  0  0  0  0
   26.7118  -20.5841   -6.1816 C   0  0  0  0  0  0  0  0  0  0  0  0
   27.0275  -20.4821   -4.8421 C   0  0  0  0  0  0  0  0  0  0  0  0
   28.2353  -19.9421   -4.4789 C   0  0  0  0  0  0  0  0  0  0  0  0
   29.1518  -19.4943   -5.4070 C   0  0  0  0  0  0  0  0  0  0  0  0
   28.8436  -19.5931   -6.7461 C   0  0  0  0  0  0  0  0  0  0  0  0
   27.6334  -20.1338   -7.1254 C   0  0  0  0  0  0  0  0  0  0  0  0
   25.5202  -20.2590  -10.9065 C   0  0  0  0  0  0  0  0  0  0  0  0
   25.3048  -19.0422  -11.1488 O   0  0  0  0  0  0  0  0  0  0  0  0
   24.4309  -21.1118  -10.7355 N   0  0  0  0  0  0  0  0  0  0  0  0
   23.0881  -20.6861  -11.1874 C   0  0  1  0  0  0  0  0  0  0  0  0
   22.5958  -21.6692  -12.2399 C   0  0  0  0  0  0  0  0  0  0  0  0
   21.2160  -21.3635  -12.5915 C   0  0  0  0  0  0  0  0  0  0  0  0
   20.7295  -20.2496  -12.8659 O   0  0  0  0  0  0  0  0  0  0  0  0
   22.2594  -20.6903   -9.9629 C   0  0  0  0  0  0  0  0  0  0  0  0
   21.0752  -20.0027   -9.8343 O   0  0  0  0  0  0  0  0  0  0  0  0
   20.3136  -22.4452  -12.6302 O   0  0  0  0  0  0  0  0  0  0  0  0
   22.6305  -21.3500   -8.9631 O   0  0  0  0  0  0  0  0  0  0  0  0
  2  1  1  0
  3  2  2  0
  4  2  1  0
  5  4  1  0
  6  8  1  0
  6  5  1  0
  6  7  1  1
  8  9  2  0
 10 11  1  0
 10  8  1  0
 11 12  1  1
 12 13  1  0
 13 14  2  0
 15 14  1  0
 16 15  1  0
 17 16  2  0
 18 17  1  0
 19 20  1  0
 19 18  2  0
 20 21  2  0
 21 16  1  0
 21 13  1  0
 22 11  1  0
 23 22  2  0
 24 22  1  0
 25 24  1  0
 25 26  1  6
 27 26  1  0
 27 28  2  0
 29 25  1  0
 29 30  1  0
 31 27  1  0
 32 29  2  0
M  END
$$$$
