QWD.pdb
     RDKit          3D

 32 33  0  0  1  0  0  0  0  0999 V2000
   28.2044  -17.7126  -14.5534 N   0  0  0  0  0  0  0  0  0  0  0  0
   28.2869  -18.2152  -15.9001 C   0  0  0  0  0  0  0  0  0  0  0  0
   29.1642  -17.7114  -16.6244 O   0  0  0  0  0  0  0  0  0  0  0  0
   27.3604  -19.2673  -16.3615 C   0  0  0  0  0  0  0  0  0  0  0  0
   26.5451  -19.8862  -15.2763 C   0  0  0  0  0  0  0  0  0  0  0  0
   27.3642  -20.8001  -14.4175 C   0  0  2  0  0  0  0  0  0  0  0  0
   27.7172  -22.0164  -15.0527 N   0  0  0  0  0  0  0  0  0  0  0  0
   26.7470  -21.0049  -13.0851 C   0  0  0  0  0  0  0  0  0  0  0  0
   25.8434  -21.8947  -13.0275 O   0  0  0  0  0  0  0  0  0  0  0  0
   27.0606  -20.3240  -11.9062 N   0  0  0  0  0  0  0  0  0  0  0  0
   26.3823  -20.5773  -10.6499 C   0  0  1  0  0  0  0  0  0  0  0  0
   27.1581  -19.9024   -9.5508 C   0  0  0  0  0  0  0  0  0  0  0  0
   26.7359  -20.3241   -8.2050 C   0  0  0  0  0  0  0  0  0  0  0  0
   25.6394  -21.0994   -7.8908 C   0  0  0  0  0  0  0  0  0  0  0  0
   25.5782  -21.2762   -6.5602 N   0  0  0  0  0  0  0  0  0  0  0  0
   26.6362  -20.6156   -6.0047 C   0  0  0  0  0  0  0  0  0  0  0  0
   27.0514  -20.4668   -4.6971 C   0  0  0  0  0  0  0  0  0  0  0  0
   28.1779  -19.7296   -4.4329 C   0  0  0  0  0  0  0  0  0  0  0  0
   28.9160  -19.1276   -5.4304 C   0  0  0  0  0  0  0  0  0  0  0  0
   28.5076  -19.2719   -6.7381 C   0  0  0  0  0  0  0  0  0  0  0  0
   27.3774  -20.0101   -7.0181 C   0  0  0  0  0  0  0  0  0  0  0  0
   25.0072  -20.0406  -10.7881 C   0  0  0  0  0  0  0  0  0  0  0  0
   24.8756  -19.0059  -11.4937 O   0  0  0  0  0  0  0  0  0  0  0  0
   23.8743  -20.5983  -10.1979 N   0  0  0  0  0  0  0  0  0  0  0  0
   22.5501  -20.4110  -10.8302 C   0  0  1  0  0  0  0  0  0  0  0  0
   22.4479  -21.3442  -12.0283 C   0  0  0  0  0  0  0  0  0  0  0  0
   21.7420  -20.6765  -13.1131 C   0  0  0  0  0  0  0  0  0  0  0  0
   21.2557  -19.5292  -13.1123 O   0  0  0  0  0  0  0  0  0  0  0  0
   21.5753  -20.7313   -9.7657 C   0  0  0  0  0  0  0  0  0  0  0  0
   20.2952  -20.2305   -9.7202 O   0  0  0  0  0  0  0  0  0  0  0  0
   21.5831  -21.4012  -14.3112 O   0  0  0  0  0  0  0  0  0  0  0  0
   21.9039  -21.5026   -8.8331 O   0  0  0  0  0  0  0  0  0  0  0  0
  2  1  1  0
  3  2  2  0
  4  2  1  0
  5  4  1  0
  6  8  1  0
  6  5  1  0
  6  7  1  6
  8  9  2  0
 10 11  1  0
 10  8  1  0
 11 12  1  1
 12 13  1  0
 13 14  2  0
 15 14  1  0
 16 15  1  0
 17 16  2  0
 18 17  1  0
 19 20  1  0
 19 18  2  0
 20 21  2  0
 21 16  1  0
 21 13  1  0
 22 11  1  0
 23 22  2  0
 24 22  1  0
 25 24  1  0
 25 26  1  6
 27 26  1  0
 27 28  2  0
 29 25  1  0
 29 30  1  0
 31 27  1  0
 32 29  2  0
M  END
$$$$
