QWD.pdb
     RDKit          3D

 32 33  0  0  1  0  0  0  0  0999 V2000
   16.6768  -13.8053  -15.7703 N   0  0  0  0  0  0  0  0  0  0  0  0
   17.0706  -14.8737  -16.6515 C   0  0  0  0  0  0  0  0  0  0  0  0
   16.3410  -15.8814  -16.6574 O   0  0  0  0  0  0  0  0  0  0  0  0
   18.2831  -14.7457  -17.4831 C   0  0  0  0  0  0  0  0  0  0  0  0
   19.0004  -13.4472  -17.3268 C   0  0  0  0  0  0  0  0  0  0  0  0
   20.4506  -13.5664  -17.6828 C   0  0  2  0  0  0  0  0  0  0  0  0
   20.9685  -14.8771  -17.5368 N   0  0  0  0  0  0  0  0  0  0  0  0
   21.2731  -12.5427  -16.9948 C   0  0  0  0  0  0  0  0  0  0  0  0
   21.4176  -12.7018  -15.7436 O   0  0  0  0  0  0  0  0  0  0  0  0
   21.8952  -11.4384  -17.5825 N   0  0  0  0  0  0  0  0  0  0  0  0
   22.7358  -10.5224  -16.8363 C   0  0  1  0  0  0  0  0  0  0  0  0
   24.0717  -10.4410  -17.5250 C   0  0  0  0  0  0  0  0  0  0  0  0
   24.9249  -11.6130  -17.2675 C   0  0  0  0  0  0  0  0  0  0  0  0
   24.7942  -12.8661  -17.8283 C   0  0  0  0  0  0  0  0  0  0  0  0
   25.7560  -13.6754  -17.3535 N   0  0  0  0  0  0  0  0  0  0  0  0
   26.5158  -12.9497  -16.4815 C   0  0  0  0  0  0  0  0  0  0  0  0
   27.6181  -13.2783  -15.7190 C   0  0  0  0  0  0  0  0  0  0  0  0
   28.1854  -12.3212  -14.9162 C   0  0  0  0  0  0  0  0  0  0  0  0
   27.6932  -11.0351  -14.8415 C   0  0  0  0  0  0  0  0  0  0  0  0
   26.5931  -10.6998  -15.5999 C   0  0  0  0  0  0  0  0  0  0  0  0
   26.0129  -11.6516  -16.4112 C   0  0  0  0  0  0  0  0  0  0  0  0
   22.0305   -9.2188  -16.8068 C   0  0  0  0  0  0  0  0  0  0  0  0
   21.4551   -8.8665  -17.8701 O   0  0  0  0  0  0  0  0  0  0  0  0
   21.9657   -8.3761  -15.6984 N   0  0  0  0  0  0  0  0  0  0  0  0
   21.1648   -7.1342  -15.7669 C   0  0  1  0  0  0  0  0  0  0  0  0
   19.6937   -7.5104  -15.8729 C   0  0  0  0  0  0  0  0  0  0  0  0
   18.8707   -6.3142  -15.7599 C   0  0  0  0  0  0  0  0  0  0  0  0
   19.2121   -5.1334  -15.9646 O   0  0  0  0  0  0  0  0  0  0  0  0
   21.4855   -6.4094  -14.5187 C   0  0  0  0  0  0  0  0  0  0  0  0
   21.4102   -6.9688  -13.2645 O   0  0  0  0  0  0  0  0  0  0  0  0
   17.5278   -6.4988  -15.3747 O   0  0  0  0  0  0  0  0  0  0  0  0
   21.8509   -5.2109  -14.5719 O   0  0  0  0  0  0  0  0  0  0  0  0
  2  1  1  0
  3  2  2  0
  4  2  1  0
  5  4  1  0
  6  8  1  0
  6  5  1  0
  6  7  1  1
  8  9  2  0
 10 11  1  0
 10  8  1  0
 11 12  1  6
 12 13  1  0
 13 14  2  0
 15 14  1  0
 16 15  1  0
 17 16  2  0
 18 17  1  0
 19 20  1  0
 19 18  2  0
 20 21  2  0
 21 16  1  0
 21 13  1  0
 22 11  1  0
 23 22  2  0
 24 22  1  0
 25 24  1  0
 25 26  1  1
 27 26  1  0
 27 28  2  0
 29 25  1  0
 29 30  1  0
 31 27  1  0
 32 29  2  0
M  END
$$$$
