QWD.pdb
     RDKit          3D

 32 33  0  0  1  0  0  0  0  0999 V2000
   25.9447  -27.4242  -16.9883 N   0  0  0  0  0  0  0  0  0  0  0  0
   26.0615  -26.5714  -18.1425 C   0  0  0  0  0  0  0  0  0  0  0  0
   26.3899  -27.1254  -19.2070 O   0  0  0  0  0  0  0  0  0  0  0  0
   25.8028  -25.1229  -18.0286 C   0  0  0  0  0  0  0  0  0  0  0  0
   25.4040  -24.6761  -16.6624 C   0  0  0  0  0  0  0  0  0  0  0  0
   26.1752  -23.4689  -16.2246 C   0  0  2  0  0  0  0  0  0  0  0  0
   27.5621  -23.7067  -16.0583 N   0  0  0  0  0  0  0  0  0  0  0  0
   25.5575  -22.8181  -15.0444 C   0  0  0  0  0  0  0  0  0  0  0  0
   25.6610  -23.4514  -13.9490 O   0  0  0  0  0  0  0  0  0  0  0  0
   24.8844  -21.5941  -15.0229 N   0  0  0  0  0  0  0  0  0  0  0  0
   24.4118  -20.9802  -13.7972 C   0  0  1  0  0  0  0  0  0  0  0  0
   25.1994  -19.7182  -13.5680 C   0  0  0  0  0  0  0  0  0  0  0  0
   26.5254  -19.9658  -12.9781 C   0  0  0  0  0  0  0  0  0  0  0  0
   27.7401  -19.9079  -13.6286 C   0  0  0  0  0  0  0  0  0  0  0  0
   28.7287  -20.1927  -12.7643 N   0  0  0  0  0  0  0  0  0  0  0  0
   28.1588  -20.4368  -11.5477 C   0  0  0  0  0  0  0  0  0  0  0  0
   28.6990  -20.7719  -10.3229 C   0  0  0  0  0  0  0  0  0  0  0  0
   27.8624  -20.9605   -9.2520 C   0  0  0  0  0  0  0  0  0  0  0  0
   26.4935  -20.8272   -9.3532 C   0  0  0  0  0  0  0  0  0  0  0  0
   25.9471  -20.4928  -10.5728 C   0  0  0  0  0  0  0  0  0  0  0  0
   26.7759  -20.3002  -11.6575 C   0  0  0  0  0  0  0  0  0  0  0  0
   22.9630  -20.7221  -13.9767 C   0  0  0  0  0  0  0  0  0  0  0  0
   22.6014  -20.3094  -15.1101 O   0  0  0  0  0  0  0  0  0  0  0  0
   21.9960  -20.9042  -12.9894 N   0  0  0  0  0  0  0  0  0  0  0  0
   20.5775  -20.6100  -13.2890 C   0  0  1  0  0  0  0  0  0  0  0  0
   19.7043  -21.3830  -12.3108 C   0  0  0  0  0  0  0  0  0  0  0  0
   19.6554  -22.7861  -12.6979 C   0  0  0  0  0  0  0  0  0  0  0  0
   20.1318  -23.3098  -13.7233 O   0  0  0  0  0  0  0  0  0  0  0  0
   20.4558  -19.1444  -13.1356 C   0  0  0  0  0  0  0  0  0  0  0  0
   21.4376  -18.3439  -12.6000 O   0  0  0  0  0  0  0  0  0  0  0  0
   18.9946  -23.6671  -11.8185 O   0  0  0  0  0  0  0  0  0  0  0  0
   19.4070  -18.5654  -13.5059 O   0  0  0  0  0  0  0  0  0  0  0  0
  2  1  1  0
  3  2  2  0
  4  2  1  0
  5  4  1  0
  6  8  1  0
  6  5  1  0
  6  7  1  1
  8  9  2  0
 10 11  1  0
 10  8  1  0
 11 12  1  6
 12 13  1  0
 13 14  2  0
 15 14  1  0
 16 15  1  0
 17 16  2  0
 18 17  1  0
 19 20  1  0
 19 18  2  0
 20 21  2  0
 21 16  1  0
 21 13  1  0
 22 11  1  0
 23 22  2  0
 24 22  1  0
 25 24  1  0
 25 26  1  1
 27 26  1  0
 27 28  2  0
 29 25  1  0
 29 30  1  0
 31 27  1  0
 32 29  2  0
M  END
$$$$
