QWD.pdb
     RDKit          3D

 32 33  0  0  1  0  0  0  0  0999 V2000
   29.4511  -17.8759  -16.7286 N   0  0  0  0  0  0  0  0  0  0  0  0
   28.2168  -18.5840  -16.9480 C   0  0  0  0  0  0  0  0  0  0  0  0
   27.1948  -17.8858  -17.0738 O   0  0  0  0  0  0  0  0  0  0  0  0
   28.2038  -20.0586  -17.0089 C   0  0  0  0  0  0  0  0  0  0  0  0
   27.2852  -20.7054  -16.0275 C   0  0  0  0  0  0  0  0  0  0  0  0
   27.9042  -20.8031  -14.6670 C   0  0  2  0  0  0  0  0  0  0  0  0
   29.0497  -21.6357  -14.6193 N   0  0  0  0  0  0  0  0  0  0  0  0
   26.9023  -21.1430  -13.6285 C   0  0  0  0  0  0  0  0  0  0  0  0
   26.1037  -22.0855  -13.9210 O   0  0  0  0  0  0  0  0  0  0  0  0
   26.7562  -20.5358  -12.3788 N   0  0  0  0  0  0  0  0  0  0  0  0
   25.7579  -20.9556  -11.4146 C   0  0  1  0  0  0  0  0  0  0  0  0
   26.0550  -20.2788  -10.1034 C   0  0  0  0  0  0  0  0  0  0  0  0
   27.3401  -20.6955   -9.5182 C   0  0  0  0  0  0  0  0  0  0  0  0
   28.2875  -21.5080  -10.1050 C   0  0  0  0  0  0  0  0  0  0  0  0
   29.3279  -21.6642   -9.2692 N   0  0  0  0  0  0  0  0  0  0  0  0
   29.0597  -20.9526   -8.1351 C   0  0  0  0  0  0  0  0  0  0  0  0
   29.7736  -20.7654   -6.9691 C   0  0  0  0  0  0  0  0  0  0  0  0
   29.2415  -19.9803   -5.9778 C   0  0  0  0  0  0  0  0  0  0  0  0
   28.0125  -19.3671   -6.1027 C   0  0  0  0  0  0  0  0  0  0  0  0
   27.2941  -19.5494   -7.2639 C   0  0  0  0  0  0  0  0  0  0  0  0
   27.8168  -20.3358   -8.2684 C   0  0  0  0  0  0  0  0  0  0  0  0
   24.4375  -20.5701  -11.9675 C   0  0  0  0  0  0  0  0  0  0  0  0
   24.3990  -19.5083  -12.6434 O   0  0  0  0  0  0  0  0  0  0  0  0
   23.2602  -21.2949  -11.7897 N   0  0  0  0  0  0  0  0  0  0  0  0
   22.0448  -20.9163  -12.5433 C   0  0  1  0  0  0  0  0  0  0  0  0
   21.7814  -21.9757  -13.6039 C   0  0  0  0  0  0  0  0  0  0  0  0
   20.5200  -21.6961  -14.2759 C   0  0  0  0  0  0  0  0  0  0  0  0
   19.3774  -22.0519  -13.9286 O   0  0  0  0  0  0  0  0  0  0  0  0
   20.9764  -20.8438  -11.5238 C   0  0  0  0  0  0  0  0  0  0  0  0
   21.0359  -21.4733  -10.3024 O   0  0  0  0  0  0  0  0  0  0  0  0
   20.5839  -20.9341  -15.4597 O   0  0  0  0  0  0  0  0  0  0  0  0
   19.9400  -20.1767  -11.7554 O   0  0  0  0  0  0  0  0  0  0  0  0
  2  1  1  0
  3  2  2  0
  4  2  1  0
  5  4  1  0
  6  8  1  0
  6  5  1  0
  6  7  1  6
  8  9  2  0
 10 11  1  0
 10  8  1  0
 11 12  1  1
 12 13  1  0
 13 14  2  0
 15 14  1  0
 16 15  1  0
 17 16  2  0
 18 17  1  0
 19 20  1  0
 19 18  2  0
 20 21  2  0
 21 16  1  0
 21 13  1  0
 22 11  1  0
 23 22  2  0
 24 22  1  0
 25 24  1  0
 25 26  1  6
 27 26  1  0
 27 28  2  0
 29 25  1  0
 29 30  1  0
 31 27  1  0
 32 29  2  0
M  END
$$$$
