QWD.pdb
     RDKit          3D

 32 33  0  0  1  0  0  0  0  0999 V2000
   19.6947  -13.5377  -19.8351 N   0  0  0  0  0  0  0  0  0  0  0  0
   20.8154  -13.5802  -20.7382 C   0  0  0  0  0  0  0  0  0  0  0  0
   20.7884  -14.4677  -21.6097 O   0  0  0  0  0  0  0  0  0  0  0  0
   21.9195  -12.6104  -20.6026 C   0  0  0  0  0  0  0  0  0  0  0  0
   21.7720  -11.6687  -19.4551 C   0  0  0  0  0  0  0  0  0  0  0  0
   23.0947  -11.3323  -18.8379 C   0  0  2  0  0  0  0  0  0  0  0  0
   23.8407  -12.4666  -18.4326 N   0  0  0  0  0  0  0  0  0  0  0  0
   22.9603  -10.3185  -17.7645 C   0  0  0  0  0  0  0  0  0  0  0  0
   22.4957  -10.7422  -16.6616 O   0  0  0  0  0  0  0  0  0  0  0  0
   23.2917   -8.9640  -17.8491 N   0  0  0  0  0  0  0  0  0  0  0  0
   23.1158   -8.0428  -16.7433 C   0  0  1  0  0  0  0  0  0  0  0  0
   24.4714   -7.5310  -16.3358 C   0  0  0  0  0  0  0  0  0  0  0  0
   25.3471   -8.5851  -15.7976 C   0  0  0  0  0  0  0  0  0  0  0  0
   25.0829   -9.4054  -14.7209 C   0  0  0  0  0  0  0  0  0  0  0  0
   26.1151  -10.2437  -14.5285 N   0  0  0  0  0  0  0  0  0  0  0  0
   27.0548   -9.9705  -15.4808 C   0  0  0  0  0  0  0  0  0  0  0  0
   28.2925  -10.5206  -15.7447 C   0  0  0  0  0  0  0  0  0  0  0  0
   29.0323  -10.0317  -16.7916 C   0  0  0  0  0  0  0  0  0  0  0  0
   28.5835   -9.0049  -17.5955 C   0  0  0  0  0  0  0  0  0  0  0  0
   27.3487   -8.4509  -17.3381 C   0  0  0  0  0  0  0  0  0  0  0  0
   26.5946   -8.9325  -16.2893 C   0  0  0  0  0  0  0  0  0  0  0  0
   22.2202   -6.9627  -17.2220 C   0  0  0  0  0  0  0  0  0  0  0  0
   22.4884   -6.4675  -18.3483 O   0  0  0  0  0  0  0  0  0  0  0  0
   21.1223   -6.4714  -16.5176 N   0  0  0  0  0  0  0  0  0  0  0  0
   20.3066   -5.3819  -17.0975 C   0  0  1  0  0  0  0  0  0  0  0  0
   18.9195   -5.4284  -16.4724 C   0  0  0  0  0  0  0  0  0  0  0  0
   18.1044   -4.3443  -17.0026 C   0  0  0  0  0  0  0  0  0  0  0  0
   18.4092   -3.5287  -17.8941 O   0  0  0  0  0  0  0  0  0  0  0  0
   21.0446   -4.1432  -16.7701 C   0  0  0  0  0  0  0  0  0  0  0  0
   21.1015   -3.0426  -17.5930 O   0  0  0  0  0  0  0  0  0  0  0  0
   16.8167   -4.1872  -16.4520 O   0  0  0  0  0  0  0  0  0  0  0  0
   21.6672   -4.0587  -15.6849 O   0  0  0  0  0  0  0  0  0  0  0  0
  2  1  1  0
  3  2  2  0
  4  2  1  0
  5  4  1  0
  6  8  1  0
  6  5  1  0
  6  7  1  1
  8  9  2  0
 10 11  1  0
 10  8  1  0
 11 12  1  6
 12 13  1  0
 13 14  2  0
 15 14  1  0
 16 15  1  0
 17 16  2  0
 18 17  1  0
 19 20  1  0
 19 18  2  0
 20 21  2  0
 21 16  1  0
 21 13  1  0
 22 11  1  0
 23 22  2  0
 24 22  1  0
 25 24  1  0
 25 26  1  1
 27 26  1  0
 27 28  2  0
 29 25  1  0
 29 30  1  0
 31 27  1  0
 32 29  2  0
M  END
$$$$
