QWD.pdb
     RDKit          3D

 32 33  0  0  1  0  0  0  0  0999 V2000
   27.9021  -20.1016  -17.9217 N   0  0  0  0  0  0  0  0  0  0  0  0
   28.5407  -18.9065  -17.4346 C   0  0  0  0  0  0  0  0  0  0  0  0
   29.3043  -18.3266  -18.2274 O   0  0  0  0  0  0  0  0  0  0  0  0
   28.2826  -18.4297  -16.0620 C   0  0  0  0  0  0  0  0  0  0  0  0
   27.2567  -19.2191  -15.3207 C   0  0  0  0  0  0  0  0  0  0  0  0
   27.8810  -20.1389  -14.3167 C   0  0  2  0  0  0  0  0  0  0  0  0
   28.7564  -21.0963  -14.8864 N   0  0  0  0  0  0  0  0  0  0  0  0
   26.8679  -20.7466  -13.4210 C   0  0  0  0  0  0  0  0  0  0  0  0
   26.3446  -21.8270  -13.8340 O   0  0  0  0  0  0  0  0  0  0  0  0
   26.4421  -20.2526  -12.1855 N   0  0  0  0  0  0  0  0  0  0  0  0
   25.4908  -20.9543  -11.3458 C   0  0  1  0  0  0  0  0  0  0  0  0
   25.7181  -20.5300   -9.9197 C   0  0  0  0  0  0  0  0  0  0  0  0
   27.0798  -20.8216   -9.4420 C   0  0  0  0  0  0  0  0  0  0  0  0
   28.0412  -21.5630  -10.0963 C   0  0  0  0  0  0  0  0  0  0  0  0
   29.1586  -21.6103   -9.3516 N   0  0  0  0  0  0  0  0  0  0  0  0
   28.9267  -20.8989   -8.2095 C   0  0  0  0  0  0  0  0  0  0  0  0
   29.7183  -20.6247   -7.1129 C   0  0  0  0  0  0  0  0  0  0  0  0
   29.2058  -19.8658   -6.0912 C   0  0  0  0  0  0  0  0  0  0  0  0
   27.9218  -19.3633   -6.1182 C   0  0  0  0  0  0  0  0  0  0  0  0
   27.1259  -19.6328   -7.2098 C   0  0  0  0  0  0  0  0  0  0  0  0
   27.6279  -20.3941   -8.2438 C   0  0  0  0  0  0  0  0  0  0  0  0
   24.1385  -20.5970  -11.8371 C   0  0  0  0  0  0  0  0  0  0  0  0
   23.8858  -19.3681  -11.9451 O   0  0  0  0  0  0  0  0  0  0  0  0
   23.1496  -21.5175  -12.1801 N   0  0  0  0  0  0  0  0  0  0  0  0
   21.8950  -21.0469  -12.8070 C   0  0  1  0  0  0  0  0  0  0  0  0
   21.3694  -22.1428  -13.7234 C   0  0  0  0  0  0  0  0  0  0  0  0
   22.1516  -22.1742  -14.9515 C   0  0  0  0  0  0  0  0  0  0  0  0
   22.5439  -21.2047  -15.6290 O   0  0  0  0  0  0  0  0  0  0  0  0
   20.9906  -20.7616  -11.6726 C   0  0  0  0  0  0  0  0  0  0  0  0
   19.8165  -20.0543  -11.7852 O   0  0  0  0  0  0  0  0  0  0  0  0
   22.5150  -23.4439  -15.4431 O   0  0  0  0  0  0  0  0  0  0  0  0
   21.2827  -21.1750  -10.5253 O   0  0  0  0  0  0  0  0  0  0  0  0
  2  1  1  0
  3  2  2  0
  4  2  1  0
  5  4  1  0
  6  8  1  0
  6  5  1  0
  6  7  1  6
  8  9  2  0
 10 11  1  0
 10  8  1  0
 11 12  1  1
 12 13  1  0
 13 14  2  0
 15 14  1  0
 16 15  1  0
 17 16  2  0
 18 17  1  0
 19 20  1  0
 19 18  2  0
 20 21  2  0
 21 16  1  0
 21 13  1  0
 22 11  1  0
 23 22  2  0
 24 22  1  0
 25 24  1  0
 25 26  1  6
 27 26  1  0
 27 28  2  0
 29 25  1  0
 29 30  1  0
 31 27  1  0
 32 29  2  0
M  END
$$$$
