ART.pdb
     RDKit          3D

 24 23  0  0  1  0  0  0  0  0999 V2000
   13.0719  -18.3685   17.3692 C   0  0  0  0  0  0  0  0  0  0  0  0
   12.4232  -19.2732   18.3855 C   0  0  2  0  0  0  0  0  0  0  0  0
   11.2353  -19.8933   17.8741 N   0  0  0  0  0  0  0  0  0  0  0  0
   12.1616  -18.5379   19.6772 C   0  0  0  0  0  0  0  0  0  0  0  0
   13.1501  -18.2461   20.3481 O   0  0  0  0  0  0  0  0  0  0  0  0
    7.5499  -11.8871   20.6498 N   0  0  0  0  0  0  0  0  0  0  0  0
    7.9402  -12.9956   19.8366 C   0  0  0  0  0  0  0  0  0  0  0  0
    7.9421  -12.8656   18.5472 N   0  0  0  0  0  0  0  0  0  0  0  0
    8.3268  -14.2379   20.3819 N   0  0  0  0  0  0  0  0  0  0  0  0
    8.1906  -14.5157   21.7643 C   0  0  0  0  0  0  0  0  0  0  0  0
    8.8461  -15.7960   22.2377 C   0  0  0  0  0  0  0  0  0  0  0  0
    9.2849  -16.5102   20.9674 C   0  0  0  0  0  0  0  0  0  0  0  0
   10.4645  -17.4356   21.1881 C   0  0  2  0  0  0  0  0  0  0  0  0
   10.8536  -18.2156   20.0716 N   0  0  0  0  0  0  0  0  0  0  0  0
   10.3205  -18.1224   22.4637 C   0  0  0  0  0  0  0  0  0  0  0  0
    9.2941  -18.8375   22.6245 O   0  0  0  0  0  0  0  0  0  0  0  0
    8.2161  -13.6162   17.9022 C   0  0  0  0  0  0  0  0  0  0  0  0
   13.7151  -18.3772   25.2116 C   0  0  2  0  0  0  0  0  0  0  0  0
   12.7527  -19.4654   24.8298 O   0  0  0  0  0  0  0  0  0  0  0  0
   12.7108  -20.3767   25.8895 C   0  0  1  0  0  0  0  0  0  0  0  0
   11.3435  -18.9820   24.6023 N   0  0  0  0  0  0  0  0  0  0  0  0
   11.2334  -18.0460   23.5138 C   0  0  0  0  0  0  0  0  0  0  0  0
   10.8925  -18.3200   25.8410 O   0  0  0  0  0  0  0  0  0  0  0  0
   10.6597  -17.0830   25.9221 O   0  0  0  0  0  0  0  0  0  0  0  0
  2  3  1  0
  2  1  1  6
  4  2  1  0
  5  4  2  0
  6  7  1  0
  7  9  1  0
  8  7  2  0
 10  9  1  0
 10 11  1  0
 11 12  1  0
 13 12  1  6
 13 14  1  0
 14  4  1  0
 15 13  1  0
 15 21  1  0
 16 15  2  0
 18 17  1  6
 19 18  1  0
 20 18  1  0
 20 21  1  6
 20 22  1  0
 22 24  1  0
 23 22  2  0
M  END
$$$$
