ART.pdb
     RDKit          3D

 24 23  0  0  1  0  0  0  0  0999 V2000
    9.6974  -19.9243   18.0666 C   0  0  0  0  0  0  0  0  0  0  0  0
    9.5492  -19.5411   19.5170 C   0  0  2  0  0  0  0  0  0  0  0  0
    8.2165  -19.7614   19.9988 N   0  0  0  0  0  0  0  0  0  0  0  0
   10.0040  -18.1214   19.7519 C   0  0  0  0  0  0  0  0  0  0  0  0
   11.1955  -17.8908   19.5532 O   0  0  0  0  0  0  0  0  0  0  0  0
    8.9498  -14.6276   15.3810 N   0  0  0  0  0  0  0  0  0  0  0  0
    7.8131  -13.7644   15.4534 C   0  0  0  0  0  0  0  0  0  0  0  0
    7.1717  -13.4690   14.3666 N   0  0  0  0  0  0  0  0  0  0  0  0
    7.3546  -13.2136   16.6686 N   0  0  0  0  0  0  0  0  0  0  0  0
    8.1088  -13.3210   17.8629 C   0  0  0  0  0  0  0  0  0  0  0  0
    8.5354  -14.7246   18.2383 C   0  0  0  0  0  0  0  0  0  0  0  0
    8.4009  -14.7881   19.7530 C   0  0  0  0  0  0  0  0  0  0  0  0
    9.3711  -15.7616   20.3914 C   0  0  2  0  0  0  0  0  0  0  0  0
    9.0994  -17.1347   20.1743 N   0  0  0  0  0  0  0  0  0  0  0  0
    9.6592  -15.3466   21.7568 C   0  0  0  0  0  0  0  0  0  0  0  0
   10.0675  -14.1659   21.9300 O   0  0  0  0  0  0  0  0  0  0  0  0
    7.4339  -13.8240   13.4394 C   0  0  0  0  0  0  0  0  0  0  0  0
    7.7000  -14.5927   24.8193 C   0  0  2  0  0  0  0  0  0  0  0  0
    8.6386  -15.7213   25.1377 O   0  0  0  0  0  0  0  0  0  0  0  0
    7.9290  -16.9145   24.9706 C   0  0  2  0  0  0  0  0  0  0  0  0
    9.8419  -15.7884   24.2328 N   0  0  0  0  0  0  0  0  0  0  0  0
    9.5150  -16.1584   22.8802 C   0  0  0  0  0  0  0  0  0  0  0  0
   10.7631  -16.7979   24.7882 O   0  0  0  0  0  0  0  0  0  0  0  0
   11.0591  -17.8700   24.1933 O   0  0  0  0  0  0  0  0  0  0  0  0
  2  3  1  0
  2  1  1  6
  4  2  1  0
  5  4  2  0
  6  7  1  0
  7  9  1  0
  8  7  2  0
 10  9  1  0
 10 11  1  0
 11 12  1  0
 13 12  1  1
 13 14  1  0
 14  4  1  0
 15 13  1  0
 15 21  1  0
 16 15  2  0
 18 17  1  1
 19 18  1  0
 20 18  1  0
 20 21  1  1
 20 22  1  0
 22 24  1  0
 23 22  2  0
M  END
$$$$
