ART.pdb
     RDKit          3D

 24 23  0  0  1  0  0  0  0  0999 V2000
    8.1934  -12.2967   20.4949 C   0  0  0  0  0  0  0  0  0  0  0  0
    7.9869  -13.7563   20.1795 C   0  0  2  0  0  0  0  0  0  0  0  0
    6.7871  -13.9801   19.4264 N   0  0  0  0  0  0  0  0  0  0  0  0
    8.0266  -14.5931   21.4348 C   0  0  0  0  0  0  0  0  0  0  0  0
    6.9883  -14.6388   22.0924 O   0  0  0  0  0  0  0  0  0  0  0  0
   12.7838  -21.7259   23.3547 N   0  0  0  0  0  0  0  0  0  0  0  0
   11.9113  -21.5712   24.4759 C   0  0  0  0  0  0  0  0  0  0  0  0
   11.8600  -22.5057   25.3724 N   0  0  0  0  0  0  0  0  0  0  0  0
   11.0946  -20.4342   24.6507 N   0  0  0  0  0  0  0  0  0  0  0  0
   10.9796  -19.4421   23.6461 C   0  0  0  0  0  0  0  0  0  0  0  0
   10.1870  -18.2119   24.0351 C   0  0  0  0  0  0  0  0  0  0  0  0
   10.1588  -17.3463   22.7836 C   0  0  0  0  0  0  0  0  0  0  0  0
    9.3924  -16.0533   22.9775 C   0  0  2  0  0  0  0  0  0  0  0  0
    9.1953  -15.2728   21.8121 N   0  0  0  0  0  0  0  0  0  0  0  0
    9.8771  -15.3664   24.1661 C   0  0  0  0  0  0  0  0  0  0  0  0
   10.8678  -14.5981   24.0283 O   0  0  0  0  0  0  0  0  0  0  0  0
   11.2418  -22.4719   26.1916 C   0  0  0  0  0  0  0  0  0  0  0  0
    9.0111  -12.9809   28.2723 C   0  0  2  0  0  0  0  0  0  0  0  0
    8.5982  -13.8619   27.1280 O   0  0  0  0  0  0  0  0  0  0  0  0
    8.2004  -13.0263   26.0799 C   0  0  1  0  0  0  0  0  0  0  0  0
    9.7052  -14.7391   26.6025 N   0  0  0  0  0  0  0  0  0  0  0  0
    9.3249  -15.4970   25.4388 C   0  0  0  0  0  0  0  0  0  0  0  0
   10.0786  -15.6792   27.6762 O   0  0  0  0  0  0  0  0  0  0  0  0
    9.8820  -16.9233   27.6094 O   0  0  0  0  0  0  0  0  0  0  0  0
  2  3  1  0
  2  1  1  1
  4  2  1  0
  5  4  2  0
  6  7  1  0
  7  9  1  0
  8  7  2  0
 10  9  1  0
 10 11  1  0
 11 12  1  0
 13 12  1  6
 13 14  1  0
 14  4  1  0
 15 13  1  0
 15 21  1  0
 16 15  2  0
 18 17  1  1
 19 18  1  0
 20 18  1  0
 20 21  1  1
 20 22  1  0
 22 24  1  0
 23 22  2  0
M  END
$$$$
