ART.pdb
     RDKit          3D

 24 23  0  0  1  0  0  0  0  0999 V2000
   10.3704  -13.4950   28.2569 C   0  0  0  0  0  0  0  0  0  0  0  0
    9.2885  -14.5441   28.2212 C   0  0  2  0  0  0  0  0  0  0  0  0
    9.3988  -15.4689   29.3118 N   0  0  0  0  0  0  0  0  0  0  0  0
    9.2610  -15.2494   26.8872 C   0  0  0  0  0  0  0  0  0  0  0  0
    9.7838  -16.3619   26.8480 O   0  0  0  0  0  0  0  0  0  0  0  0
    8.9531  -15.0786   18.3661 N   0  0  0  0  0  0  0  0  0  0  0  0
    8.2470  -13.9983   18.9799 C   0  0  0  0  0  0  0  0  0  0  0  0
    8.6602  -12.7842   18.7931 N   0  0  0  0  0  0  0  0  0  0  0  0
    7.1088  -14.1981   19.7891 N   0  0  0  0  0  0  0  0  0  0  0  0
    7.1283  -13.9204   21.1780 C   0  0  0  0  0  0  0  0  0  0  0  0
    8.0089  -14.8285   22.0102 C   0  0  0  0  0  0  0  0  0  0  0  0
    7.8620  -14.3235   23.4384 C   0  0  0  0  0  0  0  0  0  0  0  0
    8.6531  -15.1425   24.4384 C   0  0  2  0  0  0  0  0  0  0  0  0
    8.6665  -14.6495   25.7662 N   0  0  0  0  0  0  0  0  0  0  0  0
    9.9309  -15.5293   23.8578 C   0  0  0  0  0  0  0  0  0  0  0  0
   10.8672  -14.6853   23.9022 O   0  0  0  0  0  0  0  0  0  0  0  0
    8.2219  -11.9632   19.2273 C   0  0  0  0  0  0  0  0  0  0  0  0
   12.8973  -19.3259   22.5075 C   0  0  2  0  0  0  0  0  0  0  0  0
   11.5531  -18.7770   22.8920 O   0  0  0  0  0  0  0  0  0  0  0  0
   11.2747  -19.2233   24.1875 C   0  0  1  0  0  0  0  0  0  0  0  0
   11.4929  -17.2714   22.9172 N   0  0  0  0  0  0  0  0  0  0  0  0
   10.1909  -16.7611   23.2603 C   0  0  0  0  0  0  0  0  0  0  0  0
   11.8492  -16.7871   21.5701 O   0  0  0  0  0  0  0  0  0  0  0  0
   11.0301  -16.7327   20.6125 O   0  0  0  0  0  0  0  0  0  0  0  0
  2  3  1  0
  2  1  1  6
  4  2  1  0
  5  4  2  0
  6  7  1  0
  7  9  1  0
  8  7  2  0
 10  9  1  0
 10 11  1  0
 11 12  1  0
 13 12  1  6
 13 14  1  0
 14  4  1  0
 15 13  1  0
 15 21  1  0
 16 15  2  0
 18 17  1  6
 19 18  1  0
 20 18  1  0
 20 21  1  6
 20 22  1  0
 22 24  1  0
 23 22  2  0
M  END
$$$$
