ART.pdb
     RDKit          3D

 24 23  0  0  1  0  0  0  0  0999 V2000
    7.9783  -12.2426   18.5135 C   0  0  0  0  0  0  0  0  0  0  0  0
    8.1715  -13.5422   17.7745 C   0  0  2  0  0  0  0  0  0  0  0  0
    7.0628  -13.8436   16.9161 N   0  0  0  0  0  0  0  0  0  0  0  0
    8.4641  -14.6718   18.7316 C   0  0  0  0  0  0  0  0  0  0  0  0
    7.5043  -15.1183   19.3576 O   0  0  0  0  0  0  0  0  0  0  0  0
   13.5111  -21.3416   20.8022 N   0  0  0  0  0  0  0  0  0  0  0  0
   14.2348  -20.2757   20.1838 C   0  0  0  0  0  0  0  0  0  0  0  0
   15.5147  -20.1884   20.3683 N   0  0  0  0  0  0  0  0  0  0  0  0
   13.6102  -19.3040   19.3739 N   0  0  0  0  0  0  0  0  0  0  0  0
   12.2331  -19.3813   19.0513 C   0  0  0  0  0  0  0  0  0  0  0  0
   11.3207  -18.5027   19.8809 C   0  0  0  0  0  0  0  0  0  0  0  0
   11.1378  -17.2341   19.0601 C   0  0  0  0  0  0  0  0  0  0  0  0
   10.1817  -16.2488   19.7016 C   0  0  2  0  0  0  0  0  0  0  0  0
    9.7679  -15.1692   18.8833 N   0  0  0  0  0  0  0  0  0  0  0  0
   10.6327  -15.9299   21.0486 C   0  0  0  0  0  0  0  0  0  0  0  0
   11.5440  -15.0657   21.1656 O   0  0  0  0  0  0  0  0  0  0  0  0
   16.0908  -19.4260   19.9924 C   0  0  0  0  0  0  0  0  0  0  0  0
    8.3592  -14.6552   23.9599 C   0  0  2  0  0  0  0  0  0  0  0  0
    9.1613  -15.8545   24.3775 O   0  0  0  0  0  0  0  0  0  0  0  0
    8.3501  -16.9802   24.2053 C   0  0  2  0  0  0  0  0  0  0  0  0
   10.4059  -16.0728   23.5561 N   0  0  0  0  0  0  0  0  0  0  0  0
   10.1296  -16.5090   22.2120 C   0  0  0  0  0  0  0  0  0  0  0  0
   11.2115  -17.1076   24.2315 O   0  0  0  0  0  0  0  0  0  0  0  0
   11.4021  -18.2600   23.7554 O   0  0  0  0  0  0  0  0  0  0  0  0
  2  3  1  0
  2  1  1  1
  4  2  1  0
  5  4  2  0
  6  7  1  0
  7  9  1  0
  8  7  2  0
 10  9  1  0
 10 11  1  0
 11 12  1  0
 13 12  1  6
 13 14  1  0
 14  4  1  0
 15 13  1  0
 15 21  1  0
 16 15  2  0
 18 17  1  1
 19 18  1  0
 20 18  1  0
 20 21  1  1
 20 22  1  0
 22 24  1  0
 23 22  2  0
M  END
$$$$
