ART.pdb
     RDKit          3D

 24 23  0  0  1  0  0  0  0  0999 V2000
    6.4848  -20.6561   19.2567 C   0  0  0  0  0  0  0  0  0  0  0  0
    7.0894  -20.3849   20.6107 C   0  0  2  0  0  0  0  0  0  0  0  0
    6.1022  -20.3847   21.6511 N   0  0  0  0  0  0  0  0  0  0  0  0
    7.8937  -19.1079   20.5993 C   0  0  0  0  0  0  0  0  0  0  0  0
    8.8285  -19.0598   19.8017 O   0  0  0  0  0  0  0  0  0  0  0  0
   10.0220  -12.9998   18.9468 N   0  0  0  0  0  0  0  0  0  0  0  0
    8.7293  -13.1713   18.3620 C   0  0  0  0  0  0  0  0  0  0  0  0
    8.6197  -13.2231   17.0717 N   0  0  0  0  0  0  0  0  0  0  0  0
    7.5555  -13.2870   19.1359 N   0  0  0  0  0  0  0  0  0  0  0  0
    7.5929  -13.2424   20.5513 C   0  0  0  0  0  0  0  0  0  0  0  0
    8.4125  -14.3292   21.2145 C   0  0  0  0  0  0  0  0  0  0  0  0
    7.5641  -15.5880   21.1055 C   0  0  0  0  0  0  0  0  0  0  0  0
    8.2773  -16.8260   21.6110 C   0  0  2  0  0  0  0  0  0  0  0  0
    7.5748  -18.0468   21.4610 N   0  0  0  0  0  0  0  0  0  0  0  0
    8.8735  -16.5551   22.9113 C   0  0  0  0  0  0  0  0  0  0  0  0
    8.0891  -16.3641   23.8804 O   0  0  0  0  0  0  0  0  0  0  0  0
    7.7205  -13.3010   16.5819 C   0  0  0  0  0  0  0  0  0  0  0  0
    9.8169  -19.0667   24.7337 C   0  0  2  0  0  0  0  0  0  0  0  0
   11.0938  -18.2843   24.6169 O   0  0  0  0  0  0  0  0  0  0  0  0
   11.7788  -18.7674   23.4978 C   0  0  2  0  0  0  0  0  0  0  0  0
   10.8871  -16.8060   24.4085 N   0  0  0  0  0  0  0  0  0  0  0  0
   10.2434  -16.4936   23.1590 C   0  0  0  0  0  0  0  0  0  0  0  0
   12.2140  -16.1618   24.4294 O   0  0  0  0  0  0  0  0  0  0  0  0
   12.7548  -15.6524   23.4101 O   0  0  0  0  0  0  0  0  0  0  0  0
  2  3  1  0
  2  1  1  6
  4  2  1  0
  5  4  2  0
  6  7  1  0
  7  9  1  0
  8  7  2  0
 10  9  1  0
 10 11  1  0
 11 12  1  0
 13 12  1  1
 13 14  1  0
 14  4  1  0
 15 13  1  0
 15 21  1  0
 16 15  2  0
 18 17  1  1
 19 18  1  0
 20 18  1  0
 20 21  1  1
 20 22  1  0
 22 24  1  0
 23 22  2  0
M  END
$$$$
