ART.pdb
     RDKit          3D

 24 23  0  0  1  0  0  0  0  0999 V2000
    8.9476  -21.4079   21.8436 C   0  0  0  0  0  0  0  0  0  0  0  0
    8.5246  -20.2812   20.9359 C   0  0  2  0  0  0  0  0  0  0  0  0
    8.5340  -20.6693   19.5553 N   0  0  0  0  0  0  0  0  0  0  0  0
    9.3591  -19.0473   21.1782 C   0  0  0  0  0  0  0  0  0  0  0  0
   10.5756  -19.1792   21.0547 O   0  0  0  0  0  0  0  0  0  0  0  0
    8.3481  -11.9078   18.7620 N   0  0  0  0  0  0  0  0  0  0  0  0
    7.5915  -12.9863   18.2081 C   0  0  0  0  0  0  0  0  0  0  0  0
    7.7290  -13.2774   16.9527 N   0  0  0  0  0  0  0  0  0  0  0  0
    6.6917  -13.7550   18.9760 N   0  0  0  0  0  0  0  0  0  0  0  0
    7.0431  -14.2481   20.2566 C   0  0  0  0  0  0  0  0  0  0  0  0
    8.4712  -14.7312   20.3978 C   0  0  0  0  0  0  0  0  0  0  0  0
    8.5406  -15.3653   21.7796 C   0  0  0  0  0  0  0  0  0  0  0  0
    9.4120  -16.6046   21.8172 C   0  0  2  0  0  0  0  0  0  0  0  0
    8.7586  -17.8269   21.5250 N   0  0  0  0  0  0  0  0  0  0  0  0
   10.2670  -16.5705   22.9951 C   0  0  0  0  0  0  0  0  0  0  0  0
    9.7415  -16.2075   24.0827 O   0  0  0  0  0  0  0  0  0  0  0  0
    7.2911  -14.0933   16.5088 C   0  0  0  0  0  0  0  0  0  0  0  0
   11.6970  -19.0185   25.3303 C   0  0  2  0  0  0  0  0  0  0  0  0
   12.8225  -18.3120   24.6301 O   0  0  0  0  0  0  0  0  0  0  0  0
   13.1435  -19.0613   23.4941 C   0  0  2  0  0  0  0  0  0  0  0  0
   12.4742  -16.9222   24.1629 N   0  0  0  0  0  0  0  0  0  0  0  0
   11.6184  -16.9104   23.0050 C   0  0  0  0  0  0  0  0  0  0  0  0
   13.7350  -16.2353   23.8243 O   0  0  0  0  0  0  0  0  0  0  0  0
   14.0731  -15.9463   22.6439 O   0  0  0  0  0  0  0  0  0  0  0  0
  2  3  1  0
  2  1  1  1
  4  2  1  0
  5  4  2  0
  6  7  1  0
  7  9  1  0
  8  7  2  0
 10  9  1  0
 10 11  1  0
 11 12  1  0
 13 12  1  1
 13 14  1  0
 14  4  1  0
 15 13  1  0
 15 21  1  0
 16 15  2  0
 18 17  1  1
 19 18  1  0
 20 18  1  0
 20 21  1  1
 20 22  1  0
 22 24  1  0
 23 22  2  0
M  END
$$$$
