ART.pdb
     RDKit          3D

 24 23  0  0  1  0  0  0  0  0999 V2000
    5.7913  -21.2707   24.0249 C   0  0  0  0  0  0  0  0  0  0  0  0
    5.7749  -20.6796   22.6382 C   0  0  2  0  0  0  0  0  0  0  0  0
    5.6411  -21.6861   21.6252 N   0  0  0  0  0  0  0  0  0  0  0  0
    6.9840  -19.8068   22.4066 C   0  0  0  0  0  0  0  0  0  0  0  0
    8.0141  -20.3830   22.0613 O   0  0  0  0  0  0  0  0  0  0  0  0
    7.0639  -11.9173   19.5052 N   0  0  0  0  0  0  0  0  0  0  0  0
    7.5449  -13.1573   18.9824 C   0  0  0  0  0  0  0  0  0  0  0  0
    7.5054  -13.3635   17.7035 N   0  0  0  0  0  0  0  0  0  0  0  0
    8.0653  -14.1774   19.8063 N   0  0  0  0  0  0  0  0  0  0  0  0
    8.3398  -13.9551   21.1781 C   0  0  0  0  0  0  0  0  0  0  0  0
    8.8195  -15.1664   21.9498 C   0  0  0  0  0  0  0  0  0  0  0  0
    7.6290  -16.1141   21.9804 C   0  0  0  0  0  0  0  0  0  0  0  0
    7.9830  -17.4896   22.5089 C   0  0  2  0  0  0  0  0  0  0  0  0
    6.9140  -18.4159   22.5823 N   0  0  0  0  0  0  0  0  0  0  0  0
    8.8369  -17.3625   23.6812 C   0  0  0  0  0  0  0  0  0  0  0  0
    8.3213  -16.8751   24.7240 O   0  0  0  0  0  0  0  0  0  0  0  0
    7.8831  -14.2056   17.2532 C   0  0  0  0  0  0  0  0  0  0  0  0
   10.7074  -20.0339   25.7936 C   0  0  2  0  0  0  0  0  0  0  0  0
   11.6590  -19.0233   25.2198 O   0  0  0  0  0  0  0  0  0  0  0  0
   12.1508  -19.5467   24.0201 C   0  0  2  0  0  0  0  0  0  0  0  0
   11.0201  -17.6968   24.8982 N   0  0  0  0  0  0  0  0  0  0  0  0
   10.1771  -17.7409   23.7317 C   0  0  0  0  0  0  0  0  0  0  0  0
   12.1038  -16.7247   24.6603 O   0  0  0  0  0  0  0  0  0  0  0  0
   12.3194  -16.1851   23.5407 O   0  0  0  0  0  0  0  0  0  0  0  0
  2  3  1  0
  2  1  1  1
  4  2  1  0
  5  4  2  0
  6  7  1  0
  7  9  1  0
  8  7  2  0
 10  9  1  0
 10 11  1  0
 11 12  1  0
 13 12  1  1
 13 14  1  0
 14  4  1  0
 15 13  1  0
 15 21  1  0
 16 15  2  0
 18 17  1  1
 19 18  1  0
 20 18  1  0
 20 21  1  1
 20 22  1  0
 22 24  1  0
 23 22  2  0
M  END
$$$$
