ART.pdb
     RDKit          3D

 24 23  0  0  1  0  0  0  0  0999 V2000
    7.9520  -12.0702   19.4722 C   0  0  0  0  0  0  0  0  0  0  0  0
    8.0957  -13.5629   19.3190 C   0  0  2  0  0  0  0  0  0  0  0  0
    7.1930  -14.0932   18.3388 N   0  0  0  0  0  0  0  0  0  0  0  0
    7.9532  -14.2607   20.6497 C   0  0  0  0  0  0  0  0  0  0  0  0
    6.8129  -14.5876   20.9742 O   0  0  0  0  0  0  0  0  0  0  0  0
   10.9120  -19.8871   26.1168 N   0  0  0  0  0  0  0  0  0  0  0  0
   10.5095  -20.4179   24.8524 C   0  0  0  0  0  0  0  0  0  0  0  0
    9.9803  -21.5998   24.8011 N   0  0  0  0  0  0  0  0  0  0  0  0
   10.6654  -19.7043   23.6455 N   0  0  0  0  0  0  0  0  0  0  0  0
   11.1529  -18.3744   23.6278 C   0  0  0  0  0  0  0  0  0  0  0  0
   10.1127  -17.2977   23.8544 C   0  0  0  0  0  0  0  0  0  0  0  0
   10.1141  -16.4698   22.5773 C   0  0  0  0  0  0  0  0  0  0  0  0
    9.1280  -15.3197   22.6184 C   0  0  2  0  0  0  0  0  0  0  0  0
    9.0741  -14.5118   21.4562 N   0  0  0  0  0  0  0  0  0  0  0  0
    9.2195  -14.6374   23.9012 C   0  0  0  0  0  0  0  0  0  0  0  0
   10.3422  -14.1641   24.2274 O   0  0  0  0  0  0  0  0  0  0  0  0
    9.6462  -22.0340   23.9326 C   0  0  0  0  0  0  0  0  0  0  0  0
    6.3219  -12.1054   25.6226 C   0  0  2  0  0  0  0  0  0  0  0  0
    6.8549  -13.2282   26.4660 O   0  0  0  0  0  0  0  0  0  0  0  0
    5.9575  -14.2948   26.3573 C   0  0  2  0  0  0  0  0  0  0  0  0
    8.2043  -13.7350   26.0259 N   0  0  0  0  0  0  0  0  0  0  0  0
    8.1584  -14.4707   24.7890 C   0  0  0  0  0  0  0  0  0  0  0  0
    8.7148  -14.6253   27.0855 O   0  0  0  0  0  0  0  0  0  0  0  0
    8.9071  -15.8611   26.9213 O   0  0  0  0  0  0  0  0  0  0  0  0
  2  3  1  0
  2  1  1  1
  4  2  1  0
  5  4  2  0
  6  7  1  0
  7  9  1  0
  8  7  2  0
 10  9  1  0
 10 11  1  0
 11 12  1  0
 13 12  1  6
 13 14  1  0
 14  4  1  0
 15 13  1  0
 15 21  1  0
 16 15  2  0
 18 17  1  1
 19 18  1  0
 20 18  1  0
 20 21  1  1
 20 22  1  0
 22 24  1  0
 23 22  2  0
M  END
$$$$
