ART.pdb
     RDKit          3D

 24 23  0  0  1  0  0  0  0  0999 V2000
    7.9455  -12.4427   20.2522 C   0  0  0  0  0  0  0  0  0  0  0  0
    7.4040  -13.7390   19.7057 C   0  0  2  0  0  0  0  0  0  0  0  0
    5.9882  -13.8567   19.9022 N   0  0  0  0  0  0  0  0  0  0  0  0
    8.1503  -14.9210   20.2747 C   0  0  0  0  0  0  0  0  0  0  0  0
    7.6775  -15.4259   21.2915 O   0  0  0  0  0  0  0  0  0  0  0  0
   10.7469  -21.6076   18.9195 N   0  0  0  0  0  0  0  0  0  0  0  0
   12.1677  -21.5102   18.8002 C   0  0  0  0  0  0  0  0  0  0  0  0
   12.9005  -22.5355   19.1026 N   0  0  0  0  0  0  0  0  0  0  0  0
   12.8138  -20.3344   18.3640 N   0  0  0  0  0  0  0  0  0  0  0  0
   12.1019  -19.1251   18.1708 C   0  0  0  0  0  0  0  0  0  0  0  0
   11.5246  -18.5032   19.4249 C   0  0  0  0  0  0  0  0  0  0  0  0
   10.8693  -17.2102   18.9610 C   0  0  0  0  0  0  0  0  0  0  0  0
   10.1038  -16.5076   20.0641 C   0  0  2  0  0  0  0  0  0  0  0  0
    9.3179  -15.4004   19.6606 N   0  0  0  0  0  0  0  0  0  0  0  0
   10.9651  -16.3268   21.2239 C   0  0  0  0  0  0  0  0  0  0  0  0
   11.8534  -15.4342   21.1528 O   0  0  0  0  0  0  0  0  0  0  0  0
   13.9253  -22.5392   19.0361 C   0  0  0  0  0  0  0  0  0  0  0  0
   10.9180  -18.9598   24.7281 C   0  0  2  0  0  0  0  0  0  0  0  0
   10.9866  -17.4626   24.8276 O   0  0  0  0  0  0  0  0  0  0  0  0
   11.7993  -17.1535   25.9227 C   0  0  1  0  0  0  0  0  0  0  0  0
   11.5952  -16.7977   23.6198 N   0  0  0  0  0  0  0  0  0  0  0  0
   10.8763  -17.0665   22.4015 C   0  0  0  0  0  0  0  0  0  0  0  0
   12.9727  -17.3057   23.4764 O   0  0  0  0  0  0  0  0  0  0  0  0
   13.3164  -18.1422   22.5971 O   0  0  0  0  0  0  0  0  0  0  0  0
  2  3  1  0
  2  1  1  1
  4  2  1  0
  5  4  2  0
  6  7  1  0
  7  9  1  0
  8  7  2  0
 10  9  1  0
 10 11  1  0
 11 12  1  0
 13 12  1  6
 13 14  1  0
 14  4  1  0
 15 13  1  0
 15 21  1  0
 16 15  2  0
 18 17  1  1
 19 18  1  0
 20 18  1  0
 20 21  1  1
 20 22  1  0
 22 24  1  0
 23 22  2  0
M  END
$$$$
