EGP.pdb
     RDKit          3D

 21 21  0  0  1  0  0  0  0  0999 V2000
   24.0668  -16.8018  -17.9646 N   0  0  0  0  0  0  0  0  0  0  0  0
   24.4070  -16.5910  -16.5596 C   0  0  1  0  0  0  0  0  0  0  0  0
   23.1642  -16.6866  -15.7065 C   0  0  0  0  0  0  0  0  0  0  0  0
   22.5359  -18.0578  -15.8363 C   0  0  0  0  0  0  0  0  0  0  0  0
   21.4437  -17.9748  -16.8445 C   0  0  0  0  0  0  0  0  0  0  0  0
   21.4439  -18.8028  -17.7952 O   0  0  0  0  0  0  0  0  0  0  0  0
   25.4400  -17.5765  -16.1505 C   0  0  0  0  0  0  0  0  0  0  0  0
   25.5844  -18.6069  -16.8908 O   0  0  0  0  0  0  0  0  0  0  0  0
   20.4407  -17.0227  -16.7704 O   0  0  0  0  0  0  0  0  0  0  0  0
   26.2428  -17.4025  -14.9921 N   0  0  0  0  0  0  0  0  0  0  0  0
   27.2557  -18.3959  -14.7014 C   0  0  0  0  0  0  0  0  0  0  0  0
   26.5980  -19.5667  -14.0875 C   0  0  0  0  0  0  0  0  0  0  0  0
   25.6011  -20.1200  -14.6528 O   0  0  0  0  0  0  0  0  0  0  0  0
   27.0616  -20.0844  -12.8713 N   0  0  0  0  0  0  0  0  0  0  0  0
   28.1586  -19.5903  -12.0860 C   0  0  0  0  0  0  0  0  0  0  0  0
   28.8486  -20.9330  -11.7655 C   0  0  0  0  0  0  0  0  0  0  0  0
   27.6581  -21.7088  -11.2568 C   0  0  0  0  0  0  0  0  0  0  0  0
   26.5350  -21.2160  -12.1475 C   0  0  1  0  0  0  0  0  0  0  0  0
   25.3987  -20.6960  -11.3091 C   0  0  0  0  0  0  0  0  0  0  0  0
   25.2823  -19.4808  -11.0183 O   0  0  0  0  0  0  0  0  0  0  0  0
   24.4198  -21.5459  -10.8169 O   0  0  0  0  0  0  0  0  0  0  0  0
  2  1  1  6
  3  2  1  0
  3  4  1  0
  4  5  1  0
  5  9  1  0
  5  6  2  0
  7  8  2  0
  7  2  1  0
 10  7  1  0
 11 12  1  0
 11 10  1  0
 12 14  1  0
 13 12  2  0
 14 15  1  0
 14 18  1  0
 15 16  1  0
 16 17  1  0
 18 19  1  1
 18 17  1  0
 19 21  1  0
 20 19  2  0
M  END
$$$$
