EGP.pdb
     RDKit          3D

 21 21  0  0  1  0  0  0  0  0999 V2000
   19.0419  -12.7799  -15.3549 N   0  0  0  0  0  0  0  0  0  0  0  0
   18.8859  -12.1521  -16.6648 C   0  0  1  0  0  0  0  0  0  0  0  0
   17.4364  -11.7980  -16.8993 C   0  0  0  0  0  0  0  0  0  0  0  0
   16.6800  -12.9912  -17.4432 C   0  0  0  0  0  0  0  0  0  0  0  0
   15.5419  -13.2767  -16.5271 C   0  0  0  0  0  0  0  0  0  0  0  0
   14.7270  -14.1826  -16.8507 O   0  0  0  0  0  0  0  0  0  0  0  0
   19.7701  -10.9616  -16.7479 C   0  0  0  0  0  0  0  0  0  0  0  0
   19.9520  -10.4536  -17.9052 O   0  0  0  0  0  0  0  0  0  0  0  0
   15.3531  -12.5810  -15.3444 O   0  0  0  0  0  0  0  0  0  0  0  0
   20.3965  -10.3965  -15.6057 N   0  0  0  0  0  0  0  0  0  0  0  0
   21.1082   -9.1446  -15.7600 C   0  0  0  0  0  0  0  0  0  0  0  0
   20.4708   -8.1357  -14.8906 C   0  0  0  0  0  0  0  0  0  0  0  0
   19.4533   -8.4361  -14.1878 O   0  0  0  0  0  0  0  0  0  0  0  0
   20.9768   -6.8310  -14.8286 N   0  0  0  0  0  0  0  0  0  0  0  0
   22.0943   -6.3037  -15.5616 C   0  0  0  0  0  0  0  0  0  0  0  0
   22.8044   -5.5569  -14.4128 C   0  0  0  0  0  0  0  0  0  0  0  0
   21.6366   -4.7710  -13.8683 C   0  0  0  0  0  0  0  0  0  0  0  0
   20.4821   -5.7408  -14.0233 C   0  0  1  0  0  0  0  0  0  0  0  0
   19.3690   -5.1005  -14.8079 C   0  0  0  0  0  0  0  0  0  0  0  0
   18.5499   -4.3074  -14.2833 O   0  0  0  0  0  0  0  0  0  0  0  0
   19.1985   -5.3609  -16.1591 O   0  0  0  0  0  0  0  0  0  0  0  0
  2  1  1  1
  3  2  1  0
  3  4  1  0
  4  5  1  0
  5  9  1  0
  5  6  2  0
  7  8  2  0
  7  2  1  0
 10  7  1  0
 11 12  1  0
 11 10  1  0
 12 14  1  0
 13 12  2  0
 14 15  1  0
 14 18  1  0
 15 16  1  0
 16 17  1  0
 18 19  1  6
 18 17  1  0
 19 21  1  0
 20 19  2  0
M  END
$$$$
