EGP.pdb
     RDKit          3D

 21 21  0  0  1  0  0  0  0  0999 V2000
   18.9461  -15.3774  -16.5120 N   0  0  0  0  0  0  0  0  0  0  0  0
   18.2124  -14.5426  -17.4603 C   0  0  1  0  0  0  0  0  0  0  0  0
   16.7773  -14.3918  -17.0141 C   0  0  0  0  0  0  0  0  0  0  0  0
   16.7078  -14.1607  -15.5196 C   0  0  0  0  0  0  0  0  0  0  0  0
   15.2875  -13.9049  -15.1546 C   0  0  0  0  0  0  0  0  0  0  0  0
   14.4290  -14.7820  -15.4433 O   0  0  0  0  0  0  0  0  0  0  0  0
   18.8954  -13.2303  -17.5910 C   0  0  0  0  0  0  0  0  0  0  0  0
   18.4699  -12.4428  -18.5017 O   0  0  0  0  0  0  0  0  0  0  0  0
   14.8863  -12.7427  -14.5171 O   0  0  0  0  0  0  0  0  0  0  0  0
   19.9757  -12.8466  -16.7529 N   0  0  0  0  0  0  0  0  0  0  0  0
   20.4782  -11.4922  -16.8548 C   0  0  0  0  0  0  0  0  0  0  0  0
   20.1393  -10.7743  -15.6098 C   0  0  0  0  0  0  0  0  0  0  0  0
   19.3292  -11.2815  -14.7697 O   0  0  0  0  0  0  0  0  0  0  0  0
   20.7043   -9.5220  -15.3366 N   0  0  0  0  0  0  0  0  0  0  0  0
   21.6492   -8.8065  -16.1486 C   0  0  0  0  0  0  0  0  0  0  0  0
   22.6340   -8.3702  -15.0433 C   0  0  0  0  0  0  0  0  0  0  0  0
   21.6564   -7.7692  -14.0630 C   0  0  0  0  0  0  0  0  0  0  0  0
   20.4544   -8.6839  -14.1890 C   0  0  1  0  0  0  0  0  0  0  0  0
   19.2224   -7.8802  -14.5067 C   0  0  0  0  0  0  0  0  0  0  0  0
   18.7952   -7.7442  -15.6789 O   0  0  0  0  0  0  0  0  0  0  0  0
   18.4973   -7.2490  -13.5074 O   0  0  0  0  0  0  0  0  0  0  0  0
  2  1  1  1
  3  2  1  0
  3  4  1  0
  4  5  1  0
  5  9  1  0
  5  6  2  0
  7  8  2  0
  7  2  1  0
 10  7  1  0
 11 12  1  0
 11 10  1  0
 12 14  1  0
 13 12  2  0
 14 15  1  0
 14 18  1  0
 15 16  1  0
 16 17  1  0
 18 19  1  6
 18 17  1  0
 19 21  1  0
 20 19  2  0
M  END
$$$$
