EGP.pdb
     RDKit          3D

 21 21  0  0  1  0  0  0  0  0999 V2000
   25.3747  -22.1703  -11.1825 N   0  0  0  0  0  0  0  0  0  0  0  0
   26.0654  -20.9666  -11.6387 C   0  0  1  0  0  0  0  0  0  0  0  0
   25.1969  -20.2110  -12.6166 C   0  0  0  0  0  0  0  0  0  0  0  0
   24.4822  -21.1713  -13.5433 C   0  0  0  0  0  0  0  0  0  0  0  0
   23.0694  -21.2900  -13.0895 C   0  0  0  0  0  0  0  0  0  0  0  0
   22.3395  -20.2629  -13.1329 O   0  0  0  0  0  0  0  0  0  0  0  0
   26.4332  -20.1357  -10.4638 C   0  0  0  0  0  0  0  0  0  0  0  0
   27.0870  -19.0632  -10.6934 O   0  0  0  0  0  0  0  0  0  0  0  0
   22.5409  -22.4823  -12.6234 O   0  0  0  0  0  0  0  0  0  0  0  0
   26.0851  -20.4977   -9.1355 N   0  0  0  0  0  0  0  0  0  0  0  0
   26.4945  -19.6249   -8.0548 C   0  0  0  0  0  0  0  0  0  0  0  0
   27.6202  -20.2616   -7.3422 C   0  0  0  0  0  0  0  0  0  0  0  0
   28.1844  -21.2985   -7.8177 O   0  0  0  0  0  0  0  0  0  0  0  0
   28.0822  -19.7336   -6.1299 N   0  0  0  0  0  0  0  0  0  0  0  0
   27.7448  -18.4585   -5.5603 C   0  0  0  0  0  0  0  0  0  0  0  0
   29.1575  -18.0021   -5.1387 C   0  0  0  0  0  0  0  0  0  0  0  0
   29.6014  -19.2326   -4.3858 C   0  0  0  0  0  0  0  0  0  0  0  0
   28.9873  -20.3573   -5.1952 C   0  0  1  0  0  0  0  0  0  0  0  0
   28.1473  -21.2358   -4.3080 C   0  0  0  0  0  0  0  0  0  0  0  0
   26.8929  -21.1992   -4.3234 O   0  0  0  0  0  0  0  0  0  0  0  0
   28.7287  -22.1340   -3.4261 O   0  0  0  0  0  0  0  0  0  0  0  0
  2  1  1  1
  3  2  1  0
  3  4  1  0
  4  5  1  0
  5  9  1  0
  5  6  2  0
  7  8  2  0
  7  2  1  0
 10  7  1  0
 11 12  1  0
 11 10  1  0
 12 14  1  0
 13 12  2  0
 14 15  1  0
 14 18  1  0
 15 16  1  0
 16 17  1  0
 18 19  1  1
 18 17  1  0
 19 21  1  0
 20 19  2  0
M  END
$$$$
