EGP.pdb
     RDKit          3D

 21 21  0  0  1  0  0  0  0  0999 V2000
   19.0309   -8.1879  -14.1509 N   0  0  0  0  0  0  0  0  0  0  0  0
   19.8848   -8.1942  -12.9655 C   0  0  1  0  0  0  0  0  0  0  0  0
   21.0526   -7.2571  -13.1643 C   0  0  0  0  0  0  0  0  0  0  0  0
   20.5655   -5.8386  -13.3707 C   0  0  0  0  0  0  0  0  0  0  0  0
   21.7499   -4.9729  -13.6232 C   0  0  0  0  0  0  0  0  0  0  0  0
   21.7464   -4.2398  -14.6489 O   0  0  0  0  0  0  0  0  0  0  0  0
   19.0755   -7.8300  -11.7746 C   0  0  0  0  0  0  0  0  0  0  0  0
   19.5948   -8.0537  -10.6297 O   0  0  0  0  0  0  0  0  0  0  0  0
   22.8445   -4.9525  -12.7749 O   0  0  0  0  0  0  0  0  0  0  0  0
   17.7799   -7.2583  -11.8796 N   0  0  0  0  0  0  0  0  0  0  0  0
   17.0962   -6.8751  -10.6617 C   0  0  0  0  0  0  0  0  0  0  0  0
   16.0291   -7.8606  -10.3963 C   0  0  0  0  0  0  0  0  0  0  0  0
   15.9970   -8.9660  -11.0260 O   0  0  0  0  0  0  0  0  0  0  0  0
   15.0345   -7.5912   -9.4475 N   0  0  0  0  0  0  0  0  0  0  0  0
   14.9664   -6.4576   -8.5675 C   0  0  0  0  0  0  0  0  0  0  0  0
   14.6041   -7.1907   -7.2587 C   0  0  0  0  0  0  0  0  0  0  0  0
   13.4404   -8.0164   -7.7507 C   0  0  0  0  0  0  0  0  0  0  0  0
   13.8676   -8.3884   -9.1566 C   0  0  1  0  0  0  0  0  0  0  0  0
   12.8109   -7.9763  -10.1456 C   0  0  0  0  0  0  0  0  0  0  0  0
   12.8573   -6.8820  -10.7583 O   0  0  0  0  0  0  0  0  0  0  0  0
   11.7289   -8.7967  -10.4265 O   0  0  0  0  0  0  0  0  0  0  0  0
  2  1  1  6
  3  2  1  0
  3  4  1  0
  4  5  1  0
  5  9  1  0
  5  6  2  0
  7  8  2  0
  7  2  1  0
 10  7  1  0
 11 12  1  0
 11 10  1  0
 12 14  1  0
 13 12  2  0
 14 15  1  0
 14 18  1  0
 15 16  1  0
 16 17  1  0
 18 19  1  6
 18 17  1  0
 19 21  1  0
 20 19  2  0
M  END
$$$$
