EGP.pdb
     RDKit          3D

 21 21  0  0  1  0  0  0  0  0999 V2000
   24.9380  -18.7447  -17.8958 N   0  0  0  0  0  0  0  0  0  0  0  0
   26.1617  -18.5676  -17.1177 C   0  0  1  0  0  0  0  0  0  0  0  0
   26.9310  -17.3722  -17.6283 C   0  0  0  0  0  0  0  0  0  0  0  0
   28.4182  -17.5748  -17.4315 C   0  0  0  0  0  0  0  0  0  0  0  0
   28.9134  -18.4655  -18.5167 C   0  0  0  0  0  0  0  0  0  0  0  0
   29.2151  -19.6539  -18.2234 O   0  0  0  0  0  0  0  0  0  0  0  0
   25.8150  -18.4334  -15.6798 C   0  0  0  0  0  0  0  0  0  0  0  0
   25.2098  -17.3661  -15.3259 O   0  0  0  0  0  0  0  0  0  0  0  0
   29.0535  -18.0297  -19.8239 O   0  0  0  0  0  0  0  0  0  0  0  0
   26.1326  -19.4333  -14.7228 N   0  0  0  0  0  0  0  0  0  0  0  0
   25.7471  -19.2136  -13.3442 C   0  0  0  0  0  0  0  0  0  0  0  0
   25.1095  -20.4447  -12.8364 C   0  0  0  0  0  0  0  0  0  0  0  0
   24.8730  -21.4212  -13.6174 O   0  0  0  0  0  0  0  0  0  0  0  0
   24.7536  -20.5545  -11.4861 N   0  0  0  0  0  0  0  0  0  0  0  0
   24.9684  -19.5769  -10.4554 C   0  0  0  0  0  0  0  0  0  0  0  0
   25.5066  -20.5084   -9.3490 C   0  0  0  0  0  0  0  0  0  0  0  0
   24.4316  -21.5676   -9.3717 C   0  0  0  0  0  0  0  0  0  0  0  0
   24.0925  -21.6657  -10.8457 C   0  0  1  0  0  0  0  0  0  0  0  0
   22.6160  -21.4618  -11.0527 C   0  0  0  0  0  0  0  0  0  0  0  0
   22.1357  -20.3585  -11.4093 O   0  0  0  0  0  0  0  0  0  0  0  0
   21.7124  -22.4951  -10.8572 O   0  0  0  0  0  0  0  0  0  0  0  0
  2  1  1  6
  3  2  1  0
  3  4  1  0
  4  5  1  0
  5  9  1  0
  5  6  2  0
  7  8  2  0
  7  2  1  0
 10  7  1  0
 11 12  1  0
 11 10  1  0
 12 14  1  0
 13 12  2  0
 14 15  1  0
 14 18  1  0
 15 16  1  0
 16 17  1  0
 18 19  1  1
 18 17  1  0
 19 21  1  0
 20 19  2  0
M  END
$$$$
