EGP.pdb
     RDKit          3D

 21 21  0  0  1  0  0  0  0  0999 V2000
   23.6350  -20.0114  -17.2698 N   0  0  0  0  0  0  0  0  0  0  0  0
   23.7246  -18.8130  -16.4391 C   0  0  1  0  0  0  0  0  0  0  0  0
   22.5387  -18.7402  -15.5066 C   0  0  0  0  0  0  0  0  0  0  0  0
   22.3828  -20.0386  -14.7440 C   0  0  0  0  0  0  0  0  0  0  0  0
   20.9282  -20.3022  -14.5681 C   0  0  0  0  0  0  0  0  0  0  0  0
   20.3545  -21.0626  -15.3940 O   0  0  0  0  0  0  0  0  0  0  0  0
   25.0133  -18.8217  -15.7009 C   0  0  0  0  0  0  0  0  0  0  0  0
   25.2455  -17.8327  -14.9272 O   0  0  0  0  0  0  0  0  0  0  0  0
   20.1950  -19.7397  -13.5365 O   0  0  0  0  0  0  0  0  0  0  0  0
   25.9606  -19.8712  -15.8338 N   0  0  0  0  0  0  0  0  0  0  0  0
   27.0770  -19.9113  -14.9122 C   0  0  0  0  0  0  0  0  0  0  0  0
   26.7263  -20.8091  -13.7937 C   0  0  0  0  0  0  0  0  0  0  0  0
   25.8086  -21.6807  -13.9260 O   0  0  0  0  0  0  0  0  0  0  0  0
   27.3986  -20.7126  -12.5687 N   0  0  0  0  0  0  0  0  0  0  0  0
   28.3503  -19.7074  -12.1841 C   0  0  0  0  0  0  0  0  0  0  0  0
   29.4232  -20.6206  -11.5542 C   0  0  0  0  0  0  0  0  0  0  0  0
   28.5480  -21.4294  -10.6280 C   0  0  0  0  0  0  0  0  0  0  0  0
   27.2749  -21.5950  -11.4338 C   0  0  1  0  0  0  0  0  0  0  0  0
   26.0923  -21.1083  -10.6406 C   0  0  0  0  0  0  0  0  0  0  0  0
   25.6124  -19.9585  -10.7910 O   0  0  0  0  0  0  0  0  0  0  0  0
   25.4744  -21.9178   -9.6997 O   0  0  0  0  0  0  0  0  0  0  0  0
  2  1  1  1
  3  2  1  0
  3  4  1  0
  4  5  1  0
  5  9  1  0
  5  6  2  0
  7  8  2  0
  7  2  1  0
 10  7  1  0
 11 12  1  0
 11 10  1  0
 12 14  1  0
 13 12  2  0
 14 15  1  0
 14 18  1  0
 15 16  1  0
 16 17  1  0
 18 19  1  1
 18 17  1  0
 19 21  1  0
 20 19  2  0
M  END
$$$$
