EGP.pdb
     RDKit          3D

 21 21  0  0  1  0  0  0  0  0999 V2000
   16.1598  -10.1730  -16.0643 N   0  0  0  0  0  0  0  0  0  0  0  0
   17.4333  -10.8222  -15.7629 C   0  0  1  0  0  0  0  0  0  0  0  0
   17.4359  -12.2323  -16.3041 C   0  0  0  0  0  0  0  0  0  0  0  0
   16.2837  -13.0251  -15.7248 C   0  0  0  0  0  0  0  0  0  0  0  0
   16.3026  -14.3838  -16.3327 C   0  0  0  0  0  0  0  0  0  0  0  0
   16.2214  -14.4784  -17.5873 O   0  0  0  0  0  0  0  0  0  0  0  0
   18.5439  -10.0096  -16.3217 C   0  0  0  0  0  0  0  0  0  0  0  0
   18.3084   -9.3696  -17.4013 O   0  0  0  0  0  0  0  0  0  0  0  0
   16.4024  -15.5341  -15.5677 O   0  0  0  0  0  0  0  0  0  0  0  0
   19.8190   -9.9328  -15.7014 N   0  0  0  0  0  0  0  0  0  0  0  0
   20.8436   -9.1267  -16.3320 C   0  0  0  0  0  0  0  0  0  0  0  0
   21.0495   -7.9130  -15.5168 C   0  0  0  0  0  0  0  0  0  0  0  0
   20.3722   -7.7223  -14.4564 O   0  0  0  0  0  0  0  0  0  0  0  0
   21.9935   -6.9520  -15.9008 N   0  0  0  0  0  0  0  0  0  0  0  0
   22.8316   -6.9844  -17.0673 C   0  0  0  0  0  0  0  0  0  0  0  0
   24.1685   -6.5748  -16.4141 C   0  0  0  0  0  0  0  0  0  0  0  0
   23.7138   -5.3433  -15.6692 C   0  0  0  0  0  0  0  0  0  0  0  0
   22.3201   -5.7264  -15.2129 C   0  0  1  0  0  0  0  0  0  0  0  0
   21.3227   -4.6984  -15.6742 C   0  0  0  0  0  0  0  0  0  0  0  0
   20.7007   -4.8079  -16.7587 O   0  0  0  0  0  0  0  0  0  0  0  0
   21.0438   -3.5737  -14.9126 O   0  0  0  0  0  0  0  0  0  0  0  0
  2  1  1  6
  3  2  1  0
  3  4  1  0
  4  5  1  0
  5  9  1  0
  5  6  2  0
  7  8  2  0
  7  2  1  0
 10  7  1  0
 11 12  1  0
 11 10  1  0
 12 14  1  0
 13 12  2  0
 14 15  1  0
 14 18  1  0
 15 16  1  0
 16 17  1  0
 18 19  1  6
 18 17  1  0
 19 21  1  0
 20 19  2  0
M  END
$$$$
