ALA.pdb
     RDKit          3D

 19 18  0  0  1  0  0  0  0  0999 V2000
    6.5973  -16.3435   20.9179 C   0  0  0  0  0  0  0  0  0  0  0  0
    6.8916  -14.8957   21.1583 C   0  0  2  0  0  0  0  0  0  0  0  0
    7.6063  -14.3474   20.0231 N   0  0  0  0  0  0  0  0  0  0  0  0
    7.7542  -14.6822   22.3642 C   0  0  0  0  0  0  0  0  0  0  0  0
    9.0010  -14.6432   22.2984 O   0  0  0  0  0  0  0  0  0  0  0  0
    7.8594  -11.4799   25.6041 C   0  0  0  0  0  0  0  0  0  0  0  0
    6.6790  -12.4038   25.6686 C   0  0  2  0  0  0  0  0  0  0  0  0
    5.7191  -11.8750   26.6952 C   0  0  0  0  0  0  0  0  0  0  0  0
    7.0519  -13.8310   25.9814 C   0  0  0  0  0  0  0  0  0  0  0  0
    7.8991  -14.4211   24.8581 C   0  0  2  0  0  0  0  0  0  0  0  0
    7.1415  -14.5176   23.6286 N   0  0  0  0  0  0  0  0  0  0  0  0
    8.4724  -15.7315   25.2593 C   0  0  0  0  0  0  0  0  0  0  0  0
    7.7164  -16.7111   25.4877 O   0  0  0  0  0  0  0  0  0  0  0  0
   11.8222  -17.3669   25.2843 C   0  0  0  0  0  0  0  0  0  0  0  0
   10.4172  -17.2011   25.8211 C   0  0  2  0  0  0  0  0  0  0  0  0
    9.8704  -15.9415   25.4026 N   0  0  0  0  0  0  0  0  0  0  0  0
   10.4580  -17.3549   27.2907 C   0  0  0  0  0  0  0  0  0  0  0  0
   10.1376  -16.4257   28.0627 O   0  0  0  0  0  0  0  0  0  0  0  0
   10.8605  -18.5564   27.8362 O   0  0  0  0  0  0  0  0  0  0  0  0
  2  3  1  0
  2  1  1  6
  4  5  2  0
  4  2  1  0
  7  6  1  1
  7  8  1  0
  7  9  1  0
 10  9  1  1
 10 11  1  0
 10 12  1  0
 11  4  1  0
 12 13  2  0
 15 14  1  1
 16 12  1  0
 16 15  1  0
 17 19  1  0
 17 15  1  0
 18 17  2  0
M  END
$$$$
