ALA.pdb
     RDKit          3D

 19 18  0  0  1  0  0  0  0  0999 V2000
    9.0127  -20.1614   20.1104 C   0  0  0  0  0  0  0  0  0  0  0  0
    8.6583  -19.2009   19.0185 C   0  0  2  0  0  0  0  0  0  0  0  0
    9.2054  -19.6680   17.7604 N   0  0  0  0  0  0  0  0  0  0  0  0
    9.2183  -17.8327   19.2591 C   0  0  0  0  0  0  0  0  0  0  0  0
   10.3654  -17.5032   18.8903 O   0  0  0  0  0  0  0  0  0  0  0  0
    7.1751  -12.3676   21.5180 C   0  0  0  0  0  0  0  0  0  0  0  0
    8.1421  -13.1887   20.7170 C   0  0  2  0  0  0  0  0  0  0  0  0
    8.3864  -12.4914   19.4096 C   0  0  0  0  0  0  0  0  0  0  0  0
    7.6750  -14.6029   20.4809 C   0  0  0  0  0  0  0  0  0  0  0  0
    8.8542  -15.5039   20.1271 C   0  0  2  0  0  0  0  0  0  0  0  0
    8.4247  -16.8718   19.9286 N   0  0  0  0  0  0  0  0  0  0  0  0
    9.9244  -15.4030   21.1524 C   0  0  0  0  0  0  0  0  0  0  0  0
   10.7039  -14.4153   21.1602 O   0  0  0  0  0  0  0  0  0  0  0  0
   10.4882  -16.6944   24.5254 C   0  0  0  0  0  0  0  0  0  0  0  0
   11.0782  -16.2368   23.2094 C   0  0  2  0  0  0  0  0  0  0  0  0
   10.1186  -16.3928   22.1532 N   0  0  0  0  0  0  0  0  0  0  0  0
   12.3283  -16.9890   22.9717 C   0  0  0  0  0  0  0  0  0  0  0  0
   12.4432  -17.8007   22.0281 O   0  0  0  0  0  0  0  0  0  0  0  0
   13.4060  -16.7965   23.8110 O   0  0  0  0  0  0  0  0  0  0  0  0
  2  3  1  0
  2  1  1  1
  4  5  2  0
  4  2  1  0
  7  6  1  6
  7  8  1  0
  7  9  1  0
 10  9  1  1
 10 11  1  0
 10 12  1  0
 11  4  1  0
 12 13  2  0
 15 14  1  1
 16 12  1  0
 16 15  1  0
 17 19  1  0
 17 15  1  0
 18 17  2  0
M  END
$$$$
