ALA.pdb
     RDKit          3D

 19 18  0  0  1  0  0  0  0  0999 V2000
    7.5272  -17.6348   21.4537 C   0  0  0  0  0  0  0  0  0  0  0  0
    8.0555  -16.2399   21.3293 C   0  0  2  0  0  0  0  0  0  0  0  0
    9.2376  -16.2380   20.4910 N   0  0  0  0  0  0  0  0  0  0  0  0
    8.4552  -15.6619   22.6521 C   0  0  0  0  0  0  0  0  0  0  0  0
    9.6369  -15.6678   23.0570 O   0  0  0  0  0  0  0  0  0  0  0  0
    5.7841  -12.3722   27.2495 C   0  0  0  0  0  0  0  0  0  0  0  0
    6.9845  -12.8539   26.4891 C   0  0  2  0  0  0  0  0  0  0  0  0
    7.8918  -11.6825   26.2446 C   0  0  0  0  0  0  0  0  0  0  0  0
    6.6368  -13.5319   25.1879 C   0  0  0  0  0  0  0  0  0  0  0  0
    7.7711  -14.4501   24.7432 C   0  0  2  0  0  0  0  0  0  0  0  0
    7.4631  -15.0859   23.4799 N   0  0  0  0  0  0  0  0  0  0  0  0
    8.0931  -15.4442   25.7992 C   0  0  0  0  0  0  0  0  0  0  0  0
    8.5833  -15.0684   26.8954 O   0  0  0  0  0  0  0  0  0  0  0  0
    7.2735  -19.0441   26.4232 C   0  0  0  0  0  0  0  0  0  0  0  0
    8.0560  -17.7784   26.6978 C   0  0  2  0  0  0  0  0  0  0  0  0
    7.8695  -16.8372   25.6301 N   0  0  0  0  0  0  0  0  0  0  0  0
    9.4731  -18.1422   26.9081 C   0  0  0  0  0  0  0  0  0  0  0  0
   10.3778  -17.7522   26.1389 O   0  0  0  0  0  0  0  0  0  0  0  0
    9.8176  -18.9358   27.9827 O   0  0  0  0  0  0  0  0  0  0  0  0
  2  3  1  0
  2  1  1  1
  4  5  2  0
  4  2  1  0
  7  6  1  6
  7  8  1  0
  7  9  1  0
 10  9  1  1
 10 11  1  0
 10 12  1  0
 11  4  1  0
 12 13  2  0
 15 14  1  6
 16 12  1  0
 16 15  1  0
 17 19  1  0
 17 15  1  0
 18 17  2  0
M  END
$$$$
