ALA.pdb
     RDKit          3D

 19 18  0  0  1  0  0  0  0  0999 V2000
    7.7231  -20.3605   19.0241 C   0  0  0  0  0  0  0  0  0  0  0  0
    7.7922  -19.1817   18.1042 C   0  0  2  0  0  0  0  0  0  0  0  0
    8.4450  -19.5641   16.8682 N   0  0  0  0  0  0  0  0  0  0  0  0
    8.5832  -18.0506   18.6860 C   0  0  0  0  0  0  0  0  0  0  0  0
    9.8318  -18.0241   18.6635 O   0  0  0  0  0  0  0  0  0  0  0  0
    7.4732  -12.3701   21.1080 C   0  0  0  0  0  0  0  0  0  0  0  0
    8.3679  -13.4602   20.5960 C   0  0  2  0  0  0  0  0  0  0  0  0
    9.1976  -12.9046   19.4745 C   0  0  0  0  0  0  0  0  0  0  0  0
    7.6176  -14.6860   20.1395 C   0  0  0  0  0  0  0  0  0  0  0  0
    8.5839  -15.8355   19.8702 C   0  0  2  0  0  0  0  0  0  0  0  0
    7.8979  -16.9679   19.2855 N   0  0  0  0  0  0  0  0  0  0  0  0
    9.3182  -16.2109   21.1058 C   0  0  0  0  0  0  0  0  0  0  0  0
    8.6877  -16.4797   22.1611 O   0  0  0  0  0  0  0  0  0  0  0  0
   11.9619  -18.1351   22.1210 C   0  0  0  0  0  0  0  0  0  0  0  0
   11.4373  -16.7311   22.3290 C   0  0  2  0  0  0  0  0  0  0  0  0
   10.7362  -16.2840   21.1588 N   0  0  0  0  0  0  0  0  0  0  0  0
   12.5730  -15.8578   22.6926 C   0  0  0  0  0  0  0  0  0  0  0  0
   13.0565  -15.0315   21.8890 O   0  0  0  0  0  0  0  0  0  0  0  0
   13.1228  -15.9498   23.9545 O   0  0  0  0  0  0  0  0  0  0  0  0
  2  3  1  0
  2  1  1  1
  4  5  2  0
  4  2  1  0
  7  6  1  6
  7  8  1  0
  7  9  1  0
 10  9  1  1
 10 11  1  0
 10 12  1  0
 11  4  1  0
 12 13  2  0
 15 14  1  6
 16 12  1  0
 16 15  1  0
 17 19  1  0
 17 15  1  0
 18 17  2  0
M  END
$$$$
