ALA.pdb
     RDKit          3D

 19 18  0  0  1  0  0  0  0  0999 V2000
    7.5472  -17.5924   21.5840 C   0  0  0  0  0  0  0  0  0  0  0  0
    7.7820  -16.1547   21.2401 C   0  0  2  0  0  0  0  0  0  0  0  0
    8.8188  -16.0564   20.2324 N   0  0  0  0  0  0  0  0  0  0  0  0
    8.2403  -15.3540   22.4202 C   0  0  0  0  0  0  0  0  0  0  0  0
    9.4415  -15.0707   22.6127 O   0  0  0  0  0  0  0  0  0  0  0  0
    5.6585  -12.1497   27.1404 C   0  0  0  0  0  0  0  0  0  0  0  0
    6.8346  -12.6220   26.3375 C   0  0  2  0  0  0  0  0  0  0  0  0
    7.6704  -11.4284   25.9744 C   0  0  0  0  0  0  0  0  0  0  0  0
    6.4451  -13.3892   25.0992 C   0  0  0  0  0  0  0  0  0  0  0  0
    7.6435  -14.1529   24.5439 C   0  0  2  0  0  0  0  0  0  0  0  0
    7.2829  -14.8979   23.3565 N   0  0  0  0  0  0  0  0  0  0  0  0
    8.2434  -15.0267   25.5847 C   0  0  0  0  0  0  0  0  0  0  0  0
    8.7136  -14.5260   26.6390 O   0  0  0  0  0  0  0  0  0  0  0  0
    8.1928  -18.6586   26.4028 C   0  0  0  0  0  0  0  0  0  0  0  0
    8.8233  -17.2858   26.4891 C   0  0  2  0  0  0  0  0  0  0  0  0
    8.3157  -16.4391   25.4469 N   0  0  0  0  0  0  0  0  0  0  0  0
   10.2923  -17.4432   26.4433 C   0  0  0  0  0  0  0  0  0  0  0  0
   10.9716  -17.0385   25.4753 O   0  0  0  0  0  0  0  0  0  0  0  0
   10.9424  -18.0540   27.4956 O   0  0  0  0  0  0  0  0  0  0  0  0
  2  3  1  0
  2  1  1  1
  4  5  2  0
  4  2  1  0
  7  6  1  6
  7  8  1  0
  7  9  1  0
 10  9  1  1
 10 11  1  0
 10 12  1  0
 11  4  1  0
 12 13  2  0
 15 14  1  6
 16 12  1  0
 16 15  1  0
 17 19  1  0
 17 15  1  0
 18 17  2  0
M  END
$$$$
