ALA.pdb
     RDKit          3D

 19 18  0  0  1  0  0  0  0  0999 V2000
   10.2729  -18.8840   18.0876 C   0  0  0  0  0  0  0  0  0  0  0  0
   10.4354  -17.4832   17.5859 C   0  0  2  0  0  0  0  0  0  0  0  0
   11.5692  -17.4150   16.6858 N   0  0  0  0  0  0  0  0  0  0  0  0
   10.6951  -16.5079   18.6927 C   0  0  0  0  0  0  0  0  0  0  0  0
   11.8477  -16.1491   19.0137 O   0  0  0  0  0  0  0  0  0  0  0  0
    9.0706  -12.3313   19.2700 C   0  0  0  0  0  0  0  0  0  0  0  0
    8.1030  -13.4414   19.5569 C   0  0  2  0  0  0  0  0  0  0  0  0
    6.7355  -12.8453   19.7291 C   0  0  0  0  0  0  0  0  0  0  0  0
    8.4756  -14.2635   20.7649 C   0  0  0  0  0  0  0  0  0  0  0  0
    9.7620  -15.0419   20.5063 C   0  0  2  0  0  0  0  0  0  0  0  0
    9.5992  -15.9684   19.4062 N   0  0  0  0  0  0  0  0  0  0  0  0
   10.2252  -15.7251   21.7414 C   0  0  0  0  0  0  0  0  0  0  0  0
   10.4870  -15.0572   22.7752 O   0  0  0  0  0  0  0  0  0  0  0  0
   10.2419  -19.1276   23.1805 C   0  0  0  0  0  0  0  0  0  0  0  0
   10.9078  -17.7823   22.9901 C   0  0  2  0  0  0  0  0  0  0  0  0
   10.3927  -17.1340   21.8175 N   0  0  0  0  0  0  0  0  0  0  0  0
   12.3707  -17.9884   22.9424 C   0  0  0  0  0  0  0  0  0  0  0  0
   13.0470  -17.7018   21.9310 O   0  0  0  0  0  0  0  0  0  0  0  0
   13.0184  -18.5122   24.0421 O   0  0  0  0  0  0  0  0  0  0  0  0
  2  3  1  0
  2  1  1  1
  4  5  2  0
  4  2  1  0
  7  6  1  1
  7  8  1  0
  7  9  1  0
 10  9  1  1
 10 11  1  0
 10 12  1  0
 11  4  1  0
 12 13  2  0
 15 14  1  6
 16 12  1  0
 16 15  1  0
 17 19  1  0
 17 15  1  0
 18 17  2  0
M  END
$$$$
