ALA.pdb
     RDKit          3D

 19 18  0  0  1  0  0  0  0  0999 V2000
    9.5428  -19.3172   19.0581 C   0  0  0  0  0  0  0  0  0  0  0  0
    9.6463  -18.0138   18.3294 C   0  0  2  0  0  0  0  0  0  0  0  0
   10.6222  -18.1260   17.2639 N   0  0  0  0  0  0  0  0  0  0  0  0
   10.0965  -16.8971   19.2204 C   0  0  0  0  0  0  0  0  0  0  0  0
   11.2978  -16.5757   19.3380 O   0  0  0  0  0  0  0  0  0  0  0  0
    8.9897  -12.5154   19.3393 C   0  0  0  0  0  0  0  0  0  0  0  0
    7.9360  -13.4672   19.8236 C   0  0  2  0  0  0  0  0  0  0  0  0
    6.6523  -12.7066   19.9934 C   0  0  0  0  0  0  0  0  0  0  0  0
    8.3064  -14.1689   21.1059 C   0  0  0  0  0  0  0  0  0  0  0  0
    9.4833  -15.1128   20.8785 C   0  0  2  0  0  0  0  0  0  0  0  0
    9.1310  -16.1743   19.9598 N   0  0  0  0  0  0  0  0  0  0  0  0
    9.9934  -15.6440   22.1687 C   0  0  0  0  0  0  0  0  0  0  0  0
   10.4600  -14.8613   23.0364 O   0  0  0  0  0  0  0  0  0  0  0  0
    9.8009  -18.8171   24.1033 C   0  0  0  0  0  0  0  0  0  0  0  0
   10.5159  -17.5423   23.7117 C   0  0  2  0  0  0  0  0  0  0  0  0
    9.9810  -17.0298   22.4821 N   0  0  0  0  0  0  0  0  0  0  0  0
   11.9653  -17.8233   23.6401 C   0  0  0  0  0  0  0  0  0  0  0  0
   12.6145  -17.6869   22.5807 O   0  0  0  0  0  0  0  0  0  0  0  0
   12.6305  -18.2496   24.7709 O   0  0  0  0  0  0  0  0  0  0  0  0
  2  3  1  0
  2  1  1  1
  4  5  2  0
  4  2  1  0
  7  6  1  1
  7  8  1  0
  7  9  1  0
 10  9  1  1
 10 11  1  0
 10 12  1  0
 11  4  1  0
 12 13  2  0
 15 14  1  6
 16 12  1  0
 16 15  1  0
 17 19  1  0
 17 15  1  0
 18 17  2  0
M  END
$$$$
