ALA.pdb
     RDKit          3D

 19 18  0  0  1  0  0  0  0  0999 V2000
    6.6022  -16.4444   21.0612 C   0  0  0  0  0  0  0  0  0  0  0  0
    6.9478  -15.0078   21.3004 C   0  0  2  0  0  0  0  0  0  0  0  0
    7.7337  -14.5033   20.1922 N   0  0  0  0  0  0  0  0  0  0  0  0
    7.7660  -14.8174   22.5405 C   0  0  0  0  0  0  0  0  0  0  0  0
    9.0138  -14.8744   22.5361 O   0  0  0  0  0  0  0  0  0  0  0  0
    8.0683  -11.5020   25.7385 C   0  0  0  0  0  0  0  0  0  0  0  0
    6.7877  -12.2830   25.7103 C   0  0  2  0  0  0  0  0  0  0  0  0
    5.8110  -11.6254   26.6425 C   0  0  0  0  0  0  0  0  0  0  0  0
    6.9643  -13.7364   26.0715 C   0  0  0  0  0  0  0  0  0  0  0  0
    7.8157  -14.4482   25.0245 C   0  0  2  0  0  0  0  0  0  0  0  0
    7.1084  -14.5631   23.7670 N   0  0  0  0  0  0  0  0  0  0  0  0
    8.2746  -15.7698   25.5242 C   0  0  0  0  0  0  0  0  0  0  0  0
    7.4409  -16.6811   25.7646 O   0  0  0  0  0  0  0  0  0  0  0  0
   11.4363  -17.6859   25.5944 C   0  0  0  0  0  0  0  0  0  0  0  0
   10.0871  -17.3577   26.1957 C   0  0  2  0  0  0  0  0  0  0  0  0
    9.6456  -16.0661   25.7511 N   0  0  0  0  0  0  0  0  0  0  0  0
   10.1948  -17.4582   27.6665 C   0  0  0  0  0  0  0  0  0  0  0  0
    9.9586  -16.4859   28.4155 O   0  0  0  0  0  0  0  0  0  0  0  0
   10.5666  -18.6569   28.2392 O   0  0  0  0  0  0  0  0  0  0  0  0
  2  3  1  0
  2  1  1  6
  4  5  2  0
  4  2  1  0
  7  6  1  1
  7  8  1  0
  7  9  1  0
 10  9  1  1
 10 11  1  0
 10 12  1  0
 11  4  1  0
 12 13  2  0
 15 14  1  6
 16 12  1  0
 16 15  1  0
 17 19  1  0
 17 15  1  0
 18 17  2  0
M  END
$$$$
