ALA.pdb
     RDKit          3D

 19 18  0  0  1  0  0  0  0  0999 V2000
    9.2527  -19.1550   20.5998 C   0  0  0  0  0  0  0  0  0  0  0  0
    9.8418  -17.9248   19.9832 C   0  0  2  0  0  0  0  0  0  0  0  0
   11.2001  -18.1948   19.5563 N   0  0  0  0  0  0  0  0  0  0  0  0
    9.9044  -16.7790   20.9459 C   0  0  0  0  0  0  0  0  0  0  0  0
   10.8924  -16.5752   21.6826 O   0  0  0  0  0  0  0  0  0  0  0  0
    9.1861  -12.5011   19.8345 C   0  0  0  0  0  0  0  0  0  0  0  0
    7.9374  -13.3058   20.0438 C   0  0  2  0  0  0  0  0  0  0  0  0
    6.7666  -12.4975   19.5631 C   0  0  0  0  0  0  0  0  0  0  0  0
    7.7319  -13.7311   21.4759 C   0  0  0  0  0  0  0  0  0  0  0  0
    8.8053  -14.7303   21.8966 C   0  0  2  0  0  0  0  0  0  0  0  0
    8.8075  -15.8896   21.0300 N   0  0  0  0  0  0  0  0  0  0  0  0
    8.6476  -15.1073   23.3248 C   0  0  0  0  0  0  0  0  0  0  0  0
    8.8073  -14.2468   24.2290 O   0  0  0  0  0  0  0  0  0  0  0  0
    6.9996  -17.7952   25.2337 C   0  0  0  0  0  0  0  0  0  0  0  0
    8.1083  -16.7727   25.1117 C   0  0  2  0  0  0  0  0  0  0  0  0
    8.3164  -16.4270   23.7340 N   0  0  0  0  0  0  0  0  0  0  0  0
    9.3191  -17.3176   25.7612 C   0  0  0  0  0  0  0  0  0  0  0  0
    9.3312  -17.6504   26.9659 O   0  0  0  0  0  0  0  0  0  0  0  0
   10.4756  -17.4670   25.0240 O   0  0  0  0  0  0  0  0  0  0  0  0
  2  3  1  0
  2  1  1  1
  4  5  2  0
  4  2  1  0
  7  6  1  1
  7  8  1  0
  7  9  1  0
 10  9  1  6
 10 11  1  0
 10 12  1  0
 11  4  1  0
 12 13  2  0
 15 14  1  6
 16 12  1  0
 16 15  1  0
 17 19  1  0
 17 15  1  0
 18 17  2  0
M  END
$$$$
