ALA.pdb
     RDKit          3D

 19 18  0  0  1  0  0  0  0  0999 V2000
    7.7906  -18.0106   21.6901 C   0  0  0  0  0  0  0  0  0  0  0  0
    8.2508  -16.6025   21.4754 C   0  0  2  0  0  0  0  0  0  0  0  0
    9.4493  -16.5991   20.6606 N   0  0  0  0  0  0  0  0  0  0  0  0
    8.5923  -15.9125   22.7603 C   0  0  0  0  0  0  0  0  0  0  0  0
    9.7586  -15.8613   23.2046 O   0  0  0  0  0  0  0  0  0  0  0  0
    5.7130  -12.2475   26.9223 C   0  0  0  0  0  0  0  0  0  0  0  0
    6.9449  -12.7537   26.2317 C   0  0  2  0  0  0  0  0  0  0  0  0
    7.8023  -11.5755   25.8683 C   0  0  0  0  0  0  0  0  0  0  0  0
    6.6475  -13.5859   25.0099 C   0  0  0  0  0  0  0  0  0  0  0  0
    7.8165  -14.5155   24.6981 C   0  0  2  0  0  0  0  0  0  0  0  0
    7.5609  -15.2930   23.5044 N   0  0  0  0  0  0  0  0  0  0  0  0
    8.1319  -15.3796   25.8646 C   0  0  0  0  0  0  0  0  0  0  0  0
    8.4852  -14.8654   26.9574 O   0  0  0  0  0  0  0  0  0  0  0  0
    7.4908  -18.8767   26.9101 C   0  0  0  0  0  0  0  0  0  0  0  0
    8.3429  -17.6267   26.9432 C   0  0  2  0  0  0  0  0  0  0  0  0
    8.0530  -16.7972   25.8081 N   0  0  0  0  0  0  0  0  0  0  0  0
    9.7625  -18.0316   27.0171 C   0  0  0  0  0  0  0  0  0  0  0  0
   10.5744  -17.7682   26.1040 O   0  0  0  0  0  0  0  0  0  0  0  0
   10.2147  -18.7212   28.1231 O   0  0  0  0  0  0  0  0  0  0  0  0
  2  3  1  0
  2  1  1  1
  4  5  2  0
  4  2  1  0
  7  6  1  6
  7  8  1  0
  7  9  1  0
 10  9  1  1
 10 11  1  0
 10 12  1  0
 11  4  1  0
 12 13  2  0
 15 14  1  6
 16 12  1  0
 16 15  1  0
 17 19  1  0
 17 15  1  0
 18 17  2  0
M  END
$$$$
