ALA.pdb
     RDKit          3D

 19 18  0  0  1  0  0  0  0  0999 V2000
    7.5761  -13.0616   20.2295 C   0  0  0  0  0  0  0  0  0  0  0  0
    7.7775  -14.3691   20.9300 C   0  0  2  0  0  0  0  0  0  0  0  0
    6.4998  -15.0290   21.1094 N   0  0  0  0  0  0  0  0  0  0  0  0
    8.3784  -14.1994   22.2915 C   0  0  0  0  0  0  0  0  0  0  0  0
    9.5561  -13.8199   22.4622 O   0  0  0  0  0  0  0  0  0  0  0  0
    7.8992  -11.6766   26.2575 C   0  0  0  0  0  0  0  0  0  0  0  0
    6.7115  -12.4470   25.7606 C   0  0  2  0  0  0  0  0  0  0  0  0
    5.5314  -12.1080   26.6252 C   0  0  0  0  0  0  0  0  0  0  0  0
    6.9337  -13.9382   25.7331 C   0  0  0  0  0  0  0  0  0  0  0  0
    8.0739  -14.2918   24.7831 C   0  0  2  0  0  0  0  0  0  0  0  0
    7.5890  -14.4775   23.4320 N   0  0  0  0  0  0  0  0  0  0  0  0
    8.8212  -15.4794   25.2711 C   0  0  0  0  0  0  0  0  0  0  0  0
    9.1500  -15.5677   26.4824 O   0  0  0  0  0  0  0  0  0  0  0  0
    9.6435  -18.8885   23.9806 C   0  0  0  0  0  0  0  0  0  0  0  0
    9.8881  -17.7111   24.8991 C   0  0  2  0  0  0  0  0  0  0  0  0
    9.1943  -16.5510   24.4159 N   0  0  0  0  0  0  0  0  0  0  0  0
   11.3473  -17.5060   25.0163 C   0  0  0  0  0  0  0  0  0  0  0  0
   11.9075  -16.4749   24.5861 O   0  0  0  0  0  0  0  0  0  0  0  0
   12.1227  -18.4761   25.6171 O   0  0  0  0  0  0  0  0  0  0  0  0
  2  3  1  0
  2  1  1  1
  4  5  2  0
  4  2  1  0
  7  6  1  1
  7  8  1  0
  7  9  1  0
 10  9  1  1
 10 11  1  0
 10 12  1  0
 11  4  1  0
 12 13  2  0
 15 14  1  6
 16 12  1  0
 16 15  1  0
 17 19  1  0
 17 15  1  0
 18 17  2  0
M  END
$$$$
