ALA.pdb
     RDKit          3D

 19 18  0  0  1  0  0  0  0  0999 V2000
    6.9347  -18.7093   25.5550 C   0  0  0  0  0  0  0  0  0  0  0  0
    6.8054  -17.6331   24.5227 C   0  0  2  0  0  0  0  0  0  0  0  0
    7.1003  -18.1758   23.2116 N   0  0  0  0  0  0  0  0  0  0  0  0
    7.7611  -16.5033   24.7546 C   0  0  0  0  0  0  0  0  0  0  0  0
    8.8920  -16.4622   24.2259 O   0  0  0  0  0  0  0  0  0  0  0  0
    6.7732  -11.8681   24.3409 C   0  0  0  0  0  0  0  0  0  0  0  0
    6.2800  -12.6798   25.5023 C   0  0  2  0  0  0  0  0  0  0  0  0
    5.2631  -11.8669   26.2508 C   0  0  0  0  0  0  0  0  0  0  0  0
    7.3811  -13.1296   26.4292 C   0  0  0  0  0  0  0  0  0  0  0  0
    8.1890  -14.2566   25.7930 C   0  0  2  0  0  0  0  0  0  0  0  0
    7.3758  -15.4388   25.6030 N   0  0  0  0  0  0  0  0  0  0  0  0
    9.4104  -14.5467   26.5874 C   0  0  0  0  0  0  0  0  0  0  0  0
   10.3491  -13.7102   26.6353 O   0  0  0  0  0  0  0  0  0  0  0  0
   10.8268  -14.9654   29.2329 C   0  0  0  0  0  0  0  0  0  0  0  0
   10.7308  -16.0023   28.1351 C   0  0  2  0  0  0  0  0  0  0  0  0
    9.5776  -15.7547   27.3167 N   0  0  0  0  0  0  0  0  0  0  0  0
   10.7213  -17.3425   28.7586 C   0  0  0  0  0  0  0  0  0  0  0  0
   11.5838  -17.6902   29.5938 O   0  0  0  0  0  0  0  0  0  0  0  0
    9.7350  -18.2438   28.4149 O   0  0  0  0  0  0  0  0  0  0  0  0
  2  3  1  0
  2  1  1  1
  4  5  2  0
  4  2  1  0
  7  6  1  6
  7  8  1  0
  7  9  1  0
 10  9  1  1
 10 11  1  0
 10 12  1  0
 11  4  1  0
 12 13  2  0
 15 14  1  1
 16 12  1  0
 16 15  1  0
 17 19  1  0
 17 15  1  0
 18 17  2  0
M  END
$$$$
