ALA.pdb
     RDKit          3D

 19 18  0  0  1  0  0  0  0  0999 V2000
    6.8646  -17.0723   21.9279 C   0  0  0  0  0  0  0  0  0  0  0  0
    7.2847  -15.6363   21.8833 C   0  0  2  0  0  0  0  0  0  0  0  0
    8.2207  -15.4347   20.7954 N   0  0  0  0  0  0  0  0  0  0  0  0
    7.9748  -15.2052   23.1409 C   0  0  0  0  0  0  0  0  0  0  0  0
    9.2187  -15.1964   23.2541 O   0  0  0  0  0  0  0  0  0  0  0  0
    7.7176  -11.3974   25.4015 C   0  0  0  0  0  0  0  0  0  0  0  0
    6.5129  -12.2693   25.6005 C   0  0  2  0  0  0  0  0  0  0  0  0
    5.4729  -11.4786   26.3410 C   0  0  0  0  0  0  0  0  0  0  0  0
    6.8170  -13.5535   26.3299 C   0  0  0  0  0  0  0  0  0  0  0  0
    7.7782  -14.4157   25.5173 C   0  0  2  0  0  0  0  0  0  0  0  0
    7.1955  -14.7911   24.2466 N   0  0  0  0  0  0  0  0  0  0  0  0
    8.2150  -15.6018   26.2978 C   0  0  0  0  0  0  0  0  0  0  0  0
    8.8226  -15.4536   27.3897 O   0  0  0  0  0  0  0  0  0  0  0  0
    7.4921  -19.2786   26.2076 C   0  0  0  0  0  0  0  0  0  0  0  0
    8.2737  -18.0729   26.6821 C   0  0  2  0  0  0  0  0  0  0  0  0
    7.9753  -16.9329   25.8623 N   0  0  0  0  0  0  0  0  0  0  0  0
    9.7102  -18.4212   26.6889 C   0  0  0  0  0  0  0  0  0  0  0  0
   10.1816  -19.2707   27.4752 O   0  0  0  0  0  0  0  0  0  0  0  0
   10.5643  -17.7953   25.8046 O   0  0  0  0  0  0  0  0  0  0  0  0
  2  3  1  0
  2  1  1  1
  4  5  2  0
  4  2  1  0
  7  6  1  1
  7  8  1  0
  7  9  1  0
 10  9  1  1
 10 11  1  0
 10 12  1  0
 11  4  1  0
 12 13  2  0
 15 14  1  6
 16 12  1  0
 16 15  1  0
 17 19  1  0
 17 15  1  0
 18 17  2  0
M  END
$$$$
