ALA.pdb
     RDKit          3D

 19 18  0  0  1  0  0  0  0  0999 V2000
    9.5068  -18.2738   18.1855 C   0  0  0  0  0  0  0  0  0  0  0  0
    9.4998  -18.4633   19.6703 C   0  0  2  0  0  0  0  0  0  0  0  0
    8.1636  -18.8086   20.1124 N   0  0  0  0  0  0  0  0  0  0  0  0
    9.8973  -17.2202   20.4053 C   0  0  0  0  0  0  0  0  0  0  0  0
   11.0599  -16.7645   20.3726 O   0  0  0  0  0  0  0  0  0  0  0  0
    8.7602  -12.9358   19.9798 C   0  0  0  0  0  0  0  0  0  0  0  0
    7.7244  -13.8821   20.5113 C   0  0  2  0  0  0  0  0  0  0  0  0
    6.3895  -13.1955   20.4697 C   0  0  0  0  0  0  0  0  0  0  0  0
    8.0213  -14.3734   21.9057 C   0  0  0  0  0  0  0  0  0  0  0  0
    9.2211  -15.3158   21.8969 C   0  0  2  0  0  0  0  0  0  0  0  0
    8.9253  -16.5304   21.1673 N   0  0  0  0  0  0  0  0  0  0  0  0
    9.6821  -15.5994   23.2803 C   0  0  0  0  0  0  0  0  0  0  0  0
    9.9652  -14.6538   24.0607 O   0  0  0  0  0  0  0  0  0  0  0  0
    9.3907  -18.2096   25.7837 C   0  0  0  0  0  0  0  0  0  0  0  0
   10.2860  -17.1900   25.1141 C   0  0  2  0  0  0  0  0  0  0  0  0
    9.8240  -16.9213   23.7818 N   0  0  0  0  0  0  0  0  0  0  0  0
   11.6760  -17.6912   25.1549 C   0  0  0  0  0  0  0  0  0  0  0  0
   12.2572  -17.9441   26.2322 O   0  0  0  0  0  0  0  0  0  0  0  0
   12.3608  -17.8892   23.9738 O   0  0  0  0  0  0  0  0  0  0  0  0
  2  3  1  0
  2  1  1  6
  4  5  2  0
  4  2  1  0
  7  6  1  1
  7  8  1  0
  7  9  1  0
 10  9  1  1
 10 11  1  0
 10 12  1  0
 11  4  1  0
 12 13  2  0
 15 14  1  6
 16 12  1  0
 16 15  1  0
 17 19  1  0
 17 15  1  0
 18 17  2  0
M  END
$$$$
