ALA.pdb
     RDKit          3D

 19 18  0  0  1  0  0  0  0  0999 V2000
    9.8301  -19.4804   19.1536 C   0  0  0  0  0  0  0  0  0  0  0  0
    9.8239  -18.1362   18.4951 C   0  0  2  0  0  0  0  0  0  0  0  0
   10.7524  -18.1330   17.3824 N   0  0  0  0  0  0  0  0  0  0  0  0
   10.2515  -17.0436   19.4261 C   0  0  0  0  0  0  0  0  0  0  0  0
   11.4520  -16.7533   19.6131 O   0  0  0  0  0  0  0  0  0  0  0  0
    8.9252  -12.6915   19.3416 C   0  0  0  0  0  0  0  0  0  0  0  0
    7.9321  -13.6701   19.8957 C   0  0  2  0  0  0  0  0  0  0  0  0
    6.6168  -12.9657   20.0656 C   0  0  0  0  0  0  0  0  0  0  0  0
    8.3681  -14.2936   21.1977 C   0  0  0  0  0  0  0  0  0  0  0  0
    9.5856  -15.1873   20.9817 C   0  0  2  0  0  0  0  0  0  0  0  0
    9.2649  -16.3080   20.1238 N   0  0  0  0  0  0  0  0  0  0  0  0
   10.1552  -15.6297   22.2804 C   0  0  0  0  0  0  0  0  0  0  0  0
   10.5522  -14.7812   23.1206 O   0  0  0  0  0  0  0  0  0  0  0  0
    9.9239  -18.5598   24.4489 C   0  0  0  0  0  0  0  0  0  0  0  0
   10.7662  -17.4215   23.9155 C   0  0  2  0  0  0  0  0  0  0  0  0
   10.2783  -17.0007   22.6327 N   0  0  0  0  0  0  0  0  0  0  0  0
   12.1772  -17.8607   23.8827 C   0  0  0  0  0  0  0  0  0  0  0  0
   12.8229  -18.0920   24.9276 O   0  0  0  0  0  0  0  0  0  0  0  0
   12.8092  -18.0230   22.6673 O   0  0  0  0  0  0  0  0  0  0  0  0
  2  3  1  0
  2  1  1  1
  4  5  2  0
  4  2  1  0
  7  6  1  1
  7  8  1  0
  7  9  1  0
 10  9  1  1
 10 11  1  0
 10 12  1  0
 11  4  1  0
 12 13  2  0
 15 14  1  6
 16 12  1  0
 16 15  1  0
 17 19  1  0
 17 15  1  0
 18 17  2  0
M  END
$$$$
