NDG.pdb
     RDKit          3D

 21 20  0  0  1  0  0  0  0  0999 V2000
    7.0901  -12.9516   17.4042 N   0  0  0  0  0  0  0  0  0  0  0  0
    8.0862  -13.0425   18.4467 C   0  0  0  0  0  0  0  0  0  0  0  0
    9.0519  -12.2689   18.3147 O   0  0  0  0  0  0  0  0  0  0  0  0
    7.9467  -13.9732   19.5520 C   0  0  0  0  0  0  0  0  0  0  0  0
    9.0285  -13.9171   20.6133 C   0  0  2  0  0  0  0  0  0  0  0  0
   10.2286  -13.4563   19.8500 N   0  0  0  0  0  0  0  0  0  0  0  0
    9.3482  -15.3086   21.0145 C   0  0  0  0  0  0  0  0  0  0  0  0
    8.3787  -16.0207   21.4371 O   0  0  0  0  0  0  0  0  0  0  0  0
   10.5953  -15.9357   20.9799 N   0  0  0  0  0  0  0  0  0  0  0  0
   10.7275  -17.3522   21.3451 C   0  0  1  0  0  0  0  0  0  0  0  0
   11.5881  -18.1094   20.3988 C   0  0  0  0  0  0  0  0  0  0  0  0
   11.2160  -17.9674   18.9878 C   0  0  0  0  0  0  0  0  0  0  0  0
   11.9125  -17.5010   18.0784 O   0  0  0  0  0  0  0  0  0  0  0  0
   11.2229  -17.4666   22.7384 C   0  0  0  0  0  0  0  0  0  0  0  0
   11.6123  -18.5502   23.2395 O   0  0  0  0  0  0  0  0  0  0  0  0
    9.9271  -18.4100   18.6325 O   0  0  0  0  0  0  0  0  0  0  0  0
   11.2590  -16.2965   23.5443 N   0  0  0  0  0  0  0  0  0  0  0  0
   11.8860  -16.2501   24.8418 C   0  0  0  0  0  0  0  0  0  0  0  0
   10.9631  -16.8490   25.8316 C   0  0  0  0  0  0  0  0  0  0  0  0
    9.8769  -17.3366   25.4413 O   0  0  0  0  0  0  0  0  0  0  0  0
   11.2571  -16.8920   27.1911 O   0  0  0  0  0  0  0  0  0  0  0  0
  2  1  1  0
  3  2  2  0
  4  2  1  0
  5  4  1  0
  5  6  1  6
  7  5  1  0
  7  9  1  0
  8  7  2  0
 10  9  1  0
 10 14  1  0
 10 11  1  6
 12 11  1  0
 12 13  2  0
 14 15  2  0
 14 17  1  0
 16 12  1  0
 17 18  1  0
 18 19  1  0
 19 21  1  0
 20 19  2  0
M  END
$$$$
