NDG.pdb
     RDKit          3D

 21 20  0  0  1  0  0  0  0  0999 V2000
    8.0997  -13.6072   15.0414 N   0  0  0  0  0  0  0  0  0  0  0  0
    7.0373  -13.6309   16.0202 C   0  0  0  0  0  0  0  0  0  0  0  0
    5.8949  -13.7716   15.5473 O   0  0  0  0  0  0  0  0  0  0  0  0
    7.3091  -13.4987   17.4401 C   0  0  0  0  0  0  0  0  0  0  0  0
    8.7631  -13.3090   17.8271 C   0  0  2  0  0  0  0  0  0  0  0  0
    9.4965  -14.0855   16.7810 N   0  0  0  0  0  0  0  0  0  0  0  0
    9.0020  -14.0545   19.0868 C   0  0  0  0  0  0  0  0  0  0  0  0
    8.4394  -13.6007   20.1371 O   0  0  0  0  0  0  0  0  0  0  0  0
    9.7737  -15.2055   19.2575 N   0  0  0  0  0  0  0  0  0  0  0  0
   10.0627  -15.7159   20.6041 C   0  0  1  0  0  0  0  0  0  0  0  0
    9.9198  -17.1924   20.6994 C   0  0  0  0  0  0  0  0  0  0  0  0
   10.2606  -17.7553   22.0096 C   0  0  0  0  0  0  0  0  0  0  0  0
   11.3790  -18.1151   22.3963 O   0  0  0  0  0  0  0  0  0  0  0  0
   11.4133  -15.2736   21.0288 C   0  0  0  0  0  0  0  0  0  0  0  0
   11.8877  -15.5186   22.1654 O   0  0  0  0  0  0  0  0  0  0  0  0
    9.1993  -17.9012   22.9237 O   0  0  0  0  0  0  0  0  0  0  0  0
   12.2078  -14.5388   20.1076 N   0  0  0  0  0  0  0  0  0  0  0  0
   13.5005  -13.9931   20.4393 C   0  0  0  0  0  0  0  0  0  0  0  0
   14.5411  -14.9497   20.0008 C   0  0  0  0  0  0  0  0  0  0  0  0
   14.3660  -16.1759   20.1893 O   0  0  0  0  0  0  0  0  0  0  0  0
   15.7171  -14.5367   19.3820 O   0  0  0  0  0  0  0  0  0  0  0  0
  2  1  1  0
  3  2  2  0
  4  2  1  0
  5  4  1  0
  5  6  1  6
  7  5  1  0
  7  9  1  0
  8  7  2  0
 10  9  1  0
 10 14  1  0
 10 11  1  6
 12 11  1  0
 12 13  2  0
 14 15  2  0
 14 17  1  0
 16 12  1  0
 17 18  1  0
 18 19  1  0
 19 21  1  0
 20 19  2  0
M  END
$$$$
