NDG.pdb
     RDKit          3D

 21 20  0  0  1  0  0  0  0  0999 V2000
    6.5110  -12.6761   18.8407 N   0  0  0  0  0  0  0  0  0  0  0  0
    7.4093  -13.1382   17.8079 C   0  0  0  0  0  0  0  0  0  0  0  0
    6.8696  -13.3658   16.7101 O   0  0  0  0  0  0  0  0  0  0  0  0
    8.8283  -13.3150   18.0583 C   0  0  0  0  0  0  0  0  0  0  0  0
    9.3539  -14.7335   17.9519 C   0  0  2  0  0  0  0  0  0  0  0  0
    8.5331  -15.4755   18.9574 N   0  0  0  0  0  0  0  0  0  0  0  0
   10.7314  -14.7533   18.5012 C   0  0  0  0  0  0  0  0  0  0  0  0
   11.6489  -14.2598   17.7662 O   0  0  0  0  0  0  0  0  0  0  0  0
   11.1433  -15.2494   19.7396 N   0  0  0  0  0  0  0  0  0  0  0  0
   12.5626  -15.5263   19.9967 C   0  0  1  0  0  0  0  0  0  0  0  0
   13.4240  -14.3311   19.7993 C   0  0  0  0  0  0  0  0  0  0  0  0
   14.6472  -14.5803   19.0305 C   0  0  0  0  0  0  0  0  0  0  0  0
   14.8236  -15.4588   18.1779 O   0  0  0  0  0  0  0  0  0  0  0  0
   12.7245  -16.0921   21.3582 C   0  0  0  0  0  0  0  0  0  0  0  0
   11.8060  -16.7017   21.9596 O   0  0  0  0  0  0  0  0  0  0  0  0
   15.7364  -13.7270   19.2928 O   0  0  0  0  0  0  0  0  0  0  0  0
   13.9764  -15.9379   22.0129 N   0  0  0  0  0  0  0  0  0  0  0  0
   14.1410  -16.0563   23.4404 C   0  0  0  0  0  0  0  0  0  0  0  0
   15.5559  -15.7798   23.7749 C   0  0  0  0  0  0  0  0  0  0  0  0
   15.9201  -15.8089   24.9734 O   0  0  0  0  0  0  0  0  0  0  0  0
   16.5062  -15.4859   22.8017 O   0  0  0  0  0  0  0  0  0  0  0  0
  2  1  1  0
  3  2  2  0
  4  2  1  0
  5  4  1  0
  5  6  1  1
  7  5  1  0
  7  9  1  0
  8  7  2  0
 10  9  1  0
 10 14  1  0
 10 11  1  1
 12 11  1  0
 12 13  2  0
 14 15  2  0
 14 17  1  0
 16 12  1  0
 17 18  1  0
 18 19  1  0
 19 21  1  0
 20 19  2  0
M  END
$$$$
