NDG.pdb
     RDKit          3D

 21 20  0  0  1  0  0  0  0  0999 V2000
    8.9034  -15.8312   16.1411 N   0  0  0  0  0  0  0  0  0  0  0  0
    8.1854  -14.6188   16.4604 C   0  0  0  0  0  0  0  0  0  0  0  0
    8.3313  -13.6945   15.6403 O   0  0  0  0  0  0  0  0  0  0  0  0
    7.3640  -14.5137   17.6528 C   0  0  0  0  0  0  0  0  0  0  0  0
    7.9903  -13.7989   18.8346 C   0  0  2  0  0  0  0  0  0  0  0  0
    8.5496  -12.5555   18.2211 N   0  0  0  0  0  0  0  0  0  0  0  0
    9.1790  -14.5762   19.2616 C   0  0  0  0  0  0  0  0  0  0  0  0
    8.9674  -15.7577   19.6915 O   0  0  0  0  0  0  0  0  0  0  0  0
   10.5128  -14.1636   19.2445 N   0  0  0  0  0  0  0  0  0  0  0  0
   11.5708  -15.0406   19.7630 C   0  0  1  0  0  0  0  0  0  0  0  0
   12.8792  -14.8164   19.0942 C   0  0  0  0  0  0  0  0  0  0  0  0
   12.9183  -15.2094   17.6822 C   0  0  0  0  0  0  0  0  0  0  0  0
   13.1017  -14.4686   16.7089 O   0  0  0  0  0  0  0  0  0  0  0  0
   11.6793  -14.8799   21.2335 C   0  0  0  0  0  0  0  0  0  0  0  0
   11.6729  -13.7601   21.8019 O   0  0  0  0  0  0  0  0  0  0  0  0
   12.7260  -16.5771   17.4074 O   0  0  0  0  0  0  0  0  0  0  0  0
   11.7959  -16.0462   22.0371 N   0  0  0  0  0  0  0  0  0  0  0  0
   11.9396  -16.0063   23.4712 C   0  0  0  0  0  0  0  0  0  0  0  0
   11.9191  -17.3942   23.9845 C   0  0  0  0  0  0  0  0  0  0  0  0
   11.6515  -18.3344   23.2008 O   0  0  0  0  0  0  0  0  0  0  0  0
   12.1875  -17.6984   25.3157 O   0  0  0  0  0  0  0  0  0  0  0  0
  2  1  1  0
  3  2  2  0
  4  2  1  0
  5  4  1  0
  5  6  1  6
  7  5  1  0
  7  9  1  0
  8  7  2  0
 10  9  1  0
 10 14  1  0
 10 11  1  6
 12 11  1  0
 12 13  2  0
 14 15  2  0
 14 17  1  0
 16 12  1  0
 17 18  1  0
 18 19  1  0
 19 21  1  0
 20 19  2  0
M  END
$$$$
