NDG.pdb
     RDKit          3D

 21 20  0  0  1  0  0  0  0  0999 V2000
    8.0651  -12.5012   17.2828 N   0  0  0  0  0  0  0  0  0  0  0  0
    7.9172  -13.9188   17.0465 C   0  0  0  0  0  0  0  0  0  0  0  0
    7.1785  -14.2143   16.0897 O   0  0  0  0  0  0  0  0  0  0  0  0
    8.5897  -14.9018   17.8766 C   0  0  0  0  0  0  0  0  0  0  0  0
    9.6495  -15.7423   17.1909 C   0  0  2  0  0  0  0  0  0  0  0  0
    8.8450  -16.7245   16.4015 N   0  0  0  0  0  0  0  0  0  0  0  0
   10.3281  -16.5574   18.2276 C   0  0  0  0  0  0  0  0  0  0  0  0
    9.6517  -17.5069   18.7441 O   0  0  0  0  0  0  0  0  0  0  0  0
   11.6317  -16.4078   18.7050 N   0  0  0  0  0  0  0  0  0  0  0  0
   12.1488  -17.2990   19.7517 C   0  0  1  0  0  0  0  0  0  0  0  0
   13.3881  -18.0083   19.3387 C   0  0  0  0  0  0  0  0  0  0  0  0
   13.2554  -18.8083   18.1173 C   0  0  0  0  0  0  0  0  0  0  0  0
   12.3599  -19.6196   17.8533 O   0  0  0  0  0  0  0  0  0  0  0  0
   12.3546  -16.5336   21.0053 C   0  0  0  0  0  0  0  0  0  0  0  0
   12.8606  -15.3845   21.0303 O   0  0  0  0  0  0  0  0  0  0  0  0
   14.2558  -18.6325   17.1418 O   0  0  0  0  0  0  0  0  0  0  0  0
   11.9614  -17.1269   22.2354 N   0  0  0  0  0  0  0  0  0  0  0  0
   11.9239  -16.4062   23.4836 C   0  0  0  0  0  0  0  0  0  0  0  0
   13.2392  -16.5466   24.1473 C   0  0  0  0  0  0  0  0  0  0  0  0
   14.1199  -17.2641   23.6185 O   0  0  0  0  0  0  0  0  0  0  0  0
   13.5387  -15.9074   25.3465 O   0  0  0  0  0  0  0  0  0  0  0  0
  2  1  1  0
  3  2  2  0
  4  2  1  0
  5  4  1  0
  5  6  1  6
  7  5  1  0
  7  9  1  0
  8  7  2  0
 10  9  1  0
 10 14  1  0
 10 11  1  6
 12 11  1  0
 12 13  2  0
 14 15  2  0
 14 17  1  0
 16 12  1  0
 17 18  1  0
 18 19  1  0
 19 21  1  0
 20 19  2  0
M  END
$$$$
