NDG.pdb
     RDKit          3D

 21 20  0  0  1  0  0  0  0  0999 V2000
    7.4092  -13.6187   16.0161 N   0  0  0  0  0  0  0  0  0  0  0  0
    7.3611  -14.0600   17.3909 C   0  0  0  0  0  0  0  0  0  0  0  0
    7.4452  -15.2916   17.5470 O   0  0  0  0  0  0  0  0  0  0  0  0
    7.2247  -13.1180   18.4871 C   0  0  0  0  0  0  0  0  0  0  0  0
    8.4809  -12.8412   19.2903 C   0  0  2  0  0  0  0  0  0  0  0  0
    9.5160  -12.6187   18.2347 N   0  0  0  0  0  0  0  0  0  0  0  0
    8.8859  -14.1034   19.9553 C   0  0  0  0  0  0  0  0  0  0  0  0
    8.1005  -14.5571   20.8513 O   0  0  0  0  0  0  0  0  0  0  0  0
   10.0334  -14.8604   19.7106 N   0  0  0  0  0  0  0  0  0  0  0  0
   10.2751  -16.1071   20.4486 C   0  0  1  0  0  0  0  0  0  0  0  0
   10.4378  -17.2810   19.5514 C   0  0  0  0  0  0  0  0  0  0  0  0
   10.6369  -18.5569   20.2456 C   0  0  0  0  0  0  0  0  0  0  0  0
    9.9173  -19.0452   21.1251 O   0  0  0  0  0  0  0  0  0  0  0  0
   11.4471  -15.9415   21.3423 C   0  0  0  0  0  0  0  0  0  0  0  0
   11.8133  -16.8208   22.1607 O   0  0  0  0  0  0  0  0  0  0  0  0
   11.7692  -19.3047   19.8690 O   0  0  0  0  0  0  0  0  0  0  0  0
   12.1907  -14.7326   21.2698 N   0  0  0  0  0  0  0  0  0  0  0  0
   13.2706  -14.4142   22.1705 C   0  0  0  0  0  0  0  0  0  0  0  0
   14.5242  -14.9743   21.6181 C   0  0  0  0  0  0  0  0  0  0  0  0
   14.6473  -16.2168   21.5134 O   0  0  0  0  0  0  0  0  0  0  0  0
   15.5810  -14.1677   21.2070 O   0  0  0  0  0  0  0  0  0  0  0  0
  2  1  1  0
  3  2  2  0
  4  2  1  0
  5  4  1  0
  5  6  1  6
  7  5  1  0
  7  9  1  0
  8  7  2  0
 10  9  1  0
 10 14  1  0
 10 11  1  6
 12 11  1  0
 12 13  2  0
 14 15  2  0
 14 17  1  0
 16 12  1  0
 17 18  1  0
 18 19  1  0
 19 21  1  0
 20 19  2  0
M  END
$$$$
