NDG.pdb
     RDKit          3D

 21 20  0  0  1  0  0  0  0  0999 V2000
    7.7283  -26.4028   21.5919 N   0  0  0  0  0  0  0  0  0  0  0  0
    7.4265  -25.2076   22.3454 C   0  0  0  0  0  0  0  0  0  0  0  0
    6.3533  -25.2440   22.9740 O   0  0  0  0  0  0  0  0  0  0  0  0
    8.3235  -24.0663   22.3513 C   0  0  0  0  0  0  0  0  0  0  0  0
    8.9195  -23.6919   23.6946 C   0  0  2  0  0  0  0  0  0  0  0  0
    7.7924  -22.9898   24.3816 N   0  0  0  0  0  0  0  0  0  0  0  0
    9.9369  -22.6375   23.4657 C   0  0  0  0  0  0  0  0  0  0  0  0
   11.0760  -23.0222   23.0411 O   0  0  0  0  0  0  0  0  0  0  0  0
    9.7911  -21.2623   23.6586 N   0  0  0  0  0  0  0  0  0  0  0  0
   10.8916  -20.3440   23.3379 C   0  0  1  0  0  0  0  0  0  0  0  0
   10.5027  -19.3095   22.3439 C   0  0  0  0  0  0  0  0  0  0  0  0
   11.5590  -18.3454   22.0211 C   0  0  0  0  0  0  0  0  0  0  0  0
   12.7128  -18.3296   22.4663 O   0  0  0  0  0  0  0  0  0  0  0  0
   11.4115  -19.7299   24.5840 C   0  0  0  0  0  0  0  0  0  0  0  0
   12.2690  -18.8126   24.5887 O   0  0  0  0  0  0  0  0  0  0  0  0
   11.2213  -17.3294   21.1062 O   0  0  0  0  0  0  0  0  0  0  0  0
   10.9168  -20.2006   25.8303 N   0  0  0  0  0  0  0  0  0  0  0  0
   11.2863  -19.6195   27.0971 C   0  0  0  0  0  0  0  0  0  0  0  0
   12.4665  -20.3434   27.6200 C   0  0  0  0  0  0  0  0  0  0  0  0
   13.0655  -21.1568   26.8787 O   0  0  0  0  0  0  0  0  0  0  0  0
   12.9410  -20.1544   28.9144 O   0  0  0  0  0  0  0  0  0  0  0  0
  2  1  1  0
  3  2  2  0
  4  2  1  0
  5  4  1  0
  5  6  1  1
  7  5  1  0
  7  9  1  0
  8  7  2  0
 10  9  1  0
 10 14  1  0
 10 11  1  6
 12 11  1  0
 12 13  2  0
 14 15  2  0
 14 17  1  0
 16 12  1  0
 17 18  1  0
 18 19  1  0
 19 21  1  0
 20 19  2  0
M  END
$$$$
