NDG.pdb
     RDKit          3D

 21 20  0  0  1  0  0  0  0  0999 V2000
    6.4014  -27.6047   31.4896 N   0  0  0  0  0  0  0  0  0  0  0  0
    7.3793  -27.3190   32.5140 C   0  0  0  0  0  0  0  0  0  0  0  0
    7.0031  -27.5580   33.6758 O   0  0  0  0  0  0  0  0  0  0  0  0
    8.6924  -26.7941   32.1860 C   0  0  0  0  0  0  0  0  0  0  0  0
    9.0621  -25.4706   32.8275 C   0  0  2  0  0  0  0  0  0  0  0  0
    7.9775  -24.5532   32.3615 N   0  0  0  0  0  0  0  0  0  0  0  0
   10.2906  -24.9688   32.1653 C   0  0  0  0  0  0  0  0  0  0  0  0
   11.3678  -25.6122   32.3920 O   0  0  0  0  0  0  0  0  0  0  0  0
   10.4057  -23.8684   31.3135 N   0  0  0  0  0  0  0  0  0  0  0  0
   11.7084  -23.4998   30.7442 C   0  0  1  0  0  0  0  0  0  0  0  0
   11.5829  -22.6685   29.5184 C   0  0  0  0  0  0  0  0  0  0  0  0
   11.1972  -23.4107   28.3143 C   0  0  0  0  0  0  0  0  0  0  0  0
   11.9510  -24.0012   27.5314 O   0  0  0  0  0  0  0  0  0  0  0  0
   12.5330  -22.8237   31.7753 C   0  0  0  0  0  0  0  0  0  0  0  0
   13.3529  -23.4345   32.5045 O   0  0  0  0  0  0  0  0  0  0  0  0
    9.8207  -23.4546   28.0198 O   0  0  0  0  0  0  0  0  0  0  0  0
   12.3893  -21.4203   31.9465 N   0  0  0  0  0  0  0  0  0  0  0  0
   13.2020  -20.4525   31.2523 C   0  0  0  0  0  0  0  0  0  0  0  0
   14.4226  -20.2040   32.0515 C   0  0  0  0  0  0  0  0  0  0  0  0
   14.6338  -20.8897   33.0786 O   0  0  0  0  0  0  0  0  0  0  0  0
   15.3532  -19.2296   31.7036 O   0  0  0  0  0  0  0  0  0  0  0  0
  2  1  1  0
  3  2  2  0
  4  2  1  0
  5  4  1  0
  5  6  1  6
  7  5  1  0
  7  9  1  0
  8  7  2  0
 10  9  1  0
 10 14  1  0
 10 11  1  6
 12 11  1  0
 12 13  2  0
 14 15  2  0
 14 17  1  0
 16 12  1  0
 17 18  1  0
 18 19  1  0
 19 21  1  0
 20 19  2  0
M  END
$$$$
