NDG.pdb
     RDKit          3D

 21 20  0  0  1  0  0  0  0  0999 V2000
    9.1660  -18.5433   17.3152 N   0  0  0  0  0  0  0  0  0  0  0  0
    8.1708  -17.5018   17.2045 C   0  0  0  0  0  0  0  0  0  0  0  0
    8.2343  -16.8282   16.1602 O   0  0  0  0  0  0  0  0  0  0  0  0
    7.1842  -17.2796   18.2460 C   0  0  0  0  0  0  0  0  0  0  0  0
    7.3061  -18.1539   19.4791 C   0  0  2  0  0  0  0  0  0  0  0  0
    6.2721  -19.2090   19.2502 N   0  0  0  0  0  0  0  0  0  0  0  0
    6.8041  -17.3795   20.6401 C   0  0  0  0  0  0  0  0  0  0  0  0
    7.5737  -16.4735   21.1012 O   0  0  0  0  0  0  0  0  0  0  0  0
    5.5767  -17.5253   21.2897 N   0  0  0  0  0  0  0  0  0  0  0  0
    5.4634  -18.3665   22.4884 C   0  0  1  0  0  0  0  0  0  0  0  0
    5.8488  -19.7794   22.2347 C   0  0  0  0  0  0  0  0  0  0  0  0
    4.7351  -20.6596   21.8681 C   0  0  0  0  0  0  0  0  0  0  0  0
    3.5276  -20.4044   21.9496 O   0  0  0  0  0  0  0  0  0  0  0  0
    6.2604  -17.7771   23.5917 C   0  0  0  0  0  0  0  0  0  0  0  0
    5.7807  -17.5284   24.7253 O   0  0  0  0  0  0  0  0  0  0  0  0
    5.0796  -21.9311   21.3701 O   0  0  0  0  0  0  0  0  0  0  0  0
    7.6300  -17.4798   23.3561 N   0  0  0  0  0  0  0  0  0  0  0  0
    8.4983  -16.9111   24.3568 C   0  0  0  0  0  0  0  0  0  0  0  0
    9.4419  -17.9573   24.8100 C   0  0  0  0  0  0  0  0  0  0  0  0
   10.3451  -17.6576   25.6250 O   0  0  0  0  0  0  0  0  0  0  0  0
    9.3645  -19.2725   24.3622 O   0  0  0  0  0  0  0  0  0  0  0  0
  2  1  1  0
  3  2  2  0
  4  2  1  0
  5  4  1  0
  5  6  1  6
  7  5  1  0
  7  9  1  0
  8  7  2  0
 10  9  1  0
 10 14  1  0
 10 11  1  6
 12 11  1  0
 12 13  2  0
 14 15  2  0
 14 17  1  0
 16 12  1  0
 17 18  1  0
 18 19  1  0
 19 21  1  0
 20 19  2  0
M  END
$$$$
