NDG.pdb
     RDKit          3D

 21 20  0  0  1  0  0  0  0  0999 V2000
   18.8471  -14.2729   17.2722 N   0  0  0  0  0  0  0  0  0  0  0  0
   17.8559  -13.2564   17.0047 C   0  0  0  0  0  0  0  0  0  0  0  0
   18.1824  -12.4238   16.1395 O   0  0  0  0  0  0  0  0  0  0  0  0
   16.5849  -13.2313   17.7055 C   0  0  0  0  0  0  0  0  0  0  0  0
   15.5437  -14.2293   17.2369 C   0  0  2  0  0  0  0  0  0  0  0  0
   15.1364  -13.6928   15.9022 N   0  0  0  0  0  0  0  0  0  0  0  0
   14.3411  -14.0703   18.0901 C   0  0  0  0  0  0  0  0  0  0  0  0
   13.2987  -13.5965   17.5292 O   0  0  0  0  0  0  0  0  0  0  0  0
   14.2150  -14.3844   19.4447 N   0  0  0  0  0  0  0  0  0  0  0  0
   13.2589  -15.4081   19.8864 C   0  0  1  0  0  0  0  0  0  0  0  0
   13.4335  -16.7003   19.1727 C   0  0  0  0  0  0  0  0  0  0  0  0
   12.4771  -17.7433   19.5558 C   0  0  0  0  0  0  0  0  0  0  0  0
   12.7221  -18.7864   20.1737 O   0  0  0  0  0  0  0  0  0  0  0  0
   13.3554  -15.5835   21.3561 C   0  0  0  0  0  0  0  0  0  0  0  0
   12.5312  -16.2591   22.0202 O   0  0  0  0  0  0  0  0  0  0  0  0
   11.1366  -17.5329   19.1787 O   0  0  0  0  0  0  0  0  0  0  0  0
   14.4298  -14.9586   22.0452 N   0  0  0  0  0  0  0  0  0  0  0  0
   14.5719  -14.9885   23.4797 C   0  0  0  0  0  0  0  0  0  0  0  0
   15.3112  -16.2149   23.8534 C   0  0  0  0  0  0  0  0  0  0  0  0
   15.5624  -17.0718   22.9745 O   0  0  0  0  0  0  0  0  0  0  0  0
   15.7420  -16.4557   25.1545 O   0  0  0  0  0  0  0  0  0  0  0  0
  2  1  1  0
  3  2  2  0
  4  2  1  0
  5  4  1  0
  5  6  1  6
  7  5  1  0
  7  9  1  0
  8  7  2  0
 10  9  1  0
 10 14  1  0
 10 11  1  6
 12 11  1  0
 12 13  2  0
 14 15  2  0
 14 17  1  0
 16 12  1  0
 17 18  1  0
 18 19  1  0
 19 21  1  0
 20 19  2  0
M  END
$$$$
