DLP.pdb
     RDKit          3D

 24 24  0  0  1  0  0  0  0  0999 V2000
   18.1174  -12.6197  -15.8576 N   0  0  0  0  0  0  0  0  0  0  0  0
   18.2407  -11.2811  -16.3618 C   0  0  1  0  0  0  0  0  0  0  0  0
   16.8890  -10.6026  -16.2061 C   0  0  0  0  0  0  0  0  0  0  0  0
   15.9289  -11.2988  -17.1049 C   0  0  0  0  0  0  0  0  0  0  0  0
   16.2609  -11.5591  -18.3069 O   0  0  0  0  0  0  0  0  0  0  0  0
   19.3114  -10.5187  -15.6780 C   0  0  0  0  0  0  0  0  0  0  0  0
   19.2405  -10.3458  -14.4460 O   0  0  0  0  0  0  0  0  0  0  0  0
   14.6661  -11.6862  -16.6917 O   0  0  0  0  0  0  0  0  0  0  0  0
   23.6401  -10.9389  -14.0440 C   0  0  0  0  0  0  0  0  0  0  0  0
   23.3702  -10.9759  -15.5118 C   0  0  2  0  0  0  0  0  0  0  0  0
   24.7365  -11.1661  -16.2158 C   0  0  0  0  0  0  0  0  0  0  0  0
   22.7347   -9.8236  -16.1458 C   0  0  0  0  0  0  0  0  0  0  0  0
   21.4741   -9.2310  -15.6506 C   0  0  2  0  0  0  0  0  0  0  0  0
   20.4183   -9.9764  -16.3772 N   0  0  0  0  0  0  0  0  0  0  0  0
   21.2731   -7.8119  -15.8721 C   0  0  0  0  0  0  0  0  0  0  0  0
   20.8608   -7.4960  -17.0646 O   0  0  0  0  0  0  0  0  0  0  0  0
   21.4454   -6.7215  -15.0258 N   0  0  0  0  0  0  0  0  0  0  0  0
   21.8541   -6.7094  -13.6523 C   0  0  0  0  0  0  0  0  0  0  0  0
   21.9871   -5.2251  -13.2489 C   0  0  0  0  0  0  0  0  0  0  0  0
   20.8858   -4.6442  -14.1301 C   0  0  0  0  0  0  0  0  0  0  0  0
   21.2204   -5.3263  -15.4370 C   0  0  1  0  0  0  0  0  0  0  0  0
   22.4169   -4.7550  -16.0779 C   0  0  0  0  0  0  0  0  0  0  0  0
   22.4492   -3.5786  -16.7968 O   0  0  0  0  0  0  0  0  0  0  0  0
   23.4947   -5.3928  -15.9588 O   0  0  0  0  0  0  0  0  0  0  0  0
  2  1  1  1
  2  3  1  0
  3  4  1  0
  4  8  1  0
  4  5  2  0
  6  2  1  0
  6  7  2  0
 10  9  1  1
 10 11  1  0
 10 12  1  0
 13 12  1  6
 13 14  1  0
 14  6  1  0
 15 13  1  0
 16 15  2  0
 17 15  1  0
 17 18  1  0
 19 18  1  0
 20 21  1  0
 20 19  1  0
 21 17  1  0
 21 22  1  1
 23 22  1  0
 24 22  2  0
M  END
$$$$
