DLP.pdb
     RDKit          3D

 24 24  0  0  1  0  0  0  0  0999 V2000
   20.0916  -19.8778  -12.5656 N   0  0  0  0  0  0  0  0  0  0  0  0
   21.0632  -20.8777  -12.9083 C   0  0  1  0  0  0  0  0  0  0  0  0
   20.7034  -21.4193  -14.2826 C   0  0  0  0  0  0  0  0  0  0  0  0
   19.4139  -22.1511  -14.1555 C   0  0  0  0  0  0  0  0  0  0  0  0
   18.4279  -21.8304  -14.8956 O   0  0  0  0  0  0  0  0  0  0  0  0
   22.4475  -20.3503  -12.8795 C   0  0  0  0  0  0  0  0  0  0  0  0
   22.6685  -19.2031  -13.3128 O   0  0  0  0  0  0  0  0  0  0  0  0
   19.2279  -23.1846  -13.2541 O   0  0  0  0  0  0  0  0  0  0  0  0
   25.2006  -19.3235   -9.3715 C   0  0  0  0  0  0  0  0  0  0  0  0
   25.1215  -20.7571   -9.7803 C   0  0  2  0  0  0  0  0  0  0  0  0
   26.0463  -21.5495   -8.8235 C   0  0  0  0  0  0  0  0  0  0  0  0
   25.5122  -21.1308  -11.1373 C   0  0  0  0  0  0  0  0  0  0  0  0
   24.8999  -20.5298  -12.3412 C   0  0  2  0  0  0  0  0  0  0  0  0
   23.5345  -21.1065  -12.3746 N   0  0  0  0  0  0  0  0  0  0  0  0
   25.5421  -20.7895  -13.6154 C   0  0  0  0  0  0  0  0  0  0  0  0
   25.1795  -21.8949  -14.1970 O   0  0  0  0  0  0  0  0  0  0  0  0
   26.4851  -20.0575  -14.3295 N   0  0  0  0  0  0  0  0  0  0  0  0
   27.1601  -18.8524  -13.9477 C   0  0  0  0  0  0  0  0  0  0  0  0
   28.1764  -18.5466  -15.0690 C   0  0  0  0  0  0  0  0  0  0  0  0
   27.3928  -19.1048  -16.2527 C   0  0  0  0  0  0  0  0  0  0  0  0
   26.9638  -20.4320  -15.6699 C   0  0  1  0  0  0  0  0  0  0  0  0
   28.0740  -21.3967  -15.5943 C   0  0  0  0  0  0  0  0  0  0  0  0
   28.6889  -21.8122  -14.4320 O   0  0  0  0  0  0  0  0  0  0  0  0
   28.4934  -21.8790  -16.6778 O   0  0  0  0  0  0  0  0  0  0  0  0
  2  1  1  6
  2  3  1  0
  3  4  1  0
  4  8  1  0
  4  5  2  0
  6  2  1  0
  6  7  2  0
 10  9  1  6
 10 11  1  0
 10 12  1  0
 13 12  1  1
 13 14  1  0
 14  6  1  0
 15 13  1  0
 16 15  2  0
 17 15  1  0
 17 18  1  0
 19 18  1  0
 20 21  1  0
 20 19  1  0
 21 17  1  0
 21 22  1  1
 23 22  1  0
 24 22  2  0
M  END
$$$$
