DLP.pdb
     RDKit          3D

 24 24  0  0  1  0  0  0  0  0999 V2000
   15.6802  -11.0495  -16.6123 N   0  0  0  0  0  0  0  0  0  0  0  0
   16.6905  -10.6602  -15.6693 C   0  0  1  0  0  0  0  0  0  0  0  0
   17.6935  -11.7986  -15.5709 C   0  0  0  0  0  0  0  0  0  0  0  0
   17.0726  -12.8773  -14.7552 C   0  0  0  0  0  0  0  0  0  0  0  0
   15.9449  -12.6798  -14.1966 O   0  0  0  0  0  0  0  0  0  0  0  0
   17.3504   -9.3880  -16.0448 C   0  0  0  0  0  0  0  0  0  0  0  0
   17.7919   -9.2524  -17.2021 O   0  0  0  0  0  0  0  0  0  0  0  0
   17.6716  -14.1110  -14.5689 O   0  0  0  0  0  0  0  0  0  0  0  0
   17.2216   -4.8985  -17.7681 C   0  0  0  0  0  0  0  0  0  0  0  0
   16.3584   -5.5265  -16.7245 C   0  0  2  0  0  0  0  0  0  0  0  0
   15.3653   -4.4382  -16.2474 C   0  0  0  0  0  0  0  0  0  0  0  0
   16.9824   -6.0733  -15.5223 C   0  0  0  0  0  0  0  0  0  0  0  0
   18.1049   -7.0342  -15.5686 C   0  0  2  0  0  0  0  0  0  0  0  0
   17.4986   -8.3145  -15.1315 N   0  0  0  0  0  0  0  0  0  0  0  0
   19.2542   -6.7569  -14.7285 C   0  0  0  0  0  0  0  0  0  0  0  0
   19.0243   -6.8112  -13.4495 O   0  0  0  0  0  0  0  0  0  0  0  0
   20.5690   -6.4406  -15.0541 N   0  0  0  0  0  0  0  0  0  0  0  0
   21.1603   -6.2942  -16.3513 C   0  0  0  0  0  0  0  0  0  0  0  0
   22.6135   -5.8273  -16.1192 C   0  0  0  0  0  0  0  0  0  0  0  0
   22.8833   -6.5499  -14.8031 C   0  0  0  0  0  0  0  0  0  0  0  0
   21.6199   -6.1925  -14.0539 C   0  0  1  0  0  0  0  0  0  0  0  0
   21.6125   -4.7907  -13.6027 C   0  0  0  0  0  0  0  0  0  0  0  0
   20.7900   -3.8003  -14.0970 O   0  0  0  0  0  0  0  0  0  0  0  0
   22.4220   -4.4734  -12.6936 O   0  0  0  0  0  0  0  0  0  0  0  0
  2  1  1  6
  2  3  1  0
  3  4  1  0
  4  8  1  0
  4  5  2  0
  6  2  1  0
  6  7  2  0
 10  9  1  6
 10 11  1  0
 10 12  1  0
 13 12  1  1
 13 14  1  0
 14  6  1  0
 15 13  1  0
 16 15  2  0
 17 15  1  0
 17 18  1  0
 19 18  1  0
 20 21  1  0
 20 19  1  0
 21 17  1  0
 21 22  1  6
 23 22  1  0
 24 22  2  0
M  END
$$$$
