DLP.pdb
     RDKit          3D

 24 24  0  0  1  0  0  0  0  0999 V2000
   29.0798  -20.9201  -16.4974 N   0  0  0  0  0  0  0  0  0  0  0  0
   28.0948  -20.0565  -15.9097 C   0  0  1  0  0  0  0  0  0  0  0  0
   27.3585  -19.3581  -17.0419 C   0  0  0  0  0  0  0  0  0  0  0  0
   28.3093  -18.4073  -17.6792 C   0  0  0  0  0  0  0  0  0  0  0  0
   28.6098  -17.3198  -17.0876 O   0  0  0  0  0  0  0  0  0  0  0  0
   27.1587  -20.7901  -15.0261 C   0  0  0  0  0  0  0  0  0  0  0  0
   26.6793  -21.8723  -15.4157 O   0  0  0  0  0  0  0  0  0  0  0  0
   28.8962  -18.6501  -18.9088 O   0  0  0  0  0  0  0  0  0  0  0  0
   24.0446  -21.0046  -10.2435 C   0  0  0  0  0  0  0  0  0  0  0  0
   25.5237  -21.1847  -10.3361 C   0  0  2  0  0  0  0  0  0  0  0  0
   26.1428  -20.4563   -9.1175 C   0  0  0  0  0  0  0  0  0  0  0  0
   26.2266  -20.6878  -11.5162 C   0  0  0  0  0  0  0  0  0  0  0  0
   25.8525  -21.0745  -12.8932 C   0  0  2  0  0  0  0  0  0  0  0  0
   26.7868  -20.3036  -13.7481 N   0  0  0  0  0  0  0  0  0  0  0  0
   24.4956  -20.7905  -13.3194 C   0  0  0  0  0  0  0  0  0  0  0  0
   24.1958  -19.5268  -13.3889 O   0  0  0  0  0  0  0  0  0  0  0  0
   23.4510  -21.6398  -13.6694 N   0  0  0  0  0  0  0  0  0  0  0  0
   23.4382  -23.0720  -13.7158 C   0  0  0  0  0  0  0  0  0  0  0  0
   21.9902  -23.4854  -14.0566 C   0  0  0  0  0  0  0  0  0  0  0  0
   21.6099  -22.2990  -14.9368 C   0  0  0  0  0  0  0  0  0  0  0  0
   22.1158  -21.1680  -14.0707 C   0  0  1  0  0  0  0  0  0  0  0  0
   21.2553  -20.9299  -12.8996 C   0  0  0  0  0  0  0  0  0  0  0  0
   21.5244  -21.3543  -11.6153 O   0  0  0  0  0  0  0  0  0  0  0  0
   20.1901  -20.2879  -13.0879 O   0  0  0  0  0  0  0  0  0  0  0  0
  2  1  1  6
  2  3  1  0
  3  4  1  0
  4  8  1  0
  4  5  2  0
  6  2  1  0
  6  7  2  0
 10  9  1  6
 10 11  1  0
 10 12  1  0
 13 12  1  1
 13 14  1  0
 14  6  1  0
 15 13  1  0
 16 15  2  0
 17 15  1  0
 17 18  1  0
 19 18  1  0
 20 21  1  0
 20 19  1  0
 21 17  1  0
 21 22  1  1
 23 22  1  0
 24 22  2  0
M  END
$$$$
