DLP.pdb
     RDKit          3D

 24 24  0  0  1  0  0  0  0  0999 V2000
   27.6985  -19.0703  -17.6030 N   0  0  0  0  0  0  0  0  0  0  0  0
   26.6011  -18.6032  -16.8036 C   0  0  1  0  0  0  0  0  0  0  0  0
   25.5399  -18.0611  -17.7478 C   0  0  0  0  0  0  0  0  0  0  0  0
   26.1235  -16.8907  -18.4577 C   0  0  0  0  0  0  0  0  0  0  0  0
   25.6242  -16.5083  -19.5656 O   0  0  0  0  0  0  0  0  0  0  0  0
   26.0538  -19.6633  -15.9250 C   0  0  0  0  0  0  0  0  0  0  0  0
   25.9247  -20.8177  -16.3758 O   0  0  0  0  0  0  0  0  0  0  0  0
   27.2045  -16.1813  -17.9643 O   0  0  0  0  0  0  0  0  0  0  0  0
   25.2223  -20.3052   -9.8770 C   0  0  0  0  0  0  0  0  0  0  0  0
   25.2402  -20.9743  -11.2114 C   0  0  2  0  0  0  0  0  0  0  0  0
   26.2468  -22.1472  -11.1131 C   0  0  0  0  0  0  0  0  0  0  0  0
   25.6217  -20.1989  -12.3890 C   0  0  0  0  0  0  0  0  0  0  0  0
   25.1136  -20.4987  -13.7445 C   0  0  2  0  0  0  0  0  0  0  0  0
   25.6701  -19.4109  -14.5843 N   0  0  0  0  0  0  0  0  0  0  0  0
   23.6749  -20.5311  -13.9246 C   0  0  0  0  0  0  0  0  0  0  0  0
   23.0843  -19.3761  -13.8300 O   0  0  0  0  0  0  0  0  0  0  0  0
   22.8098  -21.5893  -14.1826 N   0  0  0  0  0  0  0  0  0  0  0  0
   23.1175  -22.9803  -14.3386 C   0  0  0  0  0  0  0  0  0  0  0  0
   21.7669  -23.7120  -14.4942 C   0  0  0  0  0  0  0  0  0  0  0  0
   20.9886  -22.6147  -15.2133 C   0  0  0  0  0  0  0  0  0  0  0  0
   21.3554  -21.4328  -14.3452 C   0  0  1  0  0  0  0  0  0  0  0  0
   20.6636  -21.4553  -13.0453 C   0  0  0  0  0  0  0  0  0  0  0  0
   19.3605  -21.0583  -12.8307 O   0  0  0  0  0  0  0  0  0  0  0  0
   21.3154  -21.8702  -12.0525 O   0  0  0  0  0  0  0  0  0  0  0  0
  2  1  1  6
  2  3  1  0
  3  4  1  0
  4  8  1  0
  4  5  2  0
  6  2  1  0
  6  7  2  0
 10  9  1  1
 10 11  1  0
 10 12  1  0
 13 12  1  1
 13 14  1  0
 14  6  1  0
 15 13  1  0
 16 15  2  0
 17 15  1  0
 17 18  1  0
 19 18  1  0
 20 21  1  0
 20 19  1  0
 21 17  1  0
 21 22  1  1
 23 22  1  0
 24 22  2  0
M  END
$$$$
