DLP.pdb
     RDKit          3D

 24 24  0  0  1  0  0  0  0  0999 V2000
   26.6756  -21.3524  -13.9262 N   0  0  0  0  0  0  0  0  0  0  0  0
   25.8568  -20.5372  -13.0739 C   0  0  1  0  0  0  0  0  0  0  0  0
   24.4408  -20.5683  -13.6266 C   0  0  0  0  0  0  0  0  0  0  0  0
   24.4759  -19.9739  -14.9903 C   0  0  0  0  0  0  0  0  0  0  0  0
   24.6678  -18.7224  -15.1312 O   0  0  0  0  0  0  0  0  0  0  0  0
   25.8969  -20.9829  -11.6615 C   0  0  0  0  0  0  0  0  0  0  0  0
   25.7271  -22.1896  -11.4013 O   0  0  0  0  0  0  0  0  0  0  0  0
   24.3069  -20.7285  -16.1381 O   0  0  0  0  0  0  0  0  0  0  0  0
   27.4936  -18.3276   -6.3435 C   0  0  0  0  0  0  0  0  0  0  0  0
   27.1890  -19.6140   -7.0372 C   0  0  2  0  0  0  0  0  0  0  0  0
   28.3621  -20.5781   -6.7327 C   0  0  0  0  0  0  0  0  0  0  0  0
   27.0185  -19.6148   -8.4880 C   0  0  0  0  0  0  0  0  0  0  0  0
   26.1336  -20.5686   -9.1899 C   0  0  2  0  0  0  0  0  0  0  0  0
   26.1223  -20.0825  -10.5905 N   0  0  0  0  0  0  0  0  0  0  0  0
   24.7633  -20.6713   -8.7258 C   0  0  0  0  0  0  0  0  0  0  0  0
   23.9584  -19.7598   -9.1872 O   0  0  0  0  0  0  0  0  0  0  0  0
   24.1552  -21.5810   -7.8671 N   0  0  0  0  0  0  0  0  0  0  0  0
   24.7371  -22.7046   -7.1942 C   0  0  0  0  0  0  0  0  0  0  0  0
   23.6340  -23.2894   -6.2859 C   0  0  0  0  0  0  0  0  0  0  0  0
   22.4215  -22.9648   -7.1527 C   0  0  0  0  0  0  0  0  0  0  0  0
   22.7323  -21.5255   -7.4949 C   0  0  1  0  0  0  0  0  0  0  0  0
   22.5092  -20.6175   -6.3570 C   0  0  0  0  0  0  0  0  0  0  0  0
   21.2768  -20.1865   -5.9130 O   0  0  0  0  0  0  0  0  0  0  0  0
   23.5256  -20.2031   -5.7424 O   0  0  0  0  0  0  0  0  0  0  0  0
  2  1  1  6
  2  3  1  0
  3  4  1  0
  4  8  1  0
  4  5  2  0
  6  2  1  0
  6  7  2  0
 10  9  1  6
 10 11  1  0
 10 12  1  0
 13 12  1  1
 13 14  1  0
 14  6  1  0
 15 13  1  0
 16 15  2  0
 17 15  1  0
 17 18  1  0
 19 18  1  0
 20 21  1  0
 20 19  1  0
 21 17  1  0
 21 22  1  1
 23 22  1  0
 24 22  2  0
M  END
$$$$
