DLP.pdb
     RDKit          3D

 24 24  0  0  1  0  0  0  0  0999 V2000
   28.4957  -20.3797  -17.6477 N   0  0  0  0  0  0  0  0  0  0  0  0
   27.4071  -19.6925  -17.0120 C   0  0  1  0  0  0  0  0  0  0  0  0
   26.4576  -19.2229  -18.1027 C   0  0  0  0  0  0  0  0  0  0  0  0
   26.8901  -17.8621  -18.5218 C   0  0  0  0  0  0  0  0  0  0  0  0
   27.8836  -17.7270  -19.3076 O   0  0  0  0  0  0  0  0  0  0  0  0
   26.7110  -20.5407  -16.0163 C   0  0  0  0  0  0  0  0  0  0  0  0
   26.4527  -21.7253  -16.3037 O   0  0  0  0  0  0  0  0  0  0  0  0
   26.2535  -16.7110  -18.0915 O   0  0  0  0  0  0  0  0  0  0  0  0
   25.4339  -19.9470  -10.0056 C   0  0  0  0  0  0  0  0  0  0  0  0
   25.4047  -20.8366  -11.2041 C   0  0  2  0  0  0  0  0  0  0  0  0
   26.1713  -22.1277  -10.8249 C   0  0  0  0  0  0  0  0  0  0  0  0
   25.9889  -20.3607  -12.4555 C   0  0  0  0  0  0  0  0  0  0  0  0
   25.6444  -20.9396  -13.7715 C   0  0  2  0  0  0  0  0  0  0  0  0
   26.3266  -20.0515  -14.7430 N   0  0  0  0  0  0  0  0  0  0  0  0
   24.2384  -21.0117  -14.1199 C   0  0  0  0  0  0  0  0  0  0  0  0
   23.6937  -19.8747  -14.4396 O   0  0  0  0  0  0  0  0  0  0  0  0
   23.3643  -22.0924  -14.1724 N   0  0  0  0  0  0  0  0  0  0  0  0
   23.6402  -23.4798  -13.9425 C   0  0  0  0  0  0  0  0  0  0  0  0
   22.2842  -24.2139  -14.0205 C   0  0  0  0  0  0  0  0  0  0  0  0
   21.5998  -23.3302  -15.0586 C   0  0  0  0  0  0  0  0  0  0  0  0
   21.9329  -21.9688  -14.4921 C   0  0  1  0  0  0  0  0  0  0  0  0
   21.1397  -21.6508  -13.2928 C   0  0  0  0  0  0  0  0  0  0  0  0
   19.8288  -21.2226  -13.2966 O   0  0  0  0  0  0  0  0  0  0  0  0
   21.7050  -21.7808  -12.1765 O   0  0  0  0  0  0  0  0  0  0  0  0
  2  1  1  6
  2  3  1  0
  3  4  1  0
  4  8  1  0
  4  5  2  0
  6  2  1  0
  6  7  2  0
 10  9  1  1
 10 11  1  0
 10 12  1  0
 13 12  1  1
 13 14  1  0
 14  6  1  0
 15 13  1  0
 16 15  2  0
 17 15  1  0
 17 18  1  0
 19 18  1  0
 20 21  1  0
 20 19  1  0
 21 17  1  0
 21 22  1  1
 23 22  1  0
 24 22  2  0
M  END
$$$$
