DLP.pdb
     RDKit          3D

 24 24  0  0  1  0  0  0  0  0999 V2000
   20.2353  -18.3712  -15.8375 N   0  0  0  0  0  0  0  0  0  0  0  0
   20.9484  -19.5814  -15.5405 C   0  0  1  0  0  0  0  0  0  0  0  0
   21.0484  -20.3860  -16.8266 C   0  0  0  0  0  0  0  0  0  0  0  0
   19.6937  -20.9217  -17.1298 C   0  0  0  0  0  0  0  0  0  0  0  0
   19.1944  -20.7617  -18.2909 O   0  0  0  0  0  0  0  0  0  0  0  0
   22.2863  -19.3182  -14.9608 C   0  0  0  0  0  0  0  0  0  0  0  0
   22.9299  -18.3239  -15.3479 O   0  0  0  0  0  0  0  0  0  0  0  0
   18.9323  -21.5997  -16.1938 O   0  0  0  0  0  0  0  0  0  0  0  0
   25.5380  -21.6430  -10.2251 C   0  0  0  0  0  0  0  0  0  0  0  0
   25.5542  -20.8162  -11.4680 C   0  0  2  0  0  0  0  0  0  0  0  0
   26.0564  -19.4078  -11.0649 C   0  0  0  0  0  0  0  0  0  0  0  0
   24.3083  -20.6166  -12.2038 C   0  0  0  0  0  0  0  0  0  0  0  0
   24.2515  -19.9285  -13.5110 C   0  0  2  0  0  0  0  0  0  0  0  0
   22.8634  -20.1600  -13.9776 N   0  0  0  0  0  0  0  0  0  0  0  0
   25.1665  -20.3799  -14.5418 C   0  0  0  0  0  0  0  0  0  0  0  0
   24.7824  -21.4402  -15.1898 O   0  0  0  0  0  0  0  0  0  0  0  0
   26.3920  -19.8733  -14.9615 N   0  0  0  0  0  0  0  0  0  0  0  0
   27.1112  -18.7392  -14.4612 C   0  0  0  0  0  0  0  0  0  0  0  0
   28.4581  -18.7084  -15.2153 C   0  0  0  0  0  0  0  0  0  0  0  0
   27.9917  -19.2821  -16.5496 C   0  0  0  0  0  0  0  0  0  0  0  0
   27.1874  -20.4611  -16.0515 C   0  0  1  0  0  0  0  0  0  0  0  0
   28.0415  -21.5570  -15.5634 C   0  0  0  0  0  0  0  0  0  0  0  0
   28.7656  -22.4172  -16.3617 O   0  0  0  0  0  0  0  0  0  0  0  0
   28.1150  -21.7196  -14.3181 O   0  0  0  0  0  0  0  0  0  0  0  0
  2  1  1  6
  2  3  1  0
  3  4  1  0
  4  8  1  0
  4  5  2  0
  6  2  1  0
  6  7  2  0
 10  9  1  1
 10 11  1  0
 10 12  1  0
 13 12  1  1
 13 14  1  0
 14  6  1  0
 15 13  1  0
 16 15  2  0
 17 15  1  0
 17 18  1  0
 19 18  1  0
 20 21  1  0
 20 19  1  0
 21 17  1  0
 21 22  1  1
 23 22  1  0
 24 22  2  0
M  END
$$$$
