DLP.pdb
     RDKit          3D

 24 24  0  0  1  0  0  0  0  0999 V2000
   20.7707  -21.1962  -12.4990 N   0  0  0  0  0  0  0  0  0  0  0  0
   21.0792  -20.5264  -13.7309 C   0  0  1  0  0  0  0  0  0  0  0  0
   19.9309  -19.5797  -14.0419 C   0  0  0  0  0  0  0  0  0  0  0  0
   18.8089  -20.3940  -14.5825 C   0  0  0  0  0  0  0  0  0  0  0  0
   19.0217  -21.2122  -15.5355 O   0  0  0  0  0  0  0  0  0  0  0  0
   22.3732  -19.8072  -13.6715 C   0  0  0  0  0  0  0  0  0  0  0  0
   22.5226  -18.8958  -12.8351 O   0  0  0  0  0  0  0  0  0  0  0  0
   17.5180  -20.3055  -14.0914 O   0  0  0  0  0  0  0  0  0  0  0  0
   27.7056  -19.2478  -13.1435 C   0  0  0  0  0  0  0  0  0  0  0  0
   26.7410  -20.3804  -13.0192 C   0  0  2  0  0  0  0  0  0  0  0  0
   27.5732  -21.6861  -13.0545 C   0  0  0  0  0  0  0  0  0  0  0  0
   25.6907  -20.5316  -14.0231 C   0  0  0  0  0  0  0  0  0  0  0  0
   24.7605  -19.4394  -14.3799 C   0  0  2  0  0  0  0  0  0  0  0  0
   23.4524  -20.1196  -14.5354 N   0  0  0  0  0  0  0  0  0  0  0  0
   25.0410  -18.6951  -15.5926 C   0  0  0  0  0  0  0  0  0  0  0  0
   24.6807  -19.2855  -16.6941 O   0  0  0  0  0  0  0  0  0  0  0  0
   25.6325  -17.4509  -15.7850 N   0  0  0  0  0  0  0  0  0  0  0  0
   26.2770  -16.6070  -14.8227 C   0  0  0  0  0  0  0  0  0  0  0  0
   26.8477  -15.4059  -15.6072 C   0  0  0  0  0  0  0  0  0  0  0  0
   25.7830  -15.3111  -16.6956 C   0  0  0  0  0  0  0  0  0  0  0  0
   25.6905  -16.7681  -17.0876 C   0  0  1  0  0  0  0  0  0  0  0  0
   26.8525  -17.2119  -17.8760 C   0  0  0  0  0  0  0  0  0  0  0  0
   27.1382  -16.8136  -19.1650 O   0  0  0  0  0  0  0  0  0  0  0  0
   27.6467  -18.0190  -17.3279 O   0  0  0  0  0  0  0  0  0  0  0  0
  2  1  1  1
  2  3  1  0
  3  4  1  0
  4  8  1  0
  4  5  2  0
  6  2  1  0
  6  7  2  0
 10  9  1  6
 10 11  1  0
 10 12  1  0
 13 12  1  6
 13 14  1  0
 14  6  1  0
 15 13  1  0
 16 15  2  0
 17 15  1  0
 17 18  1  0
 19 18  1  0
 20 21  1  0
 20 19  1  0
 21 17  1  0
 21 22  1  1
 23 22  1  0
 24 22  2  0
M  END
$$$$
