DLP.pdb
     RDKit          3D

 24 24  0  0  1  0  0  0  0  0999 V2000
   25.8609  -18.7165  -17.0889 N   0  0  0  0  0  0  0  0  0  0  0  0
   24.7789  -18.5741  -16.1559 C   0  0  1  0  0  0  0  0  0  0  0  0
   23.5528  -18.1263  -16.9355 C   0  0  0  0  0  0  0  0  0  0  0  0
   23.7797  -16.7194  -17.3635 C   0  0  0  0  0  0  0  0  0  0  0  0
   23.8140  -16.4324  -18.6043 O   0  0  0  0  0  0  0  0  0  0  0  0
   24.5162  -19.8235  -15.4041 C   0  0  0  0  0  0  0  0  0  0  0  0
   24.6197  -20.9177  -15.9913 O   0  0  0  0  0  0  0  0  0  0  0  0
   23.9592  -15.6846  -16.4622 O   0  0  0  0  0  0  0  0  0  0  0  0
   26.3616  -21.9777  -11.5085 C   0  0  0  0  0  0  0  0  0  0  0  0
   25.5047  -20.7571  -11.4401 C   0  0  2  0  0  0  0  0  0  0  0  0
   25.4181  -20.3512   -9.9481 C   0  0  0  0  0  0  0  0  0  0  0  0
   24.1306  -20.8263  -11.9307 C   0  0  0  0  0  0  0  0  0  0  0  0
   23.7980  -21.0852  -13.3477 C   0  0  2  0  0  0  0  0  0  0  0  0
   24.1499  -19.8195  -14.0351 N   0  0  0  0  0  0  0  0  0  0  0  0
   22.4199  -21.4123  -13.6595 C   0  0  0  0  0  0  0  0  0  0  0  0
   21.5866  -20.4176  -13.5704 O   0  0  0  0  0  0  0  0  0  0  0  0
   21.8292  -22.6128  -14.0399 N   0  0  0  0  0  0  0  0  0  0  0  0
   22.4531  -23.8786  -14.2893 C   0  0  0  0  0  0  0  0  0  0  0  0
   21.3121  -24.8815  -14.5650 C   0  0  0  0  0  0  0  0  0  0  0  0
   20.3226  -23.9315  -15.2323 C   0  0  0  0  0  0  0  0  0  0  0  0
   20.3829  -22.7771  -14.2581 C   0  0  1  0  0  0  0  0  0  0  0  0
   19.6788  -23.0687  -12.9980 C   0  0  0  0  0  0  0  0  0  0  0  0
   18.3090  -23.1071  -12.8427 O   0  0  0  0  0  0  0  0  0  0  0  0
   20.3852  -23.3012  -11.9834 O   0  0  0  0  0  0  0  0  0  0  0  0
  2  1  1  6
  2  3  1  0
  3  4  1  0
  4  8  1  0
  4  5  2  0
  6  2  1  0
  6  7  2  0
 10  9  1  1
 10 11  1  0
 10 12  1  0
 13 12  1  1
 13 14  1  0
 14  6  1  0
 15 13  1  0
 16 15  2  0
 17 15  1  0
 17 18  1  0
 19 18  1  0
 20 21  1  0
 20 19  1  0
 21 17  1  0
 21 22  1  1
 23 22  1  0
 24 22  2  0
M  END
$$$$
