DLP.pdb
     RDKit          3D

 24 24  0  0  1  0  0  0  0  0999 V2000
   19.8751  -20.3292  -12.1179 N   0  0  0  0  0  0  0  0  0  0  0  0
   20.7208  -20.7291  -13.2071 C   0  0  1  0  0  0  0  0  0  0  0  0
   20.0355  -20.3153  -14.4997 C   0  0  0  0  0  0  0  0  0  0  0  0
   19.2850  -21.4947  -15.0097 C   0  0  0  0  0  0  0  0  0  0  0  0
   18.7139  -21.4388  -16.1471 O   0  0  0  0  0  0  0  0  0  0  0  0
   22.0807  -20.1497  -13.1056 C   0  0  0  0  0  0  0  0  0  0  0  0
   22.2054  -18.9217  -12.9346 O   0  0  0  0  0  0  0  0  0  0  0  0
   19.1737  -22.6747  -14.2951 O   0  0  0  0  0  0  0  0  0  0  0  0
   27.1985  -21.8873  -10.5650 C   0  0  0  0  0  0  0  0  0  0  0  0
   26.6015  -20.9245  -11.5373 C   0  0  2  0  0  0  0  0  0  0  0  0
   26.7207  -19.5154  -10.9059 C   0  0  0  0  0  0  0  0  0  0  0  0
   25.2034  -21.0860  -11.9282 C   0  0  0  0  0  0  0  0  0  0  0  0
   24.5905  -20.3305  -13.0414 C   0  0  2  0  0  0  0  0  0  0  0  0
   23.2502  -20.9450  -13.1962 N   0  0  0  0  0  0  0  0  0  0  0  0
   25.2667  -20.3683  -14.3239 C   0  0  0  0  0  0  0  0  0  0  0  0
   24.9201  -21.3546  -15.0977 O   0  0  0  0  0  0  0  0  0  0  0  0
   26.2283  -19.5278  -14.8751 N   0  0  0  0  0  0  0  0  0  0  0  0
   26.8816  -18.4009  -14.2776 C   0  0  0  0  0  0  0  0  0  0  0  0
   27.9332  -17.9139  -15.2977 C   0  0  0  0  0  0  0  0  0  0  0  0
   27.1940  -18.2708  -16.5834 C   0  0  0  0  0  0  0  0  0  0  0  0
   26.7547  -19.6763  -16.2415 C   0  0  1  0  0  0  0  0  0  0  0  0
   27.8682  -20.6390  -16.2870 C   0  0  0  0  0  0  0  0  0  0  0  0
   28.4311  -21.2566  -15.1900 O   0  0  0  0  0  0  0  0  0  0  0  0
   28.3425  -20.9189  -17.4181 O   0  0  0  0  0  0  0  0  0  0  0  0
  2  1  1  1
  2  3  1  0
  3  4  1  0
  4  8  1  0
  4  5  2  0
  6  2  1  0
  6  7  2  0
 10  9  1  1
 10 11  1  0
 10 12  1  0
 13 12  1  1
 13 14  1  0
 14  6  1  0
 15 13  1  0
 16 15  2  0
 17 15  1  0
 17 18  1  0
 19 18  1  0
 20 21  1  0
 20 19  1  0
 21 17  1  0
 21 22  1  1
 23 22  1  0
 24 22  2  0
M  END
$$$$
