DLP.pdb
     RDKit          3D

 24 24  0  0  1  0  0  0  0  0999 V2000
   26.1655  -21.1848  -12.2979 N   0  0  0  0  0  0  0  0  0  0  0  0
   25.6205  -20.4311  -11.2041 C   0  0  1  0  0  0  0  0  0  0  0  0
   24.1080  -20.5787  -11.2498 C   0  0  0  0  0  0  0  0  0  0  0  0
   23.6356  -19.9850  -12.5300 C   0  0  0  0  0  0  0  0  0  0  0  0
   22.5748  -20.4269  -13.0798 O   0  0  0  0  0  0  0  0  0  0  0  0
   26.1674  -20.8620   -9.8962 C   0  0  0  0  0  0  0  0  0  0  0  0
   26.3096  -22.0791   -9.6697 O   0  0  0  0  0  0  0  0  0  0  0  0
   24.3051  -18.9547  -13.1670 O   0  0  0  0  0  0  0  0  0  0  0  0
   28.6687  -17.9219   -5.0965 C   0  0  0  0  0  0  0  0  0  0  0  0
   28.3500  -19.2519   -5.6951 C   0  0  2  0  0  0  0  0  0  0  0  0
   29.6557  -20.0841   -5.6631 C   0  0  0  0  0  0  0  0  0  0  0  0
   27.8544  -19.3119   -7.0678 C   0  0  0  0  0  0  0  0  0  0  0  0
   27.0015  -20.4127   -7.5641 C   0  0  2  0  0  0  0  0  0  0  0  0
   26.5364  -19.9362   -8.8888 N   0  0  0  0  0  0  0  0  0  0  0  0
   25.8424  -20.7680   -6.7681 C   0  0  0  0  0  0  0  0  0  0  0  0
   24.7957  -20.0201   -6.9594 O   0  0  0  0  0  0  0  0  0  0  0  0
   25.6531  -21.7764   -5.8289 N   0  0  0  0  0  0  0  0  0  0  0  0
   26.6016  -22.7309   -5.3358 C   0  0  0  0  0  0  0  0  0  0  0  0
   25.8810  -23.5322   -4.2302 C   0  0  0  0  0  0  0  0  0  0  0  0
   24.4674  -23.5003   -4.8027 C   0  0  0  0  0  0  0  0  0  0  0  0
   24.3697  -22.0337   -5.1558 C   0  0  1  0  0  0  0  0  0  0  0  0
   24.2055  -21.1800   -3.9671 C   0  0  0  0  0  0  0  0  0  0  0  0
   25.1936  -20.3981   -3.4066 O   0  0  0  0  0  0  0  0  0  0  0  0
   23.0725  -21.1642   -3.4207 O   0  0  0  0  0  0  0  0  0  0  0  0
  2  1  1  6
  2  3  1  0
  3  4  1  0
  4  8  1  0
  4  5  2  0
  6  2  1  0
  6  7  2  0
 10  9  1  6
 10 11  1  0
 10 12  1  0
 13 12  1  1
 13 14  1  0
 14  6  1  0
 15 13  1  0
 16 15  2  0
 17 15  1  0
 17 18  1  0
 19 18  1  0
 20 21  1  0
 20 19  1  0
 21 17  1  0
 21 22  1  1
 23 22  1  0
 24 22  2  0
M  END
$$$$
