DLP.pdb
     RDKit          3D

 24 24  0  0  1  0  0  0  0  0999 V2000
   29.2848  -20.2467  -15.7956 N   0  0  0  0  0  0  0  0  0  0  0  0
   27.9425  -19.7447  -15.8838 C   0  0  1  0  0  0  0  0  0  0  0  0
   27.5332  -19.7759  -17.3478 C   0  0  0  0  0  0  0  0  0  0  0  0
   28.3731  -18.7838  -18.0720 C   0  0  0  0  0  0  0  0  0  0  0  0
   29.5336  -19.1143  -18.4806 O   0  0  0  0  0  0  0  0  0  0  0  0
   26.9976  -20.5140  -15.0408 C   0  0  0  0  0  0  0  0  0  0  0  0
   26.5096  -21.5705  -15.4861 O   0  0  0  0  0  0  0  0  0  0  0  0
   27.9479  -17.4922  -18.3296 O   0  0  0  0  0  0  0  0  0  0  0  0
   24.1767  -20.6929  -10.1016 C   0  0  0  0  0  0  0  0  0  0  0  0
   25.5791  -21.1556  -10.3204 C   0  0  2  0  0  0  0  0  0  0  0  0
   26.4106  -20.6583   -9.1122 C   0  0  0  0  0  0  0  0  0  0  0  0
   26.2909  -20.7212  -11.5197 C   0  0  0  0  0  0  0  0  0  0  0  0
   25.7722  -20.9482  -12.8853 C   0  0  2  0  0  0  0  0  0  0  0  0
   26.6269  -20.0900  -13.7403 N   0  0  0  0  0  0  0  0  0  0  0  0
   24.3837  -20.6118  -13.1349 C   0  0  0  0  0  0  0  0  0  0  0  0
   24.1090  -19.3416  -13.0808 O   0  0  0  0  0  0  0  0  0  0  0  0
   23.2864  -21.4161  -13.4243 N   0  0  0  0  0  0  0  0  0  0  0  0
   23.2288  -22.8428  -13.5466 C   0  0  0  0  0  0  0  0  0  0  0  0
   21.7433  -23.2034  -13.7629 C   0  0  0  0  0  0  0  0  0  0  0  0
   21.3116  -21.9608  -14.5353 C   0  0  0  0  0  0  0  0  0  0  0  0
   21.9319  -20.8923  -13.6641 C   0  0  1  0  0  0  0  0  0  0  0  0
   21.1979  -20.7016  -12.4018 C   0  0  0  0  0  0  0  0  0  0  0  0
   20.0661  -19.9287  -12.2487 O   0  0  0  0  0  0  0  0  0  0  0  0
   21.6405  -21.2918  -11.3828 O   0  0  0  0  0  0  0  0  0  0  0  0
  2  1  1  6
  2  3  1  0
  3  4  1  0
  4  8  1  0
  4  5  2  0
  6  2  1  0
  6  7  2  0
 10  9  1  1
 10 11  1  0
 10 12  1  0
 13 12  1  1
 13 14  1  0
 14  6  1  0
 15 13  1  0
 16 15  2  0
 17 15  1  0
 17 18  1  0
 19 18  1  0
 20 21  1  0
 20 19  1  0
 21 17  1  0
 21 22  1  1
 23 22  1  0
 24 22  2  0
M  END
$$$$
