DLP.pdb
     RDKit          3D

 24 24  0  0  1  0  0  0  0  0999 V2000
   20.9664  -12.6196  -19.9735 N   0  0  0  0  0  0  0  0  0  0  0  0
   21.1346  -11.1981  -19.8614 C   0  0  1  0  0  0  0  0  0  0  0  0
   19.8571  -10.5413  -20.3595 C   0  0  0  0  0  0  0  0  0  0  0  0
   19.7873  -10.7493  -21.8313 C   0  0  0  0  0  0  0  0  0  0  0  0
   20.8514  -10.9941  -22.4876 O   0  0  0  0  0  0  0  0  0  0  0  0
   21.4561  -10.7770  -18.4777 C   0  0  0  0  0  0  0  0  0  0  0  0
   20.8809  -11.3366  -17.5244 O   0  0  0  0  0  0  0  0  0  0  0  0
   18.5991  -10.6888  -22.5383 O   0  0  0  0  0  0  0  0  0  0  0  0
   26.2921   -9.9150  -15.3294 C   0  0  0  0  0  0  0  0  0  0  0  0
   24.8308   -9.6106  -15.3586 C   0  0  2  0  0  0  0  0  0  0  0  0
   24.1727  -10.4558  -14.2401 C   0  0  0  0  0  0  0  0  0  0  0  0
   24.0744   -9.8783  -16.5792 C   0  0  0  0  0  0  0  0  0  0  0  0
   22.7009   -9.3767  -16.7966 C   0  0  2  0  0  0  0  0  0  0  0  0
   22.3985   -9.7563  -18.1975 N   0  0  0  0  0  0  0  0  0  0  0  0
   22.4809   -7.9510  -16.6468 C   0  0  0  0  0  0  0  0  0  0  0  0
   23.0371   -7.2113  -17.5607 O   0  0  0  0  0  0  0  0  0  0  0  0
   21.7738   -7.2311  -15.6894 N   0  0  0  0  0  0  0  0  0  0  0  0
   20.9872   -7.7246  -14.5978 C   0  0  0  0  0  0  0  0  0  0  0  0
   20.5288   -6.4880  -13.7952 C   0  0  0  0  0  0  0  0  0  0  0  0
   20.4102   -5.4937  -14.9460 C   0  0  0  0  0  0  0  0  0  0  0  0
   21.7220   -5.7608  -15.6482 C   0  0  1  0  0  0  0  0  0  0  0  0
   22.8729   -5.2024  -14.9186 C   0  0  0  0  0  0  0  0  0  0  0  0
   23.2507   -3.8762  -14.9238 O   0  0  0  0  0  0  0  0  0  0  0  0
   23.5655   -6.0010  -14.2365 O   0  0  0  0  0  0  0  0  0  0  0  0
  2  1  1  1
  2  3  1  0
  3  4  1  0
  4  8  1  0
  4  5  2  0
  6  2  1  0
  6  7  2  0
 10  9  1  6
 10 11  1  0
 10 12  1  0
 13 12  1  6
 13 14  1  0
 14  6  1  0
 15 13  1  0
 16 15  2  0
 17 15  1  0
 17 18  1  0
 19 18  1  0
 20 21  1  0
 20 19  1  0
 21 17  1  0
 21 22  1  1
 23 22  1  0
 24 22  2  0
M  END
$$$$
