TGG.pdb
     RDKit          3D

 16 15  0  0  1  0  0  0  0  0999 V2000
   81.8856  108.3530   -0.6503 C   0  0  0  0  0  0  0  0  0  0  0  0
   81.7790  109.7297   -1.2696 C   0  0  1  0  0  0  0  0  0  0  0  0
   81.0314  109.5663   -2.4435 O   0  0  0  0  0  0  0  0  0  0  0  0
   81.0585  110.6346   -0.2893 C   0  0  2  0  0  0  0  0  0  0  0  0
   80.2908  109.8102    0.6174 N   0  0  0  0  0  0  0  0  0  0  0  0
   80.2451  111.6262   -0.9973 C   0  0  0  0  0  0  0  0  0  0  0  0
   79.4112  111.2380   -1.8519 O   0  0  0  0  0  0  0  0  0  0  0  0
   80.3463  113.0318   -0.7692 N   0  0  0  0  0  0  0  0  0  0  0  0
   81.5654  113.7398   -1.1062 C   0  0  0  0  0  0  0  0  0  0  0  0
   81.4601  114.4019   -2.4273 C   0  0  0  0  0  0  0  0  0  0  0  0
   80.6121  114.0670   -3.2898 O   0  0  0  0  0  0  0  0  0  0  0  0
   82.3597  115.4575   -2.7208 N   0  0  0  0  0  0  0  0  0  0  0  0
   83.5889  115.5769   -1.9601 C   0  0  0  0  0  0  0  0  0  0  0  0
   84.0225  117.0076   -1.9376 C   0  0  0  0  0  0  0  0  0  0  0  0
   83.4471  117.8186   -1.1808 O   0  0  0  0  0  0  0  0  0  0  0  0
   85.0501  117.4699   -2.7341 O   0  0  0  0  0  0  0  0  0  0  0  0
  2  4  1  0
  2  1  1  1
  3  2  1  0
  4  5  1  1
  6  7  2  0
  6  4  1  0
  8  6  1  0
  9  8  1  0
 10 12  1  0
 10  9  1  0
 11 10  2  0
 13 12  1  0
 13 14  1  0
 14 16  1  0
 15 14  2  0
M  END
$$$$
