TGG.pdb
     RDKit          3D

 16 15  0  0  1  0  0  0  0  0999 V2000
   20.1380  -13.2932    5.4836 C   0  0  0  0  0  0  0  0  0  0  0  0
   18.9527  -12.3536    5.4330 C   0  0  1  0  0  0  0  0  0  0  0  0
   19.4475  -11.1365    4.9461 O   0  0  0  0  0  0  0  0  0  0  0  0
   17.9251  -12.9397    4.4846 C   0  0  2  0  0  0  0  0  0  0  0  0
   16.8606  -11.9769    4.3089 N   0  0  0  0  0  0  0  0  0  0  0  0
   17.4535  -14.2402    4.9670 C   0  0  0  0  0  0  0  0  0  0  0  0
   16.8834  -14.3102    6.0835 O   0  0  0  0  0  0  0  0  0  0  0  0
   17.6064  -15.4533    4.2302 N   0  0  0  0  0  0  0  0  0  0  0  0
   17.1580  -16.7111    4.7942 C   0  0  0  0  0  0  0  0  0  0  0  0
   17.3979  -17.8386    3.8637 C   0  0  0  0  0  0  0  0  0  0  0  0
   18.0804  -17.7225    2.8168 O   0  0  0  0  0  0  0  0  0  0  0  0
   16.8284  -19.0983    4.1772 N   0  0  0  0  0  0  0  0  0  0  0  0
   17.1905  -20.2593    3.3867 C   0  0  0  0  0  0  0  0  0  0  0  0
   16.0163  -20.6879    2.5662 C   0  0  0  0  0  0  0  0  0  0  0  0
   14.9812  -19.9880    2.5511 O   0  0  0  0  0  0  0  0  0  0  0  0
   16.0363  -21.8453    1.8150 O   0  0  0  0  0  0  0  0  0  0  0  0
  2  4  1  0
  2  1  1  6
  3  2  1  0
  4  5  1  1
  6  7  2  0
  6  4  1  0
  8  6  1  0
  9  8  1  0
 10 12  1  0
 10  9  1  0
 11 10  2  0
 13 12  1  0
 13 14  1  0
 14 16  1  0
 15 14  2  0
M  END
$$$$
