TGG.pdb
     RDKit          3D

 16 15  0  0  1  0  0  0  0  0999 V2000
   26.3751  -10.4356  -14.9747 C   0  0  0  0  0  0  0  0  0  0  0  0
   26.7026  -10.0598  -16.4036 C   0  0  1  0  0  0  0  0  0  0  0  0
   27.4397  -11.1320  -16.9238 O   0  0  0  0  0  0  0  0  0  0  0  0
   25.3985   -9.8823  -17.1565 C   0  0  2  0  0  0  0  0  0  0  0  0
   25.6905   -9.8160  -18.5712 N   0  0  0  0  0  0  0  0  0  0  0  0
   24.6672   -8.7129  -16.6624 C   0  0  0  0  0  0  0  0  0  0  0  0
   25.1403   -7.5663  -16.8575 O   0  0  0  0  0  0  0  0  0  0  0  0
   23.4275   -8.8014  -15.9603 N   0  0  0  0  0  0  0  0  0  0  0  0
   22.7986   -7.6051  -15.4362 C   0  0  0  0  0  0  0  0  0  0  0  0
   21.4896   -7.9094  -14.8129 C   0  0  0  0  0  0  0  0  0  0  0  0
   20.8073   -7.0462  -14.2089 O   0  0  0  0  0  0  0  0  0  0  0  0
   20.9946   -9.2343  -14.9077 N   0  0  0  0  0  0  0  0  0  0  0  0
   19.7519   -9.5788  -14.2436 C   0  0  0  0  0  0  0  0  0  0  0  0
   18.6090   -9.3576  -15.1820 C   0  0  0  0  0  0  0  0  0  0  0  0
   18.7559   -8.6122  -16.1741 O   0  0  0  0  0  0  0  0  0  0  0  0
   17.3809   -9.9561  -14.9878 O   0  0  0  0  0  0  0  0  0  0  0  0
  2  4  1  0
  2  1  1  1
  3  2  1  0
  4  5  1  6
  6  7  2  0
  6  4  1  0
  8  6  1  0
  9  8  1  0
 10 12  1  0
 10  9  1  0
 11 10  2  0
 13 12  1  0
 13 14  1  0
 14 16  1  0
 15 14  2  0
M  END
$$$$
