TGG.pdb
     RDKit          3D

 16 15  0  0  1  0  0  0  0  0999 V2000
   19.4648   -9.6990  -18.2820 C   0  0  0  0  0  0  0  0  0  0  0  0
   18.4779  -10.3735  -17.3540 C   0  0  1  0  0  0  0  0  0  0  0  0
   17.6682  -11.1743  -18.1704 O   0  0  0  0  0  0  0  0  0  0  0  0
   19.2589  -11.2198  -16.3677 C   0  0  2  0  0  0  0  0  0  0  0  0
   18.3480  -12.1506  -15.7392 N   0  0  0  0  0  0  0  0  0  0  0  0
   19.9738  -10.3744  -15.4081 C   0  0  0  0  0  0  0  0  0  0  0  0
   19.3199   -9.7362  -14.5469 O   0  0  0  0  0  0  0  0  0  0  0  0
   21.3940  -10.2308  -15.3941 N   0  0  0  0  0  0  0  0  0  0  0  0
   22.0283   -9.3432  -14.4397 C   0  0  0  0  0  0  0  0  0  0  0  0
   22.1550   -7.9690  -14.9784 C   0  0  0  0  0  0  0  0  0  0  0  0
   21.9100   -7.6831  -16.1757 O   0  0  0  0  0  0  0  0  0  0  0  0
   22.5711   -6.9399  -14.0968 N   0  0  0  0  0  0  0  0  0  0  0  0
   22.7451   -5.5932  -14.6070 C   0  0  0  0  0  0  0  0  0  0  0  0
   21.6612   -4.7144  -14.0700 C   0  0  0  0  0  0  0  0  0  0  0  0
   20.8593   -5.1645  -13.2239 O   0  0  0  0  0  0  0  0  0  0  0  0
   21.5135   -3.4057  -14.4820 O   0  0  0  0  0  0  0  0  0  0  0  0
  2  4  1  0
  2  1  1  6
  3  2  1  0
  4  5  1  1
  6  7  2  0
  6  4  1  0
  8  6  1  0
  9  8  1  0
 10 12  1  0
 10  9  1  0
 11 10  2  0
 13 12  1  0
 13 14  1  0
 14 16  1  0
 15 14  2  0
M  END
$$$$
