TGG.pdb
     RDKit          3D

 16 15  0  0  1  0  0  0  0  0999 V2000
   18.7849  -13.1074  -16.5702 C   0  0  0  0  0  0  0  0  0  0  0  0
   17.8846  -11.9118  -16.3455 C   0  0  1  0  0  0  0  0  0  0  0  0
   16.6890  -12.4236  -15.8238 O   0  0  0  0  0  0  0  0  0  0  0  0
   18.5613  -10.9914  -15.3484 C   0  0  2  0  0  0  0  0  0  0  0  0
   17.6164  -10.6761  -14.3002 N   0  0  0  0  0  0  0  0  0  0  0  0
   19.0988   -9.8041  -16.0176 C   0  0  0  0  0  0  0  0  0  0  0  0
   18.3203   -8.8681  -16.3248 O   0  0  0  0  0  0  0  0  0  0  0  0
   20.4788   -9.6458  -16.3468 N   0  0  0  0  0  0  0  0  0  0  0  0
   20.9357   -8.4452  -17.0183 C   0  0  0  0  0  0  0  0  0  0  0  0
   21.7505   -7.5970  -16.1176 C   0  0  0  0  0  0  0  0  0  0  0  0
   22.5354   -6.7140  -16.5413 O   0  0  0  0  0  0  0  0  0  0  0  0
   21.6321   -7.7985  -14.7194 N   0  0  0  0  0  0  0  0  0  0  0  0
   22.4723   -7.0345  -13.8169 C   0  0  0  0  0  0  0  0  0  0  0  0
   21.9372   -5.6435  -13.6974 C   0  0  0  0  0  0  0  0  0  0  0  0
   20.7985   -5.3766  -14.1375 O   0  0  0  0  0  0  0  0  0  0  0  0
   22.6671   -4.6303  -13.1101 O   0  0  0  0  0  0  0  0  0  0  0  0
  2  4  1  0
  2  1  1  1
  3  2  1  0
  4  5  1  1
  6  7  2  0
  6  4  1  0
  8  6  1  0
  9  8  1  0
 10 12  1  0
 10  9  1  0
 11 10  2  0
 13 12  1  0
 13 14  1  0
 14 16  1  0
 15 14  2  0
M  END
$$$$
