TGG.pdb
     RDKit          3D

 16 15  0  0  1  0  0  0  0  0999 V2000
   27.0877  -19.6614  -13.4461 C   0  0  0  0  0  0  0  0  0  0  0  0
   26.8055  -20.8532  -12.5572 C   0  0  1  0  0  0  0  0  0  0  0  0
   27.9456  -21.0158  -11.7589 O   0  0  0  0  0  0  0  0  0  0  0  0
   25.5905  -20.5328  -11.7086 C   0  0  2  0  0  0  0  0  0  0  0  0
   25.5704  -21.4330  -10.5771 N   0  0  0  0  0  0  0  0  0  0  0  0
   24.3661  -20.5868  -12.5112 C   0  0  0  0  0  0  0  0  0  0  0  0
   23.7927  -21.6907  -12.6816 O   0  0  0  0  0  0  0  0  0  0  0  0
   23.7763  -19.4390  -13.1215 N   0  0  0  0  0  0  0  0  0  0  0  0
   22.5738  -19.5737  -13.9197 C   0  0  0  0  0  0  0  0  0  0  0  0
   22.8367  -19.2853  -15.3488 C   0  0  0  0  0  0  0  0  0  0  0  0
   23.7429  -18.5047  -15.7292 O   0  0  0  0  0  0  0  0  0  0  0  0
   22.0252  -19.9226  -16.3209 N   0  0  0  0  0  0  0  0  0  0  0  0
   22.1933  -19.5835  -17.7211 C   0  0  0  0  0  0  0  0  0  0  0  0
   23.3128  -20.3901  -18.2970 C   0  0  0  0  0  0  0  0  0  0  0  0
   23.7539  -20.1167  -19.4338 O   0  0  0  0  0  0  0  0  0  0  0  0
   23.8836  -21.4402  -17.6074 O   0  0  0  0  0  0  0  0  0  0  0  0
  2  4  1  0
  2  1  1  6
  3  2  1  0
  4  5  1  1
  6  7  2  0
  6  4  1  0
  8  6  1  0
  9  8  1  0
 10 12  1  0
 10  9  1  0
 11 10  2  0
 13 12  1  0
 13 14  1  0
 14 16  1  0
 15 14  2  0
M  END
$$$$
