TGG.pdb
     RDKit          3D

 16 15  0  0  1  0  0  0  0  0999 V2000
   19.7110  -12.5734  -16.7627 C   0  0  0  0  0  0  0  0  0  0  0  0
   19.1511  -11.2399  -17.2085 C   0  0  1  0  0  0  0  0  0  0  0  0
   18.0652  -11.5384  -18.0423 O   0  0  0  0  0  0  0  0  0  0  0  0
   18.6965  -10.4824  -15.9762 C   0  0  2  0  0  0  0  0  0  0  0  0
   17.7827   -9.4404  -16.3890 N   0  0  0  0  0  0  0  0  0  0  0  0
   19.8464   -9.9766  -15.2224 C   0  0  0  0  0  0  0  0  0  0  0  0
   20.5389  -10.7787  -14.5488 O   0  0  0  0  0  0  0  0  0  0  0  0
   20.2328   -8.6025  -15.2081 N   0  0  0  0  0  0  0  0  0  0  0  0
   21.4867   -8.2033  -14.6001 C   0  0  0  0  0  0  0  0  0  0  0  0
   21.7111   -6.7446  -14.7281 C   0  0  0  0  0  0  0  0  0  0  0  0
   21.2477   -6.0663  -15.6771 O   0  0  0  0  0  0  0  0  0  0  0  0
   22.4832   -6.0959  -13.7318 N   0  0  0  0  0  0  0  0  0  0  0  0
   22.6646   -4.6582  -13.7963 C   0  0  0  0  0  0  0  0  0  0  0  0
   21.4311   -3.9786  -13.2940 C   0  0  0  0  0  0  0  0  0  0  0  0
   21.4021   -2.7325  -13.2039 O   0  0  0  0  0  0  0  0  0  0  0  0
   20.3085   -4.6891  -12.9213 O   0  0  0  0  0  0  0  0  0  0  0  0
  2  4  1  0
  2  1  1  1
  3  2  1  0
  4  5  1  6
  6  7  2  0
  6  4  1  0
  8  6  1  0
  9  8  1  0
 10 12  1  0
 10  9  1  0
 11 10  2  0
 13 12  1  0
 13 14  1  0
 14 16  1  0
 15 14  2  0
M  END
$$$$
