TGG.pdb
     RDKit          3D

 16 15  0  0  1  0  0  0  0  0999 V2000
   17.1198  -13.1517  -16.8040 C   0  0  0  0  0  0  0  0  0  0  0  0
   18.5321  -13.2179  -16.2642 C   0  0  1  0  0  0  0  0  0  0  0  0
   19.0410  -14.4587  -16.6703 O   0  0  0  0  0  0  0  0  0  0  0  0
   19.3257  -12.0798  -16.8756 C   0  0  2  0  0  0  0  0  0  0  0  0
   20.7331  -12.3366  -16.6654 N   0  0  0  0  0  0  0  0  0  0  0  0
   18.8871  -10.7904  -16.3357 C   0  0  0  0  0  0  0  0  0  0  0  0
   17.7093  -10.4077  -16.5424 O   0  0  0  0  0  0  0  0  0  0  0  0
   19.7341   -9.9287  -15.5755 N   0  0  0  0  0  0  0  0  0  0  0  0
   19.2165   -8.6867  -15.0364 C   0  0  0  0  0  0  0  0  0  0  0  0
   20.2362   -7.9809  -14.2260 C   0  0  0  0  0  0  0  0  0  0  0  0
   20.2988   -8.0794  -12.9763 O   0  0  0  0  0  0  0  0  0  0  0  0
   21.1770   -7.1617  -14.8993 N   0  0  0  0  0  0  0  0  0  0  0  0
   22.2299   -6.5152  -14.1393 C   0  0  0  0  0  0  0  0  0  0  0  0
   21.6802   -5.3011  -13.4617 C   0  0  0  0  0  0  0  0  0  0  0  0
   20.4830   -4.9850  -13.6301 O   0  0  0  0  0  0  0  0  0  0  0  0
   22.4594   -4.5067  -12.6457 O   0  0  0  0  0  0  0  0  0  0  0  0
  2  4  1  0
  2  1  1  6
  3  2  1  0
  4  5  1  1
  6  7  2  0
  6  4  1  0
  8  6  1  0
  9  8  1  0
 10 12  1  0
 10  9  1  0
 11 10  2  0
 13 12  1  0
 13 14  1  0
 14 16  1  0
 15 14  2  0
M  END
$$$$
