MNK.pdb
     RDKit          3D

 26 25  0  0  1  0  0  0  0  0999 V2000
   19.3416  -12.1589    2.3892 C   0  0  0  0  0  0  0  0  0  0  0  0
   19.1607  -13.1790    3.8499 S   0  0  0  0  0  0  0  0  0  0  0  0
   17.7480  -14.3215    3.6370 C   0  0  0  0  0  0  0  0  0  0  0  0
   17.6814  -15.2407    4.8338 C   0  0  0  0  0  0  0  0  0  0  0  0
   16.5890  -16.2506    4.7896 C   0  0  2  0  0  0  0  0  0  0  0  0
   15.2946  -15.5872    4.7316 N   0  0  0  0  0  0  0  0  0  0  0  0
   16.6823  -17.1155    6.0048 C   0  0  0  0  0  0  0  0  0  0  0  0
   16.0511  -16.7888    7.0413 O   0  0  0  0  0  0  0  0  0  0  0  0
   15.9146  -20.2795    6.0055 N   0  0  0  0  0  0  0  0  0  0  0  0
   17.0639  -21.0850    6.3476 C   0  0  0  0  0  0  0  0  0  0  0  0
   17.0431  -22.3090    6.0908 O   0  0  0  0  0  0  0  0  0  0  0  0
   18.2247  -20.4572    6.9834 C   0  0  0  0  0  0  0  0  0  0  0  0
   18.0210  -18.9587    7.1406 C   0  0  2  0  0  0  0  0  0  0  0  0
   17.4687  -18.2983    6.0102 N   0  0  0  0  0  0  0  0  0  0  0  0
   19.1614  -18.2608    7.7611 C   0  0  0  0  0  0  0  0  0  0  0  0
   20.1669  -17.9058    7.0776 O   0  0  0  0  0  0  0  0  0  0  0  0
   19.2206  -17.9404    9.1445 N   0  0  0  0  0  0  0  0  0  0  0  0
   20.3369  -17.1867    9.7271 C   0  0  1  0  0  0  0  0  0  0  0  0
   20.0573  -15.7259    9.7067 C   0  0  0  0  0  0  0  0  0  0  0  0
   21.1152  -14.8481   10.2948 C   0  0  0  0  0  0  0  0  0  0  0  0
   20.7386  -13.3773   10.2565 C   0  0  0  0  0  0  0  0  0  0  0  0
   21.8371  -12.4905   10.7800 C   0  0  0  0  0  0  0  0  0  0  0  0
   22.2681  -11.6056    9.6947 N   0  0  0  0  0  0  0  0  0  0  0  0
   20.6183  -17.6763   11.0933 C   0  0  0  0  0  0  0  0  0  0  0  0
   19.7695  -18.3351   11.7232 O   0  0  0  0  0  0  0  0  0  0  0  0
   21.8674  -17.3797   11.6659 O   0  0  0  0  0  0  0  0  0  0  0  0
  2  1  1  0
  3  2  1  0
  4  3  1  0
  4  5  1  0
  5  7  1  0
  5  6  1  1
  7  8  2  0
 10  9  1  0
 11 10  2  0
 13 12  1  6
 12 10  1  0
 14 13  1  0
 14  7  1  0
 15 17  1  0
 15 13  1  0
 16 15  2  0
 18 17  1  0
 18 19  1  1
 19 20  1  0
 21 20  1  0
 22 21  1  0
 23 22  1  0
 24 26  1  0
 24 18  1  0
 25 24  2  0
M  END
$$$$
