MNK.pdb
     RDKit          3D

 26 25  0  0  1  0  0  0  0  0999 V2000
   28.8564  -21.7640  -10.2161 C   0  0  0  0  0  0  0  0  0  0  0  0
   30.0245  -20.7264  -11.0912 S   0  0  0  0  0  0  0  0  0  0  0  0
   29.1768  -19.8549  -12.4580 C   0  0  0  0  0  0  0  0  0  0  0  0
   27.8285  -20.4976  -12.6823 C   0  0  0  0  0  0  0  0  0  0  0  0
   26.9735  -19.8249  -13.6982 C   0  0  2  0  0  0  0  0  0  0  0  0
   26.9108  -18.3949  -13.4333 N   0  0  0  0  0  0  0  0  0  0  0  0
   25.6069  -20.4280  -13.6541 C   0  0  0  0  0  0  0  0  0  0  0  0
   25.4364  -21.5956  -14.0869 O   0  0  0  0  0  0  0  0  0  0  0  0
   21.2415  -21.8949  -12.8254 N   0  0  0  0  0  0  0  0  0  0  0  0
   21.2453  -20.7493  -11.9454 C   0  0  0  0  0  0  0  0  0  0  0  0
   20.4219  -20.7059  -11.0048 O   0  0  0  0  0  0  0  0  0  0  0  0
   22.2079  -19.6679  -12.1688 C   0  0  0  0  0  0  0  0  0  0  0  0
   23.1205  -19.9794  -13.3444 C   0  0  2  0  0  0  0  0  0  0  0  0
   24.4992  -19.7084  -13.1323 N   0  0  0  0  0  0  0  0  0  0  0  0
   22.5994  -19.5220  -14.6450 C   0  0  0  0  0  0  0  0  0  0  0  0
   22.4361  -18.2907  -14.8926 O   0  0  0  0  0  0  0  0  0  0  0  0
   22.2461  -20.4079  -15.6988 N   0  0  0  0  0  0  0  0  0  0  0  0
   21.7712  -19.9263  -17.0011 C   0  0  1  0  0  0  0  0  0  0  0  0
   22.8441  -20.0276  -18.0264 C   0  0  0  0  0  0  0  0  0  0  0  0
   23.3476  -18.7323  -18.5779 C   0  0  0  0  0  0  0  0  0  0  0  0
   24.3486  -18.9287  -19.7031 C   0  0  0  0  0  0  0  0  0  0  0  0
   24.8874  -17.6234  -20.2254 C   0  0  0  0  0  0  0  0  0  0  0  0
   25.8304  -17.9169  -21.3076 N   0  0  0  0  0  0  0  0  0  0  0  0
   20.5546  -20.6655  -17.3997 C   0  0  0  0  0  0  0  0  0  0  0  0
   20.3315  -21.8107  -16.9641 O   0  0  0  0  0  0  0  0  0  0  0  0
   19.6548  -20.0451  -18.2839 O   0  0  0  0  0  0  0  0  0  0  0  0
  2  1  1  0
  3  2  1  0
  4  3  1  0
  4  5  1  0
  5  7  1  0
  5  6  1  1
  7  8  2  0
 10  9  1  0
 11 10  2  0
 13 12  1  1
 12 10  1  0
 14 13  1  0
 14  7  1  0
 15 17  1  0
 15 13  1  0
 16 15  2  0
 18 17  1  0
 18 19  1  6
 19 20  1  0
 21 20  1  0
 22 21  1  0
 23 22  1  0
 24 26  1  0
 24 18  1  0
 25 24  2  0
M  END
$$$$
