MNK.pdb
     RDKit          3D

 26 25  0  0  1  0  0  0  0  0999 V2000
   27.9670  -15.3850  -18.5444 C   0  0  0  0  0  0  0  0  0  0  0  0
   27.6019  -16.4678  -17.1655 S   0  0  0  0  0  0  0  0  0  0  0  0
   26.8432  -15.5066  -15.8066 C   0  0  0  0  0  0  0  0  0  0  0  0
   25.8181  -14.5638  -16.3912 C   0  0  0  0  0  0  0  0  0  0  0  0
   25.1044  -13.7173  -15.3966 C   0  0  2  0  0  0  0  0  0  0  0  0
   24.4792  -14.5539  -14.3825 N   0  0  0  0  0  0  0  0  0  0  0  0
   24.0771  -12.8985  -16.1089 C   0  0  0  0  0  0  0  0  0  0  0  0
   24.4236  -12.1995  -17.0942 O   0  0  0  0  0  0  0  0  0  0  0  0
   19.4645  -15.0591  -15.9511 N   0  0  0  0  0  0  0  0  0  0  0  0
   20.0953  -13.9714  -16.6622 C   0  0  0  0  0  0  0  0  0  0  0  0
   20.4874  -14.1616  -17.8348 O   0  0  0  0  0  0  0  0  0  0  0  0
   20.2616  -12.6744  -16.0019 C   0  0  0  0  0  0  0  0  0  0  0  0
   21.6576  -12.1170  -16.2304 C   0  0  2  0  0  0  0  0  0  0  0  0
   22.7185  -12.8961  -15.6949 N   0  0  0  0  0  0  0  0  0  0  0  0
   21.7732  -10.6693  -15.9787 C   0  0  0  0  0  0  0  0  0  0  0  0
   22.0712  -10.2222  -14.8318 O   0  0  0  0  0  0  0  0  0  0  0  0
   21.5625   -9.6842  -16.9814 N   0  0  0  0  0  0  0  0  0  0  0  0
   21.6338   -8.2468  -16.6946 C   0  0  1  0  0  0  0  0  0  0  0  0
   21.6309   -7.4549  -17.9538 C   0  0  0  0  0  0  0  0  0  0  0  0
   21.7432   -5.9724  -17.7956 C   0  0  0  0  0  0  0  0  0  0  0  0
   21.8235   -5.2493  -19.1287 C   0  0  0  0  0  0  0  0  0  0  0  0
   21.9141   -3.7552  -18.9659 C   0  0  0  0  0  0  0  0  0  0  0  0
   23.2596   -3.4269  -18.4882 N   0  0  0  0  0  0  0  0  0  0  0  0
   20.5287   -7.8563  -15.7938 C   0  0  0  0  0  0  0  0  0  0  0  0
   20.7064   -7.0162  -14.8917 O   0  0  0  0  0  0  0  0  0  0  0  0
   19.2712   -8.4569  -15.9786 O   0  0  0  0  0  0  0  0  0  0  0  0
  2  1  1  0
  3  2  1  0
  4  3  1  0
  4  5  1  0
  5  7  1  0
  5  6  1  1
  7  8  2  0
 10  9  1  0
 11 10  2  0
 13 12  1  1
 12 10  1  0
 14 13  1  0
 14  7  1  0
 15 17  1  0
 15 13  1  0
 16 15  2  0
 18 17  1  0
 18 19  1  6
 19 20  1  0
 21 20  1  0
 22 21  1  0
 23 22  1  0
 24 26  1  0
 24 18  1  0
 25 24  2  0
M  END
$$$$
