MNK.pdb
     RDKit          3D

 26 25  0  0  1  0  0  0  0  0999 V2000
   24.4236  -17.9709  -15.1805 C   0  0  0  0  0  0  0  0  0  0  0  0
   24.0802  -16.2165  -15.0735 S   0  0  0  0  0  0  0  0  0  0  0  0
   25.6048  -15.2646  -15.4137 C   0  0  0  0  0  0  0  0  0  0  0  0
   25.2914  -13.7908  -15.3085 C   0  0  0  0  0  0  0  0  0  0  0  0
   24.2076  -13.3135  -16.2101 C   0  0  2  0  0  0  0  0  0  0  0  0
   24.4966  -13.6918  -17.5858 N   0  0  0  0  0  0  0  0  0  0  0  0
   24.0957  -11.8285  -16.0858 C   0  0  0  0  0  0  0  0  0  0  0  0
   23.9045  -11.3195  -14.9527 O   0  0  0  0  0  0  0  0  0  0  0  0
   23.8182   -6.8458  -17.2463 N   0  0  0  0  0  0  0  0  0  0  0  0
   24.5307   -7.4243  -18.3618 C   0  0  0  0  0  0  0  0  0  0  0  0
   25.0450   -6.6638  -19.2115 O   0  0  0  0  0  0  0  0  0  0  0  0
   24.6381   -8.8808  -18.4756 C   0  0  0  0  0  0  0  0  0  0  0  0
   24.0362   -9.5721  -17.2625 C   0  0  2  0  0  0  0  0  0  0  0  0
   24.2024  -10.9827  -17.2218 N   0  0  0  0  0  0  0  0  0  0  0  0
   22.6816   -9.1048  -16.9174 C   0  0  0  0  0  0  0  0  0  0  0  0
   21.6936   -9.3314  -17.6768 O   0  0  0  0  0  0  0  0  0  0  0  0
   22.3856   -8.3781  -15.7323 N   0  0  0  0  0  0  0  0  0  0  0  0
   21.0131   -8.0236  -15.3528 C   0  0  1  0  0  0  0  0  0  0  0  0
   20.5318   -8.8858  -14.2403 C   0  0  0  0  0  0  0  0  0  0  0  0
   19.1164   -8.6704  -13.8096 C   0  0  0  0  0  0  0  0  0  0  0  0
   18.6697   -9.6700  -12.7571 C   0  0  0  0  0  0  0  0  0  0  0  0
   17.2089   -9.5324  -12.4192 C   0  0  0  0  0  0  0  0  0  0  0  0
   16.8897  -10.4974  -11.3640 N   0  0  0  0  0  0  0  0  0  0  0  0
   20.9389   -6.5874  -15.0105 C   0  0  0  0  0  0  0  0  0  0  0  0
   21.9036   -6.0070  -14.4779 O   0  0  0  0  0  0  0  0  0  0  0  0
   19.7521   -5.8915  -15.2995 O   0  0  0  0  0  0  0  0  0  0  0  0
  2  1  1  0
  3  2  1  0
  4  3  1  0
  4  5  1  0
  5  7  1  0
  5  6  1  6
  7  8  2  0
 10  9  1  0
 11 10  2  0
 13 12  1  6
 12 10  1  0
 14 13  1  0
 14  7  1  0
 15 17  1  0
 15 13  1  0
 16 15  2  0
 18 17  1  0
 18 19  1  1
 19 20  1  0
 21 20  1  0
 22 21  1  0
 23 22  1  0
 24 26  1  0
 24 18  1  0
 25 24  2  0
M  END
$$$$
