MNK.pdb
     RDKit          3D

 26 25  0  0  1  0  0  0  0  0999 V2000
   29.6157  -16.5905  -17.3745 C   0  0  0  0  0  0  0  0  0  0  0  0
   28.3460  -16.1285  -16.1992 S   0  0  0  0  0  0  0  0  0  0  0  0
   26.6947  -16.5030  -16.8915 C   0  0  0  0  0  0  0  0  0  0  0  0
   26.3920  -15.5119  -17.9903 C   0  0  0  0  0  0  0  0  0  0  0  0
   26.3526  -14.0881  -17.5582 C   0  0  2  0  0  0  0  0  0  0  0  0
   25.3955  -13.9192  -16.4744 N   0  0  0  0  0  0  0  0  0  0  0  0
   25.9762  -13.2390  -18.7289 C   0  0  0  0  0  0  0  0  0  0  0  0
   26.6423  -13.3268  -19.7910 O   0  0  0  0  0  0  0  0  0  0  0  0
   20.7969  -12.7646  -19.9896 N   0  0  0  0  0  0  0  0  0  0  0  0
   22.2349  -12.6495  -20.0637 C   0  0  0  0  0  0  0  0  0  0  0  0
   22.9068  -13.6548  -20.3840 O   0  0  0  0  0  0  0  0  0  0  0  0
   22.8749  -11.3659  -19.7656 C   0  0  0  0  0  0  0  0  0  0  0  0
   24.3877  -11.5072  -19.7073 C   0  0  2  0  0  0  0  0  0  0  0  0
   24.8810  -12.3368  -18.6645 N   0  0  0  0  0  0  0  0  0  0  0  0
   25.1150  -10.2363  -19.8750 C   0  0  0  0  0  0  0  0  0  0  0  0
   25.2402   -9.4179  -18.9164 O   0  0  0  0  0  0  0  0  0  0  0  0
   25.7181   -9.8385  -21.0990 N   0  0  0  0  0  0  0  0  0  0  0  0
   26.5273   -8.6197  -21.2139 C   0  0  1  0  0  0  0  0  0  0  0  0
   27.5282   -8.7497  -22.3065 C   0  0  0  0  0  0  0  0  0  0  0  0
   28.4211   -7.5698  -22.5209 C   0  0  0  0  0  0  0  0  0  0  0  0
   29.3389   -7.7444  -23.7183 C   0  0  0  0  0  0  0  0  0  0  0  0
   30.2737   -6.5779  -23.8989 C   0  0  0  0  0  0  0  0  0  0  0  0
   30.9511   -6.7290  -25.1892 N   0  0  0  0  0  0  0  0  0  0  0  0
   25.6486   -7.4465  -21.4062 C   0  0  0  0  0  0  0  0  0  0  0  0
   24.5276   -7.5679  -21.9349 O   0  0  0  0  0  0  0  0  0  0  0  0
   26.1091   -6.1890  -20.9788 O   0  0  0  0  0  0  0  0  0  0  0  0
  2  1  1  0
  3  2  1  0
  4  3  1  0
  4  5  1  0
  5  7  1  0
  5  6  1  1
  7  8  2  0
 10  9  1  0
 11 10  2  0
 13 12  1  1
 12 10  1  0
 14 13  1  0
 14  7  1  0
 15 17  1  0
 15 13  1  0
 16 15  2  0
 18 17  1  0
 18 19  1  6
 19 20  1  0
 21 20  1  0
 22 21  1  0
 23 22  1  0
 24 26  1  0
 24 18  1  0
 25 24  2  0
M  END
$$$$
