MNK.pdb
     RDKit          3D

 26 25  0  0  1  0  0  0  0  0999 V2000
   22.3167  -11.8913    6.1982 C   0  0  0  0  0  0  0  0  0  0  0  0
   20.8864  -10.9079    6.6388 S   0  0  0  0  0  0  0  0  0  0  0  0
   19.4185  -11.5043    5.7243 C   0  0  0  0  0  0  0  0  0  0  0  0
   18.8571  -12.7104    6.4395 C   0  0  0  0  0  0  0  0  0  0  0  0
   17.7781  -13.4283    5.7075 C   0  0  2  0  0  0  0  0  0  0  0  0
   16.5826  -12.6006    5.6381 N   0  0  0  0  0  0  0  0  0  0  0  0
   17.4879  -14.7127    6.4143 C   0  0  0  0  0  0  0  0  0  0  0  0
   16.6826  -14.7146    7.3791 O   0  0  0  0  0  0  0  0  0  0  0  0
   15.7632  -19.9614    6.5315 N   0  0  0  0  0  0  0  0  0  0  0  0
   17.1243  -19.5413    6.2920 C   0  0  0  0  0  0  0  0  0  0  0  0
   18.0610  -20.2756    6.6769 O   0  0  0  0  0  0  0  0  0  0  0  0
   17.3805  -18.2724    5.6063 C   0  0  0  0  0  0  0  0  0  0  0  0
   17.8973  -17.2199    6.5742 C   0  0  2  0  0  0  0  0  0  0  0  0
   18.1030  -15.9294    6.0162 N   0  0  0  0  0  0  0  0  0  0  0  0
   18.9886  -17.6915    7.4454 C   0  0  0  0  0  0  0  0  0  0  0  0
   20.1876  -17.7259    7.0388 O   0  0  0  0  0  0  0  0  0  0  0  0
   18.7844  -18.1361    8.7799 N   0  0  0  0  0  0  0  0  0  0  0  0
   19.8862  -18.6120    9.6244 C   0  0  1  0  0  0  0  0  0  0  0  0
   19.9793  -17.8113   10.8744 C   0  0  0  0  0  0  0  0  0  0  0  0
   20.8953  -18.3459   11.9283 C   0  0  0  0  0  0  0  0  0  0  0  0
   21.8393  -17.2871   12.4707 C   0  0  0  0  0  0  0  0  0  0  0  0
   22.7786  -17.8357   13.5117 C   0  0  0  0  0  0  0  0  0  0  0  0
   23.5976  -16.7312   14.0177 N   0  0  0  0  0  0  0  0  0  0  0  0
   19.7218  -20.0545    9.9032 C   0  0  0  0  0  0  0  0  0  0  0  0
   20.7082  -20.7742   10.1481 O   0  0  0  0  0  0  0  0  0  0  0  0
   18.4245  -20.5956    9.8843 O   0  0  0  0  0  0  0  0  0  0  0  0
  2  1  1  0
  3  2  1  0
  4  3  1  0
  4  5  1  0
  5  7  1  0
  5  6  1  1
  7  8  2  0
 10  9  1  0
 11 10  2  0
 13 12  1  6
 12 10  1  0
 14 13  1  0
 14  7  1  0
 15 17  1  0
 15 13  1  0
 16 15  2  0
 18 17  1  0
 18 19  1  1
 19 20  1  0
 21 20  1  0
 22 21  1  0
 23 22  1  0
 24 26  1  0
 24 18  1  0
 25 24  2  0
M  END
$$$$
