MNK.pdb
     RDKit          3D

 26 25  0  0  1  0  0  0  0  0999 V2000
   30.3126  -21.8918  -10.4482 C   0  0  0  0  0  0  0  0  0  0  0  0
   28.5567  -21.5483  -10.5259 S   0  0  0  0  0  0  0  0  0  0  0  0
   28.1655  -20.6685  -12.0813 C   0  0  0  0  0  0  0  0  0  0  0  0
   26.6983  -20.3097  -12.0811 C   0  0  0  0  0  0  0  0  0  0  0  0
   25.7725  -21.4526  -12.3091 C   0  0  2  0  0  0  0  0  0  0  0  0
   26.0856  -22.1078  -13.5707 N   0  0  0  0  0  0  0  0  0  0  0  0
   24.3681  -20.9416  -12.3166 C   0  0  0  0  0  0  0  0  0  0  0  0
   23.9961  -20.1539  -11.4107 O   0  0  0  0  0  0  0  0  0  0  0  0
   21.7412  -17.8199  -14.4364 N   0  0  0  0  0  0  0  0  0  0  0  0
   22.3451  -19.0466  -14.9025 C   0  0  0  0  0  0  0  0  0  0  0  0
   23.4615  -18.9961  -15.4644 O   0  0  0  0  0  0  0  0  0  0  0  0
   21.6442  -20.3182  -14.7083 C   0  0  0  0  0  0  0  0  0  0  0  0
   22.0706  -20.9877  -13.4115 C   0  0  2  0  0  0  0  0  0  0  0  0
   23.4477  -21.3277  -13.3271 N   0  0  0  0  0  0  0  0  0  0  0  0
   21.1499  -22.0424  -12.9509 C   0  0  0  0  0  0  0  0  0  0  0  0
   21.0836  -23.1617  -13.5399 O   0  0  0  0  0  0  0  0  0  0  0  0
   20.2830  -21.8882  -11.8351 N   0  0  0  0  0  0  0  0  0  0  0  0
   19.4570  -22.9894  -11.3267 C   0  0  1  0  0  0  0  0  0  0  0  0
   19.3710  -22.9453   -9.8424 C   0  0  0  0  0  0  0  0  0  0  0  0
   18.7165  -24.1200   -9.1889 C   0  0  0  0  0  0  0  0  0  0  0  0
   18.6828  -23.9999   -7.6753 C   0  0  0  0  0  0  0  0  0  0  0  0
   18.1763  -25.2531   -7.0119 C   0  0  0  0  0  0  0  0  0  0  0  0
   18.2111  -25.0500   -5.5614 N   0  0  0  0  0  0  0  0  0  0  0  0
   18.1212  -22.9520  -11.9589 C   0  0  0  0  0  0  0  0  0  0  0  0
   17.5589  -21.8673  -12.2004 O   0  0  0  0  0  0  0  0  0  0  0  0
   17.4991  -24.1710  -12.2804 O   0  0  0  0  0  0  0  0  0  0  0  0
  2  1  1  0
  3  2  1  0
  4  3  1  0
  4  5  1  0
  5  7  1  0
  5  6  1  6
  7  8  2  0
 10  9  1  0
 11 10  2  0
 13 12  1  6
 12 10  1  0
 14 13  1  0
 14  7  1  0
 15 17  1  0
 15 13  1  0
 16 15  2  0
 18 17  1  0
 18 19  1  1
 19 20  1  0
 21 20  1  0
 22 21  1  0
 23 22  1  0
 24 26  1  0
 24 18  1  0
 25 24  2  0
M  END
$$$$
