MNK.pdb
     RDKit          3D

 26 25  0  0  1  0  0  0  0  0999 V2000
   27.0555  -16.6946  -16.0025 C   0  0  0  0  0  0  0  0  0  0  0  0
   26.3784  -17.4501  -17.4782 S   0  0  0  0  0  0  0  0  0  0  0  0
   25.8076  -19.1464  -17.1001 C   0  0  0  0  0  0  0  0  0  0  0  0
   25.1831  -19.1540  -15.7248 C   0  0  0  0  0  0  0  0  0  0  0  0
   24.4806  -20.4149  -15.3613 C   0  0  2  0  0  0  0  0  0  0  0  0
   23.6375  -20.8550  -16.4633 N   0  0  0  0  0  0  0  0  0  0  0  0
   23.6602  -20.1738  -14.1357 C   0  0  0  0  0  0  0  0  0  0  0  0
   24.1757  -19.5727  -13.1597 O   0  0  0  0  0  0  0  0  0  0  0  0
   20.8969  -18.7738  -10.1773 N   0  0  0  0  0  0  0  0  0  0  0  0
   20.4256  -18.5757  -11.5283 C   0  0  0  0  0  0  0  0  0  0  0  0
   19.2424  -18.2125  -11.7094 O   0  0  0  0  0  0  0  0  0  0  0  0
   21.3364  -18.8012  -12.6533 C   0  0  0  0  0  0  0  0  0  0  0  0
   21.3556  -20.2664  -13.0590 C   0  0  2  0  0  0  0  0  0  0  0  0
   22.3109  -20.6095  -14.0533 N   0  0  0  0  0  0  0  0  0  0  0  0
   20.0174  -20.8474  -13.2689 C   0  0  0  0  0  0  0  0  0  0  0  0
   19.4254  -20.7510  -14.3845 O   0  0  0  0  0  0  0  0  0  0  0  0
   19.3024  -21.5446  -12.2575 N   0  0  0  0  0  0  0  0  0  0  0  0
   18.0082  -22.1868  -12.5141 C   0  0  1  0  0  0  0  0  0  0  0  0
   17.5231  -22.9028  -11.3039 C   0  0  0  0  0  0  0  0  0  0  0  0
   18.4974  -23.8365  -10.6605 C   0  0  0  0  0  0  0  0  0  0  0  0
   17.9423  -24.4807   -9.4021 C   0  0  0  0  0  0  0  0  0  0  0  0
   18.9240  -25.4250   -8.7606 C   0  0  0  0  0  0  0  0  0  0  0  0
   18.3066  -25.9762   -7.5516 N   0  0  0  0  0  0  0  0  0  0  0  0
   17.0325  -21.1837  -12.9909 C   0  0  0  0  0  0  0  0  0  0  0  0
   17.2270  -19.9670  -12.8095 O   0  0  0  0  0  0  0  0  0  0  0  0
   15.8781  -21.6359  -13.6535 O   0  0  0  0  0  0  0  0  0  0  0  0
  2  1  1  0
  3  2  1  0
  4  3  1  0
  4  5  1  0
  5  7  1  0
  5  6  1  6
  7  8  2  0
 10  9  1  0
 11 10  2  0
 13 12  1  6
 12 10  1  0
 14 13  1  0
 14  7  1  0
 15 17  1  0
 15 13  1  0
 16 15  2  0
 18 17  1  0
 18 19  1  1
 19 20  1  0
 21 20  1  0
 22 21  1  0
 23 22  1  0
 24 26  1  0
 24 18  1  0
 25 24  2  0
M  END
$$$$
