MNK.pdb
     RDKit          3D

 26 25  0  0  1  0  0  0  0  0999 V2000
   27.2472  -18.8879  -16.5941 C   0  0  0  0  0  0  0  0  0  0  0  0
   27.7181  -17.1915  -16.2660 S   0  0  0  0  0  0  0  0  0  0  0  0
   26.8491  -16.5842  -14.7753 C   0  0  0  0  0  0  0  0  0  0  0  0
   25.3973  -16.3500  -15.1203 C   0  0  0  0  0  0  0  0  0  0  0  0
   25.1651  -15.4270  -16.2646 C   0  0  2  0  0  0  0  0  0  0  0  0
   25.8761  -14.1747  -16.0512 N   0  0  0  0  0  0  0  0  0  0  0  0
   23.6967  -15.1819  -16.3962 C   0  0  0  0  0  0  0  0  0  0  0  0
   22.9142  -16.1626  -16.4688 O   0  0  0  0  0  0  0  0  0  0  0  0
   19.1438  -13.0391  -16.9880 N   0  0  0  0  0  0  0  0  0  0  0  0
   19.4771  -13.7817  -15.7947 C   0  0  0  0  0  0  0  0  0  0  0  0
   18.5548  -14.1532  -15.0357 O   0  0  0  0  0  0  0  0  0  0  0  0
   20.8794  -14.0850  -15.4985 C   0  0  0  0  0  0  0  0  0  0  0  0
   21.8037  -13.4868  -16.5471 C   0  0  2  0  0  0  0  0  0  0  0  0
   23.1696  -13.8637  -16.4396 N   0  0  0  0  0  0  0  0  0  0  0  0
   21.5821  -12.0503  -16.7917 C   0  0  0  0  0  0  0  0  0  0  0  0
   21.8692  -11.1814  -15.9161 O   0  0  0  0  0  0  0  0  0  0  0  0
   21.0396  -11.5400  -18.0022 N   0  0  0  0  0  0  0  0  0  0  0  0
   20.9632  -10.1013  -18.2813 C   0  0  1  0  0  0  0  0  0  0  0  0
   20.6593   -9.8557  -19.7165 C   0  0  0  0  0  0  0  0  0  0  0  0
   20.6843   -8.4269  -20.1563 C   0  0  0  0  0  0  0  0  0  0  0  0
   20.5709   -8.2799  -21.6636 C   0  0  0  0  0  0  0  0  0  0  0  0
   20.6621   -6.8441  -22.1080 C   0  0  0  0  0  0  0  0  0  0  0  0
   20.5722   -6.8103  -23.5699 N   0  0  0  0  0  0  0  0  0  0  0  0
   19.9696   -9.4662  -17.3896 C   0  0  0  0  0  0  0  0  0  0  0  0
   19.0271  -10.1251  -16.9115 O   0  0  0  0  0  0  0  0  0  0  0  0
   20.1131   -8.0992  -17.0947 O   0  0  0  0  0  0  0  0  0  0  0  0
  2  1  1  0
  3  2  1  0
  4  3  1  0
  4  5  1  0
  5  7  1  0
  5  6  1  1
  7  8  2  0
 10  9  1  0
 11 10  2  0
 13 12  1  1
 12 10  1  0
 14 13  1  0
 14  7  1  0
 15 17  1  0
 15 13  1  0
 16 15  2  0
 18 17  1  0
 18 19  1  6
 19 20  1  0
 21 20  1  0
 22 21  1  0
 23 22  1  0
 24 26  1  0
 24 18  1  0
 25 24  2  0
M  END
$$$$
