MNK.pdb
     RDKit          3D

 26 25  0  0  1  0  0  0  0  0999 V2000
   10.1698  -10.3791   -9.0436 C   0  0  0  0  0  0  0  0  0  0  0  0
   10.7073  -12.0171   -9.5285 S   0  0  0  0  0  0  0  0  0  0  0  0
   12.5266  -12.0417   -9.7180 C   0  0  0  0  0  0  0  0  0  0  0  0
   12.9443  -10.8554  -10.5545 C   0  0  0  0  0  0  0  0  0  0  0  0
   14.4015  -10.7756  -10.8471 C   0  0  2  0  0  0  0  0  0  0  0  0
   15.1686  -11.2718   -9.7137 N   0  0  0  0  0  0  0  0  0  0  0  0
   14.7574   -9.3542  -11.1407 C   0  0  0  0  0  0  0  0  0  0  0  0
   14.1626   -8.7512  -12.0692 O   0  0  0  0  0  0  0  0  0  0  0  0
   15.0542   -6.9774   -7.1697 N   0  0  0  0  0  0  0  0  0  0  0  0
   15.1565   -6.4140   -8.4959 C   0  0  0  0  0  0  0  0  0  0  0  0
   14.1722   -5.8074   -8.9733 O   0  0  0  0  0  0  0  0  0  0  0  0
   16.4030   -6.5613   -9.2511 C   0  0  0  0  0  0  0  0  0  0  0  0
   16.1734   -7.3242  -10.5461 C   0  0  2  0  0  0  0  0  0  0  0  0
   15.7526   -8.6726  -10.3910 N   0  0  0  0  0  0  0  0  0  0  0  0
   17.2296   -7.1244  -11.5545 C   0  0  0  0  0  0  0  0  0  0  0  0
   18.4398   -7.4018  -11.3043 O   0  0  0  0  0  0  0  0  0  0  0  0
   16.9777   -6.6147  -12.8572 N   0  0  0  0  0  0  0  0  0  0  0  0
   18.0420   -6.4526  -13.8544 C   0  0  1  0  0  0  0  0  0  0  0  0
   17.8037   -7.3311  -15.0308 C   0  0  0  0  0  0  0  0  0  0  0  0
   18.1665   -8.7711  -14.8573 C   0  0  0  0  0  0  0  0  0  0  0  0
   17.8067   -9.6121  -16.0697 C   0  0  0  0  0  0  0  0  0  0  0  0
   18.1404  -11.0676  -15.8772 C   0  0  0  0  0  0  0  0  0  0  0  0
   16.9081  -11.7776  -15.5250 N   0  0  0  0  0  0  0  0  0  0  0  0
   18.1589   -5.0306  -14.2414 C   0  0  0  0  0  0  0  0  0  0  0  0
   17.2289   -4.2310  -14.0247 O   0  0  0  0  0  0  0  0  0  0  0  0
   19.3454   -4.6017  -14.8616 O   0  0  0  0  0  0  0  0  0  0  0  0
  2  1  1  0
  3  2  1  0
  4  3  1  0
  4  5  1  0
  5  7  1  0
  5  6  1  1
  7  8  2  0
 10  9  1  0
 11 10  2  0
 13 12  1  1
 12 10  1  0
 14 13  1  0
 14  7  1  0
 15 17  1  0
 15 13  1  0
 16 15  2  0
 18 17  1  0
 18 19  1  6
 19 20  1  0
 21 20  1  0
 22 21  1  0
 23 22  1  0
 24 26  1  0
 24 18  1  0
 25 24  2  0
M  END
$$$$
