MNK.pdb
     RDKit          3D

 26 25  0  0  1  0  0  0  0  0999 V2000
   22.4640  -20.4120  -16.4901 C   0  0  0  0  0  0  0  0  0  0  0  0
   23.2516  -18.9725  -15.7727 S   0  0  0  0  0  0  0  0  0  0  0  0
   22.7310  -17.4677  -16.6734 C   0  0  0  0  0  0  0  0  0  0  0  0
   23.4145  -16.2706  -16.0558 C   0  0  0  0  0  0  0  0  0  0  0  0
   23.1509  -14.9752  -16.7398 C   0  0  2  0  0  0  0  0  0  0  0  0
   23.5031  -15.0713  -18.1490 N   0  0  0  0  0  0  0  0  0  0  0  0
   23.9503  -13.9048  -16.0700 C   0  0  0  0  0  0  0  0  0  0  0  0
   25.0469  -14.2021  -15.5329 O   0  0  0  0  0  0  0  0  0  0  0  0
   27.1603  -10.2741  -14.8942 N   0  0  0  0  0  0  0  0  0  0  0  0
   26.3827  -10.1689  -16.1069 C   0  0  0  0  0  0  0  0  0  0  0  0
   26.4132   -9.0991  -16.7545 O   0  0  0  0  0  0  0  0  0  0  0  0
   25.5794  -11.3097  -16.5534 C   0  0  0  0  0  0  0  0  0  0  0  0
   24.2723  -11.3963  -15.7815 C   0  0  2  0  0  0  0  0  0  0  0  0
   23.4955  -12.5599  -16.0301 N   0  0  0  0  0  0  0  0  0  0  0  0
   23.5034  -10.1390  -15.7624 C   0  0  0  0  0  0  0  0  0  0  0  0
   24.0355   -9.0473  -15.4031 O   0  0  0  0  0  0  0  0  0  0  0  0
   22.1346  -10.0562  -16.1362 N   0  0  0  0  0  0  0  0  0  0  0  0
   21.3596   -8.8173  -16.0024 C   0  0  1  0  0  0  0  0  0  0  0  0
   19.8996   -9.0989  -16.0444 C   0  0  0  0  0  0  0  0  0  0  0  0
   18.9994   -7.9133  -15.9059 C   0  0  0  0  0  0  0  0  0  0  0  0
   17.5314   -8.2779  -16.0429 C   0  0  0  0  0  0  0  0  0  0  0  0
   16.6367   -7.0669  -16.0329 C   0  0  0  0  0  0  0  0  0  0  0  0
   15.2639   -7.5093  -16.2904 N   0  0  0  0  0  0  0  0  0  0  0  0
   21.7501   -8.1086  -14.7652 C   0  0  0  0  0  0  0  0  0  0  0  0
   21.8280   -8.7141  -13.6797 O   0  0  0  0  0  0  0  0  0  0  0  0
   22.0307   -6.7333  -14.8426 O   0  0  0  0  0  0  0  0  0  0  0  0
  2  1  1  0
  3  2  1  0
  4  3  1  0
  4  5  1  0
  5  7  1  0
  5  6  1  6
  7  8  2  0
 10  9  1  0
 11 10  2  0
 13 12  1  6
 12 10  1  0
 14 13  1  0
 14  7  1  0
 15 17  1  0
 15 13  1  0
 16 15  2  0
 18 17  1  0
 18 19  1  1
 19 20  1  0
 21 20  1  0
 22 21  1  0
 23 22  1  0
 24 26  1  0
 24 18  1  0
 25 24  2  0
M  END
$$$$
