MNK.pdb
     RDKit          3D

 26 25  0  0  1  0  0  0  0  0999 V2000
   27.1590  -20.1804   -4.9394 C   0  0  0  0  0  0  0  0  0  0  0  0
   28.4630  -19.4070   -5.8927 S   0  0  0  0  0  0  0  0  0  0  0  0
   28.9728  -20.5133   -7.2574 C   0  0  0  0  0  0  0  0  0  0  0  0
   28.0557  -20.2861   -8.4358 C   0  0  0  0  0  0  0  0  0  0  0  0
   28.3238  -21.1524   -9.6161 C   0  0  2  0  0  0  0  0  0  0  0  0
   29.7094  -21.0091  -10.0390 N   0  0  0  0  0  0  0  0  0  0  0  0
   27.3945  -20.7645  -10.7202 C   0  0  0  0  0  0  0  0  0  0  0  0
   27.7405  -19.8651  -11.5270 O   0  0  0  0  0  0  0  0  0  0  0  0
   25.5219  -23.3684  -14.8835 N   0  0  0  0  0  0  0  0  0  0  0  0
   24.7127  -23.4318  -13.6886 C   0  0  0  0  0  0  0  0  0  0  0  0
   23.4922  -23.6838  -13.7969 O   0  0  0  0  0  0  0  0  0  0  0  0
   25.3325  -23.2027  -12.3812 C   0  0  0  0  0  0  0  0  0  0  0  0
   25.4745  -21.7164  -12.0940 C   0  0  2  0  0  0  0  0  0  0  0  0
   26.1301  -21.3926  -10.8756 N   0  0  0  0  0  0  0  0  0  0  0  0
   24.2526  -20.9357  -12.3584 C   0  0  0  0  0  0  0  0  0  0  0  0
   23.6886  -20.9595  -13.4921 O   0  0  0  0  0  0  0  0  0  0  0  0
   23.6270  -20.1124  -11.3832 N   0  0  0  0  0  0  0  0  0  0  0  0
   22.3717  -19.3999  -11.6483 C   0  0  1  0  0  0  0  0  0  0  0  0
   22.3869  -18.7866  -13.0033 C   0  0  0  0  0  0  0  0  0  0  0  0
   21.4960  -19.4239  -14.0210 C   0  0  0  0  0  0  0  0  0  0  0  0
   21.5276  -18.7011  -15.3563 C   0  0  0  0  0  0  0  0  0  0  0  0
   20.6214  -19.3397  -16.3753 C   0  0  0  0  0  0  0  0  0  0  0  0
   20.8431  -18.6786  -17.6639 N   0  0  0  0  0  0  0  0  0  0  0  0
   21.2244  -20.3147  -11.4687 C   0  0  0  0  0  0  0  0  0  0  0  0
   20.0627  -19.8735  -11.3854 O   0  0  0  0  0  0  0  0  0  0  0  0
   21.4757  -21.6957  -11.3929 O   0  0  0  0  0  0  0  0  0  0  0  0
  2  1  1  0
  3  2  1  0
  4  3  1  0
  4  5  1  0
  5  7  1  0
  5  6  1  6
  7  8  2  0
 10  9  1  0
 11 10  2  0
 13 12  1  1
 12 10  1  0
 14 13  1  0
 14  7  1  0
 15 17  1  0
 15 13  1  0
 16 15  2  0
 18 17  1  0
 18 19  1  6
 19 20  1  0
 21 20  1  0
 22 21  1  0
 23 22  1  0
 24 26  1  0
 24 18  1  0
 25 24  2  0
M  END
$$$$
