MNK.pdb
     RDKit          3D

 26 25  0  0  1  0  0  0  0  0999 V2000
   14.9827  -10.8917  -18.2845 C   0  0  0  0  0  0  0  0  0  0  0  0
   13.4508  -10.8933  -17.3569 S   0  0  0  0  0  0  0  0  0  0  0  0
   13.8120  -10.9230  -15.5639 C   0  0  0  0  0  0  0  0  0  0  0  0
   14.6469   -9.7133  -15.2160 C   0  0  0  0  0  0  0  0  0  0  0  0
   15.9588  -10.0173  -14.5821 C   0  0  2  0  0  0  0  0  0  0  0  0
   15.7896  -11.0084  -13.5294 N   0  0  0  0  0  0  0  0  0  0  0  0
   16.5306   -8.7532  -14.0268 C   0  0  0  0  0  0  0  0  0  0  0  0
   16.7173   -7.7747  -14.7931 O   0  0  0  0  0  0  0  0  0  0  0  0
   17.6417   -5.0286   -9.7293 N   0  0  0  0  0  0  0  0  0  0  0  0
   18.0420   -6.4074   -9.8880 C   0  0  0  0  0  0  0  0  0  0  0  0
   19.1628   -6.7650   -9.4628 O   0  0  0  0  0  0  0  0  0  0  0  0
   17.1336   -7.3550  -10.5382 C   0  0  0  0  0  0  0  0  0  0  0  0
   17.4830   -7.5304  -12.0076 C   0  0  2  0  0  0  0  0  0  0  0  0
   16.8656   -8.6364  -12.6515 N   0  0  0  0  0  0  0  0  0  0  0  0
   18.9176   -7.3709  -12.3054 C   0  0  0  0  0  0  0  0  0  0  0  0
   19.7477   -8.2956  -12.0602 O   0  0  0  0  0  0  0  0  0  0  0  0
   19.4691   -6.1923  -12.8772 N   0  0  0  0  0  0  0  0  0  0  0  0
   20.8662   -6.1159  -13.3195 C   0  0  1  0  0  0  0  0  0  0  0  0
   21.0005   -6.5682  -14.7302 C   0  0  0  0  0  0  0  0  0  0  0  0
   22.3644   -6.4458  -15.3304 C   0  0  0  0  0  0  0  0  0  0  0  0
   22.3945   -6.8497  -16.7942 C   0  0  0  0  0  0  0  0  0  0  0  0
   23.7938   -6.8934  -17.3481 C   0  0  0  0  0  0  0  0  0  0  0  0
   23.7072   -7.0930  -18.7970 N   0  0  0  0  0  0  0  0  0  0  0  0
   21.3822   -4.7438  -13.1278 C   0  0  0  0  0  0  0  0  0  0  0  0
   20.6037   -3.7769  -13.0272 O   0  0  0  0  0  0  0  0  0  0  0  0
   22.7738   -4.5557  -13.0627 O   0  0  0  0  0  0  0  0  0  0  0  0
  2  1  1  0
  3  2  1  0
  4  3  1  0
  4  5  1  0
  5  7  1  0
  5  6  1  1
  7  8  2  0
 10  9  1  0
 11 10  2  0
 13 12  1  1
 12 10  1  0
 14 13  1  0
 14  7  1  0
 15 17  1  0
 15 13  1  0
 16 15  2  0
 18 17  1  0
 18 19  1  6
 19 20  1  0
 21 20  1  0
 22 21  1  0
 23 22  1  0
 24 26  1  0
 24 18  1  0
 25 24  2  0
M  END
$$$$
