MNK.pdb
     RDKit          3D

 26 25  0  0  1  0  0  0  0  0999 V2000
   27.0356  -11.1869  -15.2117 C   0  0  0  0  0  0  0  0  0  0  0  0
   27.9602  -12.7199  -15.2562 S   0  0  0  0  0  0  0  0  0  0  0  0
   26.8082  -14.1351  -15.3842 C   0  0  0  0  0  0  0  0  0  0  0  0
   25.7006  -13.7749  -16.3459 C   0  0  0  0  0  0  0  0  0  0  0  0
   24.3637  -14.3303  -16.0001 C   0  0  2  0  0  0  0  0  0  0  0  0
   24.3539  -15.7728  -16.1956 N   0  0  0  0  0  0  0  0  0  0  0  0
   23.3322  -13.6762  -16.8613 C   0  0  0  0  0  0  0  0  0  0  0  0
   22.7950  -14.3367  -17.7857 O   0  0  0  0  0  0  0  0  0  0  0  0
   19.7534  -10.3539  -18.4342 N   0  0  0  0  0  0  0  0  0  0  0  0
   19.4957  -11.7044  -17.9911 C   0  0  0  0  0  0  0  0  0  0  0  0
   18.3523  -12.1859  -18.1507 O   0  0  0  0  0  0  0  0  0  0  0  0
   20.5714  -12.4799  -17.3686 C   0  0  0  0  0  0  0  0  0  0  0  0
   21.8371  -11.6491  -17.2288 C   0  0  2  0  0  0  0  0  0  0  0  0
   22.9474  -12.3247  -16.6545 N   0  0  0  0  0  0  0  0  0  0  0  0
   21.6076  -10.2913  -16.7034 C   0  0  0  0  0  0  0  0  0  0  0  0
   21.2428  -10.1019  -15.5054 O   0  0  0  0  0  0  0  0  0  0  0  0
   21.7729   -9.1149  -17.4837 N   0  0  0  0  0  0  0  0  0  0  0  0
   21.3146   -7.7989  -17.0236 C   0  0  1  0  0  0  0  0  0  0  0  0
   19.8598   -7.6252  -17.2805 C   0  0  0  0  0  0  0  0  0  0  0  0
   19.2618   -6.3359  -16.8162 C   0  0  0  0  0  0  0  0  0  0  0  0
   17.8120   -6.1805  -17.2409 C   0  0  0  0  0  0  0  0  0  0  0  0
   17.2065   -4.8916  -16.7518 C   0  0  0  0  0  0  0  0  0  0  0  0
   16.8877   -5.0455  -15.3301 N   0  0  0  0  0  0  0  0  0  0  0  0
   21.6487   -7.6190  -15.5948 C   0  0  0  0  0  0  0  0  0  0  0  0
   20.8911   -8.0457  -14.7031 O   0  0  0  0  0  0  0  0  0  0  0  0
   22.8423   -6.9534  -15.2658 O   0  0  0  0  0  0  0  0  0  0  0  0
  2  1  1  0
  3  2  1  0
  4  3  1  0
  4  5  1  0
  5  7  1  0
  5  6  1  6
  7  8  2  0
 10  9  1  0
 11 10  2  0
 13 12  1  1
 12 10  1  0
 14 13  1  0
 14  7  1  0
 15 17  1  0
 15 13  1  0
 16 15  2  0
 18 17  1  0
 18 19  1  1
 19 20  1  0
 21 20  1  0
 22 21  1  0
 23 22  1  0
 24 26  1  0
 24 18  1  0
 25 24  2  0
M  END
$$$$
