MNK.pdb
     RDKit          3D

 26 25  0  0  1  0  0  0  0  0999 V2000
   17.7332  -14.9965  -15.2422 C   0  0  0  0  0  0  0  0  0  0  0  0
   17.7093  -13.2271  -14.9668 S   0  0  0  0  0  0  0  0  0  0  0  0
   16.2266  -12.7706  -13.9975 C   0  0  0  0  0  0  0  0  0  0  0  0
   16.3109  -11.3053  -13.6411 C   0  0  0  0  0  0  0  0  0  0  0  0
   15.2214  -10.8109  -12.7557 C   0  0  2  0  0  0  0  0  0  0  0  0
   13.9393  -10.9023  -13.4391 N   0  0  0  0  0  0  0  0  0  0  0  0
   15.5142   -9.3958  -12.3747 C   0  0  0  0  0  0  0  0  0  0  0  0
   15.2097   -8.4703  -13.1685 O   0  0  0  0  0  0  0  0  0  0  0  0
   17.4199   -5.3272   -9.9002 N   0  0  0  0  0  0  0  0  0  0  0  0
   16.7027   -6.1047   -8.9164 C   0  0  0  0  0  0  0  0  0  0  0  0
   16.5316   -5.6254   -7.7737 O   0  0  0  0  0  0  0  0  0  0  0  0
   16.1914   -7.4302   -9.2734 C   0  0  0  0  0  0  0  0  0  0  0  0
   16.5737   -7.8008  -10.6976 C   0  0  2  0  0  0  0  0  0  0  0  0
   16.1281   -9.0775  -11.1341 N   0  0  0  0  0  0  0  0  0  0  0  0
   17.9723   -7.4892  -11.0429 C   0  0  0  0  0  0  0  0  0  0  0  0
   18.9359   -8.1308  -10.5290 O   0  0  0  0  0  0  0  0  0  0  0  0
   18.3403   -6.4660  -11.9582 N   0  0  0  0  0  0  0  0  0  0  0  0
   19.6542   -6.4342  -12.6110 C   0  0  1  0  0  0  0  0  0  0  0  0
   19.8207   -7.5975  -13.5229 C   0  0  0  0  0  0  0  0  0  0  0  0
   21.0943   -7.6400  -14.3048 C   0  0  0  0  0  0  0  0  0  0  0  0
   21.1439   -8.8087  -15.2735 C   0  0  0  0  0  0  0  0  0  0  0  0
   22.4420   -8.8682  -16.0341 C   0  0  0  0  0  0  0  0  0  0  0  0
   22.3205   -9.8991  -17.0680 N   0  0  0  0  0  0  0  0  0  0  0  0
   19.8362   -5.1482  -13.3170 C   0  0  0  0  0  0  0  0  0  0  0  0
   18.8539   -4.4839  -13.6977 O   0  0  0  0  0  0  0  0  0  0  0  0
   21.1455   -4.6927  -13.5500 O   0  0  0  0  0  0  0  0  0  0  0  0
  2  1  1  0
  3  2  1  0
  4  3  1  0
  4  5  1  0
  5  7  1  0
  5  6  1  6
  7  8  2  0
 10  9  1  0
 11 10  2  0
 13 12  1  1
 12 10  1  0
 14 13  1  0
 14  7  1  0
 15 17  1  0
 15 13  1  0
 16 15  2  0
 18 17  1  0
 18 19  1  6
 19 20  1  0
 21 20  1  0
 22 21  1  0
 23 22  1  0
 24 26  1  0
 24 18  1  0
 25 24  2  0
M  END
$$$$
