FAQ.pdb
     RDKit          3D

 26 26  0  0  1  0  0  0  0  0999 V2000
    5.9106  -17.8570   25.0311 N   0  0  0  0  0  0  0  0  0  0  0  0
    6.4397  -16.5133   24.9162 C   0  0  1  0  0  0  0  0  0  0  0  0
    6.9353  -16.0250   26.2714 C   0  0  0  0  0  0  0  0  0  0  0  0
    6.7982  -14.5449   26.3231 C   0  0  0  0  0  0  0  0  0  0  0  0
    5.5659  -13.9246   26.4057 C   0  0  0  0  0  0  0  0  0  0  0  0
    5.4178  -12.5547   26.4546 C   0  0  0  0  0  0  0  0  0  0  0  0
    6.5301  -11.7399   26.4214 C   0  0  0  0  0  0  0  0  0  0  0  0
    7.7614  -12.3558   26.3390 C   0  0  0  0  0  0  0  0  0  0  0  0
    7.9084  -13.7267   26.2901 C   0  0  0  0  0  0  0  0  0  0  0  0
    7.4847  -16.4517   23.8903 C   0  0  0  0  0  0  0  0  0  0  0  0
    8.2393  -17.4482   23.7269 O   0  0  0  0  0  0  0  0  0  0  0  0
    8.5211  -14.1850   21.0528 C   0  0  0  0  0  0  0  0  0  0  0  0
    8.6612  -15.3749   21.9737 C   0  0  2  0  0  0  0  0  0  0  0  0
    7.7027  -15.3265   23.0594 N   0  0  0  0  0  0  0  0  0  0  0  0
   10.0572  -15.4304   22.4770 C   0  0  0  0  0  0  0  0  0  0  0  0
   11.0543  -15.3551   21.7146 O   0  0  0  0  0  0  0  0  0  0  0  0
   11.9288  -14.8451   27.9998 N   0  0  0  0  0  0  0  0  0  0  0  0
   10.6072  -15.2132   27.6346 C   0  0  0  0  0  0  0  0  0  0  0  0
    9.6661  -14.7836   28.3458 O   0  0  0  0  0  0  0  0  0  0  0  0
   10.4245  -16.0691   26.4540 C   0  0  0  0  0  0  0  0  0  0  0  0
   11.6854  -16.3516   25.7133 C   0  0  0  0  0  0  0  0  0  0  0  0
   11.6221  -15.6576   24.3664 C   0  0  2  0  0  0  0  0  0  0  0  0
   10.2713  -15.5729   23.8622 N   0  0  0  0  0  0  0  0  0  0  0  0
   12.4307  -16.3946   23.3477 C   0  0  0  0  0  0  0  0  0  0  0  0
   12.0109  -17.6356   22.8330 O   0  0  0  0  0  0  0  0  0  0  0  0
   13.5057  -15.9513   22.9083 O   0  0  0  0  0  0  0  0  0  0  0  0
  2  1  1  1
  2  3  1  0
  2 10  1  0
  3  4  1  0
  4  5  2  0
  4  9  1  0
  5  6  1  0
  6  7  2  0
  8  7  1  0
  9  8  2  0
 10 11  2  0
 13 12  1  6
 14 13  1  0
 14 10  1  0
 15 16  2  0
 15 13  1  0
 17 18  1  0
 18 20  1  0
 19 18  2  0
 20 21  1  0
 22 21  1  1
 22 24  1  0
 22 23  1  0
 23 15  1  0
 24 25  1  0
 26 24  2  0
M  END
$$$$
