FAQ.pdb
     RDKit          3D

 26 26  0  0  1  0  0  0  0  0999 V2000
    6.4888  -16.7001   25.5659 N   0  0  0  0  0  0  0  0  0  0  0  0
    7.0280  -15.5851   24.8145 C   0  0  1  0  0  0  0  0  0  0  0  0
    8.1998  -14.9632   25.5634 C   0  0  0  0  0  0  0  0  0  0  0  0
    7.6938  -13.8280   26.3803 C   0  0  0  0  0  0  0  0  0  0  0  0
    6.3562  -13.4813   26.4059 C   0  0  0  0  0  0  0  0  0  0  0  0
    5.8676  -12.4329   27.1564 C   0  0  0  0  0  0  0  0  0  0  0  0
    6.7271  -11.6774   27.9262 C   0  0  0  0  0  0  0  0  0  0  0  0
    8.0626  -12.0208   27.9029 C   0  0  0  0  0  0  0  0  0  0  0  0
    8.5504  -13.0701   27.1516 C   0  0  0  0  0  0  0  0  0  0  0  0
    7.3967  -16.0013   23.4585 C   0  0  0  0  0  0  0  0  0  0  0  0
    7.4254  -17.2314   23.1840 O   0  0  0  0  0  0  0  0  0  0  0  0
    7.8481  -14.4405   20.0653 C   0  0  0  0  0  0  0  0  0  0  0  0
    7.9687  -15.5612   21.0719 C   0  0  2  0  0  0  0  0  0  0  0  0
    7.7274  -15.0950   22.4226 N   0  0  0  0  0  0  0  0  0  0  0  0
    9.3104  -16.1837   20.9383 C   0  0  0  0  0  0  0  0  0  0  0  0
    9.7679  -16.5736   19.8339 O   0  0  0  0  0  0  0  0  0  0  0  0
   11.7249  -16.8920   26.0452 N   0  0  0  0  0  0  0  0  0  0  0  0
   12.0738  -15.6853   25.3836 C   0  0  0  0  0  0  0  0  0  0  0  0
   12.2083  -14.6542   26.0870 O   0  0  0  0  0  0  0  0  0  0  0  0
   12.2547  -15.7184   23.9255 C   0  0  0  0  0  0  0  0  0  0  0  0
   12.0936  -17.0736   23.3287 C   0  0  0  0  0  0  0  0  0  0  0  0
   11.4139  -16.9315   21.9805 C   0  0  2  0  0  0  0  0  0  0  0  0
   10.0999  -16.3428   22.0942 N   0  0  0  0  0  0  0  0  0  0  0  0
   11.2478  -18.2640   21.3236 C   0  0  0  0  0  0  0  0  0  0  0  0
   12.0600  -18.6580   20.2435 O   0  0  0  0  0  0  0  0  0  0  0  0
   10.3907  -19.0837   21.6959 O   0  0  0  0  0  0  0  0  0  0  0  0
  2  1  1  1
  2  3  1  0
  2 10  1  0
  3  4  1  0
  4  5  2  0
  4  9  1  0
  5  6  1  0
  6  7  2  0
  8  7  1  0
  9  8  2  0
 10 11  2  0
 13 12  1  6
 14 13  1  0
 14 10  1  0
 15 16  2  0
 15 13  1  0
 17 18  1  0
 18 20  1  0
 19 18  2  0
 20 21  1  0
 22 21  1  1
 22 24  1  0
 22 23  1  0
 23 15  1  0
 24 25  1  0
 26 24  2  0
M  END
$$$$
