FAQ.pdb
     RDKit          3D

 26 26  0  0  1  0  0  0  0  0999 V2000
    7.5917  -16.3463   23.8993 N   0  0  0  0  0  0  0  0  0  0  0  0
    8.3069  -15.1327   23.5612 C   0  0  1  0  0  0  0  0  0  0  0  0
    7.3353  -13.9657   23.4394 C   0  0  0  0  0  0  0  0  0  0  0  0
    6.9567  -13.5173   24.8060 C   0  0  0  0  0  0  0  0  0  0  0  0
    6.1701  -14.2893   25.6400 C   0  0  0  0  0  0  0  0  0  0  0  0
    5.8083  -13.8915   26.9096 C   0  0  0  0  0  0  0  0  0  0  0  0
    6.2347  -12.6741   27.3978 C   0  0  0  0  0  0  0  0  0  0  0  0
    7.0197  -11.9013   26.5680 C   0  0  0  0  0  0  0  0  0  0  0  0
    7.3812  -12.3003   25.2978 C   0  0  0  0  0  0  0  0  0  0  0  0
    9.3705  -14.8675   24.5341 C   0  0  0  0  0  0  0  0  0  0  0  0
    9.9537  -13.7501   24.5116 O   0  0  0  0  0  0  0  0  0  0  0  0
   10.3367  -14.1776   27.2621 C   0  0  0  0  0  0  0  0  0  0  0  0
   10.7516  -15.4336   26.5313 C   0  0  2  0  0  0  0  0  0  0  0  0
    9.7898  -15.8014   25.5117 N   0  0  0  0  0  0  0  0  0  0  0  0
   10.9445  -16.5233   27.5216 C   0  0  0  0  0  0  0  0  0  0  0  0
   11.6192  -16.3710   28.5717 O   0  0  0  0  0  0  0  0  0  0  0  0
    5.8669  -20.1475   28.4575 N   0  0  0  0  0  0  0  0  0  0  0  0
    6.9473  -20.0545   27.5412 C   0  0  0  0  0  0  0  0  0  0  0  0
    6.8875  -20.7517   26.4988 O   0  0  0  0  0  0  0  0  0  0  0  0
    8.0613  -19.1535   27.8680 C   0  0  0  0  0  0  0  0  0  0  0  0
    9.3511  -19.8556   28.1174 C   0  0  0  0  0  0  0  0  0  0  0  0
   10.4463  -18.8176   28.2689 C   0  0  2  0  0  0  0  0  0  0  0  0
   10.3479  -17.7754   27.2738 N   0  0  0  0  0  0  0  0  0  0  0  0
   11.7969  -19.4420   28.1256 C   0  0  0  0  0  0  0  0  0  0  0  0
   12.4729  -19.9943   29.2298 O   0  0  0  0  0  0  0  0  0  0  0  0
   12.3853  -19.5040   27.0323 O   0  0  0  0  0  0  0  0  0  0  0  0
  2  1  1  1
  2  3  1  0
  2 10  1  0
  3  4  1  0
  4  5  2  0
  4  9  1  0
  5  6  1  0
  6  7  2  0
  8  7  1  0
  9  8  2  0
 10 11  2  0
 13 12  1  1
 14 13  1  0
 14 10  1  0
 15 16  2  0
 15 13  1  0
 17 18  1  0
 18 20  1  0
 19 18  2  0
 20 21  1  0
 22 21  1  6
 22 24  1  0
 22 23  1  0
 23 15  1  0
 24 25  1  0
 26 24  2  0
M  END
$$$$
