FAQ.pdb
     RDKit          3D

 26 26  0  0  1  0  0  0  0  0999 V2000
    5.8521  -16.6412   24.5752 N   0  0  0  0  0  0  0  0  0  0  0  0
    7.1255  -15.9505   24.5736 C   0  0  1  0  0  0  0  0  0  0  0  0
    7.4607  -15.4611   25.9767 C   0  0  0  0  0  0  0  0  0  0  0  0
    6.9585  -14.0693   26.1278 C   0  0  0  0  0  0  0  0  0  0  0  0
    5.6092  -13.7704   26.1129 C   0  0  0  0  0  0  0  0  0  0  0  0
    5.1239  -12.4873   26.2513 C   0  0  0  0  0  0  0  0  0  0  0  0
    5.9989  -11.4336   26.4136 C   0  0  0  0  0  0  0  0  0  0  0  0
    7.3460  -11.7285   26.4289 C   0  0  0  0  0  0  0  0  0  0  0  0
    7.8306  -13.0128   26.2904 C   0  0  0  0  0  0  0  0  0  0  0  0
    8.1798  -16.8044   24.0192 C   0  0  0  0  0  0  0  0  0  0  0  0
    7.8708  -17.6805   23.1669 O   0  0  0  0  0  0  0  0  0  0  0  0
   10.4858  -15.2246   22.6782 C   0  0  0  0  0  0  0  0  0  0  0  0
   10.5779  -16.5584   23.3826 C   0  0  2  0  0  0  0  0  0  0  0  0
    9.5433  -16.7055   24.3865 N   0  0  0  0  0  0  0  0  0  0  0  0
   11.9349  -16.6984   23.9694 C   0  0  0  0  0  0  0  0  0  0  0  0
   12.9829  -16.5881   23.2833 O   0  0  0  0  0  0  0  0  0  0  0  0
    9.5125  -16.4822   28.1189 N   0  0  0  0  0  0  0  0  0  0  0  0
   10.8719  -16.1510   28.3597 C   0  0  0  0  0  0  0  0  0  0  0  0
   11.3699  -16.5004   29.4579 O   0  0  0  0  0  0  0  0  0  0  0  0
   11.6066  -15.4242   27.3149 C   0  0  0  0  0  0  0  0  0  0  0  0
   13.0539  -15.7694   27.2447 C   0  0  0  0  0  0  0  0  0  0  0  0
   13.2841  -16.6482   26.0304 C   0  0  2  0  0  0  0  0  0  0  0  0
   12.0512  -16.9650   25.3479 N   0  0  0  0  0  0  0  0  0  0  0  0
   13.9201  -17.9432   26.4217 C   0  0  0  0  0  0  0  0  0  0  0  0
   15.2019  -17.9876   27.0015 O   0  0  0  0  0  0  0  0  0  0  0  0
   13.3526  -19.0366   26.2556 O   0  0  0  0  0  0  0  0  0  0  0  0
  2  1  1  1
  2  3  1  0
  2 10  1  0
  3  4  1  0
  4  5  2  0
  4  9  1  0
  5  6  1  0
  6  7  2  0
  8  7  1  0
  9  8  2  0
 10 11  2  0
 13 12  1  1
 14 13  1  0
 14 10  1  0
 15 16  2  0
 15 13  1  0
 17 18  1  0
 18 20  1  0
 19 18  2  0
 20 21  1  0
 22 21  1  1
 22 24  1  0
 22 23  1  0
 23 15  1  0
 24 25  1  0
 26 24  2  0
M  END
$$$$
