FAQ.pdb
     RDKit          3D

 26 26  0  0  1  0  0  0  0  0999 V2000
    5.6472  -18.0430   24.8128 N   0  0  0  0  0  0  0  0  0  0  0  0
    6.1887  -16.7005   24.8698 C   0  0  1  0  0  0  0  0  0  0  0  0
    6.7707  -16.4259   26.2506 C   0  0  0  0  0  0  0  0  0  0  0  0
    6.9624  -14.9589   26.4029 C   0  0  0  0  0  0  0  0  0  0  0  0
    8.1794  -14.4113   26.7621 C   0  0  0  0  0  0  0  0  0  0  0  0
    8.3773  -13.0546   26.9084 C   0  0  0  0  0  0  0  0  0  0  0  0
    7.3336  -12.1791   26.6936 C   0  0  0  0  0  0  0  0  0  0  0  0
    6.1177  -12.7224   26.3350 C   0  0  0  0  0  0  0  0  0  0  0  0
    5.9208  -14.0800   26.1888 C   0  0  0  0  0  0  0  0  0  0  0  0
    7.1720  -16.4905   23.8035 C   0  0  0  0  0  0  0  0  0  0  0  0
    7.9257  -17.4449   23.4714 O   0  0  0  0  0  0  0  0  0  0  0  0
    8.0349  -13.8547   21.2383 C   0  0  0  0  0  0  0  0  0  0  0  0
    8.2278  -15.1570   21.9803 C   0  0  2  0  0  0  0  0  0  0  0  0
    7.3306  -15.2649   23.1131 N   0  0  0  0  0  0  0  0  0  0  0  0
    9.6496  -15.2672   22.3947 C   0  0  0  0  0  0  0  0  0  0  0  0
   10.6028  -15.0916   21.5937 O   0  0  0  0  0  0  0  0  0  0  0  0
   10.4824  -16.5339   28.3187 N   0  0  0  0  0  0  0  0  0  0  0  0
   10.7121  -15.2001   27.8900 C   0  0  0  0  0  0  0  0  0  0  0  0
   10.8851  -14.3263   28.7747 O   0  0  0  0  0  0  0  0  0  0  0  0
   10.7328  -14.9272   26.4461 C   0  0  0  0  0  0  0  0  0  0  0  0
   11.4365  -15.9679   25.6459 C   0  0  0  0  0  0  0  0  0  0  0  0
   11.3157  -15.6133   24.1764 C   0  0  2  0  0  0  0  0  0  0  0  0
    9.9402  -15.5805   23.7372 N   0  0  0  0  0  0  0  0  0  0  0  0
   12.0295  -16.6138   23.3255 C   0  0  0  0  0  0  0  0  0  0  0  0
   13.4060  -16.4999   23.0540 O   0  0  0  0  0  0  0  0  0  0  0  0
   11.4471  -17.5885   22.8195 O   0  0  0  0  0  0  0  0  0  0  0  0
  2  1  1  1
  2  3  1  0
  2 10  1  0
  3  4  1  0
  4  5  2  0
  4  9  1  0
  5  6  1  0
  6  7  2  0
  8  7  1  0
  9  8  2  0
 10 11  2  0
 13 12  1  1
 14 13  1  0
 14 10  1  0
 15 16  2  0
 15 13  1  0
 17 18  1  0
 18 20  1  0
 19 18  2  0
 20 21  1  0
 22 21  1  1
 22 24  1  0
 22 23  1  0
 23 15  1  0
 24 25  1  0
 26 24  2  0
M  END
$$$$
