FAQ.pdb
     RDKit          3D

 26 26  0  0  1  0  0  0  0  0999 V2000
   10.3629  -15.9338   21.4343 N   0  0  0  0  0  0  0  0  0  0  0  0
    9.2531  -15.1086   21.8656 C   0  0  1  0  0  0  0  0  0  0  0  0
    7.9768  -15.5246   21.1454 C   0  0  0  0  0  0  0  0  0  0  0  0
    7.7073  -14.5507   20.0541 C   0  0  0  0  0  0  0  0  0  0  0  0
    7.5823  -13.1955   20.2943 C   0  0  0  0  0  0  0  0  0  0  0  0
    7.3326  -12.2770   19.2967 C   0  0  0  0  0  0  0  0  0  0  0  0
    7.1965  -12.6985   17.9906 C   0  0  0  0  0  0  0  0  0  0  0  0
    7.3208  -14.0504   17.7475 C   0  0  0  0  0  0  0  0  0  0  0  0
    7.5706  -14.9685   18.7465 C   0  0  0  0  0  0  0  0  0  0  0  0
    9.1059  -15.1551   23.3231 C   0  0  0  0  0  0  0  0  0  0  0  0
   10.0234  -15.6762   24.0130 O   0  0  0  0  0  0  0  0  0  0  0  0
    6.8370  -13.7440   25.9843 C   0  0  0  0  0  0  0  0  0  0  0  0
    7.9311  -14.6465   25.4627 C   0  0  2  0  0  0  0  0  0  0  0  0
    7.9814  -14.6440   24.0145 N   0  0  0  0  0  0  0  0  0  0  0  0
    7.7223  -16.0145   26.0016 C   0  0  0  0  0  0  0  0  0  0  0  0
    7.5986  -16.2450   27.2315 O   0  0  0  0  0  0  0  0  0  0  0  0
    6.7209  -18.5798   21.9447 N   0  0  0  0  0  0  0  0  0  0  0  0
    5.5756  -18.8270   22.7463 C   0  0  0  0  0  0  0  0  0  0  0  0
    4.4493  -18.6282   22.2286 O   0  0  0  0  0  0  0  0  0  0  0  0
    5.7787  -19.2974   24.1237 C   0  0  0  0  0  0  0  0  0  0  0  0
    7.2109  -19.4357   24.5085 C   0  0  0  0  0  0  0  0  0  0  0  0
    7.5155  -18.4380   25.6092 C   0  0  2  0  0  0  0  0  0  0  0  0
    7.6606  -17.0945   25.0991 N   0  0  0  0  0  0  0  0  0  0  0  0
    8.7898  -18.7873   26.3084 C   0  0  0  0  0  0  0  0  0  0  0  0
    8.9494  -20.0160   26.9762 O   0  0  0  0  0  0  0  0  0  0  0  0
    9.7640  -18.0156   26.3345 O   0  0  0  0  0  0  0  0  0  0  0  0
  2  1  1  1
  2  3  1  0
  2 10  1  0
  3  4  1  0
  4  5  2  0
  4  9  1  0
  5  6  1  0
  6  7  2  0
  8  7  1  0
  9  8  2  0
 10 11  2  0
 13 12  1  6
 14 13  1  0
 14 10  1  0
 15 16  2  0
 15 13  1  0
 17 18  1  0
 18 20  1  0
 19 18  2  0
 20 21  1  0
 22 21  1  6
 22 24  1  0
 22 23  1  0
 23 15  1  0
 24 25  1  0
 26 24  2  0
M  END
$$$$
