FAQ.pdb
     RDKit          3D

 26 26  0  0  1  0  0  0  0  0999 V2000
    5.2114  -17.8724   24.3072 N   0  0  0  0  0  0  0  0  0  0  0  0
    5.8352  -16.5744   24.4644 C   0  0  1  0  0  0  0  0  0  0  0  0
    6.2903  -16.3801   25.9052 C   0  0  0  0  0  0  0  0  0  0  0  0
    6.6137  -14.9432   26.1123 C   0  0  0  0  0  0  0  0  0  0  0  0
    5.7963  -13.9322   25.6436 C   0  0  0  0  0  0  0  0  0  0  0  0
    6.0785  -12.5948   25.8253 C   0  0  0  0  0  0  0  0  0  0  0  0
    7.2200  -12.2173   26.5009 C   0  0  0  0  0  0  0  0  0  0  0  0
    8.0379  -13.2238   26.9700 C   0  0  0  0  0  0  0  0  0  0  0  0
    7.7545  -14.5617   26.7877 C   0  0  0  0  0  0  0  0  0  0  0  0
    6.9347  -16.4066   23.5099 C   0  0  0  0  0  0  0  0  0  0  0  0
    7.7235  -17.3698   23.3117 O   0  0  0  0  0  0  0  0  0  0  0  0
    8.2977  -13.7734   21.1568 C   0  0  0  0  0  0  0  0  0  0  0  0
    8.3077  -15.0905   21.8975 C   0  0  2  0  0  0  0  0  0  0  0  0
    7.1696  -15.2129   22.7861 N   0  0  0  0  0  0  0  0  0  0  0  0
    9.5923  -15.2186   22.6314 C   0  0  0  0  0  0  0  0  0  0  0  0
   10.7086  -15.0747   22.0707 O   0  0  0  0  0  0  0  0  0  0  0  0
   12.9267  -16.2405   29.1217 N   0  0  0  0  0  0  0  0  0  0  0  0
   11.7789  -15.8200   28.3996 C   0  0  0  0  0  0  0  0  0  0  0  0
   10.7418  -15.5584   29.0570 O   0  0  0  0  0  0  0  0  0  0  0  0
   11.8759  -15.7179   26.9368 C   0  0  0  0  0  0  0  0  0  0  0  0
   10.5566  -15.6617   26.2477 C   0  0  0  0  0  0  0  0  0  0  0  0
   10.7943  -15.5747   24.7524 C   0  0  2  0  0  0  0  0  0  0  0  0
    9.5577  -15.5126   24.0088 N   0  0  0  0  0  0  0  0  0  0  0  0
   11.5478  -16.7689   24.2615 C   0  0  0  0  0  0  0  0  0  0  0  0
   12.9550  -16.8022   24.2625 O   0  0  0  0  0  0  0  0  0  0  0  0
   10.9731  -17.7838   23.8316 O   0  0  0  0  0  0  0  0  0  0  0  0
  2  1  1  1
  2  3  1  0
  2 10  1  0
  3  4  1  0
  4  5  2  0
  4  9  1  0
  5  6  1  0
  6  7  2  0
  8  7  1  0
  9  8  2  0
 10 11  2  0
 13 12  1  1
 14 13  1  0
 14 10  1  0
 15 16  2  0
 15 13  1  0
 17 18  1  0
 18 20  1  0
 19 18  2  0
 20 21  1  0
 22 21  1  1
 22 24  1  0
 22 23  1  0
 23 15  1  0
 24 25  1  0
 26 24  2  0
M  END
$$$$
