FAQ.pdb
     RDKit          3D

 26 26  0  0  1  0  0  0  0  0999 V2000
    5.6691  -17.4104   24.8261 N   0  0  0  0  0  0  0  0  0  0  0  0
    6.7027  -16.4088   24.6617 C   0  0  1  0  0  0  0  0  0  0  0  0
    7.2561  -15.9955   26.0195 C   0  0  0  0  0  0  0  0  0  0  0  0
    7.0159  -14.5399   26.2080 C   0  0  0  0  0  0  0  0  0  0  0  0
    5.7672  -14.0366   26.5203 C   0  0  0  0  0  0  0  0  0  0  0  0
    5.5243  -12.6911   26.6990 C   0  0  0  0  0  0  0  0  0  0  0  0
    6.5529  -11.7819   26.5669 C   0  0  0  0  0  0  0  0  0  0  0  0
    7.8003  -12.2809   26.2553 C   0  0  0  0  0  0  0  0  0  0  0  0
    8.0422  -13.6274   26.0767 C   0  0  0  0  0  0  0  0  0  0  0  0
    7.7532  -16.8887   23.7593 C   0  0  0  0  0  0  0  0  0  0  0  0
    7.4398  -17.6614   22.8138 O   0  0  0  0  0  0  0  0  0  0  0  0
    9.2400  -14.8626   22.0982 C   0  0  0  0  0  0  0  0  0  0  0  0
    9.8776  -16.0729   22.7404 C   0  0  2  0  0  0  0  0  0  0  0  0
    9.1177  -16.5335   23.8850 N   0  0  0  0  0  0  0  0  0  0  0  0
   11.2767  -15.7389   23.1096 C   0  0  0  0  0  0  0  0  0  0  0  0
   12.1301  -15.3710   22.2626 O   0  0  0  0  0  0  0  0  0  0  0  0
   10.9383  -16.9833   27.5588 N   0  0  0  0  0  0  0  0  0  0  0  0
   11.2861  -15.6480   27.8930 C   0  0  0  0  0  0  0  0  0  0  0  0
   11.0747  -15.2694   29.0712 O   0  0  0  0  0  0  0  0  0  0  0  0
   11.8682  -14.7976   26.8453 C   0  0  0  0  0  0  0  0  0  0  0  0
   13.1709  -15.2940   26.3207 C   0  0  0  0  0  0  0  0  0  0  0  0
   13.0273  -15.5525   24.8333 C   0  0  2  0  0  0  0  0  0  0  0  0
   11.6614  -15.8385   24.4613 N   0  0  0  0  0  0  0  0  0  0  0  0
   13.8563  -16.7233   24.4127 C   0  0  0  0  0  0  0  0  0  0  0  0
   13.2704  -17.8823   23.8700 O   0  0  0  0  0  0  0  0  0  0  0  0
   15.0946  -16.7309   24.5207 O   0  0  0  0  0  0  0  0  0  0  0  0
  2  1  1  1
  2  3  1  0
  2 10  1  0
  3  4  1  0
  4  5  2  0
  4  9  1  0
  5  6  1  0
  6  7  2  0
  8  7  1  0
  9  8  2  0
 10 11  2  0
 13 12  1  1
 14 13  1  0
 14 10  1  0
 15 16  2  0
 15 13  1  0
 17 18  1  0
 18 20  1  0
 19 18  2  0
 20 21  1  0
 22 21  1  1
 22 24  1  0
 22 23  1  0
 23 15  1  0
 24 25  1  0
 26 24  2  0
M  END
$$$$
