FAQ.pdb
     RDKit          3D

 26 26  0  0  1  0  0  0  0  0999 V2000
    5.1536  -17.7671   24.2342 N   0  0  0  0  0  0  0  0  0  0  0  0
    5.9086  -16.5489   24.4452 C   0  0  1  0  0  0  0  0  0  0  0  0
    6.2993  -16.4191   25.9119 C   0  0  0  0  0  0  0  0  0  0  0  0
    6.7248  -15.0173   26.1687 C   0  0  0  0  0  0  0  0  0  0  0  0
    8.0570  -14.6557   26.2371 C   0  0  0  0  0  0  0  0  0  0  0  0
    8.4716  -13.3622   26.4740 C   0  0  0  0  0  0  0  0  0  0  0  0
    7.5393  -12.3622   26.6550 C   0  0  0  0  0  0  0  0  0  0  0  0
    6.2090  -12.7197   26.5873 C   0  0  0  0  0  0  0  0  0  0  0  0
    5.7952  -14.0143   26.3501 C   0  0  0  0  0  0  0  0  0  0  0  0
    7.0728  -16.4979   23.5563 C   0  0  0  0  0  0  0  0  0  0  0  0
    7.8190  -17.5102   23.4689 O   0  0  0  0  0  0  0  0  0  0  0  0
    8.7265  -14.0855   21.1526 C   0  0  0  0  0  0  0  0  0  0  0  0
    8.6071  -15.3622   21.9523 C   0  0  2  0  0  0  0  0  0  0  0  0
    7.4166  -15.3663   22.7784 N   0  0  0  0  0  0  0  0  0  0  0  0
    9.8383  -15.5368   22.7641 C   0  0  0  0  0  0  0  0  0  0  0  0
   10.9865  -15.5693   22.2526 O   0  0  0  0  0  0  0  0  0  0  0  0
   10.4381  -14.7054   29.0896 N   0  0  0  0  0  0  0  0  0  0  0  0
   11.7297  -15.0580   28.6173 C   0  0  0  0  0  0  0  0  0  0  0  0
   12.6682  -15.0788   29.4509 O   0  0  0  0  0  0  0  0  0  0  0  0
   11.8865  -15.3746   27.1908 C   0  0  0  0  0  0  0  0  0  0  0  0
   10.6200  -15.2884   26.4115 C   0  0  0  0  0  0  0  0  0  0  0  0
   10.9030  -15.7011   24.9799 C   0  0  2  0  0  0  0  0  0  0  0  0
    9.7136  -15.6710   24.1610 N   0  0  0  0  0  0  0  0  0  0  0  0
   11.4459  -17.0928   24.9231 C   0  0  0  0  0  0  0  0  0  0  0  0
   12.8141  -17.3402   24.7045 O   0  0  0  0  0  0  0  0  0  0  0  0
   10.7211  -18.0927   25.0650 O   0  0  0  0  0  0  0  0  0  0  0  0
  2  1  1  1
  2  3  1  0
  2 10  1  0
  3  4  1  0
  4  5  2  0
  4  9  1  0
  5  6  1  0
  6  7  2  0
  8  7  1  0
  9  8  2  0
 10 11  2  0
 13 12  1  1
 14 13  1  0
 14 10  1  0
 15 16  2  0
 15 13  1  0
 17 18  1  0
 18 20  1  0
 19 18  2  0
 20 21  1  0
 22 21  1  1
 22 24  1  0
 22 23  1  0
 23 15  1  0
 24 25  1  0
 26 24  2  0
M  END
$$$$
