FAQ.pdb
     RDKit          3D

 26 26  0  0  1  0  0  0  0  0999 V2000
    9.7738  -16.6117   18.8878 N   0  0  0  0  0  0  0  0  0  0  0  0
    9.6190  -16.3047   20.2951 C   0  0  1  0  0  0  0  0  0  0  0  0
    8.1833  -15.8880   20.5881 C   0  0  0  0  0  0  0  0  0  0  0  0
    8.0043  -14.4718   20.1707 C   0  0  0  0  0  0  0  0  0  0  0  0
    9.0316  -13.7365   19.6102 C   0  0  0  0  0  0  0  0  0  0  0  0
    8.8857  -12.4231   19.2170 C   0  0  0  0  0  0  0  0  0  0  0  0
    7.6727  -11.7867   19.3770 C   0  0  0  0  0  0  0  0  0  0  0  0
    6.6454  -12.5176   19.9360 C   0  0  0  0  0  0  0  0  0  0  0  0
    6.7924  -13.8319   20.3292 C   0  0  0  0  0  0  0  0  0  0  0  0
   10.0470  -17.4349   21.1243 C   0  0  0  0  0  0  0  0  0  0  0  0
    9.8158  -17.4052   22.3632 O   0  0  0  0  0  0  0  0  0  0  0  0
   12.3160  -20.4194   20.7794 C   0  0  0  0  0  0  0  0  0  0  0  0
   11.3144  -19.5486   21.5019 C   0  0  2  0  0  0  0  0  0  0  0  0
   10.7135  -18.5744   20.6133 N   0  0  0  0  0  0  0  0  0  0  0  0
   11.9877  -18.8976   22.6543 C   0  0  0  0  0  0  0  0  0  0  0  0
   11.3896  -18.6411   23.7302 O   0  0  0  0  0  0  0  0  0  0  0  0
   12.4698  -20.5846   27.4263 N   0  0  0  0  0  0  0  0  0  0  0  0
   13.6255  -19.8532   27.0455 C   0  0  0  0  0  0  0  0  0  0  0  0
   14.6934  -20.0907   27.6614 O   0  0  0  0  0  0  0  0  0  0  0  0
   13.5003  -18.8696   25.9607 C   0  0  0  0  0  0  0  0  0  0  0  0
   14.2363  -19.2429   24.7207 C   0  0  0  0  0  0  0  0  0  0  0  0
   14.0769  -18.1256   23.7077 C   0  0  2  0  0  0  0  0  0  0  0  0
   13.3491  -18.5547   22.5363 N   0  0  0  0  0  0  0  0  0  0  0  0
   15.4094  -17.6302   23.2456 C   0  0  0  0  0  0  0  0  0  0  0  0
   15.9468  -18.0152   22.0030 O   0  0  0  0  0  0  0  0  0  0  0  0
   16.1035  -16.8594   23.9308 O   0  0  0  0  0  0  0  0  0  0  0  0
  2  1  1  6
  2  3  1  0
  2 10  1  0
  3  4  1  0
  4  5  2  0
  4  9  1  0
  5  6  1  0
  6  7  2  0
  8  7  1  0
  9  8  2  0
 10 11  2  0
 13 12  1  6
 14 13  1  0
 14 10  1  0
 15 16  2  0
 15 13  1  0
 17 18  1  0
 18 20  1  0
 19 18  2  0
 20 21  1  0
 22 21  1  1
 22 24  1  0
 22 23  1  0
 23 15  1  0
 24 25  1  0
 26 24  2  0
M  END
$$$$
