FAQ.pdb
     RDKit          3D

 26 26  0  0  1  0  0  0  0  0999 V2000
    6.0608  -16.5435   25.4444 N   0  0  0  0  0  0  0  0  0  0  0  0
    7.1588  -16.0922   24.6141 C   0  0  1  0  0  0  0  0  0  0  0  0
    8.1430  -15.2751   25.4414 C   0  0  0  0  0  0  0  0  0  0  0  0
    7.5980  -13.9015   25.6092 C   0  0  0  0  0  0  0  0  0  0  0  0
    8.0152  -12.8453   24.8216 C   0  0  0  0  0  0  0  0  0  0  0  0
    7.5224  -11.5652   24.9615 C   0  0  0  0  0  0  0  0  0  0  0  0
    6.5696  -11.2949   25.9213 C   0  0  0  0  0  0  0  0  0  0  0  0
    6.1511  -12.3468   26.7090 C   0  0  0  0  0  0  0  0  0  0  0  0
    6.6449  -13.6273   26.5681 C   0  0  0  0  0  0  0  0  0  0  0  0
    7.8053  -17.2251   23.9456 C   0  0  0  0  0  0  0  0  0  0  0  0
    7.8216  -18.3459   24.5223 O   0  0  0  0  0  0  0  0  0  0  0  0
    9.0347  -18.1563   20.5327 C   0  0  0  0  0  0  0  0  0  0  0  0
    8.9835  -18.3106   22.0351 C   0  0  2  0  0  0  0  0  0  0  0  0
    8.4216  -17.1378   22.6743 N   0  0  0  0  0  0  0  0  0  0  0  0
   10.3509  -18.6048   22.5341 C   0  0  0  0  0  0  0  0  0  0  0  0
   11.0116  -19.6024   22.1478 O   0  0  0  0  0  0  0  0  0  0  0  0
   12.8254  -14.6222   20.8430 N   0  0  0  0  0  0  0  0  0  0  0  0
   13.4536  -15.0769   22.0322 C   0  0  0  0  0  0  0  0  0  0  0  0
   14.6654  -14.7922   22.1953 O   0  0  0  0  0  0  0  0  0  0  0  0
   12.6510  -15.8476   22.9922 C   0  0  0  0  0  0  0  0  0  0  0  0
   13.3038  -17.1054   23.4509 C   0  0  0  0  0  0  0  0  0  0  0  0
   12.2382  -18.0286   24.0094 C   0  0  2  0  0  0  0  0  0  0  0  0
   10.9290  -17.7316   23.4765 N   0  0  0  0  0  0  0  0  0  0  0  0
   12.1507  -17.9045   25.4966 C   0  0  0  0  0  0  0  0  0  0  0  0
   10.9902  -17.4175   26.1270 O   0  0  0  0  0  0  0  0  0  0  0  0
   13.0913  -18.2228   26.2442 O   0  0  0  0  0  0  0  0  0  0  0  0
  2  1  1  1
  2  3  1  0
  2 10  1  0
  3  4  1  0
  4  5  2  0
  4  9  1  0
  5  6  1  0
  6  7  2  0
  8  7  1  0
  9  8  2  0
 10 11  2  0
 13 12  1  6
 14 13  1  0
 14 10  1  0
 15 16  2  0
 15 13  1  0
 17 18  1  0
 18 20  1  0
 19 18  2  0
 20 21  1  0
 22 21  1  6
 22 24  1  0
 22 23  1  0
 23 15  1  0
 24 25  1  0
 26 24  2  0
M  END
$$$$
