GNK.pdb
     RDKit          3D

 22 21  0  0  1  0  0  0  0  0999 V2000
   26.2402  -19.4938   -7.2905 N   0  0  0  0  0  0  0  0  0  0  0  0
   25.5931  -20.4864   -8.1302 C   0  0  0  0  0  0  0  0  0  0  0  0
   25.7492  -20.1260   -9.5816 C   0  0  0  0  0  0  0  0  0  0  0  0
   26.5696  -19.2711   -9.9615 O   0  0  0  0  0  0  0  0  0  0  0  0
   27.6511  -21.4155  -14.3011 N   0  0  0  0  0  0  0  0  0  0  0  0
   26.2965  -21.6636  -13.9158 C   0  0  0  0  0  0  0  0  0  0  0  0
   25.4269  -21.7088  -14.8111 O   0  0  0  0  0  0  0  0  0  0  0  0
   25.9628  -21.8571  -12.5013 C   0  0  0  0  0  0  0  0  0  0  0  0
   25.0777  -20.7402  -11.9494 C   0  0  2  0  0  0  0  0  0  0  0  0
   24.9255  -20.7960  -10.5206 N   0  0  0  0  0  0  0  0  0  0  0  0
   23.7790  -20.7761  -12.6443 C   0  0  0  0  0  0  0  0  0  0  0  0
   22.9848  -21.6891  -12.3252 O   0  0  0  0  0  0  0  0  0  0  0  0
   23.4137  -19.8333  -13.6348 N   0  0  0  0  0  0  0  0  0  0  0  0
   22.1266  -19.7958  -14.2938 C   0  0  1  0  0  0  0  0  0  0  0  0
   22.1786  -18.7171  -15.3109 C   0  0  0  0  0  0  0  0  0  0  0  0
   20.9146  -18.4287  -16.0423 C   0  0  0  0  0  0  0  0  0  0  0  0
   21.2130  -17.2456  -16.9783 C   0  0  0  0  0  0  0  0  0  0  0  0
   19.9700  -16.8659  -17.7534 C   0  0  0  0  0  0  0  0  0  0  0  0
   20.2133  -15.7132  -18.5928 N   0  0  0  0  0  0  0  0  0  0  0  0
   21.7320  -21.1160  -14.7932 C   0  0  0  0  0  0  0  0  0  0  0  0
   22.5787  -21.9577  -15.4438 O   0  0  0  0  0  0  0  0  0  0  0  0
   20.5455  -21.5064  -14.6147 O   0  0  0  0  0  0  0  0  0  0  0  0
  2  3  1  0
  2  1  1  0
  3  4  2  0
  6  5  1  0
  7  6  2  0
  8  6  1  0
  9  8  1  6
  9 11  1  0
 10  9  1  0
 10  3  1  0
 11 12  2  0
 11 13  1  0
 13 14  1  0
 14 15  1  6
 15 16  1  0
 16 17  1  0
 17 18  1  0
 19 18  1  0
 20 21  1  0
 20 14  1  0
 22 20  2  0
M  END
$$$$
