GNK.pdb
     RDKit          3D

 22 21  0  0  1  0  0  0  0  0999 V2000
   29.7317  -24.5773  -16.3720 N   0  0  0  0  0  0  0  0  0  0  0  0
   29.0289  -23.8053  -17.3815 C   0  0  0  0  0  0  0  0  0  0  0  0
   28.3051  -22.6502  -16.7470 C   0  0  0  0  0  0  0  0  0  0  0  0
   28.4482  -22.3664  -15.5441 O   0  0  0  0  0  0  0  0  0  0  0  0
   26.8575  -17.2351  -17.2666 N   0  0  0  0  0  0  0  0  0  0  0  0
   26.1208  -18.3556  -17.7632 C   0  0  0  0  0  0  0  0  0  0  0  0
   24.8762  -18.2665  -17.8179 O   0  0  0  0  0  0  0  0  0  0  0  0
   26.8304  -19.5651  -18.1912 C   0  0  0  0  0  0  0  0  0  0  0  0
   26.7502  -20.6886  -17.1581 C   0  0  2  0  0  0  0  0  0  0  0  0
   27.4427  -21.8804  -17.5673 N   0  0  0  0  0  0  0  0  0  0  0  0
   25.3333  -20.9516  -16.8514 C   0  0  0  0  0  0  0  0  0  0  0  0
   24.7152  -21.7216  -17.6202 O   0  0  0  0  0  0  0  0  0  0  0  0
   24.6696  -20.3745  -15.7424 N   0  0  0  0  0  0  0  0  0  0  0  0
   23.2676  -20.5616  -15.4398 C   0  0  1  0  0  0  0  0  0  0  0  0
   22.9803  -19.8221  -14.1862 C   0  0  0  0  0  0  0  0  0  0  0  0
   21.5540  -19.7500  -13.7664 C   0  0  0  0  0  0  0  0  0  0  0  0
   21.2161  -21.1112  -13.1358 C   0  0  0  0  0  0  0  0  0  0  0  0
   19.7476  -21.1703  -12.7755 C   0  0  0  0  0  0  0  0  0  0  0  0
   19.4207  -22.4239  -12.1321 N   0  0  0  0  0  0  0  0  0  0  0  0
   22.4142  -20.2230  -16.5822 C   0  0  0  0  0  0  0  0  0  0  0  0
   21.2527  -20.8685  -16.8704 O   0  0  0  0  0  0  0  0  0  0  0  0
   22.7631  -19.2821  -17.3470 O   0  0  0  0  0  0  0  0  0  0  0  0
  2  3  1  0
  2  1  1  0
  3  4  2  0
  6  5  1  0
  7  6  2  0
  8  6  1  0
  9  8  1  6
  9 11  1  0
 10  9  1  0
 10  3  1  0
 11 12  2  0
 11 13  1  0
 13 14  1  0
 14 15  1  1
 15 16  1  0
 16 17  1  0
 17 18  1  0
 19 18  1  0
 20 21  1  0
 20 14  1  0
 22 20  2  0
M  END
$$$$
