GNK.pdb
     RDKit          3D

 22 21  0  0  1  0  0  0  0  0999 V2000
   28.7557  -21.9619  -17.0992 N   0  0  0  0  0  0  0  0  0  0  0  0
   28.2720  -20.8736  -16.2682 C   0  0  0  0  0  0  0  0  0  0  0  0
   27.3271  -21.3948  -15.2211 C   0  0  0  0  0  0  0  0  0  0  0  0
   26.7948  -22.5154  -15.3162 O   0  0  0  0  0  0  0  0  0  0  0  0
   24.7488  -21.6837  -10.7799 N   0  0  0  0  0  0  0  0  0  0  0  0
   25.7232  -20.6547  -10.5890 C   0  0  0  0  0  0  0  0  0  0  0  0
   25.9044  -20.2205   -9.4321 O   0  0  0  0  0  0  0  0  0  0  0  0
   26.4769  -20.1400  -11.7365 C   0  0  0  0  0  0  0  0  0  0  0  0
   26.1520  -20.8824  -13.0322 C   0  0  2  0  0  0  0  0  0  0  0  0
   27.0550  -20.5643  -14.1051 N   0  0  0  0  0  0  0  0  0  0  0  0
   24.7491  -20.6146  -13.3941 C   0  0  0  0  0  0  0  0  0  0  0  0
   24.4581  -19.4441  -13.7277 O   0  0  0  0  0  0  0  0  0  0  0  0
   23.7487  -21.6157  -13.3762 N   0  0  0  0  0  0  0  0  0  0  0  0
   22.3578  -21.3886  -13.7018 C   0  0  1  0  0  0  0  0  0  0  0  0
   21.7040  -22.7157  -13.8117 C   0  0  0  0  0  0  0  0  0  0  0  0
   20.2544  -22.7189  -14.1500 C   0  0  0  0  0  0  0  0  0  0  0  0
   19.8398  -24.1944  -14.2767 C   0  0  0  0  0  0  0  0  0  0  0  0
   18.3876  -24.2956  -14.6898 C   0  0  0  0  0  0  0  0  0  0  0  0
   18.0191  -25.6680  -14.9606 N   0  0  0  0  0  0  0  0  0  0  0  0
   21.7270  -20.4492  -12.7702 C   0  0  0  0  0  0  0  0  0  0  0  0
   21.7241  -20.6162  -11.4208 O   0  0  0  0  0  0  0  0  0  0  0  0
   21.1538  -19.4243  -13.2317 O   0  0  0  0  0  0  0  0  0  0  0  0
  2  3  1  0
  2  1  1  0
  3  4  2  0
  6  5  1  0
  7  6  2  0
  8  6  1  0
  9  8  1  1
  9 11  1  0
 10  9  1  0
 10  3  1  0
 11 12  2  0
 11 13  1  0
 13 14  1  0
 14 15  1  1
 15 16  1  0
 16 17  1  0
 17 18  1  0
 19 18  1  0
 20 21  1  0
 20 14  1  0
 22 20  2  0
M  END
$$$$
