GNK.pdb
     RDKit          3D

 22 21  0  0  1  0  0  0  0  0999 V2000
   21.8519  -12.7750  -19.4386 N   0  0  0  0  0  0  0  0  0  0  0  0
   20.8636  -13.3329  -18.5326 C   0  0  0  0  0  0  0  0  0  0  0  0
   19.7664  -12.3368  -18.2774 C   0  0  0  0  0  0  0  0  0  0  0  0
   19.0922  -11.8507  -19.2033 O   0  0  0  0  0  0  0  0  0  0  0  0
   16.6241  -13.1579  -16.3747 N   0  0  0  0  0  0  0  0  0  0  0  0
   16.9439  -12.5179  -15.1366 C   0  0  0  0  0  0  0  0  0  0  0  0
   16.3637  -12.9098  -14.1023 O   0  0  0  0  0  0  0  0  0  0  0  0
   17.9305  -11.4338  -15.1078 C   0  0  0  0  0  0  0  0  0  0  0  0
   18.4605  -11.0860  -16.4984 C   0  0  2  0  0  0  0  0  0  0  0  0
   19.5154  -11.9607  -16.9340 N   0  0  0  0  0  0  0  0  0  0  0  0
   18.8763   -9.6726  -16.5085 C   0  0  0  0  0  0  0  0  0  0  0  0
   19.9385   -9.3847  -15.9128 O   0  0  0  0  0  0  0  0  0  0  0  0
   18.1296   -8.6590  -17.1555 N   0  0  0  0  0  0  0  0  0  0  0  0
   18.5218   -7.2682  -17.2194 C   0  0  1  0  0  0  0  0  0  0  0  0
   17.4983   -6.5535  -18.0209 C   0  0  0  0  0  0  0  0  0  0  0  0
   17.6263   -6.6461  -19.5011 C   0  0  0  0  0  0  0  0  0  0  0  0
   16.4570   -7.5195  -19.9857 C   0  0  0  0  0  0  0  0  0  0  0  0
   16.5035   -7.6667  -21.4911 C   0  0  0  0  0  0  0  0  0  0  0  0
   15.4206   -8.5005  -21.9650 N   0  0  0  0  0  0  0  0  0  0  0  0
   18.7812   -6.7139  -15.8876 C   0  0  0  0  0  0  0  0  0  0  0  0
   19.7752   -5.8245  -15.6239 O   0  0  0  0  0  0  0  0  0  0  0  0
   18.0483   -7.0711  -14.9246 O   0  0  0  0  0  0  0  0  0  0  0  0
  2  3  1  0
  2  1  1  0
  3  4  2  0
  6  5  1  0
  7  6  2  0
  8  6  1  0
  9  8  1  1
  9 11  1  0
 10  9  1  0
 10  3  1  0
 11 12  2  0
 11 13  1  0
 13 14  1  0
 14 15  1  1
 15 16  1  0
 16 17  1  0
 17 18  1  0
 19 18  1  0
 20 21  1  0
 20 14  1  0
 22 20  2  0
M  END
$$$$
