GNK.pdb
     RDKit          3D

 22 21  0  0  1  0  0  0  0  0999 V2000
   24.8666  -20.4925   -9.2233 N   0  0  0  0  0  0  0  0  0  0  0  0
   24.8301  -21.2550  -10.4587 C   0  0  0  0  0  0  0  0  0  0  0  0
   25.0739  -20.3536  -11.6373 C   0  0  0  0  0  0  0  0  0  0  0  0
   25.1987  -19.1224  -11.5077 O   0  0  0  0  0  0  0  0  0  0  0  0
   28.1464  -20.1931  -13.6174 N   0  0  0  0  0  0  0  0  0  0  0  0
   27.7246  -21.0243  -14.7018 C   0  0  0  0  0  0  0  0  0  0  0  0
   28.5840  -21.7232  -15.2788 O   0  0  0  0  0  0  0  0  0  0  0  0
   26.3154  -21.0387  -15.1063 C   0  0  0  0  0  0  0  0  0  0  0  0
   25.4221  -20.2519  -14.1479 C   0  0  2  0  0  0  0  0  0  0  0  0
   25.1601  -20.9518  -12.9194 N   0  0  0  0  0  0  0  0  0  0  0  0
   24.1796  -19.8852  -14.8497 C   0  0  0  0  0  0  0  0  0  0  0  0
   23.3108  -20.7767  -14.9778 O   0  0  0  0  0  0  0  0  0  0  0  0
   23.9466  -18.5890  -15.3683 N   0  0  0  0  0  0  0  0  0  0  0  0
   22.7101  -18.1656  -15.9879 C   0  0  1  0  0  0  0  0  0  0  0  0
   22.8555  -16.7311  -16.3371 C   0  0  0  0  0  0  0  0  0  0  0  0
   21.6972  -16.0896  -17.0170 C   0  0  0  0  0  0  0  0  0  0  0  0
   20.8112  -15.5013  -15.9062 C   0  0  0  0  0  0  0  0  0  0  0  0
   19.6037  -14.8163  -16.5084 C   0  0  0  0  0  0  0  0  0  0  0  0
   18.7079  -14.3410  -15.4768 N   0  0  0  0  0  0  0  0  0  0  0  0
   22.3246  -19.0484  -17.0926 C   0  0  0  0  0  0  0  0  0  0  0  0
   21.0440  -19.4375  -17.3324 O   0  0  0  0  0  0  0  0  0  0  0  0
   23.2193  -19.4764  -17.8726 O   0  0  0  0  0  0  0  0  0  0  0  0
  2  3  1  0
  2  1  1  0
  3  4  2  0
  6  5  1  0
  7  6  2  0
  8  6  1  0
  9  8  1  6
  9 11  1  0
 10  9  1  0
 10  3  1  0
 11 12  2  0
 11 13  1  0
 13 14  1  0
 14 15  1  6
 15 16  1  0
 16 17  1  0
 17 18  1  0
 19 18  1  0
 20 21  1  0
 20 14  1  0
 22 20  2  0
M  END
$$$$
