GNK.pdb
     RDKit          3D

 22 21  0  0  1  0  0  0  0  0999 V2000
   27.6921  -22.1634  -15.7110 N   0  0  0  0  0  0  0  0  0  0  0  0
   27.2384  -21.0302  -14.9243 C   0  0  0  0  0  0  0  0  0  0  0  0
   26.0281  -21.4060  -14.1150 C   0  0  0  0  0  0  0  0  0  0  0  0
   25.3093  -22.3749  -14.4197 O   0  0  0  0  0  0  0  0  0  0  0  0
   25.1587  -21.2052   -8.6057 N   0  0  0  0  0  0  0  0  0  0  0  0
   25.5590  -20.8770   -9.9387 C   0  0  0  0  0  0  0  0  0  0  0  0
   26.6791  -21.2658  -10.3314 O   0  0  0  0  0  0  0  0  0  0  0  0
   24.6607  -20.1044  -10.8022 C   0  0  0  0  0  0  0  0  0  0  0  0
   24.5197  -20.7139  -12.1966 C   0  0  2  0  0  0  0  0  0  0  0  0
   25.7228  -20.6166  -12.9781 N   0  0  0  0  0  0  0  0  0  0  0  0
   23.3699  -20.0895  -12.8739 C   0  0  0  0  0  0  0  0  0  0  0  0
   23.4894  -18.8918  -13.2165 O   0  0  0  0  0  0  0  0  0  0  0  0
   22.1672  -20.7863  -13.1412 N   0  0  0  0  0  0  0  0  0  0  0  0
   21.0283  -20.2189  -13.8291 C   0  0  1  0  0  0  0  0  0  0  0  0
   20.5390  -21.2349  -14.7929 C   0  0  0  0  0  0  0  0  0  0  0  0
   19.4164  -20.8258  -15.6807 C   0  0  0  0  0  0  0  0  0  0  0  0
   19.0563  -22.0597  -16.5248 C   0  0  0  0  0  0  0  0  0  0  0  0
   17.9061  -21.7396  -17.4546 C   0  0  0  0  0  0  0  0  0  0  0  0
   17.6108  -22.8602  -18.3203 N   0  0  0  0  0  0  0  0  0  0  0  0
   20.0266  -19.7045  -12.8910 C   0  0  0  0  0  0  0  0  0  0  0  0
   19.1908  -18.6704  -13.1757 O   0  0  0  0  0  0  0  0  0  0  0  0
   19.9216  -20.2425  -11.7545 O   0  0  0  0  0  0  0  0  0  0  0  0
  2  3  1  0
  2  1  1  0
  3  4  2  0
  6  5  1  0
  7  6  2  0
  8  6  1  0
  9  8  1  1
  9 11  1  0
 10  9  1  0
 10  3  1  0
 11 12  2  0
 11 13  1  0
 13 14  1  0
 14 15  1  1
 15 16  1  0
 16 17  1  0
 17 18  1  0
 19 18  1  0
 20 21  1  0
 20 14  1  0
 22 20  2  0
M  END
$$$$
