GNK.pdb
     RDKit          3D

 22 21  0  0  1  0  0  0  0  0999 V2000
   20.1778  -21.7372  -12.5934 N   0  0  0  0  0  0  0  0  0  0  0  0
   21.4944  -22.3477  -12.5407 C   0  0  0  0  0  0  0  0  0  0  0  0
   22.5601  -21.3150  -12.7833 C   0  0  0  0  0  0  0  0  0  0  0  0
   22.2959  -20.2000  -13.2681 O   0  0  0  0  0  0  0  0  0  0  0  0
   25.7426  -21.6856   -9.3271 N   0  0  0  0  0  0  0  0  0  0  0  0
   25.8409  -20.6889  -10.3478 C   0  0  0  0  0  0  0  0  0  0  0  0
   25.6222  -19.4997  -10.0346 O   0  0  0  0  0  0  0  0  0  0  0  0
   26.1911  -21.0774  -11.7174 C   0  0  0  0  0  0  0  0  0  0  0  0
   25.0500  -20.8365  -12.7052 C   0  0  2  0  0  0  0  0  0  0  0  0
   23.8940  -21.6492  -12.4393 N   0  0  0  0  0  0  0  0  0  0  0  0
   25.5581  -21.0311  -14.0745 C   0  0  0  0  0  0  0  0  0  0  0  0
   26.0314  -22.1553  -14.3543 O   0  0  0  0  0  0  0  0  0  0  0  0
   25.5267  -20.0113  -15.0555 N   0  0  0  0  0  0  0  0  0  0  0  0
   25.8124  -20.2165  -16.4585 C   0  0  1  0  0  0  0  0  0  0  0  0
   24.7530  -19.5259  -17.2341 C   0  0  0  0  0  0  0  0  0  0  0  0
   23.5566  -20.3345  -17.5954 C   0  0  0  0  0  0  0  0  0  0  0  0
   22.4763  -19.3370  -18.0459 C   0  0  0  0  0  0  0  0  0  0  0  0
   21.2317  -20.0773  -18.4849 C   0  0  0  0  0  0  0  0  0  0  0  0
   20.1879  -19.1540  -18.8728 N   0  0  0  0  0  0  0  0  0  0  0  0
   27.1883  -19.8397  -16.7947 C   0  0  0  0  0  0  0  0  0  0  0  0
   27.8676  -18.8399  -16.1720 O   0  0  0  0  0  0  0  0  0  0  0  0
   27.7879  -20.4704  -17.7084 O   0  0  0  0  0  0  0  0  0  0  0  0
  2  3  1  0
  2  1  1  0
  3  4  2  0
  6  5  1  0
  7  6  2  0
  8  6  1  0
  9  8  1  1
  9 11  1  0
 10  9  1  0
 10  3  1  0
 11 12  2  0
 11 13  1  0
 13 14  1  0
 14 15  1  6
 15 16  1  0
 16 17  1  0
 17 18  1  0
 19 18  1  0
 20 21  1  0
 20 14  1  0
 22 20  2  0
M  END
$$$$
