GNK.pdb
     RDKit          3D

 22 21  0  0  1  0  0  0  0  0999 V2000
   16.0848  -13.0549  -14.7242 N   0  0  0  0  0  0  0  0  0  0  0  0
   16.6308  -11.8391  -15.3011 C   0  0  0  0  0  0  0  0  0  0  0  0
   16.0846  -10.6317  -14.5905 C   0  0  0  0  0  0  0  0  0  0  0  0
   14.8710  -10.3573  -14.5997 O   0  0  0  0  0  0  0  0  0  0  0  0
   15.2551   -9.5077  -11.1073 N   0  0  0  0  0  0  0  0  0  0  0  0
   16.5352   -8.9371  -10.8240 C   0  0  0  0  0  0  0  0  0  0  0  0
   16.9356   -8.9434   -9.6409 O   0  0  0  0  0  0  0  0  0  0  0  0
   17.3378   -8.3667  -11.9103 C   0  0  0  0  0  0  0  0  0  0  0  0
   16.6820   -8.5440  -13.2794 C   0  0  2  0  0  0  0  0  0  0  0  0
   17.0019   -9.8017  -13.8985 N   0  0  0  0  0  0  0  0  0  0  0  0
   17.0477   -7.4000  -14.1329 C   0  0  0  0  0  0  0  0  0  0  0  0
   18.2467   -7.3046  -14.4782 O   0  0  0  0  0  0  0  0  0  0  0  0
   16.1076   -6.4329  -14.5621 N   0  0  0  0  0  0  0  0  0  0  0  0
   16.3977   -5.3684  -15.4974 C   0  0  1  0  0  0  0  0  0  0  0  0
   15.1133   -4.9559  -16.1146 C   0  0  0  0  0  0  0  0  0  0  0  0
   14.4898   -5.9186  -17.0633 C   0  0  0  0  0  0  0  0  0  0  0  0
   13.0314   -6.0957  -16.6088 C   0  0  0  0  0  0  0  0  0  0  0  0
   12.2918   -7.0039  -17.5670 C   0  0  0  0  0  0  0  0  0  0  0  0
   10.9251   -7.2077  -17.1392 N   0  0  0  0  0  0  0  0  0  0  0  0
   17.1731   -4.2922  -14.8740 C   0  0  0  0  0  0  0  0  0  0  0  0
   17.8985   -3.3830  -15.5782 O   0  0  0  0  0  0  0  0  0  0  0  0
   17.1748   -4.1908  -13.6163 O   0  0  0  0  0  0  0  0  0  0  0  0
  2  3  1  0
  2  1  1  0
  3  4  2  0
  6  5  1  0
  7  6  2  0
  8  6  1  0
  9  8  1  1
  9 11  1  0
 10  9  1  0
 10  3  1  0
 11 12  2  0
 11 13  1  0
 13 14  1  0
 14 15  1  1
 15 16  1  0
 16 17  1  0
 17 18  1  0
 19 18  1  0
 20 21  1  0
 20 14  1  0
 22 20  2  0
M  END
$$$$
