GNK.pdb
     RDKit          3D

 22 21  0  0  1  0  0  0  0  0999 V2000
   18.7276  -25.3328   -5.3574 N   0  0  0  0  0  0  0  0  0  0  0  0
   17.9435  -24.7983   -6.4567 C   0  0  0  0  0  0  0  0  0  0  0  0
   18.6259  -25.0728   -7.7682 C   0  0  0  0  0  0  0  0  0  0  0  0
   19.8656  -25.0910   -7.8723 O   0  0  0  0  0  0  0  0  0  0  0  0
   18.8962  -28.1960   -9.7480 N   0  0  0  0  0  0  0  0  0  0  0  0
   17.8046  -27.9470  -10.6375 C   0  0  0  0  0  0  0  0  0  0  0  0
   17.1683  -28.9265  -11.0799 O   0  0  0  0  0  0  0  0  0  0  0  0
   17.4605  -26.5699  -11.0047 C   0  0  0  0  0  0  0  0  0  0  0  0
   18.2845  -25.5354  -10.2388 C   0  0  2  0  0  0  0  0  0  0  0  0
   17.8080  -25.3149   -8.9002 N   0  0  0  0  0  0  0  0  0  0  0  0
   18.3272  -24.2881  -11.0218 C   0  0  0  0  0  0  0  0  0  0  0  0
   17.5813  -23.3543  -10.6508 O   0  0  0  0  0  0  0  0  0  0  0  0
   19.1651  -24.1200  -12.1501 N   0  0  0  0  0  0  0  0  0  0  0  0
   19.2954  -22.8878  -12.8963 C   0  0  1  0  0  0  0  0  0  0  0  0
   20.7438  -22.5879  -13.0108 C   0  0  0  0  0  0  0  0  0  0  0  0
   21.1122  -21.3533  -13.7563 C   0  0  0  0  0  0  0  0  0  0  0  0
   22.6489  -21.2970  -13.7738 C   0  0  0  0  0  0  0  0  0  0  0  0
   23.1202  -20.1521  -14.6438 C   0  0  0  0  0  0  0  0  0  0  0  0
   24.5648  -20.1013  -14.6977 N   0  0  0  0  0  0  0  0  0  0  0  0
   18.5589  -22.9376  -14.1625 C   0  0  0  0  0  0  0  0  0  0  0  0
   17.9914  -21.8482  -14.7456 O   0  0  0  0  0  0  0  0  0  0  0  0
   18.4391  -24.0448  -14.7557 O   0  0  0  0  0  0  0  0  0  0  0  0
  2  3  1  0
  2  1  1  0
  3  4  2  0
  6  5  1  0
  7  6  2  0
  8  6  1  0
  9  8  1  6
  9 11  1  0
 10  9  1  0
 10  3  1  0
 11 12  2  0
 11 13  1  0
 13 14  1  0
 14 15  1  6
 15 16  1  0
 16 17  1  0
 17 18  1  0
 19 18  1  0
 20 21  1  0
 20 14  1  0
 22 20  2  0
M  END
$$$$
