GNK.pdb
     RDKit          3D

 22 21  0  0  1  0  0  0  0  0999 V2000
   21.4140  -12.9150  -19.2067 N   0  0  0  0  0  0  0  0  0  0  0  0
   22.1766  -13.4584  -18.0967 C   0  0  0  0  0  0  0  0  0  0  0  0
   22.3574  -12.4174  -17.0268 C   0  0  0  0  0  0  0  0  0  0  0  0
   21.6009  -12.3503  -16.0412 O   0  0  0  0  0  0  0  0  0  0  0  0
   25.4896  -12.1700  -15.1180 N   0  0  0  0  0  0  0  0  0  0  0  0
   26.0487  -10.9685  -15.6553 C   0  0  0  0  0  0  0  0  0  0  0  0
   27.2817  -10.7958  -15.5573 O   0  0  0  0  0  0  0  0  0  0  0  0
   25.1770   -9.9814  -16.2998 C   0  0  0  0  0  0  0  0  0  0  0  0
   23.7074  -10.4007  -16.2886 C   0  0  2  0  0  0  0  0  0  0  0  0
   23.4289  -11.5009  -17.1716 N   0  0  0  0  0  0  0  0  0  0  0  0
   22.8754   -9.2238  -16.5941 C   0  0  0  0  0  0  0  0  0  0  0  0
   22.9036   -8.7929  -17.7687 O   0  0  0  0  0  0  0  0  0  0  0  0
   22.0669   -8.5844  -15.6241 N   0  0  0  0  0  0  0  0  0  0  0  0
   21.1438   -7.5079  -15.9090 C   0  0  1  0  0  0  0  0  0  0  0  0
   19.7740   -8.0769  -15.8807 C   0  0  0  0  0  0  0  0  0  0  0  0
   18.6528   -7.1287  -16.1246 C   0  0  0  0  0  0  0  0  0  0  0  0
   17.3586   -7.9561  -16.0514 C   0  0  0  0  0  0  0  0  0  0  0  0
   16.1737   -7.1107  -16.4650 C   0  0  0  0  0  0  0  0  0  0  0  0
   14.9441   -7.8693  -16.3932 N   0  0  0  0  0  0  0  0  0  0  0  0
   21.3662   -6.3538  -15.0333 C   0  0  0  0  0  0  0  0  0  0  0  0
   20.9991   -5.0846  -15.3543 O   0  0  0  0  0  0  0  0  0  0  0  0
   21.9260   -6.5338  -13.9169 O   0  0  0  0  0  0  0  0  0  0  0  0
  2  3  1  0
  2  1  1  0
  3  4  2  0
  6  5  1  0
  7  6  2  0
  8  6  1  0
  9  8  1  6
  9 11  1  0
 10  9  1  0
 10  3  1  0
 11 12  2  0
 11 13  1  0
 13 14  1  0
 14 15  1  1
 15 16  1  0
 16 17  1  0
 17 18  1  0
 19 18  1  0
 20 21  1  0
 20 14  1  0
 22 20  2  0
M  END
$$$$
