GNK.pdb
     RDKit          3D

 22 21  0  0  1  0  0  0  0  0999 V2000
   17.5960  -10.7224  -15.8596 N   0  0  0  0  0  0  0  0  0  0  0  0
   16.4973  -10.0303  -15.2093 C   0  0  0  0  0  0  0  0  0  0  0  0
   16.8756   -9.6523  -13.8040 C   0  0  0  0  0  0  0  0  0  0  0  0
   16.3548  -10.1977  -12.8143 O   0  0  0  0  0  0  0  0  0  0  0  0
   21.4893   -7.6976  -14.1090 N   0  0  0  0  0  0  0  0  0  0  0  0
   20.7428   -8.1331  -12.9697 C   0  0  0  0  0  0  0  0  0  0  0  0
   21.0820   -9.1989  -12.4138 O   0  0  0  0  0  0  0  0  0  0  0  0
   19.6142   -7.3321  -12.4858 C   0  0  0  0  0  0  0  0  0  0  0  0
   18.3256   -8.1454  -12.3682 C   0  0  2  0  0  0  0  0  0  0  0  0
   17.8567   -8.6436  -13.6329 N   0  0  0  0  0  0  0  0  0  0  0  0
   17.3080   -7.3269  -11.6860 C   0  0  0  0  0  0  0  0  0  0  0  0
   16.8909   -6.3131  -12.2896 O   0  0  0  0  0  0  0  0  0  0  0  0
   16.8021   -7.6460  -10.4031 N   0  0  0  0  0  0  0  0  0  0  0  0
   15.7841   -6.8851   -9.7125 C   0  0  1  0  0  0  0  0  0  0  0  0
   14.7773   -7.8484   -9.2031 C   0  0  0  0  0  0  0  0  0  0  0  0
   13.6329   -7.2767   -8.4420 C   0  0  0  0  0  0  0  0  0  0  0  0
   12.7186   -8.4582   -8.0772 C   0  0  0  0  0  0  0  0  0  0  0  0
   11.5350   -7.9730   -7.2688 C   0  0  0  0  0  0  0  0  0  0  0  0
   10.6701   -9.0732   -6.9027 N   0  0  0  0  0  0  0  0  0  0  0  0
   16.3626   -5.9868   -8.7093 C   0  0  0  0  0  0  0  0  0  0  0  0
   17.6459   -6.0777   -8.2694 O   0  0  0  0  0  0  0  0  0  0  0  0
   15.6424   -5.0734   -8.2203 O   0  0  0  0  0  0  0  0  0  0  0  0
  2  3  1  0
  2  1  1  0
  3  4  2  0
  6  5  1  0
  7  6  2  0
  8  6  1  0
  9  8  1  6
  9 11  1  0
 10  9  1  0
 10  3  1  0
 11 12  2  0
 11 13  1  0
 13 14  1  0
 14 15  1  1
 15 16  1  0
 16 17  1  0
 17 18  1  0
 19 18  1  0
 20 21  1  0
 20 14  1  0
 22 20  2  0
M  END
$$$$
