GNK.pdb
     RDKit          3D

 22 21  0  0  1  0  0  0  0  0999 V2000
   24.7859  -12.8370  -20.1284 N   0  0  0  0  0  0  0  0  0  0  0  0
   23.7563  -11.8134  -20.0944 C   0  0  0  0  0  0  0  0  0  0  0  0
   23.4542  -11.4221  -18.6743 C   0  0  0  0  0  0  0  0  0  0  0  0
   22.4690  -11.8746  -18.0637 O   0  0  0  0  0  0  0  0  0  0  0  0
   25.7514  -12.1756  -15.9914 N   0  0  0  0  0  0  0  0  0  0  0  0
   26.2677  -10.8841  -15.6597 C   0  0  0  0  0  0  0  0  0  0  0  0
   27.3591  -10.8219  -15.0555 O   0  0  0  0  0  0  0  0  0  0  0  0
   25.5179   -9.6799  -16.0303 C   0  0  0  0  0  0  0  0  0  0  0  0
   24.1838  -10.0034  -16.7021 C   0  0  2  0  0  0  0  0  0  0  0  0
   24.3348  -10.5111  -18.0389 N   0  0  0  0  0  0  0  0  0  0  0  0
   23.3281   -8.8047  -16.6605 C   0  0  0  0  0  0  0  0  0  0  0  0
   23.6952   -7.8165  -17.3348 O   0  0  0  0  0  0  0  0  0  0  0  0
   22.1353   -8.7408  -15.9011 N   0  0  0  0  0  0  0  0  0  0  0  0
   21.2529   -7.5955  -15.8583 C   0  0  1  0  0  0  0  0  0  0  0  0
   19.8633   -8.0993  -15.9849 C   0  0  0  0  0  0  0  0  0  0  0  0
   18.7804   -7.0780  -15.9772 C   0  0  0  0  0  0  0  0  0  0  0  0
   17.4580   -7.8438  -16.1496 C   0  0  0  0  0  0  0  0  0  0  0  0
   16.2929   -6.8782  -16.1641 C   0  0  0  0  0  0  0  0  0  0  0  0
   15.0518   -7.5661  -16.4453 N   0  0  0  0  0  0  0  0  0  0  0  0
   21.5140   -6.7503  -14.6897 C   0  0  0  0  0  0  0  0  0  0  0  0
   21.1630   -5.4388  -14.6168 O   0  0  0  0  0  0  0  0  0  0  0  0
   22.0936   -7.2549  -13.6889 O   0  0  0  0  0  0  0  0  0  0  0  0
  2  3  1  0
  2  1  1  0
  3  4  2  0
  6  5  1  0
  7  6  2  0
  8  6  1  0
  9  8  1  6
  9 11  1  0
 10  9  1  0
 10  3  1  0
 11 12  2  0
 11 13  1  0
 13 14  1  0
 14 15  1  1
 15 16  1  0
 16 17  1  0
 17 18  1  0
 19 18  1  0
 20 21  1  0
 20 14  1  0
 22 20  2  0
M  END
$$$$
