GNK.pdb
     RDKit          3D

 22 21  0  0  1  0  0  0  0  0999 V2000
   27.8876  -18.0807  -18.0441 N   0  0  0  0  0  0  0  0  0  0  0  0
   27.3155  -17.6877  -16.7685 C   0  0  0  0  0  0  0  0  0  0  0  0
   26.3712  -18.7464  -16.2701 C   0  0  0  0  0  0  0  0  0  0  0  0
   25.5943  -19.3462  -17.0349 O   0  0  0  0  0  0  0  0  0  0  0  0
   28.4728  -20.5500  -12.0234 N   0  0  0  0  0  0  0  0  0  0  0  0
   27.5037  -20.9680  -12.9882 C   0  0  0  0  0  0  0  0  0  0  0  0
   27.8716  -21.7410  -13.8977 O   0  0  0  0  0  0  0  0  0  0  0  0
   26.1215  -20.4889  -12.8906 C   0  0  0  0  0  0  0  0  0  0  0  0
   25.5631  -20.0311  -14.2376 C   0  0  2  0  0  0  0  0  0  0  0  0
   26.3897  -19.0489  -14.8855 N   0  0  0  0  0  0  0  0  0  0  0  0
   24.1846  -19.5491  -14.0412 C   0  0  0  0  0  0  0  0  0  0  0  0
   24.0397  -18.4591  -13.4438 O   0  0  0  0  0  0  0  0  0  0  0  0
   23.0510  -20.2637  -14.4967 N   0  0  0  0  0  0  0  0  0  0  0  0
   21.6901  -19.7816  -14.4088 C   0  0  1  0  0  0  0  0  0  0  0  0
   21.1786  -19.6375  -15.7939 C   0  0  0  0  0  0  0  0  0  0  0  0
   19.8106  -19.0703  -15.9440 C   0  0  0  0  0  0  0  0  0  0  0  0
   19.5121  -19.0457  -17.4524 C   0  0  0  0  0  0  0  0  0  0  0  0
   18.1934  -18.3508  -17.7130 C   0  0  0  0  0  0  0  0  0  0  0  0
   17.8788  -18.3465  -19.1249 N   0  0  0  0  0  0  0  0  0  0  0  0
   20.8748  -20.6119  -13.5178 C   0  0  0  0  0  0  0  0  0  0  0  0
   19.8601  -20.1245  -12.7553 O   0  0  0  0  0  0  0  0  0  0  0  0
   21.1152  -21.8485  -13.4464 O   0  0  0  0  0  0  0  0  0  0  0  0
  2  3  1  0
  2  1  1  0
  3  4  2  0
  6  5  1  0
  7  6  2  0
  8  6  1  0
  9  8  1  1
  9 11  1  0
 10  9  1  0
 10  3  1  0
 11 12  2  0
 11 13  1  0
 13 14  1  0
 14 15  1  6
 15 16  1  0
 16 17  1  0
 17 18  1  0
 19 18  1  0
 20 21  1  0
 20 14  1  0
 22 20  2  0
M  END
$$$$
