GNK.pdb
     RDKit          3D

 22 21  0  0  1  0  0  0  0  0999 V2000
   28.6446  -22.0767  -17.1995 N   0  0  0  0  0  0  0  0  0  0  0  0
   28.0576  -20.9943  -16.4295 C   0  0  0  0  0  0  0  0  0  0  0  0
   27.0289  -21.5306  -15.4729 C   0  0  0  0  0  0  0  0  0  0  0  0
   26.5964  -22.6942  -15.5580 O   0  0  0  0  0  0  0  0  0  0  0  0
   25.4918  -21.6884  -10.0051 N   0  0  0  0  0  0  0  0  0  0  0  0
   25.0317  -20.7822  -11.0112 C   0  0  0  0  0  0  0  0  0  0  0  0
   23.8517  -20.3781  -10.9467 O   0  0  0  0  0  0  0  0  0  0  0  0
   25.9402  -20.3532  -12.0790 C   0  0  0  0  0  0  0  0  0  0  0  0
   25.6324  -21.0259  -13.4163 C   0  0  2  0  0  0  0  0  0  0  0  0
   26.5580  -20.6635  -14.4553 N   0  0  0  0  0  0  0  0  0  0  0  0
   24.2390  -20.7258  -13.7894 C   0  0  0  0  0  0  0  0  0  0  0  0
   23.9895  -19.5635  -14.1804 O   0  0  0  0  0  0  0  0  0  0  0  0
   23.2031  -21.6879  -13.7206 N   0  0  0  0  0  0  0  0  0  0  0  0
   21.8251  -21.4337  -14.0791 C   0  0  1  0  0  0  0  0  0  0  0  0
   21.1759  -22.7473  -14.3109 C   0  0  0  0  0  0  0  0  0  0  0  0
   19.7744  -22.7194  -14.8118 C   0  0  0  0  0  0  0  0  0  0  0  0
   19.3761  -24.1815  -15.0736 C   0  0  0  0  0  0  0  0  0  0  0  0
   17.9349  -24.2571  -15.5289 C   0  0  0  0  0  0  0  0  0  0  0  0
   17.5684  -25.6144  -15.8693 N   0  0  0  0  0  0  0  0  0  0  0  0
   21.1604  -20.5642  -13.1043 C   0  0  0  0  0  0  0  0  0  0  0  0
   20.2533  -19.6099  -13.4436 O   0  0  0  0  0  0  0  0  0  0  0  0
   21.4339  -20.6991  -11.8799 O   0  0  0  0  0  0  0  0  0  0  0  0
  2  3  1  0
  2  1  1  0
  3  4  2  0
  6  5  1  0
  7  6  2  0
  8  6  1  0
  9  8  1  1
  9 11  1  0
 10  9  1  0
 10  3  1  0
 11 12  2  0
 11 13  1  0
 13 14  1  0
 14 15  1  1
 15 16  1  0
 16 17  1  0
 17 18  1  0
 19 18  1  0
 20 21  1  0
 20 14  1  0
 22 20  2  0
M  END
$$$$
