KIW.pdb
     RDKit          3D

 32 33  0  0  1  0  0  0  0  0999 V2000
    9.6836  -18.1941   16.6777 N   0  0  0  0  0  0  0  0  0  0  0  0
    9.5072  -18.7802   17.9930 C   0  0  1  0  0  0  0  0  0  0  0  0
   10.3397  -20.0515   18.1304 C   0  0  0  0  0  0  0  0  0  0  0  0
    9.9930  -21.0540   17.0868 C   0  0  0  0  0  0  0  0  0  0  0  0
    9.0226  -22.1059   17.5213 C   0  0  0  0  0  0  0  0  0  0  0  0
    9.3945  -23.5166   17.2305 C   0  0  0  0  0  0  0  0  0  0  0  0
    8.4518  -24.5157   17.6389 N   0  0  0  0  0  0  0  0  0  0  0  0
    9.8089  -17.8048   19.0711 C   0  0  0  0  0  0  0  0  0  0  0  0
   10.9828  -17.7826   19.4803 O   0  0  0  0  0  0  0  0  0  0  0  0
    7.5338  -12.3826   20.9605 C   0  0  0  0  0  0  0  0  0  0  0  0
    8.4320  -13.5585   21.2414 C   0  0  0  0  0  0  0  0  0  0  0  0
    8.1515  -14.7928   20.4970 C   0  0  2  0  0  0  0  0  0  0  0  0
    6.7196  -15.2256   20.8216 C   0  0  0  0  0  0  0  0  0  0  0  0
    9.0239  -15.9674   20.6669 C   0  0  2  0  0  0  0  0  0  0  0  0
    8.8474  -16.9463   19.6157 N   0  0  0  0  0  0  0  0  0  0  0  0
    9.1223  -16.5389   22.0321 C   0  0  0  0  0  0  0  0  0  0  0  0
    8.3725  -17.4014   22.5239 O   0  0  0  0  0  0  0  0  0  0  0  0
   10.1722  -16.0731   22.8741 N   0  0  0  0  0  0  0  0  0  0  0  0
   10.2274  -16.6490   24.2357 C   0  0  1  0  0  0  0  0  0  0  0  0
   11.2434  -15.7587   24.9480 C   0  0  0  0  0  0  0  0  0  0  0  0
   11.0811  -15.6481   26.3882 C   0  0  0  0  0  0  0  0  0  0  0  0
   11.4916  -16.6402   27.2818 C   0  0  0  0  0  0  0  0  0  0  0  0
   11.1683  -16.2621   28.5466 N   0  0  0  0  0  0  0  0  0  0  0  0
   10.5675  -15.0652   28.4920 C   0  0  0  0  0  0  0  0  0  0  0  0
   10.0599  -14.2378   29.4807 C   0  0  0  0  0  0  0  0  0  0  0  0
    9.4834  -13.0070   29.1938 C   0  0  0  0  0  0  0  0  0  0  0  0
    9.4288  -12.6204   27.8632 C   0  0  0  0  0  0  0  0  0  0  0  0
    9.9339  -13.4507   26.9032 C   0  0  0  0  0  0  0  0  0  0  0  0
   10.5119  -14.6844   27.1709 C   0  0  0  0  0  0  0  0  0  0  0  0
    8.9173  -16.4811   24.8438 C   0  0  0  0  0  0  0  0  0  0  0  0
    8.1854  -15.5242   24.5137 O   0  0  0  0  0  0  0  0  0  0  0  0
    8.3927  -17.3556   25.8104 O   0  0  0  0  0  0  0  0  0  0  0  0
  2  1  1  6
  2  3  1  0
  3  4  1  0
  5  4  1  0
  6  5  1  0
  7  6  1  0
  8  2  1  0
  9  8  2  0
 10 11  1  0
 11 12  1  0
 12 13  1  1
 12 14  1  0
 14 16  1  0
 14 15  1  6
 15  8  1  0
 16 17  2  0
 18 16  1  0
 18 19  1  0
 19 20  1  1
 20 21  1  0
 21 29  1  0
 22 21  2  0
 22 23  1  0
 23 24  1  0
 24 25  1  0
 25 26  2  0
 27 26  1  0
 28 27  2  0
 29 24  2  0
 29 28  1  0
 30 32  1  0
 30 19  1  0
 31 30  2  0
M  END
$$$$
