KIW.pdb
     RDKit          3D

 32 33  0  0  1  0  0  0  0  0999 V2000
    9.4171  -19.2531   19.2389 N   0  0  0  0  0  0  0  0  0  0  0  0
   10.7126  -18.6298   19.4328 C   0  0  1  0  0  0  0  0  0  0  0  0
   11.4746  -18.5530   18.1132 C   0  0  0  0  0  0  0  0  0  0  0  0
   12.7435  -19.3287   18.1624 C   0  0  0  0  0  0  0  0  0  0  0  0
   13.9333  -18.6276   17.5883 C   0  0  0  0  0  0  0  0  0  0  0  0
   15.2132  -19.3857   17.5787 C   0  0  0  0  0  0  0  0  0  0  0  0
   15.6478  -19.8758   16.3041 N   0  0  0  0  0  0  0  0  0  0  0  0
   10.5873  -17.2968   20.0751 C   0  0  0  0  0  0  0  0  0  0  0  0
   11.6475  -16.6750   20.2633 O   0  0  0  0  0  0  0  0  0  0  0  0
    7.1216  -12.3442   20.3517 C   0  0  0  0  0  0  0  0  0  0  0  0
    8.0914  -13.2384   21.0786 C   0  0  0  0  0  0  0  0  0  0  0  0
    8.1797  -14.6284   20.6133 C   0  0  2  0  0  0  0  0  0  0  0  0
    6.7836  -15.2487   20.7095 C   0  0  0  0  0  0  0  0  0  0  0  0
    9.1278  -15.5577   21.2514 C   0  0  2  0  0  0  0  0  0  0  0  0
    9.3595  -16.7455   20.4578 N   0  0  0  0  0  0  0  0  0  0  0  0
    8.9473  -15.8101   22.7019 C   0  0  0  0  0  0  0  0  0  0  0  0
    8.0583  -16.5082   23.2217 O   0  0  0  0  0  0  0  0  0  0  0  0
    9.8736  -15.2097   23.6018 N   0  0  0  0  0  0  0  0  0  0  0  0
    9.7262  -15.5644   25.0304 C   0  0  1  0  0  0  0  0  0  0  0  0
    8.2550  -15.9591   25.1399 C   0  0  0  0  0  0  0  0  0  0  0  0
    7.3855  -14.9757   25.7642 C   0  0  0  0  0  0  0  0  0  0  0  0
    6.0309  -15.2047   26.0172 C   0  0  0  0  0  0  0  0  0  0  0  0
    5.4856  -14.0881   26.5678 N   0  0  0  0  0  0  0  0  0  0  0  0
    6.4430  -13.1562   26.6756 C   0  0  0  0  0  0  0  0  0  0  0  0
    6.4254  -11.8637   27.1745 C   0  0  0  0  0  0  0  0  0  0  0  0
    7.5616  -11.0653   27.2052 C   0  0  0  0  0  0  0  0  0  0  0  0
    8.7389  -11.6082   26.7131 C   0  0  0  0  0  0  0  0  0  0  0  0
    8.7354  -12.8840   26.2248 C   0  0  0  0  0  0  0  0  0  0  0  0
    7.6098  -13.6958   26.1846 C   0  0  0  0  0  0  0  0  0  0  0  0
   10.5653  -16.7231   25.2905 C   0  0  0  0  0  0  0  0  0  0  0  0
   10.9062  -17.4788   24.3562 O   0  0  0  0  0  0  0  0  0  0  0  0
   11.0432  -17.0643   26.5670 O   0  0  0  0  0  0  0  0  0  0  0  0
  2  1  1  6
  2  3  1  0
  3  4  1  0
  5  4  1  0
  6  5  1  0
  7  6  1  0
  8  2  1  0
  9  8  2  0
 10 11  1  0
 11 12  1  0
 12 13  1  1
 12 14  1  0
 14 16  1  0
 14 15  1  6
 15  8  1  0
 16 17  2  0
 18 16  1  0
 18 19  1  0
 19 20  1  6
 20 21  1  0
 21 29  1  0
 22 21  2  0
 22 23  1  0
 23 24  1  0
 24 25  1  0
 25 26  2  0
 27 26  1  0
 28 27  2  0
 29 24  2  0
 29 28  1  0
 30 32  1  0
 30 19  1  0
 31 30  2  0
M  END
$$$$
