KIW.pdb
     RDKit          3D

 32 33  0  0  1  0  0  0  0  0999 V2000
    9.7474  -18.9050   18.0931 N   0  0  0  0  0  0  0  0  0  0  0  0
    8.8984  -18.5596   19.2175 C   0  0  1  0  0  0  0  0  0  0  0  0
    8.7315  -19.7546   20.1514 C   0  0  0  0  0  0  0  0  0  0  0  0
    8.9473  -21.0444   19.4414 C   0  0  0  0  0  0  0  0  0  0  0  0
    8.5764  -22.2640   20.2237 C   0  0  0  0  0  0  0  0  0  0  0  0
    7.3606  -22.1654   21.0752 C   0  0  0  0  0  0  0  0  0  0  0  0
    6.9423  -23.3741   21.7217 N   0  0  0  0  0  0  0  0  0  0  0  0
    9.4046  -17.3639   19.9379 C   0  0  0  0  0  0  0  0  0  0  0  0
   10.6358  -17.1907   19.9192 O   0  0  0  0  0  0  0  0  0  0  0  0
    6.9142  -12.3916   19.4988 C   0  0  0  0  0  0  0  0  0  0  0  0
    7.9978  -13.4138   19.7207 C   0  0  0  0  0  0  0  0  0  0  0  0
    7.9612  -14.1450   20.9936 C   0  0  2  0  0  0  0  0  0  0  0  0
    8.0840  -13.1251   22.1284 C   0  0  0  0  0  0  0  0  0  0  0  0
    8.9339  -15.2208   21.2509 C   0  0  2  0  0  0  0  0  0  0  0  0
    8.5680  -16.4649   20.6086 N   0  0  0  0  0  0  0  0  0  0  0  0
    9.4219  -15.3658   22.6441 C   0  0  0  0  0  0  0  0  0  0  0  0
    9.9638  -14.4799   23.3293 O   0  0  0  0  0  0  0  0  0  0  0  0
    9.2585  -16.6307   23.2778 N   0  0  0  0  0  0  0  0  0  0  0  0
    9.8138  -16.7586   24.6431 C   0  0  1  0  0  0  0  0  0  0  0  0
    9.5728  -15.3765   25.2464 C   0  0  0  0  0  0  0  0  0  0  0  0
    8.1968  -15.0807   25.6094 C   0  0  0  0  0  0  0  0  0  0  0  0
    7.1605  -16.0111   25.4990 C   0  0  0  0  0  0  0  0  0  0  0  0
    5.9934  -15.4247   25.8748 N   0  0  0  0  0  0  0  0  0  0  0  0
    6.2478  -14.1551   26.2214 C   0  0  0  0  0  0  0  0  0  0  0  0
    5.4272  -13.1394   26.6846 C   0  0  0  0  0  0  0  0  0  0  0  0
    5.9159  -11.8793   27.0052 C   0  0  0  0  0  0  0  0  0  0  0  0
    7.2761  -11.6609   26.8462 C   0  0  0  0  0  0  0  0  0  0  0  0
    8.0682  -12.6749   26.3875 C   0  0  0  0  0  0  0  0  0  0  0  0
    7.5973  -13.9395   26.0607 C   0  0  0  0  0  0  0  0  0  0  0  0
    9.0222  -17.7489   25.3550 C   0  0  0  0  0  0  0  0  0  0  0  0
    9.2744  -18.0208   26.5478 O   0  0  0  0  0  0  0  0  0  0  0  0
    7.9481  -18.4458   24.7762 O   0  0  0  0  0  0  0  0  0  0  0  0
  2  1  1  6
  2  3  1  0
  3  4  1  0
  5  4  1  0
  6  5  1  0
  7  6  1  0
  8  2  1  0
  9  8  2  0
 10 11  1  0
 11 12  1  0
 12 13  1  1
 12 14  1  0
 14 16  1  0
 14 15  1  1
 15  8  1  0
 16 17  2  0
 18 16  1  0
 18 19  1  0
 19 20  1  1
 20 21  1  0
 21 29  1  0
 22 21  2  0
 22 23  1  0
 23 24  1  0
 24 25  1  0
 25 26  2  0
 27 26  1  0
 28 27  2  0
 29 24  2  0
 29 28  1  0
 30 32  1  0
 30 19  1  0
 31 30  2  0
M  END
$$$$
