KIW.pdb
     RDKit          3D

 32 33  0  0  1  0  0  0  0  0999 V2000
    8.2803  -19.3927   19.0191 N   0  0  0  0  0  0  0  0  0  0  0  0
    8.8228  -19.1821   20.3480 C   0  0  1  0  0  0  0  0  0  0  0  0
    9.8695  -20.2429   20.6750 C   0  0  0  0  0  0  0  0  0  0  0  0
   10.0523  -21.2026   19.5526 C   0  0  0  0  0  0  0  0  0  0  0  0
    9.8796  -22.6421   19.9199 C   0  0  0  0  0  0  0  0  0  0  0  0
   10.1846  -23.6414   18.8609 C   0  0  0  0  0  0  0  0  0  0  0  0
   11.5711  -23.9370   18.6515 N   0  0  0  0  0  0  0  0  0  0  0  0
    9.3627  -17.8080   20.5067 C   0  0  0  0  0  0  0  0  0  0  0  0
   10.5453  -17.6383   20.1621 O   0  0  0  0  0  0  0  0  0  0  0  0
    7.3403  -11.9884   20.4619 C   0  0  0  0  0  0  0  0  0  0  0  0
    8.4141  -12.9571   20.8824 C   0  0  0  0  0  0  0  0  0  0  0  0
    8.0635  -14.3827   20.8487 C   0  0  2  0  0  0  0  0  0  0  0  0
    6.7975  -14.5781   21.6866 C   0  0  0  0  0  0  0  0  0  0  0  0
    9.0465  -15.3913   21.2802 C   0  0  2  0  0  0  0  0  0  0  0  0
    8.6074  -16.7440   21.0124 N   0  0  0  0  0  0  0  0  0  0  0  0
    9.6673  -15.1965   22.6132 C   0  0  0  0  0  0  0  0  0  0  0  0
   10.4013  -14.2506   22.9513 O   0  0  0  0  0  0  0  0  0  0  0  0
    9.4057  -16.1717   23.6176 N   0  0  0  0  0  0  0  0  0  0  0  0
   10.0024  -15.9214   24.9480 C   0  0  1  0  0  0  0  0  0  0  0  0
    8.9199  -16.4054   25.9104 C   0  0  0  0  0  0  0  0  0  0  0  0
    7.7204  -15.5865   25.9697 C   0  0  0  0  0  0  0  0  0  0  0  0
    6.4487  -16.0698   25.6524 C   0  0  0  0  0  0  0  0  0  0  0  0
    5.5470  -15.0592   25.7654 N   0  0  0  0  0  0  0  0  0  0  0  0
    6.1971  -13.9497   26.1438 C   0  0  0  0  0  0  0  0  0  0  0  0
    5.7562  -12.6637   26.4108 C   0  0  0  0  0  0  0  0  0  0  0  0
    6.6194  -11.6526   26.8137 C   0  0  0  0  0  0  0  0  0  0  0  0
    7.9624  -11.9721   26.9445 C   0  0  0  0  0  0  0  0  0  0  0  0
    8.3773  -13.2456   26.6757 C   0  0  0  0  0  0  0  0  0  0  0  0
    7.5298  -14.2679   26.2706 C   0  0  0  0  0  0  0  0  0  0  0  0
   11.1813  -16.7634   25.0729 C   0  0  0  0  0  0  0  0  0  0  0  0
   11.4239  -17.6417   24.2185 O   0  0  0  0  0  0  0  0  0  0  0  0
   12.1065  -16.6521   26.1245 O   0  0  0  0  0  0  0  0  0  0  0  0
  2  1  1  6
  2  3  1  0
  3  4  1  0
  5  4  1  0
  6  5  1  0
  7  6  1  0
  8  2  1  0
  9  8  2  0
 10 11  1  0
 11 12  1  0
 12 13  1  1
 12 14  1  0
 14 16  1  0
 14 15  1  1
 15  8  1  0
 16 17  2  0
 18 16  1  0
 18 19  1  0
 19 20  1  1
 20 21  1  0
 21 29  1  0
 22 21  2  0
 22 23  1  0
 23 24  1  0
 24 25  1  0
 25 26  2  0
 27 26  1  0
 28 27  2  0
 29 24  2  0
 29 28  1  0
 30 32  1  0
 30 19  1  0
 31 30  2  0
M  END
$$$$
