KIW.pdb
     RDKit          3D

 32 33  0  0  1  0  0  0  0  0999 V2000
    9.4174  -19.0584   18.5843 N   0  0  0  0  0  0  0  0  0  0  0  0
    8.7833  -18.6253   19.8151 C   0  0  1  0  0  0  0  0  0  0  0  0
    8.8851  -19.7108   20.8824 C   0  0  0  0  0  0  0  0  0  0  0  0
    8.5194  -21.0494   20.3452 C   0  0  0  0  0  0  0  0  0  0  0  0
    7.1342  -21.5050   20.6779 C   0  0  0  0  0  0  0  0  0  0  0  0
    6.7782  -22.8955   20.2872 C   0  0  0  0  0  0  0  0  0  0  0  0
    7.5173  -23.9414   20.9303 N   0  0  0  0  0  0  0  0  0  0  0  0
    9.3373  -17.3320   20.2898 C   0  0  0  0  0  0  0  0  0  0  0  0
   10.5696  -17.1943   20.1975 O   0  0  0  0  0  0  0  0  0  0  0  0
    6.8560  -12.4263   19.3994 C   0  0  0  0  0  0  0  0  0  0  0  0
    7.8810  -13.5009   19.6504 C   0  0  0  0  0  0  0  0  0  0  0  0
    8.0450  -13.9411   21.0416 C   0  0  2  0  0  0  0  0  0  0  0  0
    8.4553  -12.7257   21.8768 C   0  0  0  0  0  0  0  0  0  0  0  0
    8.9750  -15.0381   21.3601 C   0  0  2  0  0  0  0  0  0  0  0  0
    8.5425  -16.3075   20.8161 N   0  0  0  0  0  0  0  0  0  0  0  0
    9.4838  -15.1044   22.7518 C   0  0  0  0  0  0  0  0  0  0  0  0
   10.1295  -14.2193   23.3415 O   0  0  0  0  0  0  0  0  0  0  0  0
    9.2130  -16.2832   23.5036 N   0  0  0  0  0  0  0  0  0  0  0  0
    9.6740  -16.2867   24.9093 C   0  0  1  0  0  0  0  0  0  0  0  0
    8.4386  -16.7499   25.6784 C   0  0  0  0  0  0  0  0  0  0  0  0
    7.4344  -15.7290   25.9277 C   0  0  0  0  0  0  0  0  0  0  0  0
    6.0622  -15.9621   25.8094 C   0  0  0  0  0  0  0  0  0  0  0  0
    5.3906  -14.8087   26.0663 N   0  0  0  0  0  0  0  0  0  0  0  0
    6.2844  -13.8494   26.3447 C   0  0  0  0  0  0  0  0  0  0  0  0
    6.1347  -12.5143   26.6835 C   0  0  0  0  0  0  0  0  0  0  0  0
    7.2209  -11.6912   26.9524 C   0  0  0  0  0  0  0  0  0  0  0  0
    8.4857  -12.2538   26.8712 C   0  0  0  0  0  0  0  0  0  0  0  0
    8.6123  -13.5718   26.5348 C   0  0  0  0  0  0  0  0  0  0  0  0
    7.5389  -14.4087   26.2612 C   0  0  0  0  0  0  0  0  0  0  0  0
   10.7279  -17.2812   25.0300 C   0  0  0  0  0  0  0  0  0  0  0  0
   10.9597  -18.0731   24.0922 O   0  0  0  0  0  0  0  0  0  0  0  0
   11.5398  -17.4173   26.1686 O   0  0  0  0  0  0  0  0  0  0  0  0
  2  1  1  6
  2  3  1  0
  3  4  1  0
  5  4  1  0
  6  5  1  0
  7  6  1  0
  8  2  1  0
  9  8  2  0
 10 11  1  0
 11 12  1  0
 12 13  1  1
 12 14  1  0
 14 16  1  0
 14 15  1  1
 15  8  1  0
 16 17  2  0
 18 16  1  0
 18 19  1  0
 19 20  1  1
 20 21  1  0
 21 29  1  0
 22 21  2  0
 22 23  1  0
 23 24  1  0
 24 25  1  0
 25 26  2  0
 27 26  1  0
 28 27  2  0
 29 24  2  0
 29 28  1  0
 30 32  1  0
 30 19  1  0
 31 30  2  0
M  END
$$$$
