KIW.pdb
     RDKit          3D

 32 33  0  0  1  0  0  0  0  0999 V2000
    6.5736  -17.0187   20.7597 N   0  0  0  0  0  0  0  0  0  0  0  0
    7.9305  -16.5391   20.9422 C   0  0  1  0  0  0  0  0  0  0  0  0
    7.9670  -15.0138   20.9301 C   0  0  0  0  0  0  0  0  0  0  0  0
    7.4309  -14.4588   19.6578 C   0  0  0  0  0  0  0  0  0  0  0  0
    7.4474  -12.9661   19.5651 C   0  0  0  0  0  0  0  0  0  0  0  0
    8.7538  -12.3329   19.2405 C   0  0  0  0  0  0  0  0  0  0  0  0
    8.7554  -10.9033   19.1400 N   0  0  0  0  0  0  0  0  0  0  0  0
    8.5460  -17.0953   22.1737 C   0  0  0  0  0  0  0  0  0  0  0  0
    7.7593  -17.4824   23.0554 O   0  0  0  0  0  0  0  0  0  0  0  0
   12.4014  -19.4414   20.9930 C   0  0  0  0  0  0  0  0  0  0  0  0
   11.8847  -19.5531   22.4033 C   0  0  0  0  0  0  0  0  0  0  0  0
   11.9021  -18.3255   23.2090 C   0  0  2  0  0  0  0  0  0  0  0  0
   12.6207  -18.6339   24.5249 C   0  0  0  0  0  0  0  0  0  0  0  0
   10.6379  -17.6448   23.5378 C   0  0  2  0  0  0  0  0  0  0  0  0
    9.9295  -17.1912   22.3601 N   0  0  0  0  0  0  0  0  0  0  0  0
   10.6720  -16.6667   24.6523 C   0  0  0  0  0  0  0  0  0  0  0  0
   11.0844  -15.4945   24.5895 O   0  0  0  0  0  0  0  0  0  0  0  0
   10.1853  -17.0884   25.9226 N   0  0  0  0  0  0  0  0  0  0  0  0
   10.2989  -16.1113   27.0275 C   0  0  1  0  0  0  0  0  0  0  0  0
    8.9009  -16.1187   27.6422 C   0  0  0  0  0  0  0  0  0  0  0  0
    7.8725  -15.4385   26.8724 C   0  0  0  0  0  0  0  0  0  0  0  0
    6.8052  -16.1054   26.2662 C   0  0  0  0  0  0  0  0  0  0  0  0
    6.0430  -15.2052   25.5910 N   0  0  0  0  0  0  0  0  0  0  0  0
    6.5850  -13.9889   25.7452 C   0  0  0  0  0  0  0  0  0  0  0  0
    6.2035  -12.7397   25.2829 C   0  0  0  0  0  0  0  0  0  0  0  0
    6.9184  -11.5875   25.5843 C   0  0  0  0  0  0  0  0  0  0  0  0
    8.0477  -11.7241   26.3775 C   0  0  0  0  0  0  0  0  0  0  0  0
    8.4076  -12.9644   26.8226 C   0  0  0  0  0  0  0  0  0  0  0  0
    7.7067  -14.1267   26.5302 C   0  0  0  0  0  0  0  0  0  0  0  0
   11.2589  -16.6332   27.9868 C   0  0  0  0  0  0  0  0  0  0  0  0
   11.6959  -17.7978   27.8734 O   0  0  0  0  0  0  0  0  0  0  0  0
   11.7538  -15.8904   29.0719 O   0  0  0  0  0  0  0  0  0  0  0  0
  2  1  1  1
  2  3  1  0
  3  4  1  0
  5  4  1  0
  6  5  1  0
  7  6  1  0
  8  2  1  0
  9  8  2  0
 10 11  1  0
 11 12  1  0
 12 13  1  1
 12 14  1  0
 14 16  1  0
 14 15  1  6
 15  8  1  0
 16 17  2  0
 18 16  1  0
 18 19  1  0
 19 20  1  1
 20 21  1  0
 21 29  1  0
 22 21  2  0
 22 23  1  0
 23 24  1  0
 24 25  1  0
 25 26  2  0
 27 26  1  0
 28 27  2  0
 29 24  2  0
 29 28  1  0
 30 32  1  0
 30 19  1  0
 31 30  2  0
M  END
$$$$
