KIW.pdb
     RDKit          3D

 32 33  0  0  1  0  0  0  0  0999 V2000
    6.7441  -18.9197   18.7310 N   0  0  0  0  0  0  0  0  0  0  0  0
    7.5329  -19.1623   19.9240 C   0  0  1  0  0  0  0  0  0  0  0  0
    8.3389  -20.4500   19.7822 C   0  0  0  0  0  0  0  0  0  0  0  0
    7.5502  -21.5250   19.1215 C   0  0  0  0  0  0  0  0  0  0  0  0
    8.2432  -22.8470   19.0259 C   0  0  0  0  0  0  0  0  0  0  0  0
    8.7151  -23.4459   20.3032 C   0  0  0  0  0  0  0  0  0  0  0  0
    9.3640  -24.7197   20.2021 N   0  0  0  0  0  0  0  0  0  0  0  0
    8.4005  -18.0024   20.2510 C   0  0  0  0  0  0  0  0  0  0  0  0
    9.5647  -18.0464   19.8164 O   0  0  0  0  0  0  0  0  0  0  0  0
    6.7097  -12.9213   19.4696 C   0  0  0  0  0  0  0  0  0  0  0  0
    7.6168  -14.1076   19.6652 C   0  0  0  0  0  0  0  0  0  0  0  0
    7.9228  -14.4797   21.0523 C   0  0  2  0  0  0  0  0  0  0  0  0
    8.6587  -13.3069   21.7050 C   0  0  0  0  0  0  0  0  0  0  0  0
    8.6937  -15.7035   21.3314 C   0  0  2  0  0  0  0  0  0  0  0  0
    7.9609  -16.9076   21.0034 N   0  0  0  0  0  0  0  0  0  0  0  0
    9.4238  -15.7576   22.6214 C   0  0  0  0  0  0  0  0  0  0  0  0
   10.4727  -15.1486   22.8987 O   0  0  0  0  0  0  0  0  0  0  0  0
    8.8857  -16.5746   23.6565 N   0  0  0  0  0  0  0  0  0  0  0  0
    9.6627  -16.6393   24.9138 C   0  0  1  0  0  0  0  0  0  0  0  0
    9.5740  -15.2122   25.4502 C   0  0  0  0  0  0  0  0  0  0  0  0
    8.2290  -14.6939   25.6375 C   0  0  0  0  0  0  0  0  0  0  0  0
    7.0792  -15.4580   25.4243 C   0  0  0  0  0  0  0  0  0  0  0  0
    5.9833  -14.6844   25.6429 N   0  0  0  0  0  0  0  0  0  0  0  0
    6.3924  -13.4556   25.9882 C   0  0  0  0  0  0  0  0  0  0  0  0
    5.6937  -12.3076   26.3254 C   0  0  0  0  0  0  0  0  0  0  0  0
    6.3342  -11.1252   26.6734 C   0  0  0  0  0  0  0  0  0  0  0  0
    7.7209  -11.1248   26.6748 C   0  0  0  0  0  0  0  0  0  0  0  0
    8.3914  -12.2666   26.3386 C   0  0  0  0  0  0  0  0  0  0  0  0
    7.7684  -13.4564   25.9866 C   0  0  0  0  0  0  0  0  0  0  0  0
    8.9733  -17.5462   25.8173 C   0  0  0  0  0  0  0  0  0  0  0  0
    7.8640  -18.0277   25.5043 O   0  0  0  0  0  0  0  0  0  0  0  0
    9.4881  -17.9395   27.0641 O   0  0  0  0  0  0  0  0  0  0  0  0
  2  1  1  6
  2  3  1  0
  3  4  1  0
  5  4  1  0
  6  5  1  0
  7  6  1  0
  8  2  1  0
  9  8  2  0
 10 11  1  0
 11 12  1  0
 12 13  1  6
 12 14  1  0
 14 16  1  0
 14 15  1  1
 15  8  1  0
 16 17  2  0
 18 16  1  0
 18 19  1  0
 19 20  1  1
 20 21  1  0
 21 29  1  0
 22 21  2  0
 22 23  1  0
 23 24  1  0
 24 25  1  0
 25 26  2  0
 27 26  1  0
 28 27  2  0
 29 24  2  0
 29 28  1  0
 30 32  1  0
 30 19  1  0
 31 30  2  0
M  END
$$$$
