KIW.pdb
     RDKit          3D

 32 33  0  0  1  0  0  0  0  0999 V2000
    8.1951  -19.1535   20.1352 N   0  0  0  0  0  0  0  0  0  0  0  0
    9.5334  -18.7247   19.7754 C   0  0  1  0  0  0  0  0  0  0  0  0
    9.7245  -18.7740   18.2625 C   0  0  0  0  0  0  0  0  0  0  0  0
    9.7046  -20.1704   17.7487 C   0  0  0  0  0  0  0  0  0  0  0  0
   10.0136  -20.3104   16.2920 C   0  0  0  0  0  0  0  0  0  0  0  0
    9.9078  -21.6782   15.7168 C   0  0  0  0  0  0  0  0  0  0  0  0
   10.7653  -22.6730   16.2903 N   0  0  0  0  0  0  0  0  0  0  0  0
    9.8438  -17.3812   20.3265 C   0  0  0  0  0  0  0  0  0  0  0  0
   10.9234  -16.8768   19.9712 O   0  0  0  0  0  0  0  0  0  0  0  0
    6.6193  -13.3228   19.5895 C   0  0  0  0  0  0  0  0  0  0  0  0
    7.8381  -14.1434   19.9206 C   0  0  0  0  0  0  0  0  0  0  0  0
    8.0516  -14.4610   21.3383 C   0  0  2  0  0  0  0  0  0  0  0  0
    8.2359  -13.1435   22.0954 C   0  0  0  0  0  0  0  0  0  0  0  0
    9.1489  -15.3613   21.7321 C   0  0  2  0  0  0  0  0  0  0  0  0
    8.9894  -16.6969   21.1981 N   0  0  0  0  0  0  0  0  0  0  0  0
    9.5828  -15.3112   23.1496 C   0  0  0  0  0  0  0  0  0  0  0  0
   10.1286  -14.3482   23.7178 O   0  0  0  0  0  0  0  0  0  0  0  0
    9.3567  -16.4634   23.9556 N   0  0  0  0  0  0  0  0  0  0  0  0
    9.8604  -16.4026   25.3452 C   0  0  1  0  0  0  0  0  0  0  0  0
    8.6092  -16.6676   26.1797 C   0  0  0  0  0  0  0  0  0  0  0  0
    7.5616  -15.6652   26.0768 C   0  0  0  0  0  0  0  0  0  0  0  0
    6.2888  -15.9393   25.5704 C   0  0  0  0  0  0  0  0  0  0  0  0
    5.5549  -14.7954   25.5669 N   0  0  0  0  0  0  0  0  0  0  0  0
    6.3128  -13.8025   26.0532 C   0  0  0  0  0  0  0  0  0  0  0  0
    6.0506  -12.4599   26.2734 C   0  0  0  0  0  0  0  0  0  0  0  0
    6.9971  -11.5985   26.8132 C   0  0  0  0  0  0  0  0  0  0  0  0
    8.2375  -12.1297   27.1330 C   0  0  0  0  0  0  0  0  0  0  0  0
    8.4767  -13.4556   26.9075 C   0  0  0  0  0  0  0  0  0  0  0  0
    7.5439  -14.3308   26.3675 C   0  0  0  0  0  0  0  0  0  0  0  0
   10.8080  -17.4910   25.5235 C   0  0  0  0  0  0  0  0  0  0  0  0
   10.9896  -18.3262   24.6126 O   0  0  0  0  0  0  0  0  0  0  0  0
   11.5680  -17.6748   26.6909 O   0  0  0  0  0  0  0  0  0  0  0  0
  2  1  1  6
  2  3  1  0
  3  4  1  0
  5  4  1  0
  6  5  1  0
  7  6  1  0
  8  2  1  0
  9  8  2  0
 10 11  1  0
 11 12  1  0
 12 13  1  1
 12 14  1  0
 14 16  1  0
 14 15  1  1
 15  8  1  0
 16 17  2  0
 18 16  1  0
 18 19  1  0
 19 20  1  1
 20 21  1  0
 21 29  1  0
 22 21  2  0
 22 23  1  0
 23 24  1  0
 24 25  1  0
 25 26  2  0
 27 26  1  0
 28 27  2  0
 29 24  2  0
 29 28  1  0
 30 32  1  0
 30 19  1  0
 31 30  2  0
M  END
$$$$
