KIW.pdb
     RDKit          3D

 32 33  0  0  1  0  0  0  0  0999 V2000
    8.1276  -19.2503   20.2547 N   0  0  0  0  0  0  0  0  0  0  0  0
    9.4681  -18.9170   19.8113 C   0  0  1  0  0  0  0  0  0  0  0  0
    9.6213  -19.1841   18.3169 C   0  0  0  0  0  0  0  0  0  0  0  0
   10.1576  -20.5465   18.0517 C   0  0  0  0  0  0  0  0  0  0  0  0
   10.3438  -20.8800   16.6056 C   0  0  0  0  0  0  0  0  0  0  0  0
   10.3160  -22.3231   16.2456 C   0  0  0  0  0  0  0  0  0  0  0  0
    9.2988  -23.1120   16.8753 N   0  0  0  0  0  0  0  0  0  0  0  0
    9.8279  -17.5195   20.1610 C   0  0  0  0  0  0  0  0  0  0  0  0
   10.9394  -17.1231   19.7692 O   0  0  0  0  0  0  0  0  0  0  0  0
    7.3196  -12.0344   20.4419 C   0  0  0  0  0  0  0  0  0  0  0  0
    8.4285  -12.9248   20.9378 C   0  0  0  0  0  0  0  0  0  0  0  0
    8.2079  -14.3725   20.8291 C   0  0  2  0  0  0  0  0  0  0  0  0
    6.9021  -14.7074   21.5542 C   0  0  0  0  0  0  0  0  0  0  0  0
    9.2386  -15.3104   21.3062 C   0  0  2  0  0  0  0  0  0  0  0  0
    8.9847  -16.6728   20.8891 N   0  0  0  0  0  0  0  0  0  0  0  0
    9.6749  -15.1680   22.7166 C   0  0  0  0  0  0  0  0  0  0  0  0
   10.1980  -14.1607   23.2263 O   0  0  0  0  0  0  0  0  0  0  0  0
    9.4799  -16.2772   23.5884 N   0  0  0  0  0  0  0  0  0  0  0  0
   10.0178  -16.1381   24.9595 C   0  0  1  0  0  0  0  0  0  0  0  0
    8.8393  -16.5522   25.8381 C   0  0  0  0  0  0  0  0  0  0  0  0
    7.7087  -15.6387   25.8441 C   0  0  0  0  0  0  0  0  0  0  0  0
    6.4178  -16.0182   25.4686 C   0  0  0  0  0  0  0  0  0  0  0  0
    5.5967  -14.9377   25.5420 N   0  0  0  0  0  0  0  0  0  0  0  0
    6.3166  -13.8837   25.9512 C   0  0  0  0  0  0  0  0  0  0  0  0
    5.9697  -12.5655   26.1999 C   0  0  0  0  0  0  0  0  0  0  0  0
    6.8927  -11.6268   26.6430 C   0  0  0  0  0  0  0  0  0  0  0  0
    8.1982  -12.0537   26.8344 C   0  0  0  0  0  0  0  0  0  0  0  0
    8.5204  -13.3572   26.5828 C   0  0  0  0  0  0  0  0  0  0  0  0
    7.6121  -14.3085   26.1381 C   0  0  0  0  0  0  0  0  0  0  0  0
   11.1025  -17.0944   25.1117 C   0  0  0  0  0  0  0  0  0  0  0  0
   11.3756  -17.8919   24.1899 O   0  0  0  0  0  0  0  0  0  0  0  0
   11.9004  -17.1859   26.2646 O   0  0  0  0  0  0  0  0  0  0  0  0
  2  1  1  6
  2  3  1  0
  3  4  1  0
  5  4  1  0
  6  5  1  0
  7  6  1  0
  8  2  1  0
  9  8  2  0
 10 11  1  0
 11 12  1  0
 12 13  1  1
 12 14  1  0
 14 16  1  0
 14 15  1  1
 15  8  1  0
 16 17  2  0
 18 16  1  0
 18 19  1  0
 19 20  1  1
 20 21  1  0
 21 29  1  0
 22 21  2  0
 22 23  1  0
 23 24  1  0
 24 25  1  0
 25 26  2  0
 27 26  1  0
 28 27  2  0
 29 24  2  0
 29 28  1  0
 30 32  1  0
 30 19  1  0
 31 30  2  0
M  END
$$$$
