KIW.pdb
     RDKit          3D

 32 33  0  0  1  0  0  0  0  0999 V2000
    9.5525  -17.4282   18.7898 N   0  0  0  0  0  0  0  0  0  0  0  0
    9.1890  -17.9376   20.0986 C   0  0  1  0  0  0  0  0  0  0  0  0
    9.9112  -19.2511   20.3832 C   0  0  0  0  0  0  0  0  0  0  0  0
    9.5799  -20.2932   19.3740 C   0  0  0  0  0  0  0  0  0  0  0  0
    9.1345  -21.6026   19.9432 C   0  0  0  0  0  0  0  0  0  0  0  0
    8.9422  -22.7180   18.9779 C   0  0  0  0  0  0  0  0  0  0  0  0
   10.0244  -22.9622   18.0707 N   0  0  0  0  0  0  0  0  0  0  0  0
    9.4335  -16.9323   21.1638 C   0  0  0  0  0  0  0  0  0  0  0  0
   10.5280  -16.3435   21.1238 O   0  0  0  0  0  0  0  0  0  0  0  0
    6.3295  -14.0146   25.7386 C   0  0  0  0  0  0  0  0  0  0  0  0
    7.6243  -14.5772   25.2139 C   0  0  0  0  0  0  0  0  0  0  0  0
    7.5267  -15.5017   24.0772 C   0  0  2  0  0  0  0  0  0  0  0  0
    6.6610  -16.6889   24.5062 C   0  0  0  0  0  0  0  0  0  0  0  0
    8.7516  -16.0400   23.4610 C   0  0  2  0  0  0  0  0  0  0  0  0
    8.5039  -16.6424   22.1687 N   0  0  0  0  0  0  0  0  0  0  0  0
    9.6600  -16.8163   24.3398 C   0  0  0  0  0  0  0  0  0  0  0  0
    9.7397  -18.0563   24.4031 O   0  0  0  0  0  0  0  0  0  0  0  0
   10.5369  -16.0913   25.1965 N   0  0  0  0  0  0  0  0  0  0  0  0
   11.5458  -16.8869   25.9298 C   0  0  1  0  0  0  0  0  0  0  0  0
   12.1999  -15.8564   26.8477 C   0  0  0  0  0  0  0  0  0  0  0  0
   11.3147  -15.2200   27.8091 C   0  0  0  0  0  0  0  0  0  0  0  0
   11.1461  -15.6836   29.1160 C   0  0  0  0  0  0  0  0  0  0  0  0
   10.2293  -14.9058   29.7499 N   0  0  0  0  0  0  0  0  0  0  0  0
    9.8079  -13.9631   28.8952 C   0  0  0  0  0  0  0  0  0  0  0  0
    8.9017  -12.9244   29.0352 C   0  0  0  0  0  0  0  0  0  0  0  0
    8.6242  -12.0383   28.0022 C   0  0  0  0  0  0  0  0  0  0  0  0
    9.2930  -12.2249   26.8018 C   0  0  0  0  0  0  0  0  0  0  0  0
   10.1820  -13.2554   26.6835 C   0  0  0  0  0  0  0  0  0  0  0  0
   10.4706  -14.1514   27.7040 C   0  0  0  0  0  0  0  0  0  0  0  0
   10.8392  -17.8757   26.7279 C   0  0  0  0  0  0  0  0  0  0  0  0
    9.5964  -17.8243   26.8424 O   0  0  0  0  0  0  0  0  0  0  0  0
   11.4786  -18.9297   27.4020 O   0  0  0  0  0  0  0  0  0  0  0  0
  2  1  1  6
  2  3  1  0
  3  4  1  0
  5  4  1  0
  6  5  1  0
  7  6  1  0
  8  2  1  0
  9  8  2  0
 10 11  1  0
 11 12  1  0
 12 13  1  1
 12 14  1  0
 14 16  1  0
 14 15  1  6
 15  8  1  0
 16 17  2  0
 18 16  1  0
 18 19  1  0
 19 20  1  1
 20 21  1  0
 21 29  1  0
 22 21  2  0
 22 23  1  0
 23 24  1  0
 24 25  1  0
 25 26  2  0
 27 26  1  0
 28 27  2  0
 29 24  2  0
 29 28  1  0
 30 32  1  0
 30 19  1  0
 31 30  2  0
M  END
$$$$
