WLP.pdb
     RDKit          3D

 30 32  0  0  1  0  0  0  0  0999 V2000
   25.6724  -19.2729   -8.5600 N   0  0  0  0  0  0  0  0  0  0  0  0
   26.4602  -19.9111   -9.6226 C   0  0  1  0  0  0  0  0  0  0  0  0
   27.0924  -21.1664   -9.1571 C   0  0  0  0  0  0  0  0  0  0  0  0
   28.2300  -21.0136   -8.2408 C   0  0  0  0  0  0  0  0  0  0  0  0
   29.5627  -21.2863   -8.5846 C   0  0  0  0  0  0  0  0  0  0  0  0
   30.3473  -21.0317   -7.5339 N   0  0  0  0  0  0  0  0  0  0  0  0
   29.5902  -20.5962   -6.4908 C   0  0  0  0  0  0  0  0  0  0  0  0
   29.9624  -20.2243   -5.2183 C   0  0  0  0  0  0  0  0  0  0  0  0
   28.9983  -19.8222   -4.3316 C   0  0  0  0  0  0  0  0  0  0  0  0
   27.6902  -19.8090   -4.7591 C   0  0  0  0  0  0  0  0  0  0  0  0
   27.3256  -20.1785   -6.0223 C   0  0  0  0  0  0  0  0  0  0  0  0
   28.2813  -20.5923   -6.9491 C   0  0  0  0  0  0  0  0  0  0  0  0
   25.6672  -19.9519  -10.8545 C   0  0  0  0  0  0  0  0  0  0  0  0
   24.4092  -19.9408  -10.7820 O   0  0  0  0  0  0  0  0  0  0  0  0
   28.3052  -18.0450  -15.4933 C   0  0  0  0  0  0  0  0  0  0  0  0
   27.3020  -17.9874  -14.2852 C   0  0  1  0  0  0  0  0  0  0  0  0
   26.5131  -16.7226  -14.5827 C   0  0  0  0  0  0  0  0  0  0  0  0
   26.5423  -19.2394  -14.3993 C   0  0  0  0  0  0  0  0  0  0  0  0
   25.5190  -19.5986  -13.3479 C   0  0  2  0  0  0  0  0  0  0  0  0
   26.2674  -19.9968  -12.1596 N   0  0  0  0  0  0  0  0  0  0  0  0
   24.5341  -20.5038  -13.8588 C   0  0  0  0  0  0  0  0  0  0  0  0
   25.0034  -21.6921  -14.1128 O   0  0  0  0  0  0  0  0  0  0  0  0
   23.1606  -20.3402  -14.1322 N   0  0  0  0  0  0  0  0  0  0  0  0
   22.3799  -19.1374  -13.9163 C   0  0  0  0  0  0  0  0  0  0  0  0
   20.9198  -19.5052  -14.1762 C   0  0  0  0  0  0  0  0  0  0  0  0
   21.0192  -20.6565  -15.1160 C   0  0  0  0  0  0  0  0  0  0  0  0
   22.2945  -21.3532  -14.6781 C   0  0  1  0  0  0  0  0  0  0  0  0
   22.8514  -22.1675  -15.7580 C   0  0  0  0  0  0  0  0  0  0  0  0
   23.9504  -22.0054  -16.3252 O   0  0  0  0  0  0  0  0  0  0  0  0
   22.0728  -23.2386  -16.2013 O   0  0  0  0  0  0  0  0  0  0  0  0
  2  1  1  1
  2 13  1  0
  2  3  1  0
  4  3  1  0
  4  5  2  0
  6  5  1  0
  7  6  1  0
  8  7  2  0
  9  8  1  0
 10  9  2  0
 10 11  1  0
 11 12  2  0
 12  7  1  0
 12  4  1  0
 13 14  2  0
 16 15  1  6
 16 18  1  0
 17 16  1  0
 19 18  1  6
 20 19  1  0
 20 13  1  0
 21 22  2  0
 21 19  1  0
 23 21  1  0
 24 23  1  0
 25 24  1  0
 26 25  1  0
 26 27  1  0
 27 28  1  6
 27 23  1  0
 28 30  1  0
 29 28  2  0
M  END
$$$$
