WLP.pdb
     RDKit          3D

 30 32  0  0  1  0  0  0  0  0999 V2000
   27.7792  -19.9771  -16.4015 N   0  0  0  0  0  0  0  0  0  0  0  0
   27.2893  -20.8683  -15.3419 C   0  0  1  0  0  0  0  0  0  0  0  0
   27.1950  -20.1706  -14.0394 C   0  0  0  0  0  0  0  0  0  0  0  0
   28.4562  -20.0028  -13.3055 C   0  0  0  0  0  0  0  0  0  0  0  0
   29.5017  -19.1614  -13.7147 C   0  0  0  0  0  0  0  0  0  0  0  0
   30.4930  -19.2280  -12.8218 N   0  0  0  0  0  0  0  0  0  0  0  0
   30.1533  -20.0865  -11.8225 C   0  0  0  0  0  0  0  0  0  0  0  0
   30.8578  -20.4680  -10.7025 C   0  0  0  0  0  0  0  0  0  0  0  0
   30.2952  -21.3664   -9.8342 C   0  0  0  0  0  0  0  0  0  0  0  0
   29.0400  -21.8498  -10.1255 C   0  0  0  0  0  0  0  0  0  0  0  0
   28.3449  -21.4684  -11.2374 C   0  0  0  0  0  0  0  0  0  0  0  0
   28.8879  -20.5560  -12.1409 C   0  0  0  0  0  0  0  0  0  0  0  0
   26.1101  -21.5920  -15.8254 C   0  0  0  0  0  0  0  0  0  0  0  0
   25.2704  -20.9940  -16.5502 O   0  0  0  0  0  0  0  0  0  0  0  0
   23.1075  -26.3244  -16.7603 C   0  0  0  0  0  0  0  0  0  0  0  0
   24.6530  -26.0590  -16.6599 C   0  0  1  0  0  0  0  0  0  0  0  0
   24.9770  -25.5195  -18.0435 C   0  0  0  0  0  0  0  0  0  0  0  0
   24.7721  -25.0859  -15.5659 C   0  0  0  0  0  0  0  0  0  0  0  0
   24.5988  -23.6117  -15.8462 C   0  0  2  0  0  0  0  0  0  0  0  0
   25.8686  -22.9739  -15.5127 N   0  0  0  0  0  0  0  0  0  0  0  0
   23.4070  -23.0972  -15.2419 C   0  0  0  0  0  0  0  0  0  0  0  0
   22.3201  -23.4124  -15.8872 O   0  0  0  0  0  0  0  0  0  0  0  0
   23.2019  -22.3193  -14.0841 N   0  0  0  0  0  0  0  0  0  0  0  0
   24.2332  -21.7767  -13.2210 C   0  0  0  0  0  0  0  0  0  0  0  0
   23.5244  -21.1803  -12.0058 C   0  0  0  0  0  0  0  0  0  0  0  0
   22.1714  -20.8438  -12.5301 C   0  0  0  0  0  0  0  0  0  0  0  0
   21.9182  -21.9296  -13.5600 C   0  0  1  0  0  0  0  0  0  0  0  0
   20.9199  -21.5065  -14.5417 C   0  0  0  0  0  0  0  0  0  0  0  0
   21.1096  -21.2938  -15.7560 O   0  0  0  0  0  0  0  0  0  0  0  0
   19.6179  -21.3211  -14.0721 O   0  0  0  0  0  0  0  0  0  0  0  0
  2  1  1  6
  2 13  1  0
  2  3  1  0
  4  3  1  0
  4  5  2  0
  6  5  1  0
  7  6  1  0
  8  7  2  0
  9  8  1  0
 10  9  2  0
 10 11  1  0
 11 12  2  0
 12  7  1  0
 12  4  1  0
 13 14  2  0
 16 15  1  6
 16 18  1  0
 17 16  1  0
 19 18  1  1
 20 19  1  0
 20 13  1  0
 21 22  2  0
 21 19  1  0
 23 21  1  0
 24 23  1  0
 25 24  1  0
 26 25  1  0
 26 27  1  0
 27 28  1  6
 27 23  1  0
 28 30  1  0
 29 28  2  0
M  END
$$$$
