WLP.pdb
     RDKit          3D

 30 32  0  0  1  0  0  0  0  0999 V2000
   26.7675  -20.4830  -12.2174 N   0  0  0  0  0  0  0  0  0  0  0  0
   25.7476  -20.5265  -11.1616 C   0  0  1  0  0  0  0  0  0  0  0  0
   24.5653  -21.3166  -11.5743 C   0  0  0  0  0  0  0  0  0  0  0  0
   23.6205  -20.6407  -12.4730 C   0  0  0  0  0  0  0  0  0  0  0  0
   23.6708  -20.7165  -13.8731 C   0  0  0  0  0  0  0  0  0  0  0  0
   22.6651  -20.0035  -14.3871 N   0  0  0  0  0  0  0  0  0  0  0  0
   21.9361  -19.4476  -13.3818 C   0  0  0  0  0  0  0  0  0  0  0  0
   20.8235  -18.6381  -13.4350 C   0  0  0  0  0  0  0  0  0  0  0  0
   20.2649  -18.1936  -12.2654 C   0  0  0  0  0  0  0  0  0  0  0  0
   20.8484  -18.5811  -11.0808 C   0  0  0  0  0  0  0  0  0  0  0  0
   21.9518  -19.3843  -11.0327 C   0  0  0  0  0  0  0  0  0  0  0  0
   22.5445  -19.8543  -12.2038 C   0  0  0  0  0  0  0  0  0  0  0  0
   26.3872  -20.8552   -9.8845 C   0  0  0  0  0  0  0  0  0  0  0  0
   26.9127  -21.9900   -9.7289 O   0  0  0  0  0  0  0  0  0  0  0  0
   28.9796  -17.8355   -5.7192 C   0  0  0  0  0  0  0  0  0  0  0  0
   28.7414  -19.0416   -6.6978 C   0  0  1  0  0  0  0  0  0  0  0  0
   29.5521  -20.1496   -6.0455 C   0  0  0  0  0  0  0  0  0  0  0  0
   27.2853  -19.2337   -6.6709 C   0  0  0  0  0  0  0  0  0  0  0  0
   26.6633  -20.3879   -7.4210 C   0  0  2  0  0  0  0  0  0  0  0  0
   26.4501  -19.9267   -8.7893 N   0  0  0  0  0  0  0  0  0  0  0  0
   25.5459  -20.9354   -6.7126 C   0  0  0  0  0  0  0  0  0  0  0  0
   24.4784  -20.1912   -6.7720 O   0  0  0  0  0  0  0  0  0  0  0  0
   25.3961  -22.1250   -5.9707 N   0  0  0  0  0  0  0  0  0  0  0  0
   26.3609  -23.2033   -5.8738 C   0  0  0  0  0  0  0  0  0  0  0  0
   25.6748  -24.3449   -5.1250 C   0  0  0  0  0  0  0  0  0  0  0  0
   24.6471  -23.6462   -4.3038 C   0  0  0  0  0  0  0  0  0  0  0  0
   24.2457  -22.4709   -5.1761 C   0  0  1  0  0  0  0  0  0  0  0  0
   23.6630  -21.3928   -4.3777 C   0  0  0  0  0  0  0  0  0  0  0  0
   24.1917  -20.2971   -4.1028 O   0  0  0  0  0  0  0  0  0  0  0  0
   22.3808  -21.6114   -3.8694 O   0  0  0  0  0  0  0  0  0  0  0  0
  2  1  1  6
  2 13  1  0
  2  3  1  0
  4  3  1  0
  4  5  2  0
  6  5  1  0
  7  6  1  0
  8  7  2  0
  9  8  1  0
 10  9  2  0
 10 11  1  0
 11 12  2  0
 12  7  1  0
 12  4  1  0
 13 14  2  0
 16 15  1  1
 16 18  1  0
 17 16  1  0
 19 18  1  1
 20 19  1  0
 20 13  1  0
 21 22  2  0
 21 19  1  0
 23 21  1  0
 24 23  1  0
 25 24  1  0
 26 25  1  0
 26 27  1  0
 27 28  1  1
 27 23  1  0
 28 30  1  0
 29 28  2  0
M  END
$$$$
