WLP.pdb
     RDKit          3D

 30 32  0  0  1  0  0  0  0  0999 V2000
   25.7313  -19.2555  -12.1548 N   0  0  0  0  0  0  0  0  0  0  0  0
   25.4768  -19.8884  -10.8542 C   0  0  1  0  0  0  0  0  0  0  0  0
   24.7041  -21.1433  -10.9975 C   0  0  0  0  0  0  0  0  0  0  0  0
   23.3275  -20.9997  -11.4889 C   0  0  0  0  0  0  0  0  0  0  0  0
   22.9290  -21.2619  -12.8084 C   0  0  0  0  0  0  0  0  0  0  0  0
   21.6152  -21.0483  -12.9201 N   0  0  0  0  0  0  0  0  0  0  0  0
   21.1115  -20.6501  -11.7206 C   0  0  0  0  0  0  0  0  0  0  0  0
   19.8235  -20.3172  -11.3653 C   0  0  0  0  0  0  0  0  0  0  0  0
   19.5646  -19.9349  -10.0751 C   0  0  0  0  0  0  0  0  0  0  0  0
   20.6151  -19.9014   -9.1866 C   0  0  0  0  0  0  0  0  0  0  0  0
   21.8910  -20.2326   -9.5434 C   0  0  0  0  0  0  0  0  0  0  0  0
   22.1885  -20.6262  -10.8473 C   0  0  0  0  0  0  0  0  0  0  0  0
   26.7229  -19.9280  -10.0835 C   0  0  0  0  0  0  0  0  0  0  0  0
   27.8058  -20.1944  -10.6702 O   0  0  0  0  0  0  0  0  0  0  0  0
   28.4971  -17.5061   -4.8555 C   0  0  0  0  0  0  0  0  0  0  0  0
   28.8763  -18.7945   -5.6712 C   0  0  1  0  0  0  0  0  0  0  0  0
   28.8847  -19.8662   -4.5933 C   0  0  0  0  0  0  0  0  0  0  0  0
   27.7983  -18.9130   -6.6620 C   0  0  0  0  0  0  0  0  0  0  0  0
   28.0310  -19.6831   -7.9405 C   0  0  2  0  0  0  0  0  0  0  0  0
   26.7675  -19.6656   -8.6711 N   0  0  0  0  0  0  0  0  0  0  0  0
   28.6454  -20.9514   -7.6870 C   0  0  0  0  0  0  0  0  0  0  0  0
   27.8507  -21.8070   -7.1096 O   0  0  0  0  0  0  0  0  0  0  0  0
   29.9436  -21.4349   -7.9494 N   0  0  0  0  0  0  0  0  0  0  0  0
   30.9733  -20.7579   -8.7138 C   0  0  0  0  0  0  0  0  0  0  0  0
   32.1223  -21.7507   -8.8844 C   0  0  0  0  0  0  0  0  0  0  0  0
   31.9710  -22.6540   -7.7098 C   0  0  0  0  0  0  0  0  0  0  0  0
   30.4689  -22.6969   -7.4959 C   0  0  1  0  0  0  0  0  0  0  0  0
   30.1397  -23.0792   -6.1230 C   0  0  0  0  0  0  0  0  0  0  0  0
   29.6423  -22.3485   -5.2430 O   0  0  0  0  0  0  0  0  0  0  0  0
   30.4097  -24.3997   -5.7578 O   0  0  0  0  0  0  0  0  0  0  0  0
  2  1  1  6
  2 13  1  0
  2  3  1  0
  4  3  1  0
  4  5  2  0
  6  5  1  0
  7  6  1  0
  8  7  2  0
  9  8  1  0
 10  9  2  0
 10 11  1  0
 11 12  2  0
 12  7  1  0
 12  4  1  0
 13 14  2  0
 16 15  1  1
 16 18  1  0
 17 16  1  0
 19 18  1  1
 20 19  1  0
 20 13  1  0
 21 22  2  0
 21 19  1  0
 23 21  1  0
 24 23  1  0
 25 24  1  0
 26 25  1  0
 26 27  1  0
 27 28  1  1
 27 23  1  0
 28 30  1  0
 29 28  2  0
M  END
$$$$
