WLP.pdb
     RDKit          3D

 30 32  0  0  1  0  0  0  0  0999 V2000
   26.7929  -21.7090  -11.5590 N   0  0  0  0  0  0  0  0  0  0  0  0
   26.5731  -20.5622  -10.6683 C   0  0  1  0  0  0  0  0  0  0  0  0
   25.2682  -19.9113  -10.9251 C   0  0  0  0  0  0  0  0  0  0  0  0
   25.0457  -19.4326  -12.2957 C   0  0  0  0  0  0  0  0  0  0  0  0
   23.7919  -19.3929  -12.9242 C   0  0  0  0  0  0  0  0  0  0  0  0
   23.9342  -18.8935  -14.1549 N   0  0  0  0  0  0  0  0  0  0  0  0
   25.2422  -18.5942  -14.3802 C   0  0  0  0  0  0  0  0  0  0  0  0
   25.8527  -18.0684  -15.4968 C   0  0  0  0  0  0  0  0  0  0  0  0
   27.2071  -17.8610  -15.4816 C   0  0  0  0  0  0  0  0  0  0  0  0
   27.9001  -18.1916  -14.3395 C   0  0  0  0  0  0  0  0  0  0  0  0
   27.2903  -18.7127  -13.2342 C   0  0  0  0  0  0  0  0  0  0  0  0
   25.9142  -18.9358  -13.2163 C   0  0  0  0  0  0  0  0  0  0  0  0
   26.8928  -20.9507   -9.2917 C   0  0  0  0  0  0  0  0  0  0  0  0
   26.9551  -22.1730   -8.9917 O   0  0  0  0  0  0  0  0  0  0  0  0
   29.7195  -17.8852   -5.2956 C   0  0  0  0  0  0  0  0  0  0  0  0
   29.4077  -19.1090   -6.2306 C   0  0  1  0  0  0  0  0  0  0  0  0
   30.2181  -20.2213   -5.5851 C   0  0  0  0  0  0  0  0  0  0  0  0
   27.9499  -19.2616   -6.1352 C   0  0  0  0  0  0  0  0  0  0  0  0
   27.2617  -20.3950   -6.8588 C   0  0  2  0  0  0  0  0  0  0  0  0
   27.1497  -19.9878   -8.2561 N   0  0  0  0  0  0  0  0  0  0  0  0
   26.0706  -20.8075   -6.1795 C   0  0  0  0  0  0  0  0  0  0  0  0
   25.0469  -20.0362   -6.4119 O   0  0  0  0  0  0  0  0  0  0  0  0
   25.8105  -21.8895   -5.3137 N   0  0  0  0  0  0  0  0  0  0  0  0
   26.7126  -22.9844   -5.0134 C   0  0  0  0  0  0  0  0  0  0  0  0
   25.9200  -23.9970   -4.1880 C   0  0  0  0  0  0  0  0  0  0  0  0
   24.8708  -23.1625   -3.5388 C   0  0  0  0  0  0  0  0  0  0  0  0
   24.5905  -22.0892   -4.5747 C   0  0  1  0  0  0  0  0  0  0  0  0
   24.0045  -20.8986   -3.9594 C   0  0  0  0  0  0  0  0  0  0  0  0
   24.5797  -19.8157   -3.7311 O   0  0  0  0  0  0  0  0  0  0  0  0
   22.6608  -20.9815   -3.5881 O   0  0  0  0  0  0  0  0  0  0  0  0
  2  1  1  6
  2 13  1  0
  2  3  1  0
  4  3  1  0
  4  5  2  0
  6  5  1  0
  7  6  1  0
  8  7  2  0
  9  8  1  0
 10  9  2  0
 10 11  1  0
 11 12  2  0
 12  7  1  0
 12  4  1  0
 13 14  2  0
 16 15  1  1
 16 18  1  0
 17 16  1  0
 19 18  1  1
 20 19  1  0
 20 13  1  0
 21 22  2  0
 21 19  1  0
 23 21  1  0
 24 23  1  0
 25 24  1  0
 26 25  1  0
 26 27  1  0
 27 28  1  1
 27 23  1  0
 28 30  1  0
 29 28  2  0
M  END
$$$$
