WLP.pdb
     RDKit          3D

 30 32  0  0  1  0  0  0  0  0999 V2000
   24.3234  -19.6094   -9.1375 N   0  0  0  0  0  0  0  0  0  0  0  0
   25.6351  -20.0521   -9.6278 C   0  0  1  0  0  0  0  0  0  0  0  0
   26.1737  -21.1692   -8.8188 C   0  0  0  0  0  0  0  0  0  0  0  0
   26.4270  -20.8752   -7.4023 C   0  0  0  0  0  0  0  0  0  0  0  0
   25.4589  -20.9692   -6.3911 C   0  0  0  0  0  0  0  0  0  0  0  0
   26.0159  -20.6498   -5.2198 N   0  0  0  0  0  0  0  0  0  0  0  0
   27.3284  -20.3427   -5.4046 C   0  0  0  0  0  0  0  0  0  0  0  0
   28.2860  -19.9553   -4.4941 C   0  0  0  0  0  0  0  0  0  0  0  0
   29.5568  -19.6913   -4.9335 C   0  0  0  0  0  0  0  0  0  0  0  0
   29.8184  -19.8270   -6.2778 C   0  0  0  0  0  0  0  0  0  0  0  0
   28.8655  -20.2116   -7.1773 C   0  0  0  0  0  0  0  0  0  0  0  0
   27.5632  -20.4883   -6.7636 C   0  0  0  0  0  0  0  0  0  0  0  0
   25.5769  -20.2176  -11.0828 C   0  0  0  0  0  0  0  0  0  0  0  0
   24.4947  -20.5709  -11.6233 O   0  0  0  0  0  0  0  0  0  0  0  0
   27.0274  -17.1701  -15.2195 C   0  0  0  0  0  0  0  0  0  0  0  0
   27.8651  -18.4994  -15.2000 C   0  0  1  0  0  0  0  0  0  0  0  0
   29.2441  -18.0163  -15.6189 C   0  0  0  0  0  0  0  0  0  0  0  0
   27.7601  -18.9606  -13.8093 C   0  0  0  0  0  0  0  0  0  0  0  0
   26.5443  -19.7378  -13.3627 C   0  0  2  0  0  0  0  0  0  0  0  0
   26.7115  -19.9846  -11.9338 N   0  0  0  0  0  0  0  0  0  0  0  0
   26.2941  -20.8604  -14.2157 C   0  0  0  0  0  0  0  0  0  0  0  0
   27.2672  -21.7263  -14.2329 O   0  0  0  0  0  0  0  0  0  0  0  0
   25.1931  -21.1928  -15.0313 N   0  0  0  0  0  0  0  0  0  0  0  0
   23.9400  -20.4682  -15.1187 C   0  0  0  0  0  0  0  0  0  0  0  0
   22.9994  -21.3130  -15.9767 C   0  0  0  0  0  0  0  0  0  0  0  0
   23.9310  -22.1029  -16.8293 C   0  0  0  0  0  0  0  0  0  0  0  0
   25.1295  -22.3213  -15.9240 C   0  0  1  0  0  0  0  0  0  0  0  0
   26.3369  -22.6005  -16.7009 C   0  0  0  0  0  0  0  0  0  0  0  0
   27.2529  -21.7986  -16.9720 O   0  0  0  0  0  0  0  0  0  0  0  0
   26.4805  -23.9003  -17.1912 O   0  0  0  0  0  0  0  0  0  0  0  0
  2  1  1  1
  2 13  1  0
  2  3  1  0
  4  3  1  0
  4  5  2  0
  6  5  1  0
  7  6  1  0
  8  7  2  0
  9  8  1  0
 10  9  2  0
 10 11  1  0
 11 12  2  0
 12  7  1  0
 12  4  1  0
 13 14  2  0
 16 15  1  1
 16 18  1  0
 17 16  1  0
 19 18  1  6
 20 19  1  0
 20 13  1  0
 21 22  2  0
 21 19  1  0
 23 21  1  0
 24 23  1  0
 25 24  1  0
 26 25  1  0
 26 27  1  0
 27 28  1  6
 27 23  1  0
 28 30  1  0
 29 28  2  0
M  END
$$$$
