WLP.pdb
     RDKit          3D

 30 32  0  0  1  0  0  0  0  0999 V2000
   25.5313  -21.5667  -12.7658 N   0  0  0  0  0  0  0  0  0  0  0  0
   25.0710  -20.6056  -11.7552 C   0  0  1  0  0  0  0  0  0  0  0  0
   23.6113  -20.3741  -11.8443 C   0  0  0  0  0  0  0  0  0  0  0  0
   23.1453  -19.6494  -13.0338 C   0  0  0  0  0  0  0  0  0  0  0  0
   21.7970  -19.3890  -13.3217 C   0  0  0  0  0  0  0  0  0  0  0  0
   21.7176  -18.7012  -14.4640 N   0  0  0  0  0  0  0  0  0  0  0  0
   22.9669  -18.4878  -14.9588 C   0  0  0  0  0  0  0  0  0  0  0  0
   23.3689  -17.8362  -16.1033 C   0  0  0  0  0  0  0  0  0  0  0  0
   24.7061  -17.7583  -16.3923 C   0  0  0  0  0  0  0  0  0  0  0  0
   25.5930  -18.3412  -15.5161 C   0  0  0  0  0  0  0  0  0  0  0  0
   25.1898  -18.9863  -14.3820 C   0  0  0  0  0  0  0  0  0  0  0  0
   23.8372  -19.0833  -14.0581 C   0  0  0  0  0  0  0  0  0  0  0  0
   25.6354  -20.9667  -10.4517 C   0  0  0  0  0  0  0  0  0  0  0  0
   25.6553  -22.1764  -10.0990 O   0  0  0  0  0  0  0  0  0  0  0  0
   29.2092  -20.1847   -6.3499 C   0  0  0  0  0  0  0  0  0  0  0  0
   27.9408  -19.2586   -6.2981 C   0  0  1  0  0  0  0  0  0  0  0  0
   28.5217  -17.9458   -5.7985 C   0  0  0  0  0  0  0  0  0  0  0  0
   27.4610  -19.2418   -7.6864 C   0  0  0  0  0  0  0  0  0  0  0  0
   26.5786  -20.3584   -8.1925 C   0  0  2  0  0  0  0  0  0  0  0  0
   26.1818  -19.9915   -9.5483 N   0  0  0  0  0  0  0  0  0  0  0  0
   25.5478  -20.6823   -7.2529 C   0  0  0  0  0  0  0  0  0  0  0  0
   24.6456  -19.7506   -7.1305 O   0  0  0  0  0  0  0  0  0  0  0  0
   25.3365  -21.8188   -6.4456 N   0  0  0  0  0  0  0  0  0  0  0  0
   26.0971  -23.0528   -6.4849 C   0  0  0  0  0  0  0  0  0  0  0  0
   25.3777  -24.0451   -5.5724 C   0  0  0  0  0  0  0  0  0  0  0  0
   24.6660  -23.1652   -4.6040 C   0  0  0  0  0  0  0  0  0  0  0  0
   24.3175  -21.9441   -5.4355 C   0  0  1  0  0  0  0  0  0  0  0  0
   24.0978  -20.7716   -4.5891 C   0  0  0  0  0  0  0  0  0  0  0  0
   24.9191  -19.8673   -4.3377 O   0  0  0  0  0  0  0  0  0  0  0  0
   22.8372  -20.6505   -4.0004 O   0  0  0  0  0  0  0  0  0  0  0  0
  2  1  1  6
  2 13  1  0
  2  3  1  0
  4  3  1  0
  4  5  2  0
  6  5  1  0
  7  6  1  0
  8  7  2  0
  9  8  1  0
 10  9  2  0
 10 11  1  0
 11 12  2  0
 12  7  1  0
 12  4  1  0
 13 14  2  0
 16 15  1  6
 16 18  1  0
 17 16  1  0
 19 18  1  1
 20 19  1  0
 20 13  1  0
 21 22  2  0
 21 19  1  0
 23 21  1  0
 24 23  1  0
 25 24  1  0
 26 25  1  0
 26 27  1  0
 27 28  1  1
 27 23  1  0
 28 30  1  0
 29 28  2  0
M  END
$$$$
