WLP.pdb
     RDKit          3D

 30 32  0  0  1  0  0  0  0  0999 V2000
   23.9512  -22.5694  -12.8050 N   0  0  0  0  0  0  0  0  0  0  0  0
   24.2016  -21.3224  -12.0708 C   0  0  1  0  0  0  0  0  0  0  0  0
   22.9464  -20.7262  -11.5596 C   0  0  0  0  0  0  0  0  0  0  0  0
   21.9400  -20.3777  -12.5709 C   0  0  0  0  0  0  0  0  0  0  0  0
   20.7564  -21.0991  -12.7881 C   0  0  0  0  0  0  0  0  0  0  0  0
   20.0582  -20.5123  -13.7640 N   0  0  0  0  0  0  0  0  0  0  0  0
   20.7298  -19.4182  -14.2146 C   0  0  0  0  0  0  0  0  0  0  0  0
   20.3996  -18.5192  -15.2039 C   0  0  0  0  0  0  0  0  0  0  0  0
   21.2575  -17.4875  -15.4817 C   0  0  0  0  0  0  0  0  0  0  0  0
   22.4205  -17.3978  -14.7513 C   0  0  0  0  0  0  0  0  0  0  0  0
   22.7438  -18.2916  -13.7707 C   0  0  0  0  0  0  0  0  0  0  0  0
   21.8932  -19.3524  -13.4627 C   0  0  0  0  0  0  0  0  0  0  0  0
   25.3031  -21.5299  -11.1265 C   0  0  0  0  0  0  0  0  0  0  0  0
   25.4177  -22.6410  -10.5431 O   0  0  0  0  0  0  0  0  0  0  0  0
   30.4519  -20.0109  -11.9697 C   0  0  0  0  0  0  0  0  0  0  0  0
   29.1536  -20.8424  -11.6662 C   0  0  1  0  0  0  0  0  0  0  0  0
   29.7083  -22.2439  -11.4696 C   0  0  0  0  0  0  0  0  0  0  0  0
   28.6067  -20.2114  -10.4577 C   0  0  0  0  0  0  0  0  0  0  0  0
   27.3268  -20.7331   -9.8484 C   0  0  2  0  0  0  0  0  0  0  0  0
   26.2763  -20.5126  -10.8375 N   0  0  0  0  0  0  0  0  0  0  0  0
   27.1258  -20.2211   -8.5263 C   0  0  0  0  0  0  0  0  0  0  0  0
   26.4328  -19.1185   -8.4965 O   0  0  0  0  0  0  0  0  0  0  0  0
   27.5390  -20.6934   -7.2637 N   0  0  0  0  0  0  0  0  0  0  0  0
   28.1415  -21.9826   -6.9848 C   0  0  0  0  0  0  0  0  0  0  0  0
   28.2321  -22.1089   -5.4647 C   0  0  0  0  0  0  0  0  0  0  0  0
   28.2865  -20.6927   -5.0065 C   0  0  0  0  0  0  0  0  0  0  0  0
   27.4298  -19.9647   -6.0262 C   0  0  1  0  0  0  0  0  0  0  0  0
   27.7652  -18.5420   -6.0813 C   0  0  0  0  0  0  0  0  0  0  0  0
   28.3577  -17.9495   -7.0051 O   0  0  0  0  0  0  0  0  0  0  0  0
   27.3828  -17.7647   -4.9860 O   0  0  0  0  0  0  0  0  0  0  0  0
  2  1  1  1
  2 13  1  0
  2  3  1  0
  4  3  1  0
  4  5  2  0
  6  5  1  0
  7  6  1  0
  8  7  2  0
  9  8  1  0
 10  9  2  0
 10 11  1  0
 11 12  2  0
 12  7  1  0
 12  4  1  0
 13 14  2  0
 16 15  1  1
 16 18  1  0
 17 16  1  0
 19 18  1  6
 20 19  1  0
 20 13  1  0
 21 22  2  0
 21 19  1  0
 23 21  1  0
 24 23  1  0
 25 24  1  0
 26 25  1  0
 26 27  1  0
 27 28  1  6
 27 23  1  0
 28 30  1  0
 29 28  2  0
M  END
$$$$
