WLP.pdb
     RDKit          3D

 30 32  0  0  1  0  0  0  0  0999 V2000
   27.0142  -21.6440  -12.7956 N   0  0  0  0  0  0  0  0  0  0  0  0
   26.0491  -21.0364  -11.8704 C   0  0  1  0  0  0  0  0  0  0  0  0
   24.6560  -21.4026  -12.2135 C   0  0  0  0  0  0  0  0  0  0  0  0
   23.6123  -20.4876  -11.7333 C   0  0  0  0  0  0  0  0  0  0  0  0
   23.2444  -19.2994  -12.3825 C   0  0  0  0  0  0  0  0  0  0  0  0
   22.2599  -18.7121  -11.6969 N   0  0  0  0  0  0  0  0  0  0  0  0
   21.9497  -19.4628  -10.6054 C   0  0  0  0  0  0  0  0  0  0  0  0
   21.0124  -19.2503   -9.6193 C   0  0  0  0  0  0  0  0  0  0  0  0
   20.8927  -20.1631   -8.6044 C   0  0  0  0  0  0  0  0  0  0  0  0
   21.7234  -21.2603   -8.6189 C   0  0  0  0  0  0  0  0  0  0  0  0
   22.6515  -21.4671   -9.5992 C   0  0  0  0  0  0  0  0  0  0  0  0
   22.7989  -20.5584  -10.6461 C   0  0  0  0  0  0  0  0  0  0  0  0
   26.5002  -21.2490  -10.4922 C   0  0  0  0  0  0  0  0  0  0  0  0
   26.9299  -22.3829  -10.1491 O   0  0  0  0  0  0  0  0  0  0  0  0
   29.8515  -19.7302   -6.6750 C   0  0  0  0  0  0  0  0  0  0  0  0
   28.4628  -19.0092   -6.5302 C   0  0  1  0  0  0  0  0  0  0  0  0
   28.8732  -17.5907   -6.1698 C   0  0  0  0  0  0  0  0  0  0  0  0
   27.8466  -19.1642   -7.8546 C   0  0  0  0  0  0  0  0  0  0  0  0
   27.0616  -20.4133   -8.1792 C   0  0  2  0  0  0  0  0  0  0  0  0
   26.4820  -20.2068   -9.5028 N   0  0  0  0  0  0  0  0  0  0  0  0
   26.1835  -20.7767   -7.1081 C   0  0  0  0  0  0  0  0  0  0  0  0
   25.0782  -20.0877   -7.0866 O   0  0  0  0  0  0  0  0  0  0  0  0
   26.3001  -21.7385   -6.0838 N   0  0  0  0  0  0  0  0  0  0  0  0
   27.3346  -22.7481   -5.9682 C   0  0  0  0  0  0  0  0  0  0  0  0
   26.9299  -23.6662   -4.8158 C   0  0  0  0  0  0  0  0  0  0  0  0
   26.0804  -22.7896   -3.9623 C   0  0  0  0  0  0  0  0  0  0  0  0
   25.3998  -21.8795   -4.9684 C   0  0  1  0  0  0  0  0  0  0  0  0
   24.9487  -20.6381   -4.3401 C   0  0  0  0  0  0  0  0  0  0  0  0
   23.8027  -20.3895   -3.9151 O   0  0  0  0  0  0  0  0  0  0  0  0
   25.8991  -19.6245   -4.2006 O   0  0  0  0  0  0  0  0  0  0  0  0
  2  1  1  6
  2 13  1  0
  2  3  1  0
  4  3  1  0
  4  5  2  0
  6  5  1  0
  7  6  1  0
  8  7  2  0
  9  8  1  0
 10  9  2  0
 10 11  1  0
 11 12  2  0
 12  7  1  0
 12  4  1  0
 13 14  2  0
 16 15  1  6
 16 18  1  0
 17 16  1  0
 19 18  1  1
 20 19  1  0
 20 13  1  0
 21 22  2  0
 21 19  1  0
 23 21  1  0
 24 23  1  0
 25 24  1  0
 26 25  1  0
 26 27  1  0
 27 28  1  1
 27 23  1  0
 28 30  1  0
 29 28  2  0
M  END
$$$$
