WLP.pdb
     RDKit          3D

 30 32  0  0  1  0  0  0  0  0999 V2000
   24.8802  -19.4053  -10.2434 N   0  0  0  0  0  0  0  0  0  0  0  0
   26.0930  -20.0962  -10.7000 C   0  0  1  0  0  0  0  0  0  0  0  0
   26.4287  -21.2464   -9.8301 C   0  0  0  0  0  0  0  0  0  0  0  0
   26.5666  -20.9522   -8.3977 C   0  0  0  0  0  0  0  0  0  0  0  0
   25.4965  -20.9259   -7.4907 C   0  0  0  0  0  0  0  0  0  0  0  0
   25.9624  -20.6426   -6.2712 N   0  0  0  0  0  0  0  0  0  0  0  0
   27.3117  -20.4760   -6.3229 C   0  0  0  0  0  0  0  0  0  0  0  0
   28.2073  -20.1714   -5.3224 C   0  0  0  0  0  0  0  0  0  0  0  0
   29.5366  -20.0484   -5.6312 C   0  0  0  0  0  0  0  0  0  0  0  0
   29.9175  -20.2368   -6.9402 C   0  0  0  0  0  0  0  0  0  0  0  0
   29.0257  -20.5389   -7.9294 C   0  0  0  0  0  0  0  0  0  0  0  0
   27.6664  -20.6718   -7.6492 C   0  0  0  0  0  0  0  0  0  0  0  0
   26.0043  -20.3251  -12.1450 C   0  0  0  0  0  0  0  0  0  0  0  0
   24.8850  -20.5819  -12.6638 O   0  0  0  0  0  0  0  0  0  0  0  0
   28.4365  -17.1155  -15.8519 C   0  0  0  0  0  0  0  0  0  0  0  0
   27.3451  -17.9154  -15.0531 C   0  0  1  0  0  0  0  0  0  0  0  0
   26.0930  -17.6601  -15.8761 C   0  0  0  0  0  0  0  0  0  0  0  0
   27.8368  -19.2995  -15.0762 C   0  0  0  0  0  0  0  0  0  0  0  0
   27.0121  -20.4028  -14.4562 C   0  0  2  0  0  0  0  0  0  0  0  0
   27.1502  -20.2613  -13.0101 N   0  0  0  0  0  0  0  0  0  0  0  0
   27.3108  -21.6755  -15.0405 C   0  0  0  0  0  0  0  0  0  0  0  0
   28.4887  -22.1302  -14.7200 O   0  0  0  0  0  0  0  0  0  0  0  0
   26.5643  -22.5164  -15.8912 N   0  0  0  0  0  0  0  0  0  0  0  0
   25.2136  -22.2795  -16.3626 C   0  0  0  0  0  0  0  0  0  0  0  0
   24.7697  -23.5483  -17.0892 C   0  0  0  0  0  0  0  0  0  0  0  0
   26.0548  -24.1506  -17.5415 C   0  0  0  0  0  0  0  0  0  0  0  0
   27.0254  -23.7656  -16.4400 C   0  0  1  0  0  0  0  0  0  0  0  0
   28.4074  -23.7914  -16.9184 C   0  0  0  0  0  0  0  0  0  0  0  0
   29.1430  -22.8067  -17.1305 O   0  0  0  0  0  0  0  0  0  0  0  0
   28.9628  -25.0490  -17.1637 O   0  0  0  0  0  0  0  0  0  0  0  0
  2  1  1  1
  2 13  1  0
  2  3  1  0
  4  3  1  0
  4  5  2  0
  6  5  1  0
  7  6  1  0
  8  7  2  0
  9  8  1  0
 10  9  2  0
 10 11  1  0
 11 12  2  0
 12  7  1  0
 12  4  1  0
 13 14  2  0
 16 15  1  6
 16 18  1  0
 17 16  1  0
 19 18  1  6
 20 19  1  0
 20 13  1  0
 21 22  2  0
 21 19  1  0
 23 21  1  0
 24 23  1  0
 25 24  1  0
 26 25  1  0
 26 27  1  0
 27 28  1  6
 27 23  1  0
 28 30  1  0
 29 28  2  0
M  END
$$$$
