WLP.pdb
     RDKit          3D

 30 32  0  0  1  0  0  0  0  0999 V2000
   25.7840  -21.7118  -11.6808 N   0  0  0  0  0  0  0  0  0  0  0  0
   25.5512  -20.6553  -10.6876 C   0  0  1  0  0  0  0  0  0  0  0  0
   24.1115  -20.3355  -10.5552 C   0  0  0  0  0  0  0  0  0  0  0  0
   23.4281  -19.9189  -11.7867 C   0  0  0  0  0  0  0  0  0  0  0  0
   22.1118  -20.2742  -12.1179 C   0  0  0  0  0  0  0  0  0  0  0  0
   21.7911  -19.7227  -13.2915 N   0  0  0  0  0  0  0  0  0  0  0  0
   22.8463  -19.0064  -13.7655 C   0  0  0  0  0  0  0  0  0  0  0  0
   22.9753  -18.2800  -14.9281 C   0  0  0  0  0  0  0  0  0  0  0  0
   24.1596  -17.6419  -15.1884 C   0  0  0  0  0  0  0  0  0  0  0  0
   25.1745  -17.7586  -14.2662 C   0  0  0  0  0  0  0  0  0  0  0  0
   25.0420  -18.4800  -13.1143 C   0  0  0  0  0  0  0  0  0  0  0  0
   23.8505  -19.1409  -12.8186 C   0  0  0  0  0  0  0  0  0  0  0  0
   26.3061  -20.9618   -9.4694 C   0  0  0  0  0  0  0  0  0  0  0  0
   26.4867  -22.1643   -9.1386 O   0  0  0  0  0  0  0  0  0  0  0  0
   30.3284  -19.8369   -5.9128 C   0  0  0  0  0  0  0  0  0  0  0  0
   28.9947  -19.0487   -5.6500 C   0  0  1  0  0  0  0  0  0  0  0  0
   29.5075  -17.6871   -5.2102 C   0  0  0  0  0  0  0  0  0  0  0  0
   28.3122  -19.0694   -6.9506 C   0  0  0  0  0  0  0  0  0  0  0  0
   27.4909  -20.2719   -7.3518 C   0  0  2  0  0  0  0  0  0  0  0  0
   26.8642  -19.9394   -8.6274 N   0  0  0  0  0  0  0  0  0  0  0  0
   26.6483  -20.7150   -6.2822 C   0  0  0  0  0  0  0  0  0  0  0  0
   25.5871  -19.9777   -6.1179 O   0  0  0  0  0  0  0  0  0  0  0  0
   26.7607  -21.7967   -5.3849 N   0  0  0  0  0  0  0  0  0  0  0  0
   27.7362  -22.8678   -5.4498 C   0  0  0  0  0  0  0  0  0  0  0  0
   27.3386  -23.8930   -4.3889 C   0  0  0  0  0  0  0  0  0  0  0  0
   26.5916  -23.0792   -3.3898 C   0  0  0  0  0  0  0  0  0  0  0  0
   25.9149  -22.0201   -4.2407 C   0  0  1  0  0  0  0  0  0  0  0  0
   25.5753  -20.8395   -3.4468 C   0  0  0  0  0  0  0  0  0  0  0  0
   26.2963  -19.8418   -3.2457 O   0  0  0  0  0  0  0  0  0  0  0  0
   24.3122  -20.8265   -2.8513 O   0  0  0  0  0  0  0  0  0  0  0  0
  2  1  1  6
  2 13  1  0
  2  3  1  0
  4  3  1  0
  4  5  2  0
  6  5  1  0
  7  6  1  0
  8  7  2  0
  9  8  1  0
 10  9  2  0
 10 11  1  0
 11 12  2  0
 12  7  1  0
 12  4  1  0
 13 14  2  0
 16 15  1  6
 16 18  1  0
 17 16  1  0
 19 18  1  1
 20 19  1  0
 20 13  1  0
 21 22  2  0
 21 19  1  0
 23 21  1  0
 24 23  1  0
 25 24  1  0
 26 25  1  0
 26 27  1  0
 27 28  1  1
 27 23  1  0
 28 30  1  0
 29 28  2  0
M  END
$$$$
