WLP.pdb
     RDKit          3D

 30 32  0  0  1  0  0  0  0  0999 V2000
   24.5922  -19.7014   -9.0273 N   0  0  0  0  0  0  0  0  0  0  0  0
   25.9752  -20.1311   -9.2712 C   0  0  1  0  0  0  0  0  0  0  0  0
   26.3884  -21.2034   -8.3375 C   0  0  0  0  0  0  0  0  0  0  0  0
   26.2916  -20.8847   -6.9070 C   0  0  0  0  0  0  0  0  0  0  0  0
   25.1906  -21.2065   -6.0992 C   0  0  0  0  0  0  0  0  0  0  0  0
   25.4262  -20.7920   -4.8515 N   0  0  0  0  0  0  0  0  0  0  0  0
   26.6497  -20.2002   -4.7880 C   0  0  0  0  0  0  0  0  0  0  0  0
   27.3039  -19.6267   -3.7207 C   0  0  0  0  0  0  0  0  0  0  0  0
   28.5463  -19.0818   -3.9140 C   0  0  0  0  0  0  0  0  0  0  0  0
   29.0867  -19.1340   -5.1786 C   0  0  0  0  0  0  0  0  0  0  0  0
   28.4342  -19.7040   -6.2342 C   0  0  0  0  0  0  0  0  0  0  0  0
   27.1695  -20.2676   -6.0719 C   0  0  0  0  0  0  0  0  0  0  0  0
   26.1664  -20.3534  -10.7072 C   0  0  0  0  0  0  0  0  0  0  0  0
   25.4445  -19.7313  -11.5318 O   0  0  0  0  0  0  0  0  0  0  0  0
   31.3519  -22.5028  -11.1146 C   0  0  0  0  0  0  0  0  0  0  0  0
   30.2233  -21.4216  -10.9523 C   0  0  1  0  0  0  0  0  0  0  0  0
   31.0113  -20.1232  -11.0111 C   0  0  0  0  0  0  0  0  0  0  0  0
   29.3351  -21.6662  -12.0965 C   0  0  0  0  0  0  0  0  0  0  0  0
   28.0856  -20.8358  -12.2718 C   0  0  2  0  0  0  0  0  0  0  0  0
   27.1587  -21.2550  -11.2250 N   0  0  0  0  0  0  0  0  0  0  0  0
   27.6252  -20.8566  -13.6275 C   0  0  0  0  0  0  0  0  0  0  0  0
   27.0652  -21.9823  -13.9683 O   0  0  0  0  0  0  0  0  0  0  0  0
   27.6683  -19.8853  -14.6486 N   0  0  0  0  0  0  0  0  0  0  0  0
   28.1899  -18.5374  -14.5295 C   0  0  0  0  0  0  0  0  0  0  0  0
   27.8438  -17.8127  -15.8294 C   0  0  0  0  0  0  0  0  0  0  0  0
   27.7380  -18.9197  -16.8204 C   0  0  0  0  0  0  0  0  0  0  0  0
   27.1957  -20.0730  -15.9961 C   0  0  1  0  0  0  0  0  0  0  0  0
   27.5060  -21.3604  -16.6172 C   0  0  0  0  0  0  0  0  0  0  0  0
   28.4282  -22.1388  -16.3021 O   0  0  0  0  0  0  0  0  0  0  0  0
   26.6850  -21.7613  -17.6733 O   0  0  0  0  0  0  0  0  0  0  0  0
  2  1  1  6
  2 13  1  0
  2  3  1  0
  4  3  1  0
  4  5  2  0
  6  5  1  0
  7  6  1  0
  8  7  2  0
  9  8  1  0
 10  9  2  0
 10 11  1  0
 11 12  2  0
 12  7  1  0
 12  4  1  0
 13 14  2  0
 16 15  1  6
 16 18  1  0
 17 16  1  0
 19 18  1  6
 20 19  1  0
 20 13  1  0
 21 22  2  0
 21 19  1  0
 23 21  1  0
 24 23  1  0
 25 24  1  0
 26 25  1  0
 26 27  1  0
 27 28  1  6
 27 23  1  0
 28 30  1  0
 29 28  2  0
M  END
$$$$
