WLP.pdb
     RDKit          3D

 30 32  0  0  1  0  0  0  0  0999 V2000
   25.9419  -19.2698  -11.6794 N   0  0  0  0  0  0  0  0  0  0  0  0
   25.6164  -19.9288  -10.4079 C   0  0  1  0  0  0  0  0  0  0  0  0
   24.9202  -21.2181  -10.6216 C   0  0  0  0  0  0  0  0  0  0  0  0
   23.5400  -21.1307  -11.1159 C   0  0  0  0  0  0  0  0  0  0  0  0
   23.1261  -21.5684  -12.3831 C   0  0  0  0  0  0  0  0  0  0  0  0
   21.8130  -21.3600  -12.5115 N   0  0  0  0  0  0  0  0  0  0  0  0
   21.3246  -20.7959  -11.3739 C   0  0  0  0  0  0  0  0  0  0  0  0
   20.0429  -20.4053  -11.0564 C   0  0  0  0  0  0  0  0  0  0  0  0
   19.8001  -19.8467   -9.8289 C   0  0  0  0  0  0  0  0  0  0  0  0
   20.8596  -19.7009   -8.9628 C   0  0  0  0  0  0  0  0  0  0  0  0
   22.1292  -20.0899   -9.2819 C   0  0  0  0  0  0  0  0  0  0  0  0
   22.4104  -20.6619  -10.5218 C   0  0  0  0  0  0  0  0  0  0  0  0
   26.7977  -19.9166   -9.5405 C   0  0  0  0  0  0  0  0  0  0  0  0
   27.9243  -20.2082  -10.0240 O   0  0  0  0  0  0  0  0  0  0  0  0
   29.3884  -17.2953   -5.3815 C   0  0  0  0  0  0  0  0  0  0  0  0
   28.5971  -18.6038   -5.0199 C   0  0  1  0  0  0  0  0  0  0  0  0
   28.0174  -18.2625   -3.6569 C   0  0  0  0  0  0  0  0  0  0  0  0
   27.6135  -18.7304   -6.1036 C   0  0  0  0  0  0  0  0  0  0  0  0
   27.9247  -19.5877   -7.3077 C   0  0  2  0  0  0  0  0  0  0  0  0
   26.7300  -19.5748   -8.1461 N   0  0  0  0  0  0  0  0  0  0  0  0
   28.4659  -20.8569   -6.9249 C   0  0  0  0  0  0  0  0  0  0  0  0
   27.5772  -21.6735   -6.4347 O   0  0  0  0  0  0  0  0  0  0  0  0
   29.7756  -21.3757   -6.9845 N   0  0  0  0  0  0  0  0  0  0  0  0
   30.8861  -20.8185   -7.7322 C   0  0  0  0  0  0  0  0  0  0  0  0
   32.0300  -21.8276   -7.6430 C   0  0  0  0  0  0  0  0  0  0  0  0
   31.7495  -22.5510   -6.3715 C   0  0  0  0  0  0  0  0  0  0  0  0
   30.2333  -22.5598   -6.3042 C   0  0  1  0  0  0  0  0  0  0  0  0
   29.7647  -22.7385   -4.9302 C   0  0  0  0  0  0  0  0  0  0  0  0
   29.2701  -21.8649   -4.1900 O   0  0  0  0  0  0  0  0  0  0  0  0
   29.8825  -24.0206   -4.3892 O   0  0  0  0  0  0  0  0  0  0  0  0
  2  1  1  6
  2 13  1  0
  2  3  1  0
  4  3  1  0
  4  5  2  0
  6  5  1  0
  7  6  1  0
  8  7  2  0
  9  8  1  0
 10  9  2  0
 10 11  1  0
 11 12  2  0
 12  7  1  0
 12  4  1  0
 13 14  2  0
 16 15  1  6
 16 18  1  0
 17 16  1  0
 19 18  1  1
 20 19  1  0
 20 13  1  0
 21 22  2  0
 21 19  1  0
 23 21  1  0
 24 23  1  0
 25 24  1  0
 26 25  1  0
 26 27  1  0
 27 28  1  1
 27 23  1  0
 28 30  1  0
 29 28  2  0
M  END
$$$$
