WLP.pdb
     RDKit          3D

 30 32  0  0  1  0  0  0  0  0999 V2000
   26.4051  -21.2939  -11.6808 N   0  0  0  0  0  0  0  0  0  0  0  0
   26.0129  -20.3500  -10.6263 C   0  0  1  0  0  0  0  0  0  0  0  0
   24.6005  -20.5355  -10.2226 C   0  0  0  0  0  0  0  0  0  0  0  0
   23.5908  -20.1742  -11.2262 C   0  0  0  0  0  0  0  0  0  0  0  0
   22.2296  -20.5004  -11.1295 C   0  0  0  0  0  0  0  0  0  0  0  0
   21.5857  -20.0144  -12.1942 N   0  0  0  0  0  0  0  0  0  0  0  0
   22.4656  -19.3706  -13.0080 C   0  0  0  0  0  0  0  0  0  0  0  0
   22.2575  -18.7264  -14.2071 C   0  0  0  0  0  0  0  0  0  0  0  0
   23.3225  -18.1514  -14.8495 C   0  0  0  0  0  0  0  0  0  0  0  0
   24.5625  -18.2462  -14.2599 C   0  0  0  0  0  0  0  0  0  0  0  0
   24.7642  -18.8860  -13.0704 C   0  0  0  0  0  0  0  0  0  0  0  0
   23.7024  -19.4811  -12.3906 C   0  0  0  0  0  0  0  0  0  0  0  0
   27.0366  -20.3439   -9.5774 C   0  0  0  0  0  0  0  0  0  0  0  0
   28.0423  -21.0949   -9.6891 O   0  0  0  0  0  0  0  0  0  0  0  0
   29.5383  -17.2617   -5.6485 C   0  0  0  0  0  0  0  0  0  0  0  0
   28.4335  -18.2752   -5.1781 C   0  0  1  0  0  0  0  0  0  0  0  0
   27.7659  -17.5181   -4.0417 C   0  0  0  0  0  0  0  0  0  0  0  0
   27.6022  -18.4686   -6.3737 C   0  0  0  0  0  0  0  0  0  0  0  0
   28.0362  -19.4420   -7.4441 C   0  0  2  0  0  0  0  0  0  0  0  0
   26.9481  -19.5032   -8.4151 N   0  0  0  0  0  0  0  0  0  0  0  0
   28.5054  -20.6713   -6.8793 C   0  0  0  0  0  0  0  0  0  0  0  0
   27.5561  -21.4054   -6.3725 O   0  0  0  0  0  0  0  0  0  0  0  0
   29.7984  -21.2239   -6.7760 N   0  0  0  0  0  0  0  0  0  0  0  0
   30.9577  -20.8480   -7.5619 C   0  0  0  0  0  0  0  0  0  0  0  0
   32.0625  -21.8490   -7.2272 C   0  0  0  0  0  0  0  0  0  0  0  0
   31.7044  -22.3078   -5.8561 C   0  0  0  0  0  0  0  0  0  0  0  0
   30.1872  -22.2663   -5.8613 C   0  0  1  0  0  0  0  0  0  0  0  0
   29.6550  -22.1665   -4.5025 C   0  0  0  0  0  0  0  0  0  0  0  0
   29.0279  -21.2051   -4.0146 O   0  0  0  0  0  0  0  0  0  0  0  0
   29.8705  -23.2612   -3.6627 O   0  0  0  0  0  0  0  0  0  0  0  0
  2  1  1  6
  2 13  1  0
  2  3  1  0
  4  3  1  0
  4  5  2  0
  6  5  1  0
  7  6  1  0
  8  7  2  0
  9  8  1  0
 10  9  2  0
 10 11  1  0
 11 12  2  0
 12  7  1  0
 12  4  1  0
 13 14  2  0
 16 15  1  6
 16 18  1  0
 17 16  1  0
 19 18  1  1
 20 19  1  0
 20 13  1  0
 21 22  2  0
 21 19  1  0
 23 21  1  0
 24 23  1  0
 25 24  1  0
 26 25  1  0
 26 27  1  0
 27 28  1  1
 27 23  1  0
 28 30  1  0
 29 28  2  0
M  END
$$$$
