DNK.pdb
     RDKit          3D

 26 25  0  0  1  0  0  0  0  0999 V2000
   12.3039  -21.0918   21.8707 N   0  0  0  0  0  0  0  0  0  0  0  0
   13.3884  -20.1784   21.8025 C   0  0  1  0  0  0  0  0  0  0  0  0
   13.8363  -20.1335   20.3429 C   0  0  0  0  0  0  0  0  0  0  0  0
   14.4270  -21.4495   19.9768 C   0  0  0  0  0  0  0  0  0  0  0  0
   13.7234  -22.2928   19.3603 O   0  0  0  0  0  0  0  0  0  0  0  0
   13.1585  -18.8291   22.3179 C   0  0  0  0  0  0  0  0  0  0  0  0
   14.1296  -17.9861   22.3454 O   0  0  0  0  0  0  0  0  0  0  0  0
   15.7271  -21.7978   20.2834 O   0  0  0  0  0  0  0  0  0  0  0  0
   11.1977  -15.9045   20.6188 N   0  0  0  0  0  0  0  0  0  0  0  0
   10.1808  -16.4087   21.4708 C   0  0  0  0  0  0  0  0  0  0  0  0
    9.1448  -16.8438   20.9140 O   0  0  0  0  0  0  0  0  0  0  0  0
   10.4193  -16.3806   22.9266 C   0  0  0  0  0  0  0  0  0  0  0  0
   11.7199  -17.0011   23.3421 C   0  0  2  0  0  0  0  0  0  0  0  0
   11.9368  -18.3318   22.8096 N   0  0  0  0  0  0  0  0  0  0  0  0
   11.9870  -16.9345   24.7760 C   0  0  0  0  0  0  0  0  0  0  0  0
   12.4636  -15.8456   25.2458 O   0  0  0  0  0  0  0  0  0  0  0  0
   11.7590  -17.9914   25.6882 N   0  0  0  0  0  0  0  0  0  0  0  0
   11.6463  -17.7953   27.1381 C   0  0  1  0  0  0  0  0  0  0  0  0
   10.5519  -16.8475   27.4790 C   0  0  0  0  0  0  0  0  0  0  0  0
   11.1001  -15.6326   28.1547 C   0  0  0  0  0  0  0  0  0  0  0  0
   10.0277  -14.6567   28.5801 C   0  0  0  0  0  0  0  0  0  0  0  0
   10.6343  -13.4101   29.2019 C   0  0  0  0  0  0  0  0  0  0  0  0
    9.6329  -12.4524   29.6146 N   0  0  0  0  0  0  0  0  0  0  0  0
   11.5419  -19.1275   27.7786 C   0  0  0  0  0  0  0  0  0  0  0  0
   11.8094  -19.4017   29.0917 O   0  0  0  0  0  0  0  0  0  0  0  0
   11.1724  -20.1311   27.0716 O   0  0  0  0  0  0  0  0  0  0  0  0
  2  3  1  0
  2  1  1  6
  4  3  1  0
  4  8  1  0
  5  4  2  0
  6  2  1  0
  7  6  2  0
  9 10  1  0
 10 12  1  0
 11 10  2  0
 13 12  1  1
 13 14  1  0
 14  6  1  0
 15 13  1  0
 15 17  1  0
 16 15  2  0
 18 19  1  6
 18 17  1  0
 20 21  1  0
 20 19  1  0
 22 21  1  0
 23 22  1  0
 24 18  1  0
 25 24  1  0
 26 24  2  0
M  END
$$$$
