DNK.pdb
     RDKit          3D

 26 25  0  0  1  0  0  0  0  0999 V2000
   11.3433  -18.6166   19.5545 N   0  0  0  0  0  0  0  0  0  0  0  0
   10.1410  -17.8922   19.3426 C   0  0  1  0  0  0  0  0  0  0  0  0
    9.4251  -18.5590   18.1697 C   0  0  0  0  0  0  0  0  0  0  0  0
   10.2841  -18.4601   16.9584 C   0  0  0  0  0  0  0  0  0  0  0  0
   11.4631  -18.9012   16.9990 O   0  0  0  0  0  0  0  0  0  0  0  0
    9.2404  -17.7439   20.4855 C   0  0  0  0  0  0  0  0  0  0  0  0
    8.1677  -17.0451   20.3618 O   0  0  0  0  0  0  0  0  0  0  0  0
    9.8470  -17.9007   15.7744 O   0  0  0  0  0  0  0  0  0  0  0  0
    8.0456  -19.6239   26.1291 N   0  0  0  0  0  0  0  0  0  0  0  0
    7.4929  -19.3301   24.8555 C   0  0  0  0  0  0  0  0  0  0  0  0
    6.2901  -18.9759   24.8322 O   0  0  0  0  0  0  0  0  0  0  0  0
    8.3659  -19.4638   23.6734 C   0  0  0  0  0  0  0  0  0  0  0  0
    8.5073  -18.2017   22.8757 C   0  0  2  0  0  0  0  0  0  0  0  0
    9.4293  -18.3066   21.7620 N   0  0  0  0  0  0  0  0  0  0  0  0
    8.7520  -17.0071   23.6788 C   0  0  0  0  0  0  0  0  0  0  0  0
    9.9650  -16.6961   23.9343 O   0  0  0  0  0  0  0  0  0  0  0  0
    7.7415  -16.1655   24.2000 N   0  0  0  0  0  0  0  0  0  0  0  0
    8.0223  -14.9707   25.0045 C   0  0  1  0  0  0  0  0  0  0  0  0
    6.8013  -14.1449   25.2030 C   0  0  0  0  0  0  0  0  0  0  0  0
    7.1001  -12.9648   26.0697 C   0  0  0  0  0  0  0  0  0  0  0  0
    5.8856  -12.1084   26.3437 C   0  0  0  0  0  0  0  0  0  0  0  0
    6.2559  -10.8680   27.1393 C   0  0  0  0  0  0  0  0  0  0  0  0
    5.1086  -10.0444   27.4486 N   0  0  0  0  0  0  0  0  0  0  0  0
    8.6961  -15.4008   26.2523 C   0  0  0  0  0  0  0  0  0  0  0  0
    9.7210  -14.7394   26.8712 O   0  0  0  0  0  0  0  0  0  0  0  0
    8.3114  -16.4801   26.8275 O   0  0  0  0  0  0  0  0  0  0  0  0
  2  3  1  0
  2  1  1  1
  4  3  1  0
  4  8  1  0
  5  4  2  0
  6  2  1  0
  7  6  2  0
  9 10  1  0
 10 12  1  0
 11 10  2  0
 13 12  1  1
 13 14  1  0
 14  6  1  0
 15 13  1  0
 15 17  1  0
 16 15  2  0
 18 19  1  1
 18 17  1  0
 20 21  1  0
 20 19  1  0
 22 21  1  0
 23 22  1  0
 24 18  1  0
 25 24  1  0
 26 24  2  0
M  END
$$$$
