DNK.pdb
     RDKit          3D

 26 25  0  0  1  0  0  0  0  0999 V2000
   15.7594  -12.6651   16.6582 N   0  0  0  0  0  0  0  0  0  0  0  0
   15.6937  -14.0256   17.0581 C   0  0  1  0  0  0  0  0  0  0  0  0
   16.7603  -14.2213   18.1337 C   0  0  0  0  0  0  0  0  0  0  0  0
   16.7952  -15.6566   18.5257 C   0  0  0  0  0  0  0  0  0  0  0  0
   16.8320  -16.5412   17.6301 O   0  0  0  0  0  0  0  0  0  0  0  0
   14.3971  -14.5258   17.5140 C   0  0  0  0  0  0  0  0  0  0  0  0
   13.5317  -14.9254   16.6505 O   0  0  0  0  0  0  0  0  0  0  0  0
   16.7892  -16.0735   19.8417 O   0  0  0  0  0  0  0  0  0  0  0  0
   10.8109  -17.9019   20.1714 N   0  0  0  0  0  0  0  0  0  0  0  0
   10.9470  -16.8729   19.2037 C   0  0  0  0  0  0  0  0  0  0  0  0
    9.8855  -16.3962   18.7361 O   0  0  0  0  0  0  0  0  0  0  0  0
   12.3100  -16.4508   18.8278 C   0  0  0  0  0  0  0  0  0  0  0  0
   12.6718  -15.0734   19.2982 C   0  0  2  0  0  0  0  0  0  0  0  0
   13.9750  -14.6203   18.8536 N   0  0  0  0  0  0  0  0  0  0  0  0
   12.4744  -14.8553   20.7283 C   0  0  0  0  0  0  0  0  0  0  0  0
   11.3106  -14.5065   21.1253 O   0  0  0  0  0  0  0  0  0  0  0  0
   13.4807  -14.9993   21.7120 N   0  0  0  0  0  0  0  0  0  0  0  0
   13.2548  -15.6503   23.0077 C   0  0  1  0  0  0  0  0  0  0  0  0
   12.4707  -16.9055   22.8606 C   0  0  0  0  0  0  0  0  0  0  0  0
   12.2059  -17.5197   24.1969 C   0  0  0  0  0  0  0  0  0  0  0  0
   11.4240  -18.8098   24.1115 C   0  0  0  0  0  0  0  0  0  0  0  0
   11.1898  -19.4030   25.4906 C   0  0  0  0  0  0  0  0  0  0  0  0
   10.3761  -20.5973   25.4500 N   0  0  0  0  0  0  0  0  0  0  0  0
   14.5653  -15.8069   23.6816 C   0  0  0  0  0  0  0  0  0  0  0  0
   15.1719  -14.8673   24.4690 O   0  0  0  0  0  0  0  0  0  0  0  0
   15.2133  -16.9035   23.5358 O   0  0  0  0  0  0  0  0  0  0  0  0
  2  3  1  0
  2  1  1  1
  4  3  1  0
  4  8  1  0
  5  4  2  0
  6  2  1  0
  7  6  2  0
  9 10  1  0
 10 12  1  0
 11 10  2  0
 13 12  1  1
 13 14  1  0
 14  6  1  0
 15 13  1  0
 15 17  1  0
 16 15  2  0
 18 19  1  6
 18 17  1  0
 20 21  1  0
 20 19  1  0
 22 21  1  0
 23 22  1  0
 24 18  1  0
 25 24  1  0
 26 24  2  0
M  END
$$$$
