DNK.pdb
     RDKit          3D

 26 25  0  0  1  0  0  0  0  0999 V2000
    8.1834  -16.9893   14.0498 N   0  0  0  0  0  0  0  0  0  0  0  0
    9.2753  -16.0851   14.1233 C   0  0  1  0  0  0  0  0  0  0  0  0
    9.2737  -15.2848   12.8224 C   0  0  0  0  0  0  0  0  0  0  0  0
    8.7293  -16.1368   11.7303 C   0  0  0  0  0  0  0  0  0  0  0  0
    8.3707  -17.3165   11.9870 O   0  0  0  0  0  0  0  0  0  0  0  0
    9.3278  -15.1942   15.2821 C   0  0  0  0  0  0  0  0  0  0  0  0
    8.8541  -14.0021   15.1881 O   0  0  0  0  0  0  0  0  0  0  0  0
    8.5954  -15.6924   10.4302 O   0  0  0  0  0  0  0  0  0  0  0  0
    7.9265  -12.2800   19.4645 N   0  0  0  0  0  0  0  0  0  0  0  0
    8.1863  -13.6732   19.3910 C   0  0  0  0  0  0  0  0  0  0  0  0
    8.2645  -14.2893   20.4805 O   0  0  0  0  0  0  0  0  0  0  0  0
    8.3431  -14.2795   18.0549 C   0  0  0  0  0  0  0  0  0  0  0  0
    9.7465  -14.7051   17.7409 C   0  0  2  0  0  0  0  0  0  0  0  0
    9.8650  -15.5136   16.5435 N   0  0  0  0  0  0  0  0  0  0  0  0
   10.4645  -15.2896   18.8699 C   0  0  0  0  0  0  0  0  0  0  0  0
   10.2328  -16.5132   19.1574 O   0  0  0  0  0  0  0  0  0  0  0  0
   11.4000  -14.5985   19.6750 N   0  0  0  0  0  0  0  0  0  0  0  0
   12.6921  -15.1657   20.0778 C   0  0  1  0  0  0  0  0  0  0  0  0
   13.8238  -14.2856   19.6818 C   0  0  0  0  0  0  0  0  0  0  0  0
   15.1308  -14.9226   20.0269 C   0  0  0  0  0  0  0  0  0  0  0  0
   16.3211  -14.0607   19.6750 C   0  0  0  0  0  0  0  0  0  0  0  0
   17.6209  -14.7115   20.1171 C   0  0  0  0  0  0  0  0  0  0  0  0
   18.7866  -14.0292   19.6014 N   0  0  0  0  0  0  0  0  0  0  0  0
   12.6261  -15.4875   21.5228 C   0  0  0  0  0  0  0  0  0  0  0  0
   11.5437  -15.2842   22.3340 O   0  0  0  0  0  0  0  0  0  0  0  0
   13.6526  -16.0009   22.0940 O   0  0  0  0  0  0  0  0  0  0  0  0
  2  3  1  0
  2  1  1  1
  4  3  1  0
  4  8  1  0
  5  4  2  0
  6  2  1  0
  7  6  2  0
  9 10  1  0
 10 12  1  0
 11 10  2  0
 13 12  1  1
 13 14  1  0
 14  6  1  0
 15 13  1  0
 15 17  1  0
 16 15  2  0
 18 19  1  1
 18 17  1  0
 20 21  1  0
 20 19  1  0
 22 21  1  0
 23 22  1  0
 24 18  1  0
 25 24  1  0
 26 24  2  0
M  END
$$$$
