DNK.pdb
     RDKit          3D

 26 25  0  0  1  0  0  0  0  0999 V2000
   13.0161  -19.0947   19.0937 N   0  0  0  0  0  0  0  0  0  0  0  0
   13.0385  -18.0520   20.0568 C   0  0  1  0  0  0  0  0  0  0  0  0
   13.6278  -16.8247   19.3646 C   0  0  0  0  0  0  0  0  0  0  0  0
   15.0876  -17.0351   19.1656 C   0  0  0  0  0  0  0  0  0  0  0  0
   15.7205  -17.7730   19.9662 O   0  0  0  0  0  0  0  0  0  0  0  0
   11.7738  -17.7220   20.7133 C   0  0  0  0  0  0  0  0  0  0  0  0
   10.9577  -16.9063   20.1450 O   0  0  0  0  0  0  0  0  0  0  0  0
   15.7937  -16.4533   18.1318 O   0  0  0  0  0  0  0  0  0  0  0  0
    9.6290  -21.4610   22.2257 N   0  0  0  0  0  0  0  0  0  0  0  0
    9.0447  -20.1750   22.0885 C   0  0  0  0  0  0  0  0  0  0  0  0
    8.2984  -19.9990   21.0962 O   0  0  0  0  0  0  0  0  0  0  0  0
    9.3582  -19.1586   23.1111 C   0  0  0  0  0  0  0  0  0  0  0  0
   10.0514  -17.9441   22.5692 C   0  0  2  0  0  0  0  0  0  0  0  0
   11.3345  -18.2211   21.9541 N   0  0  0  0  0  0  0  0  0  0  0  0
   10.1222  -16.8247   23.5040 C   0  0  0  0  0  0  0  0  0  0  0  0
   11.1474  -16.7430   24.2629 O   0  0  0  0  0  0  0  0  0  0  0  0
    9.1346  -15.8205   23.6350 N   0  0  0  0  0  0  0  0  0  0  0  0
    9.0746  -14.8913   24.7694 C   0  0  1  0  0  0  0  0  0  0  0  0
    7.8872  -13.9997   24.6846 C   0  0  0  0  0  0  0  0  0  0  0  0
    7.8098  -13.1118   25.8841 C   0  0  0  0  0  0  0  0  0  0  0  0
    6.6475  -12.1476   25.8334 C   0  0  0  0  0  0  0  0  0  0  0  0
    6.6528  -11.2167   27.0342 C   0  0  0  0  0  0  0  0  0  0  0  0
    5.4983  -10.3470   27.0671 N   0  0  0  0  0  0  0  0  0  0  0  0
    9.1764  -15.6802   26.0197 C   0  0  0  0  0  0  0  0  0  0  0  0
    8.5702  -16.8842   26.2519 O   0  0  0  0  0  0  0  0  0  0  0  0
    9.8843  -15.2254   26.9870 O   0  0  0  0  0  0  0  0  0  0  0  0
  2  3  1  0
  2  1  1  6
  4  3  1  0
  4  8  1  0
  5  4  2  0
  6  2  1  0
  7  6  2  0
  9 10  1  0
 10 12  1  0
 11 10  2  0
 13 12  1  1
 13 14  1  0
 14  6  1  0
 15 13  1  0
 15 17  1  0
 16 15  2  0
 18 19  1  1
 18 17  1  0
 20 21  1  0
 20 19  1  0
 22 21  1  0
 23 22  1  0
 24 18  1  0
 25 24  1  0
 26 24  2  0
M  END
$$$$
