DNK.pdb
     RDKit          3D

 26 25  0  0  1  0  0  0  0  0999 V2000
    8.2848  -18.0535   17.3930 N   0  0  0  0  0  0  0  0  0  0  0  0
    9.5941  -17.5730   17.6578 C   0  0  1  0  0  0  0  0  0  0  0  0
   10.1048  -16.9470   16.3616 C   0  0  0  0  0  0  0  0  0  0  0  0
   10.1506  -17.9928   15.3037 C   0  0  0  0  0  0  0  0  0  0  0  0
    9.0744  -18.4935   14.8825 O   0  0  0  0  0  0  0  0  0  0  0  0
    9.7518  -16.6480   18.7797 C   0  0  0  0  0  0  0  0  0  0  0  0
   10.9285  -16.2502   19.1137 O   0  0  0  0  0  0  0  0  0  0  0  0
   11.3312  -18.4487   14.7524 O   0  0  0  0  0  0  0  0  0  0  0  0
    6.7115  -12.9365   19.0746 N   0  0  0  0  0  0  0  0  0  0  0  0
    7.9347  -13.2425   19.7258 C   0  0  0  0  0  0  0  0  0  0  0  0
    8.9655  -12.6870   19.2768 O   0  0  0  0  0  0  0  0  0  0  0  0
    7.8980  -14.1793   20.8652 C   0  0  0  0  0  0  0  0  0  0  0  0
    8.8781  -15.3092   20.7556 C   0  0  2  0  0  0  0  0  0  0  0  0
    8.7102  -16.1242   19.5686 N   0  0  0  0  0  0  0  0  0  0  0  0
    8.9991  -16.1196   21.9641 C   0  0  0  0  0  0  0  0  0  0  0  0
    8.0006  -16.8422   22.3022 O   0  0  0  0  0  0  0  0  0  0  0  0
   10.1437  -16.1628   22.7942 N   0  0  0  0  0  0  0  0  0  0  0  0
   10.2299  -16.9845   24.0071 C   0  0  1  0  0  0  0  0  0  0  0  0
   11.6220  -17.4430   24.2601 C   0  0  0  0  0  0  0  0  0  0  0  0
   11.6900  -18.2486   25.5168 C   0  0  0  0  0  0  0  0  0  0  0  0
   13.0724  -18.7890   25.8000 C   0  0  0  0  0  0  0  0  0  0  0  0
   13.0571  -19.7469   26.9793 C   0  0  0  0  0  0  0  0  0  0  0  0
   14.2994  -20.4730   27.1204 N   0  0  0  0  0  0  0  0  0  0  0  0
    9.6072  -16.2317   25.1214 C   0  0  0  0  0  0  0  0  0  0  0  0
    8.9329  -16.7842   26.1754 O   0  0  0  0  0  0  0  0  0  0  0  0
    9.6880  -14.9522   25.1301 O   0  0  0  0  0  0  0  0  0  0  0  0
  2  3  1  0
  2  1  1  6
  4  3  1  0
  4  8  1  0
  5  4  2  0
  6  2  1  0
  7  6  2  0
  9 10  1  0
 10 12  1  0
 11 10  2  0
 13 12  1  1
 13 14  1  0
 14  6  1  0
 15 13  1  0
 15 17  1  0
 16 15  2  0
 18 19  1  1
 18 17  1  0
 20 21  1  0
 20 19  1  0
 22 21  1  0
 23 22  1  0
 24 18  1  0
 25 24  1  0
 26 24  2  0
M  END
$$$$
