DNK.pdb
     RDKit          3D

 26 25  0  0  1  0  0  0  0  0999 V2000
   12.7835  -15.1080   17.4837 N   0  0  0  0  0  0  0  0  0  0  0  0
   13.2151  -15.3326   18.8174 C   0  0  1  0  0  0  0  0  0  0  0  0
   14.1545  -14.1830   19.1766 C   0  0  0  0  0  0  0  0  0  0  0  0
   15.4798  -14.4249   18.5442 C   0  0  0  0  0  0  0  0  0  0  0  0
   15.6598  -15.4714   17.8671 O   0  0  0  0  0  0  0  0  0  0  0  0
   12.1785  -15.4951   19.8363 C   0  0  0  0  0  0  0  0  0  0  0  0
   11.7899  -14.4739   20.5149 O   0  0  0  0  0  0  0  0  0  0  0  0
   16.5380  -13.5465   18.6643 O   0  0  0  0  0  0  0  0  0  0  0  0
    9.2965  -17.1053   18.7475 N   0  0  0  0  0  0  0  0  0  0  0  0
    9.0647  -18.1680   19.6591 C   0  0  0  0  0  0  0  0  0  0  0  0
    8.3764  -19.1288   19.2399 O   0  0  0  0  0  0  0  0  0  0  0  0
    9.6438  -18.0596   21.0119 C   0  0  0  0  0  0  0  0  0  0  0  0
   10.5270  -16.8623   21.2014 C   0  0  2  0  0  0  0  0  0  0  0  0
   11.5329  -16.7007   20.1701 N   0  0  0  0  0  0  0  0  0  0  0  0
   11.0919  -16.7380   22.5420 C   0  0  0  0  0  0  0  0  0  0  0  0
   12.2624  -17.2101   22.7441 O   0  0  0  0  0  0  0  0  0  0  0  0
   10.4362  -16.1336   23.6400 N   0  0  0  0  0  0  0  0  0  0  0  0
   10.9822  -16.1281   25.0022 C   0  0  1  0  0  0  0  0  0  0  0  0
   10.1953  -15.2450   25.9039 C   0  0  0  0  0  0  0  0  0  0  0  0
   10.7355  -15.2998   27.2961 C   0  0  0  0  0  0  0  0  0  0  0  0
    9.9842  -14.4096   28.2586 C   0  0  0  0  0  0  0  0  0  0  0  0
   10.5610  -14.5059   29.6609 C   0  0  0  0  0  0  0  0  0  0  0  0
    9.9113  -13.6096   30.5909 N   0  0  0  0  0  0  0  0  0  0  0  0
   11.1075  -17.5332   25.4562 C   0  0  0  0  0  0  0  0  0  0  0  0
   12.1771  -18.0598   26.1267 O   0  0  0  0  0  0  0  0  0  0  0  0
   10.1510  -18.3526   25.2168 O   0  0  0  0  0  0  0  0  0  0  0  0
  2  3  1  0
  2  1  1  6
  4  3  1  0
  4  8  1  0
  5  4  2  0
  6  2  1  0
  7  6  2  0
  9 10  1  0
 10 12  1  0
 11 10  2  0
 13 12  1  1
 13 14  1  0
 14  6  1  0
 15 13  1  0
 15 17  1  0
 16 15  2  0
 18 19  1  1
 18 17  1  0
 20 21  1  0
 20 19  1  0
 22 21  1  0
 23 22  1  0
 24 18  1  0
 25 24  1  0
 26 24  2  0
M  END
$$$$
