DNK.pdb
     RDKit          3D

 26 25  0  0  1  0  0  0  0  0999 V2000
   13.1029  -16.8365   16.7627 N   0  0  0  0  0  0  0  0  0  0  0  0
   13.5073  -15.5099   17.0658 C   0  0  1  0  0  0  0  0  0  0  0  0
   13.6487  -14.7766   15.7334 C   0  0  0  0  0  0  0  0  0  0  0  0
   14.6227  -15.5086   14.8786 C   0  0  0  0  0  0  0  0  0  0  0  0
   14.3725  -16.6932   14.5319 O   0  0  0  0  0  0  0  0  0  0  0  0
   12.6667  -14.7504   17.9909 C   0  0  0  0  0  0  0  0  0  0  0  0
   13.1677  -13.7539   18.6314 O   0  0  0  0  0  0  0  0  0  0  0  0
   15.8044  -14.9459   14.4399 O   0  0  0  0  0  0  0  0  0  0  0  0
    7.9934  -12.0219   19.5551 N   0  0  0  0  0  0  0  0  0  0  0  0
    8.1801  -13.4207   19.7044 C   0  0  0  0  0  0  0  0  0  0  0  0
    7.5857  -13.9686   20.6631 O   0  0  0  0  0  0  0  0  0  0  0  0
    9.0490  -14.1117   18.7323 C   0  0  0  0  0  0  0  0  0  0  0  0
   10.4767  -14.2372   19.1742 C   0  0  2  0  0  0  0  0  0  0  0  0
   11.3103  -15.0037   18.2693 N   0  0  0  0  0  0  0  0  0  0  0  0
   10.6416  -14.6599   20.5620 C   0  0  0  0  0  0  0  0  0  0  0  0
   10.0669  -13.9684   21.4703 O   0  0  0  0  0  0  0  0  0  0  0  0
   11.3960  -15.7817   20.9785 N   0  0  0  0  0  0  0  0  0  0  0  0
   11.5826  -16.1505   22.3867 C   0  0  1  0  0  0  0  0  0  0  0  0
   10.9901  -17.4812   22.6873 C   0  0  0  0  0  0  0  0  0  0  0  0
   11.3208  -17.9008   24.0828 C   0  0  0  0  0  0  0  0  0  0  0  0
   10.7704  -19.2624   24.4382 C   0  0  0  0  0  0  0  0  0  0  0  0
   11.0028  -19.5835   25.9050 C   0  0  0  0  0  0  0  0  0  0  0  0
   10.4536  -20.8655   26.2861 N   0  0  0  0  0  0  0  0  0  0  0  0
   13.0221  -16.0188   22.7128 C   0  0  0  0  0  0  0  0  0  0  0  0
   13.5306  -15.5661   23.8991 O   0  0  0  0  0  0  0  0  0  0  0  0
   13.8929  -16.3480   21.8312 O   0  0  0  0  0  0  0  0  0  0  0  0
  2  3  1  0
  2  1  1  6
  4  3  1  0
  4  8  1  0
  5  4  2  0
  6  2  1  0
  7  6  2  0
  9 10  1  0
 10 12  1  0
 11 10  2  0
 13 12  1  6
 13 14  1  0
 14  6  1  0
 15 13  1  0
 15 17  1  0
 16 15  2  0
 18 19  1  6
 18 17  1  0
 20 21  1  0
 20 19  1  0
 22 21  1  0
 23 22  1  0
 24 18  1  0
 25 24  1  0
 26 24  2  0
M  END
$$$$
