DNK.pdb
     RDKit          3D

 26 25  0  0  1  0  0  0  0  0999 V2000
   10.6583  -18.5637   19.3587 N   0  0  0  0  0  0  0  0  0  0  0  0
   10.9506  -18.7499   20.7353 C   0  0  1  0  0  0  0  0  0  0  0  0
   12.2373  -17.9782   21.0214 C   0  0  0  0  0  0  0  0  0  0  0  0
   13.3040  -18.4567   20.1005 C   0  0  0  0  0  0  0  0  0  0  0  0
   13.4573  -19.6940   19.9220 O   0  0  0  0  0  0  0  0  0  0  0  0
    9.9056  -18.3927   21.6942 C   0  0  0  0  0  0  0  0  0  0  0  0
    9.0493  -17.4825   21.3901 O   0  0  0  0  0  0  0  0  0  0  0  0
   14.1469  -17.5996   19.4218 O   0  0  0  0  0  0  0  0  0  0  0  0
    7.5428  -19.7034   27.1739 N   0  0  0  0  0  0  0  0  0  0  0  0
    7.2633  -19.4205   25.8117 C   0  0  0  0  0  0  0  0  0  0  0  0
    6.1568  -18.8851   25.5637 O   0  0  0  0  0  0  0  0  0  0  0  0
    8.2837  -19.7753   24.8066 C   0  0  0  0  0  0  0  0  0  0  0  0
    8.6566  -18.6455   23.8934 C   0  0  2  0  0  0  0  0  0  0  0  0
    9.7285  -18.9611   22.9699 N   0  0  0  0  0  0  0  0  0  0  0  0
    8.8753  -17.3712   24.5717 C   0  0  0  0  0  0  0  0  0  0  0  0
   10.0339  -17.1454   25.0616 O   0  0  0  0  0  0  0  0  0  0  0  0
    7.8948  -16.3639   24.7302 N   0  0  0  0  0  0  0  0  0  0  0  0
    8.1267  -15.1233   25.4790 C   0  0  1  0  0  0  0  0  0  0  0  0
    6.9432  -14.2238   25.4284 C   0  0  0  0  0  0  0  0  0  0  0  0
    7.2105  -12.9605   26.1803 C   0  0  0  0  0  0  0  0  0  0  0  0
    6.0471  -11.9966   26.1516 C   0  0  0  0  0  0  0  0  0  0  0  0
    6.4092  -10.6782   26.8144 C   0  0  0  0  0  0  0  0  0  0  0  0
    5.3214   -9.7262   26.7871 N   0  0  0  0  0  0  0  0  0  0  0  0
    8.5803  -15.4838   26.8429 C   0  0  0  0  0  0  0  0  0  0  0  0
    9.6051  -14.8864   27.5240 O   0  0  0  0  0  0  0  0  0  0  0  0
    7.9842  -16.4318   27.4671 O   0  0  0  0  0  0  0  0  0  0  0  0
  2  3  1  0
  2  1  1  6
  4  3  1  0
  4  8  1  0
  5  4  2  0
  6  2  1  0
  7  6  2  0
  9 10  1  0
 10 12  1  0
 11 10  2  0
 13 12  1  1
 13 14  1  0
 14  6  1  0
 15 13  1  0
 15 17  1  0
 16 15  2  0
 18 19  1  1
 18 17  1  0
 20 21  1  0
 20 19  1  0
 22 21  1  0
 23 22  1  0
 24 18  1  0
 25 24  1  0
 26 24  2  0
M  END
$$$$
