DNK.pdb
     RDKit          3D

 26 25  0  0  1  0  0  0  0  0999 V2000
   12.2072  -18.1345   17.4979 N   0  0  0  0  0  0  0  0  0  0  0  0
   11.0830  -17.3281   17.8159 C   0  0  1  0  0  0  0  0  0  0  0  0
   10.0646  -17.5295   16.6955 C   0  0  0  0  0  0  0  0  0  0  0  0
   10.7479  -17.3617   15.3840 C   0  0  0  0  0  0  0  0  0  0  0  0
   12.0065  -17.3507   15.3397 O   0  0  0  0  0  0  0  0  0  0  0  0
   10.4635  -17.5323   19.1249 C   0  0  0  0  0  0  0  0  0  0  0  0
    9.4416  -16.8270   19.4605 O   0  0  0  0  0  0  0  0  0  0  0  0
   10.0611  -17.2155   14.1954 O   0  0  0  0  0  0  0  0  0  0  0  0
    9.7657  -21.9167   19.9522 N   0  0  0  0  0  0  0  0  0  0  0  0
    9.1810  -20.8809   20.7261 C   0  0  0  0  0  0  0  0  0  0  0  0
    7.9629  -20.6535   20.5332 O   0  0  0  0  0  0  0  0  0  0  0  0
   10.0419  -20.1612   21.6843 C   0  0  0  0  0  0  0  0  0  0  0  0
   10.2229  -18.7068   21.3661 C   0  0  2  0  0  0  0  0  0  0  0  0
   10.8835  -18.4565   20.1003 N   0  0  0  0  0  0  0  0  0  0  0  0
   10.8031  -17.9215   22.4516 C   0  0  0  0  0  0  0  0  0  0  0  0
   12.0606  -17.6949   22.4202 O   0  0  0  0  0  0  0  0  0  0  0  0
   10.0743  -17.3923   23.5424 N   0  0  0  0  0  0  0  0  0  0  0  0
   10.6899  -16.6086   24.6197 C   0  0  1  0  0  0  0  0  0  0  0  0
    9.6663  -15.9132   25.4447 C   0  0  0  0  0  0  0  0  0  0  0  0
   10.3117  -15.1815   26.5766 C   0  0  0  0  0  0  0  0  0  0  0  0
    9.3203  -14.4486   27.4502 C   0  0  0  0  0  0  0  0  0  0  0  0
   10.0153  -13.7636   28.6148 C   0  0  0  0  0  0  0  0  0  0  0  0
    9.0829  -13.1569   29.5383 N   0  0  0  0  0  0  0  0  0  0  0  0
   11.6032  -17.4980   25.3752 C   0  0  0  0  0  0  0  0  0  0  0  0
   12.8962  -17.2075   25.7139 O   0  0  0  0  0  0  0  0  0  0  0  0
   11.1785  -18.6450   25.7597 O   0  0  0  0  0  0  0  0  0  0  0  0
  2  3  1  0
  2  1  1  6
  4  3  1  0
  4  8  1  0
  5  4  2  0
  6  2  1  0
  7  6  2  0
  9 10  1  0
 10 12  1  0
 11 10  2  0
 13 12  1  1
 13 14  1  0
 14  6  1  0
 15 13  1  0
 15 17  1  0
 16 15  2  0
 18 19  1  1
 18 17  1  0
 20 21  1  0
 20 19  1  0
 22 21  1  0
 23 22  1  0
 24 18  1  0
 25 24  1  0
 26 24  2  0
M  END
$$$$
