DNK.pdb
     RDKit          3D

 26 25  0  0  1  0  0  0  0  0999 V2000
    9.7715  -17.7696   15.7766 N   0  0  0  0  0  0  0  0  0  0  0  0
    9.9713  -16.3770   15.5866 C   0  0  1  0  0  0  0  0  0  0  0  0
    9.1025  -15.9645   14.4000 C   0  0  0  0  0  0  0  0  0  0  0  0
    9.5948  -16.6541   13.1764 C   0  0  0  0  0  0  0  0  0  0  0  0
    9.4865  -17.9056   13.0864 O   0  0  0  0  0  0  0  0  0  0  0  0
    9.7304  -15.5049   16.7358 C   0  0  0  0  0  0  0  0  0  0  0  0
    9.8481  -14.2312   16.6016 O   0  0  0  0  0  0  0  0  0  0  0  0
   10.1728  -15.9808   12.1190 O   0  0  0  0  0  0  0  0  0  0  0  0
    7.7112  -11.8704   19.8863 N   0  0  0  0  0  0  0  0  0  0  0  0
    7.4015  -13.2551   19.8593 C   0  0  0  0  0  0  0  0  0  0  0  0
    6.7137  -13.6965   20.8105 O   0  0  0  0  0  0  0  0  0  0  0  0
    7.9077  -14.0566   18.7286 C   0  0  0  0  0  0  0  0  0  0  0  0
    8.9526  -15.0609   19.1145 C   0  0  2  0  0  0  0  0  0  0  0  0
    9.3693  -15.9270   18.0293 N   0  0  0  0  0  0  0  0  0  0  0  0
    8.6454  -15.8122   20.3281 C   0  0  0  0  0  0  0  0  0  0  0  0
    7.7470  -16.7188   20.2591 O   0  0  0  0  0  0  0  0  0  0  0  0
    9.2689  -15.6089   21.5814 N   0  0  0  0  0  0  0  0  0  0  0  0
   10.0388  -16.6467   22.2771 C   0  0  1  0  0  0  0  0  0  0  0  0
   11.1233  -17.1924   21.4180 C   0  0  0  0  0  0  0  0  0  0  0  0
   11.9117  -18.2237   22.1582 C   0  0  0  0  0  0  0  0  0  0  0  0
   13.0058  -18.8458   21.3220 C   0  0  0  0  0  0  0  0  0  0  0  0
   13.8030  -19.8592   22.1257 C   0  0  0  0  0  0  0  0  0  0  0  0
   14.8647  -20.4670   21.3552 N   0  0  0  0  0  0  0  0  0  0  0  0
   10.4883  -16.0959   23.5774 C   0  0  0  0  0  0  0  0  0  0  0  0
   10.6809  -16.8181   24.7230 O   0  0  0  0  0  0  0  0  0  0  0  0
   10.7260  -14.8397   23.6728 O   0  0  0  0  0  0  0  0  0  0  0  0
  2  3  1  0
  2  1  1  1
  4  3  1  0
  4  8  1  0
  5  4  2  0
  6  2  1  0
  7  6  2  0
  9 10  1  0
 10 12  1  0
 11 10  2  0
 13 12  1  6
 13 14  1  0
 14  6  1  0
 15 13  1  0
 15 17  1  0
 16 15  2  0
 18 19  1  6
 18 17  1  0
 20 21  1  0
 20 19  1  0
 22 21  1  0
 23 22  1  0
 24 18  1  0
 25 24  1  0
 26 24  2  0
M  END
$$$$
