DNK.pdb
     RDKit          3D

 26 25  0  0  1  0  0  0  0  0999 V2000
    9.1385  -12.6573   18.7510 N   0  0  0  0  0  0  0  0  0  0  0  0
    7.9382  -13.4115   18.8255 C   0  0  1  0  0  0  0  0  0  0  0  0
    7.5292  -13.7326   17.3893 C   0  0  0  0  0  0  0  0  0  0  0  0
    8.6816  -14.3591   16.6861 C   0  0  0  0  0  0  0  0  0  0  0  0
    9.7534  -14.5623   17.3154 O   0  0  0  0  0  0  0  0  0  0  0  0
    7.9608  -14.6238   19.6434 C   0  0  0  0  0  0  0  0  0  0  0  0
    7.0911  -15.5477   19.4330 O   0  0  0  0  0  0  0  0  0  0  0  0
    8.6341  -14.7343   15.3584 O   0  0  0  0  0  0  0  0  0  0  0  0
   10.6241  -18.7647   20.2353 N   0  0  0  0  0  0  0  0  0  0  0  0
    9.7891  -17.6537   19.9482 C   0  0  0  0  0  0  0  0  0  0  0  0
   10.0604  -16.9984   18.9140 O   0  0  0  0  0  0  0  0  0  0  0  0
    8.6819  -17.3600   20.8783 C   0  0  0  0  0  0  0  0  0  0  0  0
    8.8084  -16.0390   21.5770 C   0  0  2  0  0  0  0  0  0  0  0  0
    8.8701  -14.9005   20.6819 N   0  0  0  0  0  0  0  0  0  0  0  0
    9.8558  -15.9943   22.5933 C   0  0  0  0  0  0  0  0  0  0  0  0
   10.5811  -17.0347   22.7511 O   0  0  0  0  0  0  0  0  0  0  0  0
   10.1272  -14.8807   23.4223 N   0  0  0  0  0  0  0  0  0  0  0  0
    9.4010  -14.6061   24.6676 C   0  0  1  0  0  0  0  0  0  0  0  0
    8.0807  -13.9742   24.4035 C   0  0  0  0  0  0  0  0  0  0  0  0
    7.3111  -13.8136   25.6743 C   0  0  0  0  0  0  0  0  0  0  0  0
    6.6497  -12.4608   25.7995 C   0  0  0  0  0  0  0  0  0  0  0  0
    5.9377  -12.3184   27.1341 C   0  0  0  0  0  0  0  0  0  0  0  0
    5.2230  -11.0670   27.2510 N   0  0  0  0  0  0  0  0  0  0  0  0
    9.3479  -15.8584   25.4582 C   0  0  0  0  0  0  0  0  0  0  0  0
    9.9334  -16.0535   26.6789 O   0  0  0  0  0  0  0  0  0  0  0  0
    8.7077  -16.8648   24.9883 O   0  0  0  0  0  0  0  0  0  0  0  0
  2  3  1  0
  2  1  1  6
  4  3  1  0
  4  8  1  0
  5  4  2  0
  6  2  1  0
  7  6  2  0
  9 10  1  0
 10 12  1  0
 11 10  2  0
 13 12  1  6
 13 14  1  0
 14  6  1  0
 15 13  1  0
 15 17  1  0
 16 15  2  0
 18 19  1  6
 18 17  1  0
 20 21  1  0
 20 19  1  0
 22 21  1  0
 23 22  1  0
 24 18  1  0
 25 24  1  0
 26 24  2  0
M  END
$$$$
