DNK.pdb
     RDKit          3D

 26 25  0  0  1  0  0  0  0  0999 V2000
   10.4856  -17.7280   19.5530 N   0  0  0  0  0  0  0  0  0  0  0  0
    9.1739  -17.1966   19.4427 C   0  0  1  0  0  0  0  0  0  0  0  0
    8.5496  -17.8181   18.1949 C   0  0  0  0  0  0  0  0  0  0  0  0
    9.5084  -17.6989   17.0629 C   0  0  0  0  0  0  0  0  0  0  0  0
   10.7169  -18.0050   17.2416 O   0  0  0  0  0  0  0  0  0  0  0  0
    8.2911  -17.3517   20.5984 C   0  0  0  0  0  0  0  0  0  0  0  0
    7.0868  -16.9038   20.5418 O   0  0  0  0  0  0  0  0  0  0  0  0
    9.1341  -17.2631   15.8076 O   0  0  0  0  0  0  0  0  0  0  0  0
    5.7053  -20.0921   24.7260 N   0  0  0  0  0  0  0  0  0  0  0  0
    7.0528  -19.6563   24.8165 C   0  0  0  0  0  0  0  0  0  0  0  0
    7.4908  -19.4171   25.9670 O   0  0  0  0  0  0  0  0  0  0  0  0
    7.8227  -19.5198   23.5651 C   0  0  0  0  0  0  0  0  0  0  0  0
    7.7394  -18.1566   22.9453 C   0  0  2  0  0  0  0  0  0  0  0  0
    8.6320  -17.9636   21.8195 N   0  0  0  0  0  0  0  0  0  0  0  0
    7.8173  -17.0557   23.9012 C   0  0  0  0  0  0  0  0  0  0  0  0
    6.9659  -17.0296   24.8542 O   0  0  0  0  0  0  0  0  0  0  0  0
    8.7676  -16.0091   23.8496 N   0  0  0  0  0  0  0  0  0  0  0  0
    8.8240  -14.9215   24.8332 C   0  0  1  0  0  0  0  0  0  0  0  0
    7.5161  -14.2235   24.9534 C   0  0  0  0  0  0  0  0  0  0  0  0
    7.5741  -13.1782   26.0196 C   0  0  0  0  0  0  0  0  0  0  0  0
    6.2527  -12.4777   26.2351 C   0  0  0  0  0  0  0  0  0  0  0  0
    6.3615  -11.4207   27.3211 C   0  0  0  0  0  0  0  0  0  0  0  0
    5.1213  -10.7065   27.5265 N   0  0  0  0  0  0  0  0  0  0  0  0
    9.3581  -15.4717   26.1013 C   0  0  0  0  0  0  0  0  0  0  0  0
   10.2535  -14.8464   26.9248 O   0  0  0  0  0  0  0  0  0  0  0  0
    8.9695  -16.6300   26.4901 O   0  0  0  0  0  0  0  0  0  0  0  0
  2  3  1  0
  2  1  1  1
  4  3  1  0
  4  8  1  0
  5  4  2  0
  6  2  1  0
  7  6  2  0
  9 10  1  0
 10 12  1  0
 11 10  2  0
 13 12  1  1
 13 14  1  0
 14  6  1  0
 15 13  1  0
 15 17  1  0
 16 15  2  0
 18 19  1  1
 18 17  1  0
 20 21  1  0
 20 19  1  0
 22 21  1  0
 23 22  1  0
 24 18  1  0
 25 24  1  0
 26 24  2  0
M  END
$$$$
