DNK.pdb
     RDKit          3D

 26 25  0  0  1  0  0  0  0  0999 V2000
    9.8475  -14.4825   18.2811 N   0  0  0  0  0  0  0  0  0  0  0  0
    8.5688  -14.1796   18.8181 C   0  0  1  0  0  0  0  0  0  0  0  0
    7.5857  -14.1896   17.6491 C   0  0  0  0  0  0  0  0  0  0  0  0
    8.3242  -13.8879   16.3927 C   0  0  0  0  0  0  0  0  0  0  0  0
    9.5836  -13.8818   16.4022 O   0  0  0  0  0  0  0  0  0  0  0  0
    8.0863  -15.0237   19.9107 C   0  0  0  0  0  0  0  0  0  0  0  0
    6.8986  -14.8476   20.3718 O   0  0  0  0  0  0  0  0  0  0  0  0
    7.6886  -13.6103   15.1991 O   0  0  0  0  0  0  0  0  0  0  0  0
    6.5488  -19.0971   19.8424 N   0  0  0  0  0  0  0  0  0  0  0  0
    7.9329  -18.7957   19.9288 C   0  0  0  0  0  0  0  0  0  0  0  0
    8.5966  -18.8903   18.8690 O   0  0  0  0  0  0  0  0  0  0  0  0
    8.4755  -18.4005   21.2428 C   0  0  0  0  0  0  0  0  0  0  0  0
    8.3005  -16.9452   21.5605 C   0  0  2  0  0  0  0  0  0  0  0  0
    8.8130  -16.0518   20.5405 N   0  0  0  0  0  0  0  0  0  0  0  0
    8.7465  -16.5638   22.8975 C   0  0  0  0  0  0  0  0  0  0  0  0
    8.5344  -17.3830   23.8553 O   0  0  0  0  0  0  0  0  0  0  0  0
    9.3967  -15.3480   23.2138 N   0  0  0  0  0  0  0  0  0  0  0  0
    9.1613  -14.6075   24.4588 C   0  0  1  0  0  0  0  0  0  0  0  0
    7.9092  -13.8075   24.3915 C   0  0  0  0  0  0  0  0  0  0  0  0
    7.5813  -13.2308   25.7305 C   0  0  0  0  0  0  0  0  0  0  0  0
    6.3870  -12.3056   25.7007 C   0  0  0  0  0  0  0  0  0  0  0  0
    6.1141  -11.7158   27.0741 C   0  0  0  0  0  0  0  0  0  0  0  0
    4.9885  -10.8084   27.0746 N   0  0  0  0  0  0  0  0  0  0  0  0
    9.2315  -15.5653   25.5873 C   0  0  0  0  0  0  0  0  0  0  0  0
   10.2061  -15.5938   26.5467 O   0  0  0  0  0  0  0  0  0  0  0  0
    8.3178  -16.4569   25.7052 O   0  0  0  0  0  0  0  0  0  0  0  0
  2  3  1  0
  2  1  1  6
  4  3  1  0
  4  8  1  0
  5  4  2  0
  6  2  1  0
  7  6  2  0
  9 10  1  0
 10 12  1  0
 11 10  2  0
 13 12  1  6
 13 14  1  0
 14  6  1  0
 15 13  1  0
 15 17  1  0
 16 15  2  0
 18 19  1  6
 18 17  1  0
 20 21  1  0
 20 19  1  0
 22 21  1  0
 23 22  1  0
 24 18  1  0
 25 24  1  0
 26 24  2  0
M  END
$$$$
