DNK.pdb
     RDKit          3D

 26 25  0  0  1  0  0  0  0  0999 V2000
    7.9959  -18.8738   18.1314 N   0  0  0  0  0  0  0  0  0  0  0  0
    8.6735  -17.7454   18.6632 C   0  0  1  0  0  0  0  0  0  0  0  0
    8.1815  -16.5275   17.8836 C   0  0  0  0  0  0  0  0  0  0  0  0
    8.2552  -16.8229   16.4268 C   0  0  0  0  0  0  0  0  0  0  0  0
    8.6574  -17.9536   16.0449 O   0  0  0  0  0  0  0  0  0  0  0  0
    8.5651  -17.5192   20.1042 C   0  0  0  0  0  0  0  0  0  0  0  0
    9.1628  -16.5118   20.6352 O   0  0  0  0  0  0  0  0  0  0  0  0
    7.8993  -15.9059   15.4582 O   0  0  0  0  0  0  0  0  0  0  0  0
    6.1864  -19.0809   25.2793 N   0  0  0  0  0  0  0  0  0  0  0  0
    6.3619  -17.9230   24.4778 C   0  0  0  0  0  0  0  0  0  0  0  0
    6.4641  -16.8297   25.0834 O   0  0  0  0  0  0  0  0  0  0  0  0
    6.4085  -18.0945   23.0130 C   0  0  0  0  0  0  0  0  0  0  0  0
    7.7976  -18.1310   22.4487 C   0  0  2  0  0  0  0  0  0  0  0  0
    7.8472  -18.3203   21.0123 N   0  0  0  0  0  0  0  0  0  0  0  0
    8.7087  -19.0297   23.1515 C   0  0  0  0  0  0  0  0  0  0  0  0
    8.6069  -20.2832   22.9234 O   0  0  0  0  0  0  0  0  0  0  0  0
    9.6987  -18.6149   24.0728 N   0  0  0  0  0  0  0  0  0  0  0  0
   10.6297  -19.5410   24.7278 C   0  0  1  0  0  0  0  0  0  0  0  0
   12.0400  -19.2598   24.3479 C   0  0  0  0  0  0  0  0  0  0  0  0
   12.5468  -20.2991   23.4014 C   0  0  0  0  0  0  0  0  0  0  0  0
   13.9660  -20.0463   22.9484 C   0  0  0  0  0  0  0  0  0  0  0  0
   14.4652  -21.1679   22.0532 C   0  0  0  0  0  0  0  0  0  0  0  0
   15.7572  -20.8802   21.4715 N   0  0  0  0  0  0  0  0  0  0  0  0
   10.3579  -19.5174   26.1844 C   0  0  0  0  0  0  0  0  0  0  0  0
   10.7998  -20.4415   27.0909 O   0  0  0  0  0  0  0  0  0  0  0  0
    9.6517  -18.5642   26.6706 O   0  0  0  0  0  0  0  0  0  0  0  0
  2  3  1  0
  2  1  1  6
  4  3  1  0
  4  8  1  0
  5  4  2  0
  6  2  1  0
  7  6  2  0
  9 10  1  0
 10 12  1  0
 11 10  2  0
 13 12  1  1
 13 14  1  0
 14  6  1  0
 15 13  1  0
 15 17  1  0
 16 15  2  0
 18 19  1  1
 18 17  1  0
 20 21  1  0
 20 19  1  0
 22 21  1  0
 23 22  1  0
 24 18  1  0
 25 24  1  0
 26 24  2  0
M  END
$$$$
