GVW.pdb
     RDKit          3D

 26 27  0  0  1  0  0  0  0  0999 V2000
   28.8371  -16.7909  -16.8341 N   0  0  0  0  0  0  0  0  0  0  0  0
   28.3114  -18.0609  -16.4270 C   0  0  0  0  0  0  0  0  0  0  0  0
   27.3131  -17.8505  -15.3286 C   0  0  0  0  0  0  0  0  0  0  0  0
   26.4747  -16.9432  -15.4357 O   0  0  0  0  0  0  0  0  0  0  0  0
   24.8347  -18.9568  -15.4930 C   0  0  0  0  0  0  0  0  0  0  0  0
   25.1203  -19.7272  -14.2043 C   0  0  1  0  0  0  0  0  0  0  0  0
   25.5264  -21.1391  -14.4784 C   0  0  0  0  0  0  0  0  0  0  0  0
   26.1645  -18.9566  -13.3950 C   0  0  2  0  0  0  0  0  0  0  0  0
   27.3391  -18.6892  -14.1821 N   0  0  0  0  0  0  0  0  0  0  0  0
   26.5066  -19.8052  -12.1984 C   0  0  0  0  0  0  0  0  0  0  0  0
   27.1754  -20.8531  -12.3625 O   0  0  0  0  0  0  0  0  0  0  0  0
   26.0714  -19.4116  -10.9092 N   0  0  0  0  0  0  0  0  0  0  0  0
   26.3895  -20.2049   -9.7396 C   0  0  1  0  0  0  0  0  0  0  0  0
   26.1807  -19.3072   -8.5314 C   0  0  0  0  0  0  0  0  0  0  0  0
   26.4991  -20.0153   -7.2840 C   0  0  0  0  0  0  0  0  0  0  0  0
   25.8390  -21.1527   -6.8063 C   0  0  0  0  0  0  0  0  0  0  0  0
   26.4202  -21.4931   -5.6531 N   0  0  0  0  0  0  0  0  0  0  0  0
   27.4182  -20.6203   -5.3818 C   0  0  0  0  0  0  0  0  0  0  0  0
   28.3151  -20.5210   -4.3324 C   0  0  0  0  0  0  0  0  0  0  0  0
   29.2400  -19.5026   -4.3244 C   0  0  0  0  0  0  0  0  0  0  0  0
   29.3101  -18.5679   -5.3293 C   0  0  0  0  0  0  0  0  0  0  0  0
   28.4220  -18.6557   -6.3808 C   0  0  0  0  0  0  0  0  0  0  0  0
   27.4868  -19.6861   -6.3881 C   0  0  0  0  0  0  0  0  0  0  0  0
   25.4040  -21.3359   -9.6799 C   0  0  0  0  0  0  0  0  0  0  0  0
   25.8692  -22.6199   -9.5376 O   0  0  0  0  0  0  0  0  0  0  0  0
   24.1683  -21.1424   -9.7563 O   0  0  0  0  0  0  0  0  0  0  0  0
  2  1  1  0
  3  4  2  0
  3  2  1  0
  6  5  1  6
  6  8  1  0
  7  6  1  0
  8  9  1  6
  9  3  1  0
 10 11  2  0
 10  8  1  0
 12 10  1  0
 13 12  1  0
 13 14  1  1
 15 23  1  0
 15 14  1  0
 16 15  2  0
 17 16  1  0
 17 18  1  0
 18 19  1  0
 18 23  2  0
 19 20  2  0
 20 21  1  0
 22 21  2  0
 23 22  1  0
 24 13  1  0
 25 24  1  0
 26 24  2  0
M  END
$$$$
