GVW.pdb
     RDKit          3D

 26 27  0  0  1  0  0  0  0  0999 V2000
   28.6702  -21.0321  -15.8926 N   0  0  0  0  0  0  0  0  0  0  0  0
   29.0315  -21.1650  -14.5116 C   0  0  0  0  0  0  0  0  0  0  0  0
   28.1045  -20.3320  -13.6786 C   0  0  0  0  0  0  0  0  0  0  0  0
   27.9507  -19.1332  -13.9557 O   0  0  0  0  0  0  0  0  0  0  0  0
   25.4796  -19.4937  -14.1765 C   0  0  0  0  0  0  0  0  0  0  0  0
   25.0794  -20.2675  -12.9208 C   0  0  1  0  0  0  0  0  0  0  0  0
   24.5595  -21.6298  -13.2488 C   0  0  0  0  0  0  0  0  0  0  0  0
   26.2742  -20.3030  -11.9666 C   0  0  2  0  0  0  0  0  0  0  0  0
   27.4158  -20.9230  -12.5854 N   0  0  0  0  0  0  0  0  0  0  0  0
   25.8413  -21.0778  -10.7495 C   0  0  0  0  0  0  0  0  0  0  0  0
   25.7815  -22.3288  -10.8099 O   0  0  0  0  0  0  0  0  0  0  0  0
   25.5090  -20.3878   -9.5579 N   0  0  0  0  0  0  0  0  0  0  0  0
   25.1380  -21.1084   -8.3571 C   0  0  1  0  0  0  0  0  0  0  0  0
   25.5520  -20.2408   -7.1802 C   0  0  0  0  0  0  0  0  0  0  0  0
   27.0144  -20.1903   -7.0479 C   0  0  0  0  0  0  0  0  0  0  0  0
   27.9303  -20.4321   -8.0775 C   0  0  0  0  0  0  0  0  0  0  0  0
   29.1537  -20.2882   -7.5615 N   0  0  0  0  0  0  0  0  0  0  0  0
   29.0502  -19.9663   -6.2512 C   0  0  0  0  0  0  0  0  0  0  0  0
   29.9952  -19.7130   -5.2722 C   0  0  0  0  0  0  0  0  0  0  0  0
   29.5842  -19.4048   -3.9960 C   0  0  0  0  0  0  0  0  0  0  0  0
   28.2561  -19.3374   -3.6495 C   0  0  0  0  0  0  0  0  0  0  0  0
   27.3043  -19.5876   -4.6159 C   0  0  0  0  0  0  0  0  0  0  0  0
   27.7209  -19.8993   -5.9065 C   0  0  0  0  0  0  0  0  0  0  0  0
   23.6429  -21.2450   -8.3569 C   0  0  0  0  0  0  0  0  0  0  0  0
   22.9160  -20.6275   -9.3445 O   0  0  0  0  0  0  0  0  0  0  0  0
   23.0384  -21.9067   -7.4811 O   0  0  0  0  0  0  0  0  0  0  0  0
  2  1  1  0
  3  4  2  0
  3  2  1  0
  6  5  1  6
  6  8  1  0
  7  6  1  0
  8  9  1  6
  9  3  1  0
 10 11  2  0
 10  8  1  0
 12 10  1  0
 13 12  1  0
 13 14  1  1
 15 23  1  0
 15 14  1  0
 16 15  2  0
 17 16  1  0
 17 18  1  0
 18 19  1  0
 18 23  2  0
 19 20  2  0
 20 21  1  0
 22 21  2  0
 23 22  1  0
 24 13  1  0
 25 24  1  0
 26 24  2  0
M  END
$$$$
