GVW.pdb
     RDKit          3D

 26 27  0  0  1  0  0  0  0  0999 V2000
   28.8728  -23.1747  -16.7757 N   0  0  0  0  0  0  0  0  0  0  0  0
   27.5164  -22.9186  -16.3884 C   0  0  0  0  0  0  0  0  0  0  0  0
   27.4764  -21.7021  -15.5132 C   0  0  0  0  0  0  0  0  0  0  0  0
   28.0109  -20.6542  -15.9052 O   0  0  0  0  0  0  0  0  0  0  0  0
   24.0308  -21.3378  -14.6053 C   0  0  0  0  0  0  0  0  0  0  0  0
   24.9906  -20.1581  -14.4544 C   0  0  1  0  0  0  0  0  0  0  0  0
   24.3160  -18.9644  -13.8599 C   0  0  0  0  0  0  0  0  0  0  0  0
   26.2054  -20.6163  -13.6458 C   0  0  2  0  0  0  0  0  0  0  0  0
   26.8295  -21.7636  -14.2498 N   0  0  0  0  0  0  0  0  0  0  0  0
   25.7126  -20.9449  -12.2609 C   0  0  0  0  0  0  0  0  0  0  0  0
   24.8841  -21.8740  -12.1107 O   0  0  0  0  0  0  0  0  0  0  0  0
   26.1882  -20.2046  -11.1509 N   0  0  0  0  0  0  0  0  0  0  0  0
   26.0178  -20.6951   -9.7984 C   0  0  1  0  0  0  0  0  0  0  0  0
   26.8942  -19.8322   -8.9059 C   0  0  0  0  0  0  0  0  0  0  0  0
   26.8453  -20.2921   -7.5113 C   0  0  0  0  0  0  0  0  0  0  0  0
   25.9398  -21.2266   -6.9972 C   0  0  0  0  0  0  0  0  0  0  0  0
   26.2195  -21.3770   -5.7000 N   0  0  0  0  0  0  0  0  0  0  0  0
   27.2617  -20.5783   -5.3727 C   0  0  0  0  0  0  0  0  0  0  0  0
   27.9337  -20.3570   -4.1831 C   0  0  0  0  0  0  0  0  0  0  0  0
   28.9799  -19.4643   -4.1508 C   0  0  0  0  0  0  0  0  0  0  0  0
   29.3900  -18.7747   -5.2664 C   0  0  0  0  0  0  0  0  0  0  0  0
   28.7287  -18.9862   -6.4581 C   0  0  0  0  0  0  0  0  0  0  0  0
   27.6706  -19.8893   -6.4899 C   0  0  0  0  0  0  0  0  0  0  0  0
   24.5808  -20.4825   -9.4192 C   0  0  0  0  0  0  0  0  0  0  0  0
   23.9509  -21.4196   -8.6380 O   0  0  0  0  0  0  0  0  0  0  0  0
   23.9389  -19.4741   -9.7950 O   0  0  0  0  0  0  0  0  0  0  0  0
  2  1  1  0
  3  4  2  0
  3  2  1  0
  6  5  1  1
  6  8  1  0
  7  6  1  0
  8  9  1  6
  9  3  1  0
 10 11  2  0
 10  8  1  0
 12 10  1  0
 13 12  1  0
 13 14  1  1
 15 23  1  0
 15 14  1  0
 16 15  2  0
 17 16  1  0
 17 18  1  0
 18 19  1  0
 18 23  2  0
 19 20  2  0
 20 21  1  0
 22 21  2  0
 23 22  1  0
 24 13  1  0
 25 24  1  0
 26 24  2  0
M  END
$$$$
