GVW.pdb
     RDKit          3D

 26 27  0  0  1  0  0  0  0  0999 V2000
   28.5038  -17.3118  -16.1462 N   0  0  0  0  0  0  0  0  0  0  0  0
   28.2374  -18.6609  -15.7408 C   0  0  0  0  0  0  0  0  0  0  0  0
   27.0659  -18.6708  -14.8054 C   0  0  0  0  0  0  0  0  0  0  0  0
   26.0241  -18.0825  -15.1309 O   0  0  0  0  0  0  0  0  0  0  0  0
   24.7012  -20.0395  -14.8315 C   0  0  0  0  0  0  0  0  0  0  0  0
   25.0745  -20.6287  -13.4716 C   0  0  1  0  0  0  0  0  0  0  0  0
   25.6563  -21.9993  -13.5997 C   0  0  0  0  0  0  0  0  0  0  0  0
   26.0094  -19.6525  -12.7557 C   0  0  2  0  0  0  0  0  0  0  0  0
   27.1626  -19.3509  -13.5618 N   0  0  0  0  0  0  0  0  0  0  0  0
   26.4196  -20.3060  -11.4620 C   0  0  0  0  0  0  0  0  0  0  0  0
   27.4334  -21.0438  -11.4437 O   0  0  0  0  0  0  0  0  0  0  0  0
   25.6597  -20.0807  -10.2881 N   0  0  0  0  0  0  0  0  0  0  0  0
   26.0467  -20.6721   -9.0235 C   0  0  1  0  0  0  0  0  0  0  0  0
   26.5756  -19.5424   -8.1554 C   0  0  0  0  0  0  0  0  0  0  0  0
   26.8481  -20.0077   -6.7887 C   0  0  0  0  0  0  0  0  0  0  0  0
   26.0410  -20.8835   -6.0544 C   0  0  0  0  0  0  0  0  0  0  0  0
   26.6268  -21.0611   -4.8674 N   0  0  0  0  0  0  0  0  0  0  0  0
   27.7682  -20.3358   -4.8202 C   0  0  0  0  0  0  0  0  0  0  0  0
   28.7304  -20.1679   -3.8396 C   0  0  0  0  0  0  0  0  0  0  0  0
   29.8079  -19.3469   -4.0798 C   0  0  0  0  0  0  0  0  0  0  0  0
   29.9695  -18.6784   -5.2695 C   0  0  0  0  0  0  0  0  0  0  0  0
   29.0177  -18.8372   -6.2550 C   0  0  0  0  0  0  0  0  0  0  0  0
   27.9281  -19.6677   -6.0111 C   0  0  0  0  0  0  0  0  0  0  0  0
   24.8066  -21.2319   -8.3889 C   0  0  0  0  0  0  0  0  0  0  0  0
   24.9264  -22.2419   -7.4667 O   0  0  0  0  0  0  0  0  0  0  0  0
   23.6645  -20.8041   -8.6765 O   0  0  0  0  0  0  0  0  0  0  0  0
  2  1  1  0
  3  4  2  0
  3  2  1  0
  6  5  1  6
  6  8  1  0
  7  6  1  0
  8  9  1  6
  9  3  1  0
 10 11  2  0
 10  8  1  0
 12 10  1  0
 13 12  1  0
 13 14  1  1
 15 23  1  0
 15 14  1  0
 16 15  2  0
 17 16  1  0
 17 18  1  0
 18 19  1  0
 18 23  2  0
 19 20  2  0
 20 21  1  0
 22 21  2  0
 23 22  1  0
 24 13  1  0
 25 24  1  0
 26 24  2  0
M  END
$$$$
