GVW.pdb
     RDKit          3D

 26 27  0  0  1  0  0  0  0  0999 V2000
   30.1646  -23.4282  -17.3533 N   0  0  0  0  0  0  0  0  0  0  0  0
   29.0956  -22.4737  -17.3933 C   0  0  0  0  0  0  0  0  0  0  0  0
   28.9618  -21.8288  -16.0466 C   0  0  0  0  0  0  0  0  0  0  0  0
   29.7317  -22.1634  -15.1339 O   0  0  0  0  0  0  0  0  0  0  0  0
   28.6848  -17.9994  -15.2466 C   0  0  0  0  0  0  0  0  0  0  0  0
   27.4386  -18.7196  -14.7327 C   0  0  1  0  0  0  0  0  0  0  0  0
   26.2573  -18.4883  -15.6184 C   0  0  0  0  0  0  0  0  0  0  0  0
   27.7677  -20.2032  -14.5590 C   0  0  2  0  0  0  0  0  0  0  0  0
   27.9585  -20.8461  -15.8322 N   0  0  0  0  0  0  0  0  0  0  0  0
   26.6145  -20.8248  -13.8155 C   0  0  0  0  0  0  0  0  0  0  0  0
   25.6905  -21.3696  -14.4647 O   0  0  0  0  0  0  0  0  0  0  0  0
   26.5879  -20.7867  -12.3998 N   0  0  0  0  0  0  0  0  0  0  0  0
   25.6749  -21.6231  -11.6478 C   0  0  1  0  0  0  0  0  0  0  0  0
   26.4150  -22.0640  -10.3959 C   0  0  0  0  0  0  0  0  0  0  0  0
   26.4244  -20.9992   -9.3835 C   0  0  0  0  0  0  0  0  0  0  0  0
   25.4129  -20.0513   -9.1945 C   0  0  0  0  0  0  0  0  0  0  0  0
   25.7911  -19.2644   -8.1839 N   0  0  0  0  0  0  0  0  0  0  0  0
   26.9971  -19.6740   -7.7267 C   0  0  0  0  0  0  0  0  0  0  0  0
   27.8201  -19.2125   -6.7142 C   0  0  0  0  0  0  0  0  0  0  0  0
   29.0188  -19.8433   -6.4735 C   0  0  0  0  0  0  0  0  0  0  0  0
   29.4372  -20.9272   -7.2073 C   0  0  0  0  0  0  0  0  0  0  0  0
   28.6263  -21.3970   -8.2192 C   0  0  0  0  0  0  0  0  0  0  0  0
   27.4140  -20.7584   -8.4619 C   0  0  0  0  0  0  0  0  0  0  0  0
   24.5076  -20.7688  -11.2458 C   0  0  0  0  0  0  0  0  0  0  0  0
   23.3603  -21.3748  -10.7967 O   0  0  0  0  0  0  0  0  0  0  0  0
   24.5496  -19.5181  -11.3083 O   0  0  0  0  0  0  0  0  0  0  0  0
  2  1  1  0
  3  4  2  0
  3  2  1  0
  6  5  1  6
  6  8  1  0
  7  6  1  0
  8  9  1  6
  9  3  1  0
 10 11  2  0
 10  8  1  0
 12 10  1  0
 13 12  1  0
 13 14  1  1
 15 23  1  0
 15 14  1  0
 16 15  2  0
 17 16  1  0
 17 18  1  0
 18 19  1  0
 18 23  2  0
 19 20  2  0
 20 21  1  0
 22 21  2  0
 23 22  1  0
 24 13  1  0
 25 24  1  0
 26 24  2  0
M  END
$$$$
