GVW.pdb
     RDKit          3D

 26 27  0  0  1  0  0  0  0  0999 V2000
   28.3450  -24.0388  -17.2655 N   0  0  0  0  0  0  0  0  0  0  0  0
   27.4557  -22.9600  -16.9483 C   0  0  0  0  0  0  0  0  0  0  0  0
   28.0021  -22.2006  -15.7771 C   0  0  0  0  0  0  0  0  0  0  0  0
   29.1843  -22.3684  -15.4426 O   0  0  0  0  0  0  0  0  0  0  0  0
   28.1928  -18.5070  -15.3634 C   0  0  0  0  0  0  0  0  0  0  0  0
   27.3329  -19.0139  -14.2060 C   0  0  1  0  0  0  0  0  0  0  0  0
   25.8791  -18.7573  -14.4389 C   0  0  0  0  0  0  0  0  0  0  0  0
   27.6443  -20.4938  -13.9770 C   0  0  2  0  0  0  0  0  0  0  0  0
   27.1628  -21.3012  -15.0664 N   0  0  0  0  0  0  0  0  0  0  0  0
   26.9769  -20.8882  -12.6855 C   0  0  0  0  0  0  0  0  0  0  0  0
   25.8296  -21.3929  -12.7189 O   0  0  0  0  0  0  0  0  0  0  0  0
   27.6496  -20.6856  -11.4555 N   0  0  0  0  0  0  0  0  0  0  0  0
   27.0730  -21.1387  -10.2061 C   0  0  1  0  0  0  0  0  0  0  0  0
   28.0888  -20.8318   -9.1183 C   0  0  0  0  0  0  0  0  0  0  0  0
   27.4240  -20.5209   -7.8454 C   0  0  0  0  0  0  0  0  0  0  0  0
   26.0415  -20.5262   -7.6304 C   0  0  0  0  0  0  0  0  0  0  0  0
   25.8381  -20.1952   -6.3526 N   0  0  0  0  0  0  0  0  0  0  0  0
   27.0315  -19.9812   -5.7516 C   0  0  0  0  0  0  0  0  0  0  0  0
   27.3782  -19.6208   -4.4611 C   0  0  0  0  0  0  0  0  0  0  0  0
   28.7056  -19.4717   -4.1317 C   0  0  0  0  0  0  0  0  0  0  0  0
   29.7141  -19.6689   -5.0440 C   0  0  0  0  0  0  0  0  0  0  0  0
   29.3820  -20.0284   -6.3335 C   0  0  0  0  0  0  0  0  0  0  0  0
   28.0391  -20.1789   -6.6659 C   0  0  0  0  0  0  0  0  0  0  0  0
   25.8360  -20.3248   -9.9587 C   0  0  0  0  0  0  0  0  0  0  0  0
   25.7839  -19.0326  -10.4200 O   0  0  0  0  0  0  0  0  0  0  0  0
   24.8490  -20.7904   -9.3430 O   0  0  0  0  0  0  0  0  0  0  0  0
  2  1  1  0
  3  4  2  0
  3  2  1  0
  6  5  1  6
  6  8  1  0
  7  6  1  0
  8  9  1  6
  9  3  1  0
 10 11  2  0
 10  8  1  0
 12 10  1  0
 13 12  1  0
 13 14  1  1
 15 23  1  0
 15 14  1  0
 16 15  2  0
 17 16  1  0
 17 18  1  0
 18 19  1  0
 18 23  2  0
 19 20  2  0
 20 21  1  0
 22 21  2  0
 23 22  1  0
 24 13  1  0
 25 24  1  0
 26 24  2  0
M  END
$$$$
