GVW.pdb
     RDKit          3D

 26 27  0  0  1  0  0  0  0  0999 V2000
   28.2603  -24.1266  -16.9629 N   0  0  0  0  0  0  0  0  0  0  0  0
   27.1846  -23.2676  -16.5627 C   0  0  0  0  0  0  0  0  0  0  0  0
   27.6752  -22.3256  -15.5047 C   0  0  0  0  0  0  0  0  0  0  0  0
   28.8322  -22.4446  -15.0749 O   0  0  0  0  0  0  0  0  0  0  0  0
   25.3274  -18.8875  -14.5363 C   0  0  0  0  0  0  0  0  0  0  0  0
   26.8374  -18.9631  -14.3127 C   0  0  1  0  0  0  0  0  0  0  0  0
   27.2973  -17.9814  -13.2840 C   0  0  0  0  0  0  0  0  0  0  0  0
   27.2084  -20.4053  -13.9634 C   0  0  2  0  0  0  0  0  0  0  0  0
   26.8125  -21.3118  -15.0084 N   0  0  0  0  0  0  0  0  0  0  0  0
   26.5059  -20.7394  -12.6735 C   0  0  0  0  0  0  0  0  0  0  0  0
   25.3035  -21.0937  -12.7056 O   0  0  0  0  0  0  0  0  0  0  0  0
   27.2079  -20.6498  -11.4465 N   0  0  0  0  0  0  0  0  0  0  0  0
   26.6005  -21.0860  -10.2057 C   0  0  1  0  0  0  0  0  0  0  0  0
   27.6776  -21.0007   -9.1371 C   0  0  0  0  0  0  0  0  0  0  0  0
   27.0936  -20.7270   -7.8169 C   0  0  0  0  0  0  0  0  0  0  0  0
   25.7593  -20.9486   -7.4591 C   0  0  0  0  0  0  0  0  0  0  0  0
   25.6246  -20.5782   -6.1830 N   0  0  0  0  0  0  0  0  0  0  0  0
   26.8153  -20.1325   -5.7197 C   0  0  0  0  0  0  0  0  0  0  0  0
   27.2163  -19.6411   -4.4896 C   0  0  0  0  0  0  0  0  0  0  0  0
   28.5238  -19.2538   -4.3071 C   0  0  0  0  0  0  0  0  0  0  0  0
   29.4597  -19.3364   -5.3098 C   0  0  0  0  0  0  0  0  0  0  0  0
   29.0730  -19.8244   -6.5405 C   0  0  0  0  0  0  0  0  0  0  0  0
   27.7504  -20.2159   -6.7243 C   0  0  0  0  0  0  0  0  0  0  0  0
   25.5075  -20.1124   -9.8718 C   0  0  0  0  0  0  0  0  0  0  0  0
   24.3608  -20.5751   -9.2750 O   0  0  0  0  0  0  0  0  0  0  0  0
   25.6111  -18.8890  -10.1219 O   0  0  0  0  0  0  0  0  0  0  0  0
  2  1  1  0
  3  4  2  0
  3  2  1  0
  6  5  1  1
  6  8  1  0
  7  6  1  0
  8  9  1  6
  9  3  1  0
 10 11  2  0
 10  8  1  0
 12 10  1  0
 13 12  1  0
 13 14  1  1
 15 23  1  0
 15 14  1  0
 16 15  2  0
 17 16  1  0
 17 18  1  0
 18 19  1  0
 18 23  2  0
 19 20  2  0
 20 21  1  0
 22 21  2  0
 23 22  1  0
 24 13  1  0
 25 24  1  0
 26 24  2  0
M  END
$$$$
