GVW.pdb
     RDKit          3D

 26 27  0  0  1  0  0  0  0  0999 V2000
   23.3488  -15.8449  -17.0246 N   0  0  0  0  0  0  0  0  0  0  0  0
   24.7081  -16.0158  -16.6025 C   0  0  0  0  0  0  0  0  0  0  0  0
   24.8792  -17.3959  -16.0426 C   0  0  0  0  0  0  0  0  0  0  0  0
   23.9657  -17.8955  -15.3693 O   0  0  0  0  0  0  0  0  0  0  0  0
   28.5274  -19.4101  -16.8913 C   0  0  0  0  0  0  0  0  0  0  0  0
   27.2499  -20.2262  -16.6971 C   0  0  1  0  0  0  0  0  0  0  0  0
   27.5397  -21.6003  -16.1860 C   0  0  0  0  0  0  0  0  0  0  0  0
   26.3027  -19.4427  -15.7868 C   0  0  2  0  0  0  0  0  0  0  0  0
   26.0811  -18.1124  -16.2885 N   0  0  0  0  0  0  0  0  0  0  0  0
   26.9407  -19.3987  -14.4230 C   0  0  0  0  0  0  0  0  0  0  0  0
   27.9506  -18.6776  -14.2430 O   0  0  0  0  0  0  0  0  0  0  0  0
   26.3954  -20.1680  -13.3661 N   0  0  0  0  0  0  0  0  0  0  0  0
   27.0164  -20.1842  -12.0573 C   0  0  1  0  0  0  0  0  0  0  0  0
   26.2074  -19.2462  -11.1770 C   0  0  0  0  0  0  0  0  0  0  0  0
   24.9151  -19.8435  -10.8138 C   0  0  0  0  0  0  0  0  0  0  0  0
   24.6061  -20.4156   -9.5750 C   0  0  0  0  0  0  0  0  0  0  0  0
   23.3417  -20.8412   -9.6395 N   0  0  0  0  0  0  0  0  0  0  0  0
   22.8393  -20.5628  -10.8647 C   0  0  0  0  0  0  0  0  0  0  0  0
   21.6019  -20.7886  -11.4421 C   0  0  0  0  0  0  0  0  0  0  0  0
   21.3745  -20.3873  -12.7382 C   0  0  0  0  0  0  0  0  0  0  0  0
   22.3389  -19.7631  -13.4924 C   0  0  0  0  0  0  0  0  0  0  0  0
   23.5763  -19.5321  -12.9287 C   0  0  0  0  0  0  0  0  0  0  0  0
   23.8054  -19.9384  -11.6177 C   0  0  0  0  0  0  0  0  0  0  0  0
   26.8960  -21.5802  -11.5182 C   0  0  0  0  0  0  0  0  0  0  0  0
   27.4928  -21.8869  -10.3203 O   0  0  0  0  0  0  0  0  0  0  0  0
   26.2663  -22.4744  -12.1298 O   0  0  0  0  0  0  0  0  0  0  0  0
  2  1  1  0
  3  4  2  0
  3  2  1  0
  6  5  1  1
  6  8  1  0
  7  6  1  0
  8  9  1  6
  9  3  1  0
 10 11  2  0
 10  8  1  0
 12 10  1  0
 13 12  1  0
 13 14  1  1
 15 23  1  0
 15 14  1  0
 16 15  2  0
 17 16  1  0
 17 18  1  0
 18 19  1  0
 18 23  2  0
 19 20  2  0
 20 21  1  0
 22 21  2  0
 23 22  1  0
 24 13  1  0
 25 24  1  0
 26 24  2  0
M  END
$$$$
