GVW.pdb
     RDKit          3D

 26 27  0  0  1  0  0  0  0  0999 V2000
   22.8275  -12.4898  -22.2080 N   0  0  0  0  0  0  0  0  0  0  0  0
   22.6918  -12.4734  -20.7809 C   0  0  0  0  0  0  0  0  0  0  0  0
   22.0765  -11.1727  -20.3605 C   0  0  0  0  0  0  0  0  0  0  0  0
   22.3011  -10.1513  -21.0267 O   0  0  0  0  0  0  0  0  0  0  0  0
   18.8944  -11.2431  -17.6365 C   0  0  0  0  0  0  0  0  0  0  0  0
   19.1715  -10.0236  -18.5150 C   0  0  1  0  0  0  0  0  0  0  0  0
   18.5552   -8.7827  -17.9549 C   0  0  0  0  0  0  0  0  0  0  0  0
   20.6828   -9.8972  -18.7137 C   0  0  2  0  0  0  0  0  0  0  0  0
   21.2468  -11.1251  -19.2082 N   0  0  0  0  0  0  0  0  0  0  0  0
   21.2734   -9.5405  -17.3746 C   0  0  0  0  0  0  0  0  0  0  0  0
   21.4188  -10.4382  -16.5114 O   0  0  0  0  0  0  0  0  0  0  0  0
   21.6553   -8.2028  -17.1080 N   0  0  0  0  0  0  0  0  0  0  0  0
   22.2769   -7.8407  -15.8506 C   0  0  1  0  0  0  0  0  0  0  0  0
   23.4643   -6.9544  -16.1882 C   0  0  0  0  0  0  0  0  0  0  0  0
   24.5472   -7.7321  -16.8056 C   0  0  0  0  0  0  0  0  0  0  0  0
   25.1572   -7.4416  -18.0307 C   0  0  0  0  0  0  0  0  0  0  0  0
   26.0894   -8.3748  -18.2403 N   0  0  0  0  0  0  0  0  0  0  0  0
   26.0944   -9.2416  -17.2012 C   0  0  0  0  0  0  0  0  0  0  0  0
   26.8498  -10.3683  -16.9260 C   0  0  0  0  0  0  0  0  0  0  0  0
   26.6257  -11.0679  -15.7629 C   0  0  0  0  0  0  0  0  0  0  0  0
   25.6699  -10.6883  -14.8515 C   0  0  0  0  0  0  0  0  0  0  0  0
   24.9104   -9.5673  -15.1138 C   0  0  0  0  0  0  0  0  0  0  0  0
   25.1377   -8.8602  -16.2905 C   0  0  0  0  0  0  0  0  0  0  0  0
   21.2784   -7.0372  -15.0687 C   0  0  0  0  0  0  0  0  0  0  0  0
   21.4408   -6.9090  -13.7113 O   0  0  0  0  0  0  0  0  0  0  0  0
   20.3004   -6.4796  -15.6189 O   0  0  0  0  0  0  0  0  0  0  0  0
  2  1  1  0
  3  4  2  0
  3  2  1  0
  6  5  1  1
  6  8  1  0
  7  6  1  0
  8  9  1  1
  9  3  1  0
 10 11  2  0
 10  8  1  0
 12 10  1  0
 13 12  1  0
 13 14  1  6
 15 23  1  0
 15 14  1  0
 16 15  2  0
 17 16  1  0
 17 18  1  0
 18 19  1  0
 18 23  2  0
 19 20  2  0
 20 21  1  0
 22 21  2  0
 23 22  1  0
 24 13  1  0
 25 24  1  0
 26 24  2  0
M  END
$$$$
