GVW.pdb
     RDKit          3D

 26 27  0  0  1  0  0  0  0  0999 V2000
   24.8683  -24.0729  -16.9343 N   0  0  0  0  0  0  0  0  0  0  0  0
   24.5790  -22.8477  -16.2484 C   0  0  0  0  0  0  0  0  0  0  0  0
   25.6706  -22.5682  -15.2597 C   0  0  0  0  0  0  0  0  0  0  0  0
   26.1951  -23.5127  -14.6512 O   0  0  0  0  0  0  0  0  0  0  0  0
   26.4651  -18.4663  -14.1225 C   0  0  0  0  0  0  0  0  0  0  0  0
   27.6038  -19.4803  -14.2274 C   0  0  1  0  0  0  0  0  0  0  0  0
   28.7257  -19.1555  -13.2951 C   0  0  0  0  0  0  0  0  0  0  0  0
   27.0332  -20.8815  -14.0028 C   0  0  2  0  0  0  0  0  0  0  0  0
   26.0897  -21.2299  -15.0319 N   0  0  0  0  0  0  0  0  0  0  0  0
   26.3687  -20.8735  -12.6509 C   0  0  0  0  0  0  0  0  0  0  0  0
   25.1490  -20.5942  -12.5704 O   0  0  0  0  0  0  0  0  0  0  0  0
   27.1253  -21.1799  -11.4934 N   0  0  0  0  0  0  0  0  0  0  0  0
   26.5083  -21.2023  -10.1828 C   0  0  1  0  0  0  0  0  0  0  0  0
   27.6330  -21.3508   -9.1717 C   0  0  0  0  0  0  0  0  0  0  0  0
   27.3801  -20.5371   -7.9748 C   0  0  0  0  0  0  0  0  0  0  0  0
   26.1669  -19.9166   -7.6579 C   0  0  0  0  0  0  0  0  0  0  0  0
   26.3396  -19.2780   -6.4977 N   0  0  0  0  0  0  0  0  0  0  0  0
   27.6088  -19.4682   -6.0684 C   0  0  0  0  0  0  0  0  0  0  0  0
   28.2925  -19.0324   -4.9468 C   0  0  0  0  0  0  0  0  0  0  0  0
   29.6090  -19.3917   -4.7724 C   0  0  0  0  0  0  0  0  0  0  0  0
   30.2811  -20.1761   -5.6788 C   0  0  0  0  0  0  0  0  0  0  0  0
   29.6111  -20.6170   -6.8008 C   0  0  0  0  0  0  0  0  0  0  0  0
   28.2796  -20.2530   -6.9763 C   0  0  0  0  0  0  0  0  0  0  0  0
   25.8416  -19.8733   -9.9753 C   0  0  0  0  0  0  0  0  0  0  0  0
   24.6290  -19.8279   -9.3328 O   0  0  0  0  0  0  0  0  0  0  0  0
   26.3596  -18.8034  -10.3715 O   0  0  0  0  0  0  0  0  0  0  0  0
  2  1  1  0
  3  4  2  0
  3  2  1  0
  6  5  1  1
  6  8  1  0
  7  6  1  0
  8  9  1  6
  9  3  1  0
 10 11  2  0
 10  8  1  0
 12 10  1  0
 13 12  1  0
 13 14  1  1
 15 23  1  0
 15 14  1  0
 16 15  2  0
 17 16  1  0
 17 18  1  0
 18 19  1  0
 18 23  2  0
 19 20  2  0
 20 21  1  0
 22 21  2  0
 23 22  1  0
 24 13  1  0
 25 24  1  0
 26 24  2  0
M  END
$$$$
