GVW.pdb
     RDKit          3D

 26 27  0  0  1  0  0  0  0  0999 V2000
   25.2835  -23.8310  -17.1286 N   0  0  0  0  0  0  0  0  0  0  0  0
   25.0310  -22.5361  -16.5676 C   0  0  0  0  0  0  0  0  0  0  0  0
   26.0686  -22.2405  -15.5266 C   0  0  0  0  0  0  0  0  0  0  0  0
   26.8681  -23.1291  -15.1968 O   0  0  0  0  0  0  0  0  0  0  0  0
   28.4283  -19.0989  -15.2041 C   0  0  0  0  0  0  0  0  0  0  0  0
   27.5398  -19.2023  -13.9648 C   0  0  1  0  0  0  0  0  0  0  0  0
   26.4411  -18.1894  -13.9819 C   0  0  0  0  0  0  0  0  0  0  0  0
   27.0217  -20.6370  -13.8528 C   0  0  2  0  0  0  0  0  0  0  0  0
   26.1235  -20.9513  -14.9322 N   0  0  0  0  0  0  0  0  0  0  0  0
   26.3189  -20.7477  -12.5251 C   0  0  0  0  0  0  0  0  0  0  0  0
   25.0728  -20.6157  -12.4796 O   0  0  0  0  0  0  0  0  0  0  0  0
   27.0697  -20.9981  -11.3504 N   0  0  0  0  0  0  0  0  0  0  0  0
   26.4166  -21.1597  -10.0675 C   0  0  1  0  0  0  0  0  0  0  0  0
   27.5172  -21.3413   -9.0355 C   0  0  0  0  0  0  0  0  0  0  0  0
   27.0409  -21.0014   -7.6877 C   0  0  0  0  0  0  0  0  0  0  0  0
   25.7429  -21.2116   -7.2097 C   0  0  0  0  0  0  0  0  0  0  0  0
   25.7097  -20.7748   -5.9480 N   0  0  0  0  0  0  0  0  0  0  0  0
   26.9299  -20.2981   -5.6088 C   0  0  0  0  0  0  0  0  0  0  0  0
   27.4256  -19.7397   -4.4434 C   0  0  0  0  0  0  0  0  0  0  0  0
   28.7395  -19.3354   -4.3902 C   0  0  0  0  0  0  0  0  0  0  0  0
   29.5906  -19.4655   -5.4611 C   0  0  0  0  0  0  0  0  0  0  0  0
   29.1091  -20.0205   -6.6284 C   0  0  0  0  0  0  0  0  0  0  0  0
   27.7800  -20.4291   -6.6814 C   0  0  0  0  0  0  0  0  0  0  0  0
   25.6802  -19.8851   -9.7725 C   0  0  0  0  0  0  0  0  0  0  0  0
   24.4154  -19.9523   -9.2425 O   0  0  0  0  0  0  0  0  0  0  0  0
   26.1864  -18.7609   -9.9959 O   0  0  0  0  0  0  0  0  0  0  0  0
  2  1  1  0
  3  4  2  0
  3  2  1  0
  6  5  1  6
  6  8  1  0
  7  6  1  0
  8  9  1  6
  9  3  1  0
 10 11  2  0
 10  8  1  0
 12 10  1  0
 13 12  1  0
 13 14  1  1
 15 23  1  0
 15 14  1  0
 16 15  2  0
 17 16  1  0
 17 18  1  0
 18 19  1  0
 18 23  2  0
 19 20  2  0
 20 21  1  0
 22 21  2  0
 23 22  1  0
 24 13  1  0
 25 24  1  0
 26 24  2  0
M  END
$$$$
