MSS.pdb
     RDKit          3D

 21 20  0  0  1  0  0  0  0  0999 V2000
    8.6311  -11.7100   20.2647 C   0  0  0  0  0  0  0  0  0  0  0  0
    7.2292  -12.6916   19.7419 S   0  0  0  0  0  0  0  0  0  0  0  0
    7.6682  -14.1518   18.8192 C   0  0  0  0  0  0  0  0  0  0  0  0
    8.2158  -15.2981   19.5970 C   0  0  0  0  0  0  0  0  0  0  0  0
    8.4490  -16.5009   18.7694 C   0  0  2  0  0  0  0  0  0  0  0  0
    7.1617  -16.9464   18.2578 N   0  0  0  0  0  0  0  0  0  0  0  0
    9.1144  -17.6023   19.5332 C   0  0  0  0  0  0  0  0  0  0  0  0
    8.3978  -18.3318   20.2339 O   0  0  0  0  0  0  0  0  0  0  0  0
   13.2274  -18.6368   18.9419 O   0  0  0  0  0  0  0  0  0  0  0  0
   12.2931  -19.5387   19.4091 C   0  0  0  0  0  0  0  0  0  0  0  0
   11.1915  -18.8800   20.1982 C   0  0  2  0  0  0  0  0  0  0  0  0
   10.5154  -17.8355   19.4828 N   0  0  0  0  0  0  0  0  0  0  0  0
   11.7310  -18.4075   21.5051 C   0  0  0  0  0  0  0  0  0  0  0  0
   12.3178  -17.3014   21.5985 O   0  0  0  0  0  0  0  0  0  0  0  0
   10.2068  -19.6455   24.8587 O   0  0  0  0  0  0  0  0  0  0  0  0
   11.1222  -18.5799   24.9443 C   0  0  0  0  0  0  0  0  0  0  0  0
   12.2423  -18.7958   23.9396 C   0  0  2  0  0  0  0  0  0  0  0  0
   11.6023  -19.1851   22.6859 N   0  0  0  0  0  0  0  0  0  0  0  0
   13.1170  -19.8583   24.4657 C   0  0  0  0  0  0  0  0  0  0  0  0
   13.1581  -20.9734   23.9130 O   0  0  0  0  0  0  0  0  0  0  0  0
   13.8917  -19.6133   25.5747 O   0  0  0  0  0  0  0  0  0  0  0  0
  2  3  1  0
  2  1  1  0
  3  4  1  0
  4  5  1  0
  5  7  1  0
  5  6  1  1
  7  8  2  0
 10  9  1  0
 11 10  1  6
 12 11  1  0
 12  7  1  0
 13 14  2  0
 13 11  1  0
 16 15  1  0
 17 16  1  1
 17 18  1  0
 18 13  1  0
 19 17  1  0
 19 21  1  0
 20 19  2  0
M  END
$$$$
