MSS.pdb
     RDKit          3D

 21 20  0  0  1  0  0  0  0  0999 V2000
    6.9595  -11.3631   25.6924 C   0  0  0  0  0  0  0  0  0  0  0  0
    5.9937  -12.1721   26.9633 S   0  0  0  0  0  0  0  0  0  0  0  0
    5.9541  -13.9485   26.8256 C   0  0  0  0  0  0  0  0  0  0  0  0
    7.0876  -14.5914   26.1040 C   0  0  0  0  0  0  0  0  0  0  0  0
    6.6562  -15.6776   25.1984 C   0  0  2  0  0  0  0  0  0  0  0  0
    6.1473  -16.7663   26.0188 N   0  0  0  0  0  0  0  0  0  0  0  0
    7.7641  -16.1640   24.3178 C   0  0  0  0  0  0  0  0  0  0  0  0
    8.5789  -16.9612   24.8047 O   0  0  0  0  0  0  0  0  0  0  0  0
    8.6570  -14.2627   20.6465 O   0  0  0  0  0  0  0  0  0  0  0  0
    8.8643  -15.6261   20.6988 C   0  0  0  0  0  0  0  0  0  0  0  0
    8.9921  -16.1420   22.1086 C   0  0  2  0  0  0  0  0  0  0  0  0
    7.9103  -15.7498   22.9663 N   0  0  0  0  0  0  0  0  0  0  0  0
   10.3190  -15.7493   22.6628 C   0  0  0  0  0  0  0  0  0  0  0  0
   10.4890  -14.6237   23.1927 O   0  0  0  0  0  0  0  0  0  0  0  0
   12.6411  -18.2450   24.2508 O   0  0  0  0  0  0  0  0  0  0  0  0
   13.0634  -16.9051   24.3344 C   0  0  0  0  0  0  0  0  0  0  0  0
   12.7701  -16.2013   23.0194 C   0  0  2  0  0  0  0  0  0  0  0  0
   11.4336  -16.6273   22.6129 N   0  0  0  0  0  0  0  0  0  0  0  0
   13.7998  -16.6157   22.0505 C   0  0  0  0  0  0  0  0  0  0  0  0
   13.4759  -17.1723   20.9847 O   0  0  0  0  0  0  0  0  0  0  0  0
   15.1262  -16.3846   22.3283 O   0  0  0  0  0  0  0  0  0  0  0  0
  2  3  1  0
  2  1  1  0
  3  4  1  0
  4  5  1  0
  5  7  1  0
  5  6  1  1
  7  8  2  0
 10  9  1  0
 11 10  1  6
 12 11  1  0
 12  7  1  0
 13 14  2  0
 13 11  1  0
 16 15  1  0
 17 16  1  1
 17 18  1  0
 18 13  1  0
 19 17  1  0
 19 21  1  0
 20 19  2  0
M  END
$$$$
