MSS.pdb
     RDKit          3D

 21 20  0  0  1  0  0  0  0  0999 V2000
    5.9333  -10.9678   26.3360 C   0  0  0  0  0  0  0  0  0  0  0  0
    6.4838  -12.1922   27.5191 S   0  0  0  0  0  0  0  0  0  0  0  0
    6.4100  -13.8684   26.9179 C   0  0  0  0  0  0  0  0  0  0  0  0
    6.6388  -14.0692   25.4597 C   0  0  0  0  0  0  0  0  0  0  0  0
    6.4986  -15.4801   25.0404 C   0  0  2  0  0  0  0  0  0  0  0  0
    6.5085  -16.3046   26.2394 N   0  0  0  0  0  0  0  0  0  0  0  0
    7.5838  -15.9106   24.1043 C   0  0  0  0  0  0  0  0  0  0  0  0
    8.4251  -16.7159   24.5292 O   0  0  0  0  0  0  0  0  0  0  0  0
    7.3464  -15.6554   19.8454 O   0  0  0  0  0  0  0  0  0  0  0  0
    8.5141  -15.2487   20.4583 C   0  0  0  0  0  0  0  0  0  0  0  0
    8.6885  -15.8430   21.8318 C   0  0  2  0  0  0  0  0  0  0  0  0
    7.6803  -15.4355   22.7684 N   0  0  0  0  0  0  0  0  0  0  0  0
   10.0646  -15.5542   22.3268 C   0  0  0  0  0  0  0  0  0  0  0  0
   10.3693  -14.4145   22.7569 O   0  0  0  0  0  0  0  0  0  0  0  0
   12.0894  -18.4246   23.7896 O   0  0  0  0  0  0  0  0  0  0  0  0
   12.6435  -17.1530   24.0272 C   0  0  0  0  0  0  0  0  0  0  0  0
   12.4293  -16.2738   22.8058 C   0  0  2  0  0  0  0  0  0  0  0  0
   11.0762  -16.5503   22.3309 N   0  0  0  0  0  0  0  0  0  0  0  0
   13.4497  -16.6381   21.8074 C   0  0  0  0  0  0  0  0  0  0  0  0
   13.1167  -17.1528   20.7235 O   0  0  0  0  0  0  0  0  0  0  0  0
   14.7776  -16.4067   22.0778 O   0  0  0  0  0  0  0  0  0  0  0  0
  2  3  1  0
  2  1  1  0
  3  4  1  0
  4  5  1  0
  5  7  1  0
  5  6  1  1
  7  8  2  0
 10  9  1  0
 11 10  1  6
 12 11  1  0
 12  7  1  0
 13 14  2  0
 13 11  1  0
 16 15  1  0
 17 16  1  1
 17 18  1  0
 18 13  1  0
 19 17  1  0
 19 21  1  0
 20 19  2  0
M  END
$$$$
