MSS.pdb
     RDKit          3D

 21 20  0  0  1  0  0  0  0  0999 V2000
    7.4769  -11.4877   20.2462 C   0  0  0  0  0  0  0  0  0  0  0  0
    7.6073  -12.6466   18.8890 S   0  0  0  0  0  0  0  0  0  0  0  0
    7.7672  -14.3470   19.3983 C   0  0  0  0  0  0  0  0  0  0  0  0
    8.4818  -14.5994   20.6807 C   0  0  0  0  0  0  0  0  0  0  0  0
    8.5489  -16.0336   21.0338 C   0  0  2  0  0  0  0  0  0  0  0  0
    7.2266  -16.6055   20.8291 N   0  0  0  0  0  0  0  0  0  0  0  0
    8.9994  -16.2566   22.4433 C   0  0  0  0  0  0  0  0  0  0  0  0
    9.9541  -15.5823   22.8563 O   0  0  0  0  0  0  0  0  0  0  0  0
    6.6295  -17.7268   25.3910 O   0  0  0  0  0  0  0  0  0  0  0  0
    7.8861  -18.2934   25.4590 C   0  0  0  0  0  0  0  0  0  0  0  0
    8.8931  -17.5823   24.5928 C   0  0  2  0  0  0  0  0  0  0  0  0
    8.3800  -17.1986   23.3086 N   0  0  0  0  0  0  0  0  0  0  0  0
   10.1256  -18.4132   24.4799 C   0  0  0  0  0  0  0  0  0  0  0  0
   10.0923  -19.5461   23.9395 O   0  0  0  0  0  0  0  0  0  0  0  0
   13.6769  -16.6749   24.6598 O   0  0  0  0  0  0  0  0  0  0  0  0
   13.6081  -17.9774   24.1313 C   0  0  0  0  0  0  0  0  0  0  0  0
   12.5791  -18.7827   24.9079 C   0  0  2  0  0  0  0  0  0  0  0  0
   11.3757  -17.9580   24.9756 N   0  0  0  0  0  0  0  0  0  0  0  0
   13.1380  -19.0537   26.2439 C   0  0  0  0  0  0  0  0  0  0  0  0
   12.6112  -18.5630   27.2599 O   0  0  0  0  0  0  0  0  0  0  0  0
   14.2489  -19.8544   26.3658 O   0  0  0  0  0  0  0  0  0  0  0  0
  2  3  1  0
  2  1  1  0
  3  4  1  0
  4  5  1  0
  5  7  1  0
  5  6  1  1
  7  8  2  0
 10  9  1  0
 11 10  1  6
 12 11  1  0
 12  7  1  0
 13 14  2  0
 13 11  1  0
 16 15  1  0
 17 16  1  6
 17 18  1  0
 18 13  1  0
 19 17  1  0
 19 21  1  0
 20 19  2  0
M  END
$$$$
