MSS.pdb
     RDKit          3D

 21 20  0  0  1  0  0  0  0  0999 V2000
    8.0620  -11.5798   21.0084 C   0  0  0  0  0  0  0  0  0  0  0  0
    7.5661  -12.0260   19.3480 S   0  0  0  0  0  0  0  0  0  0  0  0
    7.8160  -13.7457   18.9524 C   0  0  0  0  0  0  0  0  0  0  0  0
    8.3807  -14.6070   20.0286 C   0  0  0  0  0  0  0  0  0  0  0  0
    8.5012  -16.0261   19.6314 C   0  0  2  0  0  0  0  0  0  0  0  0
    7.1633  -16.5265   19.3538 N   0  0  0  0  0  0  0  0  0  0  0  0
    9.1612  -16.8617   20.6828 C   0  0  0  0  0  0  0  0  0  0  0  0
    8.4769  -17.2084   21.6566 O   0  0  0  0  0  0  0  0  0  0  0  0
   13.3298  -17.5638   20.6117 O   0  0  0  0  0  0  0  0  0  0  0  0
   12.5425  -18.5645   21.1441 C   0  0  0  0  0  0  0  0  0  0  0  0
   11.1902  -18.0686   21.5860 C   0  0  2  0  0  0  0  0  0  0  0  0
   10.5220  -17.2638   20.6034 N   0  0  0  0  0  0  0  0  0  0  0  0
   11.3223  -17.3645   22.8933 C   0  0  0  0  0  0  0  0  0  0  0  0
   11.8496  -16.2271   22.9627 O   0  0  0  0  0  0  0  0  0  0  0  0
    9.1282  -15.9955   24.9771 O   0  0  0  0  0  0  0  0  0  0  0  0
    9.7064  -16.8864   25.9005 C   0  0  0  0  0  0  0  0  0  0  0  0
   11.0760  -17.3139   25.3985 C   0  0  2  0  0  0  0  0  0  0  0  0
   10.8599  -17.9494   24.1014 N   0  0  0  0  0  0  0  0  0  0  0  0
   11.6419  -18.2509   26.3846 C   0  0  0  0  0  0  0  0  0  0  0  0
   11.8602  -17.8813   27.5535 O   0  0  0  0  0  0  0  0  0  0  0  0
   11.9295  -19.5415   26.0080 O   0  0  0  0  0  0  0  0  0  0  0  0
  2  3  1  0
  2  1  1  0
  3  4  1  0
  4  5  1  0
  5  7  1  0
  5  6  1  1
  7  8  2  0
 10  9  1  0
 11 10  1  6
 12 11  1  0
 12  7  1  0
 13 14  2  0
 13 11  1  0
 16 15  1  0
 17 16  1  1
 17 18  1  0
 18 13  1  0
 19 17  1  0
 19 21  1  0
 20 19  2  0
M  END
$$$$
