MSS.pdb
     RDKit          3D

 21 20  0  0  1  0  0  0  0  0999 V2000
    7.4132  -11.9180   18.9099 C   0  0  0  0  0  0  0  0  0  0  0  0
    8.9489  -12.7624   19.2721 S   0  0  0  0  0  0  0  0  0  0  0  0
    9.0892  -14.3708   18.5173 C   0  0  0  0  0  0  0  0  0  0  0  0
   10.3129  -15.1578   18.8368 C   0  0  0  0  0  0  0  0  0  0  0  0
   11.2974  -14.3985   19.6370 C   0  0  2  0  0  0  0  0  0  0  0  0
   12.5805  -14.4752   18.9550 N   0  0  0  0  0  0  0  0  0  0  0  0
   11.4203  -14.9158   21.0359 C   0  0  0  0  0  0  0  0  0  0  0  0
   12.4908  -15.4499   21.3604 O   0  0  0  0  0  0  0  0  0  0  0  0
    8.1039  -15.3984   23.7581 O   0  0  0  0  0  0  0  0  0  0  0  0
    9.2867  -14.8409   24.1996 C   0  0  0  0  0  0  0  0  0  0  0  0
   10.4692  -15.2394   23.3553 C   0  0  2  0  0  0  0  0  0  0  0  0
   10.3695  -14.8166   21.9875 N   0  0  0  0  0  0  0  0  0  0  0  0
   10.6917  -16.7086   23.4742 C   0  0  0  0  0  0  0  0  0  0  0  0
   10.2787  -17.4972   22.5886 O   0  0  0  0  0  0  0  0  0  0  0  0
   13.9238  -18.2794   24.3910 O   0  0  0  0  0  0  0  0  0  0  0  0
   12.8371  -19.0237   23.8953 C   0  0  0  0  0  0  0  0  0  0  0  0
   11.5948  -18.7066   24.7119 C   0  0  2  0  0  0  0  0  0  0  0  0
   11.3747  -17.2683   24.5859 N   0  0  0  0  0  0  0  0  0  0  0  0
   11.8614  -19.1040   26.1053 C   0  0  0  0  0  0  0  0  0  0  0  0
   11.8119  -18.2627   27.0221 O   0  0  0  0  0  0  0  0  0  0  0  0
   12.1665  -20.4135   26.3917 O   0  0  0  0  0  0  0  0  0  0  0  0
  2  3  1  0
  2  1  1  0
  3  4  1  0
  4  5  1  0
  5  7  1  0
  5  6  1  6
  7  8  2  0
 10  9  1  0
 11 10  1  1
 12 11  1  0
 12  7  1  0
 13 14  2  0
 13 11  1  0
 16 15  1  0
 17 16  1  6
 17 18  1  0
 18 13  1  0
 19 17  1  0
 19 21  1  0
 20 19  2  0
M  END
$$$$
