MSS.pdb
     RDKit          3D

 21 20  0  0  1  0  0  0  0  0999 V2000
   -3.5258  -22.1000   38.4725 C   0  0  0  0  0  0  0  0  0  0  0  0
   -2.4976  -23.4962   38.9151 S   0  0  0  0  0  0  0  0  0  0  0  0
   -2.0299  -24.5209   37.5339 C   0  0  0  0  0  0  0  0  0  0  0  0
   -2.6166  -24.1719   36.2100 C   0  0  0  0  0  0  0  0  0  0  0  0
   -2.2693  -25.1412   35.1489 C   0  0  2  0  0  0  0  0  0  0  0  0
   -0.8424  -25.0248   34.8885 N   0  0  0  0  0  0  0  0  0  0  0  0
   -3.0475  -24.9171   33.8905 C   0  0  0  0  0  0  0  0  0  0  0  0
   -2.5260  -24.2215   33.0069 O   0  0  0  0  0  0  0  0  0  0  0  0
   -7.0851  -26.3180   33.3500 O   0  0  0  0  0  0  0  0  0  0  0  0
   -6.1672  -26.4129   32.3238 C   0  0  0  0  0  0  0  0  0  0  0  0
   -5.0593  -25.3982   32.4378 C   0  0  2  0  0  0  0  0  0  0  0  0
   -4.3414  -25.4655   33.6787 N   0  0  0  0  0  0  0  0  0  0  0  0
   -5.6052  -24.0356   32.1779 C   0  0  0  0  0  0  0  0  0  0  0  0
   -5.9985  -23.3075   33.1223 O   0  0  0  0  0  0  0  0  0  0  0  0
   -5.6612  -22.6282   28.3267 O   0  0  0  0  0  0  0  0  0  0  0  0
   -5.6089  -21.6658   29.3522 C   0  0  0  0  0  0  0  0  0  0  0  0
   -6.3029  -22.2103   30.5902 C   0  0  2  0  0  0  0  0  0  0  0  0
   -5.7003  -23.5127   30.8614 N   0  0  0  0  0  0  0  0  0  0  0  0
   -7.7403  -22.3200   30.2859 C   0  0  0  0  0  0  0  0  0  0  0  0
   -8.2852  -23.4368   30.2066 O   0  0  0  0  0  0  0  0  0  0  0  0
   -8.4818  -21.1792   30.0889 O   0  0  0  0  0  0  0  0  0  0  0  0
  2  3  1  0
  2  1  1  0
  3  4  1  0
  4  5  1  0
  5  7  1  0
  5  6  1  6
  7  8  2  0
 10  9  1  0
 11 10  1  1
 12 11  1  0
 12  7  1  0
 13 14  2  0
 13 11  1  0
 16 15  1  0
 17 16  1  6
 17 18  1  0
 18 13  1  0
 19 17  1  0
 19 21  1  0
 20 19  2  0
M  END
$$$$
