MSS.pdb
     RDKit          3D

 21 20  0  0  1  0  0  0  0  0999 V2000
    5.2464  -11.3525   26.8500 C   0  0  0  0  0  0  0  0  0  0  0  0
    6.3907  -12.2432   25.8014 S   0  0  0  0  0  0  0  0  0  0  0  0
    7.7562  -12.9805   26.6777 C   0  0  0  0  0  0  0  0  0  0  0  0
    8.3388  -14.2201   26.0923 C   0  0  0  0  0  0  0  0  0  0  0  0
    7.3930  -14.9488   25.2203 C   0  0  2  0  0  0  0  0  0  0  0  0
    6.3957  -15.5786   26.0724 N   0  0  0  0  0  0  0  0  0  0  0  0
    8.0723  -15.9750   24.3688 C   0  0  0  0  0  0  0  0  0  0  0  0
    8.3525  -17.0634   24.8918 O   0  0  0  0  0  0  0  0  0  0  0  0
    9.6996  -14.9823   20.4931 O   0  0  0  0  0  0  0  0  0  0  0  0
    9.2556  -16.2628   20.7533 C   0  0  0  0  0  0  0  0  0  0  0  0
    9.2578  -16.5925   22.2235 C   0  0  2  0  0  0  0  0  0  0  0  0
    8.4008  -15.7472   23.0050 N   0  0  0  0  0  0  0  0  0  0  0  0
   10.6598  -16.5931   22.7302 C   0  0  0  0  0  0  0  0  0  0  0  0
   11.1666  -15.5571   23.2265 O   0  0  0  0  0  0  0  0  0  0  0  0
   12.7092  -18.3798   26.0295 O   0  0  0  0  0  0  0  0  0  0  0  0
   11.7716  -18.1372   25.0084 C   0  0  0  0  0  0  0  0  0  0  0  0
   12.4937  -18.0368   23.6746 C   0  0  2  0  0  0  0  0  0  0  0  0
   11.4697  -17.7577   22.6713 N   0  0  0  0  0  0  0  0  0  0  0  0
   13.1672  -19.3245   23.4320 C   0  0  0  0  0  0  0  0  0  0  0  0
   12.5584  -20.2617   22.8828 O   0  0  0  0  0  0  0  0  0  0  0  0
   14.4771  -19.4889   23.8160 O   0  0  0  0  0  0  0  0  0  0  0  0
  2  3  1  0
  2  1  1  0
  3  4  1  0
  4  5  1  0
  5  7  1  0
  5  6  1  1
  7  8  2  0
 10  9  1  0
 11 10  1  6
 12 11  1  0
 12  7  1  0
 13 14  2  0
 13 11  1  0
 16 15  1  0
 17 16  1  1
 17 18  1  0
 18 13  1  0
 19 17  1  0
 19 21  1  0
 20 19  2  0
M  END
$$$$
