MSS.pdb
     RDKit          3D

 21 20  0  0  1  0  0  0  0  0999 V2000
   -6.3364  -27.8942   23.4781 C   0  0  0  0  0  0  0  0  0  0  0  0
   -5.0263  -29.0011   23.9887 S   0  0  0  0  0  0  0  0  0  0  0  0
   -3.7914  -28.2374   25.0223 C   0  0  0  0  0  0  0  0  0  0  0  0
   -4.2814  -27.4975   26.2187 C   0  0  0  0  0  0  0  0  0  0  0  0
   -3.2038  -26.7922   26.9450 C   0  0  2  0  0  0  0  0  0  0  0  0
   -2.3511  -27.7966   27.5626 N   0  0  0  0  0  0  0  0  0  0  0  0
   -3.7319  -25.8501   27.9808 C   0  0  0  0  0  0  0  0  0  0  0  0
   -3.9276  -26.2977   29.1201 O   0  0  0  0  0  0  0  0  0  0  0  0
   -4.3410  -21.6835   27.1625 O   0  0  0  0  0  0  0  0  0  0  0  0
   -4.0545  -22.1317   28.4359 C   0  0  0  0  0  0  0  0  0  0  0  0
   -4.5126  -23.5475   28.6718 C   0  0  2  0  0  0  0  0  0  0  0  0
   -4.0112  -24.4839   27.7067 N   0  0  0  0  0  0  0  0  0  0  0  0
   -6.0001  -23.5791   28.7649 C   0  0  0  0  0  0  0  0  0  0  0  0
   -6.7050  -23.8053   27.7507 O   0  0  0  0  0  0  0  0  0  0  0  0
   -9.9500  -23.7413   31.5139 O   0  0  0  0  0  0  0  0  0  0  0  0
   -8.5544  -23.8571   31.3746 C   0  0  0  0  0  0  0  0  0  0  0  0
   -8.1231  -23.2119   30.0676 C   0  0  2  0  0  0  0  0  0  0  0  0
   -6.6716  -23.3562   29.9957 N   0  0  0  0  0  0  0  0  0  0  0  0
   -8.5356  -21.7980   30.1087 C   0  0  0  0  0  0  0  0  0  0  0  0
   -9.5818  -21.4291   29.5430 O   0  0  0  0  0  0  0  0  0  0  0  0
   -7.7576  -20.8827   30.7771 O   0  0  0  0  0  0  0  0  0  0  0  0
  2  3  1  0
  2  1  1  0
  3  4  1  0
  4  5  1  0
  5  7  1  0
  5  6  1  1
  7  8  2  0
 10  9  1  0
 11 10  1  6
 12 11  1  0
 12  7  1  0
 13 14  2  0
 13 11  1  0
 16 15  1  0
 17 16  1  1
 17 18  1  0
 18 13  1  0
 19 17  1  0
 19 21  1  0
 20 19  2  0
M  END
$$$$
