MSS.pdb
     RDKit          3D

 21 20  0  0  1  0  0  0  0  0999 V2000
    8.2219  -12.0869   21.2542 C   0  0  0  0  0  0  0  0  0  0  0  0
    7.3449  -12.5194   19.7555 S   0  0  0  0  0  0  0  0  0  0  0  0
    7.8746  -14.0544   19.0210 C   0  0  0  0  0  0  0  0  0  0  0  0
    8.6227  -14.9962   19.8997 C   0  0  0  0  0  0  0  0  0  0  0  0
    9.0052  -16.2487   19.2133 C   0  0  2  0  0  0  0  0  0  0  0  0
    7.7858  -16.8933   18.7498 N   0  0  0  0  0  0  0  0  0  0  0  0
    9.7786  -17.1745   20.0988 C   0  0  0  0  0  0  0  0  0  0  0  0
    9.1395  -17.9989   20.7685 O   0  0  0  0  0  0  0  0  0  0  0  0
   13.4058  -18.8225   19.2019 O   0  0  0  0  0  0  0  0  0  0  0  0
   13.3792  -18.2506   20.4576 C   0  0  0  0  0  0  0  0  0  0  0  0
   11.9792  -18.0538   20.9784 C   0  0  2  0  0  0  0  0  0  0  0  0
   11.1961  -17.1407   20.1955 N   0  0  0  0  0  0  0  0  0  0  0  0
   12.0346  -17.6579   22.4145 C   0  0  0  0  0  0  0  0  0  0  0  0
   12.5720  -16.5787   22.7656 O   0  0  0  0  0  0  0  0  0  0  0  0
    9.5489  -19.3641   24.9824 O   0  0  0  0  0  0  0  0  0  0  0  0
   10.1801  -18.1806   25.4086 C   0  0  0  0  0  0  0  0  0  0  0  0
   11.5919  -18.1322   24.8472 C   0  0  2  0  0  0  0  0  0  0  0  0
   11.4854  -18.4805   23.4329 N   0  0  0  0  0  0  0  0  0  0  0  0
   12.4051  -19.1064   25.5957 C   0  0  0  0  0  0  0  0  0  0  0  0
   12.8797  -20.1049   25.0227 O   0  0  0  0  0  0  0  0  0  0  0  0
   12.6393  -18.9085   26.9358 O   0  0  0  0  0  0  0  0  0  0  0  0
  2  3  1  0
  2  1  1  0
  3  4  1  0
  4  5  1  0
  5  7  1  0
  5  6  1  1
  7  8  2  0
 10  9  1  0
 11 10  1  6
 12 11  1  0
 12  7  1  0
 13 14  2  0
 13 11  1  0
 16 15  1  0
 17 16  1  1
 17 18  1  0
 18 13  1  0
 19 17  1  0
 19 21  1  0
 20 19  2  0
M  END
$$$$
