MSS.pdb
     RDKit          3D

 21 20  0  0  1  0  0  0  0  0999 V2000
    8.1374  -11.9163   19.6711 C   0  0  0  0  0  0  0  0  0  0  0  0
    6.9094  -12.6210   18.5767 S   0  0  0  0  0  0  0  0  0  0  0  0
    7.2184  -14.3200   18.1358 C   0  0  0  0  0  0  0  0  0  0  0  0
    8.2111  -14.5625   17.0521 C   0  0  0  0  0  0  0  0  0  0  0  0
    8.4163  -15.9984   16.7653 C   0  0  2  0  0  0  0  0  0  0  0  0
    7.1518  -16.5444   16.2959 N   0  0  0  0  0  0  0  0  0  0  0  0
    8.8993  -16.7585   17.9604 C   0  0  0  0  0  0  0  0  0  0  0  0
    8.0473  -17.2004   18.7449 O   0  0  0  0  0  0  0  0  0  0  0  0
   12.9941  -17.9551   18.4641 O   0  0  0  0  0  0  0  0  0  0  0  0
   11.9329  -18.6064   19.0594 C   0  0  0  0  0  0  0  0  0  0  0  0
   10.7830  -17.6835   19.3694 C   0  0  2  0  0  0  0  0  0  0  0  0
   10.2776  -16.9865   18.2211 N   0  0  0  0  0  0  0  0  0  0  0  0
   11.1757  -16.7513   20.4644 C   0  0  0  0  0  0  0  0  0  0  0  0
   11.8864  -15.7433   20.2292 O   0  0  0  0  0  0  0  0  0  0  0  0
    9.4819  -17.2958   24.0653 O   0  0  0  0  0  0  0  0  0  0  0  0
    9.9830  -15.9995   23.8436 C   0  0  0  0  0  0  0  0  0  0  0  0
   11.1635  -16.0720   22.8888 C   0  0  2  0  0  0  0  0  0  0  0  0
   10.7635  -16.9665   21.8058 N   0  0  0  0  0  0  0  0  0  0  0  0
   12.3162  -16.5973   23.6410 C   0  0  0  0  0  0  0  0  0  0  0  0
   12.8621  -15.9075   24.5224 O   0  0  0  0  0  0  0  0  0  0  0  0
   12.7896  -17.8582   23.3654 O   0  0  0  0  0  0  0  0  0  0  0  0
  2  3  1  0
  2  1  1  0
  3  4  1  0
  4  5  1  0
  5  7  1  0
  5  6  1  1
  7  8  2  0
 10  9  1  0
 11 10  1  6
 12 11  1  0
 12  7  1  0
 13 14  2  0
 13 11  1  0
 16 15  1  0
 17 16  1  1
 17 18  1  0
 18 13  1  0
 19 17  1  0
 19 21  1  0
 20 19  2  0
M  END
$$$$
