MSS.pdb
     RDKit          3D

 21 20  0  0  1  0  0  0  0  0999 V2000
    7.4898  -11.1509   26.4598 C   0  0  0  0  0  0  0  0  0  0  0  0
    6.0777  -12.0880   25.8853 S   0  0  0  0  0  0  0  0  0  0  0  0
    6.4851  -13.3780   24.7250 C   0  0  0  0  0  0  0  0  0  0  0  0
    7.5781  -13.0882   23.7554 C   0  0  0  0  0  0  0  0  0  0  0  0
    7.7592  -14.1573   22.7502 C   0  0  2  0  0  0  0  0  0  0  0  0
    6.5460  -14.2267   21.9498 N   0  0  0  0  0  0  0  0  0  0  0  0
    8.0480  -15.4870   23.3730 C   0  0  0  0  0  0  0  0  0  0  0  0
    7.0825  -16.2037   23.6744 O   0  0  0  0  0  0  0  0  0  0  0  0
   12.0194  -16.8330   24.5919 O   0  0  0  0  0  0  0  0  0  0  0  0
   11.1245  -17.6477   23.9285 C   0  0  0  0  0  0  0  0  0  0  0  0
    9.6909  -17.2424   24.1531 C   0  0  2  0  0  0  0  0  0  0  0  0
    9.3686  -15.9471   23.6257 N   0  0  0  0  0  0  0  0  0  0  0  0
    9.3642  -17.3556   25.6032 C   0  0  0  0  0  0  0  0  0  0  0  0
    9.5160  -16.3782   26.3766 O   0  0  0  0  0  0  0  0  0  0  0  0
    7.6975  -20.7964   26.9128 O   0  0  0  0  0  0  0  0  0  0  0  0
    7.5157  -19.6937   27.7681 C   0  0  0  0  0  0  0  0  0  0  0  0
    8.6775  -18.7281   27.5992 C   0  0  2  0  0  0  0  0  0  0  0  0
    8.8723  -18.5649   26.1610 N   0  0  0  0  0  0  0  0  0  0  0  0
    9.8554  -19.3264   28.2512 C   0  0  0  0  0  0  0  0  0  0  0  0
   10.8562  -19.6412   27.5803 O   0  0  0  0  0  0  0  0  0  0  0  0
    9.8461  -19.5372   29.6096 O   0  0  0  0  0  0  0  0  0  0  0  0
  2  3  1  0
  2  1  1  0
  3  4  1  0
  4  5  1  0
  5  7  1  0
  5  6  1  1
  7  8  2  0
 10  9  1  0
 11 10  1  1
 12 11  1  0
 12  7  1  0
 13 14  2  0
 13 11  1  0
 16 15  1  0
 17 16  1  6
 17 18  1  0
 18 13  1  0
 19 17  1  0
 19 21  1  0
 20 19  2  0
M  END
$$$$
