MSS.pdb
     RDKit          3D

 21 20  0  0  1  0  0  0  0  0999 V2000
    8.0725  -12.0316   21.4985 C   0  0  0  0  0  0  0  0  0  0  0  0
    8.0953  -12.1161   19.7112 S   0  0  0  0  0  0  0  0  0  0  0  0
    7.2541  -13.5369   19.0401 C   0  0  0  0  0  0  0  0  0  0  0  0
    7.4234  -14.8242   19.7702 C   0  0  0  0  0  0  0  0  0  0  0  0
    8.4194  -15.7190   19.1431 C   0  0  2  0  0  0  0  0  0  0  0  0
    7.8445  -16.2296   17.9077 N   0  0  0  0  0  0  0  0  0  0  0  0
    8.8176  -16.8504   20.0380 C   0  0  0  0  0  0  0  0  0  0  0  0
    7.9135  -17.5416   20.5294 O   0  0  0  0  0  0  0  0  0  0  0  0
   12.5947  -18.6413   19.9187 O   0  0  0  0  0  0  0  0  0  0  0  0
   11.4919  -19.2269   20.5064 C   0  0  0  0  0  0  0  0  0  0  0  0
   10.5968  -18.2268   21.1909 C   0  0  2  0  0  0  0  0  0  0  0  0
   10.1734  -17.1533   20.3376 N   0  0  0  0  0  0  0  0  0  0  0  0
   11.2620  -17.7309   22.4293 C   0  0  0  0  0  0  0  0  0  0  0  0
   11.8622  -16.6281   22.4415 O   0  0  0  0  0  0  0  0  0  0  0  0
   11.7222  -18.0541   27.2091 O   0  0  0  0  0  0  0  0  0  0  0  0
   11.1334  -18.5184   26.0182 C   0  0  0  0  0  0  0  0  0  0  0  0
   11.9527  -18.0392   24.8308 C   0  0  2  0  0  0  0  0  0  0  0  0
   11.2422  -18.4818   23.6341 N   0  0  0  0  0  0  0  0  0  0  0  0
   13.2904  -18.6477   24.9351 C   0  0  0  0  0  0  0  0  0  0  0  0
   13.5779  -19.6582   24.2665 O   0  0  0  0  0  0  0  0  0  0  0  0
   14.2251  -18.0934   25.7772 O   0  0  0  0  0  0  0  0  0  0  0  0
  2  3  1  0
  2  1  1  0
  3  4  1  0
  4  5  1  0
  5  7  1  0
  5  6  1  6
  7  8  2  0
 10  9  1  0
 11 10  1  6
 12 11  1  0
 12  7  1  0
 13 14  2  0
 13 11  1  0
 16 15  1  0
 17 16  1  1
 17 18  1  0
 18 13  1  0
 19 17  1  0
 19 21  1  0
 20 19  2  0
M  END
$$$$
