VPH.pdb
     RDKit          3D

 25 26  0  0  1  0  0  0  0  0999 V2000
    6.7401  -14.0701   18.9931 C   0  0  0  0  0  0  0  0  0  0  0  0
    7.2774  -14.3666   20.3591 C   0  0  2  0  0  0  0  0  0  0  0  0
    6.1875  -15.0292   21.1730 C   0  0  0  0  0  0  0  0  0  0  0  0
    7.7434  -13.1205   21.0855 C   0  0  2  0  0  0  0  0  0  0  0  0
    8.7697  -12.4595   20.2287 N   0  0  0  0  0  0  0  0  0  0  0  0
    8.4361  -13.5584   22.3242 C   0  0  0  0  0  0  0  0  0  0  0  0
    9.6869  -13.8457   22.1406 O   0  0  0  0  0  0  0  0  0  0  0  0
    7.8630  -13.6701   23.6007 N   0  0  0  0  0  0  0  0  0  0  0  0
    6.5376  -13.3719   23.9917 C   0  0  0  0  0  0  0  0  0  0  0  0
    6.7082  -12.8560   25.4178 C   0  0  0  0  0  0  0  0  0  0  0  0
    8.1721  -12.9315   25.6964 C   0  0  0  0  0  0  0  0  0  0  0  0
    8.5509  -14.1027   24.7730 C   0  0  1  0  0  0  0  0  0  0  0  0
    8.0278  -15.3785   25.2516 C   0  0  0  0  0  0  0  0  0  0  0  0
    7.0466  -15.9436   24.7600 O   0  0  0  0  0  0  0  0  0  0  0  0
    8.6717  -16.0319   26.3525 N   0  0  0  0  0  0  0  0  0  0  0  0
    9.5458  -17.1839   26.1761 C   0  0  1  0  0  0  0  0  0  0  0  0
   10.7691  -16.6066   25.4496 C   0  0  0  0  0  0  0  0  0  0  0  0
   10.8571  -17.1350   24.0903 C   0  0  0  0  0  0  0  0  0  0  0  0
   10.0229  -18.0750   23.5386 C   0  0  0  0  0  0  0  0  0  0  0  0
   10.4706  -18.2714   22.2774 N   0  0  0  0  0  0  0  0  0  0  0  0
   11.5327  -17.4831   22.0732 C   0  0  0  0  0  0  0  0  0  0  0  0
   11.7793  -16.7806   23.1799 N   0  0  0  0  0  0  0  0  0  0  0  0
    9.9040  -17.6792   27.5101 C   0  0  0  0  0  0  0  0  0  0  0  0
   10.1919  -16.8737   28.4160 O   0  0  0  0  0  0  0  0  0  0  0  0
    9.9256  -19.0253   27.7729 O   0  0  0  0  0  0  0  0  0  0  0  0
  2  1  1  6
  2  3  1  0
  4  2  1  0
  4  5  1  6
  6  4  1  0
  6  7  2  0
  8  6  1  0
  9  8  1  0
 10  9  1  0
 10 11  1  0
 11 12  1  0
 12  8  1  0
 12 13  1  1
 14 13  2  0
 15 13  1  0
 16 17  1  1
 16 15  1  0
 18 17  1  0
 19 18  2  0
 20 21  1  0
 20 19  1  0
 21 22  2  0
 22 18  1  0
 23 25  1  0
 23 16  1  0
 24 23  2  0
M  END
$$$$
