VPH.pdb
     RDKit          3D

 25 26  0  0  1  0  0  0  0  0999 V2000
    7.6854  -17.6365   15.2290 C   0  0  0  0  0  0  0  0  0  0  0  0
    8.3356  -17.0669   16.4519 C   0  0  2  0  0  0  0  0  0  0  0  0
    7.4555  -17.3600   17.6472 C   0  0  0  0  0  0  0  0  0  0  0  0
    8.5488  -15.5694   16.3550 C   0  0  2  0  0  0  0  0  0  0  0  0
    9.4562  -15.3196   15.1980 N   0  0  0  0  0  0  0  0  0  0  0  0
    9.2814  -15.1429   17.5747 C   0  0  0  0  0  0  0  0  0  0  0  0
   10.5688  -15.2492   17.4657 O   0  0  0  0  0  0  0  0  0  0  0  0
    8.7079  -14.6584   18.7608 N   0  0  0  0  0  0  0  0  0  0  0  0
    7.3470  -14.3779   19.0214 C   0  0  0  0  0  0  0  0  0  0  0  0
    7.4182  -13.1871   19.9733 C   0  0  0  0  0  0  0  0  0  0  0  0
    8.8730  -12.9175   20.1662 C   0  0  0  0  0  0  0  0  0  0  0  0
    9.4297  -14.3354   19.9479 C   0  0  1  0  0  0  0  0  0  0  0  0
    9.0844  -15.2414   21.0389 C   0  0  0  0  0  0  0  0  0  0  0  0
    7.9963  -15.8168   21.1322 O   0  0  0  0  0  0  0  0  0  0  0  0
   10.0452  -15.4936   22.0718 N   0  0  0  0  0  0  0  0  0  0  0  0
    9.8477  -16.5150   23.0917 C   0  0  1  0  0  0  0  0  0  0  0  0
    9.8496  -17.8292   22.2979 C   0  0  0  0  0  0  0  0  0  0  0  0
   11.1723  -18.0877   21.7337 C   0  0  0  0  0  0  0  0  0  0  0  0
   12.2354  -17.2198   21.7490 C   0  0  0  0  0  0  0  0  0  0  0  0
   13.2445  -17.8606   21.1158 N   0  0  0  0  0  0  0  0  0  0  0  0
   12.8108  -19.0672   20.7325 C   0  0  0  0  0  0  0  0  0  0  0  0
   11.5393  -19.2177   21.1066 N   0  0  0  0  0  0  0  0  0  0  0  0
   10.9870  -16.4488   24.0141 C   0  0  0  0  0  0  0  0  0  0  0  0
   11.0719  -17.2591   24.9568 O   0  0  0  0  0  0  0  0  0  0  0  0
   11.9646  -15.5007   23.8499 O   0  0  0  0  0  0  0  0  0  0  0  0
  2  1  1  6
  2  3  1  0
  4  2  1  0
  4  5  1  6
  6  4  1  0
  6  7  2  0
  8  6  1  0
  9  8  1  0
 10  9  1  0
 10 11  1  0
 11 12  1  0
 12  8  1  0
 12 13  1  1
 14 13  2  0
 15 13  1  0
 16 17  1  6
 16 15  1  0
 18 17  1  0
 19 18  2  0
 20 21  1  0
 20 19  1  0
 21 22  2  0
 22 18  1  0
 23 25  1  0
 23 16  1  0
 24 23  2  0
M  END
$$$$
