VPH.pdb
     RDKit          3D

 25 26  0  0  1  0  0  0  0  0999 V2000
    7.8598  -15.2679   15.6178 C   0  0  0  0  0  0  0  0  0  0  0  0
    8.5635  -15.0499   16.9217 C   0  0  2  0  0  0  0  0  0  0  0  0
    8.5452  -16.3458   17.7023 C   0  0  0  0  0  0  0  0  0  0  0  0
    7.9173  -13.9638   17.7585 C   0  0  2  0  0  0  0  0  0  0  0  0
    8.0447  -12.6825   17.0060 N   0  0  0  0  0  0  0  0  0  0  0  0
    8.7231  -13.8158   18.9974 C   0  0  0  0  0  0  0  0  0  0  0  0
    9.7260  -13.0048   18.8655 O   0  0  0  0  0  0  0  0  0  0  0  0
    8.4828  -14.4522   20.2252 N   0  0  0  0  0  0  0  0  0  0  0  0
    7.4382  -15.3458   20.5555 C   0  0  0  0  0  0  0  0  0  0  0  0
    7.1658  -15.0279   22.0231 C   0  0  0  0  0  0  0  0  0  0  0  0
    8.1337  -13.9513   22.3839 C   0  0  0  0  0  0  0  0  0  0  0  0
    9.2706  -14.2863   21.4025 C   0  0  1  0  0  0  0  0  0  0  0  0
    9.9613  -15.5231   21.7544 C   0  0  0  0  0  0  0  0  0  0  0  0
    9.4530  -16.6433   21.6532 O   0  0  0  0  0  0  0  0  0  0  0  0
   11.3055  -15.4599   22.2472 N   0  0  0  0  0  0  0  0  0  0  0  0
   12.1119  -16.6514   22.4756 C   0  0  1  0  0  0  0  0  0  0  0  0
   13.5016  -16.2574   21.9551 C   0  0  0  0  0  0  0  0  0  0  0  0
   13.4317  -15.8609   20.5506 C   0  0  0  0  0  0  0  0  0  0  0  0
   13.5109  -14.5762   20.0740 C   0  0  0  0  0  0  0  0  0  0  0  0
   13.3930  -14.6730   18.7300 N   0  0  0  0  0  0  0  0  0  0  0  0
   13.2483  -15.9633   18.4053 C   0  0  0  0  0  0  0  0  0  0  0  0
   13.2705  -16.7021   19.5157 N   0  0  0  0  0  0  0  0  0  0  0  0
   12.1365  -16.9017   23.9213 C   0  0  0  0  0  0  0  0  0  0  0  0
   12.7862  -17.8631   24.3751 O   0  0  0  0  0  0  0  0  0  0  0  0
   11.4490  -16.0856   24.7832 O   0  0  0  0  0  0  0  0  0  0  0  0
  2  1  1  6
  2  3  1  0
  4  2  1  0
  4  5  1  6
  6  4  1  0
  6  7  2  0
  8  6  1  0
  9  8  1  0
 10  9  1  0
 10 11  1  0
 11 12  1  0
 12  8  1  0
 12 13  1  1
 14 13  2  0
 15 13  1  0
 16 17  1  1
 16 15  1  0
 18 17  1  0
 19 18  2  0
 20 21  1  0
 20 19  1  0
 21 22  2  0
 22 18  1  0
 23 25  1  0
 23 16  1  0
 24 23  2  0
M  END
$$$$
