VPH.pdb
     RDKit          3D

 25 26  0  0  1  0  0  0  0  0999 V2000
    7.6651  -12.8279   26.7935 C   0  0  0  0  0  0  0  0  0  0  0  0
    6.7135  -12.5378   25.6741 C   0  0  2  0  0  0  0  0  0  0  0  0
    5.7819  -11.4275   26.1084 C   0  0  0  0  0  0  0  0  0  0  0  0
    5.8872  -13.7469   25.2832 C   0  0  2  0  0  0  0  0  0  0  0  0
    5.3043  -14.3147   26.5330 N   0  0  0  0  0  0  0  0  0  0  0  0
    6.8193  -14.7686   24.7417 C   0  0  0  0  0  0  0  0  0  0  0  0
    6.8334  -15.8682   25.4283 O   0  0  0  0  0  0  0  0  0  0  0  0
    7.6312  -14.6324   23.6047 N   0  0  0  0  0  0  0  0  0  0  0  0
    7.7876  -13.4988   22.7745 C   0  0  0  0  0  0  0  0  0  0  0  0
    8.0089  -14.1120   21.3946 C   0  0  0  0  0  0  0  0  0  0  0  0
    7.9634  -15.5887   21.6027 C   0  0  0  0  0  0  0  0  0  0  0  0
    8.4562  -15.6598   23.0587 C   0  0  1  0  0  0  0  0  0  0  0  0
    9.8710  -15.3228   23.1830 C   0  0  0  0  0  0  0  0  0  0  0  0
   10.3732  -14.2954   22.7183 O   0  0  0  0  0  0  0  0  0  0  0  0
   10.7468  -16.2185   23.8790 N   0  0  0  0  0  0  0  0  0  0  0  0
   11.2528  -15.9369   25.2158 C   0  0  1  0  0  0  0  0  0  0  0  0
    9.9822  -15.7097   26.0472 C   0  0  0  0  0  0  0  0  0  0  0  0
   10.3158  -15.5306   27.4584 C   0  0  0  0  0  0  0  0  0  0  0  0
   10.9644  -14.4487   27.9991 C   0  0  0  0  0  0  0  0  0  0  0  0
   11.0690  -14.7045   29.3232 N   0  0  0  0  0  0  0  0  0  0  0  0
   10.5069  -15.8928   29.5747 C   0  0  0  0  0  0  0  0  0  0  0  0
   10.0409  -16.4094   28.4366 N   0  0  0  0  0  0  0  0  0  0  0  0
   11.9835  -17.1240   25.6742 C   0  0  0  0  0  0  0  0  0  0  0  0
   13.1067  -16.9989   26.1988 O   0  0  0  0  0  0  0  0  0  0  0  0
   11.4417  -18.3761   25.5313 O   0  0  0  0  0  0  0  0  0  0  0  0
  2  1  1  1
  2  3  1  0
  4  2  1  0
  4  5  1  1
  6  4  1  0
  6  7  2  0
  8  6  1  0
  9  8  1  0
 10  9  1  0
 10 11  1  0
 11 12  1  0
 12  8  1  0
 12 13  1  6
 14 13  2  0
 15 13  1  0
 16 17  1  1
 16 15  1  0
 18 17  1  0
 19 18  2  0
 20 21  1  0
 20 19  1  0
 21 22  2  0
 22 18  1  0
 23 25  1  0
 23 16  1  0
 24 23  2  0
M  END
$$$$
