VPH.pdb
     RDKit          3D

 25 26  0  0  1  0  0  0  0  0999 V2000
    7.2475  -18.9657   17.2724 C   0  0  0  0  0  0  0  0  0  0  0  0
    7.9923  -18.2101   18.3293 C   0  0  2  0  0  0  0  0  0  0  0  0
    7.2607  -18.3715   19.6439 C   0  0  0  0  0  0  0  0  0  0  0  0
    8.1139  -16.7326   18.0136 C   0  0  2  0  0  0  0  0  0  0  0  0
    8.8903  -16.6074   16.7463 N   0  0  0  0  0  0  0  0  0  0  0  0
    8.9369  -16.1136   19.0839 C   0  0  0  0  0  0  0  0  0  0  0  0
   10.1958  -16.0344   18.7848 O   0  0  0  0  0  0  0  0  0  0  0  0
    8.4699  -15.6347   20.3181 N   0  0  0  0  0  0  0  0  0  0  0  0
    7.1387  -15.5962   20.7924 C   0  0  0  0  0  0  0  0  0  0  0  0
    7.1126  -14.3267   21.6391 C   0  0  0  0  0  0  0  0  0  0  0  0
    8.4928  -13.7657   21.5588 C   0  0  0  0  0  0  0  0  0  0  0  0
    9.2875  -15.0649   21.3386 C   0  0  1  0  0  0  0  0  0  0  0  0
    9.3116  -15.9094   22.5288 C   0  0  0  0  0  0  0  0  0  0  0  0
    8.3158  -16.4798   22.9834 O   0  0  0  0  0  0  0  0  0  0  0  0
   10.5484  -16.1030   23.2264 N   0  0  0  0  0  0  0  0  0  0  0  0
   10.7035  -17.0928   24.2840 C   0  0  1  0  0  0  0  0  0  0  0  0
   12.0192  -17.8013   23.9313 C   0  0  0  0  0  0  0  0  0  0  0  0
   11.9233  -18.4429   22.6221 C   0  0  0  0  0  0  0  0  0  0  0  0
   12.5308  -18.0108   21.4697 C   0  0  0  0  0  0  0  0  0  0  0  0
   12.1668  -18.8900   20.5083 N   0  0  0  0  0  0  0  0  0  0  0  0
   11.3713  -19.8168   21.0555 C   0  0  0  0  0  0  0  0  0  0  0  0
   11.2147  -19.5522   22.3535 N   0  0  0  0  0  0  0  0  0  0  0  0
   10.8126  -16.3708   25.5567 C   0  0  0  0  0  0  0  0  0  0  0  0
   10.9151  -17.0045   26.6246 O   0  0  0  0  0  0  0  0  0  0  0  0
   10.8031  -14.9994   25.5848 O   0  0  0  0  0  0  0  0  0  0  0  0
  2  1  1  6
  2  3  1  0
  4  2  1  0
  4  5  1  6
  6  4  1  0
  6  7  2  0
  8  6  1  0
  9  8  1  0
 10  9  1  0
 10 11  1  0
 11 12  1  0
 12  8  1  0
 12 13  1  1
 14 13  2  0
 15 13  1  0
 16 17  1  6
 16 15  1  0
 18 17  1  0
 19 18  2  0
 20 21  1  0
 20 19  1  0
 21 22  2  0
 22 18  1  0
 23 25  1  0
 23 16  1  0
 24 23  2  0
M  END
$$$$
