VPH.pdb
     RDKit          3D

 25 26  0  0  1  0  0  0  0  0999 V2000
    5.0651  -18.4518   21.8177 C   0  0  0  0  0  0  0  0  0  0  0  0
    4.6351  -17.3575   20.8902 C   0  0  2  0  0  0  0  0  0  0  0  0
    3.2465  -17.6754   20.3800 C   0  0  0  0  0  0  0  0  0  0  0  0
    5.5678  -17.1965   19.7063 C   0  0  2  0  0  0  0  0  0  0  0  0
    5.7700  -18.5475   19.1079 N   0  0  0  0  0  0  0  0  0  0  0  0
    6.8859  -16.7587   20.2327 C   0  0  0  0  0  0  0  0  0  0  0  0
    7.8092  -17.6624   20.1254 O   0  0  0  0  0  0  0  0  0  0  0  0
    7.1802  -15.5082   20.7985 N   0  0  0  0  0  0  0  0  0  0  0  0
    6.2999  -14.4269   21.0323 C   0  0  0  0  0  0  0  0  0  0  0  0
    7.1901  -13.2065   20.8149 C   0  0  0  0  0  0  0  0  0  0  0  0
    8.5378  -13.7511   20.4784 C   0  0  0  0  0  0  0  0  0  0  0  0
    8.4720  -15.0895   21.2348 C   0  0  1  0  0  0  0  0  0  0  0  0
    8.5079  -14.9110   22.6830 C   0  0  0  0  0  0  0  0  0  0  0  0
    7.5108  -14.6629   23.3669 O   0  0  0  0  0  0  0  0  0  0  0  0
    9.7588  -15.0253   23.3729 N   0  0  0  0  0  0  0  0  0  0  0  0
    9.9068  -15.7916   24.6030 C   0  0  1  0  0  0  0  0  0  0  0  0
    9.5522  -17.2258   24.1850 C   0  0  0  0  0  0  0  0  0  0  0  0
    8.1501  -17.5152   24.4771 C   0  0  0  0  0  0  0  0  0  0  0  0
    7.2650  -16.6632   25.0891 C   0  0  0  0  0  0  0  0  0  0  0  0
    6.0947  -17.3374   25.1634 N   0  0  0  0  0  0  0  0  0  0  0  0
    6.2636  -18.5483   24.6190 C   0  0  0  0  0  0  0  0  0  0  0  0
    7.5222  -18.6686   24.1941 N   0  0  0  0  0  0  0  0  0  0  0  0
   11.3090  -15.6914   25.0238 C   0  0  0  0  0  0  0  0  0  0  0  0
   11.5900  -15.5967   26.2339 O   0  0  0  0  0  0  0  0  0  0  0  0
   12.3191  -15.7008   24.0958 O   0  0  0  0  0  0  0  0  0  0  0  0
  2  1  1  1
  2  3  1  0
  4  2  1  0
  4  5  1  1
  6  4  1  0
  6  7  2  0
  8  6  1  0
  9  8  1  0
 10  9  1  0
 10 11  1  0
 11 12  1  0
 12  8  1  0
 12 13  1  1
 14 13  2  0
 15 13  1  0
 16 17  1  6
 16 15  1  0
 18 17  1  0
 19 18  2  0
 20 21  1  0
 20 19  1  0
 21 22  2  0
 22 18  1  0
 23 25  1  0
 23 16  1  0
 24 23  2  0
M  END
$$$$
