VPH.pdb
     RDKit          3D

 25 26  0  0  1  0  0  0  0  0999 V2000
    7.7117  -16.5381   22.1343 C   0  0  0  0  0  0  0  0  0  0  0  0
    6.9023  -15.2787   22.0923 C   0  0  2  0  0  0  0  0  0  0  0  0
    6.0774  -15.2775   20.8238 C   0  0  0  0  0  0  0  0  0  0  0  0
    7.7629  -14.0313   22.1191 C   0  0  2  0  0  0  0  0  0  0  0  0
    8.7619  -14.1521   21.0183 N   0  0  0  0  0  0  0  0  0  0  0  0
    8.5255  -14.0423   23.3936 C   0  0  0  0  0  0  0  0  0  0  0  0
    9.7913  -14.2726   23.2344 O   0  0  0  0  0  0  0  0  0  0  0  0
    7.9998  -13.8285   24.6776 N   0  0  0  0  0  0  0  0  0  0  0  0
    6.6658  -13.5269   25.0356 C   0  0  0  0  0  0  0  0  0  0  0  0
    6.8336  -12.6177   26.2498 C   0  0  0  0  0  0  0  0  0  0  0  0
    8.3060  -12.5070   26.4644 C   0  0  0  0  0  0  0  0  0  0  0  0
    8.7537  -13.8616   25.8879 C   0  0  1  0  0  0  0  0  0  0  0  0
    8.3512  -14.9837   26.7302 C   0  0  0  0  0  0  0  0  0  0  0  0
    7.4242  -15.7499   26.4524 O   0  0  0  0  0  0  0  0  0  0  0  0
    9.0559  -15.2306   27.9533 N   0  0  0  0  0  0  0  0  0  0  0  0
    9.9739  -16.3502   28.1152 C   0  0  1  0  0  0  0  0  0  0  0  0
   11.1330  -16.0125   27.1666 C   0  0  0  0  0  0  0  0  0  0  0  0
   11.0996  -16.8733   25.9865 C   0  0  0  0  0  0  0  0  0  0  0  0
   10.2085  -17.8925   25.7610 C   0  0  0  0  0  0  0  0  0  0  0  0
   10.5467  -18.4203   24.5623 N   0  0  0  0  0  0  0  0  0  0  0  0
   11.5996  -17.7487   24.0812 C   0  0  0  0  0  0  0  0  0  0  0  0
   11.9479  -16.7962   24.9476 N   0  0  0  0  0  0  0  0  0  0  0  0
   10.4175  -16.3633   29.5139 C   0  0  0  0  0  0  0  0  0  0  0  0
   10.6442  -15.2899   30.1045 O   0  0  0  0  0  0  0  0  0  0  0  0
   10.5863  -17.5493   30.1820 O   0  0  0  0  0  0  0  0  0  0  0  0
  2  1  1  6
  2  3  1  0
  4  2  1  0
  4  5  1  6
  6  4  1  0
  6  7  2  0
  8  6  1  0
  9  8  1  0
 10  9  1  0
 10 11  1  0
 11 12  1  0
 12  8  1  0
 12 13  1  1
 14 13  2  0
 15 13  1  0
 16 17  1  6
 16 15  1  0
 18 17  1  0
 19 18  2  0
 20 21  1  0
 20 19  1  0
 21 22  2  0
 22 18  1  0
 23 25  1  0
 23 16  1  0
 24 23  2  0
M  END
$$$$
