DIY.pdb
     RDKit          3D

 29 29  0  0  1  0  0  0  0  0999 V2000
   25.3621  -24.0106  -17.7260 N   0  0  0  0  0  0  0  0  0  0  0  0
   25.1413  -22.5516  -17.6976 C   0  0  1  0  0  0  0  0  0  0  0  0
   23.6756  -22.3690  -17.4953 C   0  0  0  0  0  0  0  0  0  0  0  0
   22.8193  -22.7580  -18.6258 C   0  0  0  0  0  0  0  0  0  0  0  0
   23.0670  -22.5578  -19.8408 O   0  0  0  0  0  0  0  0  0  0  0  0
   25.9586  -22.0262  -16.5329 C   0  0  0  0  0  0  0  0  0  0  0  0
   26.4098  -22.8369  -15.6820 O   0  0  0  0  0  0  0  0  0  0  0  0
   21.6189  -23.4134  -18.2751 O   0  0  0  0  0  0  0  0  0  0  0  0
   29.3279  -17.9553  -17.4750 C   0  0  0  0  0  0  0  0  0  0  0  0
   28.6624  -19.2203  -16.8943 C   0  0  0  0  0  0  0  0  0  0  0  0
   27.7478  -18.8807  -15.7807 C   0  0  2  0  0  0  0  0  0  0  0  0
   28.4073  -18.0273  -14.7208 C   0  0  0  0  0  0  0  0  0  0  0  0
   26.9404  -20.0128  -15.2966 C   0  0  2  0  0  0  0  0  0  0  0  0
   26.2174  -20.6554  -16.3918 N   0  0  0  0  0  0  0  0  0  0  0  0
   26.0760  -19.7866  -14.1353 C   0  0  0  0  0  0  0  0  0  0  0  0
   25.0011  -19.0761  -14.2637 O   0  0  0  0  0  0  0  0  0  0  0  0
   19.6571  -20.0085   -8.5621 O   0  0  0  0  0  0  0  0  0  0  0  0
   20.7191  -20.1760   -9.4387 C   0  0  0  0  0  0  0  0  0  0  0  0
   21.7688  -21.0169   -9.1412 C   0  0  0  0  0  0  0  0  0  0  0  0
   22.8276  -21.1820  -10.0186 C   0  0  0  0  0  0  0  0  0  0  0  0
   22.8923  -20.5215  -11.2274 C   0  0  0  0  0  0  0  0  0  0  0  0
   24.0251  -20.6905  -12.1616 C   0  0  0  0  0  0  0  0  0  0  0  0
   25.2762  -19.9532  -11.7506 C   0  0  2  0  0  0  0  0  0  0  0  0
   26.2474  -20.2584  -12.8293 N   0  0  0  0  0  0  0  0  0  0  0  0
   25.7485  -20.5133  -10.4677 C   0  0  0  0  0  0  0  0  0  0  0  0
   26.6180  -21.6211  -10.4766 O   0  0  0  0  0  0  0  0  0  0  0  0
   21.8239  -19.6703  -11.5223 C   0  0  0  0  0  0  0  0  0  0  0  0
   20.7695  -19.5055  -10.6497 C   0  0  0  0  0  0  0  0  0  0  0  0
   25.4374  -20.0809   -9.3491 O   0  0  0  0  0  0  0  0  0  0  0  0
  2  1  1  1
  2  3  1  0
  3  4  1  0
  4  8  1  0
  5  4  2  0
  6  2  1  0
  7  6  2  0
 10  9  1  0
 11 12  1  1
 11 10  1  0
 13 11  1  0
 13 14  1  6
 14  6  1  0
 15 24  1  0
 15 13  1  0
 16 15  2  0
 18 28  2  0
 18 17  1  0
 19 18  1  0
 20 21  1  0
 20 19  2  0
 21 27  2  0
 22 21  1  0
 23 22  1  6
 23 24  1  0
 25 23  1  0
 25 26  1  0
 27 28  1  0
 29 25  2  0
M  END
$$$$
