DIY.pdb
     RDKit          3D

 29 29  0  0  1  0  0  0  0  0999 V2000
   16.1828   -7.8441  -14.4877 N   0  0  0  0  0  0  0  0  0  0  0  0
   17.2989   -8.4388  -15.2486 C   0  0  1  0  0  0  0  0  0  0  0  0
   17.3656   -7.6779  -16.5289 C   0  0  0  0  0  0  0  0  0  0  0  0
   16.3908   -8.0690  -17.5582 C   0  0  0  0  0  0  0  0  0  0  0  0
   15.2880   -8.6337  -17.3520 O   0  0  0  0  0  0  0  0  0  0  0  0
   18.5377   -8.2484  -14.3942 C   0  0  0  0  0  0  0  0  0  0  0  0
   18.5007   -7.4431  -13.4272 O   0  0  0  0  0  0  0  0  0  0  0  0
   16.7626   -7.7665  -18.8863 O   0  0  0  0  0  0  0  0  0  0  0  0
   23.5133  -11.5530  -12.9435 C   0  0  0  0  0  0  0  0  0  0  0  0
   22.8974  -10.1419  -13.0421 C   0  0  0  0  0  0  0  0  0  0  0  0
   21.6582  -10.1542  -13.8521 C   0  0  2  0  0  0  0  0  0  0  0  0
   21.8132  -10.9181  -15.1480 C   0  0  0  0  0  0  0  0  0  0  0  0
   20.9833   -8.8487  -13.9420 C   0  0  2  0  0  0  0  0  0  0  0  0
   19.7183   -8.9542  -14.6658 N   0  0  0  0  0  0  0  0  0  0  0  0
   21.7741   -7.7021  -14.3966 C   0  0  0  0  0  0  0  0  0  0  0  0
   22.7499   -7.2651  -13.6662 O   0  0  0  0  0  0  0  0  0  0  0  0
   26.1924   -1.8840  -19.4583 O   0  0  0  0  0  0  0  0  0  0  0  0
   25.4326   -2.9097  -18.9153 C   0  0  0  0  0  0  0  0  0  0  0  0
   25.5602   -3.2743  -17.5930 C   0  0  0  0  0  0  0  0  0  0  0  0
   24.8001   -4.2987  -17.0539 C   0  0  0  0  0  0  0  0  0  0  0  0
   23.8817   -5.0060  -17.8009 C   0  0  0  0  0  0  0  0  0  0  0  0
   23.0750   -6.1048  -17.2293 C   0  0  0  0  0  0  0  0  0  0  0  0
   22.4732   -5.7890  -15.8818 C   0  0  2  0  0  0  0  0  0  0  0  0
   21.6258   -6.9678  -15.5783 N   0  0  0  0  0  0  0  0  0  0  0  0
   21.6342   -4.5806  -16.0164 C   0  0  0  0  0  0  0  0  0  0  0  0
   20.2399   -4.7204  -16.1575 O   0  0  0  0  0  0  0  0  0  0  0  0
   23.7576   -4.6306  -19.1412 C   0  0  0  0  0  0  0  0  0  0  0  0
   24.5136   -3.6108  -19.6787 C   0  0  0  0  0  0  0  0  0  0  0  0
   22.0621   -3.4178  -16.0160 O   0  0  0  0  0  0  0  0  0  0  0  0
  2  1  1  1
  2  3  1  0
  3  4  1  0
  4  8  1  0
  5  4  2  0
  6  2  1  0
  7  6  2  0
 10  9  1  0
 11 12  1  6
 11 10  1  0
 13 11  1  0
 13 14  1  6
 14  6  1  0
 15 24  1  0
 15 13  1  0
 16 15  2  0
 18 28  2  0
 18 17  1  0
 19 18  1  0
 20 21  1  0
 20 19  2  0
 21 27  2  0
 22 21  1  0
 23 22  1  6
 23 24  1  0
 25 23  1  0
 25 26  1  0
 27 28  1  0
 29 25  2  0
M  END
$$$$
