DIY.pdb
     RDKit          3D

 29 29  0  0  1  0  0  0  0  0999 V2000
   27.8458  -21.3903  -16.8722 N   0  0  0  0  0  0  0  0  0  0  0  0
   27.0131  -20.3420  -16.2511 C   0  0  1  0  0  0  0  0  0  0  0  0
   26.1311  -19.8298  -17.3385 C   0  0  0  0  0  0  0  0  0  0  0  0
   26.7035  -18.7698  -18.1819 C   0  0  0  0  0  0  0  0  0  0  0  0
   27.5162  -18.9366  -19.1249 O   0  0  0  0  0  0  0  0  0  0  0  0
   26.2335  -21.0263  -15.1444 C   0  0  0  0  0  0  0  0  0  0  0  0
   25.7398  -22.1655  -15.3527 O   0  0  0  0  0  0  0  0  0  0  0  0
   26.2779  -17.4591  -17.8742 O   0  0  0  0  0  0  0  0  0  0  0  0
   28.4318  -21.1749  -10.4944 C   0  0  0  0  0  0  0  0  0  0  0  0
   27.5505  -21.4472  -11.7312 C   0  0  0  0  0  0  0  0  0  0  0  0
   26.1780  -20.9277  -11.5351 C   0  0  2  0  0  0  0  0  0  0  0  0
   25.5347  -21.4377  -10.2652 C   0  0  0  0  0  0  0  0  0  0  0  0
   25.3424  -20.9589  -12.7470 C   0  0  2  0  0  0  0  0  0  0  0  0
   26.0560  -20.4096  -13.8977 N   0  0  0  0  0  0  0  0  0  0  0  0
   23.9802  -20.4280  -12.6499 C   0  0  0  0  0  0  0  0  0  0  0  0
   23.7975  -19.1693  -12.4070 O   0  0  0  0  0  0  0  0  0  0  0  0
   21.4192  -22.4926  -18.8597 O   0  0  0  0  0  0  0  0  0  0  0  0
   21.4259  -21.7777  -17.6710 C   0  0  0  0  0  0  0  0  0  0  0  0
   22.5900  -21.2476  -17.1595 C   0  0  0  0  0  0  0  0  0  0  0  0
   22.5934  -20.5342  -15.9725 C   0  0  0  0  0  0  0  0  0  0  0  0
   21.4448  -20.3156  -15.2412 C   0  0  0  0  0  0  0  0  0  0  0  0
   21.4477  -19.5611  -13.9702 C   0  0  0  0  0  0  0  0  0  0  0  0
   21.4609  -20.4325  -12.7381 C   0  0  2  0  0  0  0  0  0  0  0  0
   22.7734  -21.1209  -12.7955 N   0  0  0  0  0  0  0  0  0  0  0  0
   20.3650  -21.4168  -12.8500 C   0  0  0  0  0  0  0  0  0  0  0  0
   19.0312  -20.9819  -12.7265 O   0  0  0  0  0  0  0  0  0  0  0  0
   20.2680  -20.8562  -15.7663 C   0  0  0  0  0  0  0  0  0  0  0  0
   20.2635  -21.5663  -16.9479 C   0  0  0  0  0  0  0  0  0  0  0  0
   20.5204  -22.6297  -13.0493 O   0  0  0  0  0  0  0  0  0  0  0  0
  2  1  1  6
  2  3  1  0
  3  4  1  0
  4  8  1  0
  5  4  2  0
  6  2  1  0
  7  6  2  0
 10  9  1  0
 11 12  1  1
 11 10  1  0
 13 11  1  0
 13 14  1  6
 14  6  1  0
 15 24  1  0
 15 13  1  0
 16 15  2  0
 18 28  2  0
 18 17  1  0
 19 18  1  0
 20 21  1  0
 20 19  2  0
 21 27  2  0
 22 21  1  0
 23 22  1  6
 23 24  1  0
 25 23  1  0
 25 26  1  0
 27 28  1  0
 29 25  2  0
M  END
$$$$
