DIY.pdb
     RDKit          3D

 29 29  0  0  1  0  0  0  0  0999 V2000
   22.2833  -15.3710  -19.0317 N   0  0  0  0  0  0  0  0  0  0  0  0
   23.0429  -14.1336  -19.2959 C   0  0  1  0  0  0  0  0  0  0  0  0
   22.2129  -13.3464  -20.2519 C   0  0  0  0  0  0  0  0  0  0  0  0
   22.0413  -13.9365  -21.5879 C   0  0  0  0  0  0  0  0  0  0  0  0
   20.9463  -14.2284  -22.1295 O   0  0  0  0  0  0  0  0  0  0  0  0
   23.1979  -13.4420  -17.9548 C   0  0  0  0  0  0  0  0  0  0  0  0
   22.2015  -13.3496  -17.1910 O   0  0  0  0  0  0  0  0  0  0  0  0
   23.2378  -14.1831  -22.2960 O   0  0  0  0  0  0  0  0  0  0  0  0
   28.0469  -13.7258  -15.4606 C   0  0  0  0  0  0  0  0  0  0  0  0
   26.5329  -13.6529  -15.7487 C   0  0  0  0  0  0  0  0  0  0  0  0
   26.0867  -12.2510  -15.9149 C   0  0  2  0  0  0  0  0  0  0  0  0
   26.5190  -11.3595  -14.7724 C   0  0  0  0  0  0  0  0  0  0  0  0
   24.6895  -12.1113  -16.3578 C   0  0  2  0  0  0  0  0  0  0  0  0
   24.4309  -12.9064  -17.5561 N   0  0  0  0  0  0  0  0  0  0  0  0
   24.1445  -10.7565  -16.4781 C   0  0  0  0  0  0  0  0  0  0  0  0
   24.4373  -10.0363  -17.5137 O   0  0  0  0  0  0  0  0  0  0  0  0
   19.1170   -4.2433  -18.7556 O   0  0  0  0  0  0  0  0  0  0  0  0
   19.7840   -5.3894  -18.3483 C   0  0  0  0  0  0  0  0  0  0  0  0
   19.1019   -6.4774  -17.8499 C   0  0  0  0  0  0  0  0  0  0  0  0
   19.7707   -7.6202  -17.4443 C   0  0  0  0  0  0  0  0  0  0  0  0
   21.1433   -7.7344  -17.5144 C   0  0  0  0  0  0  0  0  0  0  0  0
   21.8596   -8.9503  -17.0748 C   0  0  0  0  0  0  0  0  0  0  0  0
   22.7596   -8.7362  -15.8824 C   0  0  2  0  0  0  0  0  0  0  0  0
   23.2981  -10.0866  -15.5881 N   0  0  0  0  0  0  0  0  0  0  0  0
   21.9341   -8.2607  -14.7533 C   0  0  0  0  0  0  0  0  0  0  0  0
   21.7167   -6.8787  -14.5911 O   0  0  0  0  0  0  0  0  0  0  0  0
   21.8284   -6.6268  -18.0211 C   0  0  0  0  0  0  0  0  0  0  0  0
   21.1635   -5.4889  -18.4254 C   0  0  0  0  0  0  0  0  0  0  0  0
   21.3990   -8.9934  -13.9096 O   0  0  0  0  0  0  0  0  0  0  0  0
  2  1  1  1
  2  3  1  0
  3  4  1  0
  4  8  1  0
  5  4  2  0
  6  2  1  0
  7  6  2  0
 10  9  1  0
 11 12  1  1
 11 10  1  0
 13 11  1  0
 13 14  1  6
 14  6  1  0
 15 24  1  0
 15 13  1  0
 16 15  2  0
 18 28  2  0
 18 17  1  0
 19 18  1  0
 20 21  1  0
 20 19  2  0
 21 27  2  0
 22 21  1  0
 23 22  1  6
 23 24  1  0
 25 23  1  0
 25 26  1  0
 27 28  1  0
 29 25  2  0
M  END
$$$$
