DIY.pdb
     RDKit          3D

 29 29  0  0  1  0  0  0  0  0999 V2000
   28.7055  -25.3314  -16.8915 N   0  0  0  0  0  0  0  0  0  0  0  0
   27.9013  -24.2365  -17.4682 C   0  0  1  0  0  0  0  0  0  0  0  0
   26.6974  -24.8876  -18.0592 C   0  0  0  0  0  0  0  0  0  0  0  0
   26.9168  -25.6197  -19.3156 C   0  0  0  0  0  0  0  0  0  0  0  0
   28.0072  -25.7164  -19.9313 O   0  0  0  0  0  0  0  0  0  0  0  0
   27.5560  -23.3162  -16.3129 C   0  0  0  0  0  0  0  0  0  0  0  0
   28.4803  -22.8692  -15.5843 O   0  0  0  0  0  0  0  0  0  0  0  0
   25.7758  -26.2588  -19.8478 O   0  0  0  0  0  0  0  0  0  0  0  0
   28.5149  -19.9322  -14.3027 C   0  0  0  0  0  0  0  0  0  0  0  0
   27.9348  -20.6858  -15.5176 C   0  0  0  0  0  0  0  0  0  0  0  0
   26.4570  -20.6001  -15.5448 C   0  0  2  0  0  0  0  0  0  0  0  0
   25.9308  -19.3477  -14.8806 C   0  0  0  0  0  0  0  0  0  0  0  0
   25.7734  -21.8575  -15.1991 C   0  0  2  0  0  0  0  0  0  0  0  0
   26.2268  -22.9581  -16.0466 N   0  0  0  0  0  0  0  0  0  0  0  0
   24.3132  -21.8298  -15.0815 C   0  0  0  0  0  0  0  0  0  0  0  0
   23.5976  -21.3965  -16.0699 O   0  0  0  0  0  0  0  0  0  0  0  0
   15.9579  -23.0024  -12.0532 O   0  0  0  0  0  0  0  0  0  0  0  0
   17.3315  -22.9982  -12.2468 C   0  0  0  0  0  0  0  0  0  0  0  0
   18.1483  -22.1179  -11.5718 C   0  0  0  0  0  0  0  0  0  0  0  0
   19.5193  -22.1163  -11.7673 C   0  0  0  0  0  0  0  0  0  0  0  0
   20.1400  -22.9856  -12.6395 C   0  0  0  0  0  0  0  0  0  0  0  0
   21.6022  -22.9803  -12.8553 C   0  0  0  0  0  0  0  0  0  0  0  0
   22.0504  -22.1152  -14.0079 C   0  0  2  0  0  0  0  0  0  0  0  0
   23.5289  -22.2322  -13.9950 N   0  0  0  0  0  0  0  0  0  0  0  0
   21.6480  -20.7212  -13.7300 C   0  0  0  0  0  0  0  0  0  0  0  0
   20.5049  -20.1938  -14.3612 O   0  0  0  0  0  0  0  0  0  0  0  0
   19.3051  -23.8756  -13.3206 C   0  0  0  0  0  0  0  0  0  0  0  0
   17.9403  -23.8782  -13.1265 C   0  0  0  0  0  0  0  0  0  0  0  0
   22.2462  -19.9505  -12.9663 O   0  0  0  0  0  0  0  0  0  0  0  0
  2  1  1  1
  2  3  1  0
  3  4  1  0
  4  8  1  0
  5  4  2  0
  6  2  1  0
  7  6  2  0
 10  9  1  0
 11 12  1  1
 11 10  1  0
 13 11  1  0
 13 14  1  6
 14  6  1  0
 15 24  1  0
 15 13  1  0
 16 15  2  0
 18 28  2  0
 18 17  1  0
 19 18  1  0
 20 21  1  0
 20 19  2  0
 21 27  2  0
 22 21  1  0
 23 22  1  1
 23 24  1  0
 25 23  1  0
 25 26  1  0
 27 28  1  0
 29 25  2  0
M  END
$$$$
