DIY.pdb
     RDKit          3D

 29 29  0  0  1  0  0  0  0  0999 V2000
   21.1284  -13.7685  -17.5378 N   0  0  0  0  0  0  0  0  0  0  0  0
   21.3675  -12.3822  -17.9842 C   0  0  1  0  0  0  0  0  0  0  0  0
   20.0206  -11.8141  -18.2768 C   0  0  0  0  0  0  0  0  0  0  0  0
   19.2820  -12.4509  -19.3775 C   0  0  0  0  0  0  0  0  0  0  0  0
   19.7460  -12.7331  -20.5101 O   0  0  0  0  0  0  0  0  0  0  0  0
   22.0550  -11.6816  -16.8277 C   0  0  0  0  0  0  0  0  0  0  0  0
   21.5378  -11.7338  -15.6812 O   0  0  0  0  0  0  0  0  0  0  0  0
   17.9322  -12.7580  -19.0993 O   0  0  0  0  0  0  0  0  0  0  0  0
   27.1159  -12.4897  -15.9578 C   0  0  0  0  0  0  0  0  0  0  0  0
   25.6207  -12.1230  -15.8573 C   0  0  0  0  0  0  0  0  0  0  0  0
   25.4187  -10.6614  -15.9800 C   0  0  2  0  0  0  0  0  0  0  0  0
   26.3358   -9.8659  -15.0785 C   0  0  0  0  0  0  0  0  0  0  0  0
   24.0059  -10.2475  -16.0013 C   0  0  2  0  0  0  0  0  0  0  0  0
   23.2538  -10.9797  -17.0177 N   0  0  0  0  0  0  0  0  0  0  0  0
   23.7166   -8.8117  -16.0422 C   0  0  0  0  0  0  0  0  0  0  0  0
   24.1868   -8.0892  -17.0084 O   0  0  0  0  0  0  0  0  0  0  0  0
   20.8684   -0.9047  -17.6127 O   0  0  0  0  0  0  0  0  0  0  0  0
   21.1180   -2.2384  -17.3241 C   0  0  0  0  0  0  0  0  0  0  0  0
   20.1307   -3.0622  -16.8299 C   0  0  0  0  0  0  0  0  0  0  0  0
   20.3831   -4.3933  -16.5429 C   0  0  0  0  0  0  0  0  0  0  0  0
   21.6236   -4.9653  -16.7325 C   0  0  0  0  0  0  0  0  0  0  0  0
   21.8969   -6.3838  -16.4195 C   0  0  0  0  0  0  0  0  0  0  0  0
   22.8328   -6.5866  -15.2531 C   0  0  2  0  0  0  0  0  0  0  0  0
   22.9560   -8.0604  -15.1396 N   0  0  0  0  0  0  0  0  0  0  0  0
   22.1946   -6.0347  -14.0405 C   0  0  0  0  0  0  0  0  0  0  0  0
   22.5036   -4.7221  -13.6342 O   0  0  0  0  0  0  0  0  0  0  0  0
   22.6199   -4.1236  -17.2341 C   0  0  0  0  0  0  0  0  0  0  0  0
   22.3696   -2.7985  -17.5204 C   0  0  0  0  0  0  0  0  0  0  0  0
   21.3857   -6.6438  -13.3265 O   0  0  0  0  0  0  0  0  0  0  0  0
  2  1  1  1
  2  3  1  0
  3  4  1  0
  4  8  1  0
  5  4  2  0
  6  2  1  0
  7  6  2  0
 10  9  1  0
 11 12  1  1
 11 10  1  0
 13 11  1  0
 13 14  1  6
 14  6  1  0
 15 24  1  0
 15 13  1  0
 16 15  2  0
 18 28  2  0
 18 17  1  0
 19 18  1  0
 20 21  1  0
 20 19  2  0
 21 27  2  0
 22 21  1  0
 23 22  1  6
 23 24  1  0
 25 23  1  0
 25 26  1  0
 27 28  1  0
 29 25  2  0
M  END
$$$$
