DIY.pdb
     RDKit          3D

 29 29  0  0  1  0  0  0  0  0999 V2000
   24.7414   -5.1430  -18.4485 N   0  0  0  0  0  0  0  0  0  0  0  0
   24.1106   -5.9138  -17.3593 C   0  0  1  0  0  0  0  0  0  0  0  0
   22.6870   -5.4724  -17.3242 C   0  0  0  0  0  0  0  0  0  0  0  0
   22.4530   -4.1012  -16.8471 C   0  0  0  0  0  0  0  0  0  0  0  0
   23.1554   -3.4824  -16.0097 O   0  0  0  0  0  0  0  0  0  0  0  0
   24.2567   -7.3748  -17.7401 C   0  0  0  0  0  0  0  0  0  0  0  0
   24.3916   -7.6845  -18.9528 O   0  0  0  0  0  0  0  0  0  0  0  0
   21.3281   -3.4535  -17.4027 O   0  0  0  0  0  0  0  0  0  0  0  0
   27.3042  -10.6352  -14.7206 C   0  0  0  0  0  0  0  0  0  0  0  0
   26.5498  -10.0096  -15.9122 C   0  0  0  0  0  0  0  0  0  0  0  0
   25.1473  -10.4809  -15.9647 C   0  0  2  0  0  0  0  0  0  0  0  0
   25.0320  -11.9863  -15.8802 C   0  0  0  0  0  0  0  0  0  0  0  0
   24.3274   -9.8212  -16.9945 C   0  0  2  0  0  0  0  0  0  0  0  0
   24.2437   -8.3809  -16.7635 N   0  0  0  0  0  0  0  0  0  0  0  0
   23.0150  -10.3994  -17.2949 C   0  0  0  0  0  0  0  0  0  0  0  0
   21.9923  -10.0835  -16.5663 O   0  0  0  0  0  0  0  0  0  0  0  0
   15.1605  -11.6581  -20.5419 O   0  0  0  0  0  0  0  0  0  0  0  0
   16.4743  -11.3933  -20.1839 C   0  0  0  0  0  0  0  0  0  0  0  0
   17.4966  -11.4641  -21.1045 C   0  0  0  0  0  0  0  0  0  0  0  0
   18.8072  -11.1991  -20.7441 C   0  0  0  0  0  0  0  0  0  0  0  0
   19.1615  -10.8531  -19.4570 C   0  0  0  0  0  0  0  0  0  0  0  0
   20.5608  -10.5774  -19.0686 C   0  0  0  0  0  0  0  0  0  0  0  0
   21.2934  -11.7763  -18.5175 C   0  0  2  0  0  0  0  0  0  0  0  0
   22.6815  -11.2926  -18.3188 N   0  0  0  0  0  0  0  0  0  0  0  0
   21.2687  -12.8472  -19.5348 C   0  0  0  0  0  0  0  0  0  0  0  0
   20.2556  -13.8242  -19.4842 O   0  0  0  0  0  0  0  0  0  0  0  0
   18.1193  -10.7832  -18.5287 C   0  0  0  0  0  0  0  0  0  0  0  0
   16.8143  -11.0467  -18.8866 C   0  0  0  0  0  0  0  0  0  0  0  0
   22.0865  -12.9657  -20.4580 O   0  0  0  0  0  0  0  0  0  0  0  0
  2  1  1  6
  2  3  1  0
  3  4  1  0
  4  8  1  0
  5  4  2  0
  6  2  1  0
  7  6  2  0
 10  9  1  0
 11 12  1  6
 11 10  1  0
 13 11  1  0
 13 14  1  1
 14  6  1  0
 15 24  1  0
 15 13  1  0
 16 15  2  0
 18 28  2  0
 18 17  1  0
 19 18  1  0
 20 21  1  0
 20 19  2  0
 21 27  2  0
 22 21  1  0
 23 22  1  6
 23 24  1  0
 25 23  1  0
 25 26  1  0
 27 28  1  0
 29 25  2  0
M  END
$$$$
