DIY.pdb
     RDKit          3D

 29 29  0  0  1  0  0  0  0  0999 V2000
   25.6815  -38.1885   -9.9209 N   0  0  0  0  0  0  0  0  0  0  0  0
   24.6973  -37.6089   -8.9862 C   0  0  1  0  0  0  0  0  0  0  0  0
   24.3567  -38.7008   -8.0301 C   0  0  0  0  0  0  0  0  0  0  0  0
   23.5471  -39.8006   -8.5755 C   0  0  0  0  0  0  0  0  0  0  0  0
   22.6369  -39.6902   -9.4339 O   0  0  0  0  0  0  0  0  0  0  0  0
   25.3949  -36.4428   -8.3122 C   0  0  0  0  0  0  0  0  0  0  0  0
   26.6368  -36.4996   -8.1140 O   0  0  0  0  0  0  0  0  0  0  0  0
   23.8485  -41.0819   -8.0644 O   0  0  0  0  0  0  0  0  0  0  0  0
   23.9447  -31.5266   -9.7528 C   0  0  0  0  0  0  0  0  0  0  0  0
   24.6400  -32.8123   -9.2588 C   0  0  0  0  0  0  0  0  0  0  0  0
   24.6345  -32.8893   -7.7803 C   0  0  2  0  0  0  0  0  0  0  0  0
   25.0732  -31.5990   -7.1250 C   0  0  0  0  0  0  0  0  0  0  0  0
   25.2197  -34.1271   -7.2386 C   0  0  2  0  0  0  0  0  0  0  0  0
   24.6782  -35.3073   -7.9087 N   0  0  0  0  0  0  0  0  0  0  0  0
   25.2399  -34.2916   -5.7828 C   0  0  0  0  0  0  0  0  0  0  0  0
   24.1448  -34.5778   -5.1538 O   0  0  0  0  0  0  0  0  0  0  0  0
   23.6139  -37.6170    1.5382 O   0  0  0  0  0  0  0  0  0  0  0  0
   24.1663  -37.2131    0.3316 C   0  0  0  0  0  0  0  0  0  0  0  0
   25.5297  -37.1055    0.1673 C   0  0  0  0  0  0  0  0  0  0  0  0
   26.0781  -36.7020   -1.0387 C   0  0  0  0  0  0  0  0  0  0  0  0
   25.3001  -36.3876   -2.1331 C   0  0  0  0  0  0  0  0  0  0  0  0
   25.8832  -35.9494   -3.4187 C   0  0  0  0  0  0  0  0  0  0  0  0
   26.2245  -34.4802   -3.4699 C   0  0  2  0  0  0  0  0  0  0  0  0
   26.3354  -34.1844   -4.9191 N   0  0  0  0  0  0  0  0  0  0  0  0
   27.5304  -34.2805   -2.8087 C   0  0  0  0  0  0  0  0  0  0  0  0
   27.5763  -34.0930   -1.4137 O   0  0  0  0  0  0  0  0  0  0  0  0
   23.9181  -36.4991   -1.9590 C   0  0  0  0  0  0  0  0  0  0  0  0
   23.3712  -36.9009   -0.7590 C   0  0  0  0  0  0  0  0  0  0  0  0
   28.6236  -34.2629   -3.3915 O   0  0  0  0  0  0  0  0  0  0  0  0
  2  1  1  6
  2  3  1  0
  3  4  1  0
  4  8  1  0
  5  4  2  0
  6  2  1  0
  7  6  2  0
 10  9  1  0
 11 12  1  1
 11 10  1  0
 13 11  1  0
 13 14  1  6
 14  6  1  0
 15 24  1  0
 15 13  1  0
 16 15  2  0
 18 28  2  0
 18 17  1  0
 19 18  1  0
 20 21  1  0
 20 19  2  0
 21 27  2  0
 22 21  1  0
 23 22  1  6
 23 24  1  0
 25 23  1  0
 25 26  1  0
 27 28  1  0
 29 25  2  0
M  END
$$$$
