DIY.pdb
     RDKit          3D

 29 29  0  0  1  0  0  0  0  0999 V2000
   26.6733  -21.6711  -15.3644 N   0  0  0  0  0  0  0  0  0  0  0  0
   26.2283  -20.6121  -14.4377 C   0  0  1  0  0  0  0  0  0  0  0  0
   25.1513  -19.8731  -15.1564 C   0  0  0  0  0  0  0  0  0  0  0  0
   25.5907  -19.0341  -16.2814 C   0  0  0  0  0  0  0  0  0  0  0  0
   26.7334  -19.0401  -16.8027 O   0  0  0  0  0  0  0  0  0  0  0  0
   25.7177  -21.3250  -13.2000 C   0  0  0  0  0  0  0  0  0  0  0  0
   25.2422  -22.4854  -13.3100 O   0  0  0  0  0  0  0  0  0  0  0  0
   24.6128  -18.1550  -16.7956 O   0  0  0  0  0  0  0  0  0  0  0  0
   25.9859  -20.7590   -7.0399 C   0  0  0  0  0  0  0  0  0  0  0  0
   25.1530  -21.1947   -8.2634 C   0  0  0  0  0  0  0  0  0  0  0  0
   25.7277  -20.6615   -9.5194 C   0  0  2  0  0  0  0  0  0  0  0  0
   26.0295  -19.1817   -9.4433 C   0  0  0  0  0  0  0  0  0  0  0  0
   25.0463  -21.1258  -10.7392 C   0  0  2  0  0  0  0  0  0  0  0  0
   25.7680  -20.7113  -11.9403 N   0  0  0  0  0  0  0  0  0  0  0  0
   23.6081  -20.8712  -10.8559 C   0  0  0  0  0  0  0  0  0  0  0  0
   23.1928  -19.7446  -11.3406 O   0  0  0  0  0  0  0  0  0  0  0  0
   15.2719  -21.2296  -13.4076 O   0  0  0  0  0  0  0  0  0  0  0  0
   16.6034  -21.4155  -13.0659 C   0  0  0  0  0  0  0  0  0  0  0  0
   17.0253  -22.5560  -12.4188 C   0  0  0  0  0  0  0  0  0  0  0  0
   18.3554  -22.7387  -12.0790 C   0  0  0  0  0  0  0  0  0  0  0  0
   19.3242  -21.7999  -12.3651 C   0  0  0  0  0  0  0  0  0  0  0  0
   20.7430  -21.9895  -11.9965 C   0  0  0  0  0  0  0  0  0  0  0  0
   21.1342  -21.3288  -10.6973 C   0  0  2  0  0  0  0  0  0  0  0  0
   22.5521  -21.7193  -10.5049 N   0  0  0  0  0  0  0  0  0  0  0  0
   20.3001  -21.8929   -9.6164 C   0  0  0  0  0  0  0  0  0  0  0  0
   19.0675  -21.2859   -9.3072 O   0  0  0  0  0  0  0  0  0  0  0  0
   18.8889  -20.6457  -13.0217 C   0  0  0  0  0  0  0  0  0  0  0  0
   17.5651  -20.4631  -13.3605 C   0  0  0  0  0  0  0  0  0  0  0  0
   20.5985  -22.8845   -8.9361 O   0  0  0  0  0  0  0  0  0  0  0  0
  2  1  1  6
  2  3  1  0
  3  4  1  0
  4  8  1  0
  5  4  2  0
  6  2  1  0
  7  6  2  0
 10  9  1  0
 11 12  1  1
 11 10  1  0
 13 11  1  0
 13 14  1  6
 14  6  1  0
 15 24  1  0
 15 13  1  0
 16 15  2  0
 18 28  2  0
 18 17  1  0
 19 18  1  0
 20 21  1  0
 20 19  2  0
 21 27  2  0
 22 21  1  0
 23 22  1  6
 23 24  1  0
 25 23  1  0
 25 26  1  0
 27 28  1  0
 29 25  2  0
M  END
$$$$
