GGR.pdb
     RDKit          3D

 20 19  0  0  1  0  0  0  0  0999 V2000
   13.2770  -17.9209   14.5156 N   0  0  0  0  0  0  0  0  0  0  0  0
   12.7361  -17.1004   15.5910 C   0  0  0  0  0  0  0  0  0  0  0  0
   12.1958  -17.9730   16.6581 C   0  0  0  0  0  0  0  0  0  0  0  0
   12.3040  -19.2245   16.6294 O   0  0  0  0  0  0  0  0  0  0  0  0
   11.5263  -17.3878   17.7649 N   0  0  0  0  0  0  0  0  0  0  0  0
   11.3235  -18.0415   19.0307 C   0  0  0  0  0  0  0  0  0  0  0  0
   11.4964  -17.0590   20.1232 C   0  0  0  0  0  0  0  0  0  0  0  0
   12.3716  -16.1754   20.0149 O   0  0  0  0  0  0  0  0  0  0  0  0
    8.5520  -14.0057   18.0436 N   0  0  0  0  0  0  0  0  0  0  0  0
    7.8942  -13.2776   19.0690 C   0  0  0  0  0  0  0  0  0  0  0  0
    8.0999  -12.0064   19.1504 N   0  0  0  0  0  0  0  0  0  0  0  0
    7.0254  -13.8783   20.0016 N   0  0  0  0  0  0  0  0  0  0  0  0
    7.4519  -14.2216   21.3909 C   0  0  0  0  0  0  0  0  0  0  0  0
    8.7712  -14.8724   21.2473 C   0  0  0  0  0  0  0  0  0  0  0  0
    9.4965  -15.4373   22.3744 C   0  0  0  0  0  0  0  0  0  0  0  0
   10.8419  -16.0370   22.2863 C   0  0  2  0  0  0  0  0  0  0  0  0
   10.6891  -17.1211   21.2666 N   0  0  0  0  0  0  0  0  0  0  0  0
   11.4233  -16.7005   23.4368 C   0  0  0  0  0  0  0  0  0  0  0  0
   11.4413  -17.9227   23.6325 O   0  0  0  0  0  0  0  0  0  0  0  0
   12.0341  -15.9266   24.4493 O   0  0  0  0  0  0  0  0  0  0  0  0
  2  1  1  0
  3  2  1  0
  4  3  2  0
  5  3  1  0
  6  5  1  0
  7  6  1  0
  7 17  1  0
  8  7  2  0
  9 10  1  0
 10 12  1  0
 11 10  2  0
 12 13  1  0
 13 14  1  0
 14 15  1  0
 16 15  1  1
 16 17  1  0
 18 20  1  0
 18 16  1  0
 19 18  2  0
M  END
$$$$
