GGR.pdb
     RDKit          3D

 20 19  0  0  1  0  0  0  0  0999 V2000
    4.4270  -22.8996   21.1513 N   0  0  0  0  0  0  0  0  0  0  0  0
    5.4231  -21.8427   21.0363 C   0  0  0  0  0  0  0  0  0  0  0  0
    5.0872  -20.7401   21.9654 C   0  0  0  0  0  0  0  0  0  0  0  0
    4.0187  -20.0844   21.8804 O   0  0  0  0  0  0  0  0  0  0  0  0
    5.9979  -20.3978   22.9994 N   0  0  0  0  0  0  0  0  0  0  0  0
    5.7787  -19.3513   23.9625 C   0  0  0  0  0  0  0  0  0  0  0  0
    7.0008  -18.5254   24.0758 C   0  0  0  0  0  0  0  0  0  0  0  0
    8.0983  -19.0110   23.7314 O   0  0  0  0  0  0  0  0  0  0  0  0
    8.5139  -11.6462   19.7172 N   0  0  0  0  0  0  0  0  0  0  0  0
    8.2447  -13.0092   19.4275 C   0  0  0  0  0  0  0  0  0  0  0  0
    8.2944  -13.3988   18.1984 N   0  0  0  0  0  0  0  0  0  0  0  0
    7.9272  -13.9575   20.4202 N   0  0  0  0  0  0  0  0  0  0  0  0
    8.1458  -13.7009   21.8749 C   0  0  0  0  0  0  0  0  0  0  0  0
    7.6386  -14.9046   22.5667 C   0  0  0  0  0  0  0  0  0  0  0  0
    7.8123  -15.1234   23.9941 C   0  0  0  0  0  0  0  0  0  0  0  0
    8.1907  -16.4138   24.6017 C   0  0  2  0  0  0  0  0  0  0  0  0
    6.9278  -17.2150   24.5661 N   0  0  0  0  0  0  0  0  0  0  0  0
    8.6187  -16.4725   25.9857 C   0  0  0  0  0  0  0  0  0  0  0  0
    9.7673  -16.2611   26.3957 O   0  0  0  0  0  0  0  0  0  0  0  0
    7.6781  -16.7948   26.9901 O   0  0  0  0  0  0  0  0  0  0  0  0
  2  1  1  0
  3  2  1  0
  4  3  2  0
  5  3  1  0
  6  5  1  0
  7  6  1  0
  7 17  1  0
  8  7  2  0
  9 10  1  0
 10 12  1  0
 11 10  2  0
 12 13  1  0
 13 14  1  0
 14 15  1  0
 16 15  1  1
 16 17  1  0
 18 20  1  0
 18 16  1  0
 19 18  2  0
M  END
$$$$
