GGR.pdb
     RDKit          3D

 20 19  0  0  1  0  0  0  0  0999 V2000
    7.5421  -17.4467   17.3392 N   0  0  0  0  0  0  0  0  0  0  0  0
    8.0634  -16.0986   17.1572 C   0  0  0  0  0  0  0  0  0  0  0  0
    7.4796  -15.1981   18.1771 C   0  0  0  0  0  0  0  0  0  0  0  0
    6.5962  -15.5749   18.9873 O   0  0  0  0  0  0  0  0  0  0  0  0
    7.9252  -13.8524   18.2561 N   0  0  0  0  0  0  0  0  0  0  0  0
    7.4828  -12.9063   19.2459 C   0  0  0  0  0  0  0  0  0  0  0  0
    8.2077  -13.1468   20.5129 C   0  0  0  0  0  0  0  0  0  0  0  0
    8.0722  -12.3389   21.4550 O   0  0  0  0  0  0  0  0  0  0  0  0
   10.0541  -15.2351   28.1442 N   0  0  0  0  0  0  0  0  0  0  0  0
    9.1335  -14.2393   27.7258 C   0  0  0  0  0  0  0  0  0  0  0  0
    8.9137  -13.2367   28.5076 N   0  0  0  0  0  0  0  0  0  0  0  0
    8.4494  -14.2939   26.4952 N   0  0  0  0  0  0  0  0  0  0  0  0
    9.1032  -14.7502   25.2326 C   0  0  0  0  0  0  0  0  0  0  0  0
    8.0937  -14.5481   24.1721 C   0  0  0  0  0  0  0  0  0  0  0  0
    8.3241  -14.9208   22.7853 C   0  0  0  0  0  0  0  0  0  0  0  0
    9.5439  -14.5911   22.0229 C   0  0  2  0  0  0  0  0  0  0  0  0
    9.0379  -14.2666   20.6529 N   0  0  0  0  0  0  0  0  0  0  0  0
   10.5637  -15.5980   21.8041 C   0  0  0  0  0  0  0  0  0  0  0  0
   11.3974  -15.9742   22.6381 O   0  0  0  0  0  0  0  0  0  0  0  0
   10.6526  -16.2338   20.5450 O   0  0  0  0  0  0  0  0  0  0  0  0
  2  1  1  0
  3  2  1  0
  4  3  2  0
  5  3  1  0
  6  5  1  0
  7  6  1  0
  7 17  1  0
  8  7  2  0
  9 10  1  0
 10 12  1  0
 11 10  2  0
 12 13  1  0
 13 14  1  0
 14 15  1  0
 16 15  1  1
 16 17  1  0
 18 20  1  0
 18 16  1  0
 19 18  2  0
M  END
$$$$
