GGR.pdb
     RDKit          3D

 20 19  0  0  1  0  0  0  0  0999 V2000
    8.7190  -21.0471   17.7339 N   0  0  0  0  0  0  0  0  0  0  0  0
    9.6701  -20.7229   18.7887 C   0  0  0  0  0  0  0  0  0  0  0  0
    9.0173  -19.8583   19.7978 C   0  0  0  0  0  0  0  0  0  0  0  0
    8.3701  -18.8265   19.4889 O   0  0  0  0  0  0  0  0  0  0  0  0
    9.1169  -20.1948   21.1735 N   0  0  0  0  0  0  0  0  0  0  0  0
    8.4998  -19.4506   22.2393 C   0  0  0  0  0  0  0  0  0  0  0  0
    9.4083  -18.3652   22.6695 C   0  0  0  0  0  0  0  0  0  0  0  0
   10.6285  -18.4584   22.4224 O   0  0  0  0  0  0  0  0  0  0  0  0
    7.7521  -12.0201   19.7751 N   0  0  0  0  0  0  0  0  0  0  0  0
    7.8408  -13.3803   19.3799 C   0  0  0  0  0  0  0  0  0  0  0  0
    8.1239  -13.6466   18.1495 N   0  0  0  0  0  0  0  0  0  0  0  0
    7.6355  -14.4538   20.2693 N   0  0  0  0  0  0  0  0  0  0  0  0
    7.3099  -14.2498   21.7122 C   0  0  0  0  0  0  0  0  0  0  0  0
    8.6147  -14.1398   22.3977 C   0  0  0  0  0  0  0  0  0  0  0  0
    8.9501  -14.9174   23.5803 C   0  0  0  0  0  0  0  0  0  0  0  0
    9.8350  -16.0982   23.5807 C   0  0  2  0  0  0  0  0  0  0  0  0
    8.9056  -17.2473   23.3481 N   0  0  0  0  0  0  0  0  0  0  0  0
   10.5687  -16.4615   24.7773 C   0  0  0  0  0  0  0  0  0  0  0  0
   10.1505  -17.1887   25.6875 O   0  0  0  0  0  0  0  0  0  0  0  0
   11.8792  -15.9670   24.9650 O   0  0  0  0  0  0  0  0  0  0  0  0
  2  1  1  0
  3  2  1  0
  4  3  2  0
  5  3  1  0
  6  5  1  0
  7  6  1  0
  7 17  1  0
  8  7  2  0
  9 10  1  0
 10 12  1  0
 11 10  2  0
 12 13  1  0
 13 14  1  0
 14 15  1  0
 16 15  1  1
 16 17  1  0
 18 20  1  0
 18 16  1  0
 19 18  2  0
M  END
$$$$
