GGR.pdb
     RDKit          3D

 20 19  0  0  1  0  0  0  0  0999 V2000
    8.6727  -17.4021   16.4426 N   0  0  0  0  0  0  0  0  0  0  0  0
    7.6114  -16.6157   17.0570 C   0  0  0  0  0  0  0  0  0  0  0  0
    8.1737  -15.3553   17.5930 C   0  0  0  0  0  0  0  0  0  0  0  0
    9.4098  -15.1556   17.6978 O   0  0  0  0  0  0  0  0  0  0  0  0
    7.2945  -14.3211   18.0092 N   0  0  0  0  0  0  0  0  0  0  0  0
    7.7223  -13.0281   18.4736 C   0  0  0  0  0  0  0  0  0  0  0  0
    8.2989  -13.1600   19.8296 C   0  0  0  0  0  0  0  0  0  0  0  0
    8.7228  -12.1409   20.4130 O   0  0  0  0  0  0  0  0  0  0  0  0
    5.0721  -12.7735   27.4215 N   0  0  0  0  0  0  0  0  0  0  0  0
    6.2992  -12.1496   27.0762 C   0  0  0  0  0  0  0  0  0  0  0  0
    6.6555  -11.0917   27.7234 N   0  0  0  0  0  0  0  0  0  0  0  0
    7.1475  -12.6327   26.0602 N   0  0  0  0  0  0  0  0  0  0  0  0
    6.6259  -13.2604   24.8097 C   0  0  0  0  0  0  0  0  0  0  0  0
    7.8235  -13.6761   24.0496 C   0  0  0  0  0  0  0  0  0  0  0  0
    7.7513  -14.2137   22.7001 C   0  0  0  0  0  0  0  0  0  0  0  0
    8.9221  -14.4722   21.8399 C   0  0  2  0  0  0  0  0  0  0  0  0
    8.3704  -14.4140   20.4504 N   0  0  0  0  0  0  0  0  0  0  0  0
    9.6092  -15.7473   21.9042 C   0  0  0  0  0  0  0  0  0  0  0  0
   10.6713  -15.9655   22.5013 O   0  0  0  0  0  0  0  0  0  0  0  0
    9.0566  -16.8678   21.2437 O   0  0  0  0  0  0  0  0  0  0  0  0
  2  1  1  0
  3  2  1  0
  4  3  2  0
  5  3  1  0
  6  5  1  0
  7  6  1  0
  7 17  1  0
  8  7  2  0
  9 10  1  0
 10 12  1  0
 11 10  2  0
 12 13  1  0
 13 14  1  0
 14 15  1  0
 16 15  1  1
 16 17  1  0
 18 20  1  0
 18 16  1  0
 19 18  2  0
M  END
$$$$
