GGR.pdb
     RDKit          3D

 20 19  0  0  1  0  0  0  0  0999 V2000
    4.5591  -21.8392   20.8514 N   0  0  0  0  0  0  0  0  0  0  0  0
    5.3580  -22.0988   22.0417 C   0  0  0  0  0  0  0  0  0  0  0  0
    5.7507  -20.8152   22.6663 C   0  0  0  0  0  0  0  0  0  0  0  0
    6.0280  -19.7912   21.9930 O   0  0  0  0  0  0  0  0  0  0  0  0
    5.8212  -20.7211   24.0811 N   0  0  0  0  0  0  0  0  0  0  0  0
    6.1488  -19.5188   24.8007 C   0  0  0  0  0  0  0  0  0  0  0  0
    7.5791  -19.2002   24.5978 C   0  0  0  0  0  0  0  0  0  0  0  0
    8.3928  -20.1320   24.4295 O   0  0  0  0  0  0  0  0  0  0  0  0
    8.4580  -13.5502   18.9059 N   0  0  0  0  0  0  0  0  0  0  0  0
    8.0478  -13.1523   20.2050 C   0  0  0  0  0  0  0  0  0  0  0  0
    7.4571  -12.0134   20.3422 N   0  0  0  0  0  0  0  0  0  0  0  0
    8.2543  -13.9442   21.3520 N   0  0  0  0  0  0  0  0  0  0  0  0
    9.0652  -15.1978   21.3269 C   0  0  0  0  0  0  0  0  0  0  0  0
    9.0115  -15.7282   22.7055 C   0  0  0  0  0  0  0  0  0  0  0  0
    9.5784  -17.0154   23.0758 C   0  0  0  0  0  0  0  0  0  0  0  0
    9.4796  -17.6164   24.4198 C   0  0  2  0  0  0  0  0  0  0  0  0
    8.0156  -17.8689   24.5969 N   0  0  0  0  0  0  0  0  0  0  0  0
    9.8603  -16.8528   25.5919 C   0  0  0  0  0  0  0  0  0  0  0  0
    9.0803  -16.3584   26.4161 O   0  0  0  0  0  0  0  0  0  0  0  0
   11.2297  -16.6271   25.8587 O   0  0  0  0  0  0  0  0  0  0  0  0
  2  1  1  0
  3  2  1  0
  4  3  2  0
  5  3  1  0
  6  5  1  0
  7  6  1  0
  7 17  1  0
  8  7  2  0
  9 10  1  0
 10 12  1  0
 11 10  2  0
 12 13  1  0
 13 14  1  0
 14 15  1  0
 16 15  1  6
 16 17  1  0
 18 20  1  0
 18 16  1  0
 19 18  2  0
M  END
$$$$
