GGR.pdb
     RDKit          3D

 20 19  0  0  1  0  0  0  0  0999 V2000
    6.3013  -17.2427   16.8872 N   0  0  0  0  0  0  0  0  0  0  0  0
    6.2628  -17.3014   18.3424 C   0  0  0  0  0  0  0  0  0  0  0  0
    7.0932  -16.2128   18.9057 C   0  0  0  0  0  0  0  0  0  0  0  0
    8.3426  -16.2980   19.0090 O   0  0  0  0  0  0  0  0  0  0  0  0
    6.4682  -15.0184   19.3513 N   0  0  0  0  0  0  0  0  0  0  0  0
    7.1266  -13.7423   19.4450 C   0  0  0  0  0  0  0  0  0  0  0  0
    8.0729  -13.7611   20.5820 C   0  0  0  0  0  0  0  0  0  0  0  0
    8.7885  -12.7606   20.7955 O   0  0  0  0  0  0  0  0  0  0  0  0
   10.2619  -15.3510   27.7811 N   0  0  0  0  0  0  0  0  0  0  0  0
    9.3139  -14.3055   27.9309 C   0  0  0  0  0  0  0  0  0  0  0  0
    9.6189  -13.3007   28.6807 N   0  0  0  0  0  0  0  0  0  0  0  0
    8.0552  -14.3132   27.2976 N   0  0  0  0  0  0  0  0  0  0  0  0
    7.7286  -15.2380   26.1716 C   0  0  0  0  0  0  0  0  0  0  0  0
    8.5370  -14.7653   25.0280 C   0  0  0  0  0  0  0  0  0  0  0  0
    8.4190  -15.3319   23.6936 C   0  0  0  0  0  0  0  0  0  0  0  0
    9.1716  -14.8593   22.5155 C   0  0  2  0  0  0  0  0  0  0  0  0
    8.1663  -14.8890   21.4079 N   0  0  0  0  0  0  0  0  0  0  0  0
   10.2928  -15.6260   22.0086 C   0  0  0  0  0  0  0  0  0  0  0  0
   10.2372  -16.4820   21.1161 O   0  0  0  0  0  0  0  0  0  0  0  0
   11.5810  -15.4123   22.5490 O   0  0  0  0  0  0  0  0  0  0  0  0
  2  1  1  0
  3  2  1  0
  4  3  2  0
  5  3  1  0
  6  5  1  0
  7  6  1  0
  7 17  1  0
  8  7  2  0
  9 10  1  0
 10 12  1  0
 11 10  2  0
 12 13  1  0
 13 14  1  0
 14 15  1  0
 16 15  1  1
 16 17  1  0
 18 20  1  0
 18 16  1  0
 19 18  2  0
M  END
$$$$
