GGR.pdb
     RDKit          3D

 20 19  0  0  1  0  0  0  0  0999 V2000
   11.1219  -18.0931   17.4662 N   0  0  0  0  0  0  0  0  0  0  0  0
   11.8473  -17.3586   18.4941 C   0  0  0  0  0  0  0  0  0  0  0  0
   11.4113  -17.8161   19.8330 C   0  0  0  0  0  0  0  0  0  0  0  0
   10.2824  -18.3279   20.0395 O   0  0  0  0  0  0  0  0  0  0  0  0
   12.2921  -17.6783   20.9379 N   0  0  0  0  0  0  0  0  0  0  0  0
   12.0137  -18.1606   22.2648 C   0  0  0  0  0  0  0  0  0  0  0  0
   11.5480  -17.0372   23.1072 C   0  0  0  0  0  0  0  0  0  0  0  0
   12.3376  -16.1074   23.3733 O   0  0  0  0  0  0  0  0  0  0  0  0
    7.9980  -11.9943   20.4874 N   0  0  0  0  0  0  0  0  0  0  0  0
    7.8163  -13.2345   19.8218 C   0  0  0  0  0  0  0  0  0  0  0  0
    8.1352  -13.3161   18.5742 N   0  0  0  0  0  0  0  0  0  0  0  0
    7.3052  -14.3817   20.4607 N   0  0  0  0  0  0  0  0  0  0  0  0
    7.0960  -14.4521   21.9375 C   0  0  0  0  0  0  0  0  0  0  0  0
    8.4013  -14.8577   22.5002 C   0  0  0  0  0  0  0  0  0  0  0  0
    8.5425  -15.4189   23.8346 C   0  0  0  0  0  0  0  0  0  0  0  0
    9.8236  -15.8436   24.4313 C   0  0  2  0  0  0  0  0  0  0  0  0
   10.2374  -17.0181   23.6021 N   0  0  0  0  0  0  0  0  0  0  0  0
    9.8687  -16.3294   25.7965 C   0  0  0  0  0  0  0  0  0  0  0  0
    9.9109  -17.5183   26.1386 O   0  0  0  0  0  0  0  0  0  0  0  0
    9.8665  -15.4027   26.8635 O   0  0  0  0  0  0  0  0  0  0  0  0
  2  1  1  0
  3  2  1  0
  4  3  2  0
  5  3  1  0
  6  5  1  0
  7  6  1  0
  7 17  1  0
  8  7  2  0
  9 10  1  0
 10 12  1  0
 11 10  2  0
 12 13  1  0
 13 14  1  0
 14 15  1  0
 16 15  1  6
 16 17  1  0
 18 20  1  0
 18 16  1  0
 19 18  2  0
M  END
$$$$
