GGR.pdb
     RDKit          3D

 20 19  0  0  1  0  0  0  0  0999 V2000
    8.1322  -12.7373   18.0626 N   0  0  0  0  0  0  0  0  0  0  0  0
    7.4763  -13.2290   19.2668 C   0  0  0  0  0  0  0  0  0  0  0  0
    7.7412  -14.6775   19.4208 C   0  0  0  0  0  0  0  0  0  0  0  0
    8.4258  -15.3324   18.5954 O   0  0  0  0  0  0  0  0  0  0  0  0
    7.2077  -15.3687   20.5403 N   0  0  0  0  0  0  0  0  0  0  0  0
    7.5054  -16.7380   20.8679 C   0  0  0  0  0  0  0  0  0  0  0  0
    8.7009  -16.7853   21.7379 C   0  0  0  0  0  0  0  0  0  0  0  0
    9.8172  -17.0134   21.2273 O   0  0  0  0  0  0  0  0  0  0  0  0
    5.2465  -13.5063   25.9727 N   0  0  0  0  0  0  0  0  0  0  0  0
    6.1234  -12.7122   26.7568 C   0  0  0  0  0  0  0  0  0  0  0  0
    5.6191  -11.7735   27.4843 N   0  0  0  0  0  0  0  0  0  0  0  0
    7.5193  -12.9026   26.7790 N   0  0  0  0  0  0  0  0  0  0  0  0
    8.3481  -12.9124   25.5369 C   0  0  0  0  0  0  0  0  0  0  0  0
    8.7530  -14.3210   25.3459 C   0  0  0  0  0  0  0  0  0  0  0  0
    9.5633  -14.7611   24.2211 C   0  0  0  0  0  0  0  0  0  0  0  0
    9.8096  -16.1731   23.8704 C   0  0  2  0  0  0  0  0  0  0  0  0
    8.5815  -16.5790   23.1185 N   0  0  0  0  0  0  0  0  0  0  0  0
    9.9439  -17.1724   24.9122 C   0  0  0  0  0  0  0  0  0  0  0  0
    9.0987  -18.0280   25.2050 O   0  0  0  0  0  0  0  0  0  0  0  0
   11.1249  -17.2126   25.6874 O   0  0  0  0  0  0  0  0  0  0  0  0
  2  1  1  0
  3  2  1  0
  4  3  2  0
  5  3  1  0
  6  5  1  0
  7  6  1  0
  7 17  1  0
  8  7  2  0
  9 10  1  0
 10 12  1  0
 11 10  2  0
 12 13  1  0
 13 14  1  0
 14 15  1  0
 16 15  1  1
 16 17  1  0
 18 20  1  0
 18 16  1  0
 19 18  2  0
M  END
$$$$
