EHL.pdb
     RDKit          3D

 28 28  0  0  1  0  0  0  0  0999 V2000
    9.7128  -14.6740   18.5779 N   0  0  0  0  0  0  0  0  0  0  0  0
   10.4641  -15.3524   19.6295 C   0  0  1  0  0  0  0  0  0  0  0  0
   11.5431  -14.3869   20.0551 C   0  0  0  0  0  0  0  0  0  0  0  0
   12.5224  -14.0209   18.9907 C   0  0  0  0  0  0  0  0  0  0  0  0
   13.9331  -14.0631   19.4120 C   0  0  0  0  0  0  0  0  0  0  0  0
   14.1807  -14.1713   20.6479 O   0  0  0  0  0  0  0  0  0  0  0  0
    9.6033  -15.6212   20.8081 C   0  0  0  0  0  0  0  0  0  0  0  0
    8.6058  -14.8609   20.9823 O   0  0  0  0  0  0  0  0  0  0  0  0
   14.9286  -13.9839   18.4629 O   0  0  0  0  0  0  0  0  0  0  0  0
    9.8388  -16.6688   21.7317 N   0  0  0  0  0  0  0  0  0  0  0  0
    8.9015  -16.9028   22.8115 C   0  0  1  0  0  0  0  0  0  0  0  0
    8.9509  -18.4022   23.1412 C   0  0  0  0  0  0  0  0  0  0  0  0
    7.9598  -18.6544   24.2046 C   0  0  0  0  0  0  0  0  0  0  0  0
    6.6081  -18.4577   24.0937 C   0  0  0  0  0  0  0  0  0  0  0  0
    6.0792  -18.8081   25.2775 N   0  0  0  0  0  0  0  0  0  0  0  0
    7.0438  -19.2104   26.1081 C   0  0  0  0  0  0  0  0  0  0  0  0
    8.2108  -19.1110   25.4314 N   0  0  0  0  0  0  0  0  0  0  0  0
    9.2676  -16.1841   24.0527 C   0  0  0  0  0  0  0  0  0  0  0  0
   10.5286  -16.0714   24.2447 O   0  0  0  0  0  0  0  0  0  0  0  0
    8.4549  -11.7090   25.4729 C   0  0  0  0  0  0  0  0  0  0  0  0
    7.4493  -12.7459   25.7530 C   0  0  2  0  0  0  0  0  0  0  0  0
    6.2401  -12.0270   26.3869 C   0  0  0  0  0  0  0  0  0  0  0  0
    7.7566  -13.9476   26.4958 C   0  0  0  0  0  0  0  0  0  0  0  0
    8.7774  -14.9282   26.1471 C   0  0  2  0  0  0  0  0  0  0  0  0
    8.3216  -15.6602   24.9595 N   0  0  0  0  0  0  0  0  0  0  0  0
    9.2428  -15.9154   27.0986 C   0  0  0  0  0  0  0  0  0  0  0  0
   10.0461  -15.6472   28.0295 O   0  0  0  0  0  0  0  0  0  0  0  0
    8.8631  -17.2490   27.0970 O   0  0  0  0  0  0  0  0  0  0  0  0
  2  1  1  6
  2  7  1  0
  2  3  1  0
  3  4  1  0
  4  5  1  0
  5  9  1  0
  5  6  2  0
  7  8  2  0
 10  7  1  0
 11 10  1  0
 12 13  1  0
 11 12  1  1
 13 17  1  0
 14 13  2  0
 14 15  1  0
 15 16  1  0
 17 16  2  0
 18 11  1  0
 19 18  2  0
 21 20  1  1
 22 21  1  0
 23 21  1  0
 24 23  1  1
 24 25  1  0
 25 18  1  0
 26 24  1  0
 27 26  2  0
 28 26  1  0
M  END
$$$$
