EHL.pdb
     RDKit          3D

 28 28  0  0  1  0  0  0  0  0999 V2000
    7.6603  -20.6841   23.3182 N   0  0  0  0  0  0  0  0  0  0  0  0
    6.8355  -19.5079   23.5763 C   0  0  1  0  0  0  0  0  0  0  0  0
    6.7535  -19.3822   25.0780 C   0  0  0  0  0  0  0  0  0  0  0  0
    7.9707  -19.8243   25.8188 C   0  0  0  0  0  0  0  0  0  0  0  0
    7.8783  -19.6998   27.2835 C   0  0  0  0  0  0  0  0  0  0  0  0
    8.9019  -19.9862   27.9695 O   0  0  0  0  0  0  0  0  0  0  0  0
    7.4828  -18.2800   23.0515 C   0  0  0  0  0  0  0  0  0  0  0  0
    8.7331  -18.1679   23.2179 O   0  0  0  0  0  0  0  0  0  0  0  0
    6.6973  -19.2821   27.8571 O   0  0  0  0  0  0  0  0  0  0  0  0
    6.7826  -17.2450   22.3849 N   0  0  0  0  0  0  0  0  0  0  0  0
    7.5003  -16.0820   21.9039 C   0  0  1  0  0  0  0  0  0  0  0  0
    6.5843  -15.3629   20.9023 C   0  0  0  0  0  0  0  0  0  0  0  0
    7.3716  -14.2816   20.2797 C   0  0  0  0  0  0  0  0  0  0  0  0
    7.9987  -14.3545   19.0634 C   0  0  0  0  0  0  0  0  0  0  0  0
    8.5934  -13.1650   18.8755 N   0  0  0  0  0  0  0  0  0  0  0  0
    8.3598  -12.3670   19.9199 C   0  0  0  0  0  0  0  0  0  0  0  0
    7.5986  -13.0708   20.7887 N   0  0  0  0  0  0  0  0  0  0  0  0
    7.7988  -15.1089   22.9787 C   0  0  0  0  0  0  0  0  0  0  0  0
    7.5147  -13.8953   22.6854 O   0  0  0  0  0  0  0  0  0  0  0  0
    5.7275  -12.0959   26.6238 C   0  0  0  0  0  0  0  0  0  0  0  0
    7.0568  -12.6943   26.4239 C   0  0  2  0  0  0  0  0  0  0  0  0
    8.0455  -11.5227   26.2497 C   0  0  0  0  0  0  0  0  0  0  0  0
    7.3111  -13.7098   25.4269 C   0  0  0  0  0  0  0  0  0  0  0  0
    8.5595  -14.4428   25.2551 C   0  0  2  0  0  0  0  0  0  0  0  0
    8.3494  -15.4691   24.2271 N   0  0  0  0  0  0  0  0  0  0  0  0
    9.2232  -15.0894   26.3677 C   0  0  0  0  0  0  0  0  0  0  0  0
   10.2071  -14.5844   26.9684 O   0  0  0  0  0  0  0  0  0  0  0  0
    8.8580  -16.3190   26.8940 O   0  0  0  0  0  0  0  0  0  0  0  0
  2  1  1  1
  2  7  1  0
  2  3  1  0
  3  4  1  0
  4  5  1  0
  5  9  1  0
  5  6  2  0
  7  8  2  0
 10  7  1  0
 11 10  1  0
 12 13  1  0
 11 12  1  6
 13 17  1  0
 14 13  2  0
 14 15  1  0
 15 16  1  0
 17 16  2  0
 18 11  1  0
 19 18  2  0
 21 20  1  6
 22 21  1  0
 23 21  1  0
 24 23  1  1
 24 25  1  0
 25 18  1  0
 26 24  1  0
 27 26  2  0
 28 26  1  0
M  END
$$$$
