EHL.pdb
     RDKit          3D

 28 28  0  0  1  0  0  0  0  0999 V2000
   13.2932  -16.4693   20.9296 N   0  0  0  0  0  0  0  0  0  0  0  0
   12.6244  -15.2422   20.5083 C   0  0  1  0  0  0  0  0  0  0  0  0
   12.6026  -15.2804   18.9998 C   0  0  0  0  0  0  0  0  0  0  0  0
   13.5218  -14.3165   18.3276 C   0  0  0  0  0  0  0  0  0  0  0  0
   14.3609  -14.9031   17.2687 C   0  0  0  0  0  0  0  0  0  0  0  0
   13.9383  -14.8482   16.0776 O   0  0  0  0  0  0  0  0  0  0  0  0
   11.2187  -15.2138   20.9831 C   0  0  0  0  0  0  0  0  0  0  0  0
   10.5286  -14.1936   20.6894 O   0  0  0  0  0  0  0  0  0  0  0  0
   15.5639  -15.4872   17.6000 O   0  0  0  0  0  0  0  0  0  0  0  0
   10.6214  -16.2544   21.7357 N   0  0  0  0  0  0  0  0  0  0  0  0
    9.3014  -16.0682   22.3032 C   0  0  1  0  0  0  0  0  0  0  0  0
    8.5386  -17.3896   22.1266 C   0  0  0  0  0  0  0  0  0  0  0  0
    8.0997  -17.4628   20.7199 C   0  0  0  0  0  0  0  0  0  0  0  0
    8.3320  -16.5081   19.7645 C   0  0  0  0  0  0  0  0  0  0  0  0
    7.7712  -16.9651   18.6328 N   0  0  0  0  0  0  0  0  0  0  0  0
    7.2064  -18.1549   18.8506 C   0  0  0  0  0  0  0  0  0  0  0  0
    7.4160  -18.4563   20.1525 N   0  0  0  0  0  0  0  0  0  0  0  0
    9.3374  -15.7912   23.7569 C   0  0  0  0  0  0  0  0  0  0  0  0
   10.4838  -15.9680   24.2994 O   0  0  0  0  0  0  0  0  0  0  0  0
    8.0243  -11.8315   26.3663 C   0  0  0  0  0  0  0  0  0  0  0  0
    7.1022  -12.9010   25.9531 C   0  0  2  0  0  0  0  0  0  0  0  0
    5.6789  -12.4097   26.2894 C   0  0  0  0  0  0  0  0  0  0  0  0
    7.2649  -14.2744   26.3742 C   0  0  0  0  0  0  0  0  0  0  0  0
    8.3285  -15.1765   25.9497 C   0  0  2  0  0  0  0  0  0  0  0  0
    8.2144  -15.3673   24.4989 N   0  0  0  0  0  0  0  0  0  0  0  0
    8.4938  -16.4898   26.5365 C   0  0  0  0  0  0  0  0  0  0  0  0
    8.0924  -17.5457   25.9816 O   0  0  0  0  0  0  0  0  0  0  0  0
    9.1047  -16.7344   27.7569 O   0  0  0  0  0  0  0  0  0  0  0  0
  2  1  1  1
  2  7  1  0
  2  3  1  0
  3  4  1  0
  4  5  1  0
  5  9  1  0
  5  6  2  0
  7  8  2  0
 10  7  1  0
 11 10  1  0
 12 13  1  0
 11 12  1  1
 13 17  1  0
 14 13  2  0
 14 15  1  0
 15 16  1  0
 17 16  2  0
 18 11  1  0
 19 18  2  0
 21 20  1  1
 22 21  1  0
 23 21  1  0
 24 23  1  1
 24 25  1  0
 25 18  1  0
 26 24  1  0
 27 26  2  0
 28 26  1  0
M  END
$$$$
