EHL.pdb
     RDKit          3D

 28 28  0  0  1  0  0  0  0  0999 V2000
    8.0071  -18.7508   20.8683 N   0  0  0  0  0  0  0  0  0  0  0  0
    9.4277  -18.4316   20.9702 C   0  0  1  0  0  0  0  0  0  0  0  0
    9.9954  -18.6267   19.5855 C   0  0  0  0  0  0  0  0  0  0  0  0
    9.0940  -18.2218   18.4678 C   0  0  0  0  0  0  0  0  0  0  0  0
    9.6800  -18.3617   17.1237 C   0  0  0  0  0  0  0  0  0  0  0  0
   10.4367  -19.3518   16.9060 O   0  0  0  0  0  0  0  0  0  0  0  0
    9.6268  -17.0104   21.3476 C   0  0  0  0  0  0  0  0  0  0  0  0
   10.8194  -16.6134   21.5010 O   0  0  0  0  0  0  0  0  0  0  0  0
    9.3928  -17.4240   16.1560 O   0  0  0  0  0  0  0  0  0  0  0  0
    8.5663  -16.0918   21.5412 N   0  0  0  0  0  0  0  0  0  0  0  0
    8.8564  -14.7260   21.9281 C   0  0  1  0  0  0  0  0  0  0  0  0
    7.7898  -13.8317   21.2786 C   0  0  0  0  0  0  0  0  0  0  0  0
    7.9173  -13.9812   19.8164 C   0  0  0  0  0  0  0  0  0  0  0  0
    8.3911  -13.0234   18.9583 C   0  0  0  0  0  0  0  0  0  0  0  0
    8.3427  -13.5632   17.7293 N   0  0  0  0  0  0  0  0  0  0  0  0
    7.8614  -14.8067   17.7948 C   0  0  0  0  0  0  0  0  0  0  0  0
    7.5995  -15.0578   19.0979 N   0  0  0  0  0  0  0  0  0  0  0  0
    8.7560  -14.5116   23.3893 C   0  0  0  0  0  0  0  0  0  0  0  0
    9.0180  -13.3163   23.7663 O   0  0  0  0  0  0  0  0  0  0  0  0
    7.7210  -12.3724   27.2721 C   0  0  0  0  0  0  0  0  0  0  0  0
    6.9881  -12.9587   26.1390 C   0  0  2  0  0  0  0  0  0  0  0  0
    5.5286  -12.4731   26.2599 C   0  0  0  0  0  0  0  0  0  0  0  0
    7.0167  -14.3732   25.8419 C   0  0  0  0  0  0  0  0  0  0  0  0
    8.2144  -15.1956   25.7223 C   0  0  2  0  0  0  0  0  0  0  0  0
    8.4028  -15.5259   24.3047 N   0  0  0  0  0  0  0  0  0  0  0  0
    8.3709  -16.4274   26.4671 C   0  0  0  0  0  0  0  0  0  0  0  0
    7.9295  -17.5349   26.0640 O   0  0  0  0  0  0  0  0  0  0  0  0
    9.0160  -16.5301   27.6902 O   0  0  0  0  0  0  0  0  0  0  0  0
  2  1  1  6
  2  7  1  0
  2  3  1  0
  3  4  1  0
  4  5  1  0
  5  9  1  0
  5  6  2  0
  7  8  2  0
 10  7  1  0
 11 10  1  0
 12 13  1  0
 11 12  1  6
 13 17  1  0
 14 13  2  0
 14 15  1  0
 15 16  1  0
 17 16  2  0
 18 11  1  0
 19 18  2  0
 21 20  1  1
 22 21  1  0
 23 21  1  0
 24 23  1  6
 24 25  1  0
 25 18  1  0
 26 24  1  0
 27 26  2  0
 28 26  1  0
M  END
$$$$
