EHL.pdb
     RDKit          3D

 28 28  0  0  1  0  0  0  0  0999 V2000
   10.2422  -15.9432   18.7877 N   0  0  0  0  0  0  0  0  0  0  0  0
    8.9131  -15.6417   19.3102 C   0  0  1  0  0  0  0  0  0  0  0  0
    7.9498  -16.4616   18.4872 C   0  0  0  0  0  0  0  0  0  0  0  0
    8.3367  -16.6495   17.0587 C   0  0  0  0  0  0  0  0  0  0  0  0
    7.3375  -17.3556   16.2386 C   0  0  0  0  0  0  0  0  0  0  0  0
    7.5924  -18.5429   15.8840 O   0  0  0  0  0  0  0  0  0  0  0  0
    8.7873  -16.0754   20.7238 C   0  0  0  0  0  0  0  0  0  0  0  0
    7.6601  -15.9201   21.2793 O   0  0  0  0  0  0  0  0  0  0  0  0
    6.1713  -16.7129   15.8851 O   0  0  0  0  0  0  0  0  0  0  0  0
    9.8484  -16.6449   21.4693 N   0  0  0  0  0  0  0  0  0  0  0  0
    9.6251  -17.0627   22.8386 C   0  0  1  0  0  0  0  0  0  0  0  0
   10.8168  -17.9414   23.2473 C   0  0  0  0  0  0  0  0  0  0  0  0
   10.5422  -19.3099   22.7693 C   0  0  0  0  0  0  0  0  0  0  0  0
    9.3507  -19.7467   22.2520 C   0  0  0  0  0  0  0  0  0  0  0  0
    9.5280  -21.0413   21.9417 N   0  0  0  0  0  0  0  0  0  0  0  0
   10.7725  -21.4177   22.2447 C   0  0  0  0  0  0  0  0  0  0  0  0
   11.3960  -20.3333   22.7592 N   0  0  0  0  0  0  0  0  0  0  0  0
    9.5930  -15.9255   23.7858 C   0  0  0  0  0  0  0  0  0  0  0  0
   10.5375  -15.0764   23.6227 O   0  0  0  0  0  0  0  0  0  0  0  0
    5.7472  -12.1825   26.4869 C   0  0  0  0  0  0  0  0  0  0  0  0
    7.1018  -12.7565   26.4698 C   0  0  2  0  0  0  0  0  0  0  0  0
    8.0721  -11.5880   26.1985 C   0  0  0  0  0  0  0  0  0  0  0  0
    7.4546  -13.8941   25.6503 C   0  0  0  0  0  0  0  0  0  0  0  0
    8.6996  -14.6485   25.7287 C   0  0  2  0  0  0  0  0  0  0  0  0
    8.6128  -15.7730   24.7895 N   0  0  0  0  0  0  0  0  0  0  0  0
    9.1899  -15.1823   26.9821 C   0  0  0  0  0  0  0  0  0  0  0  0
    9.6874  -14.4634   27.8874 O   0  0  0  0  0  0  0  0  0  0  0  0
    9.1678  -16.5251   27.3271 O   0  0  0  0  0  0  0  0  0  0  0  0
  2  1  1  6
  2  7  1  0
  2  3  1  0
  3  4  1  0
  4  5  1  0
  5  9  1  0
  5  6  2  0
  7  8  2  0
 10  7  1  0
 11 10  1  0
 12 13  1  0
 11 12  1  1
 13 17  1  0
 14 13  2  0
 14 15  1  0
 15 16  1  0
 17 16  2  0
 18 11  1  0
 19 18  2  0
 21 20  1  6
 22 21  1  0
 23 21  1  0
 24 23  1  1
 24 25  1  0
 25 18  1  0
 26 24  1  0
 27 26  2  0
 28 26  1  0
M  END
$$$$
