EHL.pdb
     RDKit          3D

 28 28  0  0  1  0  0  0  0  0999 V2000
   11.9749  -19.3376   20.3277 N   0  0  0  0  0  0  0  0  0  0  0  0
   12.7945  -18.1551   20.5735 C   0  0  1  0  0  0  0  0  0  0  0  0
   13.1449  -17.6051   19.2125 C   0  0  0  0  0  0  0  0  0  0  0  0
   12.1805  -17.9413   18.1250 C   0  0  0  0  0  0  0  0  0  0  0  0
   12.5489  -17.4262   16.7953 C   0  0  0  0  0  0  0  0  0  0  0  0
   12.2665  -16.2230   16.5255 O   0  0  0  0  0  0  0  0  0  0  0  0
   12.0230  -17.1159   21.2994 C   0  0  0  0  0  0  0  0  0  0  0  0
   12.6127  -16.0227   21.5452 O   0  0  0  0  0  0  0  0  0  0  0  0
   13.1804  -18.2568   15.8955 O   0  0  0  0  0  0  0  0  0  0  0  0
   10.6821  -17.2840   21.7232 N   0  0  0  0  0  0  0  0  0  0  0  0
   10.0493  -16.2653   22.5362 C   0  0  1  0  0  0  0  0  0  0  0  0
    8.5401  -16.3323   22.2581 C   0  0  0  0  0  0  0  0  0  0  0  0
    8.2516  -15.3976   21.1537 C   0  0  0  0  0  0  0  0  0  0  0  0
    9.1818  -14.6418   20.4891 C   0  0  0  0  0  0  0  0  0  0  0  0
    8.5048  -13.9397   19.5657 N   0  0  0  0  0  0  0  0  0  0  0  0
    7.2036  -14.2303   19.6337 C   0  0  0  0  0  0  0  0  0  0  0  0
    7.0559  -15.1385   20.6250 N   0  0  0  0  0  0  0  0  0  0  0  0
   10.2232  -16.5014   23.9872 C   0  0  0  0  0  0  0  0  0  0  0  0
   10.7928  -17.6111   24.2765 O   0  0  0  0  0  0  0  0  0  0  0  0
    9.4914  -14.8230   29.6279 C   0  0  0  0  0  0  0  0  0  0  0  0
   10.3382  -14.3819   28.5085 C   0  0  2  0  0  0  0  0  0  0  0  0
   10.6407  -12.8879   28.7471 C   0  0  0  0  0  0  0  0  0  0  0  0
    9.9760  -14.5995   27.1259 C   0  0  0  0  0  0  0  0  0  0  0  0
   10.1344  -15.8473   26.3889 C   0  0  2  0  0  0  0  0  0  0  0  0
    9.8037  -15.5925   24.9818 N   0  0  0  0  0  0  0  0  0  0  0  0
    9.4347  -17.0548   26.7749 C   0  0  0  0  0  0  0  0  0  0  0  0
    8.2866  -17.3488   26.3514 O   0  0  0  0  0  0  0  0  0  0  0  0
    9.9394  -18.0134   27.6402 O   0  0  0  0  0  0  0  0  0  0  0  0
  2  1  1  6
  2  7  1  0
  2  3  1  0
  3  4  1  0
  4  5  1  0
  5  9  1  0
  5  6  2  0
  7  8  2  0
 10  7  1  0
 11 10  1  0
 12 13  1  0
 11 12  1  1
 13 17  1  0
 14 13  2  0
 14 15  1  0
 15 16  1  0
 17 16  2  0
 18 11  1  0
 19 18  2  0
 21 20  1  1
 22 21  1  0
 23 21  1  0
 24 23  1  1
 24 25  1  0
 25 18  1  0
 26 24  1  0
 27 26  2  0
 28 26  1  0
M  END
$$$$
