EHL.pdb
     RDKit          3D

 28 28  0  0  1  0  0  0  0  0999 V2000
    9.2246  -16.5637   19.2382 N   0  0  0  0  0  0  0  0  0  0  0  0
   10.0879  -16.8549   20.3785 C   0  0  1  0  0  0  0  0  0  0  0  0
   11.1083  -15.7438   20.4186 C   0  0  0  0  0  0  0  0  0  0  0  0
   12.4210  -16.0651   19.7866 C   0  0  0  0  0  0  0  0  0  0  0  0
   13.2659  -16.9909   20.5602 C   0  0  0  0  0  0  0  0  0  0  0  0
   13.1523  -18.2299   20.3319 O   0  0  0  0  0  0  0  0  0  0  0  0
    9.3215  -16.8150   21.6486 C   0  0  0  0  0  0  0  0  0  0  0  0
    8.3540  -16.0007   21.7160 O   0  0  0  0  0  0  0  0  0  0  0  0
   14.1424  -16.4893   21.4974 O   0  0  0  0  0  0  0  0  0  0  0  0
    9.6139  -17.6293   22.7699 N   0  0  0  0  0  0  0  0  0  0  0  0
    8.7453  -17.5998   23.9291 C   0  0  1  0  0  0  0  0  0  0  0  0
    8.8755  -18.9598   24.6311 C   0  0  0  0  0  0  0  0  0  0  0  0
    7.7892  -19.0505   25.6254 C   0  0  0  0  0  0  0  0  0  0  0  0
    6.7768  -18.1401   25.7812 C   0  0  0  0  0  0  0  0  0  0  0  0
    6.0107  -18.5985   26.7847 N   0  0  0  0  0  0  0  0  0  0  0  0
    6.5066  -19.7471   27.2505 C   0  0  0  0  0  0  0  0  0  0  0  0
    7.6136  -20.0202   26.5228 N   0  0  0  0  0  0  0  0  0  0  0  0
    9.1451  -16.5731   24.9178 C   0  0  0  0  0  0  0  0  0  0  0  0
   10.4091  -16.3882   25.0044 O   0  0  0  0  0  0  0  0  0  0  0  0
    5.8371  -12.2329   26.0887 C   0  0  0  0  0  0  0  0  0  0  0  0
    7.2067  -12.7705   26.0834 C   0  0  2  0  0  0  0  0  0  0  0  0
    7.5728  -13.0290   24.6071 C   0  0  0  0  0  0  0  0  0  0  0  0
    7.6034  -13.8977   26.8971 C   0  0  0  0  0  0  0  0  0  0  0  0
    8.7099  -14.8046   26.6169 C   0  0  2  0  0  0  0  0  0  0  0  0
    8.2257  -15.8492   25.7066 N   0  0  0  0  0  0  0  0  0  0  0  0
    9.4359  -15.4719   27.6771 C   0  0  0  0  0  0  0  0  0  0  0  0
    9.2796  -16.6891   27.9564 O   0  0  0  0  0  0  0  0  0  0  0  0
   10.3738  -14.8593   28.4941 O   0  0  0  0  0  0  0  0  0  0  0  0
  2  1  1  6
  2  7  1  0
  2  3  1  0
  3  4  1  0
  4  5  1  0
  5  9  1  0
  5  6  2  0
  7  8  2  0
 10  7  1  0
 11 10  1  0
 12 13  1  0
 11 12  1  1
 13 17  1  0
 14 13  2  0
 14 15  1  0
 15 16  1  0
 17 16  2  0
 18 11  1  0
 19 18  2  0
 21 20  1  6
 22 21  1  0
 23 21  1  0
 24 23  1  1
 24 25  1  0
 25 18  1  0
 26 24  1  0
 27 26  2  0
 28 26  1  0
M  END
$$$$
