EHL.pdb
     RDKit          3D

 28 28  0  0  1  0  0  0  0  0999 V2000
    9.8525  -15.1332   18.3167 N   0  0  0  0  0  0  0  0  0  0  0  0
   10.6397  -15.5700   19.4657 C   0  0  1  0  0  0  0  0  0  0  0  0
   11.4605  -14.3742   19.8828 C   0  0  0  0  0  0  0  0  0  0  0  0
   12.5760  -14.0172   18.9588 C   0  0  0  0  0  0  0  0  0  0  0  0
   13.9237  -14.2862   19.4889 C   0  0  0  0  0  0  0  0  0  0  0  0
   14.8667  -14.4448   18.6607 O   0  0  0  0  0  0  0  0  0  0  0  0
    9.7602  -15.9374   20.6031 C   0  0  0  0  0  0  0  0  0  0  0  0
    8.6746  -15.2973   20.7262 O   0  0  0  0  0  0  0  0  0  0  0  0
   14.1166  -14.3573   20.8512 O   0  0  0  0  0  0  0  0  0  0  0  0
   10.0702  -16.9519   21.5415 N   0  0  0  0  0  0  0  0  0  0  0  0
    9.1772  -17.2024   22.6545 C   0  0  1  0  0  0  0  0  0  0  0  0
    9.5372  -18.5817   23.2265 C   0  0  0  0  0  0  0  0  0  0  0  0
    8.5925  -18.8664   24.3234 C   0  0  0  0  0  0  0  0  0  0  0  0
    7.2313  -18.9605   24.1952 C   0  0  0  0  0  0  0  0  0  0  0  0
    6.7563  -19.2309   25.4220 N   0  0  0  0  0  0  0  0  0  0  0  0
    7.7630  -19.3069   26.2955 C   0  0  0  0  0  0  0  0  0  0  0  0
    8.9018  -19.0785   25.6024 N   0  0  0  0  0  0  0  0  0  0  0  0
    9.3493  -16.2291   23.7565 C   0  0  0  0  0  0  0  0  0  0  0  0
   10.5340  -15.7548   23.8612 O   0  0  0  0  0  0  0  0  0  0  0  0
    7.7386  -12.5174   27.7449 C   0  0  0  0  0  0  0  0  0  0  0  0
    7.4088  -12.5963   26.3132 C   0  0  2  0  0  0  0  0  0  0  0  0
    6.0140  -11.9582   26.1467 C   0  0  0  0  0  0  0  0  0  0  0  0
    7.4813  -13.8312   25.5648 C   0  0  0  0  0  0  0  0  0  0  0  0
    8.5524  -14.8167   25.6471 C   0  0  2  0  0  0  0  0  0  0  0  0
    8.3079  -15.8439   24.6276 N   0  0  0  0  0  0  0  0  0  0  0  0
    8.8567  -15.5107   26.8809 C   0  0  0  0  0  0  0  0  0  0  0  0
    8.2141  -16.5164   27.2801 O   0  0  0  0  0  0  0  0  0  0  0  0
    9.8755  -15.1557   27.7519 O   0  0  0  0  0  0  0  0  0  0  0  0
  2  1  1  6
  2  7  1  0
  2  3  1  0
  3  4  1  0
  4  5  1  0
  5  9  1  0
  5  6  2  0
  7  8  2  0
 10  7  1  0
 11 10  1  0
 12 13  1  0
 11 12  1  1
 13 17  1  0
 14 13  2  0
 14 15  1  0
 15 16  1  0
 17 16  2  0
 18 11  1  0
 19 18  2  0
 21 20  1  1
 22 21  1  0
 23 21  1  0
 24 23  1  1
 24 25  1  0
 25 18  1  0
 26 24  1  0
 27 26  2  0
 28 26  1  0
M  END
$$$$
