EHL.pdb
     RDKit          3D

 28 28  0  0  1  0  0  0  0  0999 V2000
    8.8436  -17.7158   18.8591 N   0  0  0  0  0  0  0  0  0  0  0  0
    9.0090  -18.5881   20.0176 C   0  0  1  0  0  0  0  0  0  0  0  0
   10.4859  -18.5873   20.3278 C   0  0  0  0  0  0  0  0  0  0  0  0
   11.1366  -17.2449   20.3121 C   0  0  0  0  0  0  0  0  0  0  0  0
   12.5741  -17.2544   20.6330 C   0  0  0  0  0  0  0  0  0  0  0  0
   12.9375  -16.7717   21.7444 O   0  0  0  0  0  0  0  0  0  0  0  0
    8.2956  -18.0427   21.1990 C   0  0  0  0  0  0  0  0  0  0  0  0
    7.7791  -16.8924   21.0837 O   0  0  0  0  0  0  0  0  0  0  0  0
   13.4694  -17.7798   19.7271 O   0  0  0  0  0  0  0  0  0  0  0  0
    8.1661  -18.7342   22.4282 N   0  0  0  0  0  0  0  0  0  0  0  0
    7.2832  -18.2203   23.4556 C   0  0  1  0  0  0  0  0  0  0  0  0
    7.0192  -19.3656   24.4446 C   0  0  0  0  0  0  0  0  0  0  0  0
    6.1030  -20.3164   23.7865 C   0  0  0  0  0  0  0  0  0  0  0  0
    4.9327  -19.9846   23.1552 C   0  0  0  0  0  0  0  0  0  0  0  0
    4.4137  -21.1355   22.6970 N   0  0  0  0  0  0  0  0  0  0  0  0
    5.2115  -22.1566   23.0180 C   0  0  0  0  0  0  0  0  0  0  0  0
    6.2602  -21.6369   23.6961 N   0  0  0  0  0  0  0  0  0  0  0  0
    7.8924  -17.1195   24.2355 C   0  0  0  0  0  0  0  0  0  0  0  0
    9.1723  -17.0979   24.2064 O   0  0  0  0  0  0  0  0  0  0  0  0
    6.0397  -12.0070   27.2757 C   0  0  0  0  0  0  0  0  0  0  0  0
    7.0952  -12.7674   26.5882 C   0  0  2  0  0  0  0  0  0  0  0  0
    7.7937  -11.7821   25.6281 C   0  0  0  0  0  0  0  0  0  0  0  0
    6.8381  -14.0195   25.9127 C   0  0  0  0  0  0  0  0  0  0  0  0
    7.8276  -15.0487   25.6182 C   0  0  2  0  0  0  0  0  0  0  0  0
    7.1428  -16.1653   24.9559 N   0  0  0  0  0  0  0  0  0  0  0  0
    8.6640  -15.6204   26.6526 C   0  0  0  0  0  0  0  0  0  0  0  0
    8.2856  -16.5578   27.4023 O   0  0  0  0  0  0  0  0  0  0  0  0
    9.9586  -15.2104   26.9329 O   0  0  0  0  0  0  0  0  0  0  0  0
  2  1  1  6
  2  7  1  0
  2  3  1  0
  3  4  1  0
  4  5  1  0
  5  9  1  0
  5  6  2  0
  7  8  2  0
 10  7  1  0
 11 10  1  0
 12 13  1  0
 11 12  1  1
 13 17  1  0
 14 13  2  0
 14 15  1  0
 15 16  1  0
 17 16  2  0
 18 11  1  0
 19 18  2  0
 21 20  1  6
 22 21  1  0
 23 21  1  0
 24 23  1  1
 24 25  1  0
 25 18  1  0
 26 24  1  0
 27 26  2  0
 28 26  1  0
M  END
$$$$
