TRT.pdb
     RDKit          3D

 26 25  0  0  1  0  0  0  0  0999 V2000
    9.5508  -12.1134   20.1116 C   0  0  0  0  0  0  0  0  0  0  0  0
    8.1346  -12.4139   19.6451 C   0  0  1  0  0  0  0  0  0  0  0  0
    7.5372  -11.2284   19.2932 O   0  0  0  0  0  0  0  0  0  0  0  0
    8.1382  -13.4517   18.5402 C   0  0  2  0  0  0  0  0  0  0  0  0
    6.7536  -13.7399   18.2072 N   0  0  0  0  0  0  0  0  0  0  0  0
    8.8221  -14.6991   18.9463 C   0  0  0  0  0  0  0  0  0  0  0  0
    8.1582  -15.6167   19.4977 O   0  0  0  0  0  0  0  0  0  0  0  0
   15.8435  -16.8124   14.9426 N   0  0  0  0  0  0  0  0  0  0  0  0
   16.1602  -15.9746   16.0719 C   0  0  0  0  0  0  0  0  0  0  0  0
   17.3620  -15.6234   16.3003 N   0  0  0  0  0  0  0  0  0  0  0  0
   15.1567  -15.5149   16.9637 N   0  0  0  0  0  0  0  0  0  0  0  0
   13.8029  -15.8755   16.7569 C   0  0  0  0  0  0  0  0  0  0  0  0
   12.8481  -15.4643   17.8197 C   0  0  0  0  0  0  0  0  0  0  0  0
   11.9081  -16.5813   18.2303 C   0  0  0  0  0  0  0  0  0  0  0  0
   10.8638  -16.0549   19.2250 C   0  0  2  0  0  0  0  0  0  0  0  0
   10.2148  -14.8833   18.7262 N   0  0  0  0  0  0  0  0  0  0  0  0
   11.5339  -15.8359   20.5429 C   0  0  0  0  0  0  0  0  0  0  0  0
   12.1649  -14.7631   20.6856 O   0  0  0  0  0  0  0  0  0  0  0  0
   17.7248  -15.0274   17.0465 C   0  0  0  0  0  0  0  0  0  0  0  0
   10.8034  -18.5498   23.7927 C   0  0  2  0  0  0  0  0  0  0  0  0
   11.0238  -17.0584   23.9843 O   0  0  0  0  0  0  0  0  0  0  0  0
   11.5679  -16.8585   25.2487 C   0  0  1  0  0  0  0  0  0  0  0  0
   11.9590  -16.5161   22.9257 N   0  0  0  0  0  0  0  0  0  0  0  0
   11.4751  -16.7742   21.5928 C   0  0  0  0  0  0  0  0  0  0  0  0
   13.2770  -17.1712   23.1061 O   0  0  0  0  0  0  0  0  0  0  0  0
   14.0634  -17.0077   24.2295 O   0  0  0  0  0  0  0  0  0  0  0  0
  2  4  1  0
  2  1  1  6
  3  2  1  0
  4  6  1  0
  4  5  1  1
  6  7  2  0
  9 11  1  0
  9  8  1  0
 10  9  2  0
 12 13  1  0
 12 11  1  0
 13 14  1  0
 15 14  1  6
 16 15  1  0
 16  6  1  0
 17 15  1  0
 17 18  2  0
 20 19  1  1
 20 22  1  0
 21 20  1  0
 22 23  1  1
 22 24  1  0
 23 17  1  0
 24 26  2  0
 24 25  1  0
M  END
$$$$
