TRT.pdb
     RDKit          3D

 26 25  0  0  1  0  0  0  0  0999 V2000
   10.3962  -13.1487   20.4124 C   0  0  0  0  0  0  0  0  0  0  0  0
    9.2518  -12.8849   19.4458 C   0  0  1  0  0  0  0  0  0  0  0  0
    9.7872  -12.5116   18.2374 O   0  0  0  0  0  0  0  0  0  0  0  0
    8.3264  -14.0828   19.3639 C   0  0  2  0  0  0  0  0  0  0  0  0
    7.2879  -13.7672   18.3980 N   0  0  0  0  0  0  0  0  0  0  0  0
    7.7100  -14.4040   20.6698 C   0  0  0  0  0  0  0  0  0  0  0  0
    6.7714  -13.6849   21.1039 O   0  0  0  0  0  0  0  0  0  0  0  0
    7.1408  -20.1816   27.2551 N   0  0  0  0  0  0  0  0  0  0  0  0
    8.2145  -20.0910   26.2978 C   0  0  0  0  0  0  0  0  0  0  0  0
    9.3854  -20.4887   26.5990 N   0  0  0  0  0  0  0  0  0  0  0  0
    8.0112  -19.5599   24.9977 N   0  0  0  0  0  0  0  0  0  0  0  0
    6.7530  -19.0167   24.6407 C   0  0  0  0  0  0  0  0  0  0  0  0
    6.7456  -17.5783   24.2654 C   0  0  0  0  0  0  0  0  0  0  0  0
    7.5063  -17.3009   22.9831 C   0  0  0  0  0  0  0  0  0  0  0  0
    7.5359  -15.7919   22.7015 C   0  0  2  0  0  0  0  0  0  0  0  0
    8.1560  -15.5095   21.4452 N   0  0  0  0  0  0  0  0  0  0  0  0
    8.2052  -15.1093   23.8505 C   0  0  0  0  0  0  0  0  0  0  0  0
    9.4568  -15.1520   23.8831 O   0  0  0  0  0  0  0  0  0  0  0  0
   10.2340  -20.4723   26.0304 C   0  0  0  0  0  0  0  0  0  0  0  0
    6.9117  -11.5445   25.5919 C   0  0  2  0  0  0  0  0  0  0  0  0
    7.1687  -12.6947   26.5513 O   0  0  0  0  0  0  0  0  0  0  0  0
    5.9496  -13.2966   26.8446 C   0  0  2  0  0  0  0  0  0  0  0  0
    8.1106  -13.7052   25.9340 N   0  0  0  0  0  0  0  0  0  0  0  0
    7.4874  -14.4416   24.8630 C   0  0  0  0  0  0  0  0  0  0  0  0
    8.5284  -14.6468   27.0006 O   0  0  0  0  0  0  0  0  0  0  0  0
    9.2199  -14.2607   28.1318 O   0  0  0  0  0  0  0  0  0  0  0  0
  2  4  1  0
  2  1  1  1
  3  2  1  0
  4  6  1  0
  4  5  1  6
  6  7  2  0
  9 11  1  0
  9  8  1  0
 10  9  2  0
 12 13  1  0
 12 11  1  0
 13 14  1  0
 15 14  1  1
 16 15  1  0
 16  6  1  0
 17 15  1  0
 17 18  2  0
 20 19  1  1
 20 22  1  0
 21 20  1  0
 22 23  1  1
 22 24  1  0
 23 17  1  0
 24 26  2  0
 24 25  1  0
M  END
$$$$
