TRT.pdb
     RDKit          3D

 26 25  0  0  1  0  0  0  0  0999 V2000
    8.8451  -11.8392   19.8780 C   0  0  0  0  0  0  0  0  0  0  0  0
    7.8278  -12.8090   19.2963 C   0  0  1  0  0  0  0  0  0  0  0  0
    6.6742  -12.1131   19.0295 O   0  0  0  0  0  0  0  0  0  0  0  0
    8.3990  -13.5351   18.0946 C   0  0  2  0  0  0  0  0  0  0  0  0
    7.3477  -14.3800   17.5545 N   0  0  0  0  0  0  0  0  0  0  0  0
    9.5718  -14.3649   18.4476 C   0  0  0  0  0  0  0  0  0  0  0  0
    9.4047  -15.5788   18.7397 O   0  0  0  0  0  0  0  0  0  0  0  0
   17.5932  -15.3202   19.6957 N   0  0  0  0  0  0  0  0  0  0  0  0
   17.5869  -16.0131   18.4317 C   0  0  0  0  0  0  0  0  0  0  0  0
   18.4307  -16.9362   18.1956 N   0  0  0  0  0  0  0  0  0  0  0  0
   16.6517  -15.6962   17.4127 N   0  0  0  0  0  0  0  0  0  0  0  0
   15.6841  -14.6842   17.6257 C   0  0  0  0  0  0  0  0  0  0  0  0
   14.4240  -15.1145   18.2868 C   0  0  0  0  0  0  0  0  0  0  0  0
   13.2612  -14.1847   17.9986 C   0  0  0  0  0  0  0  0  0  0  0  0
   12.0030  -14.6674   18.7342 C   0  0  2  0  0  0  0  0  0  0  0  0
   10.8849  -13.8194   18.4635 N   0  0  0  0  0  0  0  0  0  0  0  0
   12.3180  -14.7725   20.1915 C   0  0  0  0  0  0  0  0  0  0  0  0
   12.7641  -13.7435   20.7497 O   0  0  0  0  0  0  0  0  0  0  0  0
   18.5255  -17.5200   17.3626 C   0  0  0  0  0  0  0  0  0  0  0  0
   11.8627  -17.2557   24.4721 C   0  0  2  0  0  0  0  0  0  0  0  0
   11.5928  -17.1881   22.9781 O   0  0  0  0  0  0  0  0  0  0  0  0
   10.2333  -16.9606   22.7920 C   0  0  1  0  0  0  0  0  0  0  0  0
   12.3967  -16.0766   22.3396 N   0  0  0  0  0  0  0  0  0  0  0  0
   12.1316  -15.9597   20.9276 C   0  0  0  0  0  0  0  0  0  0  0  0
   13.8334  -16.3789   22.5471 O   0  0  0  0  0  0  0  0  0  0  0  0
   14.5322  -16.0220   23.6834 O   0  0  0  0  0  0  0  0  0  0  0  0
  2  4  1  0
  2  1  1  6
  3  2  1  0
  4  6  1  0
  4  5  1  1
  6  7  2  0
  9 11  1  0
  9  8  1  0
 10  9  2  0
 12 13  1  0
 12 11  1  0
 13 14  1  0
 15 14  1  6
 16 15  1  0
 16  6  1  0
 17 15  1  0
 17 18  2  0
 20 19  1  6
 20 22  1  0
 21 20  1  0
 22 23  1  6
 22 24  1  0
 23 17  1  0
 24 26  2  0
 24 25  1  0
M  END
$$$$
