TRT.pdb
     RDKit          3D

 26 25  0  0  1  0  0  0  0  0999 V2000
   13.7329  -17.4452   18.0375 C   0  0  0  0  0  0  0  0  0  0  0  0
   14.6787  -16.2542   18.0614 C   0  0  1  0  0  0  0  0  0  0  0  0
   15.4558  -16.2995   16.9300 O   0  0  0  0  0  0  0  0  0  0  0  0
   13.9110  -14.9577   18.2279 C   0  0  2  0  0  0  0  0  0  0  0  0
   14.8759  -13.8719   18.1980 N   0  0  0  0  0  0  0  0  0  0  0  0
   13.1534  -14.9150   19.4979 C   0  0  0  0  0  0  0  0  0  0  0  0
   13.7720  -14.7391   20.5810 O   0  0  0  0  0  0  0  0  0  0  0  0
    8.3882  -11.9838   17.2733 N   0  0  0  0  0  0  0  0  0  0  0  0
    7.8606  -13.3153   17.4355 C   0  0  0  0  0  0  0  0  0  0  0  0
    7.8842  -14.1429   16.4688 N   0  0  0  0  0  0  0  0  0  0  0  0
    7.2997  -13.7503   18.6642 N   0  0  0  0  0  0  0  0  0  0  0  0
    7.8215  -13.2742   19.8917 C   0  0  0  0  0  0  0  0  0  0  0  0
    9.2665  -13.5296   20.1297 C   0  0  0  0  0  0  0  0  0  0  0  0
    9.5445  -14.9449   20.5980 C   0  0  0  0  0  0  0  0  0  0  0  0
   11.0550  -15.1576   20.7716 C   0  0  2  0  0  0  0  0  0  0  0  0
   11.7399  -15.0683   19.5203 N   0  0  0  0  0  0  0  0  0  0  0  0
   11.2723  -16.4638   21.4651 C   0  0  0  0  0  0  0  0  0  0  0  0
   10.6673  -17.4581   21.0017 O   0  0  0  0  0  0  0  0  0  0  0  0
    7.5429  -15.1055   16.4407 C   0  0  0  0  0  0  0  0  0  0  0  0
   14.3593  -18.4394   21.8436 C   0  0  2  0  0  0  0  0  0  0  0  0
   13.8541  -18.1885   23.2548 O   0  0  0  0  0  0  0  0  0  0  0  0
   14.5770  -17.1290   23.7931 C   0  0  2  0  0  0  0  0  0  0  0  0
   12.3781  -17.8559   23.2428 N   0  0  0  0  0  0  0  0  0  0  0  0
   12.1121  -16.5993   22.5886 C   0  0  0  0  0  0  0  0  0  0  0  0
   11.9175  -17.7849   24.6505 O   0  0  0  0  0  0  0  0  0  0  0  0
   11.9773  -18.8497   25.5279 O   0  0  0  0  0  0  0  0  0  0  0  0
  2  4  1  0
  2  1  1  6
  3  2  1  0
  4  6  1  0
  4  5  1  1
  6  7  2  0
  9 11  1  0
  9  8  1  0
 10  9  2  0
 12 13  1  0
 12 11  1  0
 13 14  1  0
 15 14  1  6
 16 15  1  0
 16  6  1  0
 17 15  1  0
 17 18  2  0
 20 19  1  1
 20 22  1  0
 21 20  1  0
 22 23  1  1
 22 24  1  0
 23 17  1  0
 24 26  2  0
 24 25  1  0
M  END
$$$$
