TRT.pdb
     RDKit          3D

 26 25  0  0  1  0  0  0  0  0999 V2000
    4.2987  -19.8326   23.1951 C   0  0  0  0  0  0  0  0  0  0  0  0
    5.1376  -20.3186   22.0231 C   0  0  1  0  0  0  0  0  0  0  0  0
    4.3768  -21.1889   21.2814 O   0  0  0  0  0  0  0  0  0  0  0  0
    5.6841  -19.1494   21.2280 C   0  0  2  0  0  0  0  0  0  0  0  0
    6.3421  -19.6910   20.0512 N   0  0  0  0  0  0  0  0  0  0  0  0
    6.6472  -18.3428   22.0093 C   0  0  0  0  0  0  0  0  0  0  0  0
    7.7508  -18.8500   22.3430 O   0  0  0  0  0  0  0  0  0  0  0  0
    7.8681  -11.7100   19.9186 N   0  0  0  0  0  0  0  0  0  0  0  0
    8.3141  -12.9488   19.3321 C   0  0  0  0  0  0  0  0  0  0  0  0
    7.9901  -13.2539   18.1397 N   0  0  0  0  0  0  0  0  0  0  0  0
    9.1215  -13.8666   20.0528 N   0  0  0  0  0  0  0  0  0  0  0  0
    8.7753  -14.2300   21.3771 C   0  0  0  0  0  0  0  0  0  0  0  0
    7.3217  -14.2611   21.6868 C   0  0  0  0  0  0  0  0  0  0  0  0
    7.0295  -14.7580   23.0895 C   0  0  0  0  0  0  0  0  0  0  0  0
    7.2886  -16.2686   23.1801 C   0  0  2  0  0  0  0  0  0  0  0  0
    6.3519  -17.0052   22.3910 N   0  0  0  0  0  0  0  0  0  0  0  0
    7.2781  -16.6648   24.6213 C   0  0  0  0  0  0  0  0  0  0  0  0
    6.3226  -16.2477   25.3160 O   0  0  0  0  0  0  0  0  0  0  0  0
    8.2631  -14.0709   17.5905 C   0  0  0  0  0  0  0  0  0  0  0  0
    6.6206  -19.5107   26.6572 C   0  0  2  0  0  0  0  0  0  0  0  0
    8.0805  -19.1889   26.9308 O   0  0  0  0  0  0  0  0  0  0  0  0
    8.8647  -20.0226   26.1404 C   0  0  2  0  0  0  0  0  0  0  0  0
    8.3776  -17.7404   26.6102 N   0  0  0  0  0  0  0  0  0  0  0  0
    8.2820  -17.4684   25.1979 C   0  0  0  0  0  0  0  0  0  0  0  0
    9.7542  -17.4457   27.0759 O   0  0  0  0  0  0  0  0  0  0  0  0
   10.1676  -17.6031   28.3840 O   0  0  0  0  0  0  0  0  0  0  0  0
  2  4  1  0
  2  1  1  1
  3  2  1  0
  4  6  1  0
  4  5  1  6
  6  7  2  0
  9 11  1  0
  9  8  1  0
 10  9  2  0
 12 13  1  0
 12 11  1  0
 13 14  1  0
 15 14  1  1
 16 15  1  0
 16  6  1  0
 17 15  1  0
 17 18  2  0
 20 19  1  1
 20 22  1  0
 21 20  1  0
 22 23  1  1
 22 24  1  0
 23 17  1  0
 24 26  2  0
 24 25  1  0
M  END
$$$$
