TRT.pdb
     RDKit          3D

 26 25  0  0  1  0  0  0  0  0999 V2000
    9.2667  -14.2247   27.9819 C   0  0  0  0  0  0  0  0  0  0  0  0
    9.2238  -15.6850   28.4055 C   0  0  1  0  0  0  0  0  0  0  0  0
    9.2503  -15.7356   29.7777 O   0  0  0  0  0  0  0  0  0  0  0  0
    8.0339  -16.3923   27.7876 C   0  0  2  0  0  0  0  0  0  0  0  0
    7.9272  -17.6980   28.4159 N   0  0  0  0  0  0  0  0  0  0  0  0
    8.1776  -16.5549   26.3242 C   0  0  0  0  0  0  0  0  0  0  0  0
    8.7089  -17.6018   25.8678 O   0  0  0  0  0  0  0  0  0  0  0  0
    8.8920  -12.2587   19.5243 N   0  0  0  0  0  0  0  0  0  0  0  0
    8.1606  -13.3070   18.8582 C   0  0  0  0  0  0  0  0  0  0  0  0
    8.4805  -13.6726   17.6819 N   0  0  0  0  0  0  0  0  0  0  0  0
    7.0672  -13.9640   19.4799 N   0  0  0  0  0  0  0  0  0  0  0  0
    6.8531  -13.8245   20.8729 C   0  0  0  0  0  0  0  0  0  0  0  0
    7.6906  -14.6830   21.7513 C   0  0  0  0  0  0  0  0  0  0  0  0
    7.3079  -14.5775   23.2149 C   0  0  0  0  0  0  0  0  0  0  0  0
    8.0184  -15.6693   24.0274 C   0  0  2  0  0  0  0  0  0  0  0  0
    7.7272  -15.5524   25.4218 N   0  0  0  0  0  0  0  0  0  0  0  0
    9.4814  -15.6051   23.7283 C   0  0  0  0  0  0  0  0  0  0  0  0
   10.0857  -14.5652   24.0789 O   0  0  0  0  0  0  0  0  0  0  0  0
    8.0236  -14.3575   17.0770 C   0  0  0  0  0  0  0  0  0  0  0  0
   12.3466  -18.1082   24.7684 C   0  0  2  0  0  0  0  0  0  0  0  0
   12.2201  -17.9862   23.2588 O   0  0  0  0  0  0  0  0  0  0  0  0
   11.4230  -19.0313   22.8037 C   0  0  2  0  0  0  0  0  0  0  0  0
   11.6007  -16.6588   22.8800 N   0  0  0  0  0  0  0  0  0  0  0  0
   10.1739  -16.6499   23.0839 C   0  0  0  0  0  0  0  0  0  0  0  0
   11.8945  -16.4134   21.4474 O   0  0  0  0  0  0  0  0  0  0  0  0
   13.1621  -16.1631   20.9601 O   0  0  0  0  0  0  0  0  0  0  0  0
  2  4  1  0
  2  1  1  1
  3  2  1  0
  4  6  1  0
  4  5  1  1
  6  7  2  0
  9 11  1  0
  9  8  1  0
 10  9  2  0
 12 13  1  0
 12 11  1  0
 13 14  1  0
 15 14  1  6
 16 15  1  0
 16  6  1  0
 17 15  1  0
 17 18  2  0
 20 19  1  6
 20 22  1  0
 21 20  1  0
 22 23  1  6
 22 24  1  0
 23 17  1  0
 24 26  2  0
 24 25  1  0
M  END
$$$$
