TRT.pdb
     RDKit          3D

 26 25  0  0  1  0  0  0  0  0999 V2000
    8.6694  -14.6236   18.7977 C   0  0  0  0  0  0  0  0  0  0  0  0
    8.4588  -14.5849   20.3036 C   0  0  1  0  0  0  0  0  0  0  0  0
    8.2503  -13.2792   20.6751 O   0  0  0  0  0  0  0  0  0  0  0  0
    7.3458  -15.5267   20.7182 C   0  0  2  0  0  0  0  0  0  0  0  0
    6.1231  -15.0639   20.0843 N   0  0  0  0  0  0  0  0  0  0  0  0
    7.1618  -15.5640   22.1856 C   0  0  0  0  0  0  0  0  0  0  0  0
    6.3943  -14.7290   22.7338 O   0  0  0  0  0  0  0  0  0  0  0  0
    5.3249  -21.8476   25.4888 N   0  0  0  0  0  0  0  0  0  0  0  0
    5.9867  -21.9111   24.2099 C   0  0  0  0  0  0  0  0  0  0  0  0
    5.3785  -22.3656   23.1884 N   0  0  0  0  0  0  0  0  0  0  0  0
    7.3267  -21.4758   24.0416 N   0  0  0  0  0  0  0  0  0  0  0  0
    7.8068  -20.3571   24.7653 C   0  0  0  0  0  0  0  0  0  0  0  0
    7.4599  -19.0225   24.2099 C   0  0  0  0  0  0  0  0  0  0  0  0
    8.0405  -17.8793   25.0197 C   0  0  0  0  0  0  0  0  0  0  0  0
    7.6302  -16.5336   24.4048 C   0  0  2  0  0  0  0  0  0  0  0  0
    7.8343  -16.5244   22.9903 N   0  0  0  0  0  0  0  0  0  0  0  0
    8.3733  -15.4451   25.1099 C   0  0  0  0  0  0  0  0  0  0  0  0
    9.5240  -15.1818   24.6904 O   0  0  0  0  0  0  0  0  0  0  0  0
    5.7332  -22.5048   22.2405 C   0  0  0  0  0  0  0  0  0  0  0  0
    7.0268  -11.8085   25.9806 C   0  0  2  0  0  0  0  0  0  0  0  0
    7.5312  -12.5264   27.2215 O   0  0  0  0  0  0  0  0  0  0  0  0
    6.4346  -13.0590   27.8912 C   0  0  2  0  0  0  0  0  0  0  0  0
    8.4953  -13.6302   26.8455 N   0  0  0  0  0  0  0  0  0  0  0  0
    7.8297  -14.7322   26.1972 C   0  0  0  0  0  0  0  0  0  0  0  0
    9.1432  -14.1102   28.0900 O   0  0  0  0  0  0  0  0  0  0  0  0
    9.8612  -13.2932   28.9409 O   0  0  0  0  0  0  0  0  0  0  0  0
  2  4  1  0
  2  1  1  6
  3  2  1  0
  4  6  1  0
  4  5  1  6
  6  7  2  0
  9 11  1  0
  9  8  1  0
 10  9  2  0
 12 13  1  0
 12 11  1  0
 13 14  1  0
 15 14  1  1
 16 15  1  0
 16  6  1  0
 17 15  1  0
 17 18  2  0
 20 19  1  1
 20 22  1  0
 21 20  1  0
 22 23  1  1
 22 24  1  0
 23 17  1  0
 24 26  2  0
 24 25  1  0
M  END
$$$$
