TRT.pdb
     RDKit          3D

 26 25  0  0  1  0  0  0  0  0999 V2000
    8.7391  -12.1748   20.0070 C   0  0  0  0  0  0  0  0  0  0  0  0
    7.7148  -12.9933   19.2361 C   0  0  1  0  0  0  0  0  0  0  0  0
    7.7052  -12.5547   17.9347 O   0  0  0  0  0  0  0  0  0  0  0  0
    7.9879  -14.4772   19.3822 C   0  0  2  0  0  0  0  0  0  0  0  0
    6.9812  -15.1848   18.6097 N   0  0  0  0  0  0  0  0  0  0  0  0
    7.9343  -14.9199   20.7928 C   0  0  0  0  0  0  0  0  0  0  0  0
    6.8155  -15.0628   21.3537 O   0  0  0  0  0  0  0  0  0  0  0  0
   13.3167  -19.7790   25.9851 N   0  0  0  0  0  0  0  0  0  0  0  0
   12.0056  -19.7633   26.5837 C   0  0  0  0  0  0  0  0  0  0  0  0
   11.7157  -20.5658   27.5281 N   0  0  0  0  0  0  0  0  0  0  0  0
   10.9980  -18.8641   26.1481 N   0  0  0  0  0  0  0  0  0  0  0  0
   11.1132  -18.2226   24.8908 C   0  0  0  0  0  0  0  0  0  0  0  0
   10.0235  -17.2744   24.5393 C   0  0  0  0  0  0  0  0  0  0  0  0
   10.1722  -16.6982   23.1444 C   0  0  0  0  0  0  0  0  0  0  0  0
    9.0314  -15.7122   22.8551 C   0  0  2  0  0  0  0  0  0  0  0  0
    9.1213  -15.1878   21.5286 N   0  0  0  0  0  0  0  0  0  0  0  0
    9.0465  -14.6497   23.9062 C   0  0  0  0  0  0  0  0  0  0  0  0
    9.6601  -13.5921   23.6331 O   0  0  0  0  0  0  0  0  0  0  0  0
   10.8514  -20.6342   28.0684 C   0  0  0  0  0  0  0  0  0  0  0  0
    6.8444  -12.2600   24.8620 C   0  0  2  0  0  0  0  0  0  0  0  0
    7.0224  -13.0460   26.1505 O   0  0  0  0  0  0  0  0  0  0  0  0
    5.9809  -13.9627   26.2476 C   0  0  2  0  0  0  0  0  0  0  0  0
    8.3516  -13.7689   26.1562 N   0  0  0  0  0  0  0  0  0  0  0  0
    8.4092  -14.8030   25.1537 C   0  0  0  0  0  0  0  0  0  0  0  0
    8.5335  -14.3735   27.4978 O   0  0  0  0  0  0  0  0  0  0  0  0
    8.6220  -13.6360   28.6620 O   0  0  0  0  0  0  0  0  0  0  0  0
  2  4  1  0
  2  1  1  1
  3  2  1  0
  4  6  1  0
  4  5  1  6
  6  7  2  0
  9 11  1  0
  9  8  1  0
 10  9  2  0
 12 13  1  0
 12 11  1  0
 13 14  1  0
 15 14  1  1
 16 15  1  0
 16  6  1  0
 17 15  1  0
 17 18  2  0
 20 19  1  1
 20 22  1  0
 21 20  1  0
 22 23  1  1
 22 24  1  0
 23 17  1  0
 24 26  2  0
 24 25  1  0
M  END
$$$$
