TRT.pdb
     RDKit          3D

 26 25  0  0  1  0  0  0  0  0999 V2000
    8.3446  -11.6747   18.2289 C   0  0  0  0  0  0  0  0  0  0  0  0
    8.6378  -12.8201   19.1858 C   0  0  1  0  0  0  0  0  0  0  0  0
    7.8035  -12.6988   20.2700 O   0  0  0  0  0  0  0  0  0  0  0  0
    8.5340  -14.1563   18.4774 C   0  0  2  0  0  0  0  0  0  0  0  0
    7.1778  -14.2779   17.9707 N   0  0  0  0  0  0  0  0  0  0  0  0
    8.8322  -15.2916   19.3777 C   0  0  0  0  0  0  0  0  0  0  0  0
    7.9065  -15.7899   20.0716 O   0  0  0  0  0  0  0  0  0  0  0  0
   14.9748  -18.6504   19.7876 N   0  0  0  0  0  0  0  0  0  0  0  0
   14.2218  -19.8714   19.9281 C   0  0  0  0  0  0  0  0  0  0  0  0
   14.6155  -20.7870   20.7196 N   0  0  0  0  0  0  0  0  0  0  0  0
   13.0269  -20.0984   19.1973 N   0  0  0  0  0  0  0  0  0  0  0  0
   12.5843  -19.1477   18.2456 C   0  0  0  0  0  0  0  0  0  0  0  0
   11.4515  -18.2817   18.6660 C   0  0  0  0  0  0  0  0  0  0  0  0
   11.6534  -17.6756   20.0414 C   0  0  0  0  0  0  0  0  0  0  0  0
   10.4230  -16.8485   20.4407 C   0  0  2  0  0  0  0  0  0  0  0  0
   10.1438  -15.8324   19.4753 N   0  0  0  0  0  0  0  0  0  0  0  0
   10.6445  -16.3043   21.8151 C   0  0  0  0  0  0  0  0  0  0  0  0
   11.6745  -15.6131   21.9908 O   0  0  0  0  0  0  0  0  0  0  0  0
   14.2008  -21.7038   20.8959 C   0  0  0  0  0  0  0  0  0  0  0  0
    8.2977  -14.1630   24.1486 C   0  0  2  0  0  0  0  0  0  0  0  0
    8.6681  -15.4824   24.8057 O   0  0  0  0  0  0  0  0  0  0  0  0
    7.6246  -16.3786   24.5992 C   0  0  2  0  0  0  0  0  0  0  0  0
    9.9482  -16.0324   24.2156 N   0  0  0  0  0  0  0  0  0  0  0  0
    9.7538  -16.5413   22.8811 C   0  0  0  0  0  0  0  0  0  0  0  0
   10.4196  -17.1283   25.0962 O   0  0  0  0  0  0  0  0  0  0  0  0
   10.8436  -16.9343   26.3961 O   0  0  0  0  0  0  0  0  0  0  0  0
  2  4  1  0
  2  1  1  6
  3  2  1  0
  4  6  1  0
  4  5  1  1
  6  7  2  0
  9 11  1  0
  9  8  1  0
 10  9  2  0
 12 13  1  0
 12 11  1  0
 13 14  1  0
 15 14  1  6
 16 15  1  0
 16  6  1  0
 17 15  1  0
 17 18  2  0
 20 19  1  1
 20 22  1  0
 21 20  1  0
 22 23  1  1
 22 24  1  0
 23 17  1  0
 24 26  2  0
 24 25  1  0
M  END
$$$$
