TRT.pdb
     RDKit          3D

 26 25  0  0  1  0  0  0  0  0999 V2000
    2.8850  -19.1321   21.8385 C   0  0  0  0  0  0  0  0  0  0  0  0
    4.1763  -18.3906   22.1484 C   0  0  1  0  0  0  0  0  0  0  0  0
    4.7145  -18.9245   23.2936 O   0  0  0  0  0  0  0  0  0  0  0  0
    5.1145  -18.4181   20.9580 C   0  0  2  0  0  0  0  0  0  0  0  0
    5.4070  -19.8107   20.6646 N   0  0  0  0  0  0  0  0  0  0  0  0
    6.3750  -17.6901   21.2221 C   0  0  0  0  0  0  0  0  0  0  0  0
    7.3510  -18.3067   21.7261 O   0  0  0  0  0  0  0  0  0  0  0  0
    8.7328  -14.6993   15.3195 N   0  0  0  0  0  0  0  0  0  0  0  0
    8.0365  -13.8024   16.2075 C   0  0  0  0  0  0  0  0  0  0  0  0
    6.7707  -13.6853   16.1471 N   0  0  0  0  0  0  0  0  0  0  0  0
    8.7269  -13.0232   17.1717 N   0  0  0  0  0  0  0  0  0  0  0  0
    8.2813  -12.9973   18.5157 C   0  0  0  0  0  0  0  0  0  0  0  0
    8.4055  -14.2726   19.2694 C   0  0  0  0  0  0  0  0  0  0  0  0
    7.7483  -14.2154   20.6349 C   0  0  0  0  0  0  0  0  0  0  0  0
    7.7096  -15.6161   21.2625 C   0  0  2  0  0  0  0  0  0  0  0  0
    6.5072  -16.3074   20.9176 N   0  0  0  0  0  0  0  0  0  0  0  0
    7.9023  -15.4787   22.7383 C   0  0  0  0  0  0  0  0  0  0  0  0
    6.9167  -15.0841   23.4035 O   0  0  0  0  0  0  0  0  0  0  0  0
    6.1464  -13.1532   16.7561 C   0  0  0  0  0  0  0  0  0  0  0  0
    6.8923  -15.8849   25.2841 C   0  0  2  0  0  0  0  0  0  0  0  0
    8.2822  -16.4203   25.5861 O   0  0  0  0  0  0  0  0  0  0  0  0
    8.3125  -17.7681   25.2436 C   0  0  2  0  0  0  0  0  0  0  0  0
    9.3293  -15.6620   24.8002 N   0  0  0  0  0  0  0  0  0  0  0  0
    9.1233  -15.7724   23.3778 C   0  0  0  0  0  0  0  0  0  0  0  0
   10.6556  -16.2251   25.1504 O   0  0  0  0  0  0  0  0  0  0  0  0
   11.2393  -16.0869   26.3942 O   0  0  0  0  0  0  0  0  0  0  0  0
  2  4  1  0
  2  1  1  6
  3  2  1  0
  4  6  1  0
  4  5  1  1
  6  7  2  0
  9 11  1  0
  9  8  1  0
 10  9  2  0
 12 13  1  0
 12 11  1  0
 13 14  1  0
 15 14  1  6
 16 15  1  0
 16  6  1  0
 17 15  1  0
 17 18  2  0
 20 19  1  1
 20 22  1  0
 21 20  1  0
 22 23  1  1
 22 24  1  0
 23 17  1  0
 24 26  2  0
 24 25  1  0
M  END
$$$$
