TRT.pdb
     RDKit          3D

 26 25  0  0  1  0  0  0  0  0999 V2000
    5.5274  -22.5452   22.9283 C   0  0  0  0  0  0  0  0  0  0  0  0
    6.5555  -21.4390   22.7465 C   0  0  1  0  0  0  0  0  0  0  0  0
    7.8064  -22.0054   22.7771 O   0  0  0  0  0  0  0  0  0  0  0  0
    6.2735  -20.6402   21.4894 C   0  0  2  0  0  0  0  0  0  0  0  0
    6.3434  -21.5571   20.3645 N   0  0  0  0  0  0  0  0  0  0  0  0
    7.2439  -19.5405   21.2957 C   0  0  0  0  0  0  0  0  0  0  0  0
    8.3641  -19.7890   20.7760 O   0  0  0  0  0  0  0  0  0  0  0  0
    9.5008  -13.8928   18.3875 N   0  0  0  0  0  0  0  0  0  0  0  0
    8.4273  -12.9413   18.5279 C   0  0  0  0  0  0  0  0  0  0  0  0
    8.3639  -11.9207   17.7701 N   0  0  0  0  0  0  0  0  0  0  0  0
    7.4116  -13.1024   19.5057 N   0  0  0  0  0  0  0  0  0  0  0  0
    7.7567  -13.4007   20.8464 C   0  0  0  0  0  0  0  0  0  0  0  0
    8.3278  -14.7517   21.0884 C   0  0  0  0  0  0  0  0  0  0  0  0
    7.2635  -15.8120   21.2953 C   0  0  0  0  0  0  0  0  0  0  0  0
    7.9188  -17.1799   21.5334 C   0  0  2  0  0  0  0  0  0  0  0  0
    6.9370  -18.2075   21.6844 N   0  0  0  0  0  0  0  0  0  0  0  0
    8.8337  -17.0678   22.7100 C   0  0  0  0  0  0  0  0  0  0  0  0
    8.3287  -16.6645   23.7832 O   0  0  0  0  0  0  0  0  0  0  0  0
    7.6780  -11.1636   17.7707 C   0  0  0  0  0  0  0  0  0  0  0  0
   11.2029  -19.8314   24.2102 C   0  0  2  0  0  0  0  0  0  0  0  0
   11.9888  -18.5904   23.8202 O   0  0  0  0  0  0  0  0  0  0  0  0
   12.5484  -18.8071   22.5653 C   0  0  2  0  0  0  0  0  0  0  0  0
   11.0865  -17.3764   23.7828 N   0  0  0  0  0  0  0  0  0  0  0  0
   10.2032  -17.3938   22.6439 C   0  0  0  0  0  0  0  0  0  0  0  0
   11.9489  -16.1720   23.7183 O   0  0  0  0  0  0  0  0  0  0  0  0
   12.7580  -15.7558   24.7571 O   0  0  0  0  0  0  0  0  0  0  0  0
  2  4  1  0
  2  1  1  6
  3  2  1  0
  4  6  1  0
  4  5  1  6
  6  7  2  0
  9 11  1  0
  9  8  1  0
 10  9  2  0
 12 13  1  0
 12 11  1  0
 13 14  1  0
 15 14  1  1
 16 15  1  0
 16  6  1  0
 17 15  1  0
 17 18  2  0
 20 19  1  1
 20 22  1  0
 21 20  1  0
 22 23  1  1
 22 24  1  0
 23 17  1  0
 24 26  2  0
 24 25  1  0
M  END
$$$$
