TRT.pdb
     RDKit          3D

 26 25  0  0  1  0  0  0  0  0999 V2000
    6.6233  -19.6264   25.9014 C   0  0  0  0  0  0  0  0  0  0  0  0
    6.5662  -20.8407   24.9873 C   0  0  1  0  0  0  0  0  0  0  0  0
    5.7892  -21.7981   25.5922 O   0  0  0  0  0  0  0  0  0  0  0  0
    6.0933  -20.4517   23.6006 C   0  0  2  0  0  0  0  0  0  0  0  0
    6.0411  -21.6637   22.8010 N   0  0  0  0  0  0  0  0  0  0  0  0
    6.9935  -19.4698   22.9573 C   0  0  0  0  0  0  0  0  0  0  0  0
    8.1091  -19.8516   22.5142 O   0  0  0  0  0  0  0  0  0  0  0  0
    6.5776  -12.1758   18.1412 N   0  0  0  0  0  0  0  0  0  0  0  0
    7.5133  -13.2459   17.9027 C   0  0  0  0  0  0  0  0  0  0  0  0
    8.0248  -13.4133   16.7493 N   0  0  0  0  0  0  0  0  0  0  0  0
    7.8956  -14.1450   18.9318 N   0  0  0  0  0  0  0  0  0  0  0  0
    7.3706  -13.9943   20.2384 C   0  0  0  0  0  0  0  0  0  0  0  0
    7.9125  -14.9173   21.2702 C   0  0  0  0  0  0  0  0  0  0  0  0
    6.8802  -15.9073   21.7742 C   0  0  0  0  0  0  0  0  0  0  0  0
    7.5752  -17.1529   22.3423 C   0  0  2  0  0  0  0  0  0  0  0  0
    6.6243  -18.1026   22.8287 N   0  0  0  0  0  0  0  0  0  0  0  0
    8.5511  -16.7153   23.3864 C   0  0  0  0  0  0  0  0  0  0  0  0
    8.1047  -16.0033   24.3155 O   0  0  0  0  0  0  0  0  0  0  0  0
    8.6665  -14.1423   16.4324 C   0  0  0  0  0  0  0  0  0  0  0  0
   10.3251  -18.2903   26.1355 C   0  0  2  0  0  0  0  0  0  0  0  0
   11.3902  -17.8102   25.1637 O   0  0  0  0  0  0  0  0  0  0  0  0
   11.7307  -18.8723   24.3326 C   0  0  2  0  0  0  0  0  0  0  0  0
   10.8771  -16.6503   24.3387 N   0  0  0  0  0  0  0  0  0  0  0  0
    9.9141  -17.0721   23.3526 C   0  0  0  0  0  0  0  0  0  0  0  0
   12.0386  -16.0289   23.6577 O   0  0  0  0  0  0  0  0  0  0  0  0
   12.2005  -16.0126   22.2864 O   0  0  0  0  0  0  0  0  0  0  0  0
  2  4  1  0
  2  1  1  1
  3  2  1  0
  4  6  1  0
  4  5  1  6
  6  7  2  0
  9 11  1  0
  9  8  1  0
 10  9  2  0
 12 13  1  0
 12 11  1  0
 13 14  1  0
 15 14  1  1
 16 15  1  0
 16  6  1  0
 17 15  1  0
 17 18  2  0
 20 19  1  1
 20 22  1  0
 21 20  1  0
 22 23  1  1
 22 24  1  0
 23 17  1  0
 24 26  2  0
 24 25  1  0
M  END
$$$$
