TRT.pdb
     RDKit          3D

 26 25  0  0  1  0  0  0  0  0999 V2000
    8.8367  -12.2956   20.2860 C   0  0  0  0  0  0  0  0  0  0  0  0
    7.7932  -13.0601   19.4859 C   0  0  1  0  0  0  0  0  0  0  0  0
    7.8612  -12.6412   18.1796 O   0  0  0  0  0  0  0  0  0  0  0  0
    7.9666  -14.5557   19.6611 C   0  0  2  0  0  0  0  0  0  0  0  0
    6.9164  -15.2095   18.8992 N   0  0  0  0  0  0  0  0  0  0  0  0
    7.8812  -14.9665   21.0798 C   0  0  0  0  0  0  0  0  0  0  0  0
    6.7567  -15.0014   21.6465 O   0  0  0  0  0  0  0  0  0  0  0  0
   11.3063  -20.2557   22.7431 N   0  0  0  0  0  0  0  0  0  0  0  0
   11.3790  -20.4146   24.1738 C   0  0  0  0  0  0  0  0  0  0  0  0
   12.1890  -21.2484   24.6920 N   0  0  0  0  0  0  0  0  0  0  0  0
   10.5592  -19.6577   25.0504 N   0  0  0  0  0  0  0  0  0  0  0  0
   10.8688  -18.3023   25.3200 C   0  0  0  0  0  0  0  0  0  0  0  0
    9.8375  -17.3064   24.9268 C   0  0  0  0  0  0  0  0  0  0  0  0
    9.9766  -16.8528   23.4864 C   0  0  0  0  0  0  0  0  0  0  0  0
    8.9163  -15.7911   23.1614 C   0  0  2  0  0  0  0  0  0  0  0  0
    9.0437  -15.3235   21.8168 N   0  0  0  0  0  0  0  0  0  0  0  0
    9.0179  -14.6958   24.1734 C   0  0  0  0  0  0  0  0  0  0  0  0
   10.0546  -13.9930   24.1447 O   0  0  0  0  0  0  0  0  0  0  0  0
   12.3160  -21.4917   25.6761 C   0  0  0  0  0  0  0  0  0  0  0  0
    6.4451  -11.8366   25.0313 C   0  0  2  0  0  0  0  0  0  0  0  0
    6.7556  -12.6717   26.2625 O   0  0  0  0  0  0  0  0  0  0  0  0
    5.7314  -13.5980   26.4289 C   0  0  2  0  0  0  0  0  0  0  0  0
    8.0800  -13.3860   26.1036 N   0  0  0  0  0  0  0  0  0  0  0  0
    8.0106  -14.4428   25.1260 C   0  0  0  0  0  0  0  0  0  0  0  0
    8.4479  -13.9580   27.4213 O   0  0  0  0  0  0  0  0  0  0  0  0
    8.7047  -13.1920   28.5412 O   0  0  0  0  0  0  0  0  0  0  0  0
  2  4  1  0
  2  1  1  1
  3  2  1  0
  4  6  1  0
  4  5  1  6
  6  7  2  0
  9 11  1  0
  9  8  1  0
 10  9  2  0
 12 13  1  0
 12 11  1  0
 13 14  1  0
 15 14  1  1
 16 15  1  0
 16  6  1  0
 17 15  1  0
 17 18  2  0
 20 19  1  1
 20 22  1  0
 21 20  1  0
 22 23  1  1
 22 24  1  0
 23 17  1  0
 24 26  2  0
 24 25  1  0
M  END
$$$$
