TRT.pdb
     RDKit          3D

 26 25  0  0  1  0  0  0  0  0999 V2000
    6.4077  -20.2193   25.8740 C   0  0  0  0  0  0  0  0  0  0  0  0
    6.1783  -21.3757   24.9128 C   0  0  1  0  0  0  0  0  0  0  0  0
    5.4184  -22.3232   25.5539 O   0  0  0  0  0  0  0  0  0  0  0  0
    5.5777  -20.8850   23.6104 C   0  0  2  0  0  0  0  0  0  0  0  0
    5.3269  -22.0497   22.7789 N   0  0  0  0  0  0  0  0  0  0  0  0
    6.4752  -19.9493   22.8979 C   0  0  0  0  0  0  0  0  0  0  0  0
    7.5822  -20.3645   22.4635 O   0  0  0  0  0  0  0  0  0  0  0  0
    9.9352  -13.6020   20.0364 N   0  0  0  0  0  0  0  0  0  0  0  0
    8.7267  -12.9827   19.5529 C   0  0  0  0  0  0  0  0  0  0  0  0
    8.6782  -11.7266   19.3538 N   0  0  0  0  0  0  0  0  0  0  0  0
    7.5571  -13.7400   19.2843 N   0  0  0  0  0  0  0  0  0  0  0  0
    6.8068  -14.2914   20.3513 C   0  0  0  0  0  0  0  0  0  0  0  0
    7.4167  -15.4564   21.0446 C   0  0  0  0  0  0  0  0  0  0  0  0
    6.3835  -16.4029   21.6247 C   0  0  0  0  0  0  0  0  0  0  0  0
    7.0658  -17.6749   22.1477 C   0  0  2  0  0  0  0  0  0  0  0  0
    6.1127  -18.5896   22.6931 N   0  0  0  0  0  0  0  0  0  0  0  0
    8.1214  -17.2766   23.1281 C   0  0  0  0  0  0  0  0  0  0  0  0
    7.7448  -16.6330   24.1348 O   0  0  0  0  0  0  0  0  0  0  0  0
    7.9103  -11.1662   18.9796 C   0  0  0  0  0  0  0  0  0  0  0  0
   12.4624  -17.8645   25.2705 C   0  0  2  0  0  0  0  0  0  0  0  0
   11.3573  -18.3436   24.3436 O   0  0  0  0  0  0  0  0  0  0  0  0
   10.5575  -19.2380   25.0471 C   0  0  1  0  0  0  0  0  0  0  0  0
   10.5258  -17.1773   23.8560 N   0  0  0  0  0  0  0  0  0  0  0  0
    9.4828  -17.5964   22.9538 C   0  0  0  0  0  0  0  0  0  0  0  0
   11.4322  -16.2350   23.1564 O   0  0  0  0  0  0  0  0  0  0  0  0
   12.3761  -15.4616   23.8029 O   0  0  0  0  0  0  0  0  0  0  0  0
  2  4  1  0
  2  1  1  1
  3  2  1  0
  4  6  1  0
  4  5  1  6
  6  7  2  0
  9 11  1  0
  9  8  1  0
 10  9  2  0
 12 13  1  0
 12 11  1  0
 13 14  1  0
 15 14  1  1
 16 15  1  0
 16  6  1  0
 17 15  1  0
 17 18  2  0
 20 19  1  6
 20 22  1  0
 21 20  1  0
 22 23  1  6
 22 24  1  0
 23 17  1  0
 24 26  2  0
 24 25  1  0
M  END
$$$$
