WSD.pdb
     RDKit          3D

 29 30  0  0  1  0  0  0  0  0999 V2000
    6.2467  -17.9009   24.7164 N   0  0  0  0  0  0  0  0  0  0  0  0
    6.8846  -16.9556   23.8705 C   0  0  1  0  0  0  0  0  0  0  0  0
    7.7612  -16.0227   24.6728 C   0  0  0  0  0  0  0  0  0  0  0  0
    7.0471  -14.9975   25.4266 C   0  0  0  0  0  0  0  0  0  0  0  0
    5.9823  -15.2551   26.2669 C   0  0  0  0  0  0  0  0  0  0  0  0
    5.6000  -14.0880   26.8080 N   0  0  0  0  0  0  0  0  0  0  0  0
    6.4001  -13.1019   26.3264 C   0  0  0  0  0  0  0  0  0  0  0  0
    6.4340  -11.7483   26.5471 C   0  0  0  0  0  0  0  0  0  0  0  0
    7.3740  -10.9593   25.9023 C   0  0  0  0  0  0  0  0  0  0  0  0
    8.2937  -11.4953   25.0303 C   0  0  0  0  0  0  0  0  0  0  0  0
    8.2567  -12.8568   24.8108 C   0  0  0  0  0  0  0  0  0  0  0  0
    7.3239  -13.6509   25.4499 C   0  0  0  0  0  0  0  0  0  0  0  0
    7.8031  -17.6018   22.8770 C   0  0  0  0  0  0  0  0  0  0  0  0
    8.3581  -18.6644   23.2478 O   0  0  0  0  0  0  0  0  0  0  0  0
    9.0090  -15.6726   19.3125 O   0  0  0  0  0  0  0  0  0  0  0  0
    8.9237  -17.0476   19.2908 C   0  0  0  0  0  0  0  0  0  0  0  0
    9.0143  -17.6659   20.6693 C   0  0  2  0  0  0  0  0  0  0  0  0
    8.0625  -17.0875   21.5897 N   0  0  0  0  0  0  0  0  0  0  0  0
   10.3739  -17.5229   21.2412 C   0  0  0  0  0  0  0  0  0  0  0  0
   10.6949  -16.5496   21.9874 O   0  0  0  0  0  0  0  0  0  0  0  0
   11.4133  -18.4651   20.9943 N   0  0  0  0  0  0  0  0  0  0  0  0
   12.7910  -18.2172   21.5039 C   0  0  1  0  0  0  0  0  0  0  0  0
   13.1577  -16.8785   20.9096 C   0  0  0  0  0  0  0  0  0  0  0  0
   14.4491  -16.8044   20.2519 C   0  0  0  0  0  0  0  0  0  0  0  0
   15.2876  -17.7150   20.2876 O   0  0  0  0  0  0  0  0  0  0  0  0
   12.7465  -18.1869   22.9854 C   0  0  0  0  0  0  0  0  0  0  0  0
   11.6163  -17.9729   23.5542 O   0  0  0  0  0  0  0  0  0  0  0  0
   14.7622  -15.6487   19.5434 O   0  0  0  0  0  0  0  0  0  0  0  0
   13.8818  -18.3832   23.7416 O   0  0  0  0  0  0  0  0  0  0  0  0
  2  1  1  1
  2  3  1  0
  2 13  1  0
  3  4  1  0
  4 12  1  0
  5  6  1  0
  5  4  2  0
  6  7  1  0
  7 12  2  0
  7  8  1  0
  8  9  2  0
  9 10  1  0
 11 10  2  0
 12 11  1  0
 13 18  1  0
 14 13  2  0
 16 15  1  0
 17 16  1  6
 18 17  1  0
 19 17  1  0
 19 21  1  0
 20 19  2  0
 22 21  1  0
 22 26  1  0
 22 23  1  6
 23 24  1  0
 24 25  2  0
 26 29  1  0
 27 26  2  0
 28 24  1  0
M  END
$$$$
