WSD.pdb
     RDKit          3D

 29 30  0  0  1  0  0  0  0  0999 V2000
    6.6504  -18.0437   24.6640 N   0  0  0  0  0  0  0  0  0  0  0  0
    7.4460  -17.0124   24.0990 C   0  0  1  0  0  0  0  0  0  0  0  0
    8.0660  -16.1590   25.1804 C   0  0  0  0  0  0  0  0  0  0  0  0
    7.1957  -15.1230   25.7266 C   0  0  0  0  0  0  0  0  0  0  0  0
    6.0994  -15.3756   26.5270 C   0  0  0  0  0  0  0  0  0  0  0  0
    5.5606  -14.1933   26.8631 N   0  0  0  0  0  0  0  0  0  0  0  0
    6.2931  -13.2026   26.2916 C   0  0  0  0  0  0  0  0  0  0  0  0
    6.1736  -11.8361   26.3102 C   0  0  0  0  0  0  0  0  0  0  0  0
    7.0775  -11.0469   25.6159 C   0  0  0  0  0  0  0  0  0  0  0  0
    8.1120  -11.5956   24.8932 C   0  0  0  0  0  0  0  0  0  0  0  0
    8.2291  -12.9701   24.8769 C   0  0  0  0  0  0  0  0  0  0  0  0
    7.3333  -13.7643   25.5667 C   0  0  0  0  0  0  0  0  0  0  0  0
    8.6022  -17.5469   23.3080 C   0  0  0  0  0  0  0  0  0  0  0  0
    9.1079  -18.6175   23.7238 O   0  0  0  0  0  0  0  0  0  0  0  0
   10.5942  -15.2951   20.2763 O   0  0  0  0  0  0  0  0  0  0  0  0
   10.5191  -16.6652   20.1508 C   0  0  0  0  0  0  0  0  0  0  0  0
   10.3222  -17.3689   21.4763 C   0  0  2  0  0  0  0  0  0  0  0  0
    9.1289  -16.9229   22.1581 N   0  0  0  0  0  0  0  0  0  0  0  0
   11.4837  -17.1709   22.3749 C   0  0  0  0  0  0  0  0  0  0  0  0
   11.4881  -16.2953   23.2917 O   0  0  0  0  0  0  0  0  0  0  0  0
   12.6736  -17.9473   22.2733 N   0  0  0  0  0  0  0  0  0  0  0  0
   13.8396  -17.6569   23.1538 C   0  0  1  0  0  0  0  0  0  0  0  0
   14.1991  -19.0056   23.7296 C   0  0  0  0  0  0  0  0  0  0  0  0
   14.5165  -20.0456   22.7687 C   0  0  0  0  0  0  0  0  0  0  0  0
   14.6275  -19.8417   21.5522 O   0  0  0  0  0  0  0  0  0  0  0  0
   14.9268  -17.0871   22.3225 C   0  0  0  0  0  0  0  0  0  0  0  0
   14.7473  -17.0169   21.0539 O   0  0  0  0  0  0  0  0  0  0  0  0
   14.7063  -21.3413   23.2388 O   0  0  0  0  0  0  0  0  0  0  0  0
   16.1025  -16.6407   22.8863 O   0  0  0  0  0  0  0  0  0  0  0  0
  2  1  1  1
  2  3  1  0
  2 13  1  0
  3  4  1  0
  4 12  1  0
  5  6  1  0
  5  4  2  0
  6  7  1  0
  7 12  2  0
  7  8  1  0
  8  9  2  0
  9 10  1  0
 11 10  2  0
 12 11  1  0
 13 18  1  0
 14 13  2  0
 16 15  1  0
 17 16  1  6
 18 17  1  0
 19 17  1  0
 19 21  1  0
 20 19  2  0
 22 21  1  0
 22 26  1  0
 22 23  1  6
 23 24  1  0
 24 25  2  0
 26 29  1  0
 27 26  2  0
 28 24  1  0
M  END
$$$$
