WSD.pdb
     RDKit          3D

 29 30  0  0  1  0  0  0  0  0999 V2000
    6.7337  -17.7647   24.3720 N   0  0  0  0  0  0  0  0  0  0  0  0
    7.5658  -16.7271   23.8753 C   0  0  1  0  0  0  0  0  0  0  0  0
    8.2365  -15.9875   25.0090 C   0  0  0  0  0  0  0  0  0  0  0  0
    7.3704  -15.0799   25.7542 C   0  0  0  0  0  0  0  0  0  0  0  0
    6.3284  -15.4920   26.5610 C   0  0  0  0  0  0  0  0  0  0  0  0
    5.7773  -14.3957   27.1046 N   0  0  0  0  0  0  0  0  0  0  0  0
    6.4488  -13.3032   26.6574 C   0  0  0  0  0  0  0  0  0  0  0  0
    6.2931  -11.9610   26.8947 C   0  0  0  0  0  0  0  0  0  0  0  0
    7.1342  -11.0423   26.2861 C   0  0  0  0  0  0  0  0  0  0  0  0
    8.1408  -11.4357   25.4343 C   0  0  0  0  0  0  0  0  0  0  0  0
    8.2945  -12.7861   25.1980 C   0  0  0  0  0  0  0  0  0  0  0  0
    7.4613  -13.7087   25.8010 C   0  0  0  0  0  0  0  0  0  0  0  0
    8.6872  -17.2468   23.0264 C   0  0  0  0  0  0  0  0  0  0  0  0
    9.1423  -18.3729   23.3416 O   0  0  0  0  0  0  0  0  0  0  0  0
   10.4768  -14.8977   20.0258 O   0  0  0  0  0  0  0  0  0  0  0  0
   10.5282  -16.2647   19.8611 C   0  0  0  0  0  0  0  0  0  0  0  0
   10.3655  -17.0219   21.1615 C   0  0  2  0  0  0  0  0  0  0  0  0
    9.2346  -16.5517   21.9281 N   0  0  0  0  0  0  0  0  0  0  0  0
   11.5816  -16.9254   22.0028 C   0  0  0  0  0  0  0  0  0  0  0  0
   11.7865  -15.9500   22.7862 O   0  0  0  0  0  0  0  0  0  0  0  0
   12.6032  -17.9180   21.9915 N   0  0  0  0  0  0  0  0  0  0  0  0
   13.7993  -17.7774   22.8684 C   0  0  1  0  0  0  0  0  0  0  0  0
   14.3570  -19.1786   22.9415 C   0  0  0  0  0  0  0  0  0  0  0  0
   15.5426  -19.3517   23.7601 C   0  0  0  0  0  0  0  0  0  0  0  0
   16.1507  -18.4119   24.2898 O   0  0  0  0  0  0  0  0  0  0  0  0
   14.7403  -16.8250   22.2319 C   0  0  0  0  0  0  0  0  0  0  0  0
   14.7181  -16.7129   20.9538 O   0  0  0  0  0  0  0  0  0  0  0  0
   16.0221  -20.6423   23.9606 O   0  0  0  0  0  0  0  0  0  0  0  0
   15.6188  -16.0742   22.9828 O   0  0  0  0  0  0  0  0  0  0  0  0
  2  1  1  1
  2  3  1  0
  2 13  1  0
  3  4  1  0
  4 12  1  0
  5  6  1  0
  5  4  2  0
  6  7  1  0
  7 12  2  0
  7  8  1  0
  8  9  2  0
  9 10  1  0
 11 10  2  0
 12 11  1  0
 13 18  1  0
 14 13  2  0
 16 15  1  0
 17 16  1  6
 18 17  1  0
 19 17  1  0
 19 21  1  0
 20 19  2  0
 22 21  1  0
 22 26  1  0
 22 23  1  6
 23 24  1  0
 24 25  2  0
 26 29  1  0
 27 26  2  0
 28 24  1  0
M  END
$$$$
