WSD.pdb
     RDKit          3D

 29 30  0  0  1  0  0  0  0  0999 V2000
    7.9416  -16.9196   24.5286 N   0  0  0  0  0  0  0  0  0  0  0  0
    9.1562  -16.4236   23.9858 C   0  0  1  0  0  0  0  0  0  0  0  0
    9.3171  -14.9518   24.2861 C   0  0  0  0  0  0  0  0  0  0  0  0
    8.2443  -14.0974   23.7879 C   0  0  0  0  0  0  0  0  0  0  0  0
    7.2497  -13.5612   24.5814 C   0  0  0  0  0  0  0  0  0  0  0  0
    6.4624  -12.8112   23.7949 N   0  0  0  0  0  0  0  0  0  0  0  0
    6.9391  -12.8640   22.5242 C   0  0  0  0  0  0  0  0  0  0  0  0
    6.5120  -12.2933   21.3521 C   0  0  0  0  0  0  0  0  0  0  0  0
    7.1990  -12.5272   20.1709 C   0  0  0  0  0  0  0  0  0  0  0  0
    8.3173  -13.3280   20.1301 C   0  0  0  0  0  0  0  0  0  0  0  0
    8.7440  -13.9001   21.3107 C   0  0  0  0  0  0  0  0  0  0  0  0
    8.0659  -13.6717   22.4927 C   0  0  0  0  0  0  0  0  0  0  0  0
   10.3636  -17.0817   24.5836 C   0  0  0  0  0  0  0  0  0  0  0  0
   10.1977  -17.6299   25.7001 O   0  0  0  0  0  0  0  0  0  0  0  0
   11.4989  -18.5732   21.2272 O   0  0  0  0  0  0  0  0  0  0  0  0
   11.4060  -19.0714   22.5084 C   0  0  0  0  0  0  0  0  0  0  0  0
   12.2699  -18.3193   23.4977 C   0  0  2  0  0  0  0  0  0  0  0  0
   11.6328  -17.1114   23.9696 N   0  0  0  0  0  0  0  0  0  0  0  0
   13.5842  -17.9645   22.9122 C   0  0  0  0  0  0  0  0  0  0  0  0
   14.3646  -18.8361   22.4240 O   0  0  0  0  0  0  0  0  0  0  0  0
   14.0626  -16.6240   22.8562 N   0  0  0  0  0  0  0  0  0  0  0  0
   15.4856  -16.3461   22.5137 C   0  0  1  0  0  0  0  0  0  0  0  0
   15.4148  -15.0901   21.6788 C   0  0  0  0  0  0  0  0  0  0  0  0
   14.9993  -15.2633   20.2993 C   0  0  0  0  0  0  0  0  0  0  0  0
   14.8347  -16.3702   19.7688 O   0  0  0  0  0  0  0  0  0  0  0  0
   16.2428  -16.1482   23.7728 C   0  0  0  0  0  0  0  0  0  0  0  0
   15.5874  -16.1107   24.8754 O   0  0  0  0  0  0  0  0  0  0  0  0
   14.7740  -14.1253   19.5312 O   0  0  0  0  0  0  0  0  0  0  0  0
   17.6138  -16.0083   23.7712 O   0  0  0  0  0  0  0  0  0  0  0  0
  2  1  1  1
  2  3  1  0
  2 13  1  0
  3  4  1  0
  4 12  1  0
  5  6  1  0
  5  4  2  0
  6  7  1  0
  7 12  2  0
  7  8  1  0
  8  9  2  0
  9 10  1  0
 11 10  2  0
 12 11  1  0
 13 18  1  0
 14 13  2  0
 16 15  1  0
 17 16  1  6
 18 17  1  0
 19 17  1  0
 19 21  1  0
 20 19  2  0
 22 21  1  0
 22 26  1  0
 22 23  1  6
 23 24  1  0
 24 25  2  0
 26 29  1  0
 27 26  2  0
 28 24  1  0
M  END
$$$$
