WSD.pdb
     RDKit          3D

 29 30  0  0  1  0  0  0  0  0999 V2000
    6.8732  -17.8649   25.0046 N   0  0  0  0  0  0  0  0  0  0  0  0
    7.6048  -16.9551   24.1966 C   0  0  1  0  0  0  0  0  0  0  0  0
    8.2378  -15.8751   25.0422 C   0  0  0  0  0  0  0  0  0  0  0  0
    7.3068  -14.8991   25.5986 C   0  0  0  0  0  0  0  0  0  0  0  0
    6.1572  -15.2311   26.2876 C   0  0  0  0  0  0  0  0  0  0  0  0
    5.5698  -14.0876   26.6730 N   0  0  0  0  0  0  0  0  0  0  0  0
    6.3238  -13.0437   26.2413 C   0  0  0  0  0  0  0  0  0  0  0  0
    6.1752  -11.6850   26.3588 C   0  0  0  0  0  0  0  0  0  0  0  0
    7.1135  -10.8295   25.8026 C   0  0  0  0  0  0  0  0  0  0  0  0
    8.2119  -11.3032   25.1223 C   0  0  0  0  0  0  0  0  0  0  0  0
    8.3582  -12.6701   25.0063 C   0  0  0  0  0  0  0  0  0  0  0  0
    7.4283  -13.5301   25.5583 C   0  0  0  0  0  0  0  0  0  0  0  0
    8.7455  -17.6130   23.4795 C   0  0  0  0  0  0  0  0  0  0  0  0
    9.3940  -18.4630   24.1364 O   0  0  0  0  0  0  0  0  0  0  0  0
   10.1758  -16.3027   19.6940 O   0  0  0  0  0  0  0  0  0  0  0  0
   10.2464  -17.6457   19.9935 C   0  0  0  0  0  0  0  0  0  0  0  0
   10.2497  -17.9186   21.4823 C   0  0  2  0  0  0  0  0  0  0  0  0
    9.1100  -17.3296   22.1469 N   0  0  0  0  0  0  0  0  0  0  0  0
   11.4861  -17.4142   22.1248 C   0  0  0  0  0  0  0  0  0  0  0  0
   11.5542  -16.2621   22.6493 O   0  0  0  0  0  0  0  0  0  0  0  0
   12.6818  -18.1848   22.1988 N   0  0  0  0  0  0  0  0  0  0  0  0
   13.8788  -17.6512   22.9070 C   0  0  1  0  0  0  0  0  0  0  0  0
   14.5299  -18.8830   23.4890 C   0  0  0  0  0  0  0  0  0  0  0  0
   14.1945  -19.1917   24.8666 C   0  0  0  0  0  0  0  0  0  0  0  0
   13.6264  -18.3960   25.6267 O   0  0  0  0  0  0  0  0  0  0  0  0
   14.7445  -16.9659   21.9178 C   0  0  0  0  0  0  0  0  0  0  0  0
   14.5310  -17.1832   20.6712 O   0  0  0  0  0  0  0  0  0  0  0  0
   14.5290  -20.4488   25.3603 O   0  0  0  0  0  0  0  0  0  0  0  0
   15.7536  -16.1154   22.3147 O   0  0  0  0  0  0  0  0  0  0  0  0
  2  1  1  1
  2  3  1  0
  2 13  1  0
  3  4  1  0
  4 12  1  0
  5  6  1  0
  5  4  2  0
  6  7  1  0
  7 12  2  0
  7  8  1  0
  8  9  2  0
  9 10  1  0
 11 10  2  0
 12 11  1  0
 13 18  1  0
 14 13  2  0
 16 15  1  0
 17 16  1  6
 18 17  1  0
 19 17  1  0
 19 21  1  0
 20 19  2  0
 22 21  1  0
 22 26  1  0
 22 23  1  6
 23 24  1  0
 24 25  2  0
 26 29  1  0
 27 26  2  0
 28 24  1  0
M  END
$$$$
