WSD.pdb
     RDKit          3D

 29 30  0  0  1  0  0  0  0  0999 V2000
    6.5096  -17.7006   24.7604 N   0  0  0  0  0  0  0  0  0  0  0  0
    7.1884  -16.6912   24.0281 C   0  0  1  0  0  0  0  0  0  0  0  0
    7.9974  -15.8103   24.9511 C   0  0  0  0  0  0  0  0  0  0  0  0
    7.2230  -14.8386   25.7158 C   0  0  0  0  0  0  0  0  0  0  0  0
    6.2869  -15.1756   26.6733 C   0  0  0  0  0  0  0  0  0  0  0  0
    5.8002  -14.0345   27.1851 N   0  0  0  0  0  0  0  0  0  0  0  0
    6.4086  -12.9871   26.5706 C   0  0  0  0  0  0  0  0  0  0  0  0
    6.2767  -11.6289   26.7116 C   0  0  0  0  0  0  0  0  0  0  0  0
    7.0348  -10.7693   25.9317 C   0  0  0  0  0  0  0  0  0  0  0  0
    7.9338  -11.2384   25.0015 C   0  0  0  0  0  0  0  0  0  0  0  0
    8.0639  -12.6048   24.8626 C   0  0  0  0  0  0  0  0  0  0  0  0
    7.3129  -13.4688   25.6363 C   0  0  0  0  0  0  0  0  0  0  0  0
    8.1789  -17.2558   23.0543 C   0  0  0  0  0  0  0  0  0  0  0  0
    8.7436  -18.3227   23.3971 O   0  0  0  0  0  0  0  0  0  0  0  0
    9.5736  -15.0147   19.7185 O   0  0  0  0  0  0  0  0  0  0  0  0
    9.5966  -16.3900   19.6374 C   0  0  0  0  0  0  0  0  0  0  0  0
    9.6152  -17.0605   20.9942 C   0  0  2  0  0  0  0  0  0  0  0  0
    8.4938  -16.6630   21.8140 N   0  0  0  0  0  0  0  0  0  0  0  0
   10.8678  -16.7660   21.7292 C   0  0  0  0  0  0  0  0  0  0  0  0
   10.9423  -15.8445   22.5967 O   0  0  0  0  0  0  0  0  0  0  0  0
   12.0729  -17.4944   21.5146 N   0  0  0  0  0  0  0  0  0  0  0  0
   13.3041  -17.1558   22.2817 C   0  0  1  0  0  0  0  0  0  0  0  0
   13.7471  -18.4816   22.8525 C   0  0  0  0  0  0  0  0  0  0  0  0
   14.1995  -18.4637   24.2311 C   0  0  0  0  0  0  0  0  0  0  0  0
   14.3221  -17.4267   24.8969 O   0  0  0  0  0  0  0  0  0  0  0  0
   14.2991  -16.5809   21.3450 C   0  0  0  0  0  0  0  0  0  0  0  0
   15.4052  -16.1446   21.8276 O   0  0  0  0  0  0  0  0  0  0  0  0
   14.5126  -19.6761   24.8375 O   0  0  0  0  0  0  0  0  0  0  0  0
   14.0539  -16.5127   19.9906 O   0  0  0  0  0  0  0  0  0  0  0  0
  2  1  1  1
  2  3  1  0
  2 13  1  0
  3  4  1  0
  4 12  1  0
  5  6  1  0
  5  4  2  0
  6  7  1  0
  7 12  2  0
  7  8  1  0
  8  9  2  0
  9 10  1  0
 11 10  2  0
 12 11  1  0
 13 18  1  0
 14 13  2  0
 16 15  1  0
 17 16  1  6
 18 17  1  0
 19 17  1  0
 19 21  1  0
 20 19  2  0
 22 21  1  0
 22 26  1  0
 22 23  1  6
 23 24  1  0
 24 25  2  0
 26 29  1  0
 27 26  2  0
 28 24  1  0
M  END
$$$$
