WSD.pdb
     RDKit          3D

 29 30  0  0  1  0  0  0  0  0999 V2000
    6.5481  -17.7486   24.5128 N   0  0  0  0  0  0  0  0  0  0  0  0
    7.1960  -16.6936   23.8178 C   0  0  1  0  0  0  0  0  0  0  0  0
    8.0261  -15.8577   24.7636 C   0  0  0  0  0  0  0  0  0  0  0  0
    7.2669  -14.9466   25.6135 C   0  0  0  0  0  0  0  0  0  0  0  0
    6.5015  -15.3487   26.6900 C   0  0  0  0  0  0  0  0  0  0  0  0
    5.9766  -14.2475   27.2494 N   0  0  0  0  0  0  0  0  0  0  0  0
    6.3941  -13.1617   26.5485 C   0  0  0  0  0  0  0  0  0  0  0  0
    6.1496  -11.8193   26.6909 C   0  0  0  0  0  0  0  0  0  0  0  0
    6.7116  -10.9099   25.8084 C   0  0  0  0  0  0  0  0  0  0  0  0
    7.5229  -11.3129   24.7725 C   0  0  0  0  0  0  0  0  0  0  0  0
    7.7667  -12.6635   24.6324 C   0  0  0  0  0  0  0  0  0  0  0  0
    7.2114  -13.5768   25.5080 C   0  0  0  0  0  0  0  0  0  0  0  0
    8.1604  -17.1937   22.7844 C   0  0  0  0  0  0  0  0  0  0  0  0
    8.7671  -18.2561   23.0635 O   0  0  0  0  0  0  0  0  0  0  0  0
    9.2023  -14.9755   19.3080 O   0  0  0  0  0  0  0  0  0  0  0  0
    9.1674  -16.3506   19.2293 C   0  0  0  0  0  0  0  0  0  0  0  0
    9.3533  -17.0231   20.5724 C   0  0  2  0  0  0  0  0  0  0  0  0
    8.4081  -16.5468   21.5559 N   0  0  0  0  0  0  0  0  0  0  0  0
   10.7248  -16.8215   21.0962 C   0  0  0  0  0  0  0  0  0  0  0  0
   11.0038  -15.9049   21.9264 O   0  0  0  0  0  0  0  0  0  0  0  0
   11.8233  -17.6401   20.7062 N   0  0  0  0  0  0  0  0  0  0  0  0
   13.1854  -17.3822   21.2514 C   0  0  1  0  0  0  0  0  0  0  0  0
   13.4130  -18.5301   22.2055 C   0  0  0  0  0  0  0  0  0  0  0  0
   13.6909  -18.1692   23.5833 C   0  0  0  0  0  0  0  0  0  0  0  0
   13.8523  -17.0023   23.9651 O   0  0  0  0  0  0  0  0  0  0  0  0
   14.1504  -17.3803   20.1260 C   0  0  0  0  0  0  0  0  0  0  0  0
   13.8070  -17.9554   19.0314 O   0  0  0  0  0  0  0  0  0  0  0  0
   13.7811  -19.1886   24.5259 O   0  0  0  0  0  0  0  0  0  0  0  0
   15.3852  -16.7793   20.2405 O   0  0  0  0  0  0  0  0  0  0  0  0
  2  1  1  1
  2  3  1  0
  2 13  1  0
  3  4  1  0
  4 12  1  0
  5  6  1  0
  5  4  2  0
  6  7  1  0
  7 12  2  0
  7  8  1  0
  8  9  2  0
  9 10  1  0
 11 10  2  0
 12 11  1  0
 13 18  1  0
 14 13  2  0
 16 15  1  0
 17 16  1  6
 18 17  1  0
 19 17  1  0
 19 21  1  0
 20 19  2  0
 22 21  1  0
 22 26  1  0
 22 23  1  1
 23 24  1  0
 24 25  2  0
 26 29  1  0
 27 26  2  0
 28 24  1  0
M  END
$$$$
