WSD.pdb
     RDKit          3D

 29 30  0  0  1  0  0  0  0  0999 V2000
    6.6767  -17.4940   25.2961 N   0  0  0  0  0  0  0  0  0  0  0  0
    6.9920  -16.4032   24.4436 C   0  0  1  0  0  0  0  0  0  0  0  0
    8.0141  -15.4963   25.0879 C   0  0  0  0  0  0  0  0  0  0  0  0
    7.5110  -14.6789   26.1869 C   0  0  0  0  0  0  0  0  0  0  0  0
    7.4238  -15.1101   27.4956 C   0  0  0  0  0  0  0  0  0  0  0  0
    6.9482  -14.0913   28.2284 N   0  0  0  0  0  0  0  0  0  0  0  0
    6.7337  -13.0290   27.4098 C   0  0  0  0  0  0  0  0  0  0  0  0
    6.2572  -11.7638   27.6427 C   0  0  0  0  0  0  0  0  0  0  0  0
    6.1304  -10.8623   26.5972 C   0  0  0  0  0  0  0  0  0  0  0  0
    6.4720  -11.1971   25.3069 C   0  0  0  0  0  0  0  0  0  0  0  0
    6.9510  -12.4702   25.0765 C   0  0  0  0  0  0  0  0  0  0  0  0
    7.0815  -13.3748   26.1127 C   0  0  0  0  0  0  0  0  0  0  0  0
    7.6150  -16.8443   23.1531 C   0  0  0  0  0  0  0  0  0  0  0  0
    8.3114  -17.8869   23.2039 O   0  0  0  0  0  0  0  0  0  0  0  0
    7.8546  -14.2415   19.8482 O   0  0  0  0  0  0  0  0  0  0  0  0
    7.8274  -15.5904   19.5686 C   0  0  0  0  0  0  0  0  0  0  0  0
    8.2429  -16.4453   20.7465 C   0  0  2  0  0  0  0  0  0  0  0  0
    7.4593  -16.1642   21.9274 N   0  0  0  0  0  0  0  0  0  0  0  0
    9.6764  -16.2606   21.0736 C   0  0  0  0  0  0  0  0  0  0  0  0
   10.1095  -15.2185   21.6512 O   0  0  0  0  0  0  0  0  0  0  0  0
   10.6662  -17.2369   20.7639 N   0  0  0  0  0  0  0  0  0  0  0  0
   12.1103  -16.9383   20.9750 C   0  0  1  0  0  0  0  0  0  0  0  0
   12.4369  -17.6437   22.2694 C   0  0  0  0  0  0  0  0  0  0  0  0
   13.8122  -17.5439   22.7212 C   0  0  0  0  0  0  0  0  0  0  0  0
   14.6993  -16.9571   22.0868 O   0  0  0  0  0  0  0  0  0  0  0  0
   12.8756  -17.4786   19.8260 C   0  0  0  0  0  0  0  0  0  0  0  0
   14.1534  -17.3620   19.8394 O   0  0  0  0  0  0  0  0  0  0  0  0
   14.1529  -18.1394   23.9316 O   0  0  0  0  0  0  0  0  0  0  0  0
   12.2423  -18.0927   18.7671 O   0  0  0  0  0  0  0  0  0  0  0  0
  2  1  1  1
  2  3  1  0
  2 13  1  0
  3  4  1  0
  4 12  1  0
  5  6  1  0
  5  4  2  0
  6  7  1  0
  7 12  2  0
  7  8  1  0
  8  9  2  0
  9 10  1  0
 11 10  2  0
 12 11  1  0
 13 18  1  0
 14 13  2  0
 16 15  1  0
 17 16  1  6
 18 17  1  0
 19 17  1  0
 19 21  1  0
 20 19  2  0
 22 21  1  0
 22 26  1  0
 22 23  1  1
 23 24  1  0
 24 25  2  0
 26 29  1  0
 27 26  2  0
 28 24  1  0
M  END
$$$$
