WSD.pdb
     RDKit          3D

 29 30  0  0  1  0  0  0  0  0999 V2000
    6.2074  -17.7019   24.4195 N   0  0  0  0  0  0  0  0  0  0  0  0
    6.8714  -16.6679   23.7082 C   0  0  1  0  0  0  0  0  0  0  0  0
    7.8180  -15.9156   24.6138 C   0  0  0  0  0  0  0  0  0  0  0  0
    7.1799  -14.9957   25.5495 C   0  0  0  0  0  0  0  0  0  0  0  0
    6.3942  -15.3941   26.6127 C   0  0  0  0  0  0  0  0  0  0  0  0
    6.0046  -14.2889   27.2667 N   0  0  0  0  0  0  0  0  0  0  0  0
    6.5270  -13.2040   26.6384 C   0  0  0  0  0  0  0  0  0  0  0  0
    6.4352  -11.8581   26.8874 C   0  0  0  0  0  0  0  0  0  0  0  0
    7.0784  -10.9498   26.0609 C   0  0  0  0  0  0  0  0  0  0  0  0
    7.8212  -11.3574   24.9766 C   0  0  0  0  0  0  0  0  0  0  0  0
    7.9115  -12.7116   24.7293 C   0  0  0  0  0  0  0  0  0  0  0  0
    7.2744  -13.6239   25.5484 C   0  0  0  0  0  0  0  0  0  0  0  0
    7.7265  -17.1943   22.5948 C   0  0  0  0  0  0  0  0  0  0  0  0
    8.3317  -18.2693   22.8241 O   0  0  0  0  0  0  0  0  0  0  0  0
    8.5500  -14.8682   19.1393 O   0  0  0  0  0  0  0  0  0  0  0  0
    8.6715  -16.2374   19.0443 C   0  0  0  0  0  0  0  0  0  0  0  0
    8.8987  -16.9037   20.3842 C   0  0  2  0  0  0  0  0  0  0  0  0
    7.8764  -16.5581   21.3450 N   0  0  0  0  0  0  0  0  0  0  0  0
   10.2212  -16.5487   20.9507 C   0  0  0  0  0  0  0  0  0  0  0  0
   10.3668  -15.6137   21.7943 O   0  0  0  0  0  0  0  0  0  0  0  0
   11.4187  -17.2302   20.5893 N   0  0  0  0  0  0  0  0  0  0  0  0
   12.7059  -16.8988   21.2621 C   0  0  1  0  0  0  0  0  0  0  0  0
   12.4809  -17.3203   22.6944 C   0  0  0  0  0  0  0  0  0  0  0  0
   13.4110  -18.2994   23.2251 C   0  0  0  0  0  0  0  0  0  0  0  0
   14.3387  -18.7884   22.5662 O   0  0  0  0  0  0  0  0  0  0  0  0
   13.7907  -17.6689   20.6080 C   0  0  0  0  0  0  0  0  0  0  0  0
   13.4658  -18.6624   19.8637 O   0  0  0  0  0  0  0  0  0  0  0  0
   13.2523  -18.7114   24.5445 O   0  0  0  0  0  0  0  0  0  0  0  0
   15.1159  -17.3350   20.7864 O   0  0  0  0  0  0  0  0  0  0  0  0
  2  1  1  1
  2  3  1  0
  2 13  1  0
  3  4  1  0
  4 12  1  0
  5  6  1  0
  5  4  2  0
  6  7  1  0
  7 12  2  0
  7  8  1  0
  8  9  2  0
  9 10  1  0
 11 10  2  0
 12 11  1  0
 13 18  1  0
 14 13  2  0
 16 15  1  0
 17 16  1  6
 18 17  1  0
 19 17  1  0
 19 21  1  0
 20 19  2  0
 22 21  1  0
 22 26  1  0
 22 23  1  1
 23 24  1  0
 24 25  2  0
 26 29  1  0
 27 26  2  0
 28 24  1  0
M  END
$$$$
