WSD.pdb
     RDKit          3D

 29 30  0  0  1  0  0  0  0  0999 V2000
    6.7105  -17.2329   24.3235 N   0  0  0  0  0  0  0  0  0  0  0  0
    7.5931  -16.6122   23.4006 C   0  0  1  0  0  0  0  0  0  0  0  0
    8.0576  -15.2719   23.9203 C   0  0  0  0  0  0  0  0  0  0  0  0
    7.1605  -14.6347   24.8785 C   0  0  0  0  0  0  0  0  0  0  0  0
    6.1427  -15.2914   25.5412 C   0  0  0  0  0  0  0  0  0  0  0  0
    5.5508  -14.4053   26.3571 N   0  0  0  0  0  0  0  0  0  0  0  0
    6.1732  -13.2057   26.2220 C   0  0  0  0  0  0  0  0  0  0  0  0
    5.9639  -11.9842   26.8104 C   0  0  0  0  0  0  0  0  0  0  0  0
    6.7616  -10.9015   26.4738 C   0  0  0  0  0  0  0  0  0  0  0  0
    7.7771  -11.0093   25.5514 C   0  0  0  0  0  0  0  0  0  0  0  0
    7.9847  -12.2391   24.9619 C   0  0  0  0  0  0  0  0  0  0  0  0
    7.1950  -13.3238   25.2920 C   0  0  0  0  0  0  0  0  0  0  0  0
    8.8464  -17.4056   23.1819 C   0  0  0  0  0  0  0  0  0  0  0  0
    9.5850  -17.5589   24.1847 O   0  0  0  0  0  0  0  0  0  0  0  0
   11.0526  -15.4202   20.0241 O   0  0  0  0  0  0  0  0  0  0  0  0
   10.0542  -15.9575   20.8070 C   0  0  0  0  0  0  0  0  0  0  0  0
   10.2592  -17.4289   21.0966 C   0  0  2  0  0  0  0  0  0  0  0  0
    9.2199  -17.9676   21.9436 N   0  0  0  0  0  0  0  0  0  0  0  0
   11.5712  -17.6791   21.7385 C   0  0  0  0  0  0  0  0  0  0  0  0
   12.4982  -18.3183   21.1561 O   0  0  0  0  0  0  0  0  0  0  0  0
   11.8834  -17.2208   23.0506 N   0  0  0  0  0  0  0  0  0  0  0  0
   13.1905  -17.5646   23.6770 C   0  0  1  0  0  0  0  0  0  0  0  0
   14.0276  -16.3263   23.4627 C   0  0  0  0  0  0  0  0  0  0  0  0
   14.9385  -16.3594   22.3336 C   0  0  0  0  0  0  0  0  0  0  0  0
   15.0205  -17.3141   21.5491 O   0  0  0  0  0  0  0  0  0  0  0  0
   12.9628  -17.8536   25.1131 C   0  0  0  0  0  0  0  0  0  0  0  0
   11.8333  -17.5254   25.6263 O   0  0  0  0  0  0  0  0  0  0  0  0
   15.7643  -15.2600   22.1210 O   0  0  0  0  0  0  0  0  0  0  0  0
   13.9303  -18.4590   25.8855 O   0  0  0  0  0  0  0  0  0  0  0  0
  2  1  1  1
  2  3  1  0
  2 13  1  0
  3  4  1  0
  4 12  1  0
  5  6  1  0
  5  4  2  0
  6  7  1  0
  7 12  2  0
  7  8  1  0
  8  9  2  0
  9 10  1  0
 11 10  2  0
 12 11  1  0
 13 18  1  0
 14 13  2  0
 16 15  1  0
 17 16  1  1
 18 17  1  0
 19 17  1  0
 19 21  1  0
 20 19  2  0
 22 21  1  0
 22 26  1  0
 22 23  1  1
 23 24  1  0
 24 25  2  0
 26 29  1  0
 27 26  2  0
 28 24  1  0
M  END
$$$$
