QSK.pdb
     RDKit          3D

 25 24  0  0  1  0  0  0  0  0999 V2000
   22.0116  -17.8064  -19.9392 N   0  0  0  0  0  0  0  0  0  0  0  0
   21.3670  -19.0281  -19.6819 C   0  0  0  0  0  0  0  0  0  0  0  0
   21.5989  -20.0370  -20.3458 O   0  0  0  0  0  0  0  0  0  0  0  0
   20.3697  -19.0880  -18.5619 C   0  0  0  0  0  0  0  0  0  0  0  0
   20.3403  -17.7698  -17.8443 C   0  0  0  0  0  0  0  0  0  0  0  0
   21.4518  -17.6611  -16.8178 C   0  0  2  0  0  0  0  0  0  0  0  0
   21.0685  -18.5497  -15.6901 N   0  0  0  0  0  0  0  0  0  0  0  0
   21.5631  -16.2763  -16.3192 C   0  0  0  0  0  0  0  0  0  0  0  0
   20.6362  -15.8397  -15.5682 O   0  0  0  0  0  0  0  0  0  0  0  0
   24.8710  -14.1384  -15.0880 O   0  0  0  0  0  0  0  0  0  0  0  0
   24.1305  -13.5373  -16.0758 C   0  0  0  0  0  0  0  0  0  0  0  0
   22.6852  -14.0627  -16.0690 C   0  0  2  0  0  0  0  0  0  0  0  0
   22.6433  -15.3999  -16.6227 N   0  0  0  0  0  0  0  0  0  0  0  0
   21.7811  -13.1214  -16.7467 C   0  0  0  0  0  0  0  0  0  0  0  0
   21.6503  -13.1877  -17.9900 O   0  0  0  0  0  0  0  0  0  0  0  0
   21.0514  -12.1383  -16.0299 N   0  0  0  0  0  0  0  0  0  0  0  0
   20.1686  -11.1855  -16.7100 C   0  0  1  0  0  0  0  0  0  0  0  0
   19.1885  -10.6888  -15.6244 C   0  0  0  0  0  0  0  0  0  0  0  0
   18.2801   -9.6486  -16.1674 C   0  0  0  0  0  0  0  0  0  0  0  0
   16.8896   -9.7827  -15.6357 C   0  0  0  0  0  0  0  0  0  0  0  0
   15.9067   -8.7622  -16.0634 C   0  0  0  0  0  0  0  0  0  0  0  0
   14.5423   -8.9804  -15.6646 N   0  0  0  0  0  0  0  0  0  0  0  0
   20.9449  -10.0084  -17.1436 C   0  0  0  0  0  0  0  0  0  0  0  0
   20.5316   -9.2652  -18.2266 O   0  0  0  0  0  0  0  0  0  0  0  0
   21.9786   -9.6906  -16.5224 O   0  0  0  0  0  0  0  0  0  0  0  0
  1  2  1  0
  2  4  1  0
  2  3  2  0
  4  5  1  0
  6  5  1  0
  6  8  1  0
  6  7  1  1
  8  9  2  0
 11 10  1  0
 12 11  1  6
 13  8  1  0
 13 12  1  0
 14 15  2  0
 14 12  1  0
 16 14  1  0
 17 16  1  0
 17 18  1  1
 19 18  1  0
 20 19  1  0
 21 22  1  0
 21 20  1  0
 23 17  1  0
 23 24  1  0
 25 23  2  0
M  END
$$$$
