QSK.pdb
     RDKit          3D

 25 24  0  0  1  0  0  0  0  0999 V2000
   18.6280  -10.0575  -19.4211 N   0  0  0  0  0  0  0  0  0  0  0  0
   19.8959  -10.6571  -19.5068 C   0  0  0  0  0  0  0  0  0  0  0  0
   20.2028  -11.3959  -20.4408 O   0  0  0  0  0  0  0  0  0  0  0  0
   20.8931  -10.3785  -18.4203 C   0  0  0  0  0  0  0  0  0  0  0  0
   20.3094   -9.4023  -17.4407 C   0  0  0  0  0  0  0  0  0  0  0  0
   21.2393   -9.1551  -16.2682 C   0  0  2  0  0  0  0  0  0  0  0  0
   21.2421  -10.4055  -15.4653 N   0  0  0  0  0  0  0  0  0  0  0  0
   20.7344   -8.0497  -15.4304 C   0  0  0  0  0  0  0  0  0  0  0  0
   19.5430   -8.1301  -14.9969 O   0  0  0  0  0  0  0  0  0  0  0  0
   22.9133   -4.5333  -14.3756 O   0  0  0  0  0  0  0  0  0  0  0  0
   22.0150   -5.0990  -13.5048 C   0  0  0  0  0  0  0  0  0  0  0  0
   20.9120   -5.8485  -14.2708 C   0  0  2  0  0  0  0  0  0  0  0  0
   21.4970   -6.9015  -15.0742 N   0  0  0  0  0  0  0  0  0  0  0  0
   20.0837   -4.9135  -15.0470 C   0  0  0  0  0  0  0  0  0  0  0  0
   20.4283   -4.6154  -16.2130 O   0  0  0  0  0  0  0  0  0  0  0  0
   18.9028   -4.3387  -14.5107 N   0  0  0  0  0  0  0  0  0  0  0  0
   18.0906   -3.3894  -15.2780 C   0  0  1  0  0  0  0  0  0  0  0  0
   16.6239   -3.7553  -14.9605 C   0  0  0  0  0  0  0  0  0  0  0  0
   15.6866   -2.8949  -15.7240 C   0  0  0  0  0  0  0  0  0  0  0  0
   14.2576   -3.2286  -15.4391 C   0  0  0  0  0  0  0  0  0  0  0  0
   13.2312   -2.5095  -16.2265 C   0  0  0  0  0  0  0  0  0  0  0  0
   11.8597   -2.8248  -15.9302 N   0  0  0  0  0  0  0  0  0  0  0  0
   18.3020   -2.0230  -14.7639 C   0  0  0  0  0  0  0  0  0  0  0  0
   18.3125   -0.9506  -15.6276 O   0  0  0  0  0  0  0  0  0  0  0  0
   18.4712   -1.8452  -13.5412 O   0  0  0  0  0  0  0  0  0  0  0  0
  1  2  1  0
  2  4  1  0
  2  3  2  0
  4  5  1  0
  6  5  1  0
  6  8  1  0
  6  7  1  1
  8  9  2  0
 11 10  1  0
 12 11  1  6
 13  8  1  0
 13 12  1  0
 14 15  2  0
 14 12  1  0
 16 14  1  0
 17 16  1  0
 17 18  1  1
 19 18  1  0
 20 19  1  0
 21 22  1  0
 21 20  1  0
 23 17  1  0
 23 24  1  0
 25 23  2  0
M  END
$$$$
