QSK.pdb
     RDKit          3D

 25 24  0  0  1  0  0  0  0  0999 V2000
   19.2586  -15.5355  -14.5275 N   0  0  0  0  0  0  0  0  0  0  0  0
   20.0514  -16.1251  -15.5265 C   0  0  0  0  0  0  0  0  0  0  0  0
   20.4955  -17.2662  -15.4135 O   0  0  0  0  0  0  0  0  0  0  0  0
   20.3562  -15.3273  -16.7606 C   0  0  0  0  0  0  0  0  0  0  0  0
   19.7309  -13.9674  -16.6471 C   0  0  0  0  0  0  0  0  0  0  0  0
   18.2282  -14.0187  -16.8470 C   0  0  2  0  0  0  0  0  0  0  0  0
   17.9988  -14.7761  -18.1047 N   0  0  0  0  0  0  0  0  0  0  0  0
   17.6791  -12.6573  -17.0015 C   0  0  0  0  0  0  0  0  0  0  0  0
   17.9619  -12.0204  -18.0636 O   0  0  0  0  0  0  0  0  0  0  0  0
   15.5239  -10.5709  -14.0503 O   0  0  0  0  0  0  0  0  0  0  0  0
   15.0846  -10.4700  -15.3472 C   0  0  0  0  0  0  0  0  0  0  0  0
   16.2338  -10.7372  -16.3337 C   0  0  2  0  0  0  0  0  0  0  0  0
   16.8508  -12.0135  -16.0390 N   0  0  0  0  0  0  0  0  0  0  0  0
   17.1865   -9.6170  -16.3460 C   0  0  0  0  0  0  0  0  0  0  0  0
   18.2499   -9.7122  -15.6923 O   0  0  0  0  0  0  0  0  0  0  0  0
   16.9341   -8.4290  -17.0793 N   0  0  0  0  0  0  0  0  0  0  0  0
   17.8608   -7.2933  -17.0494 C   0  0  1  0  0  0  0  0  0  0  0  0
   17.2808   -6.2652  -18.0456 C   0  0  0  0  0  0  0  0  0  0  0  0
   18.1475   -5.0638  -18.1309 C   0  0  0  0  0  0  0  0  0  0  0  0
   17.6360   -4.0706  -19.1240 C   0  0  0  0  0  0  0  0  0  0  0  0
   18.3837   -2.7992  -19.2470 C   0  0  0  0  0  0  0  0  0  0  0  0
   17.9656   -1.9094  -20.2966 N   0  0  0  0  0  0  0  0  0  0  0  0
   17.8244   -6.6549  -15.7200 C   0  0  0  0  0  0  0  0  0  0  0  0
   18.9645   -6.0958  -15.1873 O   0  0  0  0  0  0  0  0  0  0  0  0
   16.7537   -6.6249  -15.0813 O   0  0  0  0  0  0  0  0  0  0  0  0
  1  2  1  0
  2  4  1  0
  2  3  2  0
  4  5  1  0
  6  5  1  0
  6  8  1  0
  6  7  1  6
  8  9  2  0
 11 10  1  0
 12 11  1  1
 13  8  1  0
 13 12  1  0
 14 15  2  0
 14 12  1  0
 16 14  1  0
 17 16  1  0
 17 18  1  6
 19 18  1  0
 20 19  1  0
 21 22  1  0
 21 20  1  0
 23 17  1  0
 23 24  1  0
 25 23  2  0
M  END
$$$$
