QSK.pdb
     RDKit          3D

 25 24  0  0  1  0  0  0  0  0999 V2000
   20.4555  -20.8963  -12.7537 N   0  0  0  0  0  0  0  0  0  0  0  0
   20.5952  -21.8449  -13.7808 C   0  0  0  0  0  0  0  0  0  0  0  0
   20.3686  -23.0395  -13.5964 O   0  0  0  0  0  0  0  0  0  0  0  0
   21.0341  -21.3719  -15.1358 C   0  0  0  0  0  0  0  0  0  0  0  0
   21.0180  -19.8713  -15.1737 C   0  0  0  0  0  0  0  0  0  0  0  0
   22.4147  -19.2952  -15.3078 C   0  0  2  0  0  0  0  0  0  0  0  0
   23.2690  -20.0406  -14.3473 N   0  0  0  0  0  0  0  0  0  0  0  0
   22.4223  -17.8646  -14.9445 C   0  0  0  0  0  0  0  0  0  0  0  0
   22.0872  -17.5514  -13.7598 O   0  0  0  0  0  0  0  0  0  0  0  0
   24.7230  -14.9936  -16.7182 O   0  0  0  0  0  0  0  0  0  0  0  0
   24.2011  -14.8572  -15.4556 C   0  0  0  0  0  0  0  0  0  0  0  0
   22.7778  -15.4361  -15.3892 C   0  0  2  0  0  0  0  0  0  0  0  0
   22.7840  -16.8138  -15.8345 N   0  0  0  0  0  0  0  0  0  0  0  0
   21.8309  -14.5877  -16.1283 C   0  0  0  0  0  0  0  0  0  0  0  0
   21.5974  -14.8384  -17.3324 O   0  0  0  0  0  0  0  0  0  0  0  0
   21.1731  -13.4910  -15.5140 N   0  0  0  0  0  0  0  0  0  0  0  0
   20.2377  -12.6398  -16.2556 C   0  0  1  0  0  0  0  0  0  0  0  0
   19.0437  -12.4157  -15.3017 C   0  0  0  0  0  0  0  0  0  0  0  0
   17.9898  -11.6009  -15.9553 C   0  0  0  0  0  0  0  0  0  0  0  0
   16.8033  -11.3997  -15.0686 C   0  0  0  0  0  0  0  0  0  0  0  0
   15.6231  -10.7372  -15.6676 C   0  0  0  0  0  0  0  0  0  0  0  0
   14.4210  -10.7344  -14.8781 N   0  0  0  0  0  0  0  0  0  0  0  0
   20.8443  -11.3149  -16.4857 C   0  0  0  0  0  0  0  0  0  0  0  0
   20.4537  -10.5505  -17.5625 O   0  0  0  0  0  0  0  0  0  0  0  0
   21.7137  -10.8914  -15.6983 O   0  0  0  0  0  0  0  0  0  0  0  0
  1  2  1  0
  2  4  1  0
  2  3  2  0
  4  5  1  0
  6  5  1  0
  6  8  1  0
  6  7  1  1
  8  9  2  0
 11 10  1  0
 12 11  1  6
 13  8  1  0
 13 12  1  0
 14 15  2  0
 14 12  1  0
 16 14  1  0
 17 16  1  0
 17 18  1  1
 19 18  1  0
 20 19  1  0
 21 22  1  0
 21 20  1  0
 23 17  1  0
 23 24  1  0
 25 23  2  0
M  END
$$$$
