QSK.pdb
     RDKit          3D

 25 24  0  0  1  0  0  0  0  0999 V2000
   13.9381   -6.6013   -8.3876 N   0  0  0  0  0  0  0  0  0  0  0  0
   15.3401   -6.6820   -8.4334 C   0  0  0  0  0  0  0  0  0  0  0  0
   16.0567   -5.7883   -7.9863 O   0  0  0  0  0  0  0  0  0  0  0  0
   15.9661   -7.8995   -9.0484 C   0  0  0  0  0  0  0  0  0  0  0  0
   14.9008   -8.7478   -9.6800 C   0  0  0  0  0  0  0  0  0  0  0  0
   14.3056   -8.0849  -10.9076 C   0  0  2  0  0  0  0  0  0  0  0  0
   13.3495   -9.0625  -11.4892 N   0  0  0  0  0  0  0  0  0  0  0  0
   15.3577   -7.7953  -11.9017 C   0  0  0  0  0  0  0  0  0  0  0  0
   15.8850   -8.7775  -12.5108 O   0  0  0  0  0  0  0  0  0  0  0  0
   17.4387   -4.6758  -14.9436 O   0  0  0  0  0  0  0  0  0  0  0  0
   16.6684   -4.8401  -13.8189 C   0  0  0  0  0  0  0  0  0  0  0  0
   16.7680   -6.2832  -13.2967 C   0  0  2  0  0  0  0  0  0  0  0  0
   15.8171   -6.4869  -12.2240 N   0  0  0  0  0  0  0  0  0  0  0  0
   18.1514   -6.6113  -12.9207 C   0  0  0  0  0  0  0  0  0  0  0  0
   18.5551   -6.3289  -11.7699 O   0  0  0  0  0  0  0  0  0  0  0  0
   19.0432   -7.2402  -13.8273 N   0  0  0  0  0  0  0  0  0  0  0  0
   20.4362   -7.5224  -13.4672 C   0  0  1  0  0  0  0  0  0  0  0  0
   20.9529   -8.4885  -14.5560 C   0  0  0  0  0  0  0  0  0  0  0  0
   22.3810   -8.8234  -14.3320 C   0  0  0  0  0  0  0  0  0  0  0  0
   22.9525   -9.6292  -15.4538 C   0  0  0  0  0  0  0  0  0  0  0  0
   24.3734  -10.0270  -15.3378 C   0  0  0  0  0  0  0  0  0  0  0  0
   24.9176  -10.7849  -16.4322 N   0  0  0  0  0  0  0  0  0  0  0  0
   21.2406   -6.2913  -13.5838 C   0  0  0  0  0  0  0  0  0  0  0  0
   22.3470   -6.1071  -12.7850 O   0  0  0  0  0  0  0  0  0  0  0  0
   20.9118   -5.4179  -14.4111 O   0  0  0  0  0  0  0  0  0  0  0  0
  1  2  1  0
  2  4  1  0
  2  3  2  0
  4  5  1  0
  6  5  1  0
  6  8  1  0
  6  7  1  6
  8  9  2  0
 11 10  1  0
 12 11  1  1
 13  8  1  0
 13 12  1  0
 14 15  2  0
 14 12  1  0
 16 14  1  0
 17 16  1  0
 17 18  1  6
 19 18  1  0
 20 19  1  0
 21 22  1  0
 21 20  1  0
 23 17  1  0
 23 24  1  0
 25 23  2  0
M  END
$$$$
