QSK.pdb
     RDKit          3D

 25 24  0  0  1  0  0  0  0  0999 V2000
   15.3733  -12.7505  -15.5426 N   0  0  0  0  0  0  0  0  0  0  0  0
   15.5253  -12.8943  -16.9320 C   0  0  0  0  0  0  0  0  0  0  0  0
   14.8568  -13.6990  -17.5784 O   0  0  0  0  0  0  0  0  0  0  0  0
   16.5362  -12.0346  -17.6331 C   0  0  0  0  0  0  0  0  0  0  0  0
   17.1510  -11.0797  -16.6515 C   0  0  0  0  0  0  0  0  0  0  0  0
   18.6396  -11.3200  -16.4871 C   0  0  2  0  0  0  0  0  0  0  0  0
   18.7768  -12.5521  -15.6678 N   0  0  0  0  0  0  0  0  0  0  0  0
   19.2699  -10.1950  -15.7686 C   0  0  0  0  0  0  0  0  0  0  0  0
   18.7748   -9.8536  -14.6497 O   0  0  0  0  0  0  0  0  0  0  0  0
   23.2002   -9.3450  -15.9370 O   0  0  0  0  0  0  0  0  0  0  0  0
   22.3789   -8.9874  -14.8964 C   0  0  0  0  0  0  0  0  0  0  0  0
   21.0315   -8.4637  -15.4213 C   0  0  2  0  0  0  0  0  0  0  0  0
   20.3983   -9.4706  -16.2469 N   0  0  0  0  0  0  0  0  0  0  0  0
   21.1998   -7.1712  -16.1024 C   0  0  0  0  0  0  0  0  0  0  0  0
   21.5396   -7.1553  -17.3072 O   0  0  0  0  0  0  0  0  0  0  0  0
   20.9876   -5.9395  -15.4313 N   0  0  0  0  0  0  0  0  0  0  0  0
   21.2125   -4.6516  -16.0950 C   0  0  1  0  0  0  0  0  0  0  0  0
   19.8086   -4.0330  -16.2747 C   0  0  0  0  0  0  0  0  0  0  0  0
   19.8963   -2.6999  -16.9204 C   0  0  0  0  0  0  0  0  0  0  0  0
   18.5494   -2.0869  -17.1308 C   0  0  0  0  0  0  0  0  0  0  0  0
   18.5110   -0.7614  -17.7883 C   0  0  0  0  0  0  0  0  0  0  0  0
   17.2286   -0.1132  -17.8481 N   0  0  0  0  0  0  0  0  0  0  0  0
   21.9554   -3.7497  -15.1945 C   0  0  0  0  0  0  0  0  0  0  0  0
   22.7149   -2.7241  -15.7117 O   0  0  0  0  0  0  0  0  0  0  0  0
   21.8910   -3.9222  -13.9611 O   0  0  0  0  0  0  0  0  0  0  0  0
  1  2  1  0
  2  4  1  0
  2  3  2  0
  4  5  1  0
  6  5  1  0
  6  8  1  0
  6  7  1  1
  8  9  2  0
 11 10  1  0
 12 11  1  6
 13  8  1  0
 13 12  1  0
 14 15  2  0
 14 12  1  0
 16 14  1  0
 17 16  1  0
 17 18  1  1
 19 18  1  0
 20 19  1  0
 21 22  1  0
 21 20  1  0
 23 17  1  0
 23 24  1  0
 25 23  2  0
M  END
$$$$
