QSK.pdb
     RDKit          3D

 25 24  0  0  1  0  0  0  0  0999 V2000
   26.2806  -24.2163  -15.3929 N   0  0  0  0  0  0  0  0  0  0  0  0
   26.4872  -22.8267  -15.4113 C   0  0  0  0  0  0  0  0  0  0  0  0
   27.5579  -22.3251  -15.0733 O   0  0  0  0  0  0  0  0  0  0  0  0
   25.3601  -21.9424  -15.8585 C   0  0  0  0  0  0  0  0  0  0  0  0
   24.5587  -21.5078  -14.6658 C   0  0  0  0  0  0  0  0  0  0  0  0
   23.1404  -22.0434  -14.7134 C   0  0  2  0  0  0  0  0  0  0  0  0
   22.4694  -21.3516  -15.8445 N   0  0  0  0  0  0  0  0  0  0  0  0
   22.4233  -21.7232  -13.4636 C   0  0  0  0  0  0  0  0  0  0  0  0
   22.8763  -22.2057  -12.3793 O   0  0  0  0  0  0  0  0  0  0  0  0
   18.8221  -19.5279  -13.2900 O   0  0  0  0  0  0  0  0  0  0  0  0
   19.6526  -19.5047  -12.1968 C   0  0  0  0  0  0  0  0  0  0  0  0
   20.5291  -20.7677  -12.1520 C   0  0  2  0  0  0  0  0  0  0  0  0
   21.2593  -20.9062  -13.3945 N   0  0  0  0  0  0  0  0  0  0  0  0
   19.7265  -21.9520  -11.8112 C   0  0  0  0  0  0  0  0  0  0  0  0
   19.3593  -22.7247  -12.7250 O   0  0  0  0  0  0  0  0  0  0  0  0
   19.3560  -22.2440  -10.4732 N   0  0  0  0  0  0  0  0  0  0  0  0
   18.4753  -23.3695  -10.1457 C   0  0  1  0  0  0  0  0  0  0  0  0
   18.7374  -23.6739   -8.6542 C   0  0  0  0  0  0  0  0  0  0  0  0
   17.9427  -24.8438   -8.2052 C   0  0  0  0  0  0  0  0  0  0  0  0
   18.1488  -25.1406   -6.7547 C   0  0  0  0  0  0  0  0  0  0  0  0
   17.3736  -26.2646   -6.1835 C   0  0  0  0  0  0  0  0  0  0  0  0
   17.6910  -26.6398   -4.8319 N   0  0  0  0  0  0  0  0  0  0  0  0
   17.0659  -22.9451  -10.2450 C   0  0  0  0  0  0  0  0  0  0  0  0
   16.0745  -23.8760  -10.4612 O   0  0  0  0  0  0  0  0  0  0  0  0
   16.7780  -21.7369  -10.1319 O   0  0  0  0  0  0  0  0  0  0  0  0
  1  2  1  0
  2  4  1  0
  2  3  2  0
  4  5  1  0
  6  5  1  0
  6  8  1  0
  6  7  1  6
  8  9  2  0
 11 10  1  0
 12 11  1  6
 13  8  1  0
 13 12  1  0
 14 15  2  0
 14 12  1  0
 16 14  1  0
 17 16  1  0
 17 18  1  1
 19 18  1  0
 20 19  1  0
 21 22  1  0
 21 20  1  0
 23 17  1  0
 23 24  1  0
 25 23  2  0
M  END
$$$$
