QSK.pdb
     RDKit          3D

 25 24  0  0  1  0  0  0  0  0999 V2000
   27.3339  -16.8281  -14.5351 N   0  0  0  0  0  0  0  0  0  0  0  0
   28.0361  -16.8712  -15.7514 C   0  0  0  0  0  0  0  0  0  0  0  0
   28.8589  -16.0099  -16.0568 O   0  0  0  0  0  0  0  0  0  0  0  0
   27.7635  -18.0067  -16.6942 C   0  0  0  0  0  0  0  0  0  0  0  0
   26.8011  -18.9675  -16.0586 C   0  0  0  0  0  0  0  0  0  0  0  0
   27.4390  -19.7305  -14.9133 C   0  0  2  0  0  0  0  0  0  0  0  0
   28.4576  -20.6250  -15.5221 N   0  0  0  0  0  0  0  0  0  0  0  0
   26.4330  -20.5557  -14.2163 C   0  0  0  0  0  0  0  0  0  0  0  0
   25.6746  -21.2896  -14.9232 O   0  0  0  0  0  0  0  0  0  0  0  0
   25.4975  -19.9920  -10.2322 O   0  0  0  0  0  0  0  0  0  0  0  0
   25.2625  -21.2692  -10.6782 C   0  0  0  0  0  0  0  0  0  0  0  0
   25.1479  -21.2981  -12.2116 C   0  0  2  0  0  0  0  0  0  0  0  0
   26.2601  -20.5846  -12.8034 N   0  0  0  0  0  0  0  0  0  0  0  0
   23.8353  -20.8001  -12.6495 C   0  0  0  0  0  0  0  0  0  0  0  0
   23.6442  -19.5652  -12.7240 O   0  0  0  0  0  0  0  0  0  0  0  0
   22.7773  -21.6815  -12.9906 N   0  0  0  0  0  0  0  0  0  0  0  0
   21.4523  -21.1836  -13.3728 C   0  0  1  0  0  0  0  0  0  0  0  0
   20.9908  -22.0951  -14.5313 C   0  0  0  0  0  0  0  0  0  0  0  0
   19.6779  -21.6524  -15.0623 C   0  0  0  0  0  0  0  0  0  0  0  0
   19.1578  -22.5747  -16.1173 C   0  0  0  0  0  0  0  0  0  0  0  0
   17.9132  -22.1694  -16.8083 C   0  0  0  0  0  0  0  0  0  0  0  0
   17.3963  -23.0874  -17.7873 N   0  0  0  0  0  0  0  0  0  0  0  0
   20.5006  -21.3984  -12.2663 C   0  0  0  0  0  0  0  0  0  0  0  0
   20.6361  -22.4888  -11.4364 O   0  0  0  0  0  0  0  0  0  0  0  0
   19.5719  -20.5855  -12.0873 O   0  0  0  0  0  0  0  0  0  0  0  0
  1  2  1  0
  2  4  1  0
  2  3  2  0
  4  5  1  0
  6  5  1  0
  6  8  1  0
  6  7  1  6
  8  9  2  0
 11 10  1  0
 12 11  1  1
 13  8  1  0
 13 12  1  0
 14 15  2  0
 14 12  1  0
 16 14  1  0
 17 16  1  0
 17 18  1  6
 19 18  1  0
 20 19  1  0
 21 22  1  0
 21 20  1  0
 23 17  1  0
 23 24  1  0
 25 23  2  0
M  END
$$$$
