QSK.pdb
     RDKit          3D

 25 24  0  0  1  0  0  0  0  0999 V2000
   21.7699  -13.4402  -21.7378 N   0  0  0  0  0  0  0  0  0  0  0  0
   23.0940  -13.2847  -22.1813 C   0  0  0  0  0  0  0  0  0  0  0  0
   23.3601  -13.0335  -23.3553 O   0  0  0  0  0  0  0  0  0  0  0  0
   24.2043  -13.4323  -21.1824 C   0  0  0  0  0  0  0  0  0  0  0  0
   23.6257  -13.7103  -19.8254 C   0  0  0  0  0  0  0  0  0  0  0  0
   24.7012  -13.7889  -18.7587 C   0  0  2  0  0  0  0  0  0  0  0  0
   24.6926  -15.1879  -18.2578 N   0  0  0  0  0  0  0  0  0  0  0  0
   24.3888  -12.8783  -17.6397 C   0  0  0  0  0  0  0  0  0  0  0  0
   23.1745  -12.7723  -17.2822 O   0  0  0  0  0  0  0  0  0  0  0  0
   27.0217   -9.9881  -16.0300 O   0  0  0  0  0  0  0  0  0  0  0  0
   26.2014  -10.6591  -15.1569 C   0  0  0  0  0  0  0  0  0  0  0  0
   24.9592  -11.2009  -15.8840 C   0  0  2  0  0  0  0  0  0  0  0  0
   25.3606  -12.1140  -16.9335 N   0  0  0  0  0  0  0  0  0  0  0  0
   24.1085  -10.1003  -16.3613 C   0  0  0  0  0  0  0  0  0  0  0  0
   24.2579   -9.6750  -17.5292 O   0  0  0  0  0  0  0  0  0  0  0  0
   23.1212   -9.5059  -15.5339 N   0  0  0  0  0  0  0  0  0  0  0  0
   22.3187   -8.3663  -15.9889 C   0  0  1  0  0  0  0  0  0  0  0  0
   21.0121   -8.9794  -16.5391 C   0  0  0  0  0  0  0  0  0  0  0  0
   20.0526   -7.9171  -16.9301 C   0  0  0  0  0  0  0  0  0  0  0  0
   18.7628   -8.4812  -17.4327 C   0  0  0  0  0  0  0  0  0  0  0  0
   17.7056   -7.5130  -17.8007 C   0  0  0  0  0  0  0  0  0  0  0  0
   16.4259   -8.0660  -18.1544 N   0  0  0  0  0  0  0  0  0  0  0  0
   21.9361   -7.5328  -14.8335 C   0  0  0  0  0  0  0  0  0  0  0  0
   21.5259   -6.2319  -15.0218 O   0  0  0  0  0  0  0  0  0  0  0  0
   21.9868   -8.0144  -13.6842 O   0  0  0  0  0  0  0  0  0  0  0  0
  1  2  1  0
  2  4  1  0
  2  3  2  0
  4  5  1  0
  6  5  1  0
  6  8  1  0
  6  7  1  1
  8  9  2  0
 11 10  1  0
 12 11  1  6
 13  8  1  0
 13 12  1  0
 14 15  2  0
 14 12  1  0
 16 14  1  0
 17 16  1  0
 17 18  1  1
 19 18  1  0
 20 19  1  0
 21 22  1  0
 21 20  1  0
 23 17  1  0
 23 24  1  0
 25 23  2  0
M  END
$$$$
