QSK.pdb
     RDKit          3D

 25 24  0  0  1  0  0  0  0  0999 V2000
   27.2078  -16.8494  -14.6839 N   0  0  0  0  0  0  0  0  0  0  0  0
   27.9273  -17.0185  -15.8788 C   0  0  0  0  0  0  0  0  0  0  0  0
   28.7483  -16.1885  -16.2653 O   0  0  0  0  0  0  0  0  0  0  0  0
   27.6761  -18.2521  -16.6959 C   0  0  0  0  0  0  0  0  0  0  0  0
   26.7967  -19.1942  -15.9262 C   0  0  0  0  0  0  0  0  0  0  0  0
   27.6017  -20.0974  -15.0113 C   0  0  2  0  0  0  0  0  0  0  0  0
   28.2919  -21.0762  -15.8908 N   0  0  0  0  0  0  0  0  0  0  0  0
   26.7104  -20.8282  -14.0892 C   0  0  0  0  0  0  0  0  0  0  0  0
   25.9505  -21.7198  -14.5804 O   0  0  0  0  0  0  0  0  0  0  0  0
   24.6766  -21.1845   -9.6704 O   0  0  0  0  0  0  0  0  0  0  0  0
   25.7881  -20.8686  -10.4122 C   0  0  0  0  0  0  0  0  0  0  0  0
   25.5116  -21.0543  -11.9136 C   0  0  2  0  0  0  0  0  0  0  0  0
   26.6498  -20.6007  -12.6850 N   0  0  0  0  0  0  0  0  0  0  0  0
   24.2491  -20.4060  -12.2991 C   0  0  0  0  0  0  0  0  0  0  0  0
   24.1653  -19.1577  -12.2559 O   0  0  0  0  0  0  0  0  0  0  0  0
   23.1212  -21.1568  -12.7195 N   0  0  0  0  0  0  0  0  0  0  0  0
   21.8334  -20.5175  -13.0066 C   0  0  1  0  0  0  0  0  0  0  0  0
   21.3774  -21.1050  -14.3604 C   0  0  0  0  0  0  0  0  0  0  0  0
   20.0435  -20.5796  -14.7431 C   0  0  0  0  0  0  0  0  0  0  0  0
   19.5713  -21.1388  -16.0464 C   0  0  0  0  0  0  0  0  0  0  0  0
   18.3275  -20.5678  -16.6099 C   0  0  0  0  0  0  0  0  0  0  0  0
   17.9078  -21.0815  -17.8859 N   0  0  0  0  0  0  0  0  0  0  0  0
   20.8331  -20.9407  -12.0083 C   0  0  0  0  0  0  0  0  0  0  0  0
   19.7827  -20.1115  -11.6839 O   0  0  0  0  0  0  0  0  0  0  0  0
   20.9450  -22.0551  -11.4597 O   0  0  0  0  0  0  0  0  0  0  0  0
  1  2  1  0
  2  4  1  0
  2  3  2  0
  4  5  1  0
  6  5  1  0
  6  8  1  0
  6  7  1  6
  8  9  2  0
 11 10  1  0
 12 11  1  1
 13  8  1  0
 13 12  1  0
 14 15  2  0
 14 12  1  0
 16 14  1  0
 17 16  1  0
 17 18  1  6
 19 18  1  0
 20 19  1  0
 21 22  1  0
 21 20  1  0
 23 17  1  0
 23 24  1  0
 25 23  2  0
M  END
$$$$
