QSK.pdb
     RDKit          3D

 25 24  0  0  1  0  0  0  0  0999 V2000
   16.0586   -9.3755  -15.6503 N   0  0  0  0  0  0  0  0  0  0  0  0
   15.2557  -10.5261  -15.7242 C   0  0  0  0  0  0  0  0  0  0  0  0
   15.1173  -11.1549  -16.7720 O   0  0  0  0  0  0  0  0  0  0  0  0
   14.5534  -10.9888  -14.4812 C   0  0  0  0  0  0  0  0  0  0  0  0
   14.8330  -10.0306  -13.3599 C   0  0  0  0  0  0  0  0  0  0  0  0
   16.0538  -10.4405  -12.5585 C   0  0  2  0  0  0  0  0  0  0  0  0
   15.7485  -11.7767  -11.9845 N   0  0  0  0  0  0  0  0  0  0  0  0
   16.2930   -9.4893  -11.4554 C   0  0  0  0  0  0  0  0  0  0  0  0
   15.9739   -9.8511  -10.2803 O   0  0  0  0  0  0  0  0  0  0  0  0
   18.4483   -5.8245  -11.7391 O   0  0  0  0  0  0  0  0  0  0  0  0
   18.4183   -6.6046  -10.6096 C   0  0  0  0  0  0  0  0  0  0  0  0
   17.0665   -7.3269  -10.4823 C   0  0  2  0  0  0  0  0  0  0  0  0
   16.8610   -8.1946  -11.6230 N   0  0  0  0  0  0  0  0  0  0  0  0
   15.9741   -6.3640  -10.2766 C   0  0  0  0  0  0  0  0  0  0  0  0
   15.3530   -5.9235  -11.2702 O   0  0  0  0  0  0  0  0  0  0  0  0
   15.6035   -5.9195   -8.9814 N   0  0  0  0  0  0  0  0  0  0  0  0
   14.5718   -4.8967   -8.7835 C   0  0  1  0  0  0  0  0  0  0  0  0
   14.1652   -5.0074   -7.2975 C   0  0  0  0  0  0  0  0  0  0  0  0
   13.1215   -4.0086   -6.9585 C   0  0  0  0  0  0  0  0  0  0  0  0
   12.6758   -4.1212   -5.5361 C   0  0  0  0  0  0  0  0  0  0  0  0
   11.5766   -3.2287   -5.1051 C   0  0  0  0  0  0  0  0  0  0  0  0
   11.1015   -3.4023   -3.7588 N   0  0  0  0  0  0  0  0  0  0  0  0
   15.1598   -3.5551   -8.9579 C   0  0  0  0  0  0  0  0  0  0  0  0
   14.3733   -2.5002   -9.3639 O   0  0  0  0  0  0  0  0  0  0  0  0
   16.3747   -3.3823   -8.7351 O   0  0  0  0  0  0  0  0  0  0  0  0
  1  2  1  0
  2  4  1  0
  2  3  2  0
  4  5  1  0
  6  5  1  0
  6  8  1  0
  6  7  1  1
  8  9  2  0
 11 10  1  0
 12 11  1  6
 13  8  1  0
 13 12  1  0
 14 15  2  0
 14 12  1  0
 16 14  1  0
 17 16  1  0
 17 18  1  1
 19 18  1  0
 20 19  1  0
 21 22  1  0
 21 20  1  0
 23 17  1  0
 23 24  1  0
 25 23  2  0
M  END
$$$$
