RGS.pdb
     RDKit          3D

 22 21  0  0  1  0  0  0  0  0999 V2000
    6.9456  -15.2341   16.6933 N   0  0  0  0  0  0  0  0  0  0  0  0
    7.8561  -14.2589   16.1964 C   0  0  0  0  0  0  0  0  0  0  0  0
    8.2010  -14.3254   14.9729 N   0  0  0  0  0  0  0  0  0  0  0  0
    8.3631  -13.2334   17.0662 N   0  0  0  0  0  0  0  0  0  0  0  0
    8.5835  -13.4919   18.4424 C   0  0  0  0  0  0  0  0  0  0  0  0
    7.4635  -13.7423   19.3550 C   0  0  0  0  0  0  0  0  0  0  0  0
    7.6357  -14.0122   20.7892 C   0  0  0  0  0  0  0  0  0  0  0  0
    8.7612  -14.9016   21.1972 C   0  0  2  0  0  0  0  0  0  0  0  0
    8.7018  -16.2316   20.6544 N   0  0  0  0  0  0  0  0  0  0  0  0
    8.7283  -15.0144   22.7235 C   0  0  0  0  0  0  0  0  0  0  0  0
    8.7602  -13.9698   23.4164 O   0  0  0  0  0  0  0  0  0  0  0  0
    8.8069  -13.6761   14.4538 N   0  0  0  0  0  0  0  0  0  0  0  0
    8.6634  -16.2574   23.3724 C   0  0  0  0  0  0  0  0  0  0  0  0
    8.4009  -16.3776   24.8102 C   0  0  0  0  0  0  0  0  0  0  0  0
    9.5539  -15.9058   25.6021 O   0  0  0  0  0  0  0  0  0  0  0  0
   10.6693  -15.7969   25.0595 O   0  0  0  0  0  0  0  0  0  0  0  0
    8.8890  -13.8974   28.8928 C   0  0  0  0  0  0  0  0  0  0  0  0
   10.1662  -13.8322   28.3625 C   0  0  1  0  0  0  0  0  0  0  0  0
   10.4861  -15.1987   27.7751 N   0  0  0  0  0  0  0  0  0  0  0  0
    9.3699  -15.5862   26.9621 C   0  0  0  0  0  0  0  0  0  0  0  0
   10.7112  -16.1531   28.8921 O   0  0  0  0  0  0  0  0  0  0  0  0
   11.7829  -15.9055   29.7519 O   0  0  0  0  0  0  0  0  0  0  0  0
  1  2  1  0
  2  3  2  0
  4  2  1  0
  4  5  1  0
  6  7  1  0
  6  5  1  0
  7  8  1  0
  8 10  1  0
  8  9  1  6
 10 12  1  0
 10 11  2  0
 12 13  1  0
 13 14  1  0
 14 19  1  0
 14 15  2  0
 16 17  1  0
 18 20  1  0
 18 17  1  6
 19 18  1  0
 20 21  1  0
 22 20  2  0
M  END
$$$$
