RGS.pdb
     RDKit          3D

 22 21  0  0  1  0  0  0  0  0999 V2000
    7.7451  -15.2303   16.2331 N   0  0  0  0  0  0  0  0  0  0  0  0
    8.1407  -13.9426   15.7722 C   0  0  0  0  0  0  0  0  0  0  0  0
    8.5287  -13.8283   14.5653 N   0  0  0  0  0  0  0  0  0  0  0  0
    8.0973  -12.8125   16.6587 N   0  0  0  0  0  0  0  0  0  0  0  0
    7.9702  -12.9923   18.0590 C   0  0  0  0  0  0  0  0  0  0  0  0
    7.5658  -14.2838   18.6233 C   0  0  0  0  0  0  0  0  0  0  0  0
    7.4074  -14.5207   20.0649 C   0  0  0  0  0  0  0  0  0  0  0  0
    8.5791  -14.2455   20.9458 C   0  0  2  0  0  0  0  0  0  0  0  0
    9.8241  -14.7890   20.4750 N   0  0  0  0  0  0  0  0  0  0  0  0
    8.2821  -14.8658   22.3134 C   0  0  0  0  0  0  0  0  0  0  0  0
    7.1285  -14.7660   22.7946 O   0  0  0  0  0  0  0  0  0  0  0  0
    8.8440  -12.9756   14.0839 N   0  0  0  0  0  0  0  0  0  0  0  0
    9.2669  -15.5452   23.0475 C   0  0  0  0  0  0  0  0  0  0  0  0
    8.9870  -16.1664   24.3461 C   0  0  0  0  0  0  0  0  0  0  0  0
   10.0214  -15.8129   25.3381 O   0  0  0  0  0  0  0  0  0  0  0  0
   11.2177  -15.7819   24.9946 O   0  0  0  0  0  0  0  0  0  0  0  0
    8.9881  -13.7501   28.4244 C   0  0  0  0  0  0  0  0  0  0  0  0
   10.3514  -13.8530   28.2064 C   0  0  1  0  0  0  0  0  0  0  0  0
   10.6222  -15.2485   27.6643 N   0  0  0  0  0  0  0  0  0  0  0  0
    9.6339  -15.5160   26.6600 C   0  0  0  0  0  0  0  0  0  0  0  0
   10.5406  -16.2172   28.7887 O   0  0  0  0  0  0  0  0  0  0  0  0
   11.4964  -16.1185   29.8015 O   0  0  0  0  0  0  0  0  0  0  0  0
  1  2  1  0
  2  3  2  0
  4  2  1  0
  4  5  1  0
  6  7  1  0
  6  5  1  0
  7  8  1  0
  8 10  1  0
  8  9  1  6
 10 12  1  0
 10 11  2  0
 12 13  1  0
 13 14  1  0
 14 19  1  0
 14 15  2  0
 16 17  1  0
 18 20  1  0
 18 17  1  6
 19 18  1  0
 20 21  1  0
 22 20  2  0
M  END
$$$$
