RGS.pdb
     RDKit          3D

 22 21  0  0  1  0  0  0  0  0999 V2000
    7.1988  -12.4350   14.7238 N   0  0  0  0  0  0  0  0  0  0  0  0
    8.0734  -13.5094   15.0522 C   0  0  0  0  0  0  0  0  0  0  0  0
    9.3200  -13.3553   14.8461 N   0  0  0  0  0  0  0  0  0  0  0  0
    7.5467  -14.7287   15.6009 N   0  0  0  0  0  0  0  0  0  0  0  0
    8.1087  -15.3015   16.7694 C   0  0  0  0  0  0  0  0  0  0  0  0
    9.1432  -14.5992   17.5353 C   0  0  0  0  0  0  0  0  0  0  0  0
    9.8459  -15.1966   18.6792 C   0  0  0  0  0  0  0  0  0  0  0  0
   10.1404  -16.6577   18.6262 C   0  0  2  0  0  0  0  0  0  0  0  0
    8.9803  -17.5055   18.6753 N   0  0  0  0  0  0  0  0  0  0  0  0
   11.0201  -16.9937   19.8331 C   0  0  0  0  0  0  0  0  0  0  0  0
   12.0814  -16.3515   20.0161 O   0  0  0  0  0  0  0  0  0  0  0  0
   10.0903  -13.9545   15.1716 N   0  0  0  0  0  0  0  0  0  0  0  0
   10.6725  -18.0035   20.7440 C   0  0  0  0  0  0  0  0  0  0  0  0
   11.5522  -18.3986   21.8488 C   0  0  0  0  0  0  0  0  0  0  0  0
   11.4634  -17.4398   22.9677 O   0  0  0  0  0  0  0  0  0  0  0  0
   11.9833  -16.3140   22.8555 O   0  0  0  0  0  0  0  0  0  0  0  0
    8.7506  -17.5591   25.7465 C   0  0  0  0  0  0  0  0  0  0  0  0
    9.6865  -16.5421   25.8276 C   0  0  1  0  0  0  0  0  0  0  0  0
   11.0214  -17.1140   25.3738 N   0  0  0  0  0  0  0  0  0  0  0  0
   10.7894  -17.8180   24.1459 C   0  0  0  0  0  0  0  0  0  0  0  0
   11.5358  -18.0163   26.4369 O   0  0  0  0  0  0  0  0  0  0  0  0
   11.8964  -17.4424   27.6575 O   0  0  0  0  0  0  0  0  0  0  0  0
  1  2  1  0
  2  3  2  0
  4  2  1  0
  4  5  1  0
  6  7  1  0
  6  5  1  0
  7  8  1  0
  8 10  1  0
  8  9  1  1
 10 12  1  0
 10 11  2  0
 12 13  1  0
 13 14  1  0
 14 19  1  0
 14 15  2  0
 16 17  1  0
 18 20  1  0
 18 17  1  6
 19 18  1  0
 20 21  1  0
 22 20  2  0
M  END
$$$$
