RGS.pdb
     RDKit          3D

 22 21  0  0  1  0  0  0  0  0999 V2000
    1.6792  -20.9482   21.1891 N   0  0  0  0  0  0  0  0  0  0  0  0
    1.1805  -19.8766   20.3953 C   0  0  0  0  0  0  0  0  0  0  0  0
    0.1245  -20.0740   19.7126 N   0  0  0  0  0  0  0  0  0  0  0  0
    1.8632  -18.6122   20.3764 N   0  0  0  0  0  0  0  0  0  0  0  0
    3.2259  -18.5169   20.7546 C   0  0  0  0  0  0  0  0  0  0  0  0
    4.2704  -19.2265   20.0093 C   0  0  0  0  0  0  0  0  0  0  0  0
    5.6988  -19.1439   20.3444 C   0  0  0  0  0  0  0  0  0  0  0  0
    6.1894  -17.8896   20.9850 C   0  0  2  0  0  0  0  0  0  0  0  0
    6.3716  -16.7862   20.0813 N   0  0  0  0  0  0  0  0  0  0  0  0
    7.5439  -18.2003   21.6271 C   0  0  0  0  0  0  0  0  0  0  0  0
    8.1171  -19.2822   21.3563 O   0  0  0  0  0  0  0  0  0  0  0  0
   -0.3599  -19.4079   19.0962 N   0  0  0  0  0  0  0  0  0  0  0  0
    8.1652  -17.3066   22.5134 C   0  0  0  0  0  0  0  0  0  0  0  0
    9.4963  -17.5585   23.0749 C   0  0  0  0  0  0  0  0  0  0  0  0
    9.4218  -18.4795   24.2261 O   0  0  0  0  0  0  0  0  0  0  0  0
    8.3238  -18.6924   24.7733 O   0  0  0  0  0  0  0  0  0  0  0  0
   11.4238  -21.7405   24.6221 C   0  0  0  0  0  0  0  0  0  0  0  0
   11.7057  -20.9421   25.7174 C   0  0  2  0  0  0  0  0  0  0  0  0
   10.5719  -19.9366   25.8524 N   0  0  0  0  0  0  0  0  0  0  0  0
   10.5990  -19.1030   24.6856 C   0  0  0  0  0  0  0  0  0  0  0  0
   10.7824  -19.1500   27.0958 O   0  0  0  0  0  0  0  0  0  0  0  0
   10.6328  -19.8117   28.3161 O   0  0  0  0  0  0  0  0  0  0  0  0
  1  2  1  0
  2  3  2  0
  4  2  1  0
  4  5  1  0
  6  7  1  0
  6  5  1  0
  7  8  1  0
  8 10  1  0
  8  9  1  6
 10 12  1  0
 10 11  2  0
 12 13  1  0
 13 14  1  0
 14 19  1  0
 14 15  2  0
 16 17  1  0
 18 20  1  0
 18 17  1  6
 19 18  1  0
 20 21  1  0
 22 20  2  0
M  END
$$$$
