RGS.pdb
     RDKit          3D

 22 21  0  0  1  0  0  0  0  0999 V2000
    8.6262  -12.9152   17.1458 N   0  0  0  0  0  0  0  0  0  0  0  0
    7.9161  -13.4338   18.2655 C   0  0  0  0  0  0  0  0  0  0  0  0
    7.7995  -12.6980   19.2977 N   0  0  0  0  0  0  0  0  0  0  0  0
    7.3521  -14.7546   18.2157 N   0  0  0  0  0  0  0  0  0  0  0  0
    6.6616  -15.2920   19.3308 C   0  0  0  0  0  0  0  0  0  0  0  0
    7.1297  -15.0519   20.6994 C   0  0  0  0  0  0  0  0  0  0  0  0
    6.4377  -15.5633   21.8906 C   0  0  0  0  0  0  0  0  0  0  0  0
    6.6821  -16.9824   22.2789 C   0  0  2  0  0  0  0  0  0  0  0  0
    5.6610  -17.9034   21.8592 N   0  0  0  0  0  0  0  0  0  0  0  0
    6.7631  -17.0339   23.8067 C   0  0  0  0  0  0  0  0  0  0  0  0
    5.7693  -16.6819   24.4856 O   0  0  0  0  0  0  0  0  0  0  0  0
    7.3356  -12.9296   20.1862 N   0  0  0  0  0  0  0  0  0  0  0  0
    7.9213  -17.4649   24.4724 C   0  0  0  0  0  0  0  0  0  0  0  0
    8.0866  -17.3310   25.9233 C   0  0  0  0  0  0  0  0  0  0  0  0
    9.2492  -16.4820   26.2495 O   0  0  0  0  0  0  0  0  0  0  0  0
   10.0982  -16.2383   25.3719 O   0  0  0  0  0  0  0  0  0  0  0  0
    9.1088  -13.8518   28.9723 C   0  0  0  0  0  0  0  0  0  0  0  0
   10.3087  -13.8948   28.2831 C   0  0  1  0  0  0  0  0  0  0  0  0
   10.6058  -15.3550   27.9759 N   0  0  0  0  0  0  0  0  0  0  0  0
    9.3768  -15.9612   27.5526 C   0  0  0  0  0  0  0  0  0  0  0  0
   11.1420  -15.9975   29.2043 O   0  0  0  0  0  0  0  0  0  0  0  0
   12.3385  -15.5028   29.7266 O   0  0  0  0  0  0  0  0  0  0  0  0
  1  2  1  0
  2  3  2  0
  4  2  1  0
  4  5  1  0
  6  7  1  0
  6  5  1  0
  7  8  1  0
  8 10  1  0
  8  9  1  1
 10 12  1  0
 10 11  2  0
 12 13  1  0
 13 14  1  0
 14 19  1  0
 14 15  2  0
 16 17  1  0
 18 20  1  0
 18 17  1  6
 19 18  1  0
 20 21  1  0
 22 20  2  0
M  END
$$$$
