RGS.pdb
     RDKit          3D

 22 21  0  0  1  0  0  0  0  0999 V2000
    8.4941  -21.1460   25.7892 N   0  0  0  0  0  0  0  0  0  0  0  0
    7.4002  -20.4562   26.3846 C   0  0  0  0  0  0  0  0  0  0  0  0
    6.9206  -20.9128   27.4717 N   0  0  0  0  0  0  0  0  0  0  0  0
    6.8635  -19.2775   25.7621 N   0  0  0  0  0  0  0  0  0  0  0  0
    6.5504  -19.2649   24.3797 C   0  0  0  0  0  0  0  0  0  0  0  0
    6.5961  -20.4938   23.5812 C   0  0  0  0  0  0  0  0  0  0  0  0
    6.4204  -20.5156   22.1225 C   0  0  0  0  0  0  0  0  0  0  0  0
    6.5194  -19.2188   21.3925 C   0  0  2  0  0  0  0  0  0  0  0  0
    6.0697  -19.2630   20.0276 N   0  0  0  0  0  0  0  0  0  0  0  0
    7.9929  -18.8041   21.3892 C   0  0  0  0  0  0  0  0  0  0  0  0
    8.8716  -19.6607   21.6473 O   0  0  0  0  0  0  0  0  0  0  0  0
    6.1416  -20.5315   28.0249 N   0  0  0  0  0  0  0  0  0  0  0  0
    8.3908  -17.4884   21.1050 C   0  0  0  0  0  0  0  0  0  0  0  0
    9.7896  -17.0568   21.1926 C   0  0  0  0  0  0  0  0  0  0  0  0
   10.0260  -16.2661   22.4165 O   0  0  0  0  0  0  0  0  0  0  0  0
   11.1628  -15.8131   22.6460 O   0  0  0  0  0  0  0  0  0  0  0  0
    6.8410  -15.3823   24.6703 C   0  0  0  0  0  0  0  0  0  0  0  0
    7.9387  -14.5637   24.8748 C   0  0  1  0  0  0  0  0  0  0  0  0
    9.1823  -15.3821   24.5607 N   0  0  0  0  0  0  0  0  0  0  0  0
    8.9565  -16.0377   23.3052 C   0  0  0  0  0  0  0  0  0  0  0  0
    9.3968  -16.3583   25.6608 O   0  0  0  0  0  0  0  0  0  0  0  0
    9.6710  -15.8531   26.9331 O   0  0  0  0  0  0  0  0  0  0  0  0
  1  2  1  0
  2  3  2  0
  4  2  1  0
  4  5  1  0
  6  7  1  0
  6  5  1  0
  7  8  1  0
  8 10  1  0
  8  9  1  6
 10 12  1  0
 10 11  2  0
 12 13  1  0
 13 14  1  0
 14 19  1  0
 14 15  2  0
 16 17  1  0
 18 20  1  0
 18 17  1  6
 19 18  1  0
 20 21  1  0
 22 20  2  0
M  END
$$$$
