RGS.pdb
     RDKit          3D

 22 21  0  0  1  0  0  0  0  0999 V2000
    6.5367  -12.9850   17.8092 N   0  0  0  0  0  0  0  0  0  0  0  0
    7.5531  -13.7051   17.1198 C   0  0  0  0  0  0  0  0  0  0  0  0
    7.2819  -14.1761   15.9687 N   0  0  0  0  0  0  0  0  0  0  0  0
    8.8455  -13.8866   17.7214 N   0  0  0  0  0  0  0  0  0  0  0  0
    8.9813  -14.0103   19.1269 C   0  0  0  0  0  0  0  0  0  0  0  0
    7.8314  -14.3453   19.9727 C   0  0  0  0  0  0  0  0  0  0  0  0
    7.9181  -14.4908   21.4323 C   0  0  0  0  0  0  0  0  0  0  0  0
    8.8652  -15.5082   21.9728 C   0  0  2  0  0  0  0  0  0  0  0  0
    8.6578  -16.8426   21.4794 N   0  0  0  0  0  0  0  0  0  0  0  0
    8.6914  -15.5366   23.4934 C   0  0  0  0  0  0  0  0  0  0  0  0
    8.8636  -14.4823   24.1501 O   0  0  0  0  0  0  0  0  0  0  0  0
    7.9024  -14.7088   15.3447 N   0  0  0  0  0  0  0  0  0  0  0  0
    8.3439  -16.7124   24.1768 C   0  0  0  0  0  0  0  0  0  0  0  0
    8.2400  -16.7673   25.6386 C   0  0  0  0  0  0  0  0  0  0  0  0
    9.4895  -16.3098   26.2776 O   0  0  0  0  0  0  0  0  0  0  0  0
   10.5828  -16.5506   25.7327 O   0  0  0  0  0  0  0  0  0  0  0  0
    9.3088  -13.4585   28.9216 C   0  0  0  0  0  0  0  0  0  0  0  0
   10.5803  -13.7672   28.4692 C   0  0  1  0  0  0  0  0  0  0  0  0
   10.6196  -15.2654   28.2071 N   0  0  0  0  0  0  0  0  0  0  0  0
    9.4212  -15.6064   27.4967 C   0  0  0  0  0  0  0  0  0  0  0  0
   10.7062  -15.9721   29.5117 O   0  0  0  0  0  0  0  0  0  0  0  0
   11.8202  -15.7195   30.3145 O   0  0  0  0  0  0  0  0  0  0  0  0
  1  2  1  0
  2  3  2  0
  4  2  1  0
  4  5  1  0
  6  7  1  0
  6  5  1  0
  7  8  1  0
  8 10  1  0
  8  9  1  6
 10 12  1  0
 10 11  2  0
 12 13  1  0
 13 14  1  0
 14 19  1  0
 14 15  2  0
 16 17  1  0
 18 20  1  0
 18 17  1  6
 19 18  1  0
 20 21  1  0
 22 20  2  0
M  END
$$$$
