RGS.pdb
     RDKit          3D

 22 21  0  0  1  0  0  0  0  0999 V2000
    0.4711  -22.8331   18.7845 N   0  0  0  0  0  0  0  0  0  0  0  0
   -0.2363  -21.6545   18.4138 C   0  0  0  0  0  0  0  0  0  0  0  0
   -0.5156  -21.4819   17.1840 N   0  0  0  0  0  0  0  0  0  0  0  0
   -0.6173  -20.6952   19.4136 N   0  0  0  0  0  0  0  0  0  0  0  0
    0.3538  -19.8738   20.0394 C   0  0  0  0  0  0  0  0  0  0  0  0
    0.7881  -20.1291   21.4165 C   0  0  0  0  0  0  0  0  0  0  0  0
    1.7982  -19.3162   22.1081 C   0  0  0  0  0  0  0  0  0  0  0  0
    3.2189  -19.7633   22.0322 C   0  0  2  0  0  0  0  0  0  0  0  0
    3.4937  -21.0047   22.7034 N   0  0  0  0  0  0  0  0  0  0  0  0
    4.0786  -18.6765   22.6826 C   0  0  0  0  0  0  0  0  0  0  0  0
    4.0782  -17.5210   22.1956 O   0  0  0  0  0  0  0  0  0  0  0  0
   -1.0051  -20.6847   16.7558 N   0  0  0  0  0  0  0  0  0  0  0  0
    4.8703  -18.9364   23.8122 C   0  0  0  0  0  0  0  0  0  0  0  0
    5.6464  -17.8883   24.4828 C   0  0  0  0  0  0  0  0  0  0  0  0
    7.0740  -18.2547   24.5652 O   0  0  0  0  0  0  0  0  0  0  0  0
    7.4367  -19.3957   24.2238 O   0  0  0  0  0  0  0  0  0  0  0  0
    9.9370  -15.9897   23.6830 C   0  0  0  0  0  0  0  0  0  0  0  0
   10.2133  -16.4179   24.9702 C   0  0  2  0  0  0  0  0  0  0  0  0
    9.3773  -17.6631   25.2256 N   0  0  0  0  0  0  0  0  0  0  0  0
    8.0029  -17.3025   25.0303 C   0  0  0  0  0  0  0  0  0  0  0  0
    9.6323  -18.1280   26.6141 O   0  0  0  0  0  0  0  0  0  0  0  0
   10.9011  -18.6311   26.9078 O   0  0  0  0  0  0  0  0  0  0  0  0
  1  2  1  0
  2  3  2  0
  4  2  1  0
  4  5  1  0
  6  7  1  0
  6  5  1  0
  7  8  1  0
  8 10  1  0
  8  9  1  1
 10 12  1  0
 10 11  2  0
 12 13  1  0
 13 14  1  0
 14 19  1  0
 14 15  2  0
 16 17  1  0
 18 20  1  0
 18 17  1  6
 19 18  1  0
 20 21  1  0
 22 20  2  0
M  END
$$$$
