RGS.pdb
     RDKit          3D

 22 21  0  0  1  0  0  0  0  0999 V2000
    7.8277  -15.7837   23.2167 N   0  0  0  0  0  0  0  0  0  0  0  0
    7.4631  -14.4076   23.1913 C   0  0  0  0  0  0  0  0  0  0  0  0
    7.6315  -13.7207   24.2496 N   0  0  0  0  0  0  0  0  0  0  0  0
    6.9207  -13.8252   21.9948 N   0  0  0  0  0  0  0  0  0  0  0  0
    6.7617  -14.5993   20.8180 C   0  0  0  0  0  0  0  0  0  0  0  0
    7.6492  -14.4164   19.6652 C   0  0  0  0  0  0  0  0  0  0  0  0
    8.5379  -13.2570   19.5066 C   0  0  0  0  0  0  0  0  0  0  0  0
    9.2921  -13.1313   18.2261 C   0  0  2  0  0  0  0  0  0  0  0  0
    8.4987  -13.3190   17.0419 N   0  0  0  0  0  0  0  0  0  0  0  0
   10.3891  -14.1990   18.2316 C   0  0  0  0  0  0  0  0  0  0  0  0
   10.7285  -14.7351   17.1500 O   0  0  0  0  0  0  0  0  0  0  0  0
    7.4672  -12.7134   24.3787 N   0  0  0  0  0  0  0  0  0  0  0  0
   11.0283  -14.5972   19.4161 C   0  0  0  0  0  0  0  0  0  0  0  0
   12.0789  -15.6202   19.4335 C   0  0  0  0  0  0  0  0  0  0  0  0
   12.6409  -15.7816   20.7890 O   0  0  0  0  0  0  0  0  0  0  0  0
   13.4505  -14.9413   21.2231 O   0  0  0  0  0  0  0  0  0  0  0  0
   10.5075  -16.9740   23.5198 C   0  0  0  0  0  0  0  0  0  0  0  0
   11.6659  -17.7025   23.7296 C   0  0  2  0  0  0  0  0  0  0  0  0
   12.7651  -17.0610   22.8958 N   0  0  0  0  0  0  0  0  0  0  0  0
   12.2489  -16.8878   21.5689 C   0  0  0  0  0  0  0  0  0  0  0  0
   13.9534  -17.9535   22.9120 O   0  0  0  0  0  0  0  0  0  0  0  0
   14.6096  -18.1391   24.1302 O   0  0  0  0  0  0  0  0  0  0  0  0
  1  2  1  0
  2  3  2  0
  4  2  1  0
  4  5  1  0
  6  7  1  0
  6  5  1  0
  7  8  1  0
  8 10  1  0
  8  9  1  6
 10 12  1  0
 10 11  2  0
 12 13  1  0
 13 14  1  0
 14 19  1  0
 14 15  2  0
 16 17  1  0
 18 20  1  0
 18 17  1  1
 19 18  1  0
 20 21  1  0
 22 20  2  0
M  END
$$$$
