RGS.pdb
     RDKit          3D

 22 21  0  0  1  0  0  0  0  0999 V2000
    9.0824  -13.2321   19.7203 N   0  0  0  0  0  0  0  0  0  0  0  0
    8.3031  -13.5575   18.5741 C   0  0  0  0  0  0  0  0  0  0  0  0
    7.4083  -12.7329   18.2006 N   0  0  0  0  0  0  0  0  0  0  0  0
    8.5333  -14.7883   17.8689 N   0  0  0  0  0  0  0  0  0  0  0  0
    7.8669  -15.9797   18.2508 C   0  0  0  0  0  0  0  0  0  0  0  0
    8.0827  -16.5782   19.5718 C   0  0  0  0  0  0  0  0  0  0  0  0
    9.3493  -17.2029   19.9778 C   0  0  0  0  0  0  0  0  0  0  0  0
    9.3906  -17.8912   21.3003 C   0  0  2  0  0  0  0  0  0  0  0  0
    8.3837  -18.9013   21.4823 N   0  0  0  0  0  0  0  0  0  0  0  0
    9.1883  -16.8253   22.3802 C   0  0  0  0  0  0  0  0  0  0  0  0
    8.0690  -16.2714   22.4931 O   0  0  0  0  0  0  0  0  0  0  0  0
    6.8083  -12.7903   17.3669 N   0  0  0  0  0  0  0  0  0  0  0  0
   10.2228  -16.4481   23.2507 C   0  0  0  0  0  0  0  0  0  0  0  0
   10.0216  -15.4793   24.3331 C   0  0  0  0  0  0  0  0  0  0  0  0
   10.5699  -15.9846   25.6071 O   0  0  0  0  0  0  0  0  0  0  0  0
   11.2114  -17.0516   25.6204 O   0  0  0  0  0  0  0  0  0  0  0  0
   10.5889  -13.3679   28.2900 C   0  0  0  0  0  0  0  0  0  0  0  0
   10.7813  -14.5288   29.0192 C   0  0  2  0  0  0  0  0  0  0  0  0
   10.9469  -15.6691   28.0256 N   0  0  0  0  0  0  0  0  0  0  0  0
   10.3562  -15.2471   26.7887 C   0  0  0  0  0  0  0  0  0  0  0  0
   10.2742  -16.8758   28.5735 O   0  0  0  0  0  0  0  0  0  0  0  0
   10.7991  -17.4396   29.7379 O   0  0  0  0  0  0  0  0  0  0  0  0
  1  2  1  0
  2  3  2  0
  4  2  1  0
  4  5  1  0
  6  7  1  0
  6  5  1  0
  7  8  1  0
  8 10  1  0
  8  9  1  6
 10 12  1  0
 10 11  2  0
 12 13  1  0
 13 14  1  0
 14 19  1  0
 14 15  2  0
 16 17  1  0
 18 20  1  0
 18 17  1  6
 19 18  1  0
 20 21  1  0
 22 20  2  0
M  END
$$$$
