CVE.pdb
     RDKit          3D

 23 22  0  0  1  0  0  0  0  0999 V2000
   16.9701  -13.6123  -15.0948 N   0  0  0  0  0  0  0  0  0  0  0  0
   16.8588  -12.2672  -15.5686 C   0  0  1  0  0  0  0  0  0  0  0  0
   15.7101  -11.5989  -14.8410 C   0  0  0  0  0  0  0  0  0  0  0  0
   14.1110  -12.1805  -15.4434 S   0  0  0  0  0  0  0  0  0  0  0  0
   18.0874  -11.4617  -15.2383 C   0  0  0  0  0  0  0  0  0  0  0  0
   18.4819  -11.3816  -14.0472 O   0  0  0  0  0  0  0  0  0  0  0  0
   21.5386  -11.9053  -15.9598 C   0  0  0  0  0  0  0  0  0  0  0  0
   21.1778  -10.5896  -16.5599 C   0  0  1  0  0  0  0  0  0  0  0  0
   20.9382  -10.7703  -18.0444 C   0  0  0  0  0  0  0  0  0  0  0  0
   19.9734   -9.9417  -15.9489 C   0  0  2  0  0  0  0  0  0  0  0  0
   18.8255  -10.7820  -16.2294 N   0  0  0  0  0  0  0  0  0  0  0  0
   19.7619   -8.5812  -16.5179 C   0  0  0  0  0  0  0  0  0  0  0  0
   19.0623   -8.3765  -17.5406 O   0  0  0  0  0  0  0  0  0  0  0  0
   20.3546   -7.4432  -15.9140 N   0  0  0  0  0  0  0  0  0  0  0  0
   20.1531   -6.1281  -16.4895 C   0  0  1  0  0  0  0  0  0  0  0  0
   19.9848   -5.0679  -15.4255 C   0  0  0  0  0  0  0  0  0  0  0  0
   19.9528   -3.6781  -16.0519 C   0  0  0  0  0  0  0  0  0  0  0  0
   19.8972   -2.6265  -15.0091 C   0  0  0  0  0  0  0  0  0  0  0  0
   19.8922   -2.9718  -13.8149 O   0  0  0  0  0  0  0  0  0  0  0  0
   21.2851   -5.8425  -17.3881 C   0  0  0  0  0  0  0  0  0  0  0  0
   21.1864   -4.9266  -18.4464 O   0  0  0  0  0  0  0  0  0  0  0  0
   19.8507   -1.2751  -15.3118 O   0  0  0  0  0  0  0  0  0  0  0  0
   22.3979   -6.4067  -17.2506 O   0  0  0  0  0  0  0  0  0  0  0  0
  2  1  1  1
  3  2  1  0
  4  3  1  0
  5  2  1  0
  6  5  2  0
  8  9  1  6
  8  7  1  0
 10  8  1  0
 10 11  1  6
 11  5  1  0
 12 10  1  0
 13 12  2  0
 14 12  1  0
 15 14  1  0
 15 16  1  1
 17 16  1  0
 18 17  1  0
 19 18  2  0
 20 15  1  0
 20 21  1  0
 22 18  1  0
 23 20  2  0
M  END
$$$$
