CVE.pdb
     RDKit          3D

 23 22  0  0  1  0  0  0  0  0999 V2000
   17.2161  -12.4702  -15.7780 N   0  0  0  0  0  0  0  0  0  0  0  0
   17.9300  -11.4275  -16.4484 C   0  0  1  0  0  0  0  0  0  0  0  0
   16.9449  -10.3384  -16.8209 C   0  0  0  0  0  0  0  0  0  0  0  0
   15.7218  -10.9248  -18.0119 S   0  0  0  0  0  0  0  0  0  0  0  0
   18.9441  -10.7811  -15.5420 C   0  0  0  0  0  0  0  0  0  0  0  0
   18.6413  -10.5189  -14.3503 O   0  0  0  0  0  0  0  0  0  0  0  0
   23.7013   -9.7443  -14.7455 C   0  0  0  0  0  0  0  0  0  0  0  0
   22.5482  -10.4400  -15.3838 C   0  0  1  0  0  0  0  0  0  0  0  0
   22.4708  -11.8579  -14.8570 C   0  0  0  0  0  0  0  0  0  0  0  0
   21.2263   -9.7691  -15.1687 C   0  0  2  0  0  0  0  0  0  0  0  0
   20.2422  -10.4528  -15.9850 N   0  0  0  0  0  0  0  0  0  0  0  0
   21.2975   -8.3311  -15.5514 C   0  0  0  0  0  0  0  0  0  0  0  0
   21.5337   -7.9540  -16.7257 O   0  0  0  0  0  0  0  0  0  0  0  0
   21.0971   -7.3133  -14.5843 N   0  0  0  0  0  0  0  0  0  0  0  0
   21.1887   -5.9187  -14.9684 C   0  0  1  0  0  0  0  0  0  0  0  0
   19.8269   -5.2692  -15.0592 C   0  0  0  0  0  0  0  0  0  0  0  0
   19.9604   -3.7803  -15.3594 C   0  0  0  0  0  0  0  0  0  0  0  0
   18.6294   -3.1344  -15.4461 C   0  0  0  0  0  0  0  0  0  0  0  0
   17.6148   -3.8464  -15.3527 O   0  0  0  0  0  0  0  0  0  0  0  0
   22.0701   -5.2350  -14.0061 C   0  0  0  0  0  0  0  0  0  0  0  0
   22.7528   -4.0522  -14.3278 O   0  0  0  0  0  0  0  0  0  0  0  0
   18.4710   -1.7697  -15.6270 O   0  0  0  0  0  0  0  0  0  0  0  0
   22.2545   -5.6788  -12.8465 O   0  0  0  0  0  0  0  0  0  0  0  0
  2  1  1  1
  3  2  1  0
  4  3  1  0
  5  2  1  0
  6  5  2  0
  8  9  1  1
  8  7  1  0
 10  8  1  0
 10 11  1  6
 11  5  1  0
 12 10  1  0
 13 12  2  0
 14 12  1  0
 15 14  1  0
 15 16  1  1
 17 16  1  0
 18 17  1  0
 19 18  2  0
 20 15  1  0
 20 21  1  0
 22 18  1  0
 23 20  2  0
M  END
$$$$
