CVE.pdb
     RDKit          3D

 23 22  0  0  1  0  0  0  0  0999 V2000
   22.3970  -13.8252  -17.9731 N   0  0  0  0  0  0  0  0  0  0  0  0
   22.6846  -12.4680  -18.3218 C   0  0  1  0  0  0  0  0  0  0  0  0
   21.4801  -11.8947  -19.0400 C   0  0  0  0  0  0  0  0  0  0  0  0
   21.1034  -12.8131  -20.5476 S   0  0  0  0  0  0  0  0  0  0  0  0
   22.8865  -11.6141  -17.0979 C   0  0  0  0  0  0  0  0  0  0  0  0
   22.1598  -11.7876  -16.0867 O   0  0  0  0  0  0  0  0  0  0  0  0
   26.1034  -11.1309  -15.2254 C   0  0  0  0  0  0  0  0  0  0  0  0
   25.5693   -9.7856  -15.5809 C   0  0  1  0  0  0  0  0  0  0  0  0
   26.3273   -9.2514  -16.7784 C   0  0  0  0  0  0  0  0  0  0  0  0
   24.1028   -9.7642  -15.8853 C   0  0  2  0  0  0  0  0  0  0  0  0
   23.8757  -10.6103  -17.0406 N   0  0  0  0  0  0  0  0  0  0  0  0
   23.6449   -8.3757  -16.1711 C   0  0  0  0  0  0  0  0  0  0  0  0
   23.8847   -7.7939  -17.2580 O   0  0  0  0  0  0  0  0  0  0  0  0
   22.9060   -7.6437  -15.2070 N   0  0  0  0  0  0  0  0  0  0  0  0
   22.4032   -6.3225  -15.5275 C   0  0  1  0  0  0  0  0  0  0  0  0
   20.9942   -6.3731  -16.0720 C   0  0  0  0  0  0  0  0  0  0  0  0
   20.5165   -4.9774  -16.4576 C   0  0  0  0  0  0  0  0  0  0  0  0
   19.1121   -5.0082  -16.9300 C   0  0  0  0  0  0  0  0  0  0  0  0
   18.3257   -4.1386  -16.5170 O   0  0  0  0  0  0  0  0  0  0  0  0
   22.5046   -5.4875  -14.3179 C   0  0  0  0  0  0  0  0  0  0  0  0
   22.6337   -6.0423  -13.0357 O   0  0  0  0  0  0  0  0  0  0  0  0
   18.6412   -5.9668  -17.8129 O   0  0  0  0  0  0  0  0  0  0  0  0
   22.4804   -4.2338  -14.3753 O   0  0  0  0  0  0  0  0  0  0  0  0
  2  1  1  1
  3  2  1  0
  4  3  1  0
  5  2  1  0
  6  5  2  0
  8  9  1  6
  8  7  1  0
 10  8  1  0
 10 11  1  6
 11  5  1  0
 12 10  1  0
 13 12  2  0
 14 12  1  0
 15 14  1  0
 15 16  1  1
 17 16  1  0
 18 17  1  0
 19 18  2  0
 20 15  1  0
 20 21  1  0
 22 18  1  0
 23 20  2  0
M  END
$$$$
