CVE.pdb
     RDKit          3D

 23 22  0  0  1  0  0  0  0  0999 V2000
   19.7705  -16.4642  -17.0343 N   0  0  0  0  0  0  0  0  0  0  0  0
   20.2080  -15.1999  -17.5407 C   0  0  1  0  0  0  0  0  0  0  0  0
   19.0416  -14.5397  -18.2470 C   0  0  0  0  0  0  0  0  0  0  0  0
   18.4712  -15.5199  -19.6513 S   0  0  0  0  0  0  0  0  0  0  0  0
   20.6048  -14.2663  -16.4277 C   0  0  0  0  0  0  0  0  0  0  0  0
   19.8972  -14.1916  -15.3912 O   0  0  0  0  0  0  0  0  0  0  0  0
   23.8917  -14.0712  -14.5825 C   0  0  0  0  0  0  0  0  0  0  0  0
   23.5936  -12.7331  -15.1674 C   0  0  1  0  0  0  0  0  0  0  0  0
   24.4064  -12.5524  -16.4325 C   0  0  0  0  0  0  0  0  0  0  0  0
   22.1470  -12.5055  -15.4827 C   0  0  2  0  0  0  0  0  0  0  0  0
   21.7587  -13.4589  -16.5037 N   0  0  0  0  0  0  0  0  0  0  0  0
   21.9274  -11.1155  -15.9716 C   0  0  0  0  0  0  0  0  0  0  0  0
   21.7999  -10.8386  -17.1899 O   0  0  0  0  0  0  0  0  0  0  0  0
   21.8525  -10.0307  -15.0613 N   0  0  0  0  0  0  0  0  0  0  0  0
   21.5067   -8.7059  -15.5372 C   0  0  1  0  0  0  0  0  0  0  0  0
   20.1583   -8.6871  -16.2197 C   0  0  0  0  0  0  0  0  0  0  0  0
   19.7529   -7.2596  -16.5699 C   0  0  0  0  0  0  0  0  0  0  0  0
   20.1746   -6.9103  -17.9471 C   0  0  0  0  0  0  0  0  0  0  0  0
   21.2434   -7.3757  -18.3787 O   0  0  0  0  0  0  0  0  0  0  0  0
   21.5671   -7.7779  -14.3946 C   0  0  0  0  0  0  0  0  0  0  0  0
   21.7461   -6.3965  -14.5626 O   0  0  0  0  0  0  0  0  0  0  0  0
   19.4256   -6.0864  -18.7720 O   0  0  0  0  0  0  0  0  0  0  0  0
   21.4609   -8.1791  -13.2099 O   0  0  0  0  0  0  0  0  0  0  0  0
  2  1  1  1
  3  2  1  0
  4  3  1  0
  5  2  1  0
  6  5  2  0
  8  9  1  6
  8  7  1  0
 10  8  1  0
 10 11  1  6
 11  5  1  0
 12 10  1  0
 13 12  2  0
 14 12  1  0
 15 14  1  0
 15 16  1  1
 17 16  1  0
 18 17  1  0
 19 18  2  0
 20 15  1  0
 20 21  1  0
 22 18  1  0
 23 20  2  0
M  END
$$$$
