CVE.pdb
     RDKit          3D

 23 22  0  0  1  0  0  0  0  0999 V2000
   16.2210  -14.3211  -16.7750 N   0  0  0  0  0  0  0  0  0  0  0  0
   16.5234  -13.3029  -15.8169 C   0  0  1  0  0  0  0  0  0  0  0  0
   17.6784  -13.7813  -14.9610 C   0  0  0  0  0  0  0  0  0  0  0  0
   17.1493  -15.0203  -13.7597 S   0  0  0  0  0  0  0  0  0  0  0  0
   16.9946  -12.0381  -16.4848 C   0  0  0  0  0  0  0  0  0  0  0  0
   17.7614  -12.1036  -17.4790 O   0  0  0  0  0  0  0  0  0  0  0  0
   15.2400   -9.7700  -18.4329 C   0  0  0  0  0  0  0  0  0  0  0  0
   15.7993   -8.9341  -17.3330 C   0  0  1  0  0  0  0  0  0  0  0  0
   14.7246   -8.7002  -16.2919 C   0  0  0  0  0  0  0  0  0  0  0  0
   17.0045   -9.5202  -16.6638 C   0  0  2  0  0  0  0  0  0  0  0  0
   16.6028  -10.7615  -16.0313 N   0  0  0  0  0  0  0  0  0  0  0  0
   17.5497   -8.5804  -15.6446 C   0  0  0  0  0  0  0  0  0  0  0  0
   17.1559   -8.5721  -14.4521 O   0  0  0  0  0  0  0  0  0  0  0  0
   18.5544   -7.6408  -15.9895 N   0  0  0  0  0  0  0  0  0  0  0  0
   19.1103   -6.7671  -14.9753 C   0  0  1  0  0  0  0  0  0  0  0  0
   20.5159   -6.3299  -15.3180 C   0  0  0  0  0  0  0  0  0  0  0  0
   21.0598   -5.3848  -14.2521 C   0  0  0  0  0  0  0  0  0  0  0  0
   22.3840   -4.8473  -14.6444 C   0  0  0  0  0  0  0  0  0  0  0  0
   23.2995   -5.6482  -14.9009 O   0  0  0  0  0  0  0  0  0  0  0  0
   18.1965   -5.6244  -14.8034 C   0  0  0  0  0  0  0  0  0  0  0  0
   18.0215   -4.9871  -13.5658 O   0  0  0  0  0  0  0  0  0  0  0  0
   22.6421   -3.4890  -14.7365 O   0  0  0  0  0  0  0  0  0  0  0  0
   17.5268   -5.1629  -15.7596 O   0  0  0  0  0  0  0  0  0  0  0  0
  2  1  1  6
  3  2  1  0
  4  3  1  0
  5  2  1  0
  6  5  2  0
  8  9  1  1
  8  7  1  0
 10  8  1  0
 10 11  1  1
 11  5  1  0
 12 10  1  0
 13 12  2  0
 14 12  1  0
 15 14  1  0
 15 16  1  6
 17 16  1  0
 18 17  1  0
 19 18  2  0
 20 15  1  0
 20 21  1  0
 22 18  1  0
 23 20  2  0
M  END
$$$$
