CVE.pdb
     RDKit          3D

 23 22  0  0  1  0  0  0  0  0999 V2000
   28.1598  -23.2491  -17.5757 N   0  0  0  0  0  0  0  0  0  0  0  0
   27.5205  -22.0095  -17.2582 C   0  0  1  0  0  0  0  0  0  0  0  0
   26.4786  -21.7245  -18.3206 C   0  0  0  0  0  0  0  0  0  0  0  0
   27.2296  -21.1131  -19.8438 S   0  0  0  0  0  0  0  0  0  0  0  0
   26.7743  -22.0911  -15.9528 C   0  0  0  0  0  0  0  0  0  0  0  0
   26.1354  -23.1339  -15.6611 O   0  0  0  0  0  0  0  0  0  0  0  0
   28.3335  -20.9876  -12.5742 C   0  0  0  0  0  0  0  0  0  0  0  0
   26.9847  -20.3773  -12.7462 C   0  0  1  0  0  0  0  0  0  0  0  0
   27.1444  -18.9330  -13.1735 C   0  0  0  0  0  0  0  0  0  0  0  0
   26.1095  -21.0827  -13.7362 C   0  0  2  0  0  0  0  0  0  0  0  0
   26.7638  -21.0256  -15.0288 N   0  0  0  0  0  0  0  0  0  0  0  0
   24.7709  -20.4332  -13.8120 C   0  0  0  0  0  0  0  0  0  0  0  0
   24.5393  -19.4440  -14.5502 O   0  0  0  0  0  0  0  0  0  0  0  0
   23.6859  -20.9173  -13.0377 N   0  0  0  0  0  0  0  0  0  0  0  0
   22.3229  -20.6260  -13.4356 C   0  0  1  0  0  0  0  0  0  0  0  0
   21.8624  -21.5204  -14.5636 C   0  0  0  0  0  0  0  0  0  0  0  0
   20.4190  -21.2076  -14.9426 C   0  0  0  0  0  0  0  0  0  0  0  0
   19.9251  -22.1486  -15.9755 C   0  0  0  0  0  0  0  0  0  0  0  0
   20.7405  -22.9053  -16.5305 O   0  0  0  0  0  0  0  0  0  0  0  0
   21.4629  -20.7415  -12.2450 C   0  0  0  0  0  0  0  0  0  0  0  0
   21.9500  -21.2052  -11.0136 O   0  0  0  0  0  0  0  0  0  0  0  0
   18.5920  -22.2186  -16.3471 O   0  0  0  0  0  0  0  0  0  0  0  0
   20.2474  -20.4295  -12.2738 O   0  0  0  0  0  0  0  0  0  0  0  0
  2  1  1  6
  3  2  1  0
  4  3  1  0
  5  2  1  0
  6  5  2  0
  8  9  1  6
  8  7  1  0
 10  8  1  0
 10 11  1  6
 11  5  1  0
 12 10  1  0
 13 12  2  0
 14 12  1  0
 15 14  1  0
 15 16  1  6
 17 16  1  0
 18 17  1  0
 19 18  2  0
 20 15  1  0
 20 21  1  0
 22 18  1  0
 23 20  2  0
M  END
$$$$
