CVE.pdb
     RDKit          3D

 23 22  0  0  1  0  0  0  0  0999 V2000
   24.2228  -14.0350  -17.6580 N   0  0  0  0  0  0  0  0  0  0  0  0
   24.0669  -13.1557  -16.5406 C   0  0  1  0  0  0  0  0  0  0  0  0
   25.4242  -12.5777  -16.1956 C   0  0  0  0  0  0  0  0  0  0  0  0
   26.5781  -13.8589  -15.6615 S   0  0  0  0  0  0  0  0  0  0  0  0
   23.1871  -11.9816  -16.8800 C   0  0  0  0  0  0  0  0  0  0  0  0
   23.2246  -11.4843  -18.0341 O   0  0  0  0  0  0  0  0  0  0  0  0
   19.5143  -11.9236  -16.8073 C   0  0  0  0  0  0  0  0  0  0  0  0
   19.9977  -10.8225  -15.9270 C   0  0  1  0  0  0  0  0  0  0  0  0
   19.9605  -11.2867  -14.4858 C   0  0  0  0  0  0  0  0  0  0  0  0
   21.3790  -10.3383  -16.2458 C   0  0  2  0  0  0  0  0  0  0  0  0
   22.3077  -11.4083  -15.9380 N   0  0  0  0  0  0  0  0  0  0  0  0
   21.7105   -9.1276  -15.4436 C   0  0  0  0  0  0  0  0  0  0  0  0
   22.1577   -9.1934  -14.2719 O   0  0  0  0  0  0  0  0  0  0  0  0
   21.5299   -7.8288  -15.9837 N   0  0  0  0  0  0  0  0  0  0  0  0
   21.8751   -6.6610  -15.1976 C   0  0  1  0  0  0  0  0  0  0  0  0
   21.8907   -5.4030  -16.0352 C   0  0  0  0  0  0  0  0  0  0  0  0
   22.1994   -4.1855  -15.1708 C   0  0  0  0  0  0  0  0  0  0  0  0
   22.1541   -2.9397  -15.9723 C   0  0  0  0  0  0  0  0  0  0  0  0
   22.0367   -3.0296  -17.2066 O   0  0  0  0  0  0  0  0  0  0  0  0
   20.9293   -6.5703  -14.0716 C   0  0  0  0  0  0  0  0  0  0  0  0
   21.3261   -6.1446  -12.7949 O   0  0  0  0  0  0  0  0  0  0  0  0
   22.2373   -1.6798  -15.4012 O   0  0  0  0  0  0  0  0  0  0  0  0
   19.7173   -6.8705  -14.1996 O   0  0  0  0  0  0  0  0  0  0  0  0
  2  1  1  6
  3  2  1  0
  4  3  1  0
  5  2  1  0
  6  5  2  0
  8  9  1  1
  8  7  1  0
 10  8  1  0
 10 11  1  1
 11  5  1  0
 12 10  1  0
 13 12  2  0
 14 12  1  0
 15 14  1  0
 15 16  1  6
 17 16  1  0
 18 17  1  0
 19 18  2  0
 20 15  1  0
 20 21  1  0
 22 18  1  0
 23 20  2  0
M  END
$$$$
