CVE.pdb
     RDKit          3D

 23 22  0  0  1  0  0  0  0  0999 V2000
   25.2793  -11.7041  -16.7538 N   0  0  0  0  0  0  0  0  0  0  0  0
   25.1438  -10.5641  -15.9005 C   0  0  1  0  0  0  0  0  0  0  0  0
   26.3905   -9.7143  -16.0386 C   0  0  0  0  0  0  0  0  0  0  0  0
   27.7884  -10.4322  -15.1505 S   0  0  0  0  0  0  0  0  0  0  0  0
   23.9934   -9.6899  -16.3249 C   0  0  0  0  0  0  0  0  0  0  0  0
   23.7990   -9.4602  -17.5456 O   0  0  0  0  0  0  0  0  0  0  0  0
   20.5782  -10.3919  -16.1904 C   0  0  0  0  0  0  0  0  0  0  0  0
   20.7277   -9.1315  -15.4090 C   0  0  1  0  0  0  0  0  0  0  0  0
   20.7656   -9.4649  -13.9321 C   0  0  0  0  0  0  0  0  0  0  0  0
   21.9441   -8.3298  -15.7573 C   0  0  2  0  0  0  0  0  0  0  0  0
   23.1107   -9.1090  -15.3909 N   0  0  0  0  0  0  0  0  0  0  0  0
   21.9462   -7.0320  -15.0259 C   0  0  0  0  0  0  0  0  0  0  0  0
   22.4359   -6.9034  -13.8766 O   0  0  0  0  0  0  0  0  0  0  0  0
   21.3840   -5.8693  -15.6117 N   0  0  0  0  0  0  0  0  0  0  0  0
   21.4321   -4.6045  -14.9053 C   0  0  1  0  0  0  0  0  0  0  0  0
   21.6364   -3.4407  -15.8479 C   0  0  0  0  0  0  0  0  0  0  0  0
   21.7802   -2.1375  -15.0696 C   0  0  0  0  0  0  0  0  0  0  0  0
   21.9378   -0.9849  -15.9879 C   0  0  0  0  0  0  0  0  0  0  0  0
   21.9966   -1.2014  -17.2105 O   0  0  0  0  0  0  0  0  0  0  0  0
   20.1953   -4.4728  -14.1158 C   0  0  0  0  0  0  0  0  0  0  0  0
   18.9879   -5.0665  -14.5139 O   0  0  0  0  0  0  0  0  0  0  0  0
   22.0222    0.3231  -15.5383 O   0  0  0  0  0  0  0  0  0  0  0  0
   20.1607   -3.8206  -13.0439 O   0  0  0  0  0  0  0  0  0  0  0  0
  2  1  1  6
  3  2  1  0
  4  3  1  0
  5  2  1  0
  6  5  2  0
  8  9  1  1
  8  7  1  0
 10  8  1  0
 10 11  1  1
 11  5  1  0
 12 10  1  0
 13 12  2  0
 14 12  1  0
 15 14  1  0
 15 16  1  6
 17 16  1  0
 18 17  1  0
 19 18  2  0
 20 15  1  0
 20 21  1  0
 22 18  1  0
 23 20  2  0
M  END
$$$$
