CVE.pdb
     RDKit          3D

 23 22  0  0  1  0  0  0  0  0999 V2000
   21.9527  -12.4006  -18.6895 N   0  0  0  0  0  0  0  0  0  0  0  0
   22.4801  -11.0919  -18.4546 C   0  0  1  0  0  0  0  0  0  0  0  0
   22.3550  -10.2907  -19.7344 C   0  0  0  0  0  0  0  0  0  0  0  0
   23.3565  -10.9935  -21.0615 S   0  0  0  0  0  0  0  0  0  0  0  0
   21.6778  -10.3507  -17.4179 C   0  0  0  0  0  0  0  0  0  0  0  0
   20.4235  -10.3224  -17.4995 O   0  0  0  0  0  0  0  0  0  0  0  0
   21.2851  -10.9933  -13.9026 C   0  0  0  0  0  0  0  0  0  0  0  0
   21.8128   -9.6034  -14.0067 C   0  0  1  0  0  0  0  0  0  0  0  0
   23.3048   -9.6184  -13.7467 C   0  0  0  0  0  0  0  0  0  0  0  0
   21.5564   -8.9427  -15.3264 C   0  0  2  0  0  0  0  0  0  0  0  0
   22.2886   -9.6757  -16.3407 N   0  0  0  0  0  0  0  0  0  0  0  0
   22.0041   -7.5220  -15.2995 C   0  0  0  0  0  0  0  0  0  0  0  0
   23.2048   -7.1876  -15.4535 O   0  0  0  0  0  0  0  0  0  0  0  0
   21.0724   -6.4726  -15.0950 N   0  0  0  0  0  0  0  0  0  0  0  0
   21.4991   -5.0916  -15.2026 C   0  0  1  0  0  0  0  0  0  0  0  0
   21.4087   -4.5836  -16.6232 C   0  0  0  0  0  0  0  0  0  0  0  0
   19.9533   -4.4848  -17.0671 C   0  0  0  0  0  0  0  0  0  0  0  0
   19.8148   -4.8012  -18.5083 C   0  0  0  0  0  0  0  0  0  0  0  0
   20.7552   -4.5229  -19.2721 O   0  0  0  0  0  0  0  0  0  0  0  0
   20.6904   -4.2877  -14.2697 C   0  0  0  0  0  0  0  0  0  0  0  0
   20.9948   -2.9492  -13.9793 O   0  0  0  0  0  0  0  0  0  0  0  0
   18.6799   -5.3944  -19.0379 O   0  0  0  0  0  0  0  0  0  0  0  0
   19.6854   -4.7626  -13.6866 O   0  0  0  0  0  0  0  0  0  0  0  0
  2  1  1  6
  3  2  1  0
  4  3  1  0
  5  2  1  0
  6  5  2  0
  8  9  1  6
  8  7  1  0
 10  8  1  0
 10 11  1  6
 11  5  1  0
 12 10  1  0
 13 12  2  0
 14 12  1  0
 15 14  1  0
 15 16  1  6
 17 16  1  0
 18 17  1  0
 19 18  2  0
 20 15  1  0
 20 21  1  0
 22 18  1  0
 23 20  2  0
M  END
$$$$
