CVE.pdb
     RDKit          3D

 23 22  0  0  1  0  0  0  0  0999 V2000
   26.4939  -13.4551  -17.1176 N   0  0  0  0  0  0  0  0  0  0  0  0
   26.4977  -12.1369  -16.5622 C   0  0  1  0  0  0  0  0  0  0  0  0
   27.4685  -11.2875  -17.3568 C   0  0  0  0  0  0  0  0  0  0  0  0
   29.1673  -11.8700  -17.1750 S   0  0  0  0  0  0  0  0  0  0  0  0
   25.1524  -11.4747  -16.7016 C   0  0  0  0  0  0  0  0  0  0  0  0
   24.5096  -11.5834  -17.7767 O   0  0  0  0  0  0  0  0  0  0  0  0
   22.0437  -12.1822  -15.3515 C   0  0  0  0  0  0  0  0  0  0  0  0
   22.3146  -10.7864  -14.9048 C   0  0  1  0  0  0  0  0  0  0  0  0
   22.8221  -10.8116  -13.4780 C   0  0  0  0  0  0  0  0  0  0  0  0
   23.2985  -10.0453  -15.7572 C   0  0  2  0  0  0  0  0  0  0  0  0
   24.5755  -10.7246  -15.6559 N   0  0  0  0  0  0  0  0  0  0  0  0
   23.4329   -8.6339  -15.2999 C   0  0  0  0  0  0  0  0  0  0  0  0
   24.3173   -8.2669  -14.4873 O   0  0  0  0  0  0  0  0  0  0  0  0
   22.5494   -7.6313  -15.7746 N   0  0  0  0  0  0  0  0  0  0  0  0
   22.7224   -6.2541  -15.3571 C   0  0  1  0  0  0  0  0  0  0  0  0
   22.3164   -5.2820  -16.4409 C   0  0  0  0  0  0  0  0  0  0  0  0
   22.4665   -3.8439  -15.9569 C   0  0  0  0  0  0  0  0  0  0  0  0
   22.0222   -2.8847  -16.9956 C   0  0  0  0  0  0  0  0  0  0  0  0
   21.7863   -3.3120  -18.1388 O   0  0  0  0  0  0  0  0  0  0  0  0
   21.9599   -6.0530  -14.1126 C   0  0  0  0  0  0  0  0  0  0  0  0
   20.8428   -6.8366  -13.7859 O   0  0  0  0  0  0  0  0  0  0  0  0
   21.8595   -1.5319  -16.7434 O   0  0  0  0  0  0  0  0  0  0  0  0
   22.2733   -5.1673  -13.2802 O   0  0  0  0  0  0  0  0  0  0  0  0
  2  1  1  6
  3  2  1  0
  4  3  1  0
  5  2  1  0
  6  5  2  0
  8  9  1  1
  8  7  1  0
 10  8  1  0
 10 11  1  1
 11  5  1  0
 12 10  1  0
 13 12  2  0
 14 12  1  0
 15 14  1  0
 15 16  1  6
 17 16  1  0
 18 17  1  0
 19 18  2  0
 20 15  1  0
 20 21  1  0
 22 18  1  0
 23 20  2  0
M  END
$$$$
