CVE.pdb
     RDKit          3D

 23 22  0  0  1  0  0  0  0  0999 V2000
   23.5660  -10.7520  -16.9884 N   0  0  0  0  0  0  0  0  0  0  0  0
   23.6114   -9.3723  -16.6135 C   0  0  1  0  0  0  0  0  0  0  0  0
   25.0569   -8.9190  -16.6376 C   0  0  0  0  0  0  0  0  0  0  0  0
   25.9828   -9.5686  -15.2309 S   0  0  0  0  0  0  0  0  0  0  0  0
   22.8853   -8.5054  -17.6079 C   0  0  0  0  0  0  0  0  0  0  0  0
   23.1862   -8.5647  -18.8272 O   0  0  0  0  0  0  0  0  0  0  0  0
   19.7538   -8.7215  -18.9771 C   0  0  0  0  0  0  0  0  0  0  0  0
   19.7574   -7.3885  -18.3104 C   0  0  1  0  0  0  0  0  0  0  0  0
   19.1064   -7.5131  -16.9486 C   0  0  0  0  0  0  0  0  0  0  0  0
   21.1182   -6.7846  -18.1448 C   0  0  2  0  0  0  0  0  0  0  0  0
   21.8636   -7.6144  -17.2186 N   0  0  0  0  0  0  0  0  0  0  0  0
   21.0167   -5.3949  -17.6178 C   0  0  0  0  0  0  0  0  0  0  0  0
   21.3853   -5.0818  -16.4588 O   0  0  0  0  0  0  0  0  0  0  0  0
   20.4893   -4.3521  -18.4213 N   0  0  0  0  0  0  0  0  0  0  0  0
   20.4446   -2.9955  -17.9129 C   0  0  1  0  0  0  0  0  0  0  0  0
   21.8280   -2.4502  -17.6416 C   0  0  0  0  0  0  0  0  0  0  0  0
   21.7582   -0.9787  -17.2484 C   0  0  0  0  0  0  0  0  0  0  0  0
   23.1093   -0.4398  -16.9652 C   0  0  0  0  0  0  0  0  0  0  0  0
   24.0107   -1.2323  -16.6413 O   0  0  0  0  0  0  0  0  0  0  0  0
   19.6979   -2.1688  -18.8769 C   0  0  0  0  0  0  0  0  0  0  0  0
   19.0513   -0.9819  -18.5003 O   0  0  0  0  0  0  0  0  0  0  0  0
   23.4078    0.9109  -17.0469 O   0  0  0  0  0  0  0  0  0  0  0  0
   19.6031   -2.4869  -20.0875 O   0  0  0  0  0  0  0  0  0  0  0  0
  2  1  1  6
  3  2  1  0
  4  3  1  0
  5  2  1  0
  6  5  2  0
  8  9  1  1
  8  7  1  0
 10  8  1  0
 10 11  1  1
 11  5  1  0
 12 10  1  0
 13 12  2  0
 14 12  1  0
 15 14  1  0
 15 16  1  6
 17 16  1  0
 18 17  1  0
 19 18  2  0
 20 15  1  0
 20 21  1  0
 22 18  1  0
 23 20  2  0
M  END
$$$$
