SGF.pdb
     RDKit          3D

 22 22  0  0  1  0  0  0  0  0999 V2000
   26.3141  -18.8970  -15.7401 O   0  0  0  0  0  0  0  0  0  0  0  0
   26.6960  -20.1736  -16.0633 C   0  0  0  0  0  0  0  0  0  0  0  0
   27.5679  -20.8220  -15.0217 C   0  0  2  0  0  0  0  0  0  0  0  0
   27.9297  -22.1688  -15.3485 N   0  0  0  0  0  0  0  0  0  0  0  0
   26.9965  -20.7629  -13.6692 C   0  0  0  0  0  0  0  0  0  0  0  0
   25.8263  -21.1592  -13.3946 O   0  0  0  0  0  0  0  0  0  0  0  0
   27.8002  -20.2350  -12.6232 N   0  0  0  0  0  0  0  0  0  0  0  0
   27.2378  -19.4306  -11.5735 C   0  0  0  0  0  0  0  0  0  0  0  0
   26.8666  -20.3537  -10.4543 C   0  0  0  0  0  0  0  0  0  0  0  0
   27.0311  -21.6001  -10.5232 O   0  0  0  0  0  0  0  0  0  0  0  0
   26.3130  -19.8191   -9.2781 N   0  0  0  0  0  0  0  0  0  0  0  0
   25.7780  -20.6834   -8.2213 C   0  0  1  0  0  0  0  0  0  0  0  0
   25.7248  -19.8606   -6.9791 C   0  0  0  0  0  0  0  0  0  0  0  0
   27.0366  -19.8666   -6.3074 C   0  0  0  0  0  0  0  0  0  0  0  0
   27.8967  -18.7793   -6.3095 C   0  0  0  0  0  0  0  0  0  0  0  0
   29.1190  -18.8066   -5.6692 C   0  0  0  0  0  0  0  0  0  0  0  0
   29.4987  -19.9506   -5.0061 C   0  0  0  0  0  0  0  0  0  0  0  0
   28.6682  -21.0471   -4.9853 C   0  0  0  0  0  0  0  0  0  0  0  0
   27.4511  -21.0022   -5.6300 C   0  0  0  0  0  0  0  0  0  0  0  0
   24.4834  -21.2609   -8.6132 C   0  0  0  0  0  0  0  0  0  0  0  0
   23.9618  -22.3426   -7.8765 O   0  0  0  0  0  0  0  0  0  0  0  0
   23.7842  -20.8727   -9.5627 O   0  0  0  0  0  0  0  0  0  0  0  0
  1  2  1  0
  2  3  1  0
  3  5  1  0
  3  4  1  6
  5  7  1  0
  6  5  2  0
  7  8  1  0
  8  9  1  0
  9 11  1  0
  9 10  2  0
 11 12  1  0
 12 13  1  1
 13 14  1  0
 14 19  2  0
 15 16  2  0
 15 14  1  0
 16 17  1  0
 17 18  2  0
 19 18  1  0
 20 12  1  0
 20 21  1  0
 22 20  2  0
M  END
$$$$
