SGF.pdb
     RDKit          3D

 22 22  0  0  1  0  0  0  0  0999 V2000
   28.2817  -16.3727  -17.6842 O   0  0  0  0  0  0  0  0  0  0  0  0
   28.2627  -17.5463  -18.3928 C   0  0  0  0  0  0  0  0  0  0  0  0
   27.4300  -18.6230  -17.7503 C   0  0  2  0  0  0  0  0  0  0  0  0
   26.0247  -18.3497  -17.7933 N   0  0  0  0  0  0  0  0  0  0  0  0
   27.8457  -18.9341  -16.3756 C   0  0  0  0  0  0  0  0  0  0  0  0
   28.9512  -19.4823  -16.0944 O   0  0  0  0  0  0  0  0  0  0  0  0
   26.9605  -18.6016  -15.3150 N   0  0  0  0  0  0  0  0  0  0  0  0
   27.3441  -18.7520  -13.9383 C   0  0  0  0  0  0  0  0  0  0  0  0
   26.4648  -19.8079  -13.3430 C   0  0  0  0  0  0  0  0  0  0  0  0
   25.5557  -20.3800  -13.9998 O   0  0  0  0  0  0  0  0  0  0  0  0
   26.6530  -20.1820  -12.0011 N   0  0  0  0  0  0  0  0  0  0  0  0
   25.8453  -21.2359  -11.3790 C   0  0  1  0  0  0  0  0  0  0  0  0
   26.7102  -21.8940  -10.3584 C   0  0  0  0  0  0  0  0  0  0  0  0
   27.0100  -20.9550   -9.2627 C   0  0  0  0  0  0  0  0  0  0  0  0
   28.2518  -20.3647   -9.0858 C   0  0  0  0  0  0  0  0  0  0  0  0
   28.5079  -19.4842   -8.0543 C   0  0  0  0  0  0  0  0  0  0  0  0
   27.4980  -19.1809   -7.1707 C   0  0  0  0  0  0  0  0  0  0  0  0
   26.2543  -19.7498   -7.3184 C   0  0  0  0  0  0  0  0  0  0  0  0
   26.0163  -20.6270   -8.3543 C   0  0  0  0  0  0  0  0  0  0  0  0
   24.5894  -20.6929  -10.8396 C   0  0  0  0  0  0  0  0  0  0  0  0
   23.4992  -21.5603  -10.6301 O   0  0  0  0  0  0  0  0  0  0  0  0
   24.3928  -19.5039  -10.5418 O   0  0  0  0  0  0  0  0  0  0  0  0
  1  2  1  0
  2  3  1  0
  3  5  1  0
  3  4  1  1
  5  7  1  0
  6  5  2  0
  7  8  1  0
  8  9  1  0
  9 11  1  0
  9 10  2  0
 11 12  1  0
 12 13  1  1
 13 14  1  0
 14 19  2  0
 15 16  2  0
 15 14  1  0
 16 17  1  0
 17 18  2  0
 19 18  1  0
 20 12  1  0
 20 21  1  0
 22 20  2  0
M  END
$$$$
