SGF.pdb
     RDKit          3D

 22 22  0  0  1  0  0  0  0  0999 V2000
   18.0788   -1.9588  -20.1792 O   0  0  0  0  0  0  0  0  0  0  0  0
   17.8464   -2.4150  -18.9073 C   0  0  0  0  0  0  0  0  0  0  0  0
   17.1705   -3.7591  -18.8651 C   0  0  2  0  0  0  0  0  0  0  0  0
   15.8635   -3.7514  -19.4508 N   0  0  0  0  0  0  0  0  0  0  0  0
   17.1197   -4.3401  -17.5163 C   0  0  0  0  0  0  0  0  0  0  0  0
   16.1126   -4.2382  -16.7566 O   0  0  0  0  0  0  0  0  0  0  0  0
   18.2582   -5.0492  -17.0474 N   0  0  0  0  0  0  0  0  0  0  0  0
   18.2915   -5.6393  -15.7374 C   0  0  0  0  0  0  0  0  0  0  0  0
   19.1488   -6.8642  -15.8216 C   0  0  0  0  0  0  0  0  0  0  0  0
   19.5979   -7.3014  -16.9136 O   0  0  0  0  0  0  0  0  0  0  0  0
   19.4703   -7.5596  -14.6431 N   0  0  0  0  0  0  0  0  0  0  0  0
   20.3165   -8.7570  -14.6666 C   0  0  1  0  0  0  0  0  0  0  0  0
   21.4720   -8.4842  -13.7649 C   0  0  0  0  0  0  0  0  0  0  0  0
   22.3149   -7.4136  -14.3266 C   0  0  0  0  0  0  0  0  0  0  0  0
   22.0995   -6.0669  -14.0775 C   0  0  0  0  0  0  0  0  0  0  0  0
   22.9054   -5.0817  -14.6111 C   0  0  0  0  0  0  0  0  0  0  0  0
   23.9585   -5.4463  -15.4178 C   0  0  0  0  0  0  0  0  0  0  0  0
   24.1992   -6.7742  -15.6846 C   0  0  0  0  0  0  0  0  0  0  0  0
   23.3843   -7.7447  -15.1433 C   0  0  0  0  0  0  0  0  0  0  0  0
   19.5466   -9.9576  -14.3073 C   0  0  0  0  0  0  0  0  0  0  0  0
   19.9852  -11.2170  -14.7615 O   0  0  0  0  0  0  0  0  0  0  0  0
   18.5133   -9.9663  -13.6194 O   0  0  0  0  0  0  0  0  0  0  0  0
  1  2  1  0
  2  3  1  0
  3  5  1  0
  3  4  1  1
  5  7  1  0
  6  5  2  0
  7  8  1  0
  8  9  1  0
  9 11  1  0
  9 10  2  0
 11 12  1  0
 12 13  1  1
 13 14  1  0
 14 19  2  0
 15 16  2  0
 15 14  1  0
 16 17  1  0
 17 18  2  0
 19 18  1  0
 20 12  1  0
 20 21  1  0
 22 20  2  0
M  END
$$$$
