SGF.pdb
     RDKit          3D

 22 22  0  0  1  0  0  0  0  0999 V2000
   22.0708    0.7724  -16.5609 O   0  0  0  0  0  0  0  0  0  0  0  0
   21.5767    1.8834  -15.9274 C   0  0  0  0  0  0  0  0  0  0  0  0
   22.6473    2.8000  -15.3992 C   0  0  2  0  0  0  0  0  0  0  0  0
   23.6663    2.1121  -14.6645 N   0  0  0  0  0  0  0  0  0  0  0  0
   22.1147    3.9166  -14.6061 C   0  0  0  0  0  0  0  0  0  0  0  0
   21.2215    4.7047  -15.0336 O   0  0  0  0  0  0  0  0  0  0  0  0
   22.6305    4.1167  -13.2974 N   0  0  0  0  0  0  0  0  0  0  0  0
   22.1455    5.1706  -12.4493 C   0  0  0  0  0  0  0  0  0  0  0  0
   22.5694    4.8478  -11.0498 C   0  0  0  0  0  0  0  0  0  0  0  0
   22.3690    5.6315  -10.0850 O   0  0  0  0  0  0  0  0  0  0  0  0
   23.2161    3.6266  -10.7926 N   0  0  0  0  0  0  0  0  0  0  0  0
   23.7633    3.3132   -9.4687 C   0  0  1  0  0  0  0  0  0  0  0  0
   23.7396    1.8286   -9.3345 C   0  0  0  0  0  0  0  0  0  0  0  0
   24.3087    1.4252   -8.0362 C   0  0  0  0  0  0  0  0  0  0  0  0
   23.5403    1.2160   -6.9014 C   0  0  0  0  0  0  0  0  0  0  0  0
   24.0953    0.8339   -5.6970 C   0  0  0  0  0  0  0  0  0  0  0  0
   25.4569    0.6541   -5.6177 C   0  0  0  0  0  0  0  0  0  0  0  0
   26.2476    0.8538   -6.7255 C   0  0  0  0  0  0  0  0  0  0  0  0
   25.6765    1.2352   -7.9202 C   0  0  0  0  0  0  0  0  0  0  0  0
   25.0959    3.9096   -9.2910 C   0  0  0  0  0  0  0  0  0  0  0  0
   25.9812    3.9533  -10.3860 O   0  0  0  0  0  0  0  0  0  0  0  0
   25.5283    4.3939   -8.2329 O   0  0  0  0  0  0  0  0  0  0  0  0
  1  2  1  0
  2  3  1  0
  3  5  1  0
  3  4  1  1
  5  7  1  0
  6  5  2  0
  7  8  1  0
  8  9  1  0
  9 11  1  0
  9 10  2  0
 11 12  1  0
 12 13  1  6
 13 14  1  0
 14 19  2  0
 15 16  2  0
 15 14  1  0
 16 17  1  0
 17 18  2  0
 19 18  1  0
 20 12  1  0
 20 21  1  0
 22 20  2  0
M  END
$$$$
