SGF.pdb
     RDKit          3D

 22 22  0  0  1  0  0  0  0  0999 V2000
   19.4904   -2.7909  -23.5061 O   0  0  0  0  0  0  0  0  0  0  0  0
   20.4427   -2.3870  -22.6062 C   0  0  0  0  0  0  0  0  0  0  0  0
   20.5205   -0.8927  -22.4434 C   0  0  2  0  0  0  0  0  0  0  0  0
   20.8186   -0.2074  -23.6652 N   0  0  0  0  0  0  0  0  0  0  0  0
   21.4495   -0.4727  -21.3852 C   0  0  0  0  0  0  0  0  0  0  0  0
   22.5807    0.0430  -21.6222 O   0  0  0  0  0  0  0  0  0  0  0  0
   21.0542   -0.6563  -20.0328 N   0  0  0  0  0  0  0  0  0  0  0  0
   21.8788   -0.2179  -18.9406 C   0  0  0  0  0  0  0  0  0  0  0  0
   21.1401   -0.5219  -17.6739 C   0  0  0  0  0  0  0  0  0  0  0  0
   19.9101   -0.7904  -17.6564 O   0  0  0  0  0  0  0  0  0  0  0  0
   21.8365   -0.5098  -16.4530 N   0  0  0  0  0  0  0  0  0  0  0  0
   21.1549   -0.7628  -15.1796 C   0  0  1  0  0  0  0  0  0  0  0  0
   22.0487   -1.6515  -14.3831 C   0  0  0  0  0  0  0  0  0  0  0  0
   22.0951   -2.9970  -14.9828 C   0  0  0  0  0  0  0  0  0  0  0  0
   21.1866   -3.9980  -14.6754 C   0  0  0  0  0  0  0  0  0  0  0  0
   21.2471   -5.2497  -15.2536 C   0  0  0  0  0  0  0  0  0  0  0  0
   22.2420   -5.5151  -16.1659 C   0  0  0  0  0  0  0  0  0  0  0  0
   23.1594   -4.5435  -16.4926 C   0  0  0  0  0  0  0  0  0  0  0  0
   23.0839   -3.2990  -15.9055 C   0  0  0  0  0  0  0  0  0  0  0  0
   20.8068    0.4968  -14.5048 C   0  0  0  0  0  0  0  0  0  0  0  0
   20.0545    0.4540  -13.3144 O   0  0  0  0  0  0  0  0  0  0  0  0
   21.1235    1.6309  -14.8979 O   0  0  0  0  0  0  0  0  0  0  0  0
  1  2  1  0
  2  3  1  0
  3  5  1  0
  3  4  1  6
  5  7  1  0
  6  5  2  0
  7  8  1  0
  8  9  1  0
  9 11  1  0
  9 10  2  0
 11 12  1  0
 12 13  1  1
 13 14  1  0
 14 19  2  0
 15 16  2  0
 15 14  1  0
 16 17  1  0
 17 18  2  0
 19 18  1  0
 20 12  1  0
 20 21  1  0
 22 20  2  0
M  END
$$$$
