SGF.pdb
     RDKit          3D

 22 22  0  0  1  0  0  0  0  0999 V2000
   20.6381  -20.0833  -12.8300 O   0  0  0  0  0  0  0  0  0  0  0  0
   21.6024  -19.6331  -13.6945 C   0  0  0  0  0  0  0  0  0  0  0  0
   22.6423  -20.6691  -14.0275 C   0  0  2  0  0  0  0  0  0  0  0  0
   22.2126  -21.5969  -15.0304 N   0  0  0  0  0  0  0  0  0  0  0  0
   23.1405  -21.3900  -12.8479 C   0  0  0  0  0  0  0  0  0  0  0  0
   22.7257  -22.5376  -12.5122 O   0  0  0  0  0  0  0  0  0  0  0  0
   24.1354  -20.7645  -12.0494 N   0  0  0  0  0  0  0  0  0  0  0  0
   24.6350  -21.3787  -10.8501 C   0  0  0  0  0  0  0  0  0  0  0  0
   25.6384  -20.4408  -10.2532 C   0  0  0  0  0  0  0  0  0  0  0  0
   25.7016  -19.2249  -10.5738 O   0  0  0  0  0  0  0  0  0  0  0  0
   26.5486  -20.9259   -9.2982 N   0  0  0  0  0  0  0  0  0  0  0  0
   27.5487  -20.0505   -8.6790 C   0  0  1  0  0  0  0  0  0  0  0  0
   26.8576  -19.3198   -7.5784 C   0  0  0  0  0  0  0  0  0  0  0  0
   27.6356  -19.4233   -6.3309 C   0  0  0  0  0  0  0  0  0  0  0  0
   28.7343  -18.6251   -6.0518 C   0  0  0  0  0  0  0  0  0  0  0  0
   29.4450  -18.7369   -4.8741 C   0  0  0  0  0  0  0  0  0  0  0  0
   29.0516  -19.6716   -3.9444 C   0  0  0  0  0  0  0  0  0  0  0  0
   27.9656  -20.4792   -4.1909 C   0  0  0  0  0  0  0  0  0  0  0  0
   27.2675  -20.3538   -5.3724 C   0  0  0  0  0  0  0  0  0  0  0  0
   28.7263  -20.8161   -8.2427 C   0  0  0  0  0  0  0  0  0  0  0  0
   30.0023  -20.2258   -8.3332 O   0  0  0  0  0  0  0  0  0  0  0  0
   28.7013  -21.9707   -7.7876 O   0  0  0  0  0  0  0  0  0  0  0  0
  1  2  1  0
  2  3  1  0
  3  5  1  0
  3  4  1  6
  5  7  1  0
  6  5  2  0
  7  8  1  0
  8  9  1  0
  9 11  1  0
  9 10  2  0
 11 12  1  0
 12 13  1  1
 13 14  1  0
 14 19  2  0
 15 16  2  0
 15 14  1  0
 16 17  1  0
 17 18  2  0
 19 18  1  0
 20 12  1  0
 20 21  1  0
 22 20  2  0
M  END
$$$$
