SGF.pdb
     RDKit          3D

 22 22  0  0  1  0  0  0  0  0999 V2000
   18.3274  -22.7411    5.0415 O   0  0  0  0  0  0  0  0  0  0  0  0
   17.8869  -23.8051    4.2975 C   0  0  0  0  0  0  0  0  0  0  0  0
   16.4272  -23.7247    3.9391 C   0  0  2  0  0  0  0  0  0  0  0  0
   15.9537  -24.8821    3.2408 N   0  0  0  0  0  0  0  0  0  0  0  0
   16.0792  -22.5052    3.1966 C   0  0  0  0  0  0  0  0  0  0  0  0
   16.2069  -22.3990    1.9419 O   0  0  0  0  0  0  0  0  0  0  0  0
   15.5757  -21.3952    3.9268 N   0  0  0  0  0  0  0  0  0  0  0  0
   15.1497  -20.1910    3.2685 C   0  0  0  0  0  0  0  0  0  0  0  0
   16.2377  -19.1772    3.4450 C   0  0  0  0  0  0  0  0  0  0  0  0
   17.3537  -19.4646    3.9520 O   0  0  0  0  0  0  0  0  0  0  0  0
   16.0151  -17.8521    3.0324 N   0  0  0  0  0  0  0  0  0  0  0  0
   16.9893  -16.7907    3.3053 C   0  0  1  0  0  0  0  0  0  0  0  0
   16.9802  -15.8845    2.1214 C   0  0  0  0  0  0  0  0  0  0  0  0
   17.9449  -14.7868    2.3126 C   0  0  0  0  0  0  0  0  0  0  0  0
   17.6031  -13.5620    2.8650 C   0  0  0  0  0  0  0  0  0  0  0  0
   18.5253  -12.5500    3.0387 C   0  0  0  0  0  0  0  0  0  0  0  0
   19.8282  -12.7617    2.6510 C   0  0  0  0  0  0  0  0  0  0  0  0
   20.1998  -13.9659    2.0994 C   0  0  0  0  0  0  0  0  0  0  0  0
   19.2657  -14.9654    1.9334 C   0  0  0  0  0  0  0  0  0  0  0  0
   16.6957  -16.1158    4.5786 C   0  0  0  0  0  0  0  0  0  0  0  0
   17.7585  -15.7833    5.4416 O   0  0  0  0  0  0  0  0  0  0  0  0
   15.5632  -15.8012    4.9778 O   0  0  0  0  0  0  0  0  0  0  0  0
  1  2  1  0
  2  3  1  0
  3  5  1  0
  3  4  1  6
  5  7  1  0
  6  5  2  0
  7  8  1  0
  8  9  1  0
  9 11  1  0
  9 10  2  0
 11 12  1  0
 12 13  1  6
 13 14  1  0
 14 19  2  0
 15 16  2  0
 15 14  1  0
 16 17  1  0
 17 18  2  0
 19 18  1  0
 20 12  1  0
 20 21  1  0
 22 20  2  0
M  END
$$$$
