SGF.pdb
     RDKit          3D

 22 22  0  0  1  0  0  0  0  0999 V2000
   14.2568  -11.7654  -19.7028 O   0  0  0  0  0  0  0  0  0  0  0  0
   14.4402  -11.3412  -18.4119 C   0  0  0  0  0  0  0  0  0  0  0  0
   15.7150  -11.8441  -17.7894 C   0  0  2  0  0  0  0  0  0  0  0  0
   15.6893  -13.2483  -17.5084 N   0  0  0  0  0  0  0  0  0  0  0  0
   16.1099  -11.0927  -16.5900 C   0  0  0  0  0  0  0  0  0  0  0  0
   15.5684  -11.2612  -15.4585 O   0  0  0  0  0  0  0  0  0  0  0  0
   17.1499  -10.1322  -16.7116 N   0  0  0  0  0  0  0  0  0  0  0  0
   17.5851   -9.3468  -15.5895 C   0  0  0  0  0  0  0  0  0  0  0  0
   18.7390   -8.5111  -16.0507 C   0  0  0  0  0  0  0  0  0  0  0  0
   19.2336   -8.6188  -17.2035 O   0  0  0  0  0  0  0  0  0  0  0  0
   19.2985   -7.5678  -15.1715 N   0  0  0  0  0  0  0  0  0  0  0  0
   20.3892   -6.6821  -15.5908 C   0  0  1  0  0  0  0  0  0  0  0  0
   19.9583   -5.2903  -15.2742 C   0  0  0  0  0  0  0  0  0  0  0  0
   20.9928   -4.3285  -15.6947 C   0  0  0  0  0  0  0  0  0  0  0  0
   22.0816   -3.9901  -14.9061 C   0  0  0  0  0  0  0  0  0  0  0  0
   23.0409   -3.0898  -15.3233 C   0  0  0  0  0  0  0  0  0  0  0  0
   22.9140   -2.5073  -16.5631 C   0  0  0  0  0  0  0  0  0  0  0  0
   21.8451   -2.8216  -17.3700 C   0  0  0  0  0  0  0  0  0  0  0  0
   20.8966   -3.7229  -16.9374 C   0  0  0  0  0  0  0  0  0  0  0  0
   21.6607   -7.0728  -14.9633 C   0  0  0  0  0  0  0  0  0  0  0  0
   22.8462   -7.0229  -15.7229 O   0  0  0  0  0  0  0  0  0  0  0  0
   21.7923   -7.4549  -13.7896 O   0  0  0  0  0  0  0  0  0  0  0  0
  1  2  1  0
  2  3  1  0
  3  5  1  0
  3  4  1  1
  5  7  1  0
  6  5  2  0
  7  8  1  0
  8  9  1  0
  9 11  1  0
  9 10  2  0
 11 12  1  0
 12 13  1  1
 13 14  1  0
 14 19  2  0
 15 16  2  0
 15 14  1  0
 16 17  1  0
 17 18  2  0
 19 18  1  0
 20 12  1  0
 20 21  1  0
 22 20  2  0
M  END
$$$$
