SGF.pdb
     RDKit          3D

 22 22  0  0  1  0  0  0  0  0999 V2000
   22.5981  -23.3790  -15.5411 O   0  0  0  0  0  0  0  0  0  0  0  0
   23.4076  -22.2730  -15.5765 C   0  0  0  0  0  0  0  0  0  0  0  0
   23.1690  -21.3168  -14.4388 C   0  0  2  0  0  0  0  0  0  0  0  0
   22.1216  -20.3764  -14.7031 N   0  0  0  0  0  0  0  0  0  0  0  0
   24.3856  -20.6148  -14.0069 C   0  0  0  0  0  0  0  0  0  0  0  0
   24.9635  -19.7356  -14.7103 O   0  0  0  0  0  0  0  0  0  0  0  0
   24.9353  -20.9423  -12.7384 N   0  0  0  0  0  0  0  0  0  0  0  0
   26.1409  -20.3253  -12.2576 C   0  0  0  0  0  0  0  0  0  0  0  0
   26.3556  -20.7999  -10.8536 C   0  0  0  0  0  0  0  0  0  0  0  0
   26.2133  -22.0051  -10.5181 O   0  0  0  0  0  0  0  0  0  0  0  0
   26.7304  -19.8733   -9.8652 N   0  0  0  0  0  0  0  0  0  0  0  0
   27.0583  -20.2989   -8.5009 C   0  0  1  0  0  0  0  0  0  0  0  0
   27.9492  -19.2505   -7.9263 C   0  0  0  0  0  0  0  0  0  0  0  0
   28.3366  -19.6093   -6.5503 C   0  0  0  0  0  0  0  0  0  0  0  0
   27.6981  -19.1092   -5.4260 C   0  0  0  0  0  0  0  0  0  0  0  0
   28.0757  -19.4634   -4.1466 C   0  0  0  0  0  0  0  0  0  0  0  0
   29.1208  -20.3422   -3.9793 C   0  0  0  0  0  0  0  0  0  0  0  0
   29.7755  -20.8564   -5.0745 C   0  0  0  0  0  0  0  0  0  0  0  0
   29.3850  -20.4918   -6.3448 C   0  0  0  0  0  0  0  0  0  0  0  0
   25.8399  -20.5460   -7.7151 C   0  0  0  0  0  0  0  0  0  0  0  0
   25.8591  -21.5315   -6.7084 O   0  0  0  0  0  0  0  0  0  0  0  0
   24.7612  -19.9490   -7.8598 O   0  0  0  0  0  0  0  0  0  0  0  0
  1  2  1  0
  2  3  1  0
  3  5  1  0
  3  4  1  6
  5  7  1  0
  6  5  2  0
  7  8  1  0
  8  9  1  0
  9 11  1  0
  9 10  2  0
 11 12  1  0
 12 13  1  1
 13 14  1  0
 14 19  2  0
 15 16  2  0
 15 14  1  0
 16 17  1  0
 17 18  2  0
 19 18  1  0
 20 12  1  0
 20 21  1  0
 22 20  2  0
M  END
$$$$
