SGF.pdb
     RDKit          3D

 22 22  0  0  1  0  0  0  0  0999 V2000
   19.6740  -12.6116  -16.9238 O   0  0  0  0  0  0  0  0  0  0  0  0
   18.7007  -12.1611  -17.7779 C   0  0  0  0  0  0  0  0  0  0  0  0
   19.2166  -11.8180  -19.1496 C   0  0  2  0  0  0  0  0  0  0  0  0
   19.7978  -12.9367  -19.8294 N   0  0  0  0  0  0  0  0  0  0  0  0
   20.1489  -10.6821  -19.1507 C   0  0  0  0  0  0  0  0  0  0  0  0
   21.1962  -10.6474  -19.8605 O   0  0  0  0  0  0  0  0  0  0  0  0
   19.8561   -9.5723  -18.3132 N   0  0  0  0  0  0  0  0  0  0  0  0
   20.6701   -8.3881  -18.3195 C   0  0  0  0  0  0  0  0  0  0  0  0
   20.4449   -7.6849  -17.0167 C   0  0  0  0  0  0  0  0  0  0  0  0
   19.5420   -8.0295  -16.2097 O   0  0  0  0  0  0  0  0  0  0  0  0
   21.2668   -6.5980  -16.6720 N   0  0  0  0  0  0  0  0  0  0  0  0
   21.1186   -5.9016  -15.3900 C   0  0  1  0  0  0  0  0  0  0  0  0
   22.4511   -5.9423  -14.7226 C   0  0  0  0  0  0  0  0  0  0  0  0
   22.8676   -7.3386  -14.5010 C   0  0  0  0  0  0  0  0  0  0  0  0
   22.3052   -8.1549  -13.5319 C   0  0  0  0  0  0  0  0  0  0  0  0
   22.7085   -9.4616  -13.3458 C   0  0  0  0  0  0  0  0  0  0  0  0
   23.7021   -9.9732  -14.1481 C   0  0  0  0  0  0  0  0  0  0  0  0
   24.2808   -9.1891  -15.1190 C   0  0  0  0  0  0  0  0  0  0  0  0
   23.8657   -7.8864  -15.2909 C   0  0  0  0  0  0  0  0  0  0  0  0
   20.5860   -4.5442  -15.5823 C   0  0  0  0  0  0  0  0  0  0  0  0
   20.1848   -3.7973  -14.4571 O   0  0  0  0  0  0  0  0  0  0  0  0
   20.4523   -3.9761  -16.6778 O   0  0  0  0  0  0  0  0  0  0  0  0
  1  2  1  0
  2  3  1  0
  3  5  1  0
  3  4  1  1
  5  7  1  0
  6  5  2  0
  7  8  1  0
  8  9  1  0
  9 11  1  0
  9 10  2  0
 11 12  1  0
 12 13  1  6
 13 14  1  0
 14 19  2  0
 15 16  2  0
 15 14  1  0
 16 17  1  0
 17 18  2  0
 19 18  1  0
 20 12  1  0
 20 21  1  0
 22 20  2  0
M  END
$$$$
