SGF.pdb
     RDKit          3D

 22 22  0  0  1  0  0  0  0  0999 V2000
   23.1829  -15.7001  -19.4928 O   0  0  0  0  0  0  0  0  0  0  0  0
   23.6453  -14.4096  -19.4653 C   0  0  0  0  0  0  0  0  0  0  0  0
   23.1940  -13.5843  -20.6403 C   0  0  2  0  0  0  0  0  0  0  0  0
   23.6584  -14.0913  -21.8968 N   0  0  0  0  0  0  0  0  0  0  0  0
   23.5304  -12.1598  -20.5113 C   0  0  0  0  0  0  0  0  0  0  0  0
   24.4764  -11.6118  -21.1490 O   0  0  0  0  0  0  0  0  0  0  0  0
   22.7536  -11.3638  -19.6271 N   0  0  0  0  0  0  0  0  0  0  0  0
   23.0036   -9.9584  -19.4618 C   0  0  0  0  0  0  0  0  0  0  0  0
   22.8916   -9.6542  -17.9997 C   0  0  0  0  0  0  0  0  0  0  0  0
   22.4613  -10.4936  -17.1657 O   0  0  0  0  0  0  0  0  0  0  0  0
   23.2786   -8.3871  -17.5303 N   0  0  0  0  0  0  0  0  0  0  0  0
   23.1762   -8.0315  -16.1114 C   0  0  1  0  0  0  0  0  0  0  0  0
   24.5253   -7.5580  -15.6887 C   0  0  0  0  0  0  0  0  0  0  0  0
   25.5220   -8.6277  -15.8744 C   0  0  0  0  0  0  0  0  0  0  0  0
   25.5936   -9.7492  -15.0625 C   0  0  0  0  0  0  0  0  0  0  0  0
   26.5332  -10.7409  -15.2586 C   0  0  0  0  0  0  0  0  0  0  0  0
   27.4301  -10.6140  -16.2940 C   0  0  0  0  0  0  0  0  0  0  0  0
   27.3858   -9.5131  -17.1177 C   0  0  0  0  0  0  0  0  0  0  0  0
   26.4407   -8.5325  -16.9074 C   0  0  0  0  0  0  0  0  0  0  0  0
   22.1005   -7.0543  -15.8859 C   0  0  0  0  0  0  0  0  0  0  0  0
   21.5430   -6.9305  -14.5979 O   0  0  0  0  0  0  0  0  0  0  0  0
   21.6217   -6.3040  -16.7512 O   0  0  0  0  0  0  0  0  0  0  0  0
  1  2  1  0
  2  3  1  0
  3  5  1  0
  3  4  1  6
  5  7  1  0
  6  5  2  0
  7  8  1  0
  8  9  1  0
  9 11  1  0
  9 10  2  0
 11 12  1  0
 12 13  1  6
 13 14  1  0
 14 19  2  0
 15 16  2  0
 15 14  1  0
 16 17  1  0
 17 18  2  0
 19 18  1  0
 20 12  1  0
 20 21  1  0
 22 20  2  0
M  END
$$$$
