SGF.pdb
     RDKit          3D

 22 22  0  0  1  0  0  0  0  0999 V2000
   29.4417  -23.8069  -20.6499 O   0  0  0  0  0  0  0  0  0  0  0  0
   29.2884  -22.4488  -20.7591 C   0  0  0  0  0  0  0  0  0  0  0  0
   28.7600  -21.8010  -19.5075 C   0  0  2  0  0  0  0  0  0  0  0  0
   28.8640  -20.3726  -19.5250 N   0  0  0  0  0  0  0  0  0  0  0  0
   29.3598  -22.3394  -18.2788 C   0  0  0  0  0  0  0  0  0  0  0  0
   30.3062  -21.7677  -17.6629 O   0  0  0  0  0  0  0  0  0  0  0  0
   28.8493  -23.5603  -17.7616 N   0  0  0  0  0  0  0  0  0  0  0  0
   29.4180  -24.1817  -16.5972 C   0  0  0  0  0  0  0  0  0  0  0  0
   28.7222  -25.4940  -16.4071 C   0  0  0  0  0  0  0  0  0  0  0  0
   27.7970  -25.6534  -15.5681 O   0  0  0  0  0  0  0  0  0  0  0  0
   29.1087  -26.5959  -17.1896 N   0  0  0  0  0  0  0  0  0  0  0  0
   28.4502  -27.8993  -17.0559 C   0  0  1  0  0  0  0  0  0  0  0  0
   27.6661  -28.1147  -18.3055 C   0  0  0  0  0  0  0  0  0  0  0  0
   26.5159  -27.1943  -18.3502 C   0  0  0  0  0  0  0  0  0  0  0  0
   25.4377  -27.2824  -17.4832 C   0  0  0  0  0  0  0  0  0  0  0  0
   24.3733  -26.4058  -17.5410 C   0  0  0  0  0  0  0  0  0  0  0  0
   24.3805  -25.4103  -18.4905 C   0  0  0  0  0  0  0  0  0  0  0  0
   25.4354  -25.2957  -19.3659 C   0  0  0  0  0  0  0  0  0  0  0  0
   26.4900  -26.1798  -19.2938 C   0  0  0  0  0  0  0  0  0  0  0  0
   29.4279  -28.9607  -16.7716 C   0  0  0  0  0  0  0  0  0  0  0  0
   28.9689  -30.2684  -16.5185 O   0  0  0  0  0  0  0  0  0  0  0  0
   30.6592  -28.8082  -16.7324 O   0  0  0  0  0  0  0  0  0  0  0  0
  1  2  1  0
  2  3  1  0
  3  5  1  0
  3  4  1  6
  5  7  1  0
  6  5  2  0
  7  8  1  0
  8  9  1  0
  9 11  1  0
  9 10  2  0
 11 12  1  0
 12 13  1  6
 13 14  1  0
 14 19  2  0
 15 16  2  0
 15 14  1  0
 16 17  1  0
 17 18  2  0
 19 18  1  0
 20 12  1  0
 20 21  1  0
 22 20  2  0
M  END
$$$$
