SGF.pdb
     RDKit          3D

 22 22  0  0  1  0  0  0  0  0999 V2000
   14.8755  -12.0396  -16.8294 O   0  0  0  0  0  0  0  0  0  0  0  0
   15.3909  -11.9669  -15.5609 C   0  0  0  0  0  0  0  0  0  0  0  0
   16.8260  -11.5148  -15.5203 C   0  0  2  0  0  0  0  0  0  0  0  0
   17.7172  -12.4059  -16.2009 N   0  0  0  0  0  0  0  0  0  0  0  0
   17.3122  -11.2512  -14.1589 C   0  0  0  0  0  0  0  0  0  0  0  0
   18.0174  -12.0738  -13.5047 O   0  0  0  0  0  0  0  0  0  0  0  0
   16.9717  -10.0122  -13.5524 N   0  0  0  0  0  0  0  0  0  0  0  0
   17.4376   -9.6633  -12.2385 C   0  0  0  0  0  0  0  0  0  0  0  0
   16.9546   -8.2759  -11.9478 C   0  0  0  0  0  0  0  0  0  0  0  0
   16.5446   -7.4998  -12.8504 O   0  0  0  0  0  0  0  0  0  0  0  0
   16.9547   -7.8128  -10.6206 N   0  0  0  0  0  0  0  0  0  0  0  0
   16.5327   -6.4492  -10.2849 C   0  0  1  0  0  0  0  0  0  0  0  0
   15.0681   -6.3744  -10.5534 C   0  0  0  0  0  0  0  0  0  0  0  0
   14.3343   -7.2519   -9.6241 C   0  0  0  0  0  0  0  0  0  0  0  0
   14.2240   -8.6226   -9.8000 C   0  0  0  0  0  0  0  0  0  0  0  0
   13.5352   -9.4253   -8.9134 C   0  0  0  0  0  0  0  0  0  0  0  0
   12.9371   -8.8475   -7.8175 C   0  0  0  0  0  0  0  0  0  0  0  0
   13.0277   -7.4900   -7.6141 C   0  0  0  0  0  0  0  0  0  0  0  0
   13.7196   -6.7037   -8.5097 C   0  0  0  0  0  0  0  0  0  0  0  0
   16.9074   -6.1025   -8.9056 C   0  0  0  0  0  0  0  0  0  0  0  0
   16.6729   -4.7945   -8.4375 O   0  0  0  0  0  0  0  0  0  0  0  0
   17.4276   -6.8787   -8.0883 O   0  0  0  0  0  0  0  0  0  0  0  0
  1  2  1  0
  2  3  1  0
  3  5  1  0
  3  4  1  1
  5  7  1  0
  6  5  2  0
  7  8  1  0
  8  9  1  0
  9 11  1  0
  9 10  2  0
 11 12  1  0
 12 13  1  1
 13 14  1  0
 14 19  2  0
 15 16  2  0
 15 14  1  0
 16 17  1  0
 17 18  2  0
 19 18  1  0
 20 12  1  0
 20 21  1  0
 22 20  2  0
M  END
$$$$
