LIL.pdb
     RDKit          3D

 25 24  0  0  1  0  0  0  0  0999 V2000
    9.2092  -20.9695   20.4196 C   0  0  0  0  0  0  0  0  0  0  0  0
   10.3753  -20.7765   21.3634 C   0  0  2  0  0  0  0  0  0  0  0  0
   10.1373  -21.6925   22.5486 C   0  0  0  0  0  0  0  0  0  0  0  0
   10.5104  -19.3744   21.8445 C   0  0  0  0  0  0  0  0  0  0  0  0
   10.3802  -18.3464   20.7541 C   0  0  2  0  0  0  0  0  0  0  0  0
   11.6061  -18.3448   19.9779 N   0  0  0  0  0  0  0  0  0  0  0  0
   10.1798  -16.9708   21.2700 C   0  0  0  0  0  0  0  0  0  0  0  0
   11.1430  -16.2607   21.6548 O   0  0  0  0  0  0  0  0  0  0  0  0
    7.4324  -12.9624   18.8249 C   0  0  0  0  0  0  0  0  0  0  0  0
    8.3215  -13.7911   19.6857 C   0  0  0  0  0  0  0  0  0  0  0  0
    7.8263  -14.1617   21.0210 C   0  0  2  0  0  0  0  0  0  0  0  0
    7.5275  -12.8896   21.7861 C   0  0  0  0  0  0  0  0  0  0  0  0
    8.6173  -15.0822   21.8623 C   0  0  2  0  0  0  0  0  0  0  0  0
    8.8521  -16.4012   21.3453 N   0  0  0  0  0  0  0  0  0  0  0  0
    8.1579  -15.1178   23.2869 C   0  0  0  0  0  0  0  0  0  0  0  0
    7.0598  -15.6502   23.5914 O   0  0  0  0  0  0  0  0  0  0  0  0
    7.8844  -12.0409   26.8900 C   0  0  0  0  0  0  0  0  0  0  0  0
    6.9671  -12.7378   25.8518 C   0  0  2  0  0  0  0  0  0  0  0  0
    5.5449  -12.2695   26.0990 C   0  0  0  0  0  0  0  0  0  0  0  0
    7.1845  -14.2010   26.0606 C   0  0  0  0  0  0  0  0  0  0  0  0
    8.5219  -14.7471   25.7624 C   0  0  2  0  0  0  0  0  0  0  0  0
    8.9120  -14.5673   24.3553 N   0  0  0  0  0  0  0  0  0  0  0  0
    8.6871  -16.1478   26.1650 C   0  0  0  0  0  0  0  0  0  0  0  0
    7.9684  -17.0365   25.6878 O   0  0  0  0  0  0  0  0  0  0  0  0
    9.6583  -16.4746   27.0919 O   0  0  0  0  0  0  0  0  0  0  0  0
  2  1  1  6
  3  2  1  0
  4  2  1  0
  4  5  1  0
  5  6  1  1
  7  5  1  0
  7  8  2  0
  9 10  1  0
 11 13  1  0
 11 10  1  0
 11 12  1  1
 13 14  1  6
 14  7  1  0
 15 13  1  0
 16 15  2  0
 18 17  1  1
 18 20  1  0
 19 18  1  0
 21 20  1  6
 21 23  1  0
 21 22  1  0
 22 15  1  0
 23 25  1  0
 24 23  2  0
M  END
$$$$
