LIL.pdb
     RDKit          3D

 25 24  0  0  1  0  0  0  0  0999 V2000
    5.6620  -12.4616   25.2869 C   0  0  0  0  0  0  0  0  0  0  0  0
    5.7233  -13.1408   26.6370 C   0  0  2  0  0  0  0  0  0  0  0  0
    6.5621  -12.2538   27.5372 C   0  0  0  0  0  0  0  0  0  0  0  0
    6.3308  -14.4985   26.5798 C   0  0  0  0  0  0  0  0  0  0  0  0
    5.8784  -15.3134   25.3992 C   0  0  2  0  0  0  0  0  0  0  0  0
    5.2416  -16.5201   25.8930 N   0  0  0  0  0  0  0  0  0  0  0  0
    6.9941  -15.7301   24.5160 C   0  0  0  0  0  0  0  0  0  0  0  0
    7.4395  -16.9056   24.5210 O   0  0  0  0  0  0  0  0  0  0  0  0
    8.0091  -12.4363   20.0924 C   0  0  0  0  0  0  0  0  0  0  0  0
    7.8049  -13.7273   20.8064 C   0  0  0  0  0  0  0  0  0  0  0  0
    8.9364  -14.2676   21.5765 C   0  0  2  0  0  0  0  0  0  0  0  0
    9.8898  -14.9396   20.6108 C   0  0  0  0  0  0  0  0  0  0  0  0
    8.6770  -15.1546   22.7283 C   0  0  2  0  0  0  0  0  0  0  0  0
    7.6085  -14.7819   23.6123 N   0  0  0  0  0  0  0  0  0  0  0  0
    9.9190  -15.5187   23.4811 C   0  0  0  0  0  0  0  0  0  0  0  0
   10.9461  -15.9094   22.8692 O   0  0  0  0  0  0  0  0  0  0  0  0
   11.0356  -13.0620   26.8010 C   0  0  0  0  0  0  0  0  0  0  0  0
   10.3573  -14.2889   27.4641 C   0  0  2  0  0  0  0  0  0  0  0  0
   10.3122  -14.0431   28.9610 C   0  0  0  0  0  0  0  0  0  0  0  0
   11.1858  -15.4616   27.0519 C   0  0  0  0  0  0  0  0  0  0  0  0
   11.2514  -15.7862   25.6145 C   0  0  2  0  0  0  0  0  0  0  0  0
   10.0133  -15.4483   24.8951 N   0  0  0  0  0  0  0  0  0  0  0  0
   11.6390  -17.1745   25.3432 C   0  0  0  0  0  0  0  0  0  0  0  0
   12.7333  -17.6154   25.7204 O   0  0  0  0  0  0  0  0  0  0  0  0
   10.7682  -17.9973   24.6548 O   0  0  0  0  0  0  0  0  0  0  0  0
  2  1  1  6
  3  2  1  0
  4  2  1  0
  4  5  1  0
  5  6  1  1
  7  5  1  0
  7  8  2  0
  9 10  1  0
 11 13  1  0
 11 10  1  0
 11 12  1  6
 13 14  1  1
 14  7  1  0
 15 13  1  0
 16 15  2  0
 18 17  1  6
 18 20  1  0
 19 18  1  0
 21 20  1  1
 21 23  1  0
 21 22  1  0
 22 15  1  0
 23 25  1  0
 24 23  2  0
M  END
$$$$
