LIL.pdb
     RDKit          3D

 25 24  0  0  1  0  0  0  0  0999 V2000
    4.9349  -20.2133   23.8128 C   0  0  0  0  0  0  0  0  0  0  0  0
    6.3500  -20.7413   23.8940 C   0  0  2  0  0  0  0  0  0  0  0  0
    6.5955  -21.1188   25.3424 C   0  0  0  0  0  0  0  0  0  0  0  0
    7.3697  -19.7452   23.4657 C   0  0  0  0  0  0  0  0  0  0  0  0
    7.0190  -19.0329   22.1880 C   0  0  2  0  0  0  0  0  0  0  0  0
    7.2251  -19.9491   21.0819 N   0  0  0  0  0  0  0  0  0  0  0  0
    7.8595  -17.8377   21.9366 C   0  0  0  0  0  0  0  0  0  0  0  0
    9.0481  -17.9352   21.5391 O   0  0  0  0  0  0  0  0  0  0  0  0
    6.7004  -13.0807   19.3052 C   0  0  0  0  0  0  0  0  0  0  0  0
    7.4105  -14.2219   19.9467 C   0  0  0  0  0  0  0  0  0  0  0  0
    7.6311  -14.1581   21.4002 C   0  0  2  0  0  0  0  0  0  0  0  0
    8.4921  -12.9482   21.6966 C   0  0  0  0  0  0  0  0  0  0  0  0
    8.1607  -15.3400   22.1097 C   0  0  2  0  0  0  0  0  0  0  0  0
    7.3271  -16.5087   22.1450 N   0  0  0  0  0  0  0  0  0  0  0  0
    8.7169  -15.0137   23.4610 C   0  0  0  0  0  0  0  0  0  0  0  0
    9.7567  -14.3149   23.5727 O   0  0  0  0  0  0  0  0  0  0  0  0
    8.2186  -11.9037   26.1280 C   0  0  0  0  0  0  0  0  0  0  0  0
    7.1806  -13.0508   26.0209 C   0  0  2  0  0  0  0  0  0  0  0  0
    5.8745  -12.5533   26.6124 C   0  0  0  0  0  0  0  0  0  0  0  0
    7.7947  -14.2007   26.7505 C   0  0  0  0  0  0  0  0  0  0  0  0
    8.6713  -15.1097   25.9883 C   0  0  2  0  0  0  0  0  0  0  0  0
    8.1223  -15.4608   24.6692 N   0  0  0  0  0  0  0  0  0  0  0  0
    9.0452  -16.3207   26.7264 C   0  0  0  0  0  0  0  0  0  0  0  0
    8.7711  -17.4453   26.2855 O   0  0  0  0  0  0  0  0  0  0  0  0
    9.7103  -16.1996   27.9315 O   0  0  0  0  0  0  0  0  0  0  0  0
  2  1  1  1
  3  2  1  0
  4  2  1  0
  4  5  1  0
  5  6  1  6
  7  5  1  0
  7  8  2  0
  9 10  1  0
 11 13  1  0
 11 10  1  0
 11 12  1  6
 13 14  1  1
 14  7  1  0
 15 13  1  0
 16 15  2  0
 18 17  1  1
 18 20  1  0
 19 18  1  0
 21 20  1  1
 21 23  1  0
 21 22  1  0
 22 15  1  0
 23 25  1  0
 24 23  2  0
M  END
$$$$
