LIL.pdb
     RDKit          3D

 25 24  0  0  1  0  0  0  0  0999 V2000
    9.2816  -17.4419   17.5984 C   0  0  0  0  0  0  0  0  0  0  0  0
    8.0463  -16.6083   17.8569 C   0  0  2  0  0  0  0  0  0  0  0  0
    7.8528  -15.7213   16.6418 C   0  0  0  0  0  0  0  0  0  0  0  0
    8.1604  -15.7582   19.0734 C   0  0  0  0  0  0  0  0  0  0  0  0
    8.4894  -16.5307   20.3215 C   0  0  2  0  0  0  0  0  0  0  0  0
    7.3215  -17.3024   20.7032 N   0  0  0  0  0  0  0  0  0  0  0  0
    8.8416  -15.6614   21.4698 C   0  0  0  0  0  0  0  0  0  0  0  0
    9.7369  -14.7829   21.3857 O   0  0  0  0  0  0  0  0  0  0  0  0
    6.5626  -12.4337   26.0901 C   0  0  0  0  0  0  0  0  0  0  0  0
    7.6972  -13.2120   25.5198 C   0  0  0  0  0  0  0  0  0  0  0  0
    7.3911  -14.1906   24.4644 C   0  0  2  0  0  0  0  0  0  0  0  0
    6.2932  -15.1039   24.9682 C   0  0  0  0  0  0  0  0  0  0  0  0
    8.4823  -14.9918   23.8743 C   0  0  2  0  0  0  0  0  0  0  0  0
    8.1551  -15.8029   22.7355 N   0  0  0  0  0  0  0  0  0  0  0  0
    9.2670  -15.7573   24.8942 C   0  0  0  0  0  0  0  0  0  0  0  0
    8.8172  -16.8293   25.3742 O   0  0  0  0  0  0  0  0  0  0  0  0
    9.4663  -15.0153   29.8868 C   0  0  0  0  0  0  0  0  0  0  0  0
   10.8435  -14.9891   29.1743 C   0  0  2  0  0  0  0  0  0  0  0  0
   11.7032  -13.9443   29.8616 C   0  0  0  0  0  0  0  0  0  0  0  0
   10.5352  -14.6958   27.7423 C   0  0  0  0  0  0  0  0  0  0  0  0
   11.0078  -15.6552   26.7265 C   0  0  2  0  0  0  0  0  0  0  0  0
   10.5339  -15.3328   25.3714 N   0  0  0  0  0  0  0  0  0  0  0  0
   10.7084  -17.0530   27.0550 C   0  0  0  0  0  0  0  0  0  0  0  0
    9.5523  -17.4118   27.3172 O   0  0  0  0  0  0  0  0  0  0  0  0
   11.7348  -17.9779   27.0729 O   0  0  0  0  0  0  0  0  0  0  0  0
  2  1  1  6
  3  2  1  0
  4  2  1  0
  4  5  1  0
  5  6  1  1
  7  5  1  0
  7  8  2  0
  9 10  1  0
 11 13  1  0
 11 10  1  0
 11 12  1  1
 13 14  1  6
 14  7  1  0
 15 13  1  0
 16 15  2  0
 18 17  1  1
 18 20  1  0
 19 18  1  0
 21 20  1  1
 21 23  1  0
 21 22  1  0
 22 15  1  0
 23 25  1  0
 24 23  2  0
M  END
$$$$
