LIL.pdb
     RDKit          3D

 25 24  0  0  1  0  0  0  0  0999 V2000
   10.7901  -18.7886   18.7828 C   0  0  0  0  0  0  0  0  0  0  0  0
    9.8251  -17.6364   18.6121 C   0  0  2  0  0  0  0  0  0  0  0  0
   10.2115  -16.9264   17.3286 C   0  0  0  0  0  0  0  0  0  0  0  0
    9.8673  -16.6681   19.7417 C   0  0  0  0  0  0  0  0  0  0  0  0
    9.5836  -17.2903   21.0816 C   0  0  2  0  0  0  0  0  0  0  0  0
    8.2197  -17.7852   21.0768 N   0  0  0  0  0  0  0  0  0  0  0  0
    9.7042  -16.3325   22.2070 C   0  0  0  0  0  0  0  0  0  0  0  0
   10.7366  -15.6355   22.3761 O   0  0  0  0  0  0  0  0  0  0  0  0
    6.4316  -12.4750   25.7349 C   0  0  0  0  0  0  0  0  0  0  0  0
    7.6403  -13.3147   25.5061 C   0  0  0  0  0  0  0  0  0  0  0  0
    7.5387  -14.4026   24.5204 C   0  0  2  0  0  0  0  0  0  0  0  0
    6.3370  -15.2531   24.8747 C   0  0  0  0  0  0  0  0  0  0  0  0
    8.7093  -15.2656   24.2639 C   0  0  2  0  0  0  0  0  0  0  0  0
    8.6220  -16.1721   23.1536 N   0  0  0  0  0  0  0  0  0  0  0  0
    9.2198  -15.9450   25.4966 C   0  0  0  0  0  0  0  0  0  0  0  0
    8.5302  -16.8242   26.0741 O   0  0  0  0  0  0  0  0  0  0  0  0
   11.5471  -13.4210   28.1058 C   0  0  0  0  0  0  0  0  0  0  0  0
   10.2322  -14.1818   28.4171 C   0  0  2  0  0  0  0  0  0  0  0  0
    9.6421  -13.5921   29.6848 C   0  0  0  0  0  0  0  0  0  0  0  0
   10.6299  -15.6176   28.5265 C   0  0  0  0  0  0  0  0  0  0  0  0
   10.9683  -16.3343   27.2825 C   0  0  2  0  0  0  0  0  0  0  0  0
   10.4802  -15.6477   26.0763 N   0  0  0  0  0  0  0  0  0  0  0  0
   10.5440  -17.7383   27.2799 C   0  0  0  0  0  0  0  0  0  0  0  0
    9.7039  -18.1482   26.4673 O   0  0  0  0  0  0  0  0  0  0  0  0
   11.0908  -18.6114   28.2008 O   0  0  0  0  0  0  0  0  0  0  0  0
  2  1  1  1
  3  2  1  0
  4  2  1  0
  4  5  1  0
  5  6  1  6
  7  5  1  0
  7  8  2  0
  9 10  1  0
 11 13  1  0
 11 10  1  0
 11 12  1  1
 13 14  1  6
 14  7  1  0
 15 13  1  0
 16 15  2  0
 18 17  1  1
 18 20  1  0
 19 18  1  0
 21 20  1  1
 21 23  1  0
 21 22  1  0
 22 15  1  0
 23 25  1  0
 24 23  2  0
M  END
$$$$
