LIL.pdb
     RDKit          3D

 25 24  0  0  1  0  0  0  0  0999 V2000
    5.8500  -19.9916   28.0554 C   0  0  0  0  0  0  0  0  0  0  0  0
    6.9373  -20.5022   27.1362 C   0  0  2  0  0  0  0  0  0  0  0  0
    8.0199  -21.0904   28.0208 C   0  0  0  0  0  0  0  0  0  0  0  0
    7.5263  -19.4358   26.2810 C   0  0  0  0  0  0  0  0  0  0  0  0
    6.5211  -18.7407   25.4039 C   0  0  2  0  0  0  0  0  0  0  0  0
    6.1249  -19.6547   24.3489 N   0  0  0  0  0  0  0  0  0  0  0  0
    7.0578  -17.5202   24.7553 C   0  0  0  0  0  0  0  0  0  0  0  0
    7.5377  -17.5437   23.5936 O   0  0  0  0  0  0  0  0  0  0  0  0
    5.3357  -12.6209   26.5243 C   0  0  0  0  0  0  0  0  0  0  0  0
    5.8607  -13.4707   25.4195 C   0  0  0  0  0  0  0  0  0  0  0  0
    7.2992  -13.7810   25.4220 C   0  0  2  0  0  0  0  0  0  0  0  0
    8.0210  -12.6905   24.6586 C   0  0  0  0  0  0  0  0  0  0  0  0
    7.7596  -15.1071   24.9634 C   0  0  2  0  0  0  0  0  0  0  0  0
    7.0436  -16.2521   25.4515 N   0  0  0  0  0  0  0  0  0  0  0  0
    9.2413  -15.2874   25.0803 C   0  0  0  0  0  0  0  0  0  0  0  0
   10.0249  -14.6356   24.3433 O   0  0  0  0  0  0  0  0  0  0  0  0
   11.0552  -13.4718   27.6308 C   0  0  0  0  0  0  0  0  0  0  0  0
   10.7913  -14.8480   28.2952 C   0  0  2  0  0  0  0  0  0  0  0  0
   11.0753  -14.7102   29.7796 C   0  0  0  0  0  0  0  0  0  0  0  0
   11.6867  -15.8046   27.5776 C   0  0  0  0  0  0  0  0  0  0  0  0
   11.2944  -16.2277   26.2201 C   0  0  2  0  0  0  0  0  0  0  0  0
    9.8396  -16.1818   26.0051 N   0  0  0  0  0  0  0  0  0  0  0  0
   11.8278  -17.5391   25.8368 C   0  0  0  0  0  0  0  0  0  0  0  0
   13.0461  -17.7617   25.8575 O   0  0  0  0  0  0  0  0  0  0  0  0
   10.9547  -18.5360   25.4457 O   0  0  0  0  0  0  0  0  0  0  0  0
  2  1  1  1
  3  2  1  0
  4  2  1  0
  4  5  1  0
  5  6  1  6
  7  5  1  0
  7  8  2  0
  9 10  1  0
 11 13  1  0
 11 10  1  0
 11 12  1  6
 13 14  1  1
 14  7  1  0
 15 13  1  0
 16 15  2  0
 18 17  1  6
 18 20  1  0
 19 18  1  0
 21 20  1  1
 21 23  1  0
 21 22  1  0
 22 15  1  0
 23 25  1  0
 24 23  2  0
M  END
$$$$
