LIL.pdb
     RDKit          3D

 25 24  0  0  1  0  0  0  0  0999 V2000
    8.6693  -21.1479   18.0266 C   0  0  0  0  0  0  0  0  0  0  0  0
    8.2945  -20.6470   19.4037 C   0  0  2  0  0  0  0  0  0  0  0  0
    6.8334  -20.9947   19.6150 C   0  0  0  0  0  0  0  0  0  0  0  0
    8.4782  -19.1782   19.5600 C   0  0  0  0  0  0  0  0  0  0  0  0
    8.3098  -18.6954   20.9747 C   0  0  2  0  0  0  0  0  0  0  0  0
    6.8907  -18.6289   21.2697 N   0  0  0  0  0  0  0  0  0  0  0  0
    8.8739  -17.3430   21.2007 C   0  0  0  0  0  0  0  0  0  0  0  0
   10.0948  -17.0971   21.0293 O   0  0  0  0  0  0  0  0  0  0  0  0
    6.7887  -12.6883   19.1498 C   0  0  0  0  0  0  0  0  0  0  0  0
    7.7213  -13.6927   19.7327 C   0  0  0  0  0  0  0  0  0  0  0  0
    7.7547  -13.8232   21.1980 C   0  0  2  0  0  0  0  0  0  0  0  0
    8.1896  -12.4957   21.7826 C   0  0  0  0  0  0  0  0  0  0  0  0
    8.5246  -14.9222   21.8146 C   0  0  2  0  0  0  0  0  0  0  0  0
    8.0227  -16.2550   21.6306 N   0  0  0  0  0  0  0  0  0  0  0  0
    8.8857  -14.6573   23.2434 C   0  0  0  0  0  0  0  0  0  0  0  0
    9.5677  -13.6470   23.5537 O   0  0  0  0  0  0  0  0  0  0  0  0
    7.7683  -12.3011   27.5235 C   0  0  0  0  0  0  0  0  0  0  0  0
    7.6920  -12.9777   26.1302 C   0  0  2  0  0  0  0  0  0  0  0  0
    6.4001  -12.5352   25.4681 C   0  0  0  0  0  0  0  0  0  0  0  0
    7.7791  -14.4437   26.4042 C   0  0  0  0  0  0  0  0  0  0  0  0
    8.8301  -15.2118   25.7107 C   0  0  2  0  0  0  0  0  0  0  0  0
    8.4922  -15.5068   24.3094 N   0  0  0  0  0  0  0  0  0  0  0  0
    9.2205  -16.4389   26.4128 C   0  0  0  0  0  0  0  0  0  0  0  0
    9.5156  -16.4179   27.6156 O   0  0  0  0  0  0  0  0  0  0  0  0
    9.2602  -17.6322   25.7174 O   0  0  0  0  0  0  0  0  0  0  0  0
  2  1  1  6
  3  2  1  0
  4  2  1  0
  4  5  1  0
  5  6  1  6
  7  5  1  0
  7  8  2  0
  9 10  1  0
 11 13  1  0
 11 10  1  0
 11 12  1  1
 13 14  1  1
 14  7  1  0
 15 13  1  0
 16 15  2  0
 18 17  1  1
 18 20  1  0
 19 18  1  0
 21 20  1  1
 21 23  1  0
 21 22  1  0
 22 15  1  0
 23 25  1  0
 24 23  2  0
M  END
$$$$
