LIL.pdb
     RDKit          3D

 25 24  0  0  1  0  0  0  0  0999 V2000
    9.6529  -21.3293   19.9068 C   0  0  0  0  0  0  0  0  0  0  0  0
    9.0863  -20.2891   18.9663 C   0  0  2  0  0  0  0  0  0  0  0  0
    9.6402  -20.5950   17.5878 C   0  0  0  0  0  0  0  0  0  0  0  0
    9.4534  -18.8975   19.3463 C   0  0  0  0  0  0  0  0  0  0  0  0
    9.0631  -18.5323   20.7523 C   0  0  2  0  0  0  0  0  0  0  0  0
    7.6200  -18.6311   20.8669 N   0  0  0  0  0  0  0  0  0  0  0  0
    9.4439  -17.1480   21.1227 C   0  0  0  0  0  0  0  0  0  0  0  0
   10.6417  -16.7667   21.1183 O   0  0  0  0  0  0  0  0  0  0  0  0
    6.9046  -12.5530   19.3520 C   0  0  0  0  0  0  0  0  0  0  0  0
    7.8963  -13.5317   19.8780 C   0  0  0  0  0  0  0  0  0  0  0  0
    7.9249  -13.7600   21.3314 C   0  0  2  0  0  0  0  0  0  0  0  0
    8.2571  -12.4484   22.0112 C   0  0  0  0  0  0  0  0  0  0  0  0
    8.7660  -14.8412   21.8831 C   0  0  2  0  0  0  0  0  0  0  0  0
    8.4332  -16.1858   21.5044 N   0  0  0  0  0  0  0  0  0  0  0  0
    8.9873  -14.7187   23.3588 C   0  0  0  0  0  0  0  0  0  0  0  0
    9.8126  -13.8861   23.8146 O   0  0  0  0  0  0  0  0  0  0  0  0
    7.6687  -12.4860   26.8331 C   0  0  0  0  0  0  0  0  0  0  0  0
    6.7247  -13.4329   26.0475 C   0  0  2  0  0  0  0  0  0  0  0  0
    5.2999  -13.1246   26.4694 C   0  0  0  0  0  0  0  0  0  0  0  0
    7.1879  -14.8124   26.3855 C   0  0  0  0  0  0  0  0  0  0  0  0
    8.4344  -15.2921   25.7596 C   0  0  2  0  0  0  0  0  0  0  0  0
    8.2986  -15.5132   24.3114 N   0  0  0  0  0  0  0  0  0  0  0  0
    8.9977  -16.4806   26.4088 C   0  0  0  0  0  0  0  0  0  0  0  0
    9.1312  -16.5310   27.6392 O   0  0  0  0  0  0  0  0  0  0  0  0
    9.3854  -17.5554   25.6320 O   0  0  0  0  0  0  0  0  0  0  0  0
  2  1  1  1
  3  2  1  0
  4  2  1  0
  4  5  1  0
  5  6  1  6
  7  5  1  0
  7  8  2  0
  9 10  1  0
 11 13  1  0
 11 10  1  0
 11 12  1  1
 13 14  1  1
 14  7  1  0
 15 13  1  0
 16 15  2  0
 18 17  1  1
 18 20  1  0
 19 18  1  0
 21 20  1  1
 21 23  1  0
 21 22  1  0
 22 15  1  0
 23 25  1  0
 24 23  2  0
M  END
$$$$
