LIL.pdb
     RDKit          3D

 25 24  0  0  1  0  0  0  0  0999 V2000
    4.4601  -19.2256   22.8856 C   0  0  0  0  0  0  0  0  0  0  0  0
    5.9050  -19.6707   22.8407 C   0  0  2  0  0  0  0  0  0  0  0  0
    5.9854  -20.9793   23.6035 C   0  0  0  0  0  0  0  0  0  0  0  0
    6.8380  -18.6860   23.4535 C   0  0  0  0  0  0  0  0  0  0  0  0
    6.6805  -17.2897   22.9167 C   0  0  2  0  0  0  0  0  0  0  0  0
    7.0749  -17.2890   21.5204 N   0  0  0  0  0  0  0  0  0  0  0  0
    7.5287  -16.2960   23.6178 C   0  0  0  0  0  0  0  0  0  0  0  0
    8.7006  -16.0415   23.2407 O   0  0  0  0  0  0  0  0  0  0  0  0
    5.5471  -11.7426   26.1540 C   0  0  0  0  0  0  0  0  0  0  0  0
    6.5122  -12.6304   25.4478 C   0  0  0  0  0  0  0  0  0  0  0  0
    7.2599  -13.6059   26.2569 C   0  0  2  0  0  0  0  0  0  0  0  0
    8.3025  -12.8566   27.0597 C   0  0  0  0  0  0  0  0  0  0  0  0
    7.8744  -14.7780   25.6016 C   0  0  2  0  0  0  0  0  0  0  0  0
    7.0235  -15.5828   24.7708 N   0  0  0  0  0  0  0  0  0  0  0  0
    8.6885  -15.6154   26.5385 C   0  0  0  0  0  0  0  0  0  0  0  0
    8.1287  -16.3168   27.4198 O   0  0  0  0  0  0  0  0  0  0  0  0
   11.5246  -18.7207   25.3962 C   0  0  0  0  0  0  0  0  0  0  0  0
   12.2667  -17.3590   25.4076 C   0  0  2  0  0  0  0  0  0  0  0  0
   13.6702  -17.5894   24.8782 C   0  0  0  0  0  0  0  0  0  0  0  0
   12.2063  -16.8949   26.8263 C   0  0  0  0  0  0  0  0  0  0  0  0
   10.8844  -16.5468   27.3805 C   0  0  2  0  0  0  0  0  0  0  0  0
   10.1056  -15.6689   26.4931 N   0  0  0  0  0  0  0  0  0  0  0  0
   10.9448  -15.9842   28.7336 C   0  0  0  0  0  0  0  0  0  0  0  0
   10.6922  -14.7890   28.9381 O   0  0  0  0  0  0  0  0  0  0  0  0
   11.2911  -16.8031   29.7913 O   0  0  0  0  0  0  0  0  0  0  0  0
  2  1  1  1
  3  2  1  0
  4  2  1  0
  4  5  1  0
  5  6  1  6
  7  5  1  0
  7  8  2  0
  9 10  1  0
 11 13  1  0
 11 10  1  0
 11 12  1  6
 13 14  1  1
 14  7  1  0
 15 13  1  0
 16 15  2  0
 18 17  1  1
 18 20  1  0
 19 18  1  0
 21 20  1  6
 21 23  1  0
 21 22  1  0
 22 15  1  0
 23 25  1  0
 24 23  2  0
M  END
$$$$
