LIL.pdb
     RDKit          3D

 25 24  0  0  1  0  0  0  0  0999 V2000
    8.2547  -14.5578   18.3899 C   0  0  0  0  0  0  0  0  0  0  0  0
    7.4061  -13.6722   19.2752 C   0  0  2  0  0  0  0  0  0  0  0  0
    7.3003  -12.3284   18.5799 C   0  0  0  0  0  0  0  0  0  0  0  0
    7.9845  -13.4794   20.6331 C   0  0  0  0  0  0  0  0  0  0  0  0
    8.1066  -14.7530   21.4242 C   0  0  2  0  0  0  0  0  0  0  0  0
    6.7825  -15.3267   21.5750 N   0  0  0  0  0  0  0  0  0  0  0  0
    8.6573  -14.5441   22.7849 C   0  0  0  0  0  0  0  0  0  0  0  0
    9.8457  -14.1783   22.9697 O   0  0  0  0  0  0  0  0  0  0  0  0
    5.8460  -11.9167   26.7045 C   0  0  0  0  0  0  0  0  0  0  0  0
    6.8874  -12.5169   25.8251 C   0  0  0  0  0  0  0  0  0  0  0  0
    7.4461  -13.8197   26.2202 C   0  0  2  0  0  0  0  0  0  0  0  0
    8.1387  -13.6531   27.5565 C   0  0  0  0  0  0  0  0  0  0  0  0
    8.3245  -14.5502   25.2845 C   0  0  2  0  0  0  0  0  0  0  0  0
    7.8305  -14.7588   23.9524 N   0  0  0  0  0  0  0  0  0  0  0  0
    8.8910  -15.8065   25.8697 C   0  0  0  0  0  0  0  0  0  0  0  0
    8.1446  -16.7861   26.1249 O   0  0  0  0  0  0  0  0  0  0  0  0
   14.3194  -18.6217   25.9046 C   0  0  0  0  0  0  0  0  0  0  0  0
   12.8566  -18.7862   26.3926 C   0  0  2  0  0  0  0  0  0  0  0  0
   12.2746  -20.0123   25.7137 C   0  0  0  0  0  0  0  0  0  0  0  0
   12.1816  -17.5012   26.0391 C   0  0  0  0  0  0  0  0  0  0  0  0
   10.8337  -17.2589   26.5871 C   0  0  2  0  0  0  0  0  0  0  0  0
   10.2692  -15.9671   26.1661 N   0  0  0  0  0  0  0  0  0  0  0  0
   10.7587  -17.4001   28.0451 C   0  0  0  0  0  0  0  0  0  0  0  0
   10.5771  -18.5076   28.5690 O   0  0  0  0  0  0  0  0  0  0  0  0
   10.8908  -16.2781   28.8406 O   0  0  0  0  0  0  0  0  0  0  0  0
  2  1  1  6
  3  2  1  0
  4  2  1  0
  4  5  1  0
  5  6  1  1
  7  5  1  0
  7  8  2  0
  9 10  1  0
 11 13  1  0
 11 10  1  0
 11 12  1  1
 13 14  1  6
 14  7  1  0
 15 13  1  0
 16 15  2  0
 18 17  1  6
 18 20  1  0
 19 18  1  0
 21 20  1  1
 21 23  1  0
 21 22  1  0
 22 15  1  0
 23 25  1  0
 24 23  2  0
M  END
$$$$
