LIL.pdb
     RDKit          3D

 25 24  0  0  1  0  0  0  0  0999 V2000
    7.7877  -20.2470   20.9481 C   0  0  0  0  0  0  0  0  0  0  0  0
    8.1740  -18.9188   20.3361 C   0  0  2  0  0  0  0  0  0  0  0  0
    9.0679  -19.2253   19.1497 C   0  0  0  0  0  0  0  0  0  0  0  0
    8.9010  -18.0298   21.2831 C   0  0  0  0  0  0  0  0  0  0  0  0
    8.4192  -16.6049   21.2648 C   0  0  2  0  0  0  0  0  0  0  0  0
    8.9308  -15.9642   20.0677 N   0  0  0  0  0  0  0  0  0  0  0  0
    8.8909  -15.8145   22.4272 C   0  0  0  0  0  0  0  0  0  0  0  0
   10.0360  -15.2966   22.4555 O   0  0  0  0  0  0  0  0  0  0  0  0
    5.6019  -12.2362   25.1360 C   0  0  0  0  0  0  0  0  0  0  0  0
    6.7752  -12.9302   24.5360 C   0  0  0  0  0  0  0  0  0  0  0  0
    7.4368  -13.9705   25.3394 C   0  0  2  0  0  0  0  0  0  0  0  0
    8.0116  -13.3185   26.5794 C   0  0  0  0  0  0  0  0  0  0  0  0
    8.4506  -14.8417   24.7117 C   0  0  2  0  0  0  0  0  0  0  0  0
    8.0343  -15.6155   23.5760 N   0  0  0  0  0  0  0  0  0  0  0  0
    9.2065  -15.6719   25.7022 C   0  0  0  0  0  0  0  0  0  0  0  0
    8.6401  -16.6171   26.3087 O   0  0  0  0  0  0  0  0  0  0  0  0
   10.8411  -13.4396   28.1210 C   0  0  0  0  0  0  0  0  0  0  0  0
   10.1440  -14.7286   28.6284 C   0  0  2  0  0  0  0  0  0  0  0  0
    9.7919  -14.5226   30.0902 C   0  0  0  0  0  0  0  0  0  0  0  0
   11.1242  -15.8269   28.3743 C   0  0  0  0  0  0  0  0  0  0  0  0
   11.3006  -16.2830   26.9827 C   0  0  2  0  0  0  0  0  0  0  0  0
   10.5734  -15.4506   26.0117 N   0  0  0  0  0  0  0  0  0  0  0  0
   10.9795  -17.7004   26.7844 C   0  0  0  0  0  0  0  0  0  0  0  0
   10.0239  -18.0436   26.0750 O   0  0  0  0  0  0  0  0  0  0  0  0
   11.7560  -18.6622   27.4019 O   0  0  0  0  0  0  0  0  0  0  0  0
  2  1  1  1
  3  2  1  0
  4  2  1  0
  4  5  1  0
  5  6  1  6
  7  5  1  0
  7  8  2  0
  9 10  1  0
 11 13  1  0
 11 10  1  0
 11 12  1  1
 13 14  1  6
 14  7  1  0
 15 13  1  0
 16 15  2  0
 18 17  1  1
 18 20  1  0
 19 18  1  0
 21 20  1  1
 21 23  1  0
 21 22  1  0
 22 15  1  0
 23 25  1  0
 24 23  2  0
M  END
$$$$
