LIL.pdb
     RDKit          3D

 25 24  0  0  1  0  0  0  0  0999 V2000
    7.0545  -11.8848   25.2234 C   0  0  0  0  0  0  0  0  0  0  0  0
    5.8784  -12.4298   26.0030 C   0  0  2  0  0  0  0  0  0  0  0  0
    5.7408  -11.5725   27.2467 C   0  0  0  0  0  0  0  0  0  0  0  0
    6.0530  -13.8528   26.4032 C   0  0  0  0  0  0  0  0  0  0  0  0
    5.7096  -14.8328   25.3149 C   0  0  2  0  0  0  0  0  0  0  0  0
    4.9396  -15.9147   25.8996 N   0  0  0  0  0  0  0  0  0  0  0  0
    6.9034  -15.4342   24.6734 C   0  0  0  0  0  0  0  0  0  0  0  0
    7.4016  -16.5139   25.0812 O   0  0  0  0  0  0  0  0  0  0  0  0
    8.0513  -13.1867   19.8854 C   0  0  0  0  0  0  0  0  0  0  0  0
    7.9385  -14.4739   20.6262 C   0  0  0  0  0  0  0  0  0  0  0  0
    9.0240  -14.8232   21.5563 C   0  0  2  0  0  0  0  0  0  0  0  0
    9.9621  -15.7810   20.8523 C   0  0  0  0  0  0  0  0  0  0  0  0
    8.6947  -15.3369   22.9010 C   0  0  2  0  0  0  0  0  0  0  0  0
    7.5358  -14.7856   23.5453 N   0  0  0  0  0  0  0  0  0  0  0  0
    9.8755  -15.3756   23.8208 C   0  0  0  0  0  0  0  0  0  0  0  0
   10.8177  -14.5532   23.6865 O   0  0  0  0  0  0  0  0  0  0  0  0
   10.9090  -13.9042   28.3007 C   0  0  0  0  0  0  0  0  0  0  0  0
   10.0682  -14.8259   27.3796 C   0  0  2  0  0  0  0  0  0  0  0  0
    8.7651  -15.1340   28.0938 C   0  0  0  0  0  0  0  0  0  0  0  0
   10.9340  -16.0165   27.1256 C   0  0  0  0  0  0  0  0  0  0  0  0
   11.2031  -16.3846   25.7228 C   0  0  2  0  0  0  0  0  0  0  0  0
   10.0033  -16.3177   24.8739 N   0  0  0  0  0  0  0  0  0  0  0  0
   11.8645  -17.6852   25.5736 C   0  0  0  0  0  0  0  0  0  0  0  0
   13.0024  -17.8762   26.0239 O   0  0  0  0  0  0  0  0  0  0  0  0
   11.2052  -18.7077   24.9187 O   0  0  0  0  0  0  0  0  0  0  0  0
  2  1  1  1
  3  2  1  0
  4  2  1  0
  4  5  1  0
  5  6  1  1
  7  5  1  0
  7  8  2  0
  9 10  1  0
 11 13  1  0
 11 10  1  0
 11 12  1  6
 13 14  1  1
 14  7  1  0
 15 13  1  0
 16 15  2  0
 18 17  1  1
 18 20  1  0
 19 18  1  0
 21 20  1  1
 21 23  1  0
 21 22  1  0
 22 15  1  0
 23 25  1  0
 24 23  2  0
M  END
$$$$
