LIL.pdb
     RDKit          3D

 25 24  0  0  1  0  0  0  0  0999 V2000
    4.9728  -17.6504   20.5739 C   0  0  0  0  0  0  0  0  0  0  0  0
    6.3837  -18.1905   20.6488 C   0  0  2  0  0  0  0  0  0  0  0  0
    6.2700  -19.6874   20.8653 C   0  0  0  0  0  0  0  0  0  0  0  0
    7.1791  -17.5924   21.7556 C   0  0  0  0  0  0  0  0  0  0  0  0
    7.2039  -16.0884   21.7374 C   0  0  2  0  0  0  0  0  0  0  0  0
    7.8021  -15.6557   20.4883 N   0  0  0  0  0  0  0  0  0  0  0  0
    8.0063  -15.5048   22.8393 C   0  0  0  0  0  0  0  0  0  0  0  0
    9.2437  -15.3130   22.7282 O   0  0  0  0  0  0  0  0  0  0  0  0
    6.0010  -11.6397   26.2992 C   0  0  0  0  0  0  0  0  0  0  0  0
    6.9424  -12.4470   25.4745 C   0  0  0  0  0  0  0  0  0  0  0  0
    7.5153  -13.6585   26.0822 C   0  0  2  0  0  0  0  0  0  0  0  0
    8.4858  -13.2332   27.1640 C   0  0  0  0  0  0  0  0  0  0  0  0
    8.1389  -14.6819   25.2193 C   0  0  2  0  0  0  0  0  0  0  0  0
    7.3780  -15.1354   24.0890 N   0  0  0  0  0  0  0  0  0  0  0  0
    8.7222  -15.8250   25.9906 C   0  0  0  0  0  0  0  0  0  0  0  0
    7.9743  -16.6866   26.5201 O   0  0  0  0  0  0  0  0  0  0  0  0
   11.1366  -19.1262   24.5700 C   0  0  0  0  0  0  0  0  0  0  0  0
   12.0021  -17.8627   24.8136 C   0  0  2  0  0  0  0  0  0  0  0  0
   13.3907  -18.1371   24.2663 C   0  0  0  0  0  0  0  0  0  0  0  0
   11.9500  -17.6338   26.2890 C   0  0  0  0  0  0  0  0  0  0  0  0
   10.6747  -17.1721   26.8688 C   0  0  2  0  0  0  0  0  0  0  0  0
   10.1184  -16.0036   26.1689 N   0  0  0  0  0  0  0  0  0  0  0  0
   10.7431  -16.9201   28.3121 C   0  0  0  0  0  0  0  0  0  0  0  0
   10.5498  -15.7858   28.7703 O   0  0  0  0  0  0  0  0  0  0  0  0
   11.0300  -17.9662   29.1680 O   0  0  0  0  0  0  0  0  0  0  0  0
  2  1  1  1
  3  2  1  0
  4  2  1  0
  4  5  1  0
  5  6  1  6
  7  5  1  0
  7  8  2  0
  9 10  1  0
 11 13  1  0
 11 10  1  0
 11 12  1  1
 13 14  1  6
 14  7  1  0
 15 13  1  0
 16 15  2  0
 18 17  1  1
 18 20  1  0
 19 18  1  0
 21 20  1  6
 21 23  1  0
 21 22  1  0
 22 15  1  0
 23 25  1  0
 24 23  2  0
M  END
$$$$
