LIL.pdb
     RDKit          3D

 25 24  0  0  1  0  0  0  0  0999 V2000
    9.6758  -13.9181   19.0236 C   0  0  0  0  0  0  0  0  0  0  0  0
    8.2197  -13.6700   18.6979 C   0  0  2  0  0  0  0  0  0  0  0  0
    7.9945  -12.1738   18.8042 C   0  0  0  0  0  0  0  0  0  0  0  0
    7.2876  -14.3745   19.6201 C   0  0  0  0  0  0  0  0  0  0  0  0
    7.8609  -15.6320   20.2140 C   0  0  2  0  0  0  0  0  0  0  0  0
    7.4408  -16.7562   19.3984 N   0  0  0  0  0  0  0  0  0  0  0  0
    7.3946  -15.8890   21.5978 C   0  0  0  0  0  0  0  0  0  0  0  0
    6.3371  -15.3782   22.0463 O   0  0  0  0  0  0  0  0  0  0  0  0
    6.4674  -20.7901   23.4694 C   0  0  0  0  0  0  0  0  0  0  0  0
    6.5664  -19.3264   23.2128 C   0  0  0  0  0  0  0  0  0  0  0  0
    7.4848  -18.5462   24.0575 C   0  0  2  0  0  0  0  0  0  0  0  0
    7.0886  -18.7517   25.5045 C   0  0  0  0  0  0  0  0  0  0  0  0
    7.6791  -17.1074   23.7873 C   0  0  2  0  0  0  0  0  0  0  0  0
    8.1546  -16.7463   22.4813 N   0  0  0  0  0  0  0  0  0  0  0  0
    8.4384  -16.4037   24.8689 C   0  0  0  0  0  0  0  0  0  0  0  0
    9.6946  -16.3488   24.8363 O   0  0  0  0  0  0  0  0  0  0  0  0
    7.9313  -12.1733   26.0333 C   0  0  0  0  0  0  0  0  0  0  0  0
    6.9155  -13.0785   26.7772 C   0  0  2  0  0  0  0  0  0  0  0  0
    5.9604  -12.1780   27.5389 C   0  0  0  0  0  0  0  0  0  0  0  0
    7.7478  -13.9712   27.6386 C   0  0  0  0  0  0  0  0  0  0  0  0
    8.5624  -15.0051   26.9729 C   0  0  2  0  0  0  0  0  0  0  0  0
    7.8059  -15.7712   25.9702 N   0  0  0  0  0  0  0  0  0  0  0  0
    9.2385  -15.9114   27.9071 C   0  0  0  0  0  0  0  0  0  0  0  0
   10.0988  -15.4905   28.6926 O   0  0  0  0  0  0  0  0  0  0  0  0
    8.9090  -17.2533   27.9051 O   0  0  0  0  0  0  0  0  0  0  0  0
  2  1  1  1
  3  2  1  0
  4  2  1  0
  4  5  1  0
  5  6  1  6
  7  5  1  0
  7  8  2  0
  9 10  1  0
 11 13  1  0
 11 10  1  0
 11 12  1  1
 13 14  1  6
 14  7  1  0
 15 13  1  0
 16 15  2  0
 18 17  1  1
 18 20  1  0
 19 18  1  0
 21 20  1  1
 21 23  1  0
 21 22  1  0
 22 15  1  0
 23 25  1  0
 24 23  2  0
M  END
$$$$
