LIL.pdb
     RDKit          3D

 25 24  0  0  1  0  0  0  0  0999 V2000
    4.8727  -20.7138   22.7704 C   0  0  0  0  0  0  0  0  0  0  0  0
    6.2452  -20.8483   23.3917 C   0  0  2  0  0  0  0  0  0  0  0  0
    6.0364  -21.2999   24.8246 C   0  0  0  0  0  0  0  0  0  0  0  0
    7.0159  -19.5749   23.3846 C   0  0  0  0  0  0  0  0  0  0  0  0
    7.1428  -18.9532   22.0208 C   0  0  2  0  0  0  0  0  0  0  0  0
    7.7610  -19.9200   21.1329 N   0  0  0  0  0  0  0  0  0  0  0  0
    7.9900  -17.7364   22.0108 C   0  0  0  0  0  0  0  0  0  0  0  0
    9.2448  -17.8030   21.9733 O   0  0  0  0  0  0  0  0  0  0  0  0
    6.7501  -12.8693   19.3523 C   0  0  0  0  0  0  0  0  0  0  0  0
    7.4891  -14.0086   19.9639 C   0  0  0  0  0  0  0  0  0  0  0  0
    7.6243  -14.0264   21.4291 C   0  0  2  0  0  0  0  0  0  0  0  0
    8.4012  -12.7962   21.8488 C   0  0  0  0  0  0  0  0  0  0  0  0
    8.1760  -15.2230   22.0958 C   0  0  2  0  0  0  0  0  0  0  0  0
    7.3871  -16.4217   22.0444 N   0  0  0  0  0  0  0  0  0  0  0  0
    8.6763  -14.9465   23.4797 C   0  0  0  0  0  0  0  0  0  0  0  0
    9.5117  -14.0292   23.6861 O   0  0  0  0  0  0  0  0  0  0  0  0
    8.4865  -12.2117   26.4890 C   0  0  0  0  0  0  0  0  0  0  0  0
    7.3045  -13.1088   26.0384 C   0  0  2  0  0  0  0  0  0  0  0  0
    6.0192  -12.4621   26.5210 C   0  0  0  0  0  0  0  0  0  0  0  0
    7.5859  -14.4505   26.6321 C   0  0  0  0  0  0  0  0  0  0  0  0
    8.6146  -15.2867   25.9854 C   0  0  2  0  0  0  0  0  0  0  0  0
    8.2514  -15.6826   24.6157 N   0  0  0  0  0  0  0  0  0  0  0  0
    8.9964  -16.4627   26.7744 C   0  0  0  0  0  0  0  0  0  0  0  0
    8.8415  -17.6073   26.3272 O   0  0  0  0  0  0  0  0  0  0  0  0
    9.5339  -16.2855   28.0350 O   0  0  0  0  0  0  0  0  0  0  0  0
  2  1  1  1
  3  2  1  0
  4  2  1  0
  4  5  1  0
  5  6  1  6
  7  5  1  0
  7  8  2  0
  9 10  1  0
 11 13  1  0
 11 10  1  0
 11 12  1  6
 13 14  1  1
 14  7  1  0
 15 13  1  0
 16 15  2  0
 18 17  1  1
 18 20  1  0
 19 18  1  0
 21 20  1  1
 21 23  1  0
 21 22  1  0
 22 15  1  0
 23 25  1  0
 24 23  2  0
M  END
$$$$
