SCH.pdb
     RDKit          3D

 23 23  0  0  1  0  0  0  0  0999 V2000
    7.0163  -17.1970   16.6551 O   0  0  0  0  0  0  0  0  0  0  0  0
    8.2619  -17.7241   16.2982 C   0  0  0  0  0  0  0  0  0  0  0  0
    8.3106  -19.1359   16.8234 C   0  0  2  0  0  0  0  0  0  0  0  0
    7.2812  -19.9213   16.1925 N   0  0  0  0  0  0  0  0  0  0  0  0
    8.1012  -19.1626   18.2897 C   0  0  0  0  0  0  0  0  0  0  0  0
    7.1697  -19.8424   18.7990 O   0  0  0  0  0  0  0  0  0  0  0  0
    8.9532  -18.4172   19.1472 N   0  0  0  0  0  0  0  0  0  0  0  0
    8.8639  -18.6018   20.6007 C   0  0  1  0  0  0  0  0  0  0  0  0
    9.3493  -20.0016   20.9142 C   0  0  0  0  0  0  0  0  0  0  0  0
   11.0692  -20.1335   20.3203 S   0  0  0  0  0  0  0  0  0  0  0  0
    9.8139  -17.6588   21.2842 C   0  0  0  0  0  0  0  0  0  0  0  0
   10.8099  -17.2244   20.6512 O   0  0  0  0  0  0  0  0  0  0  0  0
    9.6395  -17.2375   22.6057 N   0  0  0  0  0  0  0  0  0  0  0  0
   10.3411  -16.0539   23.1433 C   0  0  1  0  0  0  0  0  0  0  0  0
    9.4099  -15.2139   23.9290 C   0  0  0  0  0  0  0  0  0  0  0  0
    8.4886  -14.4447   23.0827 C   0  0  0  0  0  0  0  0  0  0  0  0
    8.6401  -14.4698   21.6851 C   0  0  0  0  0  0  0  0  0  0  0  0
    7.7050  -13.7103   21.1470 N   0  0  0  0  0  0  0  0  0  0  0  0
    6.9769  -13.2121   22.1389 C   0  0  0  0  0  0  0  0  0  0  0  0
    7.4487  -13.6550   23.3150 N   0  0  0  0  0  0  0  0  0  0  0  0
   11.4886  -16.5509   23.9594 C   0  0  0  0  0  0  0  0  0  0  0  0
   12.6234  -15.8132   24.1682 O   0  0  0  0  0  0  0  0  0  0  0  0
   11.4128  -17.7006   24.4798 O   0  0  0  0  0  0  0  0  0  0  0  0
  2  3  1  0
  2  1  1  0
  3  4  1  6
  3  5  1  0
  5  7  1  0
  6  5  2  0
  7  8  1  0
  8 11  1  0
  8  9  1  6
  9 10  1  0
 11 12  2  0
 13 14  1  0
 13 11  1  0
 14 15  1  1
 15 16  1  0
 16 17  2  0
 16 20  1  0
 17 18  1  0
 18 19  1  0
 20 19  2  0
 21 22  1  0
 21 14  1  0
 23 21  2  0
M  END
$$$$
