SCH.pdb
     RDKit          3D

 23 23  0  0  1  0  0  0  0  0999 V2000
    7.8221  -16.4201   20.8105 O   0  0  0  0  0  0  0  0  0  0  0  0
    6.6145  -15.7438   21.0140 C   0  0  0  0  0  0  0  0  0  0  0  0
    6.9579  -14.3059   21.3070 C   0  0  2  0  0  0  0  0  0  0  0  0
    7.6661  -13.7411   20.1872 N   0  0  0  0  0  0  0  0  0  0  0  0
    7.8103  -14.2007   22.5141 C   0  0  0  0  0  0  0  0  0  0  0  0
    8.9766  -13.7275   22.4445 O   0  0  0  0  0  0  0  0  0  0  0  0
    7.3211  -14.6347   23.7746 N   0  0  0  0  0  0  0  0  0  0  0  0
    8.1830  -14.5445   24.9594 C   0  0  1  0  0  0  0  0  0  0  0  0
    7.4904  -13.6442   25.9609 C   0  0  0  0  0  0  0  0  0  0  0  0
    5.7520  -14.1853   26.0770 S   0  0  0  0  0  0  0  0  0  0  0  0
    8.2891  -15.8974   25.6053 C   0  0  0  0  0  0  0  0  0  0  0  0
    7.2515  -16.5937   25.7464 O   0  0  0  0  0  0  0  0  0  0  0  0
    9.5013  -16.4234   26.0615 N   0  0  0  0  0  0  0  0  0  0  0  0
    9.5702  -17.7203   26.7654 C   0  0  1  0  0  0  0  0  0  0  0  0
   10.3153  -18.7092   25.9547 C   0  0  0  0  0  0  0  0  0  0  0  0
    9.7161  -18.9244   24.6313 C   0  0  0  0  0  0  0  0  0  0  0  0
    8.4129  -19.4427   24.5318 C   0  0  0  0  0  0  0  0  0  0  0  0
    8.0975  -19.5454   23.2549 N   0  0  0  0  0  0  0  0  0  0  0  0
    9.1388  -19.1170   22.5516 C   0  0  0  0  0  0  0  0  0  0  0  0
   10.1231  -18.7393   23.3826 N   0  0  0  0  0  0  0  0  0  0  0  0
   10.2092  -17.4720   28.0919 C   0  0  0  0  0  0  0  0  0  0  0  0
   10.3744  -18.4558   29.0302 O   0  0  0  0  0  0  0  0  0  0  0  0
   10.6148  -16.3057   28.3635 O   0  0  0  0  0  0  0  0  0  0  0  0
  2  3  1  0
  2  1  1  0
  3  4  1  6
  3  5  1  0
  5  7  1  0
  6  5  2  0
  7  8  1  0
  8 11  1  0
  8  9  1  1
  9 10  1  0
 11 12  2  0
 13 14  1  0
 13 11  1  0
 14 15  1  6
 15 16  1  0
 16 17  2  0
 16 20  1  0
 17 18  1  0
 18 19  1  0
 20 19  2  0
 21 22  1  0
 21 14  1  0
 23 21  2  0
M  END
$$$$
