SCH.pdb
     RDKit          3D

 23 23  0  0  1  0  0  0  0  0999 V2000
    5.5533  -18.3685   22.4675 O   0  0  0  0  0  0  0  0  0  0  0  0
    4.9198  -17.4986   21.5737 C   0  0  0  0  0  0  0  0  0  0  0  0
    5.7202  -17.5181   20.2968 C   0  0  2  0  0  0  0  0  0  0  0  0
    5.9460  -18.8810   19.8896 N   0  0  0  0  0  0  0  0  0  0  0  0
    7.0300  -16.8515   20.4830 C   0  0  0  0  0  0  0  0  0  0  0  0
    8.0697  -17.5220   20.7246 O   0  0  0  0  0  0  0  0  0  0  0  0
    7.1322  -15.4381   20.3910 N   0  0  0  0  0  0  0  0  0  0  0  0
    8.4217  -14.7842   20.6449 C   0  0  1  0  0  0  0  0  0  0  0  0
    8.2815  -13.3288   20.2509 C   0  0  0  0  0  0  0  0  0  0  0  0
    8.0351  -13.2691   18.4443 S   0  0  0  0  0  0  0  0  0  0  0  0
    8.7089  -14.8001   22.1201 C   0  0  0  0  0  0  0  0  0  0  0  0
    7.8545  -14.3355   22.9172 O   0  0  0  0  0  0  0  0  0  0  0  0
    9.8951  -15.3131   22.6530 N   0  0  0  0  0  0  0  0  0  0  0  0
   10.1210  -15.3952   24.1105 C   0  0  1  0  0  0  0  0  0  0  0  0
    9.0263  -16.1490   24.7614 C   0  0  0  0  0  0  0  0  0  0  0  0
    7.8767  -15.3003   25.0999 C   0  0  0  0  0  0  0  0  0  0  0  0
    8.0902  -13.9979   25.5848 C   0  0  0  0  0  0  0  0  0  0  0  0
    6.9182  -13.4376   25.8155 N   0  0  0  0  0  0  0  0  0  0  0  0
    5.9832  -14.3251   25.4989 C   0  0  0  0  0  0  0  0  0  0  0  0
    6.5601  -15.4566   25.0643 N   0  0  0  0  0  0  0  0  0  0  0  0
   11.4551  -16.0331   24.3176 C   0  0  0  0  0  0  0  0  0  0  0  0
   11.9805  -16.2645   25.5610 O   0  0  0  0  0  0  0  0  0  0  0  0
   12.1307  -16.3741   23.3048 O   0  0  0  0  0  0  0  0  0  0  0  0
  2  3  1  0
  2  1  1  0
  3  4  1  1
  3  5  1  0
  5  7  1  0
  6  5  2  0
  7  8  1  0
  8 11  1  0
  8  9  1  1
  9 10  1  0
 11 12  2  0
 13 14  1  0
 13 11  1  0
 14 15  1  1
 15 16  1  0
 16 17  2  0
 16 20  1  0
 17 18  1  0
 18 19  1  0
 20 19  2  0
 21 22  1  0
 21 14  1  0
 23 21  2  0
M  END
$$$$
