SCH.pdb
     RDKit          3D

 23 23  0  0  1  0  0  0  0  0999 V2000
   12.3089  -15.6339   20.6739 O   0  0  0  0  0  0  0  0  0  0  0  0
   12.4677  -16.5897   21.6830 C   0  0  0  0  0  0  0  0  0  0  0  0
   11.4718  -17.6878   21.4114 C   0  0  2  0  0  0  0  0  0  0  0  0
   10.6751  -17.3433   20.2620 N   0  0  0  0  0  0  0  0  0  0  0  0
   10.5741  -17.8873   22.5729 C   0  0  0  0  0  0  0  0  0  0  0  0
    9.3561  -18.1681   22.4098 O   0  0  0  0  0  0  0  0  0  0  0  0
   11.0777  -17.7639   23.8950 N   0  0  0  0  0  0  0  0  0  0  0  0
   10.2137  -18.0911   25.0357 C   0  0  1  0  0  0  0  0  0  0  0  0
    9.9463  -19.5810   24.9937 C   0  0  0  0  0  0  0  0  0  0  0  0
   11.5598  -20.4272   24.9006 S   0  0  0  0  0  0  0  0  0  0  0  0
   10.9546  -17.8275   26.3165 C   0  0  0  0  0  0  0  0  0  0  0  0
   12.1900  -18.0565   26.3697 O   0  0  0  0  0  0  0  0  0  0  0  0
   10.3271  -17.3341   27.4641 N   0  0  0  0  0  0  0  0  0  0  0  0
   11.0912  -16.9873   28.6798 C   0  0  1  0  0  0  0  0  0  0  0  0
   10.3939  -15.9290   29.4440 C   0  0  0  0  0  0  0  0  0  0  0  0
    9.8290  -14.8844   28.5801 C   0  0  0  0  0  0  0  0  0  0  0  0
   10.0680  -14.9204   27.1950 C   0  0  0  0  0  0  0  0  0  0  0  0
    9.4642  -13.8886   26.6371 N   0  0  0  0  0  0  0  0  0  0  0  0
    8.8599  -13.2097   27.6047 C   0  0  0  0  0  0  0  0  0  0  0  0
    9.0786  -13.8102   28.7852 N   0  0  0  0  0  0  0  0  0  0  0  0
   11.2626  -18.2429   29.4695 C   0  0  0  0  0  0  0  0  0  0  0  0
   10.6838  -19.4302   29.1078 O   0  0  0  0  0  0  0  0  0  0  0  0
   11.9702  -18.2116   30.5168 O   0  0  0  0  0  0  0  0  0  0  0  0
  2  3  1  0
  2  1  1  0
  3  4  1  6
  3  5  1  0
  5  7  1  0
  6  5  2  0
  7  8  1  0
  8 11  1  0
  8  9  1  6
  9 10  1  0
 11 12  2  0
 13 14  1  0
 13 11  1  0
 14 15  1  1
 15 16  1  0
 16 17  2  0
 16 20  1  0
 17 18  1  0
 18 19  1  0
 20 19  2  0
 21 22  1  0
 21 14  1  0
 23 21  2  0
M  END
$$$$
