SCH.pdb
     RDKit          3D

 23 23  0  0  1  0  0  0  0  0999 V2000
    8.3223  -17.1574   15.1311 O   0  0  0  0  0  0  0  0  0  0  0  0
    7.4274  -16.1105   14.8856 C   0  0  0  0  0  0  0  0  0  0  0  0
    8.2399  -14.8432   14.8131 C   0  0  2  0  0  0  0  0  0  0  0  0
    9.1490  -14.9159   13.6984 N   0  0  0  0  0  0  0  0  0  0  0  0
    9.0218  -14.6442   16.0556 C   0  0  0  0  0  0  0  0  0  0  0  0
   10.2464  -14.9391   16.1047 O   0  0  0  0  0  0  0  0  0  0  0  0
    8.3976  -14.1146   17.2160 N   0  0  0  0  0  0  0  0  0  0  0  0
    9.1920  -13.8859   18.4289 C   0  0  1  0  0  0  0  0  0  0  0  0
    8.3579  -13.0412   19.3690 C   0  0  0  0  0  0  0  0  0  0  0  0
    6.8090  -13.9479   19.6958 S   0  0  0  0  0  0  0  0  0  0  0  0
    9.4263  -15.1956   19.1280 C   0  0  0  0  0  0  0  0  0  0  0  0
    8.9647  -16.2516   18.6249 O   0  0  0  0  0  0  0  0  0  0  0  0
   10.1417  -15.2953   20.3249 N   0  0  0  0  0  0  0  0  0  0  0  0
   10.9189  -16.5038   20.6677 C   0  0  1  0  0  0  0  0  0  0  0  0
   11.8991  -16.8075   19.6014 C   0  0  0  0  0  0  0  0  0  0  0  0
   11.4291  -17.8490   18.6790 C   0  0  0  0  0  0  0  0  0  0  0  0
   10.1529  -18.4124   18.8553 C   0  0  0  0  0  0  0  0  0  0  0  0
    9.9584  -19.3161   17.9139 N   0  0  0  0  0  0  0  0  0  0  0  0
   11.0495  -19.3453   17.1583 C   0  0  0  0  0  0  0  0  0  0  0  0
   11.9443  -18.4570   17.6188 N   0  0  0  0  0  0  0  0  0  0  0  0
   11.5706  -16.2528   21.9876 C   0  0  0  0  0  0  0  0  0  0  0  0
   11.6958  -17.2211   22.9479 O   0  0  0  0  0  0  0  0  0  0  0  0
   12.0260  -15.0989   22.2320 O   0  0  0  0  0  0  0  0  0  0  0  0
  2  3  1  0
  2  1  1  0
  3  4  1  6
  3  5  1  0
  5  7  1  0
  6  5  2  0
  7  8  1  0
  8 11  1  0
  8  9  1  1
  9 10  1  0
 11 12  2  0
 13 14  1  0
 13 11  1  0
 14 15  1  6
 15 16  1  0
 16 17  2  0
 16 20  1  0
 17 18  1  0
 18 19  1  0
 20 19  2  0
 21 22  1  0
 21 14  1  0
 23 21  2  0
M  END
$$$$
