SCH.pdb
     RDKit          3D

 23 23  0  0  1  0  0  0  0  0999 V2000
    6.5296  -16.2990   18.9445 O   0  0  0  0  0  0  0  0  0  0  0  0
    7.7118  -17.0389   19.0534 C   0  0  0  0  0  0  0  0  0  0  0  0
    7.3176  -18.4533   19.3932 C   0  0  2  0  0  0  0  0  0  0  0  0
    6.3288  -18.9175   18.4544 N   0  0  0  0  0  0  0  0  0  0  0  0
    6.7524  -18.5312   20.7604 C   0  0  0  0  0  0  0  0  0  0  0  0
    5.6115  -19.0276   20.9625 O   0  0  0  0  0  0  0  0  0  0  0  0
    7.4940  -18.0441   21.8692 N   0  0  0  0  0  0  0  0  0  0  0  0
    6.9818  -18.2430   23.2304 C   0  0  1  0  0  0  0  0  0  0  0  0
    6.9720  -19.7327   23.5019 C   0  0  0  0  0  0  0  0  0  0  0  0
    6.4620  -19.9726   25.2369 S   0  0  0  0  0  0  0  0  0  0  0  0
    7.9381  -17.6365   24.2185 C   0  0  0  0  0  0  0  0  0  0  0  0
    9.1713  -17.8438   24.0865 O   0  0  0  0  0  0  0  0  0  0  0  0
    7.5154  -16.8437   25.2896 N   0  0  0  0  0  0  0  0  0  0  0  0
    8.4775  -16.1946   26.2035 C   0  0  1  0  0  0  0  0  0  0  0  0
    7.7974  -15.1702   27.0271 C   0  0  0  0  0  0  0  0  0  0  0  0
    7.2964  -14.0430   26.2302 C   0  0  0  0  0  0  0  0  0  0  0  0
    7.8271  -13.8035   24.9504 C   0  0  0  0  0  0  0  0  0  0  0  0
    7.2250  -12.7481   24.4362 N   0  0  0  0  0  0  0  0  0  0  0  0
    6.3445  -12.3165   25.3311 C   0  0  0  0  0  0  0  0  0  0  0  0
    6.3845  -13.0991   26.4210 N   0  0  0  0  0  0  0  0  0  0  0  0
    9.0996  -17.2711   27.0304 C   0  0  0  0  0  0  0  0  0  0  0  0
   10.1172  -17.0309   27.9149 O   0  0  0  0  0  0  0  0  0  0  0  0
    8.6720  -18.4548   26.9106 O   0  0  0  0  0  0  0  0  0  0  0  0
  2  3  1  0
  2  1  1  0
  3  4  1  6
  3  5  1  0
  5  7  1  0
  6  5  2  0
  7  8  1  0
  8 11  1  0
  8  9  1  1
  9 10  1  0
 11 12  2  0
 13 14  1  0
 13 11  1  0
 14 15  1  1
 15 16  1  0
 16 17  2  0
 16 20  1  0
 17 18  1  0
 18 19  1  0
 20 19  2  0
 21 22  1  0
 21 14  1  0
 23 21  2  0
M  END
$$$$
