SCH.pdb
     RDKit          3D

 23 23  0  0  1  0  0  0  0  0999 V2000
    5.5421  -16.4849   20.7133 O   0  0  0  0  0  0  0  0  0  0  0  0
    6.7058  -16.2522   21.4540 C   0  0  0  0  0  0  0  0  0  0  0  0
    6.8052  -14.7630   21.6636 C   0  0  2  0  0  0  0  0  0  0  0  0
    7.4086  -14.1522   20.5072 N   0  0  0  0  0  0  0  0  0  0  0  0
    7.6292  -14.4500   22.8543 C   0  0  0  0  0  0  0  0  0  0  0  0
    8.8775  -14.3033   22.7580 O   0  0  0  0  0  0  0  0  0  0  0  0
    7.0191  -14.3101   24.1290 N   0  0  0  0  0  0  0  0  0  0  0  0
    7.8576  -14.1368   25.3213 C   0  0  1  0  0  0  0  0  0  0  0  0
    6.9651  -13.6401   26.4393 C   0  0  0  0  0  0  0  0  0  0  0  0
    7.0325  -11.8171   26.4286 S   0  0  0  0  0  0  0  0  0  0  0  0
    8.3859  -15.4736   25.7603 C   0  0  0  0  0  0  0  0  0  0  0  0
    7.5907  -16.4412   25.8735 O   0  0  0  0  0  0  0  0  0  0  0  0
    9.7353  -15.6937   26.0519 N   0  0  0  0  0  0  0  0  0  0  0  0
   10.2244  -17.0042   26.5264 C   0  0  1  0  0  0  0  0  0  0  0  0
   11.5273  -17.3262   25.9028 C   0  0  0  0  0  0  0  0  0  0  0  0
   11.4412  -17.4519   24.4422 C   0  0  0  0  0  0  0  0  0  0  0  0
   10.3408  -18.1076   23.8624 C   0  0  0  0  0  0  0  0  0  0  0  0
   10.4861  -18.0939   22.5512 N   0  0  0  0  0  0  0  0  0  0  0  0
   11.6226  -17.4623   22.2829 C   0  0  0  0  0  0  0  0  0  0  0  0
   12.2053  -17.0711   23.4272 N   0  0  0  0  0  0  0  0  0  0  0  0
   10.3060  -16.9347   28.0158 C   0  0  0  0  0  0  0  0  0  0  0  0
   10.6509  -18.0106   28.7897 O   0  0  0  0  0  0  0  0  0  0  0  0
   10.0456  -15.8385   28.5893 O   0  0  0  0  0  0  0  0  0  0  0  0
  2  3  1  0
  2  1  1  0
  3  4  1  6
  3  5  1  0
  5  7  1  0
  6  5  2  0
  7  8  1  0
  8 11  1  0
  8  9  1  1
  9 10  1  0
 11 12  2  0
 13 14  1  0
 13 11  1  0
 14 15  1  6
 15 16  1  0
 16 17  2  0
 16 20  1  0
 17 18  1  0
 18 19  1  0
 20 19  2  0
 21 22  1  0
 21 14  1  0
 23 21  2  0
M  END
$$$$
