SCH.pdb
     RDKit          3D

 23 23  0  0  1  0  0  0  0  0999 V2000
    8.2576  -17.0127   21.9662 O   0  0  0  0  0  0  0  0  0  0  0  0
    7.0324  -16.3730   21.7501 C   0  0  0  0  0  0  0  0  0  0  0  0
    7.3228  -14.9014   21.6033 C   0  0  2  0  0  0  0  0  0  0  0  0
    8.2069  -14.6932   20.4856 N   0  0  0  0  0  0  0  0  0  0  0  0
    7.9632  -14.3639   22.8263 C   0  0  0  0  0  0  0  0  0  0  0  0
    9.2152  -14.2366   22.8995 O   0  0  0  0  0  0  0  0  0  0  0  0
    7.1694  -13.9821   23.9402 N   0  0  0  0  0  0  0  0  0  0  0  0
    7.8200  -13.5327   25.1768 C   0  0  1  0  0  0  0  0  0  0  0  0
    6.7492  -12.9356   26.0656 C   0  0  0  0  0  0  0  0  0  0  0  0
    7.5692  -12.3075   27.5693 S   0  0  0  0  0  0  0  0  0  0  0  0
    8.3703  -14.7216   25.9134 C   0  0  0  0  0  0  0  0  0  0  0  0
    7.6429  -15.7344   26.0755 O   0  0  0  0  0  0  0  0  0  0  0  0
    9.6680  -14.7540   26.4324 N   0  0  0  0  0  0  0  0  0  0  0  0
   10.1927  -15.9394   27.1407 C   0  0  1  0  0  0  0  0  0  0  0  0
   11.4501  -16.4022   26.5123 C   0  0  0  0  0  0  0  0  0  0  0  0
   11.2935  -16.6999   25.0828 C   0  0  0  0  0  0  0  0  0  0  0  0
   10.7923  -17.9508   24.6818 C   0  0  0  0  0  0  0  0  0  0  0  0
   10.7434  -17.9815   23.3638 N   0  0  0  0  0  0  0  0  0  0  0  0
   11.1892  -16.8119   22.9213 C   0  0  0  0  0  0  0  0  0  0  0  0
   11.5241  -16.0313   23.9608 N   0  0  0  0  0  0  0  0  0  0  0  0
   10.3772  -15.5557   28.5718 C   0  0  0  0  0  0  0  0  0  0  0  0
   10.1308  -14.2915   29.0374 O   0  0  0  0  0  0  0  0  0  0  0  0
   10.7785  -16.4318   29.3902 O   0  0  0  0  0  0  0  0  0  0  0  0
  2  3  1  0
  2  1  1  0
  3  4  1  6
  3  5  1  0
  5  7  1  0
  6  5  2  0
  7  8  1  0
  8 11  1  0
  8  9  1  1
  9 10  1  0
 11 12  2  0
 13 14  1  0
 13 11  1  0
 14 15  1  6
 15 16  1  0
 16 17  2  0
 16 20  1  0
 17 18  1  0
 18 19  1  0
 20 19  2  0
 21 22  1  0
 21 14  1  0
 23 21  2  0
M  END
$$$$
