SCH.pdb
     RDKit          3D

 23 23  0  0  1  0  0  0  0  0999 V2000
    7.4165  -15.5144   20.1249 O   0  0  0  0  0  0  0  0  0  0  0  0
    6.3265  -14.6754   20.3798 C   0  0  0  0  0  0  0  0  0  0  0  0
    6.8857  -13.3451   20.8145 C   0  0  2  0  0  0  0  0  0  0  0  0
    7.6224  -12.7530   19.7278 N   0  0  0  0  0  0  0  0  0  0  0  0
    7.7922  -13.5058   21.9751 C   0  0  0  0  0  0  0  0  0  0  0  0
    9.0422  -13.5546   21.8191 O   0  0  0  0  0  0  0  0  0  0  0  0
    7.2612  -13.6079   23.2882 N   0  0  0  0  0  0  0  0  0  0  0  0
    8.1698  -13.7710   24.4295 C   0  0  1  0  0  0  0  0  0  0  0  0
    7.4687  -13.2213   25.6540 C   0  0  0  0  0  0  0  0  0  0  0  0
    5.7348  -13.7853   25.5949 S   0  0  0  0  0  0  0  0  0  0  0  0
    8.3917  -15.2350   24.6873 C   0  0  0  0  0  0  0  0  0  0  0  0
    7.4516  -16.0444   24.4810 O   0  0  0  0  0  0  0  0  0  0  0  0
    9.6082  -15.7443   25.1509 N   0  0  0  0  0  0  0  0  0  0  0  0
    9.7918  -17.1825   25.4336 C   0  0  1  0  0  0  0  0  0  0  0  0
   10.9906  -17.6975   24.7352 C   0  0  0  0  0  0  0  0  0  0  0  0
   10.8711  -17.6228   23.2734 C   0  0  0  0  0  0  0  0  0  0  0  0
    9.7252  -18.1358   22.6404 C   0  0  0  0  0  0  0  0  0  0  0  0
    9.8473  -17.9554   21.3391 N   0  0  0  0  0  0  0  0  0  0  0  0
   11.0124  -17.3553   21.1278 C   0  0  0  0  0  0  0  0  0  0  0  0
   11.6369  -17.1516   22.2984 N   0  0  0  0  0  0  0  0  0  0  0  0
    9.8851  -17.3350   26.9160 C   0  0  0  0  0  0  0  0  0  0  0  0
   10.0045  -18.5538   27.5291 O   0  0  0  0  0  0  0  0  0  0  0  0
    9.8519  -16.2977   27.6381 O   0  0  0  0  0  0  0  0  0  0  0  0
  2  3  1  0
  2  1  1  0
  3  4  1  6
  3  5  1  0
  5  7  1  0
  6  5  2  0
  7  8  1  0
  8 11  1  0
  8  9  1  1
  9 10  1  0
 11 12  2  0
 13 14  1  0
 13 11  1  0
 14 15  1  6
 15 16  1  0
 16 17  2  0
 16 20  1  0
 17 18  1  0
 18 19  1  0
 20 19  2  0
 21 22  1  0
 21 14  1  0
 23 21  2  0
M  END
$$$$
