SCH.pdb
     RDKit          3D

 23 23  0  0  1  0  0  0  0  0999 V2000
    9.2769  -18.2032   15.7537 O   0  0  0  0  0  0  0  0  0  0  0  0
    8.1023  -17.4528   15.8727 C   0  0  0  0  0  0  0  0  0  0  0  0
    8.4183  -16.0593   15.3936 C   0  0  2  0  0  0  0  0  0  0  0  0
    9.1724  -16.1296   14.1686 N   0  0  0  0  0  0  0  0  0  0  0  0
    9.2128  -15.3203   16.4023 C   0  0  0  0  0  0  0  0  0  0  0  0
   10.4670  -15.2383   16.3060 O   0  0  0  0  0  0  0  0  0  0  0  0
    8.5672  -14.6901   17.4990 N   0  0  0  0  0  0  0  0  0  0  0  0
    9.3618  -13.9311   18.4722 C   0  0  1  0  0  0  0  0  0  0  0  0
    8.3960  -13.2531   19.4213 C   0  0  0  0  0  0  0  0  0  0  0  0
    7.4043  -12.0723   18.4464 S   0  0  0  0  0  0  0  0  0  0  0  0
   10.1775  -14.8820   19.3025 C   0  0  0  0  0  0  0  0  0  0  0  0
    9.6856  -15.9934   19.6249 O   0  0  0  0  0  0  0  0  0  0  0  0
   11.4723  -14.5847   19.7379 N   0  0  0  0  0  0  0  0  0  0  0  0
   12.4563  -15.6462   20.0326 C   0  0  1  0  0  0  0  0  0  0  0  0
   12.6641  -16.5028   18.8438 C   0  0  0  0  0  0  0  0  0  0  0  0
   13.6756  -17.5442   19.0651 C   0  0  0  0  0  0  0  0  0  0  0  0
   13.4791  -18.5040   20.0736 C   0  0  0  0  0  0  0  0  0  0  0  0
   14.5120  -19.3249   20.0800 N   0  0  0  0  0  0  0  0  0  0  0  0
   15.3440  -18.9256   19.1256 C   0  0  0  0  0  0  0  0  0  0  0  0
   14.8405  -17.8456   18.5074 N   0  0  0  0  0  0  0  0  0  0  0  0
   13.7131  -14.9748   20.4791 C   0  0  0  0  0  0  0  0  0  0  0  0
   14.1007  -13.7455   20.0165 O   0  0  0  0  0  0  0  0  0  0  0  0
   14.4529  -15.5637   21.3184 O   0  0  0  0  0  0  0  0  0  0  0  0
  2  3  1  0
  2  1  1  0
  3  4  1  6
  3  5  1  0
  5  7  1  0
  6  5  2  0
  7  8  1  0
  8 11  1  0
  8  9  1  1
  9 10  1  0
 11 12  2  0
 13 14  1  0
 13 11  1  0
 14 15  1  6
 15 16  1  0
 16 17  2  0
 16 20  1  0
 17 18  1  0
 18 19  1  0
 20 19  2  0
 21 22  1  0
 21 14  1  0
 23 21  2  0
M  END
$$$$
