SCH.pdb
     RDKit          3D

 23 23  0  0  1  0  0  0  0  0999 V2000
    6.6713  -19.2039   17.7072 O   0  0  0  0  0  0  0  0  0  0  0  0
    8.0145  -18.8493   17.8718 C   0  0  0  0  0  0  0  0  0  0  0  0
    8.1550  -17.4235   17.4040 C   0  0  2  0  0  0  0  0  0  0  0  0
    9.0572  -17.3703   16.2826 N   0  0  0  0  0  0  0  0  0  0  0  0
    8.6857  -16.5616   18.4858 C   0  0  0  0  0  0  0  0  0  0  0  0
    9.9271  -16.4070   18.6410 O   0  0  0  0  0  0  0  0  0  0  0  0
    7.7964  -15.8934   19.3686 N   0  0  0  0  0  0  0  0  0  0  0  0
    8.3274  -15.1997   20.5482 C   0  0  1  0  0  0  0  0  0  0  0  0
    7.1948  -14.3991   21.1559 C   0  0  0  0  0  0  0  0  0  0  0  0
    7.7921  -13.7137   22.7375 S   0  0  0  0  0  0  0  0  0  0  0  0
    8.7360  -16.2113   21.5819 C   0  0  0  0  0  0  0  0  0  0  0  0
    7.9155  -17.0976   21.9319 O   0  0  0  0  0  0  0  0  0  0  0  0
   10.0001  -16.2126   22.1789 N   0  0  0  0  0  0  0  0  0  0  0  0
   10.3541  -17.1688   23.2478 C   0  0  1  0  0  0  0  0  0  0  0  0
   11.5178  -17.9887   22.8431 C   0  0  0  0  0  0  0  0  0  0  0  0
   11.2012  -18.9257   21.7576 C   0  0  0  0  0  0  0  0  0  0  0  0
   11.6835  -18.6784   20.4602 C   0  0  0  0  0  0  0  0  0  0  0  0
   11.2724  -19.6489   19.6666 N   0  0  0  0  0  0  0  0  0  0  0  0
   10.5573  -20.4902   20.4037 C   0  0  0  0  0  0  0  0  0  0  0  0
   10.5116  -20.0554   21.6728 N   0  0  0  0  0  0  0  0  0  0  0  0
   10.6177  -16.3745   24.4844 C   0  0  0  0  0  0  0  0  0  0  0  0
   10.9273  -16.9549   25.6855 O   0  0  0  0  0  0  0  0  0  0  0  0
   10.5523  -15.1134   24.4234 O   0  0  0  0  0  0  0  0  0  0  0  0
  2  3  1  0
  2  1  1  0
  3  4  1  6
  3  5  1  0
  5  7  1  0
  6  5  2  0
  7  8  1  0
  8 11  1  0
  8  9  1  1
  9 10  1  0
 11 12  2  0
 13 14  1  0
 13 11  1  0
 14 15  1  6
 15 16  1  0
 16 17  2  0
 16 20  1  0
 17 18  1  0
 18 19  1  0
 20 19  2  0
 21 22  1  0
 21 14  1  0
 23 21  2  0
M  END
$$$$
