SCH.pdb
     RDKit          3D

 23 23  0  0  1  0  0  0  0  0999 V2000
   15.5334  -16.2087   16.6029 O   0  0  0  0  0  0  0  0  0  0  0  0
   14.2125  -16.0597   16.1670 C   0  0  0  0  0  0  0  0  0  0  0  0
   13.8413  -14.6132   16.3700 C   0  0  2  0  0  0  0  0  0  0  0  0
   14.9380  -13.7721   15.9648 N   0  0  0  0  0  0  0  0  0  0  0  0
   13.5305  -14.3413   17.7928 C   0  0  0  0  0  0  0  0  0  0  0  0
   14.3018  -13.6404   18.5019 O   0  0  0  0  0  0  0  0  0  0  0  0
   12.3511  -14.8705   18.3806 N   0  0  0  0  0  0  0  0  0  0  0  0
   12.0715  -14.6220   19.8000 C   0  0  1  0  0  0  0  0  0  0  0  0
   10.6350  -15.0246   20.0601 C   0  0  0  0  0  0  0  0  0  0  0  0
   10.2749  -14.6761   21.8142 S   0  0  0  0  0  0  0  0  0  0  0  0
   12.9262  -15.5253   20.6440 C   0  0  0  0  0  0  0  0  0  0  0  0
   13.0249  -16.7408   20.3371 O   0  0  0  0  0  0  0  0  0  0  0  0
   13.6245  -15.0717   21.7670 N   0  0  0  0  0  0  0  0  0  0  0  0
   14.4713  -15.9747   22.5730 C   0  0  1  0  0  0  0  0  0  0  0  0
   15.6901  -15.2701   23.0290 C   0  0  0  0  0  0  0  0  0  0  0  0
   16.6291  -14.9948   21.9340 C   0  0  0  0  0  0  0  0  0  0  0  0
   16.4737  -15.6515   20.7005 C   0  0  0  0  0  0  0  0  0  0  0  0
   17.4270  -15.2444   19.8843 N   0  0  0  0  0  0  0  0  0  0  0  0
   18.1702  -14.3660   20.5465 C   0  0  0  0  0  0  0  0  0  0  0  0
   17.6898  -14.2115   21.7904 N   0  0  0  0  0  0  0  0  0  0  0  0
   13.6378  -16.4677   23.7097 C   0  0  0  0  0  0  0  0  0  0  0  0
   14.1066  -17.3551   24.6415 O   0  0  0  0  0  0  0  0  0  0  0  0
   12.4491  -16.0510   23.8186 O   0  0  0  0  0  0  0  0  0  0  0  0
  2  3  1  0
  2  1  1  0
  3  4  1  1
  3  5  1  0
  5  7  1  0
  6  5  2  0
  7  8  1  0
  8 11  1  0
  8  9  1  6
  9 10  1  0
 11 12  2  0
 13 14  1  0
 13 11  1  0
 14 15  1  1
 15 16  1  0
 16 17  2  0
 16 20  1  0
 17 18  1  0
 18 19  1  0
 20 19  2  0
 21 22  1  0
 21 14  1  0
 23 21  2  0
M  END
$$$$
