EWP.pdb
     RDKit          3D

 31 33  0  0  1  0  0  0  0  0999 V2000
    9.7524  -15.8860   20.2705 N   0  0  0  0  0  0  0  0  0  0  0  0
   10.4144  -16.4939   21.3778 C   0  0  1  0  0  0  0  0  0  0  0  0
   11.8740  -16.6102   21.1133 C   0  0  0  0  0  0  0  0  0  0  0  0
   12.2556  -17.6772   20.1305 C   0  0  0  0  0  0  0  0  0  0  0  0
   12.2483  -19.0426   20.6502 C   0  0  0  0  0  0  0  0  0  0  0  0
   11.1955  -19.7372   20.5803 O   0  0  0  0  0  0  0  0  0  0  0  0
   10.1222  -15.8042   22.6680 C   0  0  0  0  0  0  0  0  0  0  0  0
   10.3699  -14.5812   22.8259 O   0  0  0  0  0  0  0  0  0  0  0  0
   13.3488  -19.6588   21.2366 O   0  0  0  0  0  0  0  0  0  0  0  0
    9.5555  -16.4819   23.7752 N   0  0  0  0  0  0  0  0  0  0  0  0
    9.4977  -15.8831   25.1262 C   0  0  1  0  0  0  0  0  0  0  0  0
    8.1712  -16.3091   25.6378 C   0  0  0  0  0  0  0  0  0  0  0  0
    7.0225  -15.4454   25.4189 C   0  0  0  0  0  0  0  0  0  0  0  0
    5.7264  -15.8273   25.0778 C   0  0  0  0  0  0  0  0  0  0  0  0
    5.0067  -14.6980   24.9970 N   0  0  0  0  0  0  0  0  0  0  0  0
    5.7747  -13.6322   25.2674 C   0  0  0  0  0  0  0  0  0  0  0  0
    5.5240  -12.2676   25.3493 C   0  0  0  0  0  0  0  0  0  0  0  0
    6.5476  -11.3944   25.6938 C   0  0  0  0  0  0  0  0  0  0  0  0
    7.8272  -11.8615   25.9592 C   0  0  0  0  0  0  0  0  0  0  0  0
    8.0741  -13.2088   25.8776 C   0  0  0  0  0  0  0  0  0  0  0  0
    7.0508  -14.0681   25.5359 C   0  0  0  0  0  0  0  0  0  0  0  0
   10.6170  -16.2667   25.9472 C   0  0  0  0  0  0  0  0  0  0  0  0
   11.6588  -16.7056   25.3368 O   0  0  0  0  0  0  0  0  0  0  0  0
   10.5891  -16.1560   27.3495 N   0  0  0  0  0  0  0  0  0  0  0  0
    9.5000  -15.6696   28.1353 C   0  0  0  0  0  0  0  0  0  0  0  0
   10.1790  -14.6656   29.0520 C   0  0  0  0  0  0  0  0  0  0  0  0
   11.6145  -15.0534   29.0543 C   0  0  0  0  0  0  0  0  0  0  0  0
   11.6548  -16.4168   28.2797 C   0  0  1  0  0  0  0  0  0  0  0  0
   11.4414  -17.4831   29.2513 C   0  0  0  0  0  0  0  0  0  0  0  0
   12.3583  -17.7151   30.0871 O   0  0  0  0  0  0  0  0  0  0  0  0
   10.3118  -18.2581   29.3298 O   0  0  0  0  0  0  0  0  0  0  0  0
  2  1  1  6
  3  2  1  0
  3  4  1  0
  4  5  1  0
  5  9  1  0
  6  5  2  0
  7  8  2  0
  7  2  1  0
 10  7  1  0
 11 10  1  0
 11 12  1  1
 12 13  1  0
 13 21  1  0
 13 14  2  0
 14 15  1  0
 16 15  1  0
 16 17  2  0
 18 17  1  0
 19 18  2  0
 20 21  2  0
 20 19  1  0
 21 16  1  0
 22 23  2  0
 22 11  1  0
 24 22  1  0
 25 24  1  0
 26 27  1  0
 26 25  1  0
 27 28  1  0
 28 24  1  0
 28 29  1  1
 30 29  2  0
 31 29  1  0
M  END
$$$$
