EWP.pdb
     RDKit          3D

 31 33  0  0  1  0  0  0  0  0999 V2000
   12.3834  -16.2102   19.8676 N   0  0  0  0  0  0  0  0  0  0  0  0
   11.4717  -16.9548   20.6727 C   0  0  1  0  0  0  0  0  0  0  0  0
   12.0104  -18.3138   20.9501 C   0  0  0  0  0  0  0  0  0  0  0  0
   13.3414  -18.3375   21.6414 C   0  0  0  0  0  0  0  0  0  0  0  0
   13.8923  -19.6657   21.8995 C   0  0  0  0  0  0  0  0  0  0  0  0
   13.2695  -20.6928   21.5079 O   0  0  0  0  0  0  0  0  0  0  0  0
   11.0845  -16.2302   21.9180 C   0  0  0  0  0  0  0  0  0  0  0  0
   11.8948  -15.4742   22.5128 O   0  0  0  0  0  0  0  0  0  0  0  0
   15.0911  -19.8958   22.5663 O   0  0  0  0  0  0  0  0  0  0  0  0
    9.7959  -16.3525   22.4932 N   0  0  0  0  0  0  0  0  0  0  0  0
    9.4495  -15.7476   23.7975 C   0  0  1  0  0  0  0  0  0  0  0  0
    7.9822  -15.5434   23.7063 C   0  0  0  0  0  0  0  0  0  0  0  0
    7.2765  -14.9915   24.8512 C   0  0  0  0  0  0  0  0  0  0  0  0
    6.6757  -15.6914   25.8958 C   0  0  0  0  0  0  0  0  0  0  0  0
    6.1634  -14.7698   26.7253 N   0  0  0  0  0  0  0  0  0  0  0  0
    6.4078  -13.5349   26.2624 C   0  0  0  0  0  0  0  0  0  0  0  0
    6.1293  -12.2603   26.7416 C   0  0  0  0  0  0  0  0  0  0  0  0
    6.5546  -11.1448   26.0318 C   0  0  0  0  0  0  0  0  0  0  0  0
    7.2574  -11.2788   24.8427 C   0  0  0  0  0  0  0  0  0  0  0  0
    7.5314  -12.5375   24.3698 C   0  0  0  0  0  0  0  0  0  0  0  0
    7.1060  -13.6391   25.0824 C   0  0  0  0  0  0  0  0  0  0  0  0
    9.8825  -16.5525   24.9105 C   0  0  0  0  0  0  0  0  0  0  0  0
   10.3016  -17.7365   24.6400 O   0  0  0  0  0  0  0  0  0  0  0  0
    9.8671  -16.0715   26.2326 N   0  0  0  0  0  0  0  0  0  0  0  0
    9.3158  -14.8289   26.6713 C   0  0  0  0  0  0  0  0  0  0  0  0
   10.4391  -14.2514   27.5163 C   0  0  0  0  0  0  0  0  0  0  0  0
   11.2808  -15.4188   27.8905 C   0  0  0  0  0  0  0  0  0  0  0  0
   10.4658  -16.6653   27.3979 C   0  0  1  0  0  0  0  0  0  0  0  0
    9.5680  -17.0604   28.4769 C   0  0  0  0  0  0  0  0  0  0  0  0
    8.3334  -16.8430   28.3297 O   0  0  0  0  0  0  0  0  0  0  0  0
    9.9635  -17.6570   29.6475 O   0  0  0  0  0  0  0  0  0  0  0  0
  2  1  1  1
  3  2  1  0
  3  4  1  0
  4  5  1  0
  5  9  1  0
  6  5  2  0
  7  8  2  0
  7  2  1  0
 10  7  1  0
 11 10  1  0
 11 12  1  6
 12 13  1  0
 13 21  1  0
 13 14  2  0
 14 15  1  0
 16 15  1  0
 16 17  2  0
 18 17  1  0
 19 18  2  0
 20 21  2  0
 20 19  1  0
 21 16  1  0
 22 23  2  0
 22 11  1  0
 24 22  1  0
 25 24  1  0
 26 27  1  0
 26 25  1  0
 27 28  1  0
 28 24  1  0
 28 29  1  1
 30 29  2  0
 31 29  1  0
M  END
$$$$
