EWP.pdb
     RDKit          3D

 31 33  0  0  1  0  0  0  0  0999 V2000
    9.8638  -17.4424   19.5154 N   0  0  0  0  0  0  0  0  0  0  0  0
   11.0013  -17.2010   20.3411 C   0  0  1  0  0  0  0  0  0  0  0  0
   12.1168  -16.6301   19.5387 C   0  0  0  0  0  0  0  0  0  0  0  0
   13.4894  -16.9095   20.0753 C   0  0  0  0  0  0  0  0  0  0  0  0
   14.0936  -18.1644   19.6344 C   0  0  0  0  0  0  0  0  0  0  0  0
   14.4278  -18.3115   18.4250 O   0  0  0  0  0  0  0  0  0  0  0  0
   10.6749  -16.3693   21.5358 C   0  0  0  0  0  0  0  0  0  0  0  0
   11.4425  -15.4509   21.9221 O   0  0  0  0  0  0  0  0  0  0  0  0
   14.3381  -19.2478   20.4717 O   0  0  0  0  0  0  0  0  0  0  0  0
    9.4943  -16.5661   22.2933 N   0  0  0  0  0  0  0  0  0  0  0  0
    9.2695  -15.9050   23.5970 C   0  0  1  0  0  0  0  0  0  0  0  0
    7.8196  -15.5886   23.5799 C   0  0  0  0  0  0  0  0  0  0  0  0
    7.1852  -15.1308   24.8052 C   0  0  0  0  0  0  0  0  0  0  0  0
    6.6234  -15.9122   25.8131 C   0  0  0  0  0  0  0  0  0  0  0  0
    6.1741  -15.0609   26.7477 N   0  0  0  0  0  0  0  0  0  0  0  0
    6.4212  -13.7935   26.3851 C   0  0  0  0  0  0  0  0  0  0  0  0
    6.1951  -12.5631   26.9906 C   0  0  0  0  0  0  0  0  0  0  0  0
    6.6078  -11.3952   26.3622 C   0  0  0  0  0  0  0  0  0  0  0  0
    7.2460  -11.4328   25.1305 C   0  0  0  0  0  0  0  0  0  0  0  0
    7.4683  -12.6480   24.5329 C   0  0  0  0  0  0  0  0  0  0  0  0
    7.0560  -13.8022   25.1653 C   0  0  0  0  0  0  0  0  0  0  0  0
    9.7013  -16.7146   24.7070 C   0  0  0  0  0  0  0  0  0  0  0  0
   10.0476  -17.9230   24.4416 O   0  0  0  0  0  0  0  0  0  0  0  0
    9.7606  -16.2134   26.0203 N   0  0  0  0  0  0  0  0  0  0  0  0
    9.2475  -14.9576   26.4674 C   0  0  0  0  0  0  0  0  0  0  0  0
   10.4200  -14.3814   27.2436 C   0  0  0  0  0  0  0  0  0  0  0  0
   11.2665  -15.5533   27.5919 C   0  0  0  0  0  0  0  0  0  0  0  0
   10.4124  -16.7968   27.1621 C   0  0  1  0  0  0  0  0  0  0  0  0
    9.5677  -17.1644   28.2925 C   0  0  0  0  0  0  0  0  0  0  0  0
   10.1310  -17.5840   29.3411 O   0  0  0  0  0  0  0  0  0  0  0  0
    8.1979  -17.0864   28.3060 O   0  0  0  0  0  0  0  0  0  0  0  0
  2  1  1  6
  3  2  1  0
  3  4  1  0
  4  5  1  0
  5  9  1  0
  6  5  2  0
  7  8  2  0
  7  2  1  0
 10  7  1  0
 11 10  1  0
 11 12  1  1
 12 13  1  0
 13 21  1  0
 13 14  2  0
 14 15  1  0
 16 15  1  0
 16 17  2  0
 18 17  1  0
 19 18  2  0
 20 21  2  0
 20 19  1  0
 21 16  1  0
 22 23  2  0
 22 11  1  0
 24 22  1  0
 25 24  1  0
 26 27  1  0
 26 25  1  0
 27 28  1  0
 28 24  1  0
 28 29  1  1
 30 29  2  0
 31 29  1  0
M  END
$$$$
