EWP.pdb
     RDKit          3D

 31 33  0  0  1  0  0  0  0  0999 V2000
    4.6298  -19.7054   23.3758 N   0  0  0  0  0  0  0  0  0  0  0  0
    5.6922  -19.3877   22.4791 C   0  0  1  0  0  0  0  0  0  0  0  0
    5.4582  -20.0142   21.1499 C   0  0  0  0  0  0  0  0  0  0  0  0
    6.3926  -21.1361   20.8062 C   0  0  0  0  0  0  0  0  0  0  0  0
    7.0419  -21.0363   19.5013 C   0  0  0  0  0  0  0  0  0  0  0  0
    7.9708  -21.8368   19.1974 O   0  0  0  0  0  0  0  0  0  0  0  0
    5.9389  -17.9195   22.3815 C   0  0  0  0  0  0  0  0  0  0  0  0
    5.0950  -17.1486   21.8567 O   0  0  0  0  0  0  0  0  0  0  0  0
    6.7054  -20.0956   18.5336 O   0  0  0  0  0  0  0  0  0  0  0  0
    7.1252  -17.3190   22.8698 N   0  0  0  0  0  0  0  0  0  0  0  0
    7.5093  -15.9319   22.5300 C   0  0  1  0  0  0  0  0  0  0  0  0
    8.1624  -15.4397   23.7685 C   0  0  0  0  0  0  0  0  0  0  0  0
    7.3326  -15.0887   24.9095 C   0  0  0  0  0  0  0  0  0  0  0  0
    6.4913  -15.9283   25.6371 C   0  0  0  0  0  0  0  0  0  0  0  0
    5.9440  -15.1738   26.6020 N   0  0  0  0  0  0  0  0  0  0  0  0
    6.3926  -13.9124   26.5220 C   0  0  0  0  0  0  0  0  0  0  0  0
    6.1716  -12.7678   27.2789 C   0  0  0  0  0  0  0  0  0  0  0  0
    6.8272  -11.5866   26.9568 C   0  0  0  0  0  0  0  0  0  0  0  0
    7.7056  -11.5257   25.8841 C   0  0  0  0  0  0  0  0  0  0  0  0
    7.9229  -12.6560   25.1368 C   0  0  0  0  0  0  0  0  0  0  0  0
    7.2681  -13.8245   25.4653 C   0  0  0  0  0  0  0  0  0  0  0  0
    8.3237  -15.8604   21.3444 C   0  0  0  0  0  0  0  0  0  0  0  0
    8.6643  -16.9771   20.8082 O   0  0  0  0  0  0  0  0  0  0  0  0
    8.7202  -14.6333   20.7819 N   0  0  0  0  0  0  0  0  0  0  0  0
    8.4141  -13.3343   21.2910 C   0  0  0  0  0  0  0  0  0  0  0  0
    7.8998  -12.6109   20.0574 C   0  0  0  0  0  0  0  0  0  0  0  0
    8.4412  -13.3791   18.9050 C   0  0  0  0  0  0  0  0  0  0  0  0
    9.4298  -14.4119   19.5504 C   0  0  1  0  0  0  0  0  0  0  0  0
   10.7372  -13.7728   19.6436 C   0  0  0  0  0  0  0  0  0  0  0  0
   11.3872  -13.5953   18.5763 O   0  0  0  0  0  0  0  0  0  0  0  0
   11.3191  -13.3437   20.8097 O   0  0  0  0  0  0  0  0  0  0  0  0
  2  1  1  1
  3  2  1  0
  3  4  1  0
  4  5  1  0
  5  9  1  0
  6  5  2  0
  7  8  2  0
  7  2  1  0
 10  7  1  0
 11 10  1  0
 11 12  1  1
 12 13  1  0
 13 21  1  0
 13 14  2  0
 14 15  1  0
 16 15  1  0
 16 17  2  0
 18 17  1  0
 19 18  2  0
 20 21  2  0
 20 19  1  0
 21 16  1  0
 22 23  2  0
 22 11  1  0
 24 22  1  0
 25 24  1  0
 26 27  1  0
 26 25  1  0
 27 28  1  0
 28 24  1  0
 28 29  1  1
 30 29  2  0
 31 29  1  0
M  END
$$$$
