EWP.pdb
     RDKit          3D

 31 33  0  0  1  0  0  0  0  0999 V2000
    9.0754  -18.7668   19.7921 N   0  0  0  0  0  0  0  0  0  0  0  0
   10.0075  -19.0691   20.8283 C   0  0  1  0  0  0  0  0  0  0  0  0
   11.3204  -19.4643   20.2502 C   0  0  0  0  0  0  0  0  0  0  0  0
   11.6535  -18.8190   18.9377 C   0  0  0  0  0  0  0  0  0  0  0  0
   12.7661  -19.4198   18.2059 C   0  0  0  0  0  0  0  0  0  0  0  0
   13.1473  -18.9136   17.1130 O   0  0  0  0  0  0  0  0  0  0  0  0
   10.1326  -17.9662   21.8250 C   0  0  0  0  0  0  0  0  0  0  0  0
   11.2483  -17.4509   22.0929 O   0  0  0  0  0  0  0  0  0  0  0  0
   13.4627  -20.5451   18.6337 O   0  0  0  0  0  0  0  0  0  0  0  0
    9.0130  -17.4437   22.5177 N   0  0  0  0  0  0  0  0  0  0  0  0
    9.1432  -16.4194   23.5765 C   0  0  1  0  0  0  0  0  0  0  0  0
    7.9579  -15.5512   23.3666 C   0  0  0  0  0  0  0  0  0  0  0  0
    7.9902  -14.1850   23.8627 C   0  0  0  0  0  0  0  0  0  0  0  0
    8.6087  -13.0831   23.2750 C   0  0  0  0  0  0  0  0  0  0  0  0
    8.3621  -12.0366   24.0773 N   0  0  0  0  0  0  0  0  0  0  0  0
    7.6262  -12.4174   25.1319 C   0  0  0  0  0  0  0  0  0  0  0  0
    7.0843  -11.7381   26.2166 C   0  0  0  0  0  0  0  0  0  0  0  0
    6.3179  -12.4231   27.1506 C   0  0  0  0  0  0  0  0  0  0  0  0
    6.0813  -13.7845   27.0218 C   0  0  0  0  0  0  0  0  0  0  0  0
    6.6172  -14.4546   25.9510 C   0  0  0  0  0  0  0  0  0  0  0  0
    7.3759  -13.7655   25.0280 C   0  0  0  0  0  0  0  0  0  0  0  0
    9.2478  -16.9967   24.8917 C   0  0  0  0  0  0  0  0  0  0  0  0
    8.6611  -18.1246   25.0769 O   0  0  0  0  0  0  0  0  0  0  0  0
    9.9679  -16.3735   25.9274 N   0  0  0  0  0  0  0  0  0  0  0  0
   10.4212  -15.0191   25.9424 C   0  0  0  0  0  0  0  0  0  0  0  0
   11.8787  -15.1651   26.3472 C   0  0  0  0  0  0  0  0  0  0  0  0
   11.9647  -16.4935   27.0098 C   0  0  0  0  0  0  0  0  0  0  0  0
   10.4747  -16.9675   27.1354 C   0  0  1  0  0  0  0  0  0  0  0  0
    9.9529  -16.4544   28.3967 C   0  0  0  0  0  0  0  0  0  0  0  0
   10.3664  -16.9808   29.4667 O   0  0  0  0  0  0  0  0  0  0  0  0
    9.0423  -15.4345   28.5119 O   0  0  0  0  0  0  0  0  0  0  0  0
  2  1  1  6
  3  2  1  0
  3  4  1  0
  4  5  1  0
  5  9  1  0
  6  5  2  0
  7  8  2  0
  7  2  1  0
 10  7  1  0
 11 10  1  0
 11 12  1  1
 12 13  1  0
 13 21  1  0
 13 14  2  0
 14 15  1  0
 16 15  1  0
 16 17  2  0
 18 17  1  0
 19 18  2  0
 20 21  2  0
 20 19  1  0
 21 16  1  0
 22 23  2  0
 22 11  1  0
 24 22  1  0
 25 24  1  0
 26 27  1  0
 26 25  1  0
 27 28  1  0
 28 24  1  0
 28 29  1  1
 30 29  2  0
 31 29  1  0
M  END
$$$$
