EWP.pdb
     RDKit          3D

 31 33  0  0  1  0  0  0  0  0999 V2000
    4.8309  -20.0356   23.3941 N   0  0  0  0  0  0  0  0  0  0  0  0
    6.1860  -19.5959   23.3289 C   0  0  1  0  0  0  0  0  0  0  0  0
    6.9894  -20.5068   22.4695 C   0  0  0  0  0  0  0  0  0  0  0  0
    6.6378  -20.4745   21.0116 C   0  0  0  0  0  0  0  0  0  0  0  0
    7.4529  -21.3266   20.1491 C   0  0  0  0  0  0  0  0  0  0  0  0
    7.2490  -21.3391   18.9024 O   0  0  0  0  0  0  0  0  0  0  0  0
    6.3048  -18.1680   22.9132 C   0  0  0  0  0  0  0  0  0  0  0  0
    5.5248  -17.6680   22.0627 O   0  0  0  0  0  0  0  0  0  0  0  0
    8.4714  -22.1542   20.6097 O   0  0  0  0  0  0  0  0  0  0  0  0
    7.2928  -17.3054   23.4483 N   0  0  0  0  0  0  0  0  0  0  0  0
    7.5527  -15.9586   22.8955 C   0  0  1  0  0  0  0  0  0  0  0  0
    8.1355  -15.2193   24.0429 C   0  0  0  0  0  0  0  0  0  0  0  0
    7.2491  -14.7232   25.0831 C   0  0  0  0  0  0  0  0  0  0  0  0
    6.2460  -15.4249   25.7490 C   0  0  0  0  0  0  0  0  0  0  0  0
    5.7048  -14.5695   26.6295 N   0  0  0  0  0  0  0  0  0  0  0  0
    6.3093  -13.3746   26.5547 C   0  0  0  0  0  0  0  0  0  0  0  0
    6.1579  -12.1799   27.2486 C   0  0  0  0  0  0  0  0  0  0  0  0
    6.9805  -11.0997   26.9563 C   0  0  0  0  0  0  0  0  0  0  0  0
    7.9584  -11.1900   25.9758 C   0  0  0  0  0  0  0  0  0  0  0  0
    8.1069  -12.3696   25.2907 C   0  0  0  0  0  0  0  0  0  0  0  0
    7.2862  -13.4371   25.5889 C   0  0  0  0  0  0  0  0  0  0  0  0
    8.3779  -15.9972   21.7158 C   0  0  0  0  0  0  0  0  0  0  0  0
    8.7842  -17.1538   21.3314 O   0  0  0  0  0  0  0  0  0  0  0  0
    8.7165  -14.8335   21.0011 N   0  0  0  0  0  0  0  0  0  0  0  0
    8.3743  -13.4940   21.3603 C   0  0  0  0  0  0  0  0  0  0  0  0
    7.8065  -12.9413   20.0636 C   0  0  0  0  0  0  0  0  0  0  0  0
    8.3497  -13.8231   18.9966 C   0  0  0  0  0  0  0  0  0  0  0  0
    9.3898  -14.7372   19.7337 C   0  0  1  0  0  0  0  0  0  0  0  0
   10.6746  -14.0478   19.7155 C   0  0  0  0  0  0  0  0  0  0  0  0
   11.0320  -13.4336   20.7586 O   0  0  0  0  0  0  0  0  0  0  0  0
   11.5329  -14.0167   18.6455 O   0  0  0  0  0  0  0  0  0  0  0  0
  2  1  1  6
  3  2  1  0
  3  4  1  0
  4  5  1  0
  5  9  1  0
  6  5  2  0
  7  8  2  0
  7  2  1  0
 10  7  1  0
 11 10  1  0
 11 12  1  1
 12 13  1  0
 13 21  1  0
 13 14  2  0
 14 15  1  0
 16 15  1  0
 16 17  2  0
 18 17  1  0
 19 18  2  0
 20 21  2  0
 20 19  1  0
 21 16  1  0
 22 23  2  0
 22 11  1  0
 24 22  1  0
 25 24  1  0
 26 27  1  0
 26 25  1  0
 27 28  1  0
 28 24  1  0
 28 29  1  1
 30 29  2  0
 31 29  1  0
M  END
$$$$
