EWP.pdb
     RDKit          3D

 31 33  0  0  1  0  0  0  0  0999 V2000
   11.4729  -15.9430   19.4413 N   0  0  0  0  0  0  0  0  0  0  0  0
   11.7264  -16.7087   20.6175 C   0  0  1  0  0  0  0  0  0  0  0  0
   13.1569  -17.1137   20.6782 C   0  0  0  0  0  0  0  0  0  0  0  0
   13.4944  -18.0807   21.7740 C   0  0  0  0  0  0  0  0  0  0  0  0
   14.7048  -17.7743   22.5325 C   0  0  0  0  0  0  0  0  0  0  0  0
   14.6133  -17.2846   23.6935 O   0  0  0  0  0  0  0  0  0  0  0  0
   11.2773  -16.0151   21.8596 C   0  0  0  0  0  0  0  0  0  0  0  0
   11.8986  -15.0203   22.3136 O   0  0  0  0  0  0  0  0  0  0  0  0
   15.9954  -17.9869   22.0594 O   0  0  0  0  0  0  0  0  0  0  0  0
   10.1376  -16.4346   22.5888 N   0  0  0  0  0  0  0  0  0  0  0  0
    9.6886  -15.7501   23.8205 C   0  0  1  0  0  0  0  0  0  0  0  0
    8.2481  -15.4953   23.5700 C   0  0  0  0  0  0  0  0  0  0  0  0
    7.4087  -15.0596   24.6741 C   0  0  0  0  0  0  0  0  0  0  0  0
    6.7781  -15.8574   25.6270 C   0  0  0  0  0  0  0  0  0  0  0  0
    6.1289  -15.0222   26.4520 N   0  0  0  0  0  0  0  0  0  0  0  0
    6.3155  -13.7494   26.0727 C   0  0  0  0  0  0  0  0  0  0  0  0
    5.9008  -12.5265   26.5869 C   0  0  0  0  0  0  0  0  0  0  0  0
    6.2971  -11.3459   25.9720 C   0  0  0  0  0  0  0  0  0  0  0  0
    7.1051  -11.3632   24.8439 C   0  0  0  0  0  0  0  0  0  0  0  0
    7.5137  -12.5709   24.3364 C   0  0  0  0  0  0  0  0  0  0  0  0
    7.1160  -13.7379   24.9548 C   0  0  0  0  0  0  0  0  0  0  0  0
    9.9728  -16.5121   25.0091 C   0  0  0  0  0  0  0  0  0  0  0  0
   10.3326  -17.7339   24.8409 O   0  0  0  0  0  0  0  0  0  0  0  0
    9.8802  -15.9524   26.2966 N   0  0  0  0  0  0  0  0  0  0  0  0
    9.2981  -14.6907   26.6276 C   0  0  0  0  0  0  0  0  0  0  0  0
   10.3687  -14.0532   27.4975 C   0  0  0  0  0  0  0  0  0  0  0  0
   11.1945  -15.1883   27.9884 C   0  0  0  0  0  0  0  0  0  0  0  0
   10.4156  -16.4695   27.5275 C   0  0  1  0  0  0  0  0  0  0  0  0
    9.4606  -16.8070   28.5765 C   0  0  0  0  0  0  0  0  0  0  0  0
    9.9145  -17.1331   29.7082 O   0  0  0  0  0  0  0  0  0  0  0  0
    8.0965  -16.7950   28.4289 O   0  0  0  0  0  0  0  0  0  0  0  0
  2  1  1  6
  3  2  1  0
  3  4  1  0
  4  5  1  0
  5  9  1  0
  6  5  2  0
  7  8  2  0
  7  2  1  0
 10  7  1  0
 11 10  1  0
 11 12  1  6
 12 13  1  0
 13 21  1  0
 13 14  2  0
 14 15  1  0
 16 15  1  0
 16 17  2  0
 18 17  1  0
 19 18  2  0
 20 21  2  0
 20 19  1  0
 21 16  1  0
 22 23  2  0
 22 11  1  0
 24 22  1  0
 25 24  1  0
 26 27  1  0
 26 25  1  0
 27 28  1  0
 28 24  1  0
 28 29  1  1
 30 29  2  0
 31 29  1  0
M  END
$$$$
