EWP.pdb
     RDKit          3D

 31 33  0  0  1  0  0  0  0  0999 V2000
   10.7132  -16.8409   19.5227 N   0  0  0  0  0  0  0  0  0  0  0  0
   11.5212  -17.1720   20.6503 C   0  0  1  0  0  0  0  0  0  0  0  0
   12.9643  -17.0216   20.3203 C   0  0  0  0  0  0  0  0  0  0  0  0
   13.9089  -17.4566   21.4012 C   0  0  0  0  0  0  0  0  0  0  0  0
   15.3237  -17.2036   21.1393 C   0  0  0  0  0  0  0  0  0  0  0  0
   15.9759  -16.4308   21.8966 O   0  0  0  0  0  0  0  0  0  0  0  0
   11.1344  -16.4119   21.8744 C   0  0  0  0  0  0  0  0  0  0  0  0
   11.9335  -15.6136   22.4276 O   0  0  0  0  0  0  0  0  0  0  0  0
   16.0335  -17.7668   20.0840 O   0  0  0  0  0  0  0  0  0  0  0  0
    9.8585  -16.5460   22.4748 N   0  0  0  0  0  0  0  0  0  0  0  0
    9.5091  -15.8838   23.7502 C   0  0  1  0  0  0  0  0  0  0  0  0
    8.0459  -15.6629   23.6367 C   0  0  0  0  0  0  0  0  0  0  0  0
    7.3237  -15.1333   24.7820 C   0  0  0  0  0  0  0  0  0  0  0  0
    6.6975  -15.8537   25.7974 C   0  0  0  0  0  0  0  0  0  0  0  0
    6.1778  -14.9484   26.6402 N   0  0  0  0  0  0  0  0  0  0  0  0
    6.4416  -13.7047   26.2132 C   0  0  0  0  0  0  0  0  0  0  0  0
    6.1654  -12.4400   26.7193 C   0  0  0  0  0  0  0  0  0  0  0  0
    6.6137  -11.3110   26.0459 C   0  0  0  0  0  0  0  0  0  0  0  0
    7.3373  -11.4217   24.8669 C   0  0  0  0  0  0  0  0  0  0  0  0
    7.6091  -12.6706   24.3675 C   0  0  0  0  0  0  0  0  0  0  0  0
    7.1608  -13.7857   25.0441 C   0  0  0  0  0  0  0  0  0  0  0  0
    9.9205  -16.6487   24.8990 C   0  0  0  0  0  0  0  0  0  0  0  0
   10.2744  -17.8655   24.6874 O   0  0  0  0  0  0  0  0  0  0  0  0
    9.9529  -16.0970   26.1928 N   0  0  0  0  0  0  0  0  0  0  0  0
    9.4613  -14.8110   26.5735 C   0  0  0  0  0  0  0  0  0  0  0  0
   10.6248  -14.2355   27.3638 C   0  0  0  0  0  0  0  0  0  0  0  0
   11.4270  -15.4146   27.7849 C   0  0  0  0  0  0  0  0  0  0  0  0
   10.5524  -16.6512   27.3770 C   0  0  1  0  0  0  0  0  0  0  0  0
    9.6630  -16.9505   28.4932 C   0  0  0  0  0  0  0  0  0  0  0  0
    8.4245  -16.7711   28.3283 O   0  0  0  0  0  0  0  0  0  0  0  0
   10.0704  -17.4178   29.7172 O   0  0  0  0  0  0  0  0  0  0  0  0
  2  1  1  6
  3  2  1  0
  3  4  1  0
  4  5  1  0
  5  9  1  0
  6  5  2  0
  7  8  2  0
  7  2  1  0
 10  7  1  0
 11 10  1  0
 11 12  1  1
 12 13  1  0
 13 21  1  0
 13 14  2  0
 14 15  1  0
 16 15  1  0
 16 17  2  0
 18 17  1  0
 19 18  2  0
 20 21  2  0
 20 19  1  0
 21 16  1  0
 22 23  2  0
 22 11  1  0
 24 22  1  0
 25 24  1  0
 26 27  1  0
 26 25  1  0
 27 28  1  0
 28 24  1  0
 28 29  1  1
 30 29  2  0
 31 29  1  0
M  END
$$$$
