EWP.pdb
     RDKit          3D

 31 33  0  0  1  0  0  0  0  0999 V2000
   11.7112  -15.9381   19.4499 N   0  0  0  0  0  0  0  0  0  0  0  0
   11.2261  -16.8246   20.4563 C   0  0  1  0  0  0  0  0  0  0  0  0
   12.1931  -17.9318   20.6864 C   0  0  0  0  0  0  0  0  0  0  0  0
   13.5823  -17.6731   20.1831 C   0  0  0  0  0  0  0  0  0  0  0  0
   14.6614  -18.1874   21.0230 C   0  0  0  0  0  0  0  0  0  0  0  0
   15.4654  -17.3852   21.5763 O   0  0  0  0  0  0  0  0  0  0  0  0
   10.8620  -16.1148   21.7170 C   0  0  0  0  0  0  0  0  0  0  0  0
   11.5261  -15.1284   22.1266 O   0  0  0  0  0  0  0  0  0  0  0  0
   14.8803  -19.5386   21.2695 O   0  0  0  0  0  0  0  0  0  0  0  0
    9.7594  -16.5089   22.5140 N   0  0  0  0  0  0  0  0  0  0  0  0
    9.4050  -15.8191   23.7733 C   0  0  1  0  0  0  0  0  0  0  0  0
    7.9222  -15.7677   23.7350 C   0  0  0  0  0  0  0  0  0  0  0  0
    7.2089  -15.1975   24.8662 C   0  0  0  0  0  0  0  0  0  0  0  0
    6.5077  -15.8798   25.8586 C   0  0  0  0  0  0  0  0  0  0  0  0
    6.0304  -14.9467   26.6961 N   0  0  0  0  0  0  0  0  0  0  0  0
    6.3910  -13.7213   26.2873 C   0  0  0  0  0  0  0  0  0  0  0  0
    6.1902  -12.4442   26.7976 C   0  0  0  0  0  0  0  0  0  0  0  0
    6.7333  -11.3443   26.1462 C   0  0  0  0  0  0  0  0  0  0  0  0
    7.4781  -11.4965   24.9851 C   0  0  0  0  0  0  0  0  0  0  0  0
    7.6755  -12.7577   24.4815 C   0  0  0  0  0  0  0  0  0  0  0  0
    7.1332  -13.8437   25.1363 C   0  0  0  0  0  0  0  0  0  0  0  0
    9.9603  -16.4688   24.9324 C   0  0  0  0  0  0  0  0  0  0  0  0
   10.5872  -17.5722   24.7325 O   0  0  0  0  0  0  0  0  0  0  0  0
    9.8426  -15.9235   26.2241 N   0  0  0  0  0  0  0  0  0  0  0  0
    9.1147  -14.7470   26.5794 C   0  0  0  0  0  0  0  0  0  0  0  0
   10.1246  -13.9750   27.4121 C   0  0  0  0  0  0  0  0  0  0  0  0
   11.1073  -14.9929   27.8697 C   0  0  0  0  0  0  0  0  0  0  0  0
   10.4843  -16.3648   27.4334 C   0  0  1  0  0  0  0  0  0  0  0  0
    9.6194  -16.8210   28.5151 C   0  0  0  0  0  0  0  0  0  0  0  0
    8.3734  -16.8298   28.3136 O   0  0  0  0  0  0  0  0  0  0  0  0
   10.0580  -17.2471   29.7434 O   0  0  0  0  0  0  0  0  0  0  0  0
  2  1  1  6
  3  2  1  0
  3  4  1  0
  4  5  1  0
  5  9  1  0
  6  5  2  0
  7  8  2  0
  7  2  1  0
 10  7  1  0
 11 10  1  0
 11 12  1  1
 12 13  1  0
 13 21  1  0
 13 14  2  0
 14 15  1  0
 16 15  1  0
 16 17  2  0
 18 17  1  0
 19 18  2  0
 20 21  2  0
 20 19  1  0
 21 16  1  0
 22 23  2  0
 22 11  1  0
 24 22  1  0
 25 24  1  0
 26 27  1  0
 26 25  1  0
 27 28  1  0
 28 24  1  0
 28 29  1  1
 30 29  2  0
 31 29  1  0
M  END
$$$$
