EWP.pdb
     RDKit          3D

 31 33  0  0  1  0  0  0  0  0999 V2000
    9.6516  -16.3983   20.1051 N   0  0  0  0  0  0  0  0  0  0  0  0
   10.3427  -16.9805   21.2084 C   0  0  1  0  0  0  0  0  0  0  0  0
   11.7791  -17.1824   20.8766 C   0  0  0  0  0  0  0  0  0  0  0  0
   12.0345  -17.9332   19.6034 C   0  0  0  0  0  0  0  0  0  0  0  0
   13.4398  -18.1821   19.2912 C   0  0  0  0  0  0  0  0  0  0  0  0
   13.7528  -18.7517   18.2078 O   0  0  0  0  0  0  0  0  0  0  0  0
   10.1526  -16.2117   22.4728 C   0  0  0  0  0  0  0  0  0  0  0  0
   10.3947  -14.9788   22.5305 O   0  0  0  0  0  0  0  0  0  0  0  0
   14.4971  -17.8285   20.1229 O   0  0  0  0  0  0  0  0  0  0  0  0
    9.6936  -16.8218   23.6658 N   0  0  0  0  0  0  0  0  0  0  0  0
    9.6302  -16.0968   24.9533 C   0  0  1  0  0  0  0  0  0  0  0  0
    8.2414  -16.3367   25.4184 C   0  0  0  0  0  0  0  0  0  0  0  0
    7.2050  -15.3822   25.0601 C   0  0  0  0  0  0  0  0  0  0  0  0
    6.1610  -15.5631   24.1549 C   0  0  0  0  0  0  0  0  0  0  0  0
    5.4513  -14.4246   24.1613 N   0  0  0  0  0  0  0  0  0  0  0  0
    5.9886  -13.5420   25.0164 C   0  0  0  0  0  0  0  0  0  0  0  0
    5.6357  -12.2580   25.4146 C   0  0  0  0  0  0  0  0  0  0  0  0
    6.3941  -11.5962   26.3715 C   0  0  0  0  0  0  0  0  0  0  0  0
    7.5076  -12.1963   26.9423 C   0  0  0  0  0  0  0  0  0  0  0  0
    7.8559  -13.4638   26.5482 C   0  0  0  0  0  0  0  0  0  0  0  0
    7.0958  -14.1134   25.5982 C   0  0  0  0  0  0  0  0  0  0  0  0
   10.6586  -16.5135   25.8714 C   0  0  0  0  0  0  0  0  0  0  0  0
   11.6470  -17.1672   25.3752 O   0  0  0  0  0  0  0  0  0  0  0  0
   10.6029  -16.2116   27.2445 N   0  0  0  0  0  0  0  0  0  0  0  0
    9.6345  -15.3808   27.8864 C   0  0  0  0  0  0  0  0  0  0  0  0
   10.5004  -14.4514   28.7206 C   0  0  0  0  0  0  0  0  0  0  0  0
   11.7973  -15.1631   28.8716 C   0  0  0  0  0  0  0  0  0  0  0  0
   11.5354  -16.5890   28.2726 C   0  0  1  0  0  0  0  0  0  0  0  0
   11.0307  -17.4341   29.3485 C   0  0  0  0  0  0  0  0  0  0  0  0
   11.8417  -17.8014   30.2432 O   0  0  0  0  0  0  0  0  0  0  0  0
    9.7325  -17.8622   29.4663 O   0  0  0  0  0  0  0  0  0  0  0  0
  2  1  1  6
  3  2  1  0
  3  4  1  0
  4  5  1  0
  5  9  1  0
  6  5  2  0
  7  8  2  0
  7  2  1  0
 10  7  1  0
 11 10  1  0
 11 12  1  1
 12 13  1  0
 13 21  1  0
 13 14  2  0
 14 15  1  0
 16 15  1  0
 16 17  2  0
 18 17  1  0
 19 18  2  0
 20 21  2  0
 20 19  1  0
 21 16  1  0
 22 23  2  0
 22 11  1  0
 24 22  1  0
 25 24  1  0
 26 27  1  0
 26 25  1  0
 27 28  1  0
 28 24  1  0
 28 29  1  1
 30 29  2  0
 31 29  1  0
M  END
$$$$
