SSH.pdb
     RDKit          3D

 23 23  0  0  1  0  0  0  0  0999 V2000
   10.3879  -17.4523   14.8745 O   0  0  0  0  0  0  0  0  0  0  0  0
    9.0497  -17.0212   14.8951 C   0  0  0  0  0  0  0  0  0  0  0  0
    9.0868  -15.5167   14.6836 C   0  0  2  0  0  0  0  0  0  0  0  0
    9.9438  -15.2312   13.5675 N   0  0  0  0  0  0  0  0  0  0  0  0
    9.6611  -14.8992   15.8964 C   0  0  0  0  0  0  0  0  0  0  0  0
   10.8907  -14.7201   16.0085 O   0  0  0  0  0  0  0  0  0  0  0  0
    7.3082  -14.2250   19.2165 O   0  0  0  0  0  0  0  0  0  0  0  0
    8.2315  -13.2373   18.9349 C   0  0  0  0  0  0  0  0  0  0  0  0
    9.3973  -13.8171   18.1658 C   0  0  2  0  0  0  0  0  0  0  0  0
    8.8515  -14.4760   16.9991 N   0  0  0  0  0  0  0  0  0  0  0  0
   10.1564  -14.8055   18.9522 C   0  0  0  0  0  0  0  0  0  0  0  0
    9.9777  -16.0409   18.8333 O   0  0  0  0  0  0  0  0  0  0  0  0
   11.1246  -14.3686   19.8787 N   0  0  0  0  0  0  0  0  0  0  0  0
   11.8328  -15.3585   20.6669 C   0  0  1  0  0  0  0  0  0  0  0  0
   13.2369  -14.9726   20.9559 C   0  0  0  0  0  0  0  0  0  0  0  0
   14.0710  -15.1451   19.7463 C   0  0  0  0  0  0  0  0  0  0  0  0
   14.4864  -14.1356   18.8645 C   0  0  0  0  0  0  0  0  0  0  0  0
   15.2249  -14.6831   17.8943 N   0  0  0  0  0  0  0  0  0  0  0  0
   15.3038  -15.9862   18.1081 C   0  0  0  0  0  0  0  0  0  0  0  0
   14.6103  -16.2663   19.2218 N   0  0  0  0  0  0  0  0  0  0  0  0
   11.0906  -15.5374   21.9340 C   0  0  0  0  0  0  0  0  0  0  0  0
   11.4203  -16.3243   22.8349 O   0  0  0  0  0  0  0  0  0  0  0  0
    9.9285  -14.7731   22.1536 O   0  0  0  0  0  0  0  0  0  0  0  0
  1  2  1  0
  3  2  1  0
  3  5  1  0
  3  4  1  6
  5  6  2  0
  7  8  1  0
  9  8  1  1
  9 11  1  0
 10  9  1  0
 10  5  1  0
 11 13  1  0
 12 11  2  0
 13 14  1  0
 14 15  1  1
 15 16  1  0
 16 17  2  0
 16 20  1  0
 17 18  1  0
 18 19  1  0
 20 19  2  0
 21 23  1  0
 21 14  1  0
 22 21  2  0
M  END
$$$$
