SSH.pdb
     RDKit          3D

 23 23  0  0  1  0  0  0  0  0999 V2000
   13.3221  -17.6476   17.8488 O   0  0  0  0  0  0  0  0  0  0  0  0
   12.4977  -17.0192   18.7988 C   0  0  0  0  0  0  0  0  0  0  0  0
   11.0676  -17.3294   18.3887 C   0  0  2  0  0  0  0  0  0  0  0  0
   10.8059  -16.7002   17.1248 N   0  0  0  0  0  0  0  0  0  0  0  0
   10.1655  -16.7511   19.4054 C   0  0  0  0  0  0  0  0  0  0  0  0
    9.7077  -15.5973   19.2800 O   0  0  0  0  0  0  0  0  0  0  0  0
    8.1840  -19.2101   22.0418 O   0  0  0  0  0  0  0  0  0  0  0  0
    7.6773  -18.0125   21.5767 C   0  0  0  0  0  0  0  0  0  0  0  0
    8.7748  -16.9747   21.5046 C   0  0  2  0  0  0  0  0  0  0  0  0
    9.7691  -17.4709   20.5782 N   0  0  0  0  0  0  0  0  0  0  0  0
    9.4205  -16.7449   22.8092 C   0  0  0  0  0  0  0  0  0  0  0  0
   10.4912  -17.3082   23.1388 O   0  0  0  0  0  0  0  0  0  0  0  0
    8.8303  -15.8630   23.7367 N   0  0  0  0  0  0  0  0  0  0  0  0
    9.4611  -15.6864   25.0305 C   0  0  1  0  0  0  0  0  0  0  0  0
    8.8580  -14.5861   25.8239 C   0  0  0  0  0  0  0  0  0  0  0  0
    9.6232  -14.3814   27.0734 C   0  0  0  0  0  0  0  0  0  0  0  0
   10.7411  -15.1143   27.5004 C   0  0  0  0  0  0  0  0  0  0  0  0
   11.1530  -14.6322   28.6770 N   0  0  0  0  0  0  0  0  0  0  0  0
   10.3599  -13.6322   29.0246 C   0  0  0  0  0  0  0  0  0  0  0  0
    9.4389  -13.4796   28.0612 N   0  0  0  0  0  0  0  0  0  0  0  0
    9.3371  -16.9629   25.7677 C   0  0  0  0  0  0  0  0  0  0  0  0
    8.3762  -17.7412   25.6659 O   0  0  0  0  0  0  0  0  0  0  0  0
   10.3678  -17.3401   26.6500 O   0  0  0  0  0  0  0  0  0  0  0  0
  1  2  1  0
  3  2  1  0
  3  5  1  0
  3  4  1  6
  5  6  2  0
  7  8  1  0
  9  8  1  1
  9 11  1  0
 10  9  1  0
 10  5  1  0
 11 13  1  0
 12 11  2  0
 13 14  1  0
 14 15  1  1
 15 16  1  0
 16 17  2  0
 16 20  1  0
 17 18  1  0
 18 19  1  0
 20 19  2  0
 21 23  1  0
 21 14  1  0
 22 21  2  0
M  END
$$$$
