SSH.pdb
     RDKit          3D

 23 23  0  0  1  0  0  0  0  0999 V2000
    9.6208  -17.2447   20.9159 O   0  0  0  0  0  0  0  0  0  0  0  0
   10.0318  -17.8806   19.7311 C   0  0  0  0  0  0  0  0  0  0  0  0
   10.4327  -19.2924   20.1261 C   0  0  2  0  0  0  0  0  0  0  0  0
    9.5159  -19.7675   21.1237 N   0  0  0  0  0  0  0  0  0  0  0  0
   11.7875  -19.2353   20.7117 C   0  0  0  0  0  0  0  0  0  0  0  0
   11.9858  -19.5268   21.9085 O   0  0  0  0  0  0  0  0  0  0  0  0
   14.8743  -18.1430   18.3101 O   0  0  0  0  0  0  0  0  0  0  0  0
   15.2257  -19.0176   19.3195 C   0  0  0  0  0  0  0  0  0  0  0  0
   14.2792  -18.8708   20.4898 C   0  0  2  0  0  0  0  0  0  0  0  0
   12.9369  -18.8474   19.9506 N   0  0  0  0  0  0  0  0  0  0  0  0
   14.5047  -17.6256   21.2449 C   0  0  0  0  0  0  0  0  0  0  0  0
   14.4904  -16.4961   20.7004 O   0  0  0  0  0  0  0  0  0  0  0  0
   14.7473  -17.6822   22.6322 N   0  0  0  0  0  0  0  0  0  0  0  0
   14.9101  -16.4406   23.3634 C   0  0  1  0  0  0  0  0  0  0  0  0
   14.1500  -16.4150   24.6383 C   0  0  0  0  0  0  0  0  0  0  0  0
   12.6965  -16.3897   24.3633 C   0  0  0  0  0  0  0  0  0  0  0  0
   12.0600  -15.7670   23.2788 C   0  0  0  0  0  0  0  0  0  0  0  0
   10.7418  -15.9646   23.3769 N   0  0  0  0  0  0  0  0  0  0  0  0
   10.5017  -16.6790   24.4641 C   0  0  0  0  0  0  0  0  0  0  0  0
   11.6763  -16.9358   25.0590 N   0  0  0  0  0  0  0  0  0  0  0  0
   16.3536  -16.2670   23.6363 C   0  0  0  0  0  0  0  0  0  0  0  0
   17.2168  -17.1324   23.4230 O   0  0  0  0  0  0  0  0  0  0  0  0
   16.8005  -15.0449   24.1746 O   0  0  0  0  0  0  0  0  0  0  0  0
  1  2  1  0
  3  2  1  0
  3  5  1  0
  3  4  1  1
  5  6  2  0
  7  8  1  0
  9  8  1  6
  9 11  1  0
 10  9  1  0
 10  5  1  0
 11 13  1  0
 12 11  2  0
 13 14  1  0
 14 15  1  1
 15 16  1  0
 16 17  2  0
 16 20  1  0
 17 18  1  0
 18 19  1  0
 20 19  2  0
 21 23  1  0
 21 14  1  0
 22 21  2  0
M  END
$$$$
