SSH.pdb
     RDKit          3D

 23 23  0  0  1  0  0  0  0  0999 V2000
    9.3180  -17.4410   16.1814 O   0  0  0  0  0  0  0  0  0  0  0  0
   10.6205  -17.9337   16.3759 C   0  0  0  0  0  0  0  0  0  0  0  0
   10.4622  -19.3443   16.9187 C   0  0  2  0  0  0  0  0  0  0  0  0
    9.5596  -20.0655   16.0662 N   0  0  0  0  0  0  0  0  0  0  0  0
    9.8708  -19.2502   18.2689 C   0  0  0  0  0  0  0  0  0  0  0  0
    8.6371  -19.3250   18.4394 O   0  0  0  0  0  0  0  0  0  0  0  0
   12.0964  -20.0345   21.5887 O   0  0  0  0  0  0  0  0  0  0  0  0
   10.7227  -20.1725   21.5541 C   0  0  0  0  0  0  0  0  0  0  0  0
   10.1034  -19.0327   20.7768 C   0  0  2  0  0  0  0  0  0  0  0  0
   10.6676  -19.0702   19.4451 N   0  0  0  0  0  0  0  0  0  0  0  0
   10.3955  -17.7178   21.3746 C   0  0  0  0  0  0  0  0  0  0  0  0
   11.4338  -17.0698   21.1015 O   0  0  0  0  0  0  0  0  0  0  0  0
    9.4882  -17.1479   22.2903 N   0  0  0  0  0  0  0  0  0  0  0  0
    9.8045  -15.8596   22.8760 C   0  0  1  0  0  0  0  0  0  0  0  0
    8.6184  -14.9768   23.0095 C   0  0  0  0  0  0  0  0  0  0  0  0
    8.2255  -14.4492   21.6844 C   0  0  0  0  0  0  0  0  0  0  0  0
    8.8971  -14.6526   20.4691 C   0  0  0  0  0  0  0  0  0  0  0  0
    8.2367  -14.0175   19.4962 N   0  0  0  0  0  0  0  0  0  0  0  0
    7.1806  -13.4199   20.0231 C   0  0  0  0  0  0  0  0  0  0  0  0
    7.1720  -13.6784   21.3394 N   0  0  0  0  0  0  0  0  0  0  0  0
   10.3987  -16.1064   24.2081 C   0  0  0  0  0  0  0  0  0  0  0  0
   10.4476  -17.2169   24.7593 O   0  0  0  0  0  0  0  0  0  0  0  0
   10.9521  -15.0222   24.9160 O   0  0  0  0  0  0  0  0  0  0  0  0
  1  2  1  0
  3  2  1  0
  3  5  1  0
  3  4  1  6
  5  6  2  0
  7  8  1  0
  9  8  1  1
  9 11  1  0
 10  9  1  0
 10  5  1  0
 11 13  1  0
 12 11  2  0
 13 14  1  0
 14 15  1  1
 15 16  1  0
 16 17  2  0
 16 20  1  0
 17 18  1  0
 18 19  1  0
 20 19  2  0
 21 23  1  0
 21 14  1  0
 22 21  2  0
M  END
$$$$
