SSH.pdb
     RDKit          3D

 23 23  0  0  1  0  0  0  0  0999 V2000
    3.5877  -18.9133   22.2559 O   0  0  0  0  0  0  0  0  0  0  0  0
    3.2866  -17.8167   21.4289 C   0  0  0  0  0  0  0  0  0  0  0  0
    3.9894  -18.0784   20.1071 C   0  0  2  0  0  0  0  0  0  0  0  0
    3.5877  -19.3686   19.6215 N   0  0  0  0  0  0  0  0  0  0  0  0
    5.4447  -18.0954   20.3593 C   0  0  0  0  0  0  0  0  0  0  0  0
    6.0440  -19.1612   20.6072 O   0  0  0  0  0  0  0  0  0  0  0  0
    7.5328  -14.6110   19.9422 O   0  0  0  0  0  0  0  0  0  0  0  0
    8.2098  -15.7716   19.6226 C   0  0  0  0  0  0  0  0  0  0  0  0
    7.6841  -16.9257   20.4464 C   0  0  2  0  0  0  0  0  0  0  0  0
    6.2419  -16.9060   20.3343 N   0  0  0  0  0  0  0  0  0  0  0  0
    8.0469  -16.8138   21.8703 C   0  0  0  0  0  0  0  0  0  0  0  0
    7.4461  -16.0469   22.6598 O   0  0  0  0  0  0  0  0  0  0  0  0
    9.1056  -17.5883   22.3859 N   0  0  0  0  0  0  0  0  0  0  0  0
    9.4561  -17.4469   23.7860 C   0  0  1  0  0  0  0  0  0  0  0  0
    9.4362  -18.7364   24.5213 C   0  0  0  0  0  0  0  0  0  0  0  0
    8.0580  -19.2717   24.5721 C   0  0  0  0  0  0  0  0  0  0  0  0
    6.8878  -18.6119   24.1664 C   0  0  0  0  0  0  0  0  0  0  0  0
    5.8420  -19.4198   24.3667 N   0  0  0  0  0  0  0  0  0  0  0  0
    6.2799  -20.5587   24.8776 C   0  0  0  0  0  0  0  0  0  0  0  0
    7.6128  -20.4717   25.0020 N   0  0  0  0  0  0  0  0  0  0  0  0
   10.8092  -16.8526   23.8516 C   0  0  0  0  0  0  0  0  0  0  0  0
   11.4771  -16.5182   22.8610 O   0  0  0  0  0  0  0  0  0  0  0  0
   11.3982  -16.6434   25.1135 O   0  0  0  0  0  0  0  0  0  0  0  0
  1  2  1  0
  3  2  1  0
  3  5  1  0
  3  4  1  1
  5  6  2  0
  7  8  1  0
  9  8  1  6
  9 11  1  0
 10  9  1  0
 10  5  1  0
 11 13  1  0
 12 11  2  0
 13 14  1  0
 14 15  1  6
 15 16  1  0
 16 17  2  0
 16 20  1  0
 17 18  1  0
 18 19  1  0
 20 19  2  0
 21 23  1  0
 21 14  1  0
 22 21  2  0
M  END
$$$$
