SSH.pdb
     RDKit          3D

 23 23  0  0  1  0  0  0  0  0999 V2000
    9.8946  -14.8337   19.4016 O   0  0  0  0  0  0  0  0  0  0  0  0
   10.4547  -13.7357   18.7249 C   0  0  0  0  0  0  0  0  0  0  0  0
   11.1768  -14.3076   17.5161 C   0  0  2  0  0  0  0  0  0  0  0  0
   10.2816  -15.1896   16.8217 N   0  0  0  0  0  0  0  0  0  0  0  0
   12.3334  -15.0873   18.0020 C   0  0  0  0  0  0  0  0  0  0  0  0
   12.2444  -16.3152   18.2044 O   0  0  0  0  0  0  0  0  0  0  0  0
   16.2353  -13.5481   17.9216 O   0  0  0  0  0  0  0  0  0  0  0  0
   15.8972  -14.8754   17.7451 C   0  0  0  0  0  0  0  0  0  0  0  0
   14.7649  -15.2532   18.6736 C   0  0  2  0  0  0  0  0  0  0  0  0
   13.6070  -14.4878   18.2655 N   0  0  0  0  0  0  0  0  0  0  0  0
   15.0627  -14.9407   20.0826 C   0  0  0  0  0  0  0  0  0  0  0  0
   14.9888  -13.7771   20.5442 O   0  0  0  0  0  0  0  0  0  0  0  0
   15.4469  -15.9725   20.9625 N   0  0  0  0  0  0  0  0  0  0  0  0
   15.7440  -15.6387   22.3421 C   0  0  1  0  0  0  0  0  0  0  0  0
   15.2306  -16.6449   23.3052 C   0  0  0  0  0  0  0  0  0  0  0  0
   13.7587  -16.5415   23.4125 C   0  0  0  0  0  0  0  0  0  0  0  0
   12.9527  -15.5092   22.9086 C   0  0  0  0  0  0  0  0  0  0  0  0
   11.6759  -15.7711   23.2045 N   0  0  0  0  0  0  0  0  0  0  0  0
   11.6223  -16.9135   23.8694 C   0  0  0  0  0  0  0  0  0  0  0  0
   12.8743  -17.3787   23.9956 N   0  0  0  0  0  0  0  0  0  0  0  0
   17.2135  -15.5261   22.4696 C   0  0  0  0  0  0  0  0  0  0  0  0
   18.0158  -15.7367   21.5469 O   0  0  0  0  0  0  0  0  0  0  0  0
   17.7606  -15.1562   23.7133 O   0  0  0  0  0  0  0  0  0  0  0  0
  1  2  1  0
  3  2  1  0
  3  5  1  0
  3  4  1  1
  5  6  2  0
  7  8  1  0
  9  8  1  6
  9 11  1  0
 10  9  1  0
 10  5  1  0
 11 13  1  0
 12 11  2  0
 13 14  1  0
 14 15  1  1
 15 16  1  0
 16 17  2  0
 16 20  1  0
 17 18  1  0
 18 19  1  0
 20 19  2  0
 21 23  1  0
 21 14  1  0
 22 21  2  0
M  END
$$$$
