SSH.pdb
     RDKit          3D

 23 23  0  0  1  0  0  0  0  0999 V2000
   -6.7467  -26.3947   26.0665 O   0  0  0  0  0  0  0  0  0  0  0  0
   -7.1568  -25.1184   25.6425 C   0  0  0  0  0  0  0  0  0  0  0  0
   -6.0842  -24.1510   26.1151 C   0  0  2  0  0  0  0  0  0  0  0  0
   -4.8006  -24.6632   25.7258 N   0  0  0  0  0  0  0  0  0  0  0  0
   -6.1451  -24.0865   27.5895 C   0  0  0  0  0  0  0  0  0  0  0  0
   -5.3986  -24.7923   28.2974 O   0  0  0  0  0  0  0  0  0  0  0  0
   -9.0651  -21.8112   29.3962 O   0  0  0  0  0  0  0  0  0  0  0  0
   -7.8802  -21.9221   30.0970 C   0  0  0  0  0  0  0  0  0  0  0  0
   -7.1723  -23.2055   29.7248 C   0  0  2  0  0  0  0  0  0  0  0  0
   -7.0520  -23.2221   28.2832 N   0  0  0  0  0  0  0  0  0  0  0  0
   -7.9175  -24.4042   30.1486 C   0  0  0  0  0  0  0  0  0  0  0  0
   -8.7967  -24.9386   29.4317 O   0  0  0  0  0  0  0  0  0  0  0  0
   -7.6486  -24.9888   31.4025 N   0  0  0  0  0  0  0  0  0  0  0  0
   -8.4378  -26.1300   31.8241 C   0  0  1  0  0  0  0  0  0  0  0  0
   -7.6538  -27.1202   32.6043 C   0  0  0  0  0  0  0  0  0  0  0  0
   -6.6606  -27.7840   31.7316 C   0  0  0  0  0  0  0  0  0  0  0  0
   -6.8343  -28.1406   30.3855 C   0  0  0  0  0  0  0  0  0  0  0  0
   -5.7142  -28.7189   29.9414 N   0  0  0  0  0  0  0  0  0  0  0  0
   -4.8352  -28.7512   30.9295 C   0  0  0  0  0  0  0  0  0  0  0  0
   -5.4026  -28.1893   32.0074 N   0  0  0  0  0  0  0  0  0  0  0  0
   -9.5601  -25.6213   32.6426 C   0  0  0  0  0  0  0  0  0  0  0  0
   -9.6478  -24.4589   33.0674 O   0  0  0  0  0  0  0  0  0  0  0  0
  -10.6108  -26.4984   32.9738 O   0  0  0  0  0  0  0  0  0  0  0  0
  1  2  1  0
  3  2  1  0
  3  5  1  0
  3  4  1  1
  5  6  2  0
  7  8  1  0
  9  8  1  6
  9 11  1  0
 10  9  1  0
 10  5  1  0
 11 13  1  0
 12 11  2  0
 13 14  1  0
 14 15  1  1
 15 16  1  0
 16 17  2  0
 16 20  1  0
 17 18  1  0
 18 19  1  0
 20 19  2  0
 21 23  1  0
 21 14  1  0
 22 21  2  0
M  END
$$$$
