SSH.pdb
     RDKit          3D

 23 23  0  0  1  0  0  0  0  0999 V2000
   13.4417  -16.0841   17.0766 O   0  0  0  0  0  0  0  0  0  0  0  0
   13.6879  -17.4570   17.2549 C   0  0  0  0  0  0  0  0  0  0  0  0
   12.4199  -18.1737   16.8211 C   0  0  2  0  0  0  0  0  0  0  0  0
   11.9723  -17.6045   15.5812 N   0  0  0  0  0  0  0  0  0  0  0  0
   11.3885  -17.9412   17.8526 C   0  0  0  0  0  0  0  0  0  0  0  0
   10.4216  -17.1824   17.6385 O   0  0  0  0  0  0  0  0  0  0  0  0
   11.5756  -19.9027   21.5477 O   0  0  0  0  0  0  0  0  0  0  0  0
   10.3622  -19.7425   20.9080 C   0  0  0  0  0  0  0  0  0  0  0  0
   10.3618  -18.4622   20.1032 C   0  0  2  0  0  0  0  0  0  0  0  0
   11.4373  -18.5646   19.1410 N   0  0  0  0  0  0  0  0  0  0  0  0
   10.5904  -17.2704   20.9392 C   0  0  0  0  0  0  0  0  0  0  0  0
   11.7232  -16.7501   21.0744 O   0  0  0  0  0  0  0  0  0  0  0  0
    9.5097  -16.6761   21.6216 N   0  0  0  0  0  0  0  0  0  0  0  0
    9.7717  -15.5506   22.4977 C   0  0  1  0  0  0  0  0  0  0  0  0
    8.6528  -14.5759   22.5391 C   0  0  0  0  0  0  0  0  0  0  0  0
    8.4699  -13.9547   21.2089 C   0  0  0  0  0  0  0  0  0  0  0  0
    9.2903  -14.1281   20.0837 C   0  0  0  0  0  0  0  0  0  0  0  0
    8.7999  -13.4042   19.0729 N   0  0  0  0  0  0  0  0  0  0  0  0
    7.7119  -12.7783   19.4906 C   0  0  0  0  0  0  0  0  0  0  0  0
    7.5116  -13.1081   20.7755 N   0  0  0  0  0  0  0  0  0  0  0  0
   10.0208  -16.0866   23.8538 C   0  0  0  0  0  0  0  0  0  0  0  0
    9.8822  -17.2773   24.1737 O   0  0  0  0  0  0  0  0  0  0  0  0
   10.4446  -15.2034   24.8654 O   0  0  0  0  0  0  0  0  0  0  0  0
  1  2  1  0
  3  2  1  0
  3  5  1  0
  3  4  1  6
  5  6  2  0
  7  8  1  0
  9  8  1  1
  9 11  1  0
 10  9  1  0
 10  5  1  0
 11 13  1  0
 12 11  2  0
 13 14  1  0
 14 15  1  1
 15 16  1  0
 16 17  2  0
 16 20  1  0
 17 18  1  0
 18 19  1  0
 20 19  2  0
 21 23  1  0
 21 14  1  0
 22 21  2  0
M  END
$$$$
