SSH.pdb
     RDKit          3D

 23 23  0  0  1  0  0  0  0  0999 V2000
   11.4102  -16.9834   15.9122 O   0  0  0  0  0  0  0  0  0  0  0  0
   11.2790  -18.2571   15.3312 C   0  0  0  0  0  0  0  0  0  0  0  0
    9.8157  -18.6404   15.4787 C   0  0  2  0  0  0  0  0  0  0  0  0
    9.0524  -17.9236   14.4962 N   0  0  0  0  0  0  0  0  0  0  0  0
    9.3690  -18.2271   16.8246 C   0  0  0  0  0  0  0  0  0  0  0  0
    8.6099  -17.2493   16.9803 O   0  0  0  0  0  0  0  0  0  0  0  0
   10.6637  -20.2810   20.2128 O   0  0  0  0  0  0  0  0  0  0  0  0
    9.3394  -19.8968   20.1372 C   0  0  0  0  0  0  0  0  0  0  0  0
    9.2086  -18.6348   19.3143 C   0  0  2  0  0  0  0  0  0  0  0  0
    9.7753  -18.9151   18.0130 N   0  0  0  0  0  0  0  0  0  0  0  0
    9.9327  -17.4968   19.9077 C   0  0  0  0  0  0  0  0  0  0  0  0
   11.0569  -17.1252   19.4948 O   0  0  0  0  0  0  0  0  0  0  0  0
    9.3594  -16.7848   20.9805 N   0  0  0  0  0  0  0  0  0  0  0  0
   10.1210  -15.7137   21.5934 C   0  0  1  0  0  0  0  0  0  0  0  0
    9.3157  -14.4879   21.8227 C   0  0  0  0  0  0  0  0  0  0  0  0
    8.8168  -13.9588   20.5343 C   0  0  0  0  0  0  0  0  0  0  0  0
    9.5776  -13.3328   19.5350 C   0  0  0  0  0  0  0  0  0  0  0  0
    8.7721  -12.9950   18.5233 N   0  0  0  0  0  0  0  0  0  0  0  0
    7.5392  -13.3707   18.8216 C   0  0  0  0  0  0  0  0  0  0  0  0
    7.5639  -13.9507   20.0310 N   0  0  0  0  0  0  0  0  0  0  0  0
   10.6464  -16.2172   22.8814 C   0  0  0  0  0  0  0  0  0  0  0  0
   10.3169  -17.2951   23.3999 O   0  0  0  0  0  0  0  0  0  0  0  0
   11.5849  -15.4365   23.5833 O   0  0  0  0  0  0  0  0  0  0  0  0
  1  2  1  0
  3  2  1  0
  3  5  1  0
  3  4  1  6
  5  6  2  0
  7  8  1  0
  9  8  1  1
  9 11  1  0
 10  9  1  0
 10  5  1  0
 11 13  1  0
 12 11  2  0
 13 14  1  0
 14 15  1  1
 15 16  1  0
 16 17  2  0
 16 20  1  0
 17 18  1  0
 18 19  1  0
 20 19  2  0
 21 23  1  0
 21 14  1  0
 22 21  2  0
M  END
$$$$
