SSH.pdb
     RDKit          3D

 23 23  0  0  1  0  0  0  0  0999 V2000
    9.9643  -15.3005   15.0801 O   0  0  0  0  0  0  0  0  0  0  0  0
   10.9688  -16.2455   14.8064 C   0  0  0  0  0  0  0  0  0  0  0  0
   10.3133  -17.6101   14.9405 C   0  0  2  0  0  0  0  0  0  0  0  0
    9.1453  -17.6421   14.1060 N   0  0  0  0  0  0  0  0  0  0  0  0
    9.8989  -17.7812   16.3479 C   0  0  0  0  0  0  0  0  0  0  0  0
    8.7115  -17.6190   16.6950 O   0  0  0  0  0  0  0  0  0  0  0  0
   12.4928  -19.5656   18.9504 O   0  0  0  0  0  0  0  0  0  0  0  0
   11.1327  -19.7179   19.1355 C   0  0  0  0  0  0  0  0  0  0  0  0
   10.4066  -18.4545   18.7311 C   0  0  2  0  0  0  0  0  0  0  0  0
   10.8229  -18.1382   17.3821 N   0  0  0  0  0  0  0  0  0  0  0  0
   10.7322  -17.3127   19.6039 C   0  0  0  0  0  0  0  0  0  0  0  0
   11.7325  -16.5816   19.4108 O   0  0  0  0  0  0  0  0  0  0  0  0
    9.9023  -17.0125   20.7029 N   0  0  0  0  0  0  0  0  0  0  0  0
   10.2522  -15.8936   21.5564 C   0  0  1  0  0  0  0  0  0  0  0  0
    9.0729  -15.0988   21.9823 C   0  0  0  0  0  0  0  0  0  0  0  0
    8.4912  -14.3898   20.8213 C   0  0  0  0  0  0  0  0  0  0  0  0
    9.0096  -14.3514   19.5178 C   0  0  0  0  0  0  0  0  0  0  0  0
    8.2035  -13.6103   18.7515 N   0  0  0  0  0  0  0  0  0  0  0  0
    7.1992  -13.1736   19.4936 C   0  0  0  0  0  0  0  0  0  0  0  0
    7.3704  -13.6414   20.7392 N   0  0  0  0  0  0  0  0  0  0  0  0
   10.9473  -16.4359   22.7443 C   0  0  0  0  0  0  0  0  0  0  0  0
   11.0043  -17.6410   23.0341 O   0  0  0  0  0  0  0  0  0  0  0  0
   11.5948  -15.5421   23.6187 O   0  0  0  0  0  0  0  0  0  0  0  0
  1  2  1  0
  3  2  1  0
  3  5  1  0
  3  4  1  6
  5  6  2  0
  7  8  1  0
  9  8  1  1
  9 11  1  0
 10  9  1  0
 10  5  1  0
 11 13  1  0
 12 11  2  0
 13 14  1  0
 14 15  1  1
 15 16  1  0
 16 17  2  0
 16 20  1  0
 17 18  1  0
 18 19  1  0
 20 19  2  0
 21 23  1  0
 21 14  1  0
 22 21  2  0
M  END
$$$$
