VFV.pdb
     RDKit          3D

 26 26  0  0  1  0  0  0  0  0999 V2000
   24.3415  -19.7335  -13.8278 C   0  0  0  0  0  0  0  0  0  0  0  0
   24.5566  -20.1814  -12.4024 C   0  0  1  0  0  0  0  0  0  0  0  0
   23.4166  -20.9760  -11.8433 C   0  0  0  0  0  0  0  0  0  0  0  0
   25.9143  -20.7843  -12.1737 C   0  0  2  0  0  0  0  0  0  0  0  0
   25.9531  -22.0234  -12.9195 N   0  0  0  0  0  0  0  0  0  0  0  0
   26.2983  -21.0138  -10.7977 C   0  0  0  0  0  0  0  0  0  0  0  0
   26.0077  -22.1422  -10.2729 O   0  0  0  0  0  0  0  0  0  0  0  0
   26.9777  -20.1139   -9.9352 N   0  0  0  0  0  0  0  0  0  0  0  0
   27.1773  -20.4105   -8.5368 C   0  0  1  0  0  0  0  0  0  0  0  0
   28.3378  -19.5366   -8.0755 C   0  0  0  0  0  0  0  0  0  0  0  0
   28.6060  -19.6645   -6.6230 C   0  0  0  0  0  0  0  0  0  0  0  0
   28.1638  -18.6884   -5.7558 C   0  0  0  0  0  0  0  0  0  0  0  0
   28.4118  -18.8127   -4.4058 C   0  0  0  0  0  0  0  0  0  0  0  0
   29.0892  -19.8895   -3.9195 C   0  0  0  0  0  0  0  0  0  0  0  0
   29.5466  -20.8890   -4.7732 C   0  0  0  0  0  0  0  0  0  0  0  0
   29.2888  -20.7478   -6.1229 C   0  0  0  0  0  0  0  0  0  0  0  0
   25.9492  -20.1988   -7.7449 C   0  0  0  0  0  0  0  0  0  0  0  0
   25.1882  -19.2085   -7.9065 O   0  0  0  0  0  0  0  0  0  0  0  0
   23.8060  -23.3933   -6.1485 C   0  0  0  0  0  0  0  0  0  0  0  0
   23.3056  -21.9749   -6.2750 C   0  0  1  0  0  0  0  0  0  0  0  0
   22.0362  -21.7576   -5.5208 C   0  0  0  0  0  0  0  0  0  0  0  0
   24.3881  -20.9624   -5.9397 C   0  0  2  0  0  0  0  0  0  0  0  0
   25.5654  -21.1337   -6.7371 N   0  0  0  0  0  0  0  0  0  0  0  0
   24.6612  -21.0143   -4.4872 C   0  0  0  0  0  0  0  0  0  0  0  0
   23.7569  -20.7000   -3.6852 O   0  0  0  0  0  0  0  0  0  0  0  0
   25.8860  -21.3998   -3.9870 O   0  0  0  0  0  0  0  0  0  0  0  0
  2  4  1  0
  2  1  1  6
  3  2  1  0
  4  6  1  0
  4  5  1  6
  6  7  2  0
  8  9  1  0
  8  6  1  0
  9 17  1  0
 10 11  1  0
  9 10  1  1
 11 12  2  0
 12 13  1  0
 14 13  2  0
 15 14  1  0
 16 15  2  0
 16 11  1  0
 17 18  2  0
 20 19  1  1
 20 22  1  0
 21 20  1  0
 22 24  1  0
 23 17  1  0
 22 23  1  6
 24 25  2  0
 24 26  1  0
M  END
$$$$
