VFV.pdb
     RDKit          3D

 26 26  0  0  1  0  0  0  0  0999 V2000
   17.2851  -10.5896  -21.4741 C   0  0  0  0  0  0  0  0  0  0  0  0
   18.1320  -10.1801  -20.2936 C   0  0  1  0  0  0  0  0  0  0  0  0
   17.3417   -9.6139  -19.1542 C   0  0  0  0  0  0  0  0  0  0  0  0
   19.1393  -11.2245  -19.9016 C   0  0  2  0  0  0  0  0  0  0  0  0
   18.3932  -12.4068  -19.5296 N   0  0  0  0  0  0  0  0  0  0  0  0
   20.0696  -10.8668  -18.8527 C   0  0  0  0  0  0  0  0  0  0  0  0
   19.8269  -11.2794  -17.6679 O   0  0  0  0  0  0  0  0  0  0  0  0
   21.2520  -10.0920  -18.9824 N   0  0  0  0  0  0  0  0  0  0  0  0
   22.0885   -9.7911  -17.8453 C   0  0  1  0  0  0  0  0  0  0  0  0
   23.4649  -10.3635  -18.1632 C   0  0  0  0  0  0  0  0  0  0  0  0
   24.4606  -10.0775  -17.1026 C   0  0  0  0  0  0  0  0  0  0  0  0
   25.2869   -8.9801  -17.2161 C   0  0  0  0  0  0  0  0  0  0  0  0
   26.2087   -8.7155  -16.2262 C   0  0  0  0  0  0  0  0  0  0  0  0
   26.3118   -9.5270  -15.1372 C   0  0  0  0  0  0  0  0  0  0  0  0
   25.4899  -10.6413  -14.9982 C   0  0  0  0  0  0  0  0  0  0  0  0
   24.5720  -10.8909  -15.9998 C   0  0  0  0  0  0  0  0  0  0  0  0
   22.1226   -8.3448  -17.5500 C   0  0  0  0  0  0  0  0  0  0  0  0
   22.4604   -7.4770  -18.3979 O   0  0  0  0  0  0  0  0  0  0  0  0
   19.4247   -6.0136  -16.7360 C   0  0  0  0  0  0  0  0  0  0  0  0
   20.3745   -5.9577  -15.5643 C   0  0  1  0  0  0  0  0  0  0  0  0
   19.8080   -6.6151  -14.3500 C   0  0  0  0  0  0  0  0  0  0  0  0
   21.7586   -6.4640  -15.9349 C   0  0  2  0  0  0  0  0  0  0  0  0
   21.7643   -7.8596  -16.2565 N   0  0  0  0  0  0  0  0  0  0  0  0
   22.7033   -6.1167  -14.8512 C   0  0  0  0  0  0  0  0  0  0  0  0
   23.0658   -7.0043  -14.0508 O   0  0  0  0  0  0  0  0  0  0  0  0
   23.1990   -4.8406  -14.6947 O   0  0  0  0  0  0  0  0  0  0  0  0
  2  4  1  0
  2  1  1  6
  3  2  1  0
  4  6  1  0
  4  5  1  1
  6  7  2  0
  8  9  1  0
  8  6  1  0
  9 17  1  0
 10 11  1  0
  9 10  1  6
 11 12  2  0
 12 13  1  0
 14 13  2  0
 15 14  1  0
 16 15  2  0
 16 11  1  0
 17 18  2  0
 20 19  1  6
 20 22  1  0
 21 20  1  0
 22 24  1  0
 23 17  1  0
 22 23  1  1
 24 25  2  0
 24 26  1  0
M  END
$$$$
