VFV.pdb
     RDKit          3D

 26 26  0  0  1  0  0  0  0  0999 V2000
   21.3906   -8.6613  -11.7380 C   0  0  0  0  0  0  0  0  0  0  0  0
   21.4244   -9.2155  -13.1417 C   0  0  1  0  0  0  0  0  0  0  0  0
   22.6846   -9.9577  -13.4649 C   0  0  0  0  0  0  0  0  0  0  0  0
   20.1586   -9.9312  -13.5223 C   0  0  2  0  0  0  0  0  0  0  0  0
   20.2733  -10.2672  -14.9248 N   0  0  0  0  0  0  0  0  0  0  0  0
   18.9175   -9.2303  -13.2734 C   0  0  0  0  0  0  0  0  0  0  0  0
   18.5640   -8.3223  -14.1002 O   0  0  0  0  0  0  0  0  0  0  0  0
   18.0193   -9.4337  -12.1931 N   0  0  0  0  0  0  0  0  0  0  0  0
   16.7846   -8.6940  -12.0856 C   0  0  1  0  0  0  0  0  0  0  0  0
   15.7477   -9.4734  -12.8860 C   0  0  0  0  0  0  0  0  0  0  0  0
   15.4713  -10.8118  -12.3111 C   0  0  0  0  0  0  0  0  0  0  0  0
   16.1928  -11.9048  -12.7411 C   0  0  0  0  0  0  0  0  0  0  0  0
   15.9355  -13.1466  -12.2015 C   0  0  0  0  0  0  0  0  0  0  0  0
   14.9759  -13.3053  -11.2483 C   0  0  0  0  0  0  0  0  0  0  0  0
   14.2331  -12.2185  -10.7967 C   0  0  0  0  0  0  0  0  0  0  0  0
   14.5047  -10.9817  -11.3485 C   0  0  0  0  0  0  0  0  0  0  0  0
   16.3852   -8.4841  -10.6796 C   0  0  0  0  0  0  0  0  0  0  0  0
   16.8567   -9.1538   -9.7230 O   0  0  0  0  0  0  0  0  0  0  0  0
   16.8202   -5.7671   -8.2892 C   0  0  0  0  0  0  0  0  0  0  0  0
   15.3275   -5.9245   -8.4484 C   0  0  1  0  0  0  0  0  0  0  0  0
   14.7219   -4.7951   -9.2133 C   0  0  0  0  0  0  0  0  0  0  0  0
   14.9596   -7.2925   -8.9985 C   0  0  2  0  0  0  0  0  0  0  0  0
   15.4224   -7.4869  -10.3399 N   0  0  0  0  0  0  0  0  0  0  0  0
   13.5010   -7.4913   -8.8558 C   0  0  0  0  0  0  0  0  0  0  0  0
   12.7835   -7.4953   -9.8780 O   0  0  0  0  0  0  0  0  0  0  0  0
   12.9049   -7.6730   -7.6269 O   0  0  0  0  0  0  0  0  0  0  0  0
  2  4  1  0
  2  1  1  1
  3  2  1  0
  4  6  1  0
  4  5  1  6
  6  7  2  0
  8  9  1  0
  8  6  1  0
  9 17  1  0
 10 11  1  0
  9 10  1  6
 11 12  2  0
 12 13  1  0
 14 13  2  0
 15 14  1  0
 16 15  2  0
 16 11  1  0
 17 18  2  0
 20 19  1  6
 20 22  1  0
 21 20  1  0
 22 24  1  0
 23 17  1  0
 22 23  1  6
 24 25  2  0
 24 26  1  0
M  END
$$$$
