VFV.pdb
     RDKit          3D

 26 26  0  0  1  0  0  0  0  0999 V2000
   27.2865  -19.8585  -15.1294 C   0  0  0  0  0  0  0  0  0  0  0  0
   27.5757  -20.4273  -13.7615 C   0  0  1  0  0  0  0  0  0  0  0  0
   29.0311  -20.4318  -13.4076 C   0  0  0  0  0  0  0  0  0  0  0  0
   26.6712  -19.8795  -12.6933 C   0  0  2  0  0  0  0  0  0  0  0  0
   26.7402  -18.4374  -12.7855 N   0  0  0  0  0  0  0  0  0  0  0  0
   26.9349  -20.3096  -11.3371 C   0  0  0  0  0  0  0  0  0  0  0  0
   26.7577  -21.5427  -11.0526 O   0  0  0  0  0  0  0  0  0  0  0  0
   27.3791  -19.5069  -10.2538 N   0  0  0  0  0  0  0  0  0  0  0  0
   27.3282  -19.9792   -8.8909 C   0  0  1  0  0  0  0  0  0  0  0  0
   28.3482  -19.1550   -8.1140 C   0  0  0  0  0  0  0  0  0  0  0  0
   28.3357  -19.4532   -6.6618 C   0  0  0  0  0  0  0  0  0  0  0  0
   27.6336  -18.6374   -5.8006 C   0  0  0  0  0  0  0  0  0  0  0  0
   27.6213  -18.9201   -4.4517 C   0  0  0  0  0  0  0  0  0  0  0  0
   28.2955  -19.9967   -3.9607 C   0  0  0  0  0  0  0  0  0  0  0  0
   29.0122  -20.8362   -4.8083 C   0  0  0  0  0  0  0  0  0  0  0  0
   29.0132  -20.5377   -6.1570 C   0  0  0  0  0  0  0  0  0  0  0  0
   25.9675  -19.8905   -8.3244 C   0  0  0  0  0  0  0  0  0  0  0  0
   25.2981  -18.8239   -8.3050 O   0  0  0  0  0  0  0  0  0  0  0  0
   23.2794  -22.7708   -8.8749 C   0  0  0  0  0  0  0  0  0  0  0  0
   22.9691  -21.4211   -8.2746 C   0  0  1  0  0  0  0  0  0  0  0  0
   21.5661  -21.3388   -7.7724 C   0  0  0  0  0  0  0  0  0  0  0  0
   24.0053  -21.0111   -7.2414 C   0  0  2  0  0  0  0  0  0  0  0  0
   25.3397  -21.0416   -7.7607 N   0  0  0  0  0  0  0  0  0  0  0  0
   23.8360  -21.8470   -6.0332 C   0  0  0  0  0  0  0  0  0  0  0  0
   22.8241  -21.6879   -5.3186 O   0  0  0  0  0  0  0  0  0  0  0  0
   24.7619  -22.8000   -5.6681 O   0  0  0  0  0  0  0  0  0  0  0  0
  2  4  1  0
  2  1  1  6
  3  2  1  0
  4  6  1  0
  4  5  1  1
  6  7  2  0
  8  9  1  0
  8  6  1  0
  9 17  1  0
 10 11  1  0
  9 10  1  1
 11 12  2  0
 12 13  1  0
 14 13  2  0
 15 14  1  0
 16 15  2  0
 16 11  1  0
 17 18  2  0
 20 19  1  1
 20 22  1  0
 21 20  1  0
 22 24  1  0
 23 17  1  0
 22 23  1  6
 24 25  2  0
 24 26  1  0
M  END
$$$$
