VFV.pdb
     RDKit          3D

 26 26  0  0  1  0  0  0  0  0999 V2000
   26.0092  -21.9406  -18.5151 C   0  0  0  0  0  0  0  0  0  0  0  0
   27.1957  -21.1122  -18.0856 C   0  0  1  0  0  0  0  0  0  0  0  0
   26.8859  -19.6555  -17.9263 C   0  0  0  0  0  0  0  0  0  0  0  0
   27.9553  -21.7217  -16.9407 C   0  0  2  0  0  0  0  0  0  0  0  0
   28.3681  -23.0410  -17.3675 N   0  0  0  0  0  0  0  0  0  0  0  0
   27.2646  -21.7974  -15.6716 C   0  0  0  0  0  0  0  0  0  0  0  0
   26.4734  -22.7816  -15.4758 O   0  0  0  0  0  0  0  0  0  0  0  0
   27.3611  -20.8868  -14.5868 N   0  0  0  0  0  0  0  0  0  0  0  0
   26.5733  -21.0504  -13.3886 C   0  0  1  0  0  0  0  0  0  0  0  0
   27.4142  -20.4959  -12.2446 C   0  0  0  0  0  0  0  0  0  0  0  0
   26.7064  -20.5404  -10.9426 C   0  0  0  0  0  0  0  0  0  0  0  0
   26.1575  -19.3885  -10.4211 C   0  0  0  0  0  0  0  0  0  0  0  0
   25.4971  -19.4346   -9.2123 C   0  0  0  0  0  0  0  0  0  0  0  0
   25.3811  -20.6062   -8.5276 C   0  0  0  0  0  0  0  0  0  0  0  0
   25.9261  -21.7833   -9.0316 C   0  0  0  0  0  0  0  0  0  0  0  0
   26.5843  -21.7183  -10.2443 C   0  0  0  0  0  0  0  0  0  0  0  0
   25.2536  -20.3974  -13.4998 C   0  0  0  0  0  0  0  0  0  0  0  0
   25.1037  -19.2120  -13.8977 O   0  0  0  0  0  0  0  0  0  0  0  0
   22.7122  -20.3438  -15.7107 C   0  0  0  0  0  0  0  0  0  0  0  0
   22.0109  -20.8555  -14.4759 C   0  0  1  0  0  0  0  0  0  0  0  0
   21.6804  -22.3073  -14.5784 C   0  0  0  0  0  0  0  0  0  0  0  0
   22.7670  -20.4963  -13.2075 C   0  0  2  0  0  0  0  0  0  0  0  0
   24.0631  -21.1031  -13.1511 N   0  0  0  0  0  0  0  0  0  0  0  0
   21.9243  -20.8233  -12.0370 C   0  0  0  0  0  0  0  0  0  0  0  0
   22.2811  -21.7384  -11.2656 O   0  0  0  0  0  0  0  0  0  0  0  0
   20.7532  -20.1488  -11.7681 O   0  0  0  0  0  0  0  0  0  0  0  0
  2  4  1  0
  2  1  1  1
  3  2  1  0
  4  6  1  0
  4  5  1  6
  6  7  2  0
  8  9  1  0
  8  6  1  0
  9 17  1  0
 10 11  1  0
  9 10  1  1
 11 12  2  0
 12 13  1  0
 14 13  2  0
 15 14  1  0
 16 15  2  0
 16 11  1  0
 17 18  2  0
 20 19  1  6
 20 22  1  0
 21 20  1  0
 22 24  1  0
 23 17  1  0
 22 23  1  1
 24 25  2  0
 24 26  1  0
M  END
$$$$
