VFV.pdb
     RDKit          3D

 26 26  0  0  1  0  0  0  0  0999 V2000
   22.7925  -22.5800  -13.7564 C   0  0  0  0  0  0  0  0  0  0  0  0
   21.7260  -21.5223  -13.6077 C   0  0  1  0  0  0  0  0  0  0  0  0
   20.3855  -21.9429  -14.1270 C   0  0  0  0  0  0  0  0  0  0  0  0
   21.7024  -20.8986  -12.2403 C   0  0  2  0  0  0  0  0  0  0  0  0
   20.8020  -19.7685  -12.3112 N   0  0  0  0  0  0  0  0  0  0  0  0
   22.9777  -20.4914  -11.6914 C   0  0  0  0  0  0  0  0  0  0  0  0
   23.5302  -19.4428  -12.1692 O   0  0  0  0  0  0  0  0  0  0  0  0
   23.7107  -21.1317  -10.6580 N   0  0  0  0  0  0  0  0  0  0  0  0
   25.0439  -20.7091  -10.3017 C   0  0  1  0  0  0  0  0  0  0  0  0
   25.2923  -21.2229   -8.8884 C   0  0  0  0  0  0  0  0  0  0  0  0
   26.5178  -20.6512   -8.2806 C   0  0  0  0  0  0  0  0  0  0  0  0
   26.4881  -19.3828   -7.7419 C   0  0  0  0  0  0  0  0  0  0  0  0
   27.6283  -18.8562   -7.1744 C   0  0  0  0  0  0  0  0  0  0  0  0
   28.7842  -19.5758   -7.1405 C   0  0  0  0  0  0  0  0  0  0  0  0
   28.8413  -20.8585   -7.6773 C   0  0  0  0  0  0  0  0  0  0  0  0
   27.6890  -21.3700   -8.2417 C   0  0  0  0  0  0  0  0  0  0  0  0
   26.0527  -21.1830  -11.2703 C   0  0  0  0  0  0  0  0  0  0  0  0
   26.2422  -22.4015  -11.5259 O   0  0  0  0  0  0  0  0  0  0  0  0
   28.1541  -18.2528  -13.6786 C   0  0  0  0  0  0  0  0  0  0  0  0
   27.7376  -19.6133  -14.1823 C   0  0  1  0  0  0  0  0  0  0  0  0
   28.5343  -20.0409  -15.3696 C   0  0  0  0  0  0  0  0  0  0  0  0
   27.7143  -20.6454  -13.0671 C   0  0  2  0  0  0  0  0  0  0  0  0
   26.8755  -20.2535  -11.9744 N   0  0  0  0  0  0  0  0  0  0  0  0
   29.1039  -20.9371  -12.6534 C   0  0  0  0  0  0  0  0  0  0  0  0
   29.5199  -20.4971  -11.5611 O   0  0  0  0  0  0  0  0  0  0  0  0
   29.9588  -21.6816  -13.4367 O   0  0  0  0  0  0  0  0  0  0  0  0
  2  4  1  0
  2  1  1  1
  3  2  1  0
  4  6  1  0
  4  5  1  6
  6  7  2  0
  8  9  1  0
  8  6  1  0
  9 17  1  0
 10 11  1  0
  9 10  1  1
 11 12  2  0
 12 13  1  0
 14 13  2  0
 15 14  1  0
 16 15  2  0
 16 11  1  0
 17 18  2  0
 20 19  1  1
 20 22  1  0
 21 20  1  0
 22 24  1  0
 23 17  1  0
 22 23  1  1
 24 25  2  0
 24 26  1  0
M  END
$$$$
