VFV.pdb
     RDKit          3D

 26 26  0  0  1  0  0  0  0  0999 V2000
   26.6770  -18.6381  -13.0716 C   0  0  0  0  0  0  0  0  0  0  0  0
   27.4897  -19.7154  -13.7480 C   0  0  1  0  0  0  0  0  0  0  0  0
   27.9228  -19.3591  -15.1369 C   0  0  0  0  0  0  0  0  0  0  0  0
   28.5796  -20.2673  -12.8723 C   0  0  2  0  0  0  0  0  0  0  0  0
   29.0949  -21.4444  -13.5371 N   0  0  0  0  0  0  0  0  0  0  0  0
   28.2183  -20.5792  -11.5064 C   0  0  0  0  0  0  0  0  0  0  0  0
   27.5208  -21.6287  -11.2941 O   0  0  0  0  0  0  0  0  0  0  0  0
   28.5535  -19.8417  -10.3407 N   0  0  0  0  0  0  0  0  0  0  0  0
   28.0480  -20.2105   -9.0400 C   0  0  1  0  0  0  0  0  0  0  0  0
   28.9328  -19.5026   -8.0206 C   0  0  0  0  0  0  0  0  0  0  0  0
   28.4834  -19.7224   -6.6249 C   0  0  0  0  0  0  0  0  0  0  0  0
   27.8123  -18.7217   -5.9553 C   0  0  0  0  0  0  0  0  0  0  0  0
   27.3929  -18.9312   -4.6593 C   0  0  0  0  0  0  0  0  0  0  0  0
   27.6346  -20.1163   -4.0332 C   0  0  0  0  0  0  0  0  0  0  0  0
   28.3101  -21.1429   -4.6864 C   0  0  0  0  0  0  0  0  0  0  0  0
   28.7228  -20.9153   -5.9848 C   0  0  0  0  0  0  0  0  0  0  0  0
   26.6174  -19.8785   -8.8871 C   0  0  0  0  0  0  0  0  0  0  0  0
   26.1816  -18.6969   -8.8839 O   0  0  0  0  0  0  0  0  0  0  0  0
   23.9348  -19.9462  -11.0061 C   0  0  0  0  0  0  0  0  0  0  0  0
   23.4911  -20.8849   -9.9106 C   0  0  1  0  0  0  0  0  0  0  0  0
   23.5182  -22.3116  -10.3479 C   0  0  0  0  0  0  0  0  0  0  0  0
   24.2446  -20.6362   -8.6145 C   0  0  2  0  0  0  0  0  0  0  0  0
   25.6451  -20.9117   -8.7326 N   0  0  0  0  0  0  0  0  0  0  0  0
   23.5951  -21.3996   -7.5271 C   0  0  0  0  0  0  0  0  0  0  0  0
   24.2563  -22.2574   -6.9052 O   0  0  0  0  0  0  0  0  0  0  0  0
   22.2785  -21.1948   -7.1756 O   0  0  0  0  0  0  0  0  0  0  0  0
  2  4  1  0
  2  1  1  1
  3  2  1  0
  4  6  1  0
  4  5  1  6
  6  7  2  0
  8  9  1  0
  8  6  1  0
  9 17  1  0
 10 11  1  0
  9 10  1  1
 11 12  2  0
 12 13  1  0
 14 13  2  0
 15 14  1  0
 16 15  2  0
 16 11  1  0
 17 18  2  0
 20 19  1  6
 20 22  1  0
 21 20  1  0
 22 24  1  0
 23 17  1  0
 22 23  1  6
 24 25  2  0
 24 26  1  0
M  END
$$$$
