VFV.pdb
     RDKit          3D

 26 26  0  0  1  0  0  0  0  0999 V2000
   23.2350  -20.0981  -10.7465 C   0  0  0  0  0  0  0  0  0  0  0  0
   23.9424  -20.9103  -11.8041 C   0  0  1  0  0  0  0  0  0  0  0  0
   23.3359  -20.7805  -13.1675 C   0  0  0  0  0  0  0  0  0  0  0  0
   25.4368  -20.7543  -11.7640 C   0  0  2  0  0  0  0  0  0  0  0  0
   25.9811  -21.6881  -12.7257 N   0  0  0  0  0  0  0  0  0  0  0  0
   26.0728  -20.9312  -10.4764 C   0  0  0  0  0  0  0  0  0  0  0  0
   26.1422  -22.1141   -9.9980 O   0  0  0  0  0  0  0  0  0  0  0  0
   26.6453  -19.9234   -9.6568 N   0  0  0  0  0  0  0  0  0  0  0  0
   27.2230  -20.2313   -8.3705 C   0  0  1  0  0  0  0  0  0  0  0  0
   28.3504  -19.2281   -8.1566 C   0  0  0  0  0  0  0  0  0  0  0  0
   28.9336  -19.3067   -6.7957 C   0  0  0  0  0  0  0  0  0  0  0  0
   29.6608  -20.4173   -6.4248 C   0  0  0  0  0  0  0  0  0  0  0  0
   30.2045  -20.4850   -5.1601 C   0  0  0  0  0  0  0  0  0  0  0  0
   30.0306  -19.4663   -4.2731 C   0  0  0  0  0  0  0  0  0  0  0  0
   29.3007  -18.3339   -4.6221 C   0  0  0  0  0  0  0  0  0  0  0  0
   28.7634  -18.2833   -5.8936 C   0  0  0  0  0  0  0  0  0  0  0  0
   26.2168  -20.2028   -7.2902 C   0  0  0  0  0  0  0  0  0  0  0  0
   25.3125  -19.3295   -7.2148 O   0  0  0  0  0  0  0  0  0  0  0  0
   23.6205  -22.3891   -3.7940 C   0  0  0  0  0  0  0  0  0  0  0  0
   24.4992  -22.4145   -5.0210 C   0  0  1  0  0  0  0  0  0  0  0  0
   23.7292  -22.7422   -6.2567 C   0  0  0  0  0  0  0  0  0  0  0  0
   25.3313  -21.1491   -5.1457 C   0  0  2  0  0  0  0  0  0  0  0  0
   26.2296  -21.1908   -6.2604 N   0  0  0  0  0  0  0  0  0  0  0  0
   26.0171  -20.8964   -3.8600 C   0  0  0  0  0  0  0  0  0  0  0  0
   27.1319  -21.4190   -3.6507 O   0  0  0  0  0  0  0  0  0  0  0  0
   25.4642  -20.0999   -2.8808 O   0  0  0  0  0  0  0  0  0  0  0  0
  2  4  1  0
  2  1  1  1
  3  2  1  0
  4  6  1  0
  4  5  1  6
  6  7  2  0
  8  9  1  0
  8  6  1  0
  9 17  1  0
 10 11  1  0
  9 10  1  1
 11 12  2  0
 12 13  1  0
 14 13  2  0
 15 14  1  0
 16 15  2  0
 16 11  1  0
 17 18  2  0
 20 19  1  1
 20 22  1  0
 21 20  1  0
 22 24  1  0
 23 17  1  0
 22 23  1  6
 24 25  2  0
 24 26  1  0
M  END
$$$$
