VFV.pdb
     RDKit          3D

 26 26  0  0  1  0  0  0  0  0999 V2000
   24.3478  -19.7128  -11.9664 C   0  0  0  0  0  0  0  0  0  0  0  0
   25.3092  -20.5379  -12.7871 C   0  0  1  0  0  0  0  0  0  0  0  0
   25.1924  -20.3067  -14.2623 C   0  0  0  0  0  0  0  0  0  0  0  0
   26.7147  -20.5053  -12.2555 C   0  0  2  0  0  0  0  0  0  0  0  0
   27.4820  -21.4455  -13.0432 N   0  0  0  0  0  0  0  0  0  0  0  0
   26.8807  -20.7789  -10.8444 C   0  0  0  0  0  0  0  0  0  0  0  0
   26.5576  -21.9383  -10.4150 O   0  0  0  0  0  0  0  0  0  0  0  0
   27.3727  -19.8923   -9.8508 N   0  0  0  0  0  0  0  0  0  0  0  0
   27.4064  -20.2619   -8.4560 C   0  0  1  0  0  0  0  0  0  0  0  0
   28.4903  -19.4050   -7.8125 C   0  0  0  0  0  0  0  0  0  0  0  0
   28.5718  -19.5957   -6.3444 C   0  0  0  0  0  0  0  0  0  0  0  0
   29.1709  -20.7266   -5.8324 C   0  0  0  0  0  0  0  0  0  0  0  0
   29.2480  -20.8985   -4.4671 C   0  0  0  0  0  0  0  0  0  0  0  0
   28.7384  -19.9630   -3.6186 C   0  0  0  0  0  0  0  0  0  0  0  0
   28.1284  -18.8124   -4.1093 C   0  0  0  0  0  0  0  0  0  0  0  0
   28.0603  -18.6569   -5.4802 C   0  0  0  0  0  0  0  0  0  0  0  0
   26.0889  -20.1025   -7.8087 C   0  0  0  0  0  0  0  0  0  0  0  0
   25.3912  -19.0595   -7.9157 O   0  0  0  0  0  0  0  0  0  0  0  0
   22.9365  -21.8500   -8.3052 C   0  0  0  0  0  0  0  0  0  0  0  0
   23.2582  -22.0454   -6.8435 C   0  0  1  0  0  0  0  0  0  0  0  0
   23.6289  -23.4575   -6.5338 C   0  0  0  0  0  0  0  0  0  0  0  0
   24.2764  -21.0313   -6.3491 C   0  0  2  0  0  0  0  0  0  0  0  0
   25.5390  -21.1528   -7.0142 N   0  0  0  0  0  0  0  0  0  0  0  0
   24.3853  -21.1380   -4.8781 C   0  0  0  0  0  0  0  0  0  0  0  0
   25.2502  -21.8913   -4.3838 O   0  0  0  0  0  0  0  0  0  0  0  0
   23.5604  -20.4306   -4.0308 O   0  0  0  0  0  0  0  0  0  0  0  0
  2  4  1  0
  2  1  1  1
  3  2  1  0
  4  6  1  0
  4  5  1  6
  6  7  2  0
  8  9  1  0
  8  6  1  0
  9 17  1  0
 10 11  1  0
  9 10  1  1
 11 12  2  0
 12 13  1  0
 14 13  2  0
 15 14  1  0
 16 15  2  0
 16 11  1  0
 17 18  2  0
 20 19  1  6
 20 22  1  0
 21 20  1  0
 22 24  1  0
 23 17  1  0
 22 23  1  6
 24 25  2  0
 24 26  1  0
M  END
$$$$
