VFV.pdb
     RDKit          3D

 26 26  0  0  1  0  0  0  0  0999 V2000
   19.0605  -11.6276  -21.9677 C   0  0  0  0  0  0  0  0  0  0  0  0
   18.9703  -10.9279  -20.6332 C   0  0  1  0  0  0  0  0  0  0  0  0
   17.5825  -10.8804  -20.0718 C   0  0  0  0  0  0  0  0  0  0  0  0
   20.0259  -11.3757  -19.6615 C   0  0  2  0  0  0  0  0  0  0  0  0
   19.8278  -12.7935  -19.4523 N   0  0  0  0  0  0  0  0  0  0  0  0
   20.0750  -10.6825  -18.3924 C   0  0  0  0  0  0  0  0  0  0  0  0
   19.2703  -11.0557  -17.4725 O   0  0  0  0  0  0  0  0  0  0  0  0
   20.9316   -9.6088  -18.0340 N   0  0  0  0  0  0  0  0  0  0  0  0
   20.7925   -8.9172  -16.7748 C   0  0  1  0  0  0  0  0  0  0  0  0
   22.2053   -8.5754  -16.3161 C   0  0  0  0  0  0  0  0  0  0  0  0
   22.2208   -7.7285  -15.0992 C   0  0  0  0  0  0  0  0  0  0  0  0
   22.4461   -6.3732  -15.2102 C   0  0  0  0  0  0  0  0  0  0  0  0
   22.4561   -5.5887  -14.0771 C   0  0  0  0  0  0  0  0  0  0  0  0
   22.2458   -6.1385  -12.8489 C   0  0  0  0  0  0  0  0  0  0  0  0
   22.0160   -7.5039  -12.7089 C   0  0  0  0  0  0  0  0  0  0  0  0
   22.0095   -8.2745  -13.8553 C   0  0  0  0  0  0  0  0  0  0  0  0
   19.9228   -7.7293  -16.8883 C   0  0  0  0  0  0  0  0  0  0  0  0
   20.0432   -6.8731  -17.8040 O   0  0  0  0  0  0  0  0  0  0  0  0
   16.0982   -7.8443  -15.3816 C   0  0  0  0  0  0  0  0  0  0  0  0
   16.5748   -6.7385  -16.2916 C   0  0  1  0  0  0  0  0  0  0  0  0
   15.6437   -5.5721  -16.2938 C   0  0  0  0  0  0  0  0  0  0  0  0
   18.0188   -6.3580  -16.0093 C   0  0  2  0  0  0  0  0  0  0  0  0
   18.8828   -7.4981  -15.9388 N   0  0  0  0  0  0  0  0  0  0  0  0
   18.0656   -5.5210  -14.7909 C   0  0  0  0  0  0  0  0  0  0  0  0
   18.2004   -6.0714  -13.6780 O   0  0  0  0  0  0  0  0  0  0  0  0
   17.9650   -4.1477  -14.8432 O   0  0  0  0  0  0  0  0  0  0  0  0
  2  4  1  0
  2  1  1  6
  3  2  1  0
  4  6  1  0
  4  5  1  1
  6  7  2  0
  8  9  1  0
  8  6  1  0
  9 17  1  0
 10 11  1  0
  9 10  1  6
 11 12  2  0
 12 13  1  0
 14 13  2  0
 15 14  1  0
 16 15  2  0
 16 11  1  0
 17 18  2  0
 20 19  1  1
 20 22  1  0
 21 20  1  0
 22 24  1  0
 23 17  1  0
 22 23  1  1
 24 25  2  0
 24 26  1  0
M  END
$$$$
