VFV.pdb
     RDKit          3D

 26 26  0  0  1  0  0  0  0  0999 V2000
   21.5705  -22.3986  -14.9819 C   0  0  0  0  0  0  0  0  0  0  0  0
   22.4521  -21.4556  -14.1994 C   0  0  1  0  0  0  0  0  0  0  0  0
   22.4718  -20.0602  -14.7434 C   0  0  0  0  0  0  0  0  0  0  0  0
   22.2399  -21.5478  -12.7143 C   0  0  2  0  0  0  0  0  0  0  0  0
   20.8921  -21.0905  -12.4548 N   0  0  0  0  0  0  0  0  0  0  0  0
   23.1820  -20.8346  -11.8792 C   0  0  0  0  0  0  0  0  0  0  0  0
   22.9398  -19.6087  -11.6119 O   0  0  0  0  0  0  0  0  0  0  0  0
   24.3757  -21.3443  -11.3043 N   0  0  0  0  0  0  0  0  0  0  0  0
   25.2421  -20.5165  -10.4997 C   0  0  1  0  0  0  0  0  0  0  0  0
   25.8467  -21.4318   -9.4415 C   0  0  0  0  0  0  0  0  0  0  0  0
   26.5641  -20.6830   -8.3819 C   0  0  0  0  0  0  0  0  0  0  0  0
   25.9880  -19.5612   -7.8255 C   0  0  0  0  0  0  0  0  0  0  0  0
   26.6563  -18.8699   -6.8382 C   0  0  0  0  0  0  0  0  0  0  0  0
   27.8801  -19.2833   -6.4066 C   0  0  0  0  0  0  0  0  0  0  0  0
   28.4842  -20.4125   -6.9515 C   0  0  0  0  0  0  0  0  0  0  0  0
   27.7997  -21.0928   -7.9398 C   0  0  0  0  0  0  0  0  0  0  0  0
   26.2632  -19.8277  -11.3141 C   0  0  0  0  0  0  0  0  0  0  0  0
   27.0799  -18.9971  -10.8354 O   0  0  0  0  0  0  0  0  0  0  0  0
   29.1976  -21.0065  -12.7365 C   0  0  0  0  0  0  0  0  0  0  0  0
   28.4645  -20.4568  -13.9359 C   0  0  1  0  0  0  0  0  0  0  0  0
   27.9815  -21.5386  -14.8435 C   0  0  0  0  0  0  0  0  0  0  0  0
   27.3757  -19.4767  -13.5316 C   0  0  2  0  0  0  0  0  0  0  0  0
   26.3678  -20.0829  -12.7143 N   0  0  0  0  0  0  0  0  0  0  0  0
   26.8271  -18.8394  -14.7482 C   0  0  0  0  0  0  0  0  0  0  0  0
   27.5786  -18.1448  -15.4643 O   0  0  0  0  0  0  0  0  0  0  0  0
   25.5084  -18.9872  -15.1197 O   0  0  0  0  0  0  0  0  0  0  0  0
  2  4  1  0
  2  1  1  6
  3  2  1  0
  4  6  1  0
  4  5  1  6
  6  7  2  0
  8  9  1  0
  8  6  1  0
  9 17  1  0
 10 11  1  0
  9 10  1  1
 11 12  2  0
 12 13  1  0
 14 13  2  0
 15 14  1  0
 16 15  2  0
 16 11  1  0
 17 18  2  0
 20 19  1  1
 20 22  1  0
 21 20  1  0
 22 24  1  0
 23 17  1  0
 22 23  1  6
 24 25  2  0
 24 26  1  0
M  END
$$$$
