VFV.pdb
     RDKit          3D

 26 26  0  0  1  0  0  0  0  0999 V2000
   25.5123  -17.4395  -18.6070 C   0  0  0  0  0  0  0  0  0  0  0  0
   26.6798  -18.1508  -19.2470 C   0  0  1  0  0  0  0  0  0  0  0  0
   27.2648  -17.4165  -20.4140 C   0  0  0  0  0  0  0  0  0  0  0  0
   27.6871  -18.6455  -18.2471 C   0  0  2  0  0  0  0  0  0  0  0  0
   28.5828  -19.5313  -18.9586 N   0  0  0  0  0  0  0  0  0  0  0  0
   27.1628  -19.3016  -17.0688 C   0  0  0  0  0  0  0  0  0  0  0  0
   26.6640  -20.4703  -17.2036 O   0  0  0  0  0  0  0  0  0  0  0  0
   27.1342  -18.7916  -15.7443 N   0  0  0  0  0  0  0  0  0  0  0  0
   26.5464  -19.5384  -14.6580 C   0  0  1  0  0  0  0  0  0  0  0  0
   27.3820  -19.2255  -13.4223 C   0  0  0  0  0  0  0  0  0  0  0  0
   26.8753  -19.9026  -12.2045 C   0  0  0  0  0  0  0  0  0  0  0  0
   26.0664  -19.2159  -11.3247 C   0  0  0  0  0  0  0  0  0  0  0  0
   25.5944  -19.8499  -10.1957 C   0  0  0  0  0  0  0  0  0  0  0  0
   25.9188  -21.1477   -9.9401 C   0  0  0  0  0  0  0  0  0  0  0  0
   26.7337  -21.8638  -10.8119 C   0  0  0  0  0  0  0  0  0  0  0  0
   27.1974  -21.2123  -11.9382 C   0  0  0  0  0  0  0  0  0  0  0  0
   25.1154  -19.2217  -14.4786 C   0  0  0  0  0  0  0  0  0  0  0  0
   24.6884  -18.0531  -14.2831 O   0  0  0  0  0  0  0  0  0  0  0  0
   20.4307  -20.1560  -15.3044 C   0  0  0  0  0  0  0  0  0  0  0  0
   21.9057  -20.3632  -15.5489 C   0  0  1  0  0  0  0  0  0  0  0  0
   22.3660  -19.6985  -16.8034 C   0  0  0  0  0  0  0  0  0  0  0  0
   22.7369  -19.9959  -14.3308 C   0  0  2  0  0  0  0  0  0  0  0  0
   24.1325  -20.2556  -14.5205 N   0  0  0  0  0  0  0  0  0  0  0  0
   22.1779  -20.6788  -13.1441 C   0  0  0  0  0  0  0  0  0  0  0  0
   22.5147  -21.8572  -12.9039 O   0  0  0  0  0  0  0  0  0  0  0  0
   21.2938  -20.0552  -12.2908 O   0  0  0  0  0  0  0  0  0  0  0  0
  2  4  1  0
  2  1  1  1
  3  2  1  0
  4  6  1  0
  4  5  1  6
  6  7  2  0
  8  9  1  0
  8  6  1  0
  9 17  1  0
 10 11  1  0
  9 10  1  1
 11 12  2  0
 12 13  1  0
 14 13  2  0
 15 14  1  0
 16 15  2  0
 16 11  1  0
 17 18  2  0
 20 19  1  1
 20 22  1  0
 21 20  1  0
 22 24  1  0
 23 17  1  0
 22 23  1  6
 24 25  2  0
 24 26  1  0
M  END
$$$$
