VFV.pdb
     RDKit          3D

 26 26  0  0  1  0  0  0  0  0999 V2000
   10.7336  -23.0636   -6.6194 C   0  0  0  0  0  0  0  0  0  0  0  0
   11.7264  -23.4169   -5.5386 C   0  0  1  0  0  0  0  0  0  0  0  0
   12.3129  -24.7872   -5.6856 C   0  0  0  0  0  0  0  0  0  0  0  0
   12.7305  -22.3279   -5.2833 C   0  0  2  0  0  0  0  0  0  0  0  0
   13.5129  -22.1883   -6.4922 N   0  0  0  0  0  0  0  0  0  0  0  0
   13.5995  -22.5024   -4.1397 C   0  0  0  0  0  0  0  0  0  0  0  0
   14.8171  -22.8258   -4.3540 O   0  0  0  0  0  0  0  0  0  0  0  0
   13.2555  -22.3539   -2.7704 N   0  0  0  0  0  0  0  0  0  0  0  0
   14.2204  -22.5724   -1.7194 C   0  0  1  0  0  0  0  0  0  0  0  0
   13.9355  -21.5223   -0.6520 C   0  0  0  0  0  0  0  0  0  0  0  0
   14.8229  -21.6534    0.5285 C   0  0  0  0  0  0  0  0  0  0  0  0
   16.1177  -21.1845    0.4681 C   0  0  0  0  0  0  0  0  0  0  0  0
   16.9384  -21.3049    1.5688 C   0  0  0  0  0  0  0  0  0  0  0  0
   16.4836  -21.8823    2.7154 C   0  0  0  0  0  0  0  0  0  0  0  0
   15.1809  -22.3640    2.8029 C   0  0  0  0  0  0  0  0  0  0  0  0
   14.3727  -22.2347    1.6901 C   0  0  0  0  0  0  0  0  0  0  0  0
   14.1664  -23.9521   -1.1961 C   0  0  0  0  0  0  0  0  0  0  0  0
   13.0880  -24.5725   -1.0009 O   0  0  0  0  0  0  0  0  0  0  0  0
   17.8519  -26.1381   -0.7030 C   0  0  0  0  0  0  0  0  0  0  0  0
   16.5296  -26.8176   -0.9638 C   0  0  1  0  0  0  0  0  0  0  0  0
   16.5303  -28.2401   -0.5125 C   0  0  0  0  0  0  0  0  0  0  0  0
   15.3631  -26.0112   -0.4173 C   0  0  2  0  0  0  0  0  0  0  0  0
   15.3673  -24.6565   -0.8820 N   0  0  0  0  0  0  0  0  0  0  0  0
   15.3557  -26.1163    1.0578 C   0  0  0  0  0  0  0  0  0  0  0  0
   15.9911  -25.2786    1.7319 O   0  0  0  0  0  0  0  0  0  0  0  0
   14.6678  -27.1123    1.7162 O   0  0  0  0  0  0  0  0  0  0  0  0
  2  4  1  0
  2  1  1  6
  3  2  1  0
  4  6  1  0
  4  5  1  6
  6  7  2  0
  8  9  1  0
  8  6  1  0
  9 17  1  0
 10 11  1  0
  9 10  1  1
 11 12  2  0
 12 13  1  0
 14 13  2  0
 15 14  1  0
 16 15  2  0
 16 11  1  0
 17 18  2  0
 20 19  1  1
 20 22  1  0
 21 20  1  0
 22 24  1  0
 23 17  1  0
 22 23  1  1
 24 25  2  0
 24 26  1  0
M  END
$$$$
