VFV.pdb
     RDKit          3D

 26 26  0  0  1  0  0  0  0  0999 V2000
   20.1832  -22.2579  -14.7673 C   0  0  0  0  0  0  0  0  0  0  0  0
   21.5176  -21.7427  -14.2851 C   0  0  1  0  0  0  0  0  0  0  0  0
   22.3292  -21.0809  -15.3559 C   0  0  0  0  0  0  0  0  0  0  0  0
   21.4197  -20.9670  -13.0013 C   0  0  2  0  0  0  0  0  0  0  0  0
   20.5478  -19.8414  -13.2579 N   0  0  0  0  0  0  0  0  0  0  0  0
   22.6654  -20.5154  -12.4200 C   0  0  0  0  0  0  0  0  0  0  0  0
   23.0879  -19.3511  -12.7343 O   0  0  0  0  0  0  0  0  0  0  0  0
   23.4988  -21.2273  -11.5179 N   0  0  0  0  0  0  0  0  0  0  0  0
   24.8139  -20.7491  -11.1642 C   0  0  1  0  0  0  0  0  0  0  0  0
   25.1901  -21.4530   -9.8656 C   0  0  0  0  0  0  0  0  0  0  0  0
   26.4383  -20.9202   -9.2688 C   0  0  0  0  0  0  0  0  0  0  0  0
   26.3719  -19.9356   -8.3064 C   0  0  0  0  0  0  0  0  0  0  0  0
   27.5343  -19.4455   -7.7512 C   0  0  0  0  0  0  0  0  0  0  0  0
   28.7477  -19.9236   -8.1436 C   0  0  0  0  0  0  0  0  0  0  0  0
   28.8428  -20.9173   -9.1132 C   0  0  0  0  0  0  0  0  0  0  0  0
   27.6676  -21.3966   -9.6584 C   0  0  0  0  0  0  0  0  0  0  0  0
   25.7947  -20.9752  -12.2446 C   0  0  0  0  0  0  0  0  0  0  0  0
   25.9740  -22.0973  -12.7876 O   0  0  0  0  0  0  0  0  0  0  0  0
   28.6600  -18.7689  -15.6930 C   0  0  0  0  0  0  0  0  0  0  0  0
   27.7055  -18.6503  -14.5297 C   0  0  1  0  0  0  0  0  0  0  0  0
   26.4957  -17.8476  -14.8752 C   0  0  0  0  0  0  0  0  0  0  0  0
   27.3786  -20.0067  -13.9273 C   0  0  2  0  0  0  0  0  0  0  0  0
   26.6004  -19.9017  -12.7296 N   0  0  0  0  0  0  0  0  0  0  0  0
   28.6351  -20.7628  -13.7359 C   0  0  0  0  0  0  0  0  0  0  0  0
   29.2892  -20.6018  -12.6842 O   0  0  0  0  0  0  0  0  0  0  0  0
   29.1102  -21.6429  -14.6837 O   0  0  0  0  0  0  0  0  0  0  0  0
  2  4  1  0
  2  1  1  6
  3  2  1  0
  4  6  1  0
  4  5  1  6
  6  7  2  0
  8  9  1  0
  8  6  1  0
  9 17  1  0
 10 11  1  0
  9 10  1  1
 11 12  2  0
 12 13  1  0
 14 13  2  0
 15 14  1  0
 16 15  2  0
 16 11  1  0
 17 18  2  0
 20 19  1  6
 20 22  1  0
 21 20  1  0
 22 24  1  0
 23 17  1  0
 22 23  1  1
 24 25  2  0
 24 26  1  0
M  END
$$$$
