VFV.pdb
     RDKit          3D

 26 26  0  0  1  0  0  0  0  0999 V2000
   20.7238  -12.2595  -19.7585 C   0  0  0  0  0  0  0  0  0  0  0  0
   20.2092  -11.3037  -18.7097 C   0  0  1  0  0  0  0  0  0  0  0  0
   18.7516  -11.4701  -18.4079 C   0  0  0  0  0  0  0  0  0  0  0  0
   21.0963  -11.2255  -17.4989 C   0  0  2  0  0  0  0  0  0  0  0  0
   21.1341  -12.5514  -16.9214 N   0  0  0  0  0  0  0  0  0  0  0  0
   20.7363  -10.2495  -16.4932 C   0  0  0  0  0  0  0  0  0  0  0  0
   19.8729  -10.5845  -15.6127 O   0  0  0  0  0  0  0  0  0  0  0  0
   21.2390   -8.9285  -16.3611 N   0  0  0  0  0  0  0  0  0  0  0  0
   20.7825   -8.0459  -15.3143 C   0  0  1  0  0  0  0  0  0  0  0  0
   21.9748   -7.8247  -14.3909 C   0  0  0  0  0  0  0  0  0  0  0  0
   23.0985   -7.1319  -15.0658 C   0  0  0  0  0  0  0  0  0  0  0  0
   24.1030   -7.8689  -15.6555 C   0  0  0  0  0  0  0  0  0  0  0  0
   25.1440   -7.2213  -16.2852 C   0  0  0  0  0  0  0  0  0  0  0  0
   25.1906   -5.8609  -16.3308 C   0  0  0  0  0  0  0  0  0  0  0  0
   24.1894   -5.0932  -15.7435 C   0  0  0  0  0  0  0  0  0  0  0  0
   23.1540   -5.7592  -15.1170 C   0  0  0  0  0  0  0  0  0  0  0  0
   20.2323   -6.7859  -15.8529 C   0  0  0  0  0  0  0  0  0  0  0  0
   20.7067   -6.2045  -16.8643 O   0  0  0  0  0  0  0  0  0  0  0  0
   17.1429   -5.9061  -17.5359 C   0  0  0  0  0  0  0  0  0  0  0  0
   17.1512   -5.0974  -16.2614 C   0  0  1  0  0  0  0  0  0  0  0  0
   16.1786   -5.6209  -15.2576 C   0  0  0  0  0  0  0  0  0  0  0  0
   18.5568   -4.9283  -15.7092 C   0  0  2  0  0  0  0  0  0  0  0  0
   19.1104   -6.1598  -15.2315 N   0  0  0  0  0  0  0  0  0  0  0  0
   18.5450   -3.8634  -14.6831 C   0  0  0  0  0  0  0  0  0  0  0  0
   18.3100   -2.6864  -15.0286 O   0  0  0  0  0  0  0  0  0  0  0  0
   18.7856   -4.1279  -13.3523 O   0  0  0  0  0  0  0  0  0  0  0  0
  2  4  1  0
  2  1  1  6
  3  2  1  0
  4  6  1  0
  4  5  1  1
  6  7  2  0
  8  9  1  0
  8  6  1  0
  9 17  1  0
 10 11  1  0
  9 10  1  1
 11 12  2  0
 12 13  1  0
 14 13  2  0
 15 14  1  0
 16 15  2  0
 16 11  1  0
 17 18  2  0
 20 19  1  6
 20 22  1  0
 21 20  1  0
 22 24  1  0
 23 17  1  0
 22 23  1  1
 24 25  2  0
 24 26  1  0
M  END
$$$$
