VFV.pdb
     RDKit          3D

 26 26  0  0  1  0  0  0  0  0999 V2000
   28.1580  -22.1203  -15.1071 C   0  0  0  0  0  0  0  0  0  0  0  0
   27.3232  -21.6677  -16.2804 C   0  0  1  0  0  0  0  0  0  0  0  0
   27.4939  -22.5164  -17.5027 C   0  0  0  0  0  0  0  0  0  0  0  0
   25.8952  -21.3797  -15.9101 C   0  0  2  0  0  0  0  0  0  0  0  0
   25.3011  -20.6929  -17.0364 N   0  0  0  0  0  0  0  0  0  0  0  0
   25.6800  -20.6279  -14.6927 C   0  0  0  0  0  0  0  0  0  0  0  0
   25.7882  -19.3557  -14.7451 O   0  0  0  0  0  0  0  0  0  0  0  0
   25.3542  -21.1450  -13.4115 N   0  0  0  0  0  0  0  0  0  0  0  0
   25.2327  -20.2870  -12.2572 C   0  0  1  0  0  0  0  0  0  0  0  0
   23.8582  -19.6351  -12.3514 C   0  0  0  0  0  0  0  0  0  0  0  0
   22.7547  -20.6250  -12.3324 C   0  0  0  0  0  0  0  0  0  0  0  0
   22.5503  -21.4447  -13.4216 C   0  0  0  0  0  0  0  0  0  0  0  0
   21.5258  -22.3663  -13.3986 C   0  0  0  0  0  0  0  0  0  0  0  0
   20.7132  -22.4756  -12.3112 C   0  0  0  0  0  0  0  0  0  0  0  0
   20.8977  -21.6603  -11.1985 C   0  0  0  0  0  0  0  0  0  0  0  0
   21.9294  -20.7426  -11.2392 C   0  0  0  0  0  0  0  0  0  0  0  0
   25.4323  -21.0257  -10.9944 C   0  0  0  0  0  0  0  0  0  0  0  0
   25.1701  -22.2507  -10.8648 O   0  0  0  0  0  0  0  0  0  0  0  0
   28.5952  -20.5788   -8.5003 C   0  0  0  0  0  0  0  0  0  0  0  0
   27.2759  -20.4506   -7.7783 C   0  0  1  0  0  0  0  0  0  0  0  0
   27.0230  -19.0549   -7.3139 C   0  0  0  0  0  0  0  0  0  0  0  0
   26.1302  -21.0347   -8.5879 C   0  0  2  0  0  0  0  0  0  0  0  0
   25.9440  -20.3627   -9.8389 N   0  0  0  0  0  0  0  0  0  0  0  0
   24.9100  -21.0492   -7.7523 C   0  0  0  0  0  0  0  0  0  0  0  0
   23.8968  -20.4318   -8.1423 O   0  0  0  0  0  0  0  0  0  0  0  0
   24.8537  -21.7242   -6.5524 O   0  0  0  0  0  0  0  0  0  0  0  0
  2  4  1  0
  2  1  1  1
  3  2  1  0
  4  6  1  0
  4  5  1  6
  6  7  2  0
  8  9  1  0
  8  6  1  0
  9 17  1  0
 10 11  1  0
  9 10  1  1
 11 12  2  0
 12 13  1  0
 14 13  2  0
 15 14  1  0
 16 15  2  0
 16 11  1  0
 17 18  2  0
 20 19  1  6
 20 22  1  0
 21 20  1  0
 22 24  1  0
 23 17  1  0
 22 23  1  6
 24 25  2  0
 24 26  1  0
M  END
$$$$
