VFV.pdb
     RDKit          3D

 26 26  0  0  1  0  0  0  0  0999 V2000
   28.5205  -18.8068  -15.3599 C   0  0  0  0  0  0  0  0  0  0  0  0
   27.9112  -19.3795  -14.1031 C   0  0  1  0  0  0  0  0  0  0  0  0
   26.5043  -19.8609  -14.2825 C   0  0  0  0  0  0  0  0  0  0  0  0
   28.8202  -20.3451  -13.3958 C   0  0  2  0  0  0  0  0  0  0  0  0
   28.9437  -21.5061  -14.2501 N   0  0  0  0  0  0  0  0  0  0  0  0
   28.4304  -20.7431  -12.0604 C   0  0  0  0  0  0  0  0  0  0  0  0
   27.6081  -21.7137  -11.9387 O   0  0  0  0  0  0  0  0  0  0  0  0
   28.8617  -20.1716  -10.8347 N   0  0  0  0  0  0  0  0  0  0  0  0
   28.2678  -20.5468   -9.5739 C   0  0  1  0  0  0  0  0  0  0  0  0
   29.1848  -19.9958   -8.4881 C   0  0  0  0  0  0  0  0  0  0  0  0
   28.6013  -20.1208   -7.1309 C   0  0  0  0  0  0  0  0  0  0  0  0
   28.8838  -21.2299   -6.3629 C   0  0  0  0  0  0  0  0  0  0  0  0
   28.3424  -21.3407   -5.1003 C   0  0  0  0  0  0  0  0  0  0  0  0
   27.5313  -20.3659   -4.6035 C   0  0  0  0  0  0  0  0  0  0  0  0
   27.2301  -19.2360   -5.3581 C   0  0  0  0  0  0  0  0  0  0  0  0
   27.7815  -19.1419   -6.6211 C   0  0  0  0  0  0  0  0  0  0  0  0
   26.8779  -20.0639   -9.4508 C   0  0  0  0  0  0  0  0  0  0  0  0
   26.5667  -18.8443   -9.4931 O   0  0  0  0  0  0  0  0  0  0  0  0
   24.2322  -20.0880  -11.6713 C   0  0  0  0  0  0  0  0  0  0  0  0
   23.6798  -20.8663  -10.5019 C   0  0  1  0  0  0  0  0  0  0  0  0
   23.5709  -22.3248  -10.7989 C   0  0  0  0  0  0  0  0  0  0  0  0
   24.4342  -20.5662   -9.2172 C   0  0  2  0  0  0  0  0  0  0  0  0
   25.8025  -20.9854   -9.2739 N   0  0  0  0  0  0  0  0  0  0  0  0
   23.6963  -21.1541   -8.0783 C   0  0  0  0  0  0  0  0  0  0  0  0
   24.2506  -22.0275   -7.3784 O   0  0  0  0  0  0  0  0  0  0  0  0
   22.4117  -20.7686   -7.7624 O   0  0  0  0  0  0  0  0  0  0  0  0
  2  4  1  0
  2  1  1  6
  3  2  1  0
  4  6  1  0
  4  5  1  6
  6  7  2  0
  8  9  1  0
  8  6  1  0
  9 17  1  0
 10 11  1  0
  9 10  1  1
 11 12  2  0
 12 13  1  0
 14 13  2  0
 15 14  1  0
 16 15  2  0
 16 11  1  0
 17 18  2  0
 20 19  1  6
 20 22  1  0
 21 20  1  0
 22 24  1  0
 23 17  1  0
 22 23  1  6
 24 25  2  0
 24 26  1  0
M  END
$$$$
