RMA.pdb
     RDKit          3D

 25 24  0  0  1  0  0  0  0  0999 V2000
    8.7848  -14.4471   16.9816 N   0  0  0  0  0  0  0  0  0  0  0  0
    8.2761  -13.4325   17.8576 C   0  0  0  0  0  0  0  0  0  0  0  0
    8.7320  -12.2445   17.7407 N   0  0  0  0  0  0  0  0  0  0  0  0
    7.2937  -13.7306   18.8322 N   0  0  0  0  0  0  0  0  0  0  0  0
    7.4917  -14.6342   19.9159 C   0  0  0  0  0  0  0  0  0  0  0  0
    8.6189  -15.5901   19.7170 C   0  0  0  0  0  0  0  0  0  0  0  0
    9.5784  -15.7098   20.8499 C   0  0  0  0  0  0  0  0  0  0  0  0
    9.1236  -16.5306   22.0089 C   0  0  2  0  0  0  0  0  0  0  0  0
    7.7578  -16.9350   21.9664 N   0  0  0  0  0  0  0  0  0  0  0  0
    9.5019  -15.8489   23.2715 C   0  0  0  0  0  0  0  0  0  0  0  0
   10.6569  -15.4028   23.4117 O   0  0  0  0  0  0  0  0  0  0  0  0
    8.3393  -11.4799   18.3026 C   0  0  0  0  0  0  0  0  0  0  0  0
    6.5349  -11.6725   27.5245 S   0  0  0  0  0  0  0  0  0  0  0  0
    5.9466  -12.2996   25.9076 C   0  0  0  0  0  0  0  0  0  0  0  0
    7.2638  -13.3022   25.1247 C   0  0  0  0  0  0  0  0  0  0  0  0
    7.9064  -14.2065   26.1128 C   0  0  2  0  0  0  0  0  0  0  0  0
    9.0313  -15.0298   25.5734 N   0  0  0  0  0  0  0  0  0  0  0  0
    8.5824  -15.6894   24.3288 C   0  0  0  0  0  0  0  0  0  0  0  0
    9.3939  -16.1258   26.5199 O   0  0  0  0  0  0  0  0  0  0  0  0
    9.8133  -15.8227   27.6976 C   0  0  0  0  0  0  0  0  0  0  0  0
    9.3896  -19.9013   26.8312 C   0  0  2  0  0  0  0  0  0  0  0  0
    9.8585  -18.5011   27.1183 N   0  0  0  0  0  0  0  0  0  0  0  0
    9.3075  -17.5063   26.2196 C   0  0  0  0  0  0  0  0  0  0  0  0
   11.3537  -18.4893   27.1393 O   0  0  0  0  0  0  0  0  0  0  0  0
   12.0805  -17.8367   26.3914 O   0  0  0  0  0  0  0  0  0  0  0  0
  2  1  1  0
  2  3  2  0
  4  2  1  0
  5  4  1  0
  6  5  1  0
  7  6  1  0
  7  8  1  0
  8  9  1  1
 10  8  1  0
 10 17  1  0
 11 10  2  0
 13 12  1  0
 14 13  1  0
 16 15  1  6
 15 14  1  0
 16 17  1  0
 18 16  1  0
 19 18  2  0
 21 20  1  1
 21 23  1  0
 21 22  1  0
 22 18  1  0
 23 25  1  0
 24 23  2  0
M  END
$$$$
