RMA.pdb
     RDKit          3D

 25 24  0  0  1  0  0  0  0  0999 V2000
    7.1569  -13.2166   17.9354 N   0  0  0  0  0  0  0  0  0  0  0  0
    8.1490  -13.6116   16.9785 C   0  0  0  0  0  0  0  0  0  0  0  0
    7.7637  -13.9475   15.8074 N   0  0  0  0  0  0  0  0  0  0  0  0
    9.5239  -13.6332   17.3146 N   0  0  0  0  0  0  0  0  0  0  0  0
   10.0502  -14.2480   18.4872 C   0  0  0  0  0  0  0  0  0  0  0  0
    9.3100  -13.9135   19.7378 C   0  0  0  0  0  0  0  0  0  0  0  0
    9.9148  -14.4106   21.0050 C   0  0  0  0  0  0  0  0  0  0  0  0
    9.2038  -15.5398   21.6707 C   0  0  2  0  0  0  0  0  0  0  0  0
    7.8955  -15.8091   21.1742 N   0  0  0  0  0  0  0  0  0  0  0  0
    9.2534  -15.3518   23.1418 C   0  0  0  0  0  0  0  0  0  0  0  0
   10.3409  -15.1047   23.6976 O   0  0  0  0  0  0  0  0  0  0  0  0
    8.4478  -14.2401   15.0996 C   0  0  0  0  0  0  0  0  0  0  0  0
    6.3108  -10.2833   26.7520 S   0  0  0  0  0  0  0  0  0  0  0  0
    5.9774  -12.0836   26.7914 C   0  0  0  0  0  0  0  0  0  0  0  0
    7.2493  -12.9625   25.8100 C   0  0  0  0  0  0  0  0  0  0  0  0
    7.0467  -14.4331   25.8663 C   0  0  2  0  0  0  0  0  0  0  0  0
    8.2099  -15.2468   25.3982 N   0  0  0  0  0  0  0  0  0  0  0  0
    8.0931  -15.4454   23.9379 C   0  0  0  0  0  0  0  0  0  0  0  0
    8.1901  -16.6091   26.0083 O   0  0  0  0  0  0  0  0  0  0  0  0
    8.2809  -16.7241   27.2863 C   0  0  0  0  0  0  0  0  0  0  0  0
    7.3464  -20.1748   25.1410 C   0  0  2  0  0  0  0  0  0  0  0  0
    8.0097  -19.0950   25.9515 N   0  0  0  0  0  0  0  0  0  0  0  0
    8.0724  -17.8144   25.2756 C   0  0  0  0  0  0  0  0  0  0  0  0
    9.3554  -19.5794   26.3882 O   0  0  0  0  0  0  0  0  0  0  0  0
   10.4376  -19.0925   26.0636 O   0  0  0  0  0  0  0  0  0  0  0  0
  2  1  1  0
  2  3  2  0
  4  2  1  0
  5  4  1  0
  6  5  1  0
  7  6  1  0
  7  8  1  0
  8  9  1  6
 10  8  1  0
 10 17  1  0
 11 10  2  0
 13 12  1  0
 14 13  1  0
 16 15  1  6
 15 14  1  0
 16 17  1  0
 18 16  1  0
 19 18  2  0
 21 20  1  1
 21 23  1  0
 21 22  1  0
 22 18  1  0
 23 25  1  0
 24 23  2  0
M  END
$$$$
