RMA.pdb
     RDKit          3D

 25 24  0  0  1  0  0  0  0  0999 V2000
    8.9086  -13.0661   15.6859 N   0  0  0  0  0  0  0  0  0  0  0  0
    7.8847  -14.0587   15.8350 C   0  0  0  0  0  0  0  0  0  0  0  0
    7.7281  -14.9151   14.8997 N   0  0  0  0  0  0  0  0  0  0  0  0
    7.0618  -14.0957   16.9862 N   0  0  0  0  0  0  0  0  0  0  0  0
    7.5462  -13.9600   18.3192 C   0  0  0  0  0  0  0  0  0  0  0  0
    8.9546  -14.4125   18.5072 C   0  0  0  0  0  0  0  0  0  0  0  0
    9.4988  -14.2901   19.8884 C   0  0  0  0  0  0  0  0  0  0  0  0
    9.0898  -15.3542   20.8497 C   0  0  2  0  0  0  0  0  0  0  0  0
    7.7530  -15.8246   20.7004 N   0  0  0  0  0  0  0  0  0  0  0  0
    9.4154  -14.9194   22.2307 C   0  0  0  0  0  0  0  0  0  0  0  0
   10.5531  -14.4822   22.4895 O   0  0  0  0  0  0  0  0  0  0  0  0
    7.0374  -15.6690   14.9961 C   0  0  0  0  0  0  0  0  0  0  0  0
    5.0681  -12.1823   26.7536 S   0  0  0  0  0  0  0  0  0  0  0  0
    6.8263  -11.6702   26.7388 C   0  0  0  0  0  0  0  0  0  0  0  0
    7.8904  -13.1439   26.5172 C   0  0  0  0  0  0  0  0  0  0  0  0
    7.6458  -13.7872   25.2007 C   0  0  2  0  0  0  0  0  0  0  0  0
    8.8311  -14.4794   24.6089 N   0  0  0  0  0  0  0  0  0  0  0  0
    8.4644  -14.9873   23.2699 C   0  0  0  0  0  0  0  0  0  0  0  0
    9.2128  -15.6738   25.4189 O   0  0  0  0  0  0  0  0  0  0  0  0
    9.6778  -15.5026   26.6060 C   0  0  0  0  0  0  0  0  0  0  0  0
   10.5832  -18.9758   25.2184 C   0  0  1  0  0  0  0  0  0  0  0  0
    9.5066  -18.1164   25.8228 N   0  0  0  0  0  0  0  0  0  0  0  0
    9.0977  -17.0133   24.9762 C   0  0  0  0  0  0  0  0  0  0  0  0
    9.9546  -17.6650   27.1762 O   0  0  0  0  0  0  0  0  0  0  0  0
   10.0855  -16.4972   27.5404 O   0  0  0  0  0  0  0  0  0  0  0  0
  2  1  1  0
  2  3  2  0
  4  2  1  0
  5  4  1  0
  6  5  1  0
  7  6  1  0
  7  8  1  0
  8  9  1  1
 10  8  1  0
 10 17  1  0
 11 10  2  0
 13 12  1  0
 14 13  1  0
 16 15  1  6
 15 14  1  0
 16 17  1  0
 18 16  1  0
 19 18  2  0
 21 20  1  6
 21 23  1  0
 21 22  1  0
 22 18  1  0
 23 25  1  0
 24 23  2  0
M  END
$$$$
