RMA.pdb
     RDKit          3D

 25 24  0  0  1  0  0  0  0  0999 V2000
    9.9069  -14.1032   17.1061 N   0  0  0  0  0  0  0  0  0  0  0  0
   10.1696  -13.0259   18.0150 C   0  0  0  0  0  0  0  0  0  0  0  0
   11.3485  -12.5340   18.0495 N   0  0  0  0  0  0  0  0  0  0  0  0
    9.1544  -12.5142   18.8584 N   0  0  0  0  0  0  0  0  0  0  0  0
    7.8619  -13.0974   18.9973 C   0  0  0  0  0  0  0  0  0  0  0  0
    7.8498  -14.3857   19.7483 C   0  0  0  0  0  0  0  0  0  0  0  0
    8.4210  -14.3429   21.1233 C   0  0  0  0  0  0  0  0  0  0  0  0
    8.5027  -15.6486   21.8390 C   0  0  2  0  0  0  0  0  0  0  0  0
    7.4079  -16.5326   21.6140 N   0  0  0  0  0  0  0  0  0  0  0  0
    8.7827  -15.4040   23.2756 C   0  0  0  0  0  0  0  0  0  0  0  0
    9.7587  -14.7030   23.6051 O   0  0  0  0  0  0  0  0  0  0  0  0
   11.5729  -11.7679   18.6957 C   0  0  0  0  0  0  0  0  0  0  0  0
    6.4484  -10.9502   26.4529 S   0  0  0  0  0  0  0  0  0  0  0  0
    7.2430  -12.5570   26.8274 C   0  0  0  0  0  0  0  0  0  0  0  0
    6.3303  -13.9018   25.9837 C   0  0  0  0  0  0  0  0  0  0  0  0
    6.8936  -15.2314   26.3325 C   0  0  2  0  0  0  0  0  0  0  0  0
    8.2072  -15.5457   25.6922 N   0  0  0  0  0  0  0  0  0  0  0  0
    7.9675  -15.9477   24.2899 C   0  0  0  0  0  0  0  0  0  0  0  0
    8.8603  -16.7125   26.3558 O   0  0  0  0  0  0  0  0  0  0  0  0
    9.1054  -16.6588   27.6174 C   0  0  0  0  0  0  0  0  0  0  0  0
    9.9468  -20.2740   25.6977 C   0  0  2  0  0  0  0  0  0  0  0  0
    9.9917  -18.9341   26.3799 N   0  0  0  0  0  0  0  0  0  0  0  0
    9.2376  -17.9047   25.6925 C   0  0  0  0  0  0  0  0  0  0  0  0
   11.4211  -18.5510   26.5943 O   0  0  0  0  0  0  0  0  0  0  0  0
   11.9646  -17.5293   26.1768 O   0  0  0  0  0  0  0  0  0  0  0  0
  2  1  1  0
  2  3  2  0
  4  2  1  0
  5  4  1  0
  6  5  1  0
  7  6  1  0
  7  8  1  0
  8  9  1  1
 10  8  1  0
 10 17  1  0
 11 10  2  0
 13 12  1  0
 14 13  1  0
 16 15  1  6
 15 14  1  0
 16 17  1  0
 18 16  1  0
 19 18  2  0
 21 20  1  1
 21 23  1  0
 21 22  1  0
 22 18  1  0
 23 25  1  0
 24 23  2  0
M  END
$$$$
