RMA.pdb
     RDKit          3D

 25 24  0  0  1  0  0  0  0  0999 V2000
    7.3122  -14.6609   14.2906 N   0  0  0  0  0  0  0  0  0  0  0  0
    7.9618  -14.4750   15.5552 C   0  0  0  0  0  0  0  0  0  0  0  0
    7.9307  -13.3147   16.0895 N   0  0  0  0  0  0  0  0  0  0  0  0
    8.6251  -15.5448   16.2028 N   0  0  0  0  0  0  0  0  0  0  0  0
    9.1322  -15.4825   17.5328 C   0  0  0  0  0  0  0  0  0  0  0  0
    8.1000  -15.6800   18.5908 C   0  0  0  0  0  0  0  0  0  0  0  0
    8.5859  -15.6032   19.9967 C   0  0  0  0  0  0  0  0  0  0  0  0
    7.8958  -14.6148   20.8747 C   0  0  2  0  0  0  0  0  0  0  0  0
    7.7130  -13.3217   20.3046 N   0  0  0  0  0  0  0  0  0  0  0  0
    8.5592  -14.5901   22.2018 C   0  0  0  0  0  0  0  0  0  0  0  0
    9.7056  -14.1144   22.3116 O   0  0  0  0  0  0  0  0  0  0  0  0
    8.3959  -13.1444   16.9890 C   0  0  0  0  0  0  0  0  0  0  0  0
    8.0567  -12.0622   28.0273 S   0  0  0  0  0  0  0  0  0  0  0  0
    6.7592  -11.8790   26.7481 C   0  0  0  0  0  0  0  0  0  0  0  0
    7.2415  -12.8147   25.2497 C   0  0  0  0  0  0  0  0  0  0  0  0
    7.5607  -14.2273   25.5808 C   0  0  2  0  0  0  0  0  0  0  0  0
    8.5552  -14.8768   24.6734 N   0  0  0  0  0  0  0  0  0  0  0  0
    7.9231  -15.0948   23.3549 C   0  0  0  0  0  0  0  0  0  0  0  0
    8.9405  -16.2269   25.1807 O   0  0  0  0  0  0  0  0  0  0  0  0
    8.0193  -17.0931   25.4169 C   0  0  0  0  0  0  0  0  0  0  0  0
   11.9299  -18.4729   25.5467 C   0  0  2  0  0  0  0  0  0  0  0  0
   10.5586  -17.9759   25.9145 N   0  0  0  0  0  0  0  0  0  0  0  0
   10.2714  -16.6422   25.4250 C   0  0  0  0  0  0  0  0  0  0  0  0
   10.3858  -18.0927   27.3952 O   0  0  0  0  0  0  0  0  0  0  0  0
   10.1016  -17.1743   28.1630 O   0  0  0  0  0  0  0  0  0  0  0  0
  2  1  1  0
  2  3  2  0
  4  2  1  0
  5  4  1  0
  6  5  1  0
  7  6  1  0
  7  8  1  0
  8  9  1  6
 10  8  1  0
 10 17  1  0
 11 10  2  0
 13 12  1  0
 14 13  1  0
 16 15  1  6
 15 14  1  0
 16 17  1  0
 18 16  1  0
 19 18  2  0
 21 20  1  6
 21 23  1  0
 21 22  1  0
 22 18  1  0
 23 25  1  0
 24 23  2  0
M  END
$$$$
