RMA.pdb
     RDKit          3D

 25 24  0  0  1  0  0  0  0  0999 V2000
    7.8202  -15.4155   14.9511 N   0  0  0  0  0  0  0  0  0  0  0  0
    8.4778  -14.1959   15.3197 C   0  0  0  0  0  0  0  0  0  0  0  0
    8.4241  -13.2083   14.5106 N   0  0  0  0  0  0  0  0  0  0  0  0
    9.1731  -14.0800   16.5472 N   0  0  0  0  0  0  0  0  0  0  0  0
    8.7812  -14.7317   17.7521 C   0  0  0  0  0  0  0  0  0  0  0  0
    7.6956  -14.0340   18.4995 C   0  0  0  0  0  0  0  0  0  0  0  0
    7.8973  -13.9037   19.9695 C   0  0  0  0  0  0  0  0  0  0  0  0
    8.4329  -15.1086   20.6660 C   0  0  2  0  0  0  0  0  0  0  0  0
    7.5951  -16.2602   20.6157 N   0  0  0  0  0  0  0  0  0  0  0  0
    8.8483  -14.7363   22.0411 C   0  0  0  0  0  0  0  0  0  0  0  0
    9.7350  -13.8770   22.2082 O   0  0  0  0  0  0  0  0  0  0  0  0
    8.8859  -12.3209   14.7429 C   0  0  0  0  0  0  0  0  0  0  0  0
    6.2770  -11.3637   26.1843 S   0  0  0  0  0  0  0  0  0  0  0  0
    6.6108  -12.7643   27.3158 C   0  0  0  0  0  0  0  0  0  0  0  0
    7.9426  -13.8098   26.6183 C   0  0  0  0  0  0  0  0  0  0  0  0
    7.6504  -14.1789   25.2093 C   0  0  1  0  0  0  0  0  0  0  0  0
    8.7384  -14.9363   24.5188 N   0  0  0  0  0  0  0  0  0  0  0  0
    8.2624  -15.3331   23.1766 C   0  0  0  0  0  0  0  0  0  0  0  0
    9.0508  -16.2037   25.2431 O   0  0  0  0  0  0  0  0  0  0  0  0
    8.1583  -17.1284   25.3003 C   0  0  0  0  0  0  0  0  0  0  0  0
   11.9619  -18.1019   26.6968 C   0  0  2  0  0  0  0  0  0  0  0  0
   10.5078  -17.7431   26.5558 N   0  0  0  0  0  0  0  0  0  0  0  0
   10.2822  -16.4784   25.8847 C   0  0  0  0  0  0  0  0  0  0  0  0
    9.8656  -17.7988   27.9051 O   0  0  0  0  0  0  0  0  0  0  0  0
    9.2648  -16.8776   28.4566 O   0  0  0  0  0  0  0  0  0  0  0  0
  2  1  1  0
  2  3  2  0
  4  2  1  0
  5  4  1  0
  6  5  1  0
  7  6  1  0
  7  8  1  0
  8  9  1  1
 10  8  1  0
 10 17  1  0
 11 10  2  0
 13 12  1  0
 14 13  1  0
 16 15  1  6
 15 14  1  0
 16 17  1  0
 18 16  1  0
 19 18  2  0
 21 20  1  6
 21 23  1  0
 21 22  1  0
 22 18  1  0
 23 25  1  0
 24 23  2  0
M  END
$$$$
