RMA.pdb
     RDKit          3D

 25 24  0  0  1  0  0  0  0  0999 V2000
   10.2276  -13.3866   20.0445 N   0  0  0  0  0  0  0  0  0  0  0  0
    9.1465  -12.8192   19.2927 C   0  0  0  0  0  0  0  0  0  0  0  0
    9.1374  -11.5560   19.1006 N   0  0  0  0  0  0  0  0  0  0  0  0
    8.1096  -13.6309   18.7733 N   0  0  0  0  0  0  0  0  0  0  0  0
    7.2007  -14.3776   19.5772 C   0  0  0  0  0  0  0  0  0  0  0  0
    7.2768  -15.8533   19.3764 C   0  0  0  0  0  0  0  0  0  0  0  0
    8.4423  -16.5364   20.0037 C   0  0  0  0  0  0  0  0  0  0  0  0
    8.1650  -17.2739   21.2698 C   0  0  2  0  0  0  0  0  0  0  0  0
    6.8330  -17.7609   21.4082 N   0  0  0  0  0  0  0  0  0  0  0  0
    8.6219  -16.4588   22.4226 C   0  0  0  0  0  0  0  0  0  0  0  0
    9.7932  -16.0349   22.4550 O   0  0  0  0  0  0  0  0  0  0  0  0
    8.4058  -11.1236   18.5240 C   0  0  0  0  0  0  0  0  0  0  0  0
    6.5787  -11.1622   25.9927 S   0  0  0  0  0  0  0  0  0  0  0  0
    6.3151  -12.6724   26.9944 C   0  0  0  0  0  0  0  0  0  0  0  0
    7.5688  -13.9297   26.5464 C   0  0  0  0  0  0  0  0  0  0  0  0
    7.1990  -14.6297   25.2893 C   0  0  1  0  0  0  0  0  0  0  0  0
    8.3028  -15.4161   24.6591 N   0  0  0  0  0  0  0  0  0  0  0  0
    7.7598  -16.1466   23.4942 C   0  0  0  0  0  0  0  0  0  0  0  0
    8.8238  -16.4538   25.5974 O   0  0  0  0  0  0  0  0  0  0  0  0
    8.0620  -17.4352   25.9309 C   0  0  0  0  0  0  0  0  0  0  0  0
   11.9144  -18.0494   26.7401 C   0  0  2  0  0  0  0  0  0  0  0  0
   10.5512  -17.4993   27.0597 N   0  0  0  0  0  0  0  0  0  0  0  0
   10.1223  -16.4465   26.1607 C   0  0  0  0  0  0  0  0  0  0  0  0
   10.5281  -17.0741   28.4932 O   0  0  0  0  0  0  0  0  0  0  0  0
   10.2025  -15.9637   28.9110 O   0  0  0  0  0  0  0  0  0  0  0  0
  2  1  1  0
  2  3  2  0
  4  2  1  0
  5  4  1  0
  6  5  1  0
  7  6  1  0
  7  8  1  0
  8  9  1  1
 10  8  1  0
 10 17  1  0
 11 10  2  0
 13 12  1  0
 14 13  1  0
 16 15  1  6
 15 14  1  0
 16 17  1  0
 18 16  1  0
 19 18  2  0
 21 20  1  6
 21 23  1  0
 21 22  1  0
 22 18  1  0
 23 25  1  0
 24 23  2  0
M  END
$$$$
