RMA.pdb
     RDKit          3D

 25 24  0  0  1  0  0  0  0  0999 V2000
    9.5992  -14.8164   17.0588 N   0  0  0  0  0  0  0  0  0  0  0  0
    8.5433  -13.9484   16.6260 C   0  0  0  0  0  0  0  0  0  0  0  0
    8.1370  -14.0415   15.4181 N   0  0  0  0  0  0  0  0  0  0  0  0
    7.9601  -13.0072   17.5080 N   0  0  0  0  0  0  0  0  0  0  0  0
    8.2945  -12.8918   18.8882 C   0  0  0  0  0  0  0  0  0  0  0  0
    8.0472  -14.1291   19.6829 C   0  0  0  0  0  0  0  0  0  0  0  0
    9.0344  -14.4190   20.7600 C   0  0  0  0  0  0  0  0  0  0  0  0
    8.7199  -15.5806   21.6407 C   0  0  2  0  0  0  0  0  0  0  0  0
    7.4450  -16.1787   21.4228 N   0  0  0  0  0  0  0  0  0  0  0  0
    8.9652  -15.2046   23.0551 C   0  0  0  0  0  0  0  0  0  0  0  0
   10.0495  -14.6818   23.3771 O   0  0  0  0  0  0  0  0  0  0  0  0
    7.4203  -13.3989   15.0602 C   0  0  0  0  0  0  0  0  0  0  0  0
    6.9433  -11.2365   27.5758 S   0  0  0  0  0  0  0  0  0  0  0  0
    5.8773  -11.7623   26.1827 C   0  0  0  0  0  0  0  0  0  0  0  0
    6.7727  -12.9858   25.1557 C   0  0  0  0  0  0  0  0  0  0  0  0
    7.1045  -14.2026   25.9407 C   0  0  2  0  0  0  0  0  0  0  0  0
    8.2802  -14.9754   25.4361 N   0  0  0  0  0  0  0  0  0  0  0  0
    7.9965  -15.4239   24.0563 C   0  0  0  0  0  0  0  0  0  0  0  0
    8.4927  -16.2135   26.2427 O   0  0  0  0  0  0  0  0  0  0  0  0
    8.7375  -16.1066   27.5010 C   0  0  0  0  0  0  0  0  0  0  0  0
    7.9903  -19.9208   26.1592 C   0  0  2  0  0  0  0  0  0  0  0  0
    8.7315  -18.6748   26.5605 N   0  0  0  0  0  0  0  0  0  0  0  0
    8.4414  -17.5287   25.7219 C   0  0  0  0  0  0  0  0  0  0  0  0
   10.1932  -18.9839   26.6234 O   0  0  0  0  0  0  0  0  0  0  0  0
   11.0827  -18.3913   26.0141 O   0  0  0  0  0  0  0  0  0  0  0  0
  2  1  1  0
  2  3  2  0
  4  2  1  0
  5  4  1  0
  6  5  1  0
  7  6  1  0
  7  8  1  0
  8  9  1  1
 10  8  1  0
 10 17  1  0
 11 10  2  0
 13 12  1  0
 14 13  1  0
 16 15  1  6
 15 14  1  0
 16 17  1  0
 18 16  1  0
 19 18  2  0
 21 20  1  1
 21 23  1  0
 21 22  1  0
 22 18  1  0
 23 25  1  0
 24 23  2  0
M  END
$$$$
