RMA.pdb
     RDKit          3D

 25 24  0  0  1  0  0  0  0  0999 V2000
    7.1400  -12.3420   14.6987 N   0  0  0  0  0  0  0  0  0  0  0  0
    7.9159  -13.5434   14.5973 C   0  0  0  0  0  0  0  0  0  0  0  0
    8.1614  -14.0115   13.4339 N   0  0  0  0  0  0  0  0  0  0  0  0
    8.4012  -14.2023   15.7523 N   0  0  0  0  0  0  0  0  0  0  0  0
    8.0854  -13.8133   17.0861 C   0  0  0  0  0  0  0  0  0  0  0  0
    8.7164  -14.6630   18.1366 C   0  0  0  0  0  0  0  0  0  0  0  0
    8.2285  -14.4481   19.5275 C   0  0  0  0  0  0  0  0  0  0  0  0
    8.3795  -15.6023   20.4597 C   0  0  2  0  0  0  0  0  0  0  0  0
    7.2965  -16.5284   20.4580 N   0  0  0  0  0  0  0  0  0  0  0  0
    8.7280  -15.0989   21.8114 C   0  0  0  0  0  0  0  0  0  0  0  0
    9.5976  -14.2154   21.9373 O   0  0  0  0  0  0  0  0  0  0  0  0
    8.7913  -14.8145   13.3195 C   0  0  0  0  0  0  0  0  0  0  0  0
    7.6271  -10.9126   26.4915 S   0  0  0  0  0  0  0  0  0  0  0  0
    6.6033  -12.4187   26.6843 C   0  0  0  0  0  0  0  0  0  0  0  0
    7.6156  -13.8981   26.3099 C   0  0  0  0  0  0  0  0  0  0  0  0
    7.3688  -14.3789   24.9261 C   0  0  1  0  0  0  0  0  0  0  0  0
    8.5221  -15.0864   24.2910 N   0  0  0  0  0  0  0  0  0  0  0  0
    8.0969  -15.5965   22.9702 C   0  0  0  0  0  0  0  0  0  0  0  0
    8.9233  -16.2812   25.0911 O   0  0  0  0  0  0  0  0  0  0  0  0
    8.0646  -17.2181   25.2905 C   0  0  0  0  0  0  0  0  0  0  0  0
   11.8975  -18.2171   26.1183 C   0  0  2  0  0  0  0  0  0  0  0  0
   10.5213  -17.6784   26.3987 N   0  0  0  0  0  0  0  0  0  0  0  0
   10.2056  -16.4727   25.6590 C   0  0  0  0  0  0  0  0  0  0  0  0
   10.3654  -17.5024   27.8755 O   0  0  0  0  0  0  0  0  0  0  0  0
   10.1157  -16.4455   28.4536 O   0  0  0  0  0  0  0  0  0  0  0  0
  2  1  1  0
  2  3  2  0
  4  2  1  0
  5  4  1  0
  6  5  1  0
  7  6  1  0
  7  8  1  0
  8  9  1  1
 10  8  1  0
 10 17  1  0
 11 10  2  0
 13 12  1  0
 14 13  1  0
 16 15  1  6
 15 14  1  0
 16 17  1  0
 18 16  1  0
 19 18  2  0
 21 20  1  6
 21 23  1  0
 21 22  1  0
 22 18  1  0
 23 25  1  0
 24 23  2  0
M  END
$$$$
