RMA.pdb
     RDKit          3D

 25 24  0  0  1  0  0  0  0  0999 V2000
    7.3178  -13.0592   16.0037 N   0  0  0  0  0  0  0  0  0  0  0  0
    7.8507  -14.1869   16.7109 C   0  0  0  0  0  0  0  0  0  0  0  0
    9.0831  -14.4811   16.5447 N   0  0  0  0  0  0  0  0  0  0  0  0
    7.0386  -14.9619   17.5731 N   0  0  0  0  0  0  0  0  0  0  0  0
    7.5254  -16.0241   18.3885 C   0  0  0  0  0  0  0  0  0  0  0  0
    8.8280  -15.7360   19.0548 C   0  0  0  0  0  0  0  0  0  0  0  0
    8.8057  -15.7096   20.5439 C   0  0  0  0  0  0  0  0  0  0  0  0
   10.1193  -15.4888   21.2144 C   0  0  2  0  0  0  0  0  0  0  0  0
   11.1965  -16.2739   20.7105 N   0  0  0  0  0  0  0  0  0  0  0  0
    9.9441  -15.5952   22.6841 C   0  0  0  0  0  0  0  0  0  0  0  0
   10.7244  -16.3019   23.3506 O   0  0  0  0  0  0  0  0  0  0  0  0
    9.4939  -15.2890   17.0276 C   0  0  0  0  0  0  0  0  0  0  0  0
    6.5662  -11.0242   26.0029 S   0  0  0  0  0  0  0  0  0  0  0  0
    6.4857  -12.4421   27.1591 C   0  0  0  0  0  0  0  0  0  0  0  0
    7.7976  -13.6487   26.7391 C   0  0  0  0  0  0  0  0  0  0  0  0
    7.8585  -13.8842   25.2736 C   0  0  1  0  0  0  0  0  0  0  0  0
    9.0084  -14.7239   24.8187 N   0  0  0  0  0  0  0  0  0  0  0  0
    8.9089  -14.9123   23.3558 C   0  0  0  0  0  0  0  0  0  0  0  0
    8.9459  -16.0884   25.4211 O   0  0  0  0  0  0  0  0  0  0  0  0
    7.8954  -16.8072   25.2351 C   0  0  0  0  0  0  0  0  0  0  0  0
   10.9619  -18.9120   26.5484 C   0  0  2  0  0  0  0  0  0  0  0  0
    9.8091  -17.9785   26.7986 N   0  0  0  0  0  0  0  0  0  0  0  0
    9.9768  -16.6708   26.1965 C   0  0  0  0  0  0  0  0  0  0  0  0
    9.5615  -17.9041   28.2715 O   0  0  0  0  0  0  0  0  0  0  0  0
    9.4924  -16.8737   28.9402 O   0  0  0  0  0  0  0  0  0  0  0  0
  2  1  1  0
  2  3  2  0
  4  2  1  0
  5  4  1  0
  6  5  1  0
  7  6  1  0
  7  8  1  0
  8  9  1  6
 10  8  1  0
 10 17  1  0
 11 10  2  0
 13 12  1  0
 14 13  1  0
 16 15  1  6
 15 14  1  0
 16 17  1  0
 18 16  1  0
 19 18  2  0
 21 20  1  6
 21 23  1  0
 21 22  1  0
 22 18  1  0
 23 25  1  0
 24 23  2  0
M  END
$$$$
