RMA.pdb
     RDKit          3D

 25 24  0  0  1  0  0  0  0  0999 V2000
    9.6484  -14.7159   18.1647 N   0  0  0  0  0  0  0  0  0  0  0  0
    8.7418  -13.7288   18.6741 C   0  0  0  0  0  0  0  0  0  0  0  0
    8.3756  -12.7821   17.8978 N   0  0  0  0  0  0  0  0  0  0  0  0
    8.2601  -13.7925   20.0036 N   0  0  0  0  0  0  0  0  0  0  0  0
    7.9553  -15.0058   20.6856 C   0  0  0  0  0  0  0  0  0  0  0  0
    6.5458  -15.4635   20.5191 C   0  0  0  0  0  0  0  0  0  0  0  0
    6.1320  -16.6175   21.3651 C   0  0  0  0  0  0  0  0  0  0  0  0
    7.2299  -17.3384   22.0712 C   0  0  2  0  0  0  0  0  0  0  0  0
    7.2870  -18.7416   21.8299 N   0  0  0  0  0  0  0  0  0  0  0  0
    7.2020  -16.9844   23.5121 C   0  0  0  0  0  0  0  0  0  0  0  0
    6.2177  -17.3003   24.2077 O   0  0  0  0  0  0  0  0  0  0  0  0
    7.8019  -12.0093   18.2559 C   0  0  0  0  0  0  0  0  0  0  0  0
   11.1079  -14.5453   29.9277 S   0  0  0  0  0  0  0  0  0  0  0  0
   11.1000  -15.4116   28.3143 C   0  0  0  0  0  0  0  0  0  0  0  0
    9.4170  -15.3498   27.5954 C   0  0  0  0  0  0  0  0  0  0  0  0
    9.3966  -15.9351   26.2302 C   0  0  1  0  0  0  0  0  0  0  0  0
    8.0979  -15.7925   25.5040 N   0  0  0  0  0  0  0  0  0  0  0  0
    8.2686  -16.2936   24.1236 C   0  0  0  0  0  0  0  0  0  0  0  0
    7.7079  -14.3567   25.3822 O   0  0  0  0  0  0  0  0  0  0  0  0
    8.3538  -13.5995   24.5673 C   0  0  0  0  0  0  0  0  0  0  0  0
    5.0827  -11.8840   26.5203 C   0  0  2  0  0  0  0  0  0  0  0  0
    6.4471  -12.3138   26.0549 N   0  0  0  0  0  0  0  0  0  0  0  0
    6.6556  -13.7472   26.1065 C   0  0  0  0  0  0  0  0  0  0  0  0
    7.4795  -11.5560   26.8269 O   0  0  0  0  0  0  0  0  0  0  0  0
    8.3027  -12.0427   27.6009 O   0  0  0  0  0  0  0  0  0  0  0  0
  2  1  1  0
  2  3  2  0
  4  2  1  0
  5  4  1  0
  6  5  1  0
  7  6  1  0
  7  8  1  0
  8  9  1  1
 10  8  1  0
 10 17  1  0
 11 10  2  0
 13 12  1  0
 14 13  1  0
 16 15  1  1
 15 14  1  0
 16 17  1  0
 18 16  1  0
 19 18  2  0
 21 20  1  6
 21 23  1  0
 21 22  1  0
 22 18  1  0
 23 25  1  0
 24 23  2  0
M  END
$$$$
