RMA.pdb
     RDKit          3D

 25 24  0  0  1  0  0  0  0  0999 V2000
    8.8656  -12.7533   16.5229 N   0  0  0  0  0  0  0  0  0  0  0  0
    8.0629  -13.8935   16.1892 C   0  0  0  0  0  0  0  0  0  0  0  0
    8.2753  -14.4806   15.0742 N   0  0  0  0  0  0  0  0  0  0  0  0
    7.0565  -14.3636   17.0666 N   0  0  0  0  0  0  0  0  0  0  0  0
    7.2906  -14.7469   18.4187 C   0  0  0  0  0  0  0  0  0  0  0  0
    8.4270  -14.0329   19.0688 C   0  0  0  0  0  0  0  0  0  0  0  0
    8.3642  -13.9248   20.5531 C   0  0  0  0  0  0  0  0  0  0  0  0
    8.6414  -15.1776   21.3129 C   0  0  2  0  0  0  0  0  0  0  0  0
    7.6276  -16.1754   21.2271 N   0  0  0  0  0  0  0  0  0  0  0  0
    9.0190  -14.8333   22.7060 C   0  0  0  0  0  0  0  0  0  0  0  0
    9.9961  -14.0892   22.9162 O   0  0  0  0  0  0  0  0  0  0  0  0
    7.6872  -15.2705   14.7829 C   0  0  0  0  0  0  0  0  0  0  0  0
    6.5732  -10.9987   27.3075 S   0  0  0  0  0  0  0  0  0  0  0  0
    5.7413  -12.3347   26.3711 C   0  0  0  0  0  0  0  0  0  0  0  0
    6.9483  -13.1428   25.2560 C   0  0  0  0  0  0  0  0  0  0  0  0
    7.5290  -14.3566   25.8857 C   0  0  2  0  0  0  0  0  0  0  0  0
    8.7108  -14.9307   25.1731 N   0  0  0  0  0  0  0  0  0  0  0  0
    8.2963  -15.3288   23.8110 C   0  0  0  0  0  0  0  0  0  0  0  0
    9.1882  -16.1752   25.8452 O   0  0  0  0  0  0  0  0  0  0  0  0
    9.3645  -16.1703   27.1195 C   0  0  0  0  0  0  0  0  0  0  0  0
    9.8270  -19.8383   25.1478 C   0  0  2  0  0  0  0  0  0  0  0  0
    9.9645  -18.5438   25.9016 N   0  0  0  0  0  0  0  0  0  0  0  0
    9.4657  -17.3917   25.1771 C   0  0  0  0  0  0  0  0  0  0  0  0
   11.3898  -18.3823   26.3241 O   0  0  0  0  0  0  0  0  0  0  0  0
   12.1439  -17.4712   25.9852 O   0  0  0  0  0  0  0  0  0  0  0  0
  2  1  1  0
  2  3  2  0
  4  2  1  0
  5  4  1  0
  6  5  1  0
  7  6  1  0
  7  8  1  0
  8  9  1  1
 10  8  1  0
 10 17  1  0
 11 10  2  0
 13 12  1  0
 14 13  1  0
 16 15  1  6
 15 14  1  0
 16 17  1  0
 18 16  1  0
 19 18  2  0
 21 20  1  1
 21 23  1  0
 21 22  1  0
 22 18  1  0
 23 25  1  0
 24 23  2  0
M  END
$$$$
