RMA.pdb
     RDKit          3D

 25 24  0  0  1  0  0  0  0  0999 V2000
    9.9710  -14.6493   15.8318 N   0  0  0  0  0  0  0  0  0  0  0  0
    8.5879  -15.0213   15.8983 C   0  0  0  0  0  0  0  0  0  0  0  0
    8.0133  -15.4177   14.8280 N   0  0  0  0  0  0  0  0  0  0  0  0
    7.8681  -14.9530   17.1153 N   0  0  0  0  0  0  0  0  0  0  0  0
    7.4228  -13.7387   17.7131 C   0  0  0  0  0  0  0  0  0  0  0  0
    8.4793  -13.0051   18.4676 C   0  0  0  0  0  0  0  0  0  0  0  0
    8.3323  -12.9947   19.9498 C   0  0  0  0  0  0  0  0  0  0  0  0
    8.6218  -14.2817   20.6453 C   0  0  2  0  0  0  0  0  0  0  0  0
    7.7195  -15.3451   20.3528 N   0  0  0  0  0  0  0  0  0  0  0  0
    8.7891  -14.0277   22.0978 C   0  0  0  0  0  0  0  0  0  0  0  0
    9.6269  -13.1915   22.4871 O   0  0  0  0  0  0  0  0  0  0  0  0
    8.5389  -15.4769   13.9477 C   0  0  0  0  0  0  0  0  0  0  0  0
    6.7256  -11.4124   28.2146 S   0  0  0  0  0  0  0  0  0  0  0  0
    7.3204  -12.1526   26.6487 C   0  0  0  0  0  0  0  0  0  0  0  0
    6.5693  -13.8085   26.4313 C   0  0  0  0  0  0  0  0  0  0  0  0
    6.6810  -14.2657   25.0222 C   0  0  2  0  0  0  0  0  0  0  0  0
    8.0691  -14.2621   24.4679 N   0  0  0  0  0  0  0  0  0  0  0  0
    8.0193  -14.7125   23.0607 C   0  0  0  0  0  0  0  0  0  0  0  0
    8.9359  -15.2402   25.1894 O   0  0  0  0  0  0  0  0  0  0  0  0
    8.9951  -15.1959   26.4737 C   0  0  0  0  0  0  0  0  0  0  0  0
    9.7052  -18.3379   25.8683 C   0  0  2  0  0  0  0  0  0  0  0  0
   10.4999  -17.1761   25.3378 N   0  0  0  0  0  0  0  0  0  0  0  0
    9.7143  -16.2400   24.5585 C   0  0  0  0  0  0  0  0  0  0  0  0
   11.6779  -17.7038   24.5828 O   0  0  0  0  0  0  0  0  0  0  0  0
   12.5238  -18.4836   25.0187 O   0  0  0  0  0  0  0  0  0  0  0  0
  2  1  1  0
  2  3  2  0
  4  2  1  0
  5  4  1  0
  6  5  1  0
  7  6  1  0
  7  8  1  0
  8  9  1  1
 10  8  1  0
 10 17  1  0
 11 10  2  0
 13 12  1  0
 14 13  1  0
 16 15  1  6
 15 14  1  0
 16 17  1  0
 18 16  1  0
 19 18  2  0
 21 20  1  1
 21 23  1  0
 21 22  1  0
 22 18  1  0
 23 25  1  0
 24 23  2  0
M  END
$$$$
