IRN.pdb
     RDKit          3D

 28 27  0  0  1  0  0  0  0  0999 V2000
   10.0975   -8.7983   -8.3175 C   0  0  0  0  0  0  0  0  0  0  0  0
   10.9743   -9.6661   -9.1548 C   0  0  0  0  0  0  0  0  0  0  0  0
   12.4022   -9.1825   -9.0775 C   0  0  2  0  0  0  0  0  0  0  0  0
   12.4910   -7.7462   -9.5390 C   0  0  0  0  0  0  0  0  0  0  0  0
   13.3373  -10.0686   -9.8732 C   0  0  2  0  0  0  0  0  0  0  0  0
   13.4425  -11.3913   -9.3398 N   0  0  0  0  0  0  0  0  0  0  0  0
   14.7000   -9.4291   -9.9733 C   0  0  0  0  0  0  0  0  0  0  0  0
   15.4752   -9.4608   -8.9861 O   0  0  0  0  0  0  0  0  0  0  0  0
   22.2758   -9.6020  -14.0199 N   0  0  0  0  0  0  0  0  0  0  0  0
   21.9059   -8.7133  -12.9920 C   0  0  0  0  0  0  0  0  0  0  0  0
   22.6654   -8.4696  -11.9759 N   0  0  0  0  0  0  0  0  0  0  0  0
   20.6311   -8.0520  -13.0791 N   0  0  0  0  0  0  0  0  0  0  0  0
   19.3848   -8.7534  -12.8241 C   0  0  0  0  0  0  0  0  0  0  0  0
   18.2139   -7.8302  -13.1144 C   0  0  0  0  0  0  0  0  0  0  0  0
   16.9203   -8.4908  -12.7437 C   0  0  0  0  0  0  0  0  0  0  0  0
   16.4664   -8.2132  -11.3507 C   0  0  2  0  0  0  0  0  0  0  0  0
   15.1082   -8.7972  -11.1657 N   0  0  0  0  0  0  0  0  0  0  0  0
   16.3754   -6.8080  -10.9532 C   0  0  0  0  0  0  0  0  0  0  0  0
   15.4131   -6.1092  -11.4431 O   0  0  0  0  0  0  0  0  0  0  0  0
   22.3196   -7.8498  -11.2197 N   0  0  0  0  0  0  0  0  0  0  0  0
   16.3428   -2.4359   -7.5106 C   0  0  0  0  0  0  0  0  0  0  0  0
   17.4889   -2.9123   -8.2045 O   0  0  0  0  0  0  0  0  0  0  0  0
   18.3828   -2.1374   -8.6314 C   0  0  0  0  0  0  0  0  0  0  0  0
   17.6823   -4.3628   -8.4582 C   0  0  1  0  0  0  0  0  0  0  0  0
   17.0014   -4.7014   -9.7708 N   0  0  0  0  0  0  0  0  0  0  0  0
   17.2193   -6.1024  -10.0817 C   0  0  0  0  0  0  0  0  0  0  0  0
   17.5447   -3.8769  -10.8611 O   0  0  0  0  0  0  0  0  0  0  0  0
   18.7322   -4.1984  -11.5112 O   0  0  0  0  0  0  0  0  0  0  0  0
  2  1  1  0
  2  3  1  0
  3  4  1  6
  5  6  1  1
  5  3  1  0
  7  8  2  0
  7  5  1  0
 10  9  1  0
 11 10  2  0
 12 10  1  0
 13 12  1  0
 13 14  1  0
 14 15  1  0
 16 15  1  6
 16 17  1  0
 17  7  1  0
 18 16  1  0
 18 19  2  0
 20 21  1  0
 21 22  2  0
 21 23  1  0
 24 25  1  0
 24 23  1  1
 25 18  1  0
 26 24  1  0
 27 26  1  0
 28 26  2  0
M  END
$$$$
