IRN.pdb
     RDKit          3D

 28 27  0  0  1  0  0  0  0  0999 V2000
   16.7269  -27.5372   -8.5111 C   0  0  0  0  0  0  0  0  0  0  0  0
   17.6523  -26.6991   -7.6962 C   0  0  0  0  0  0  0  0  0  0  0  0
   17.9003  -25.3818   -8.3906 C   0  0  2  0  0  0  0  0  0  0  0  0
   18.4589  -25.6201   -9.7745 C   0  0  0  0  0  0  0  0  0  0  0  0
   18.8141  -24.4857   -7.5816 C   0  0  2  0  0  0  0  0  0  0  0  0
   18.2959  -24.1858   -6.2829 N   0  0  0  0  0  0  0  0  0  0  0  0
   19.1025  -23.2150   -8.3420 C   0  0  0  0  0  0  0  0  0  0  0  0
   18.1783  -22.3902   -8.5469 O   0  0  0  0  0  0  0  0  0  0  0  0
   23.3144  -22.1934  -12.9159 N   0  0  0  0  0  0  0  0  0  0  0  0
   24.6162  -21.7358  -12.6348 C   0  0  0  0  0  0  0  0  0  0  0  0
   25.6745  -22.3565  -13.0390 N   0  0  0  0  0  0  0  0  0  0  0  0
   24.7712  -20.5292  -11.8665 N   0  0  0  0  0  0  0  0  0  0  0  0
   24.2092  -20.3916  -10.5340 C   0  0  0  0  0  0  0  0  0  0  0  0
   22.6969  -20.5153  -10.6055 C   0  0  0  0  0  0  0  0  0  0  0  0
   22.2126  -21.5808   -9.6688 C   0  0  0  0  0  0  0  0  0  0  0  0
   20.7311  -21.7486   -9.6431 C   0  0  2  0  0  0  0  0  0  0  0  0
   20.4005  -22.9480   -8.8233 N   0  0  0  0  0  0  0  0  0  0  0  0
   20.0640  -21.9265  -10.9331 C   0  0  0  0  0  0  0  0  0  0  0  0
   20.1074  -23.0932  -11.4727 O   0  0  0  0  0  0  0  0  0  0  0  0
   26.6075  -22.0246  -12.7308 N   0  0  0  0  0  0  0  0  0  0  0  0
   15.3615  -21.6101  -14.2384 C   0  0  0  0  0  0  0  0  0  0  0  0
   16.6061  -20.9266  -14.1622 O   0  0  0  0  0  0  0  0  0  0  0  0
   17.2047  -20.5103  -15.1870 C   0  0  0  0  0  0  0  0  0  0  0  0
   17.2607  -20.6717  -12.8538 C   0  0  1  0  0  0  0  0  0  0  0  0
   18.6323  -21.3191  -12.8848 N   0  0  0  0  0  0  0  0  0  0  0  0
   19.3603  -20.9684  -11.6790 C   0  0  0  0  0  0  0  0  0  0  0  0
   19.3932  -20.8591  -14.0566 O   0  0  0  0  0  0  0  0  0  0  0  0
   20.2779  -19.7871  -13.9906 O   0  0  0  0  0  0  0  0  0  0  0  0
  2  1  1  0
  2  3  1  0
  3  4  1  6
  5  6  1  1
  5  3  1  0
  7  8  2  0
  7  5  1  0
 10  9  1  0
 11 10  2  0
 12 10  1  0
 13 12  1  0
 13 14  1  0
 14 15  1  0
 16 15  1  6
 16 17  1  0
 17  7  1  0
 18 16  1  0
 18 19  2  0
 20 21  1  0
 21 22  2  0
 21 23  1  0
 24 25  1  0
 24 23  1  1
 25 18  1  0
 26 24  1  0
 27 26  1  0
 28 26  2  0
M  END
$$$$
