IRN.pdb
     RDKit          3D

 28 27  0  0  1  0  0  0  0  0999 V2000
   17.8766  -29.1373  -12.2565 C   0  0  0  0  0  0  0  0  0  0  0  0
   19.3453  -29.3866  -12.3178 C   0  0  0  0  0  0  0  0  0  0  0  0
   20.0756  -28.0947  -12.5943 C   0  0  2  0  0  0  0  0  0  0  0  0
   19.6173  -27.5090  -13.9099 C   0  0  0  0  0  0  0  0  0  0  0  0
   21.5775  -28.2859  -12.5775 C   0  0  2  0  0  0  0  0  0  0  0  0
   22.0582  -28.8253  -11.3434 N   0  0  0  0  0  0  0  0  0  0  0  0
   22.2710  -26.9833  -12.8909 C   0  0  0  0  0  0  0  0  0  0  0  0
   22.5586  -26.1926  -11.9589 O   0  0  0  0  0  0  0  0  0  0  0  0
   28.9669  -27.8789  -16.7104 N   0  0  0  0  0  0  0  0  0  0  0  0
   27.8754  -28.7290  -16.4478 C   0  0  0  0  0  0  0  0  0  0  0  0
   27.9946  -30.0133  -16.3778 N   0  0  0  0  0  0  0  0  0  0  0  0
   26.5769  -28.1416  -16.2505 N   0  0  0  0  0  0  0  0  0  0  0  0
   26.2730  -26.7896  -16.6866 C   0  0  0  0  0  0  0  0  0  0  0  0
   24.8306  -26.4580  -16.3448 C   0  0  0  0  0  0  0  0  0  0  0  0
   24.7444  -25.8283  -14.9872 C   0  0  0  0  0  0  0  0  0  0  0  0
   23.3666  -25.4249  -14.5840 C   0  0  2  0  0  0  0  0  0  0  0  0
   22.5978  -26.6484  -14.2209 N   0  0  0  0  0  0  0  0  0  0  0  0
   22.5692  -24.7100  -15.5810 C   0  0  0  0  0  0  0  0  0  0  0  0
   22.0721  -25.3933  -16.5507 O   0  0  0  0  0  0  0  0  0  0  0  0
   27.1624  -30.5897  -16.1522 N   0  0  0  0  0  0  0  0  0  0  0  0
   22.7866  -21.7505  -20.1954 C   0  0  0  0  0  0  0  0  0  0  0  0
   22.3117  -21.5549  -18.8694 O   0  0  0  0  0  0  0  0  0  0  0  0
   21.4005  -20.7310  -18.5997 C   0  0  0  0  0  0  0  0  0  0  0  0
   22.8776  -22.3242  -17.7321 C   0  0  2  0  0  0  0  0  0  0  0  0
   21.7332  -22.7073  -16.8129 N   0  0  0  0  0  0  0  0  0  0  0  0
   22.2626  -23.3410  -15.6193 C   0  0  0  0  0  0  0  0  0  0  0  0
   20.8200  -23.6418  -17.4886 O   0  0  0  0  0  0  0  0  0  0  0  0
   19.5221  -23.2844  -17.8405 O   0  0  0  0  0  0  0  0  0  0  0  0
  2  1  1  0
  2  3  1  0
  3  4  1  6
  5  6  1  1
  5  3  1  0
  7  8  2  0
  7  5  1  0
 10  9  1  0
 11 10  2  0
 12 10  1  0
 13 12  1  0
 13 14  1  0
 14 15  1  0
 16 15  1  6
 16 17  1  0
 17  7  1  0
 18 16  1  0
 18 19  2  0
 20 21  1  0
 21 22  2  0
 21 23  1  0
 24 25  1  0
 24 23  1  1
 25 18  1  0
 26 24  1  0
 27 26  1  0
 28 26  2  0
M  END
$$$$
