IRN.pdb
     RDKit          3D

 28 27  0  0  1  0  0  0  0  0999 V2000
   24.9242  -19.5270  -21.8127 C   0  0  0  0  0  0  0  0  0  0  0  0
   24.2428  -18.9181  -20.6346 C   0  0  0  0  0  0  0  0  0  0  0  0
   24.1044  -19.9418  -19.5339 C   0  0  2  0  0  0  0  0  0  0  0  0
   23.3822  -21.1654  -20.0489 C   0  0  0  0  0  0  0  0  0  0  0  0
   23.4049  -19.3676  -18.3200 C   0  0  2  0  0  0  0  0  0  0  0  0
   23.9716  -18.1298  -17.8821 N   0  0  0  0  0  0  0  0  0  0  0  0
   23.4025  -20.3747  -17.1967 C   0  0  0  0  0  0  0  0  0  0  0  0
   22.8111  -21.4721  -17.3474 O   0  0  0  0  0  0  0  0  0  0  0  0
   24.2417  -19.9720   -9.9569 N   0  0  0  0  0  0  0  0  0  0  0  0
   25.1856  -20.9072   -9.4904 C   0  0  0  0  0  0  0  0  0  0  0  0
   25.1694  -21.3699   -8.2845 N   0  0  0  0  0  0  0  0  0  0  0  0
   26.2076  -21.3637  -10.3944 N   0  0  0  0  0  0  0  0  0  0  0  0
   26.3368  -20.8279  -11.7386 C   0  0  0  0  0  0  0  0  0  0  0  0
   25.0679  -21.1137  -12.5233 C   0  0  0  0  0  0  0  0  0  0  0  0
   25.2371  -20.7142  -13.9582 C   0  0  0  0  0  0  0  0  0  0  0  0
   24.0677  -21.0342  -14.8264 C   0  0  2  0  0  0  0  0  0  0  0  0
   24.0584  -20.0925  -15.9810 N   0  0  0  0  0  0  0  0  0  0  0  0
   22.7440  -20.9518  -14.2084 C   0  0  0  0  0  0  0  0  0  0  0  0
   22.2720  -19.7813  -13.9599 O   0  0  0  0  0  0  0  0  0  0  0  0
   25.9007  -22.0431   -7.9883 N   0  0  0  0  0  0  0  0  0  0  0  0
   18.0962  -21.2205  -12.3859 C   0  0  0  0  0  0  0  0  0  0  0  0
   19.0080  -20.1319  -12.4595 O   0  0  0  0  0  0  0  0  0  0  0  0
   18.6821  -18.9626  -12.1306 C   0  0  0  0  0  0  0  0  0  0  0  0
   20.4013  -20.3308  -12.9336 C   0  0  1  0  0  0  0  0  0  0  0  0
   20.5437  -21.7772  -13.3687 N   0  0  0  0  0  0  0  0  0  0  0  0
   21.8955  -22.0086  -13.8441 C   0  0  0  0  0  0  0  0  0  0  0  0
   19.5947  -22.0863  -14.4492 O   0  0  0  0  0  0  0  0  0  0  0  0
   19.4487  -21.2657  -15.5635 O   0  0  0  0  0  0  0  0  0  0  0  0
  2  1  1  0
  2  3  1  0
  3  4  1  6
  5  6  1  1
  5  3  1  0
  7  8  2  0
  7  5  1  0
 10  9  1  0
 11 10  2  0
 12 10  1  0
 13 12  1  0
 13 14  1  0
 14 15  1  0
 16 15  1  1
 16 17  1  0
 17  7  1  0
 18 16  1  0
 18 19  2  0
 20 21  1  0
 21 22  2  0
 21 23  1  0
 24 25  1  0
 24 23  1  1
 25 18  1  0
 26 24  1  0
 27 26  1  0
 28 26  2  0
M  END
$$$$
