IRN.pdb
     RDKit          3D

 28 27  0  0  1  0  0  0  0  0999 V2000
   21.7845  -19.8361   -6.9982 C   0  0  0  0  0  0  0  0  0  0  0  0
   22.2201  -18.8755   -8.0520 C   0  0  0  0  0  0  0  0  0  0  0  0
   23.2961  -19.5014   -8.9061 C   0  0  2  0  0  0  0  0  0  0  0  0
   23.7031  -18.5518  -10.0090 C   0  0  0  0  0  0  0  0  0  0  0  0
   22.8569  -20.8357   -9.4712 C   0  0  2  0  0  0  0  0  0  0  0  0
   22.7617  -21.8593   -8.4771 N   0  0  0  0  0  0  0  0  0  0  0  0
   23.7859  -21.2614  -10.5810 C   0  0  0  0  0  0  0  0  0  0  0  0
   24.8967  -21.7745  -10.2989 O   0  0  0  0  0  0  0  0  0  0  0  0
   25.9798  -25.6016  -15.5159 N   0  0  0  0  0  0  0  0  0  0  0  0
   25.3413  -25.4366  -16.7603 C   0  0  0  0  0  0  0  0  0  0  0  0
   25.8747  -25.8200  -17.8725 N   0  0  0  0  0  0  0  0  0  0  0  0
   24.0436  -24.8159  -16.7914 N   0  0  0  0  0  0  0  0  0  0  0  0
   23.3873  -24.3508  -15.5818 C   0  0  0  0  0  0  0  0  0  0  0  0
   24.2116  -23.2416  -14.9512 C   0  0  0  0  0  0  0  0  0  0  0  0
   23.5024  -22.6736  -13.7589 C   0  0  0  0  0  0  0  0  0  0  0  0
   24.2428  -21.5789  -13.0681 C   0  0  2  0  0  0  0  0  0  0  0  0
   23.4161  -21.0873  -11.9303 N   0  0  0  0  0  0  0  0  0  0  0  0
   24.5887  -20.4060  -13.8717 C   0  0  0  0  0  0  0  0  0  0  0  0
   23.7190  -19.4624  -13.9573 O   0  0  0  0  0  0  0  0  0  0  0  0
   25.3133  -25.7863  -18.7439 N   0  0  0  0  0  0  0  0  0  0  0  0
   28.5968  -17.1054  -16.8031 C   0  0  0  0  0  0  0  0  0  0  0  0
   27.5226  -17.1573  -15.8729 O   0  0  0  0  0  0  0  0  0  0  0  0
   26.7029  -16.2121  -15.7438 C   0  0  0  0  0  0  0  0  0  0  0  0
   27.3196  -18.3438  -15.0031 C   0  0  2  0  0  0  0  0  0  0  0  0
   25.9759  -18.9545  -15.3536 N   0  0  0  0  0  0  0  0  0  0  0  0
   25.7774  -20.1650  -14.5777 C   0  0  0  0  0  0  0  0  0  0  0  0
   25.9182  -19.2863  -16.7854 O   0  0  0  0  0  0  0  0  0  0  0  0
   25.0684  -18.6232  -17.6654 O   0  0  0  0  0  0  0  0  0  0  0  0
  2  1  1  0
  2  3  1  0
  3  4  1  6
  5  6  1  1
  5  3  1  0
  7  8  2  0
  7  5  1  0
 10  9  1  0
 11 10  2  0
 12 10  1  0
 13 12  1  0
 13 14  1  0
 14 15  1  0
 16 15  1  6
 16 17  1  0
 17  7  1  0
 18 16  1  0
 18 19  2  0
 20 21  1  0
 21 22  2  0
 21 23  1  0
 24 25  1  0
 24 23  1  1
 25 18  1  0
 26 24  1  0
 27 26  1  0
 28 26  2  0
M  END
$$$$
