IRN.pdb
     RDKit          3D

 28 27  0  0  1  0  0  0  0  0999 V2000
   28.9621  -18.3049  -19.8730 C   0  0  0  0  0  0  0  0  0  0  0  0
   28.3643  -17.8205  -18.5960 C   0  0  0  0  0  0  0  0  0  0  0  0
   26.9206  -17.4380  -18.8158 C   0  0  2  0  0  0  0  0  0  0  0  0
   26.8249  -16.3387  -19.8483 C   0  0  0  0  0  0  0  0  0  0  0  0
   26.2462  -17.0305  -17.5228 C   0  0  2  0  0  0  0  0  0  0  0  0
   26.5662  -17.8947  -16.4293 N   0  0  0  0  0  0  0  0  0  0  0  0
   24.7521  -16.9550  -17.7172 C   0  0  0  0  0  0  0  0  0  0  0  0
   24.2812  -16.2563  -18.6482 O   0  0  0  0  0  0  0  0  0  0  0  0
   18.1986  -21.8197  -13.9651 N   0  0  0  0  0  0  0  0  0  0  0  0
   17.5293  -20.8282  -14.7083 C   0  0  0  0  0  0  0  0  0  0  0  0
   16.2462  -20.8174  -14.8573 N   0  0  0  0  0  0  0  0  0  0  0  0
   18.3077  -19.7873  -15.3254 N   0  0  0  0  0  0  0  0  0  0  0  0
   19.7601  -19.8137  -15.3248 C   0  0  0  0  0  0  0  0  0  0  0  0
   20.2897  -18.6304  -16.1166 C   0  0  0  0  0  0  0  0  0  0  0  0
   21.7882  -18.6509  -16.1517 C   0  0  0  0  0  0  0  0  0  0  0  0
   22.3996  -17.5314  -16.9242 C   0  0  2  0  0  0  0  0  0  0  0  0
   23.8824  -17.6623  -16.8621 N   0  0  0  0  0  0  0  0  0  0  0  0
   22.0804  -16.1732  -16.4834 C   0  0  0  0  0  0  0  0  0  0  0  0
   22.6224  -15.7551  -15.3945 O   0  0  0  0  0  0  0  0  0  0  0  0
   15.8012  -20.0377  -15.3764 N   0  0  0  0  0  0  0  0  0  0  0  0
   21.5186  -10.5557  -17.2648 C   0  0  0  0  0  0  0  0  0  0  0  0
   21.7481  -11.6383  -16.3720 O   0  0  0  0  0  0  0  0  0  0  0  0
   21.6578  -11.5075  -15.1244 C   0  0  0  0  0  0  0  0  0  0  0  0
   22.1086  -12.9865  -16.8800 C   0  0  2  0  0  0  0  0  0  0  0  0
   20.9780  -13.9349  -16.5286 N   0  0  0  0  0  0  0  0  0  0  0  0
   21.2416  -15.2385  -17.1098 C   0  0  0  0  0  0  0  0  0  0  0  0
   19.6989  -13.4269  -17.0476 O   0  0  0  0  0  0  0  0  0  0  0  0
   19.2413  -13.7397  -18.3240 O   0  0  0  0  0  0  0  0  0  0  0  0
  2  1  1  0
  2  3  1  0
  3  4  1  6
  5  6  1  1
  5  3  1  0
  7  8  2  0
  7  5  1  0
 10  9  1  0
 11 10  2  0
 12 10  1  0
 13 12  1  0
 13 14  1  0
 14 15  1  0
 16 15  1  1
 16 17  1  0
 17  7  1  0
 18 16  1  0
 18 19  2  0
 20 21  1  0
 21 22  2  0
 21 23  1  0
 24 25  1  0
 24 23  1  1
 25 18  1  0
 26 24  1  0
 27 26  1  0
 28 26  2  0
M  END
$$$$
