IRN.pdb
     RDKit          3D

 28 27  0  0  1  0  0  0  0  0999 V2000
   14.5308  -24.7088   -5.1752 C   0  0  0  0  0  0  0  0  0  0  0  0
   15.8614  -25.3631   -5.3309 C   0  0  0  0  0  0  0  0  0  0  0  0
   16.5353  -24.8671   -6.5873 C   0  0  2  0  0  0  0  0  0  0  0  0
   15.6742  -25.1665   -7.7926 C   0  0  0  0  0  0  0  0  0  0  0  0
   17.9212  -25.4551   -6.7488 C   0  0  2  0  0  0  0  0  0  0  0  0
   18.8323  -25.0250   -5.7340 N   0  0  0  0  0  0  0  0  0  0  0  0
   18.4656  -25.1341   -8.1187 C   0  0  0  0  0  0  0  0  0  0  0  0
   19.2513  -24.1655   -8.2637 O   0  0  0  0  0  0  0  0  0  0  0  0
   22.5336  -26.0181  -13.3378 N   0  0  0  0  0  0  0  0  0  0  0  0
   22.4661  -27.2075  -14.0889 C   0  0  0  0  0  0  0  0  0  0  0  0
   22.9805  -27.3156  -15.2688 N   0  0  0  0  0  0  0  0  0  0  0  0
   21.7969  -28.3458  -13.5173 N   0  0  0  0  0  0  0  0  0  0  0  0
   21.1842  -28.2935  -12.2012 C   0  0  0  0  0  0  0  0  0  0  0  0
   20.2511  -27.0974  -12.1227 C   0  0  0  0  0  0  0  0  0  0  0  0
   19.6387  -26.9983  -10.7580 C   0  0  0  0  0  0  0  0  0  0  0  0
   18.7726  -25.8008  -10.5594 C   0  0  2  0  0  0  0  0  0  0  0  0
   18.0989  -25.9130   -9.2352 N   0  0  0  0  0  0  0  0  0  0  0  0
   17.7174  -25.5773  -11.5482 C   0  0  0  0  0  0  0  0  0  0  0  0
   16.6219  -26.2375  -11.4129 O   0  0  0  0  0  0  0  0  0  0  0  0
   22.9560  -28.2330  -15.7521 N   0  0  0  0  0  0  0  0  0  0  0  0
   14.6541  -22.0230  -13.3088 C   0  0  0  0  0  0  0  0  0  0  0  0
   15.3169  -21.9665  -12.0521 O   0  0  0  0  0  0  0  0  0  0  0  0
   15.0268  -21.1072  -11.1806 C   0  0  0  0  0  0  0  0  0  0  0  0
   16.3931  -22.9310  -11.7099 C   0  0  1  0  0  0  0  0  0  0  0  0
   16.6506  -23.7944  -12.9304 N   0  0  0  0  0  0  0  0  0  0  0  0
   17.7405  -24.7120  -12.6528 C   0  0  0  0  0  0  0  0  0  0  0  0
   17.0085  -22.9588  -14.0868 O   0  0  0  0  0  0  0  0  0  0  0  0
   18.2708  -23.0042  -14.6706 O   0  0  0  0  0  0  0  0  0  0  0  0
  2  1  1  0
  2  3  1  0
  3  4  1  6
  5  6  1  1
  5  3  1  0
  7  8  2  0
  7  5  1  0
 10  9  1  0
 11 10  2  0
 12 10  1  0
 13 12  1  0
 13 14  1  0
 14 15  1  0
 16 15  1  6
 16 17  1  0
 17  7  1  0
 18 16  1  0
 18 19  2  0
 20 21  1  0
 21 22  2  0
 21 23  1  0
 24 25  1  0
 24 23  1  1
 25 18  1  0
 26 24  1  0
 27 26  1  0
 28 26  2  0
M  END
$$$$
