IRN.pdb
     RDKit          3D

 28 27  0  0  1  0  0  0  0  0999 V2000
   27.1219  -12.4757  -19.2537 C   0  0  0  0  0  0  0  0  0  0  0  0
   26.6115  -12.9110  -17.9221 C   0  0  0  0  0  0  0  0  0  0  0  0
   26.3560  -14.3988  -17.9299 C   0  0  2  0  0  0  0  0  0  0  0  0
   25.5087  -14.7751  -19.1233 C   0  0  0  0  0  0  0  0  0  0  0  0
   25.7153  -14.8636  -16.6392 C   0  0  2  0  0  0  0  0  0  0  0  0
   26.4778  -14.5164  -15.4802 N   0  0  0  0  0  0  0  0  0  0  0  0
   25.4724  -16.3518  -16.6858 C   0  0  0  0  0  0  0  0  0  0  0  0
   26.3767  -17.1161  -17.1039 O   0  0  0  0  0  0  0  0  0  0  0  0
   26.3450  -23.1779  -14.7169 N   0  0  0  0  0  0  0  0  0  0  0  0
   24.9985  -22.7660  -14.6969 C   0  0  0  0  0  0  0  0  0  0  0  0
   24.0372  -23.5078  -15.1375 N   0  0  0  0  0  0  0  0  0  0  0  0
   24.6836  -21.4670  -14.1645 N   0  0  0  0  0  0  0  0  0  0  0  0
   25.6719  -20.4040  -14.1022 C   0  0  0  0  0  0  0  0  0  0  0  0
   25.0831  -19.2050  -13.3789 C   0  0  0  0  0  0  0  0  0  0  0  0
   25.0634  -18.0066  -14.2792 C   0  0  0  0  0  0  0  0  0  0  0  0
   24.1324  -18.1246  -15.4380 C   0  0  2  0  0  0  0  0  0  0  0  0
   24.2391  -16.8892  -16.2640 N   0  0  0  0  0  0  0  0  0  0  0  0
   22.7129  -18.3007  -15.1297 C   0  0  0  0  0  0  0  0  0  0  0  0
   22.2015  -17.5500  -14.2190 O   0  0  0  0  0  0  0  0  0  0  0  0
   23.0714  -23.1302  -15.1568 N   0  0  0  0  0  0  0  0  0  0  0  0
   18.3842  -20.9295  -13.4472 C   0  0  0  0  0  0  0  0  0  0  0  0
   19.0570  -19.6891  -13.2721 O   0  0  0  0  0  0  0  0  0  0  0  0
   18.5024  -18.6973  -12.7331 C   0  0  0  0  0  0  0  0  0  0  0  0
   20.4604  -19.5090  -13.7233 C   0  0  1  0  0  0  0  0  0  0  0  0
   20.4477  -19.3426  -15.2311 N   0  0  0  0  0  0  0  0  0  0  0  0
   21.8092  -19.2015  -15.7139 C   0  0  0  0  0  0  0  0  0  0  0  0
   19.6766  -18.1492  -15.6116 O   0  0  0  0  0  0  0  0  0  0  0  0
   20.1754  -16.8610  -15.4436 O   0  0  0  0  0  0  0  0  0  0  0  0
  2  1  1  0
  2  3  1  0
  3  4  1  6
  5  6  1  1
  5  3  1  0
  7  8  2  0
  7  5  1  0
 10  9  1  0
 11 10  2  0
 12 10  1  0
 13 12  1  0
 13 14  1  0
 14 15  1  0
 16 15  1  1
 16 17  1  0
 17  7  1  0
 18 16  1  0
 18 19  2  0
 20 21  1  0
 21 22  2  0
 21 23  1  0
 24 25  1  0
 24 23  1  6
 25 18  1  0
 26 24  1  0
 27 26  1  0
 28 26  2  0
M  END
$$$$
