IRN.pdb
     RDKit          3D

 28 27  0  0  1  0  0  0  0  0999 V2000
   21.3085  -19.4229  -22.1389 C   0  0  0  0  0  0  0  0  0  0  0  0
   22.7035  -19.2624  -21.6377 C   0  0  0  0  0  0  0  0  0  0  0  0
   22.8233  -19.8487  -20.2518 C   0  0  2  0  0  0  0  0  0  0  0  0
   22.6621  -21.3503  -20.3063 C   0  0  0  0  0  0  0  0  0  0  0  0
   21.8281  -19.2288  -19.2937 C   0  0  2  0  0  0  0  0  0  0  0  0
   22.1589  -17.8841  -18.9371 N   0  0  0  0  0  0  0  0  0  0  0  0
   21.6925  -20.0851  -18.0590 C   0  0  0  0  0  0  0  0  0  0  0  0
   22.0330  -21.2929  -18.1001 O   0  0  0  0  0  0  0  0  0  0  0  0
   24.9776  -22.3745  -12.1606 N   0  0  0  0  0  0  0  0  0  0  0  0
   24.8953  -22.7949  -13.5021 C   0  0  0  0  0  0  0  0  0  0  0  0
   25.1387  -24.0100  -13.8668 N   0  0  0  0  0  0  0  0  0  0  0  0
   24.5256  -21.8312  -14.5044 N   0  0  0  0  0  0  0  0  0  0  0  0
   24.2058  -20.4556  -14.1640 C   0  0  0  0  0  0  0  0  0  0  0  0
   22.7773  -20.3779  -13.6532 C   0  0  0  0  0  0  0  0  0  0  0  0
   21.9415  -19.5253  -14.5597 C   0  0  0  0  0  0  0  0  0  0  0  0
   21.1614  -20.2900  -15.5748 C   0  0  2  0  0  0  0  0  0  0  0  0
   21.1870  -19.5392  -16.8615 N   0  0  0  0  0  0  0  0  0  0  0  0
   19.7541  -20.5484  -15.2689 C   0  0  0  0  0  0  0  0  0  0  0  0
   18.9727  -19.5341  -15.1473 O   0  0  0  0  0  0  0  0  0  0  0  0
   25.0897  -24.2586  -14.8725 N   0  0  0  0  0  0  0  0  0  0  0  0
   15.1250  -22.3043  -14.0921 C   0  0  0  0  0  0  0  0  0  0  0  0
   16.0928  -23.0712  -13.3871 O   0  0  0  0  0  0  0  0  0  0  0  0
   15.7684  -23.9855  -12.5867 C   0  0  0  0  0  0  0  0  0  0  0  0
   17.5459  -22.8228  -13.5673 C   0  0  2  0  0  0  0  0  0  0  0  0
   17.7164  -21.8941  -14.7548 N   0  0  0  0  0  0  0  0  0  0  0  0
   19.1250  -21.7900  -15.0893 C   0  0  0  0  0  0  0  0  0  0  0  0
   17.1967  -20.5545  -14.4403 O   0  0  0  0  0  0  0  0  0  0  0  0
   15.9221  -20.1466  -14.8215 O   0  0  0  0  0  0  0  0  0  0  0  0
  2  1  1  0
  2  3  1  0
  3  4  1  6
  5  6  1  1
  5  3  1  0
  7  8  2  0
  7  5  1  0
 10  9  1  0
 11 10  2  0
 12 10  1  0
 13 12  1  0
 13 14  1  0
 14 15  1  0
 16 15  1  1
 16 17  1  0
 17  7  1  0
 18 16  1  0
 18 19  2  0
 20 21  1  0
 21 22  2  0
 21 23  1  0
 24 25  1  0
 24 23  1  6
 25 18  1  0
 26 24  1  0
 27 26  1  0
 28 26  2  0
M  END
$$$$
