IRN.pdb
     RDKit          3D

 28 27  0  0  1  0  0  0  0  0999 V2000
   27.3548  -18.9684  -16.6681 C   0  0  0  0  0  0  0  0  0  0  0  0
   26.9295  -20.0160  -15.6963 C   0  0  0  0  0  0  0  0  0  0  0  0
   25.4261  -20.0121  -15.5602 C   0  0  2  0  0  0  0  0  0  0  0  0
   24.9540  -18.6740  -15.0402 C   0  0  0  0  0  0  0  0  0  0  0  0
   24.9410  -21.1416  -14.6761 C   0  0  2  0  0  0  0  0  0  0  0  0
   25.4942  -22.4102  -15.0364 N   0  0  0  0  0  0  0  0  0  0  0  0
   23.4336  -21.1998  -14.6872 C   0  0  0  0  0  0  0  0  0  0  0  0
   22.8349  -21.6019  -15.7151 O   0  0  0  0  0  0  0  0  0  0  0  0
   18.6098  -24.4110   -8.9137 N   0  0  0  0  0  0  0  0  0  0  0  0
   19.1059  -24.7732  -10.1810 C   0  0  0  0  0  0  0  0  0  0  0  0
   19.4274  -25.9877  -10.4813 N   0  0  0  0  0  0  0  0  0  0  0  0
   19.2600  -23.7483  -11.1789 N   0  0  0  0  0  0  0  0  0  0  0  0
   18.8645  -22.3724  -10.9319 C   0  0  0  0  0  0  0  0  0  0  0  0
   19.2517  -21.5114  -12.1220 C   0  0  0  0  0  0  0  0  0  0  0  0
   20.7375  -21.5280  -12.3205 C   0  0  0  0  0  0  0  0  0  0  0  0
   21.2043  -20.7824  -13.5246 C   0  0  2  0  0  0  0  0  0  0  0  0
   22.6938  -20.8064  -13.5534 N   0  0  0  0  0  0  0  0  0  0  0  0
   20.8062  -19.3782  -13.6275 C   0  0  0  0  0  0  0  0  0  0  0  0
   21.1567  -18.5863  -12.6766 O   0  0  0  0  0  0  0  0  0  0  0  0
   19.7465  -26.2060  -11.4437 N   0  0  0  0  0  0  0  0  0  0  0  0
   21.5929  -17.2340  -17.7120 C   0  0  0  0  0  0  0  0  0  0  0  0
   21.1949  -16.7331  -16.4421 O   0  0  0  0  0  0  0  0  0  0  0  0
   22.0174  -16.2351  -15.6314 C   0  0  0  0  0  0  0  0  0  0  0  0
   19.7737  -16.7768  -16.0130 C   0  0  2  0  0  0  0  0  0  0  0  0
   19.7276  -17.3541  -14.6108 N   0  0  0  0  0  0  0  0  0  0  0  0
   20.0761  -18.7624  -14.6557 C   0  0  0  0  0  0  0  0  0  0  0  0
   18.3804  -17.2102  -14.0382 O   0  0  0  0  0  0  0  0  0  0  0  0
   17.6253  -18.3081  -13.6373 O   0  0  0  0  0  0  0  0  0  0  0  0
  2  1  1  0
  2  3  1  0
  3  4  1  1
  5  6  1  6
  5  3  1  0
  7  8  2  0
  7  5  1  0
 10  9  1  0
 11 10  2  0
 12 10  1  0
 13 12  1  0
 13 14  1  0
 14 15  1  0
 16 15  1  1
 16 17  1  0
 17  7  1  0
 18 16  1  0
 18 19  2  0
 20 21  1  0
 21 22  2  0
 21 23  1  0
 24 25  1  0
 24 23  1  1
 25 18  1  0
 26 24  1  0
 27 26  1  0
 28 26  2  0
M  END
$$$$
