IRN.pdb
     RDKit          3D

 28 27  0  0  1  0  0  0  0  0999 V2000
   25.0566  -25.0428  -15.3786 C   0  0  0  0  0  0  0  0  0  0  0  0
   24.8093  -23.7648  -14.6517 C   0  0  0  0  0  0  0  0  0  0  0  0
   25.0251  -22.5943  -15.5803 C   0  0  2  0  0  0  0  0  0  0  0  0
   26.4134  -22.6507  -16.1748 C   0  0  0  0  0  0  0  0  0  0  0  0
   24.7858  -21.2730  -14.8807 C   0  0  2  0  0  0  0  0  0  0  0  0
   25.7096  -21.0289  -13.8167 N   0  0  0  0  0  0  0  0  0  0  0  0
   23.3662  -21.2022  -14.3749 C   0  0  0  0  0  0  0  0  0  0  0  0
   22.4217  -21.5542  -15.1235 O   0  0  0  0  0  0  0  0  0  0  0  0
   19.7088  -23.8433   -7.6432 N   0  0  0  0  0  0  0  0  0  0  0  0
   19.5356  -22.5603   -8.1973 C   0  0  0  0  0  0  0  0  0  0  0  0
   18.3779  -22.1001   -8.5385 N   0  0  0  0  0  0  0  0  0  0  0  0
   20.6956  -21.7312   -8.3904 N   0  0  0  0  0  0  0  0  0  0  0  0
   20.5900  -20.3672   -8.8788 C   0  0  0  0  0  0  0  0  0  0  0  0
   20.4322  -20.3796  -10.3896 C   0  0  0  0  0  0  0  0  0  0  0  0
   21.7581  -20.5985  -11.0539 C   0  0  0  0  0  0  0  0  0  0  0  0
   21.7105  -20.5679  -12.5440 C   0  0  2  0  0  0  0  0  0  0  0  0
   23.0935  -20.7443  -13.0696 N   0  0  0  0  0  0  0  0  0  0  0  0
   21.1792  -19.3533  -13.1632 C   0  0  0  0  0  0  0  0  0  0  0  0
   21.9983  -18.3858  -13.3808 O   0  0  0  0  0  0  0  0  0  0  0  0
   18.3134  -21.1665   -8.9857 N   0  0  0  0  0  0  0  0  0  0  0  0
   22.2211  -17.6550  -17.2017 C   0  0  0  0  0  0  0  0  0  0  0  0
   21.0518  -17.4625  -16.4158 O   0  0  0  0  0  0  0  0  0  0  0  0
   20.6265  -16.3169  -16.1183 C   0  0  0  0  0  0  0  0  0  0  0  0
   20.2727  -18.6197  -15.9063 C   0  0  2  0  0  0  0  0  0  0  0  0
   19.5523  -18.1782  -14.6463 N   0  0  0  0  0  0  0  0  0  0  0  0
   19.8594  -19.0977  -13.5660 C   0  0  0  0  0  0  0  0  0  0  0  0
   18.0976  -18.1604  -14.8635 O   0  0  0  0  0  0  0  0  0  0  0  0
   17.3730  -16.9742  -14.9268 O   0  0  0  0  0  0  0  0  0  0  0  0
  2  1  1  0
  2  3  1  0
  3  4  1  1
  5  6  1  1
  5  3  1  0
  7  8  2  0
  7  5  1  0
 10  9  1  0
 11 10  2  0
 12 10  1  0
 13 12  1  0
 13 14  1  0
 14 15  1  0
 16 15  1  1
 16 17  1  0
 17  7  1  0
 18 16  1  0
 18 19  2  0
 20 21  1  0
 21 22  2  0
 21 23  1  0
 24 25  1  0
 24 23  1  1
 25 18  1  0
 26 24  1  0
 27 26  1  0
 28 26  2  0
M  END
$$$$
