IRN.pdb
     RDKit          3D

 28 27  0  0  1  0  0  0  0  0999 V2000
   15.1824  -10.3197  -18.6657 C   0  0  0  0  0  0  0  0  0  0  0  0
   16.4130  -11.1448  -18.4992 C   0  0  0  0  0  0  0  0  0  0  0  0
   17.2886  -10.5518  -17.4219 C   0  0  2  0  0  0  0  0  0  0  0  0
   17.6680   -9.1339  -17.7815 C   0  0  0  0  0  0  0  0  0  0  0  0
   18.5191  -11.3978  -17.1717 C   0  0  2  0  0  0  0  0  0  0  0  0
   18.2130  -12.7764  -16.9462 N   0  0  0  0  0  0  0  0  0  0  0  0
   19.3101  -10.8361  -16.0164 C   0  0  0  0  0  0  0  0  0  0  0  0
   18.9203  -11.0379  -14.8401 O   0  0  0  0  0  0  0  0  0  0  0  0
   27.2464  -12.8038  -15.4397 N   0  0  0  0  0  0  0  0  0  0  0  0
   27.2183  -11.6518  -16.2492 C   0  0  0  0  0  0  0  0  0  0  0  0
   28.2424  -11.2529  -16.9279 N   0  0  0  0  0  0  0  0  0  0  0  0
   25.9995  -10.8904  -16.3214 N   0  0  0  0  0  0  0  0  0  0  0  0
   24.8238  -11.2509  -15.5481 C   0  0  0  0  0  0  0  0  0  0  0  0
   23.7234  -10.2326  -15.7926 C   0  0  0  0  0  0  0  0  0  0  0  0
   22.4991  -10.5828  -15.0017 C   0  0  0  0  0  0  0  0  0  0  0  0
   21.3739   -9.6158  -15.1518 C   0  0  2  0  0  0  0  0  0  0  0  0
   20.4821  -10.0874  -16.2483 N   0  0  0  0  0  0  0  0  0  0  0  0
   21.7297   -8.2321  -15.4676 C   0  0  0  0  0  0  0  0  0  0  0  0
   21.6901   -7.8713  -16.7015 O   0  0  0  0  0  0  0  0  0  0  0  0
   28.1158  -10.5332  -17.6639 N   0  0  0  0  0  0  0  0  0  0  0  0
   21.7247   -3.1760  -15.4067 C   0  0  0  0  0  0  0  0  0  0  0  0
   20.5828   -3.9985  -15.6102 O   0  0  0  0  0  0  0  0  0  0  0  0
   19.4977   -3.5399  -16.0505 C   0  0  0  0  0  0  0  0  0  0  0  0
   20.6225   -5.4521  -15.3081 C   0  0  2  0  0  0  0  0  0  0  0  0
   22.0499   -5.8135  -14.9429 N   0  0  0  0  0  0  0  0  0  0  0  0
   22.1155   -7.2170  -14.5786 C   0  0  0  0  0  0  0  0  0  0  0  0
   22.5135   -5.0002  -13.8083 O   0  0  0  0  0  0  0  0  0  0  0  0
   22.8251   -3.6508  -13.9432 O   0  0  0  0  0  0  0  0  0  0  0  0
  2  1  1  0
  2  3  1  0
  3  4  1  6
  5  6  1  1
  5  3  1  0
  7  8  2  0
  7  5  1  0
 10  9  1  0
 11 10  2  0
 12 10  1  0
 13 12  1  0
 13 14  1  0
 14 15  1  0
 16 15  1  6
 16 17  1  0
 17  7  1  0
 18 16  1  0
 18 19  2  0
 20 21  1  0
 21 22  2  0
 21 23  1  0
 24 25  1  0
 24 23  1  6
 25 18  1  0
 26 24  1  0
 27 26  1  0
 28 26  2  0
M  END
$$$$
