IRN.pdb
     RDKit          3D

 28 27  0  0  1  0  0  0  0  0999 V2000
   31.8508   -8.6119  -18.8328 C   0  0  0  0  0  0  0  0  0  0  0  0
   31.0515   -9.8219  -18.4865 C   0  0  0  0  0  0  0  0  0  0  0  0
   29.5851   -9.5564  -18.7270 C   0  0  2  0  0  0  0  0  0  0  0  0
   29.1429   -8.3369  -17.9516 C   0  0  0  0  0  0  0  0  0  0  0  0
   28.7340  -10.7598  -18.3805 C   0  0  2  0  0  0  0  0  0  0  0  0
   29.0748  -11.9225  -19.1401 N   0  0  0  0  0  0  0  0  0  0  0  0
   27.2719  -10.4283  -18.5487 C   0  0  0  0  0  0  0  0  0  0  0  0
   26.7779  -10.3644  -19.7014 O   0  0  0  0  0  0  0  0  0  0  0  0
   20.1504  -14.0412  -15.6380 N   0  0  0  0  0  0  0  0  0  0  0  0
   19.6509  -12.7928  -16.0568 C   0  0  0  0  0  0  0  0  0  0  0  0
   18.3908  -12.5091  -16.0482 N   0  0  0  0  0  0  0  0  0  0  0  0
   20.5830  -11.7957  -16.5120 N   0  0  0  0  0  0  0  0  0  0  0  0
   22.0100  -12.0575  -16.5859 C   0  0  0  0  0  0  0  0  0  0  0  0
   22.7359  -10.7954  -17.0192 C   0  0  0  0  0  0  0  0  0  0  0  0
   24.2130  -11.0395  -17.0953 C   0  0  0  0  0  0  0  0  0  0  0  0
   25.0098   -9.8543  -17.5245 C   0  0  2  0  0  0  0  0  0  0  0  0
   26.4578  -10.1901  -17.4226 N   0  0  0  0  0  0  0  0  0  0  0  0
   24.8127   -8.6170  -16.7687 C   0  0  0  0  0  0  0  0  0  0  0  0
   25.3797   -8.5226  -15.6181 O   0  0  0  0  0  0  0  0  0  0  0  0
   18.0775  -11.5757  -16.3741 N   0  0  0  0  0  0  0  0  0  0  0  0
   23.6221   -4.1380  -14.7451 C   0  0  0  0  0  0  0  0  0  0  0  0
   23.3697   -3.9842  -16.1360 O   0  0  0  0  0  0  0  0  0  0  0  0
   23.0355   -2.8802  -16.6374 C   0  0  0  0  0  0  0  0  0  0  0  0
   23.4912   -5.1341  -17.0679 C   0  0  2  0  0  0  0  0  0  0  0  0
   23.9084   -6.3477  -16.2590 N   0  0  0  0  0  0  0  0  0  0  0  0
   24.0703   -7.4868  -17.1440 C   0  0  0  0  0  0  0  0  0  0  0  0
   22.8907   -6.6669  -15.2460 O   0  0  0  0  0  0  0  0  0  0  0  0
   22.0913   -7.8026  -15.3320 O   0  0  0  0  0  0  0  0  0  0  0  0
  2  1  1  0
  2  3  1  0
  3  4  1  1
  5  6  1  6
  5  3  1  0
  7  8  2  0
  7  5  1  0
 10  9  1  0
 11 10  2  0
 12 10  1  0
 13 12  1  0
 13 14  1  0
 14 15  1  0
 16 15  1  1
 16 17  1  0
 17  7  1  0
 18 16  1  0
 18 19  2  0
 20 21  1  0
 21 22  2  0
 21 23  1  0
 24 25  1  0
 24 23  1  6
 25 18  1  0
 26 24  1  0
 27 26  1  0
 28 26  2  0
M  END
$$$$
