IRN.pdb
     RDKit          3D

 28 27  0  0  1  0  0  0  0  0999 V2000
   28.7588  -20.1440   -4.7903 C   0  0  0  0  0  0  0  0  0  0  0  0
   27.3804  -20.3618   -5.3151 C   0  0  0  0  0  0  0  0  0  0  0  0
   27.3030  -19.9217   -6.7570 C   0  0  2  0  0  0  0  0  0  0  0  0
   27.6311  -18.4509   -6.8706 C   0  0  0  0  0  0  0  0  0  0  0  0
   25.9493  -20.2257   -7.3633 C   0  0  2  0  0  0  0  0  0  0  0  0
   25.5727  -21.5987   -7.2293 N   0  0  0  0  0  0  0  0  0  0  0  0
   25.9237  -19.8096   -8.8132 C   0  0  0  0  0  0  0  0  0  0  0  0
   25.9398  -18.5896   -9.1099 O   0  0  0  0  0  0  0  0  0  0  0  0
   26.6260  -22.9547  -16.1258 N   0  0  0  0  0  0  0  0  0  0  0  0
   27.3889  -21.8464  -16.5417 C   0  0  0  0  0  0  0  0  0  0  0  0
   27.4393  -21.4588  -17.7729 N   0  0  0  0  0  0  0  0  0  0  0  0
   28.1413  -21.1188  -15.5545 N   0  0  0  0  0  0  0  0  0  0  0  0
   28.1006  -21.4722  -14.1460 C   0  0  0  0  0  0  0  0  0  0  0  0
   26.8995  -20.8118  -13.4913 C   0  0  0  0  0  0  0  0  0  0  0  0
   26.8906  -21.0826  -12.0169 C   0  0  0  0  0  0  0  0  0  0  0  0
   25.7695  -20.4318  -11.2800 C   0  0  2  0  0  0  0  0  0  0  0  0
   25.8819  -20.7796   -9.8355 N   0  0  0  0  0  0  0  0  0  0  0  0
   24.4120  -20.7897  -11.6923 C   0  0  0  0  0  0  0  0  0  0  0  0
   23.9503  -21.9265  -11.3065 O   0  0  0  0  0  0  0  0  0  0  0  0
   28.0114  -20.6305  -18.0222 N   0  0  0  0  0  0  0  0  0  0  0  0
   19.6463  -21.2021  -13.3655 C   0  0  0  0  0  0  0  0  0  0  0  0
   19.9063  -19.8066  -13.2834 O   0  0  0  0  0  0  0  0  0  0  0  0
   19.0067  -18.9465  -13.4649 C   0  0  0  0  0  0  0  0  0  0  0  0
   21.2674  -19.2980  -12.9762 C   0  0  2  0  0  0  0  0  0  0  0  0
   22.1730  -20.4946  -12.7539 N   0  0  0  0  0  0  0  0  0  0  0  0
   23.5206  -20.0356  -12.4709 C   0  0  0  0  0  0  0  0  0  0  0  0
   22.1981  -21.3513  -13.9493 O   0  0  0  0  0  0  0  0  0  0  0  0
   23.1226  -21.1669  -14.9729 O   0  0  0  0  0  0  0  0  0  0  0  0
  2  1  1  0
  2  3  1  0
  3  4  1  1
  5  6  1  6
  5  3  1  0
  7  8  2  0
  7  5  1  0
 10  9  1  0
 11 10  2  0
 12 10  1  0
 13 12  1  0
 13 14  1  0
 14 15  1  0
 16 15  1  6
 16 17  1  0
 17  7  1  0
 18 16  1  0
 18 19  2  0
 20 21  1  0
 21 22  2  0
 21 23  1  0
 24 25  1  0
 24 23  1  1
 25 18  1  0
 26 24  1  0
 27 26  1  0
 28 26  2  0
M  END
$$$$
