FRT.pdb
     RDKit          3D

 30 30  0  0  1  0  0  0  0  0999 V2000
    8.9747  -14.2873   25.3323 N   0  0  0  0  0  0  0  0  0  0  0  0
    7.9634  -15.2534   25.0204 C   0  0  1  0  0  0  0  0  0  0  0  0
    6.6950  -14.4663   24.6670 C   0  0  0  0  0  0  0  0  0  0  0  0
    6.5201  -13.3221   25.5984 C   0  0  0  0  0  0  0  0  0  0  0  0
    5.7962  -13.4797   26.7531 C   0  0  0  0  0  0  0  0  0  0  0  0
    5.6389  -12.4077   27.6196 C   0  0  0  0  0  0  0  0  0  0  0  0
    6.2097  -11.1773   27.3244 C   0  0  0  0  0  0  0  0  0  0  0  0
    6.9275  -11.0384   26.1705 C   0  0  0  0  0  0  0  0  0  0  0  0
    7.0925  -12.0933   25.3008 C   0  0  0  0  0  0  0  0  0  0  0  0
    8.2781  -16.1321   23.8856 C   0  0  0  0  0  0  0  0  0  0  0  0
    7.5538  -17.1081   23.5878 O   0  0  0  0  0  0  0  0  0  0  0  0
    8.7585  -12.5217   19.0715 N   0  0  0  0  0  0  0  0  0  0  0  0
    8.0798  -13.5509   18.3590 C   0  0  0  0  0  0  0  0  0  0  0  0
    8.0940  -13.5208   17.0811 N   0  0  0  0  0  0  0  0  0  0  0  0
    7.3920  -14.6000   19.0211 N   0  0  0  0  0  0  0  0  0  0  0  0
    8.0623  -15.7482   19.5816 C   0  0  0  0  0  0  0  0  0  0  0  0
    9.3556  -15.2650   20.1971 C   0  0  0  0  0  0  0  0  0  0  0  0
   10.1802  -16.3784   20.7629 C   0  0  0  0  0  0  0  0  0  0  0  0
    9.8018  -16.8718   22.0955 C   0  0  2  0  0  0  0  0  0  0  0  0
    9.4147  -15.9168   23.0777 N   0  0  0  0  0  0  0  0  0  0  0  0
   11.0017  -17.6002   22.6536 C   0  0  0  0  0  0  0  0  0  0  0  0
   12.1802  -17.2198   22.4186 O   0  0  0  0  0  0  0  0  0  0  0  0
    7.6168  -14.1955   16.4794 C   0  0  0  0  0  0  0  0  0  0  0  0
   10.7597  -19.8691   26.1400 C   0  0  2  0  0  0  0  0  0  0  0  0
   12.0185  -19.2364   25.5845 O   0  0  0  0  0  0  0  0  0  0  0  0
   13.1281  -19.9612   26.0431 C   0  0  1  0  0  0  0  0  0  0  0  0
   12.0278  -19.4050   24.0718 N   0  0  0  0  0  0  0  0  0  0  0  0
   10.8717  -18.7562   23.4757 C   0  0  0  0  0  0  0  0  0  0  0  0
   12.0908  -20.8071   23.6541 O   0  0  0  0  0  0  0  0  0  0  0  0
   11.1755  -21.3946   23.0182 O   0  0  0  0  0  0  0  0  0  0  0  0
  2  1  1  6
  2 10  1  0
  3  2  1  0
  3  4  1  0
  4  9  2  0
  4  5  1  0
  5  6  2  0
  6  7  1  0
  8  7  2  0
  9  8  1  0
 10 20  1  0
 11 10  2  0
 13 12  1  0
 14 13  2  0
 15 13  1  0
 16 15  1  0
 17 16  1  0
 18 17  1  0
 19 18  1  6
 20 19  1  0
 21 19  1  0
 21 22  2  0
 24 23  1  1
 24 25  1  0
 26 27  1  1
 26 24  1  0
 27 21  1  0
 28 26  1  0
 29 28  2  0
 30 28  1  0
M  END
$$$$
