FRT.pdb
     RDKit          3D

 30 30  0  0  1  0  0  0  0  0999 V2000
    5.6861  -16.8306   25.6851 N   0  0  0  0  0  0  0  0  0  0  0  0
    6.5638  -15.8416   25.1331 C   0  0  1  0  0  0  0  0  0  0  0  0
    7.3875  -15.2817   26.2999 C   0  0  0  0  0  0  0  0  0  0  0  0
    7.1259  -13.8288   26.4672 C   0  0  0  0  0  0  0  0  0  0  0  0
    7.9993  -12.9083   25.9456 C   0  0  0  0  0  0  0  0  0  0  0  0
    7.7476  -11.5531   26.1033 C   0  0  0  0  0  0  0  0  0  0  0  0
    6.6176  -11.1241   26.7858 C   0  0  0  0  0  0  0  0  0  0  0  0
    5.7587  -12.0544   27.2983 C   0  0  0  0  0  0  0  0  0  0  0  0
    5.9949  -13.4030   27.1496 C   0  0  0  0  0  0  0  0  0  0  0  0
    7.5026  -16.3452   24.1211 C   0  0  0  0  0  0  0  0  0  0  0  0
    8.0085  -17.4869   24.2024 O   0  0  0  0  0  0  0  0  0  0  0  0
    8.0109  -15.3829   17.0319 N   0  0  0  0  0  0  0  0  0  0  0  0
    8.1554  -13.9921   17.3009 C   0  0  0  0  0  0  0  0  0  0  0  0
    8.4610  -13.2118   16.3355 N   0  0  0  0  0  0  0  0  0  0  0  0
    7.9732  -13.4515   18.5995 N   0  0  0  0  0  0  0  0  0  0  0  0
    7.1128  -14.0547   19.5883 C   0  0  0  0  0  0  0  0  0  0  0  0
    7.6650  -15.4279   19.8954 C   0  0  0  0  0  0  0  0  0  0  0  0
    8.8923  -15.3815   20.7509 C   0  0  0  0  0  0  0  0  0  0  0  0
    8.8156  -16.0548   22.0559 C   0  0  2  0  0  0  0  0  0  0  0  0
    7.8793  -15.5629   23.0089 N   0  0  0  0  0  0  0  0  0  0  0  0
   10.1799  -15.9376   22.6938 C   0  0  0  0  0  0  0  0  0  0  0  0
   10.6413  -14.8302   23.0805 O   0  0  0  0  0  0  0  0  0  0  0  0
    8.6303  -12.2082   16.4318 C   0  0  0  0  0  0  0  0  0  0  0  0
   11.6793  -17.8276   25.7200 C   0  0  2  0  0  0  0  0  0  0  0  0
   12.5645  -18.0642   24.5144 O   0  0  0  0  0  0  0  0  0  0  0  0
   12.1427  -19.2348   23.8675 C   0  0  2  0  0  0  0  0  0  0  0  0
   12.3346  -16.9459   23.5078 N   0  0  0  0  0  0  0  0  0  0  0  0
   11.0223  -17.0686   22.8948 C   0  0  0  0  0  0  0  0  0  0  0  0
   13.3705  -16.8858   22.4746 O   0  0  0  0  0  0  0  0  0  0  0  0
   13.1670  -17.1386   21.2573 O   0  0  0  0  0  0  0  0  0  0  0  0
  2  1  1  1
  2 10  1  0
  3  2  1  0
  3  4  1  0
  4  9  2  0
  4  5  1  0
  5  6  2  0
  6  7  1  0
  8  7  2  0
  9  8  1  0
 10 20  1  0
 11 10  2  0
 13 12  1  0
 14 13  2  0
 15 13  1  0
 16 15  1  0
 17 16  1  0
 18 17  1  0
 19 18  1  6
 20 19  1  0
 21 19  1  0
 21 22  2  0
 24 23  1  1
 24 25  1  0
 26 27  1  6
 26 24  1  0
 27 21  1  0
 28 26  1  0
 29 28  2  0
 30 28  1  0
M  END
$$$$
