FRT.pdb
     RDKit          3D

 30 30  0  0  1  0  0  0  0  0999 V2000
    5.8656  -18.0333   25.7658 N   0  0  0  0  0  0  0  0  0  0  0  0
    6.2443  -16.6844   25.4652 C   0  0  1  0  0  0  0  0  0  0  0  0
    6.9711  -16.1435   26.7031 C   0  0  0  0  0  0  0  0  0  0  0  0
    6.9557  -14.6579   26.7038 C   0  0  0  0  0  0  0  0  0  0  0  0
    5.7626  -13.9825   26.6514 C   0  0  0  0  0  0  0  0  0  0  0  0
    5.7554  -12.5952   26.6547 C   0  0  0  0  0  0  0  0  0  0  0  0
    6.9482  -11.8875   26.7106 C   0  0  0  0  0  0  0  0  0  0  0  0
    8.1266  -12.5761   26.7626 C   0  0  0  0  0  0  0  0  0  0  0  0
    8.1499  -13.9530   26.7603 C   0  0  0  0  0  0  0  0  0  0  0  0
    7.1465  -16.5384   24.3146 C   0  0  0  0  0  0  0  0  0  0  0  0
    7.9912  -17.4150   24.0247 O   0  0  0  0  0  0  0  0  0  0  0  0
    9.9597  -14.4643   17.5285 N   0  0  0  0  0  0  0  0  0  0  0  0
    8.6183  -14.0431   17.3032 C   0  0  0  0  0  0  0  0  0  0  0  0
    8.0535  -14.3658   16.2027 N   0  0  0  0  0  0  0  0  0  0  0  0
    7.8965  -13.2801   18.2564 N   0  0  0  0  0  0  0  0  0  0  0  0
    8.4883  -12.7801   19.4736 C   0  0  0  0  0  0  0  0  0  0  0  0
    8.7775  -13.9691   20.3612 C   0  0  0  0  0  0  0  0  0  0  0  0
    7.7590  -14.1462   21.4435 C   0  0  0  0  0  0  0  0  0  0  0  0
    7.9191  -15.3174   22.3182 C   0  0  2  0  0  0  0  0  0  0  0  0
    7.1035  -15.3999   23.4821 N   0  0  0  0  0  0  0  0  0  0  0  0
    9.3520  -15.3186   22.7964 C   0  0  0  0  0  0  0  0  0  0  0  0
    9.8278  -14.3700   23.4764 O   0  0  0  0  0  0  0  0  0  0  0  0
    7.1204  -14.0603   15.9179 C   0  0  0  0  0  0  0  0  0  0  0  0
   11.1872  -17.6750   25.0653 C   0  0  2  0  0  0  0  0  0  0  0  0
   11.9154  -17.6904   23.7377 O   0  0  0  0  0  0  0  0  0  0  0  0
   11.3737  -18.7068   22.9376 C   0  0  2  0  0  0  0  0  0  0  0  0
   11.6153  -16.3952   22.9967 N   0  0  0  0  0  0  0  0  0  0  0  0
   10.2465  -16.3889   22.5074 C   0  0  0  0  0  0  0  0  0  0  0  0
   12.5459  -16.1386   21.8956 O   0  0  0  0  0  0  0  0  0  0  0  0
   12.2324  -16.2083   20.6773 O   0  0  0  0  0  0  0  0  0  0  0  0
  2  1  1  1
  2 10  1  0
  3  2  1  0
  3  4  1  0
  4  9  2  0
  4  5  1  0
  5  6  2  0
  6  7  1  0
  8  7  2  0
  9  8  1  0
 10 20  1  0
 11 10  2  0
 13 12  1  0
 14 13  2  0
 15 13  1  0
 16 15  1  0
 17 16  1  0
 18 17  1  0
 19 18  1  1
 20 19  1  0
 21 19  1  0
 21 22  2  0
 24 23  1  1
 24 25  1  0
 26 27  1  6
 26 24  1  0
 27 21  1  0
 28 26  1  0
 29 28  2  0
 30 28  1  0
M  END
$$$$
