FRT.pdb
     RDKit          3D

 30 30  0  0  1  0  0  0  0  0999 V2000
    5.6935  -17.1114   26.5673 N   0  0  0  0  0  0  0  0  0  0  0  0
    6.5706  -16.3643   25.7154 C   0  0  1  0  0  0  0  0  0  0  0  0
    7.5277  -15.5938   26.6339 C   0  0  0  0  0  0  0  0  0  0  0  0
    7.2242  -14.1400   26.5941 C   0  0  0  0  0  0  0  0  0  0  0  0
    8.1230  -13.2647   26.0387 C   0  0  0  0  0  0  0  0  0  0  0  0
    7.8321  -11.9087   26.0027 C   0  0  0  0  0  0  0  0  0  0  0  0
    6.6373  -11.4333   26.5254 C   0  0  0  0  0  0  0  0  0  0  0  0
    5.7540  -12.3189   27.0743 C   0  0  0  0  0  0  0  0  0  0  0  0
    6.0285  -13.6677   27.1171 C   0  0  0  0  0  0  0  0  0  0  0  0
    7.3831  -17.1776   24.8003 C   0  0  0  0  0  0  0  0  0  0  0  0
    7.1356  -18.3876   24.5985 O   0  0  0  0  0  0  0  0  0  0  0  0
    9.9674  -12.6511   18.4188 N   0  0  0  0  0  0  0  0  0  0  0  0
    8.6790  -13.1432   18.0646 C   0  0  0  0  0  0  0  0  0  0  0  0
    8.2105  -12.8536   16.9110 N   0  0  0  0  0  0  0  0  0  0  0  0
    7.9053  -13.9379   18.9486 N   0  0  0  0  0  0  0  0  0  0  0  0
    8.2467  -14.1278   20.3376 C   0  0  0  0  0  0  0  0  0  0  0  0
    7.1204  -14.9037   20.9814 C   0  0  0  0  0  0  0  0  0  0  0  0
    7.3632  -15.1827   22.4316 C   0  0  0  0  0  0  0  0  0  0  0  0
    8.3569  -16.2191   22.7493 C   0  0  2  0  0  0  0  0  0  0  0  0
    8.4834  -16.6316   24.1059 N   0  0  0  0  0  0  0  0  0  0  0  0
    9.7057  -15.6785   22.3368 C   0  0  0  0  0  0  0  0  0  0  0  0
    9.8967  -14.4492   22.1341 O   0  0  0  0  0  0  0  0  0  0  0  0
    7.3154  -13.1878   16.5475 C   0  0  0  0  0  0  0  0  0  0  0  0
   11.6408  -17.6108   24.8074 C   0  0  2  0  0  0  0  0  0  0  0  0
   12.5656  -17.4494   23.6192 O   0  0  0  0  0  0  0  0  0  0  0  0
   12.4089  -18.5558   22.7718 C   0  0  2  0  0  0  0  0  0  0  0  0
   12.1099  -16.2503   22.8001 N   0  0  0  0  0  0  0  0  0  0  0  0
   10.8373  -16.5241   22.1532 C   0  0  0  0  0  0  0  0  0  0  0  0
   13.0999  -15.8276   21.8073 O   0  0  0  0  0  0  0  0  0  0  0  0
   12.9189  -15.8877   20.5620 O   0  0  0  0  0  0  0  0  0  0  0  0
  2  1  1  1
  2 10  1  0
  3  2  1  0
  3  4  1  0
  4  9  2  0
  4  5  1  0
  5  6  2  0
  6  7  1  0
  8  7  2  0
  9  8  1  0
 10 20  1  0
 11 10  2  0
 13 12  1  0
 14 13  2  0
 15 13  1  0
 16 15  1  0
 17 16  1  0
 18 17  1  0
 19 18  1  1
 20 19  1  0
 21 19  1  0
 21 22  2  0
 24 23  1  1
 24 25  1  0
 26 27  1  1
 26 24  1  0
 27 21  1  0
 28 26  1  0
 29 28  2  0
 30 28  1  0
M  END
$$$$
