FRT.pdb
     RDKit          3D

 30 30  0  0  1  0  0  0  0  0999 V2000
    5.8595  -18.1050   25.6415 N   0  0  0  0  0  0  0  0  0  0  0  0
    6.3433  -16.7816   25.3812 C   0  0  1  0  0  0  0  0  0  0  0  0
    6.8345  -16.2196   26.7215 C   0  0  0  0  0  0  0  0  0  0  0  0
    6.9088  -14.7369   26.6643 C   0  0  0  0  0  0  0  0  0  0  0  0
    8.1131  -14.1016   26.8326 C   0  0  0  0  0  0  0  0  0  0  0  0
    8.1757  -12.7168   26.7756 C   0  0  0  0  0  0  0  0  0  0  0  0
    7.0269  -11.9713   26.5494 C   0  0  0  0  0  0  0  0  0  0  0  0
    5.8365  -12.6203   26.3838 C   0  0  0  0  0  0  0  0  0  0  0  0
    5.7585  -13.9941   26.4374 C   0  0  0  0  0  0  0  0  0  0  0  0
    7.4585  -16.7085   24.4273 C   0  0  0  0  0  0  0  0  0  0  0  0
    8.2918  -17.6354   24.3161 O   0  0  0  0  0  0  0  0  0  0  0  0
    8.6523  -12.9187   16.6256 N   0  0  0  0  0  0  0  0  0  0  0  0
    8.1455  -13.9358   17.4836 C   0  0  0  0  0  0  0  0  0  0  0  0
    8.7129  -15.0813   17.4745 N   0  0  0  0  0  0  0  0  0  0  0  0
    7.0365  -13.7172   18.3404 N   0  0  0  0  0  0  0  0  0  0  0  0
    7.1653  -13.5664   19.7696 C   0  0  0  0  0  0  0  0  0  0  0  0
    7.9158  -14.7715   20.2887 C   0  0  0  0  0  0  0  0  0  0  0  0
    8.6183  -14.5040   21.5829 C   0  0  0  0  0  0  0  0  0  0  0  0
    8.6319  -15.5964   22.5672 C   0  0  2  0  0  0  0  0  0  0  0  0
    7.6432  -15.5868   23.5915 N   0  0  0  0  0  0  0  0  0  0  0  0
    9.9719  -15.5473   23.2628 C   0  0  0  0  0  0  0  0  0  0  0  0
   10.4117  -14.4886   23.7867 O   0  0  0  0  0  0  0  0  0  0  0  0
    8.4603  -15.8589   18.0882 C   0  0  0  0  0  0  0  0  0  0  0  0
   11.6474  -17.7077   26.0679 C   0  0  2  0  0  0  0  0  0  0  0  0
   12.4574  -17.8134   24.7928 O   0  0  0  0  0  0  0  0  0  0  0  0
   12.0046  -18.9207   24.0610 C   0  0  2  0  0  0  0  0  0  0  0  0
   12.1569  -16.6052   23.9173 N   0  0  0  0  0  0  0  0  0  0  0  0
   10.8143  -16.6912   23.3667 C   0  0  0  0  0  0  0  0  0  0  0  0
   13.1328  -16.4232   22.8409 O   0  0  0  0  0  0  0  0  0  0  0  0
   14.3324  -16.0860   23.0270 O   0  0  0  0  0  0  0  0  0  0  0  0
  2  1  1  1
  2 10  1  0
  3  2  1  0
  3  4  1  0
  4  9  2  0
  4  5  1  0
  5  6  2  0
  6  7  1  0
  8  7  2  0
  9  8  1  0
 10 20  1  0
 11 10  2  0
 13 12  1  0
 14 13  2  0
 15 13  1  0
 16 15  1  0
 17 16  1  0
 18 17  1  0
 19 18  1  6
 20 19  1  0
 21 19  1  0
 21 22  2  0
 24 23  1  1
 24 25  1  0
 26 27  1  6
 26 24  1  0
 27 21  1  0
 28 26  1  0
 29 28  2  0
 30 28  1  0
M  END
$$$$
