FRT.pdb
     RDKit          3D

 30 30  0  0  1  0  0  0  0  0999 V2000
    6.3373  -17.6047   20.9495 N   0  0  0  0  0  0  0  0  0  0  0  0
    7.1952  -16.6480   21.5835 C   0  0  1  0  0  0  0  0  0  0  0  0
    6.3734  -15.3641   21.7558 C   0  0  0  0  0  0  0  0  0  0  0  0
    7.0571  -14.2205   21.0983 C   0  0  0  0  0  0  0  0  0  0  0  0
    7.1407  -14.1637   19.7301 C   0  0  0  0  0  0  0  0  0  0  0  0
    7.7784  -13.0917   19.1226 C   0  0  0  0  0  0  0  0  0  0  0  0
    8.3320  -12.0773   19.8915 C   0  0  0  0  0  0  0  0  0  0  0  0
    8.2393  -12.1500   21.2523 C   0  0  0  0  0  0  0  0  0  0  0  0
    7.6092  -13.2074   21.8697 C   0  0  0  0  0  0  0  0  0  0  0  0
    7.6907  -17.0457   22.9084 C   0  0  0  0  0  0  0  0  0  0  0  0
    6.9468  -17.5931   23.7527 O   0  0  0  0  0  0  0  0  0  0  0  0
   12.2983  -19.8450   20.7394 N   0  0  0  0  0  0  0  0  0  0  0  0
   13.3238  -18.9355   21.1250 C   0  0  0  0  0  0  0  0  0  0  0  0
   13.9327  -18.2790   20.2126 N   0  0  0  0  0  0  0  0  0  0  0  0
   13.6881  -18.7396   22.4818 N   0  0  0  0  0  0  0  0  0  0  0  0
   12.7908  -18.9988   23.5816 C   0  0  0  0  0  0  0  0  0  0  0  0
   11.6336  -18.0335   23.4623 C   0  0  0  0  0  0  0  0  0  0  0  0
   10.6830  -18.1223   24.6149 C   0  0  0  0  0  0  0  0  0  0  0  0
    9.5015  -17.2483   24.5678 C   0  0  2  0  0  0  0  0  0  0  0  0
    9.0309  -16.8271   23.2919 N   0  0  0  0  0  0  0  0  0  0  0  0
    9.8499  -15.9934   25.3331 C   0  0  0  0  0  0  0  0  0  0  0  0
   10.6797  -15.1533   24.8921 O   0  0  0  0  0  0  0  0  0  0  0  0
   14.6793  -17.6022   20.3847 C   0  0  0  0  0  0  0  0  0  0  0  0
    8.1349  -12.9909   26.0950 C   0  0  2  0  0  0  0  0  0  0  0  0
    8.4590  -13.5456   27.4663 O   0  0  0  0  0  0  0  0  0  0  0  0
    7.3856  -14.3385   27.8976 C   0  0  2  0  0  0  0  0  0  0  0  0
    9.6381  -14.5003   27.3450 N   0  0  0  0  0  0  0  0  0  0  0  0
    9.2628  -15.6871   26.5944 C   0  0  0  0  0  0  0  0  0  0  0  0
   10.2005  -14.8808   28.6424 O   0  0  0  0  0  0  0  0  0  0  0  0
   10.2439  -16.0644   29.0717 O   0  0  0  0  0  0  0  0  0  0  0  0
  2  1  1  1
  2 10  1  0
  3  2  1  0
  3  4  1  0
  4  9  2  0
  4  5  1  0
  5  6  2  0
  6  7  1  0
  8  7  2  0
  9  8  1  0
 10 20  1  0
 11 10  2  0
 13 12  1  0
 14 13  2  0
 15 13  1  0
 16 15  1  0
 17 16  1  0
 18 17  1  0
 19 18  1  6
 20 19  1  0
 21 19  1  0
 21 22  2  0
 24 23  1  1
 24 25  1  0
 26 27  1  1
 26 24  1  0
 27 21  1  0
 28 26  1  0
 29 28  2  0
 30 28  1  0
M  END
$$$$
