FRT.pdb
     RDKit          3D

 30 30  0  0  1  0  0  0  0  0999 V2000
    5.7511  -17.3826   25.7017 N   0  0  0  0  0  0  0  0  0  0  0  0
    6.4122  -16.2040   25.2253 C   0  0  1  0  0  0  0  0  0  0  0  0
    7.2819  -15.6887   26.3792 C   0  0  0  0  0  0  0  0  0  0  0  0
    7.0791  -14.2290   26.5675 C   0  0  0  0  0  0  0  0  0  0  0  0
    5.8596  -13.6631   26.2937 C   0  0  0  0  0  0  0  0  0  0  0  0
    5.6765  -12.2997   26.4741 C   0  0  0  0  0  0  0  0  0  0  0  0
    6.7200  -11.5059   26.9296 C   0  0  0  0  0  0  0  0  0  0  0  0
    7.9273  -12.0861   27.1975 C   0  0  0  0  0  0  0  0  0  0  0  0
    8.1242  -13.4379   27.0237 C   0  0  0  0  0  0  0  0  0  0  0  0
    7.2859  -16.4135   24.0627 C   0  0  0  0  0  0  0  0  0  0  0  0
    7.6061  -17.5603   23.6777 O   0  0  0  0  0  0  0  0  0  0  0  0
    7.1756  -14.9001   17.3985 N   0  0  0  0  0  0  0  0  0  0  0  0
    8.4121  -14.2086   17.5421 C   0  0  0  0  0  0  0  0  0  0  0  0
    9.3740  -14.5074   16.7549 N   0  0  0  0  0  0  0  0  0  0  0  0
    8.6067  -13.2066   18.5269 N   0  0  0  0  0  0  0  0  0  0  0  0
    7.6162  -12.8827   19.5249 C   0  0  0  0  0  0  0  0  0  0  0  0
    7.4372  -14.1014   20.4011 C   0  0  0  0  0  0  0  0  0  0  0  0
    8.6718  -14.4469   21.1733 C   0  0  0  0  0  0  0  0  0  0  0  0
    8.5617  -15.5506   22.1389 C   0  0  2  0  0  0  0  0  0  0  0  0
    7.8071  -15.3291   23.3255 N   0  0  0  0  0  0  0  0  0  0  0  0
    9.9654  -15.8929   22.5798 C   0  0  0  0  0  0  0  0  0  0  0  0
   10.5630  -15.2321   23.4714 O   0  0  0  0  0  0  0  0  0  0  0  0
   10.2957  -14.0656   16.7710 C   0  0  0  0  0  0  0  0  0  0  0  0
   13.7550  -19.0911   22.6006 C   0  0  1  0  0  0  0  0  0  0  0  0
   12.3817  -18.7514   22.0602 O   0  0  0  0  0  0  0  0  0  0  0  0
   11.4340  -19.5731   22.6874 C   0  0  1  0  0  0  0  0  0  0  0  0
   12.0237  -17.3336   22.4822 N   0  0  0  0  0  0  0  0  0  0  0  0
   10.6935  -16.9793   22.0152 C   0  0  0  0  0  0  0  0  0  0  0  0
   12.9988  -16.3396   22.0291 O   0  0  0  0  0  0  0  0  0  0  0  0
   12.9806  -15.8033   20.8892 O   0  0  0  0  0  0  0  0  0  0  0  0
  2  1  1  1
  2 10  1  0
  3  2  1  0
  3  4  1  0
  4  9  2  0
  4  5  1  0
  5  6  2  0
  6  7  1  0
  8  7  2  0
  9  8  1  0
 10 20  1  0
 11 10  2  0
 13 12  1  0
 14 13  2  0
 15 13  1  0
 16 15  1  0
 17 16  1  0
 18 17  1  0
 19 18  1  6
 20 19  1  0
 21 19  1  0
 21 22  2  0
 24 23  1  6
 24 25  1  0
 26 27  1  6
 26 24  1  0
 27 21  1  0
 28 26  1  0
 29 28  2  0
 30 28  1  0
M  END
$$$$
