FRT.pdb
     RDKit          3D

 30 30  0  0  1  0  0  0  0  0999 V2000
    6.5640  -16.8012   26.0426 N   0  0  0  0  0  0  0  0  0  0  0  0
    6.8715  -15.7202   25.1536 C   0  0  1  0  0  0  0  0  0  0  0  0
    7.9883  -14.9056   25.8187 C   0  0  0  0  0  0  0  0  0  0  0  0
    7.4355  -13.6641   26.4188 C   0  0  0  0  0  0  0  0  0  0  0  0
    6.7074  -12.7930   25.6485 C   0  0  0  0  0  0  0  0  0  0  0  0
    6.1920  -11.6366   26.2160 C   0  0  0  0  0  0  0  0  0  0  0  0
    6.4092  -11.3566   27.5580 C   0  0  0  0  0  0  0  0  0  0  0  0
    7.1361  -12.2351   28.3101 C   0  0  0  0  0  0  0  0  0  0  0  0
    7.6538  -13.3871   27.7612 C   0  0  0  0  0  0  0  0  0  0  0  0
    7.3445  -16.1298   23.8241 C   0  0  0  0  0  0  0  0  0  0  0  0
    7.6909  -17.3078   23.5825 O   0  0  0  0  0  0  0  0  0  0  0  0
    7.7390  -12.9518   15.2585 N   0  0  0  0  0  0  0  0  0  0  0  0
    8.3923  -14.2048   15.4333 C   0  0  0  0  0  0  0  0  0  0  0  0
    8.8033  -14.8293   14.3963 N   0  0  0  0  0  0  0  0  0  0  0  0
    8.5973  -14.7770   16.7148 N   0  0  0  0  0  0  0  0  0  0  0  0
    8.1340  -14.1601   17.9342 C   0  0  0  0  0  0  0  0  0  0  0  0
    8.4598  -15.1000   19.0723 C   0  0  0  0  0  0  0  0  0  0  0  0
    7.8509  -14.6716   20.3707 C   0  0  0  0  0  0  0  0  0  0  0  0
    7.9745  -15.6052   21.5000 C   0  0  2  0  0  0  0  0  0  0  0  0
    7.4317  -15.2119   22.7560 N   0  0  0  0  0  0  0  0  0  0  0  0
    9.4507  -15.8354   21.7228 C   0  0  0  0  0  0  0  0  0  0  0  0
   10.0226  -15.4998   22.7948 O   0  0  0  0  0  0  0  0  0  0  0  0
    9.3142  -15.7144   14.4164 C   0  0  0  0  0  0  0  0  0  0  0  0
   11.2812  -16.8930   23.4509 C   0  0  2  0  0  0  0  0  0  0  0  0
   11.7576  -17.6797   22.2478 O   0  0  0  0  0  0  0  0  0  0  0  0
   10.8629  -18.7342   22.0151 C   0  0  2  0  0  0  0  0  0  0  0  0
   11.6635  -16.7952   21.0127 N   0  0  0  0  0  0  0  0  0  0  0  0
   10.2802  -16.4435   20.7373 C   0  0  0  0  0  0  0  0  0  0  0  0
   12.2754  -17.4013   19.8285 O   0  0  0  0  0  0  0  0  0  0  0  0
   11.6240  -17.8168   18.8333 O   0  0  0  0  0  0  0  0  0  0  0  0
  2  1  1  1
  2 10  1  0
  3  2  1  0
  3  4  1  0
  4  9  2  0
  4  5  1  0
  5  6  2  0
  6  7  1  0
  8  7  2  0
  9  8  1  0
 10 20  1  0
 11 10  2  0
 13 12  1  0
 14 13  2  0
 15 13  1  0
 16 15  1  0
 17 16  1  0
 18 17  1  0
 19 18  1  6
 20 19  1  0
 21 19  1  0
 21 22  2  0
 24 23  1  1
 24 25  1  0
 26 27  1  6
 26 24  1  0
 27 21  1  0
 28 26  1  0
 29 28  2  0
 30 28  1  0
M  END
$$$$
