FRT.pdb
     RDKit          3D

 30 30  0  0  1  0  0  0  0  0999 V2000
    6.2579  -17.2432   26.4127 N   0  0  0  0  0  0  0  0  0  0  0  0
    6.6835  -16.1099   25.6460 C   0  0  1  0  0  0  0  0  0  0  0  0
    7.7012  -15.3512   26.5073 C   0  0  0  0  0  0  0  0  0  0  0  0
    7.2460  -13.9558   26.7369 C   0  0  0  0  0  0  0  0  0  0  0  0
    8.0763  -13.0541   27.3532 C   0  0  0  0  0  0  0  0  0  0  0  0
    7.6456  -11.7519   27.5623 C   0  0  0  0  0  0  0  0  0  0  0  0
    6.3799  -11.3570   27.1515 C   0  0  0  0  0  0  0  0  0  0  0  0
    5.5667  -12.2678   26.5392 C   0  0  0  0  0  0  0  0  0  0  0  0
    5.9801  -13.5637   26.3245 C   0  0  0  0  0  0  0  0  0  0  0  0
    7.3311  -16.4370   24.3683 C   0  0  0  0  0  0  0  0  0  0  0  0
    7.6683  -17.6075   24.0815 O   0  0  0  0  0  0  0  0  0  0  0  0
    8.6639  -12.7164   16.1467 N   0  0  0  0  0  0  0  0  0  0  0  0
    8.6027  -14.1389   16.1279 C   0  0  0  0  0  0  0  0  0  0  0  0
    8.7337  -14.7412   15.0079 N   0  0  0  0  0  0  0  0  0  0  0  0
    8.4004  -14.9013   17.3066 N   0  0  0  0  0  0  0  0  0  0  0  0
    8.2112  -14.3038   18.6063 C   0  0  0  0  0  0  0  0  0  0  0  0
    8.1609  -15.4243   19.6196 C   0  0  0  0  0  0  0  0  0  0  0  0
    7.7126  -14.9641   20.9714 C   0  0  0  0  0  0  0  0  0  0  0  0
    8.1060  -15.7961   22.1183 C   0  0  2  0  0  0  0  0  0  0  0  0
    7.6048  -15.4444   23.4035 N   0  0  0  0  0  0  0  0  0  0  0  0
    9.6123  -15.7342   22.2126 C   0  0  0  0  0  0  0  0  0  0  0  0
   10.2146  -14.6861   22.5699 O   0  0  0  0  0  0  0  0  0  0  0  0
    8.6533  -15.7522   14.8798 C   0  0  0  0  0  0  0  0  0  0  0  0
   11.9643  -17.8531   24.2961 C   0  0  2  0  0  0  0  0  0  0  0  0
   12.3778  -18.0101   22.8478 O   0  0  0  0  0  0  0  0  0  0  0  0
   11.7011  -19.1106   22.3021 C   0  0  2  0  0  0  0  0  0  0  0  0
   11.8821  -16.8052   22.0610 N   0  0  0  0  0  0  0  0  0  0  0  0
   10.4378  -16.8534   21.9039 C   0  0  0  0  0  0  0  0  0  0  0  0
   12.5276  -16.6723   20.7534 O   0  0  0  0  0  0  0  0  0  0  0  0
   11.9273  -16.8087   19.6541 O   0  0  0  0  0  0  0  0  0  0  0  0
  2  1  1  1
  2 10  1  0
  3  2  1  0
  3  4  1  0
  4  9  2  0
  4  5  1  0
  5  6  2  0
  6  7  1  0
  8  7  2  0
  9  8  1  0
 10 20  1  0
 11 10  2  0
 13 12  1  0
 14 13  2  0
 15 13  1  0
 16 15  1  0
 17 16  1  0
 18 17  1  0
 19 18  1  6
 20 19  1  0
 21 19  1  0
 21 22  2  0
 24 23  1  1
 24 25  1  0
 26 27  1  6
 26 24  1  0
 27 21  1  0
 28 26  1  0
 29 28  2  0
 30 28  1  0
M  END
$$$$
