FRT.pdb
     RDKit          3D

 30 30  0  0  1  0  0  0  0  0999 V2000
    7.2992  -17.7926   20.0832 N   0  0  0  0  0  0  0  0  0  0  0  0
    7.8081  -16.6676   20.8103 C   0  0  1  0  0  0  0  0  0  0  0  0
    6.7229  -15.5843   20.7639 C   0  0  0  0  0  0  0  0  0  0  0  0
    7.3150  -14.2751   20.3864 C   0  0  0  0  0  0  0  0  0  0  0  0
    8.6744  -14.1486   20.2511 C   0  0  0  0  0  0  0  0  0  0  0  0
    9.2205  -12.9236   19.8960 C   0  0  0  0  0  0  0  0  0  0  0  0
    8.3992  -11.8262   19.6773 C   0  0  0  0  0  0  0  0  0  0  0  0
    7.0480  -11.9703   19.8162 C   0  0  0  0  0  0  0  0  0  0  0  0
    6.4912  -13.1797   20.1679 C   0  0  0  0  0  0  0  0  0  0  0  0
    8.1178  -16.9336   22.2218 C   0  0  0  0  0  0  0  0  0  0  0  0
    7.2754  -17.4393   22.9968 O   0  0  0  0  0  0  0  0  0  0  0  0
   13.7639  -20.8709   24.9592 N   0  0  0  0  0  0  0  0  0  0  0  0
   12.8125  -20.9854   26.0124 C   0  0  0  0  0  0  0  0  0  0  0  0
   12.4739  -22.1537   26.4054 N   0  0  0  0  0  0  0  0  0  0  0  0
   12.2324  -19.8491   26.6323 N   0  0  0  0  0  0  0  0  0  0  0  0
   12.4885  -18.4984   26.1944 C   0  0  0  0  0  0  0  0  0  0  0  0
   11.1513  -17.8415   25.9384 C   0  0  0  0  0  0  0  0  0  0  0  0
   10.9221  -17.5377   24.4910 C   0  0  0  0  0  0  0  0  0  0  0  0
    9.6562  -16.8736   24.1461 C   0  0  2  0  0  0  0  0  0  0  0  0
    9.3815  -16.6293   22.7708 N   0  0  0  0  0  0  0  0  0  0  0  0
    9.6644  -15.5260   24.8287 C   0  0  0  0  0  0  0  0  0  0  0  0
   10.4124  -14.5882   24.4419 O   0  0  0  0  0  0  0  0  0  0  0  0
   11.8338  -22.3427   27.1797 C   0  0  0  0  0  0  0  0  0  0  0  0
    7.4252  -12.7208   25.0735 C   0  0  2  0  0  0  0  0  0  0  0  0
    7.5650  -13.2153   26.4980 O   0  0  0  0  0  0  0  0  0  0  0  0
    6.5747  -14.1782   26.7406 C   0  0  2  0  0  0  0  0  0  0  0  0
    8.8867  -13.9579   26.6337 N   0  0  0  0  0  0  0  0  0  0  0  0
    8.8297  -15.2375   25.9464 C   0  0  0  0  0  0  0  0  0  0  0  0
    9.2924  -14.1514   28.0273 O   0  0  0  0  0  0  0  0  0  0  0  0
    9.4664  -15.2796   28.5604 O   0  0  0  0  0  0  0  0  0  0  0  0
  2  1  1  1
  2 10  1  0
  3  2  1  0
  3  4  1  0
  4  9  2  0
  4  5  1  0
  5  6  2  0
  6  7  1  0
  8  7  2  0
  9  8  1  0
 10 20  1  0
 11 10  2  0
 13 12  1  0
 14 13  2  0
 15 13  1  0
 16 15  1  0
 17 16  1  0
 18 17  1  0
 19 18  1  6
 20 19  1  0
 21 19  1  0
 21 22  2  0
 24 23  1  1
 24 25  1  0
 26 27  1  1
 26 24  1  0
 27 21  1  0
 28 26  1  0
 29 28  2  0
 30 28  1  0
M  END
$$$$
