FRT.pdb
     RDKit          3D

 30 30  0  0  1  0  0  0  0  0999 V2000
    5.9021  -17.9200   21.0351 N   0  0  0  0  0  0  0  0  0  0  0  0
    6.9541  -17.1239   20.4757 C   0  0  1  0  0  0  0  0  0  0  0  0
    7.1669  -15.9408   21.4288 C   0  0  0  0  0  0  0  0  0  0  0  0
    7.4015  -14.6922   20.6587 C   0  0  0  0  0  0  0  0  0  0  0  0
    6.4100  -14.1798   19.8608 C   0  0  0  0  0  0  0  0  0  0  0  0
    6.6350  -13.0121   19.1462 C   0  0  0  0  0  0  0  0  0  0  0  0
    7.8573  -12.3602   19.2342 C   0  0  0  0  0  0  0  0  0  0  0  0
    8.8330  -12.8843   20.0335 C   0  0  0  0  0  0  0  0  0  0  0  0
    8.6245  -14.0423   20.7491 C   0  0  0  0  0  0  0  0  0  0  0  0
    8.2406  -17.8179   20.3263 C   0  0  0  0  0  0  0  0  0  0  0  0
    8.6098  -18.7013   21.1321 O   0  0  0  0  0  0  0  0  0  0  0  0
   13.9104  -17.0963   16.0582 N   0  0  0  0  0  0  0  0  0  0  0  0
   13.3962  -18.3900   15.7588 C   0  0  0  0  0  0  0  0  0  0  0  0
   14.1947  -19.3877   15.7935 N   0  0  0  0  0  0  0  0  0  0  0  0
   12.0343  -18.6020   15.4240 N   0  0  0  0  0  0  0  0  0  0  0  0
   11.0568  -17.5410   15.3989 C   0  0  0  0  0  0  0  0  0  0  0  0
   10.2452  -17.6395   16.6704 C   0  0  0  0  0  0  0  0  0  0  0  0
   11.0406  -18.1578   17.8274 C   0  0  0  0  0  0  0  0  0  0  0  0
   10.3582  -18.2120   19.1289 C   0  0  2  0  0  0  0  0  0  0  0  0
    9.1223  -17.5190   19.2660 N   0  0  0  0  0  0  0  0  0  0  0  0
   11.3011  -17.6149   20.1469 C   0  0  0  0  0  0  0  0  0  0  0  0
   11.8157  -16.4751   19.9897 O   0  0  0  0  0  0  0  0  0  0  0  0
   13.9425  -20.3423   15.5286 C   0  0  0  0  0  0  0  0  0  0  0  0
   10.5737  -17.0310   23.8011 C   0  0  2  0  0  0  0  0  0  0  0  0
   11.8441  -17.8530   23.7398 O   0  0  0  0  0  0  0  0  0  0  0  0
   11.5065  -19.2119   23.8183 C   0  0  2  0  0  0  0  0  0  0  0  0
   12.4785  -17.6769   22.3676 N   0  0  0  0  0  0  0  0  0  0  0  0
   11.6626  -18.3033   21.3405 C   0  0  0  0  0  0  0  0  0  0  0  0
   13.8498  -18.1864   22.3030 O   0  0  0  0  0  0  0  0  0  0  0  0
   14.2048  -19.1665   21.5954 O   0  0  0  0  0  0  0  0  0  0  0  0
  2  1  1  1
  2 10  1  0
  3  2  1  0
  3  4  1  0
  4  9  2  0
  4  5  1  0
  5  6  2  0
  6  7  1  0
  8  7  2  0
  9  8  1  0
 10 20  1  0
 11 10  2  0
 13 12  1  0
 14 13  2  0
 15 13  1  0
 16 15  1  0
 17 16  1  0
 18 17  1  0
 19 18  1  6
 20 19  1  0
 21 19  1  0
 21 22  2  0
 24 23  1  1
 24 25  1  0
 26 27  1  1
 26 24  1  0
 27 21  1  0
 28 26  1  0
 29 28  2  0
 30 28  1  0
M  END
$$$$
