FRT.pdb
     RDKit          3D

 30 30  0  0  1  0  0  0  0  0999 V2000
    5.5832  -17.7802   25.3147 N   0  0  0  0  0  0  0  0  0  0  0  0
    6.2528  -16.5181   25.2052 C   0  0  1  0  0  0  0  0  0  0  0  0
    6.9092  -16.2472   26.5650 C   0  0  0  0  0  0  0  0  0  0  0  0
    7.2721  -14.8117   26.6871 C   0  0  0  0  0  0  0  0  0  0  0  0
    6.2898  -13.8625   26.8150 C   0  0  0  0  0  0  0  0  0  0  0  0
    6.6359  -12.5239   26.9310 C   0  0  0  0  0  0  0  0  0  0  0  0
    7.9699  -12.1405   26.9181 C   0  0  0  0  0  0  0  0  0  0  0  0
    8.9347  -13.0989   26.7902 C   0  0  0  0  0  0  0  0  0  0  0  0
    8.6069  -14.4313   26.6744 C   0  0  0  0  0  0  0  0  0  0  0  0
    7.3038  -16.4638   24.1799 C   0  0  0  0  0  0  0  0  0  0  0  0
    8.0033  -17.4630   23.9003 O   0  0  0  0  0  0  0  0  0  0  0  0
    7.3629  -15.3824   17.5755 N   0  0  0  0  0  0  0  0  0  0  0  0
    7.8505  -14.0814   17.2641 C   0  0  0  0  0  0  0  0  0  0  0  0
    8.2877  -13.8593   16.0836 N   0  0  0  0  0  0  0  0  0  0  0  0
    7.8670  -13.0329   18.2192 N   0  0  0  0  0  0  0  0  0  0  0  0
    7.2635  -13.1494   19.5246 C   0  0  0  0  0  0  0  0  0  0  0  0
    7.7958  -14.4130   20.1611 C   0  0  0  0  0  0  0  0  0  0  0  0
    8.5048  -14.1568   21.4540 C   0  0  0  0  0  0  0  0  0  0  0  0
    8.5437  -15.2657   22.4190 C   0  0  2  0  0  0  0  0  0  0  0  0
    7.5750  -15.2796   23.4621 N   0  0  0  0  0  0  0  0  0  0  0  0
    9.8966  -15.2202   23.0894 C   0  0  0  0  0  0  0  0  0  0  0  0
   10.2821  -14.2140   23.7434 O   0  0  0  0  0  0  0  0  0  0  0  0
    8.6600  -12.9633   15.7616 C   0  0  0  0  0  0  0  0  0  0  0  0
   11.4836  -17.2768   25.7713 C   0  0  2  0  0  0  0  0  0  0  0  0
   12.3664  -17.4243   24.5498 O   0  0  0  0  0  0  0  0  0  0  0  0
   11.9447  -18.5458   23.8209 C   0  0  2  0  0  0  0  0  0  0  0  0
   12.1326  -16.2365   23.6272 N   0  0  0  0  0  0  0  0  0  0  0  0
   10.8131  -16.3086   23.0217 C   0  0  0  0  0  0  0  0  0  0  0  0
   13.1578  -16.1092   22.5894 O   0  0  0  0  0  0  0  0  0  0  0  0
   12.9506  -16.3202   21.3647 O   0  0  0  0  0  0  0  0  0  0  0  0
  2  1  1  1
  2 10  1  0
  3  2  1  0
  3  4  1  0
  4  9  2  0
  4  5  1  0
  5  6  2  0
  6  7  1  0
  8  7  2  0
  9  8  1  0
 10 20  1  0
 11 10  2  0
 13 12  1  0
 14 13  2  0
 15 13  1  0
 16 15  1  0
 17 16  1  0
 18 17  1  0
 19 18  1  6
 20 19  1  0
 21 19  1  0
 21 22  2  0
 24 23  1  1
 24 25  1  0
 26 27  1  6
 26 24  1  0
 27 21  1  0
 28 26  1  0
 29 28  2  0
 30 28  1  0
M  END
$$$$
