SAG.pdb
     RDKit          3D

 16 15  0  0  1  0  0  0  0  0999 V2000
   14.1205   -8.6560  -12.2493 O   0  0  0  0  0  0  0  0  0  0  0  0
   15.4533   -8.2476  -12.4850 C   0  0  0  0  0  0  0  0  0  0  0  0
   16.4017   -9.1788  -11.7463 C   0  0  2  0  0  0  0  0  0  0  0  0
   16.2258   -9.1285  -10.3345 N   0  0  0  0  0  0  0  0  0  0  0  0
   17.7866   -8.7548  -12.0966 C   0  0  0  0  0  0  0  0  0  0  0  0
   18.4099   -7.9288  -11.3815 O   0  0  0  0  0  0  0  0  0  0  0  0
   20.3322   -9.7376  -14.6893 C   0  0  0  0  0  0  0  0  0  0  0  0
   19.7920   -8.8127  -13.6247 C   0  0  2  0  0  0  0  0  0  0  0  0
   18.4656   -9.2593  -13.2471 N   0  0  0  0  0  0  0  0  0  0  0  0
   19.7732   -7.3942  -14.0834 C   0  0  0  0  0  0  0  0  0  0  0  0
   18.7938   -6.9646  -14.7419 O   0  0  0  0  0  0  0  0  0  0  0  0
   20.8714   -6.5749  -13.7565 N   0  0  0  0  0  0  0  0  0  0  0  0
   20.9115   -5.2067  -14.2428 C   0  0  0  0  0  0  0  0  0  0  0  0
   22.1824   -4.5417  -13.8786 C   0  0  0  0  0  0  0  0  0  0  0  0
   22.1216   -3.6205  -13.0221 O   0  0  0  0  0  0  0  0  0  0  0  0
   23.4132   -4.8813  -14.4279 O   0  0  0  0  0  0  0  0  0  0  0  0
  2  1  1  0
  3  2  1  0
  3  4  1  1
  5  6  2  0
  5  3  1  0
  8  7  1  6
  8  9  1  0
  9  5  1  0
 10 12  1  0
 10  8  1  0
 11 10  2  0
 13 14  1  0
 13 12  1  0
 14 16  1  0
 15 14  2  0
M  END
$$$$
