SAG.pdb
     RDKit          3D

 16 15  0  0  1  0  0  0  0  0999 V2000
   19.0394  -11.3930  -17.5703 O   0  0  0  0  0  0  0  0  0  0  0  0
   17.9898  -10.4526  -17.4578 C   0  0  0  0  0  0  0  0  0  0  0  0
   18.5783   -9.0554  -17.3399 C   0  0  2  0  0  0  0  0  0  0  0  0
   19.4691   -8.7471  -18.4067 N   0  0  0  0  0  0  0  0  0  0  0  0
   19.3085   -9.0001  -16.0421 C   0  0  0  0  0  0  0  0  0  0  0  0
   18.7045   -9.1757  -14.9529 O   0  0  0  0  0  0  0  0  0  0  0  0
   22.7340   -9.4286  -14.8576 C   0  0  0  0  0  0  0  0  0  0  0  0
   21.4288   -8.6828  -14.7140 C   0  0  2  0  0  0  0  0  0  0  0  0
   20.7124   -8.7483  -15.9725 N   0  0  0  0  0  0  0  0  0  0  0  0
   21.6439   -7.2701  -14.2888 C   0  0  0  0  0  0  0  0  0  0  0  0
   22.2012   -7.0275  -13.1897 O   0  0  0  0  0  0  0  0  0  0  0  0
   21.2077   -6.2430  -15.1485 N   0  0  0  0  0  0  0  0  0  0  0  0
   21.4259   -4.8568  -14.7732 C   0  0  0  0  0  0  0  0  0  0  0  0
   20.1771   -4.2253  -14.2916 C   0  0  0  0  0  0  0  0  0  0  0  0
   19.2206   -4.9929  -14.0057 O   0  0  0  0  0  0  0  0  0  0  0  0
   20.0166   -2.8525  -14.1442 O   0  0  0  0  0  0  0  0  0  0  0  0
  2  1  1  0
  3  2  1  0
  3  4  1  6
  5  6  2  0
  5  3  1  0
  8  7  1  6
  8  9  1  0
  9  5  1  0
 10 12  1  0
 10  8  1  0
 11 10  2  0
 13 14  1  0
 13 12  1  0
 14 16  1  0
 15 14  2  0
M  END
$$$$
