SAG.pdb
     RDKit          3D

 16 15  0  0  1  0  0  0  0  0999 V2000
   16.2565  -11.9092  -14.4758 O   0  0  0  0  0  0  0  0  0  0  0  0
   17.4580  -11.1659  -14.5249 C   0  0  0  0  0  0  0  0  0  0  0  0
   18.1074  -11.3508  -15.8874 C   0  0  2  0  0  0  0  0  0  0  0  0
   18.6137  -12.6679  -16.0759 N   0  0  0  0  0  0  0  0  0  0  0  0
   19.2220  -10.3656  -15.9741 C   0  0  0  0  0  0  0  0  0  0  0  0
   20.3727  -10.6532  -15.5553 O   0  0  0  0  0  0  0  0  0  0  0  0
   19.6937   -6.9921  -17.5684 C   0  0  0  0  0  0  0  0  0  0  0  0
   20.1279   -8.1121  -16.6533 C   0  0  2  0  0  0  0  0  0  0  0  0
   19.0406   -9.0629  -16.5301 N   0  0  0  0  0  0  0  0  0  0  0  0
   20.5516   -7.6015  -15.3181 C   0  0  0  0  0  0  0  0  0  0  0  0
   19.7087   -7.5013  -14.3925 O   0  0  0  0  0  0  0  0  0  0  0  0
   21.9027   -7.2446  -15.1407 N   0  0  0  0  0  0  0  0  0  0  0  0
   22.3653   -6.8300  -13.8276 C   0  0  0  0  0  0  0  0  0  0  0  0
   22.2139   -5.3700  -13.6384 C   0  0  0  0  0  0  0  0  0  0  0  0
   21.6654   -4.7257  -14.5711 O   0  0  0  0  0  0  0  0  0  0  0  0
   22.6409   -4.6933  -12.5019 O   0  0  0  0  0  0  0  0  0  0  0  0
  2  1  1  0
  3  2  1  0
  3  4  1  1
  5  6  2  0
  5  3  1  0
  8  7  1  6
  8  9  1  0
  9  5  1  0
 10 12  1  0
 10  8  1  0
 11 10  2  0
 13 14  1  0
 13 12  1  0
 14 16  1  0
 15 14  2  0
M  END
$$$$
