SAG.pdb
     RDKit          3D

 16 15  0  0  1  0  0  0  0  0999 V2000
   22.7554   -9.6516  -16.6087 O   0  0  0  0  0  0  0  0  0  0  0  0
   21.7076   -9.7046  -17.5563 C   0  0  0  0  0  0  0  0  0  0  0  0
   20.3943   -9.9726  -16.8381 C   0  0  2  0  0  0  0  0  0  0  0  0
   19.3045  -10.1395  -17.7388 N   0  0  0  0  0  0  0  0  0  0  0  0
   20.1391   -8.8036  -15.9499 C   0  0  0  0  0  0  0  0  0  0  0  0
   19.7836   -7.6953  -16.4268 O   0  0  0  0  0  0  0  0  0  0  0  0
   19.8399   -8.2337  -12.2570 C   0  0  0  0  0  0  0  0  0  0  0  0
   20.0799   -7.7403  -13.6639 C   0  0  2  0  0  0  0  0  0  0  0  0
   20.2837   -8.8836  -14.5316 N   0  0  0  0  0  0  0  0  0  0  0  0
   21.2355   -6.8005  -13.7299 C   0  0  0  0  0  0  0  0  0  0  0  0
   22.3949   -7.2493  -13.9082 O   0  0  0  0  0  0  0  0  0  0  0  0
   20.9810   -5.4224  -13.5877 N   0  0  0  0  0  0  0  0  0  0  0  0
   22.0824   -4.4797  -13.6781 C   0  0  0  0  0  0  0  0  0  0  0  0
   21.6069   -3.0824  -13.5701 C   0  0  0  0  0  0  0  0  0  0  0  0
   20.3656   -2.8913  -13.6631 O   0  0  0  0  0  0  0  0  0  0  0  0
   22.4510   -1.9955  -13.3748 O   0  0  0  0  0  0  0  0  0  0  0  0
  2  1  1  0
  3  2  1  0
  3  4  1  6
  5  6  2  0
  5  3  1  0
  8  7  1  1
  8  9  1  0
  9  5  1  0
 10 12  1  0
 10  8  1  0
 11 10  2  0
 13 14  1  0
 13 12  1  0
 14 16  1  0
 15 14  2  0
M  END
$$$$
