SAG.pdb
     RDKit          3D

 16 15  0  0  1  0  0  0  0  0999 V2000
   15.3875   -9.9127   -9.7593 O   0  0  0  0  0  0  0  0  0  0  0  0
   16.5264   -9.5817  -10.5288 C   0  0  0  0  0  0  0  0  0  0  0  0
   16.4099  -10.2266  -11.9010 C   0  0  2  0  0  0  0  0  0  0  0  0
   16.4431  -11.6485  -11.8397 N   0  0  0  0  0  0  0  0  0  0  0  0
   17.5572   -9.7306  -12.7123 C   0  0  0  0  0  0  0  0  0  0  0  0
   18.7041  -10.2306  -12.5829 O   0  0  0  0  0  0  0  0  0  0  0  0
   17.9369   -7.4620  -15.6753 C   0  0  0  0  0  0  0  0  0  0  0  0
   18.5046   -8.2384  -14.5111 C   0  0  2  0  0  0  0  0  0  0  0  0
   17.4124   -8.6765  -13.6646 N   0  0  0  0  0  0  0  0  0  0  0  0
   19.4945   -7.4328  -13.7404 C   0  0  0  0  0  0  0  0  0  0  0  0
   19.1164   -6.7650  -12.7461 O   0  0  0  0  0  0  0  0  0  0  0  0
   20.8386   -7.4503  -14.1617 N   0  0  0  0  0  0  0  0  0  0  0  0
   21.8502   -6.7968  -13.3496 C   0  0  0  0  0  0  0  0  0  0  0  0
   21.9730   -5.3623  -13.6920 C   0  0  0  0  0  0  0  0  0  0  0  0
   21.2037   -4.9189  -14.5849 O   0  0  0  0  0  0  0  0  0  0  0  0
   22.8801   -4.5015  -13.0849 O   0  0  0  0  0  0  0  0  0  0  0  0
  2  1  1  0
  3  2  1  0
  3  4  1  1
  5  6  2  0
  5  3  1  0
  8  7  1  6
  8  9  1  0
  9  5  1  0
 10 12  1  0
 10  8  1  0
 11 10  2  0
 13 14  1  0
 13 12  1  0
 14 16  1  0
 15 14  2  0
M  END
$$$$
