SAG.pdb
     RDKit          3D

 16 15  0  0  1  0  0  0  0  0999 V2000
   16.7964   -9.2361  -14.9787 O   0  0  0  0  0  0  0  0  0  0  0  0
   18.1310   -8.7742  -15.0429 C   0  0  0  0  0  0  0  0  0  0  0  0
   18.9992   -9.8373  -15.6976 C   0  0  2  0  0  0  0  0  0  0  0  0
   18.8753  -11.1072  -15.0662 N   0  0  0  0  0  0  0  0  0  0  0  0
   20.4090   -9.3639  -15.6044 C   0  0  0  0  0  0  0  0  0  0  0  0
   21.1690   -9.7733  -14.6895 O   0  0  0  0  0  0  0  0  0  0  0  0
   22.7367   -7.6324  -17.9493 C   0  0  0  0  0  0  0  0  0  0  0  0
   22.3695   -8.0980  -16.5604 C   0  0  2  0  0  0  0  0  0  0  0  0
   20.9596   -8.4340  -16.5378 N   0  0  0  0  0  0  0  0  0  0  0  0
   22.6959   -7.0715  -15.5296 C   0  0  0  0  0  0  0  0  0  0  0  0
   23.8933   -6.7533  -15.3235 O   0  0  0  0  0  0  0  0  0  0  0  0
   21.6332   -6.4868  -14.8134 N   0  0  0  0  0  0  0  0  0  0  0  0
   21.9193   -5.4803  -13.8059 C   0  0  0  0  0  0  0  0  0  0  0  0
   21.7740   -4.1129  -14.3529 C   0  0  0  0  0  0  0  0  0  0  0  0
   21.5154   -4.0121  -15.5812 O   0  0  0  0  0  0  0  0  0  0  0  0
   21.9074   -2.9601  -13.5878 O   0  0  0  0  0  0  0  0  0  0  0  0
  2  1  1  0
  3  2  1  0
  3  4  1  1
  5  6  2  0
  5  3  1  0
  8  7  1  6
  8  9  1  0
  9  5  1  0
 10 12  1  0
 10  8  1  0
 11 10  2  0
 13 14  1  0
 13 12  1  0
 14 16  1  0
 15 14  2  0
M  END
$$$$
