SAG.pdb
     RDKit          3D

 16 15  0  0  1  0  0  0  0  0999 V2000
   16.3892   -9.6810  -17.4426 O   0  0  0  0  0  0  0  0  0  0  0  0
   17.1385   -9.1370  -16.3743 C   0  0  0  0  0  0  0  0  0  0  0  0
   18.1423  -10.1704  -15.8877 C   0  0  2  0  0  0  0  0  0  0  0  0
   17.5214  -11.2540  -15.2043 N   0  0  0  0  0  0  0  0  0  0  0  0
   19.0793   -9.4657  -14.9680 C   0  0  0  0  0  0  0  0  0  0  0  0
   18.7050   -9.0905  -13.8273 O   0  0  0  0  0  0  0  0  0  0  0  0
   22.7298   -8.5857  -14.9447 C   0  0  0  0  0  0  0  0  0  0  0  0
   21.2990   -8.3559  -14.5196 C   0  0  2  0  0  0  0  0  0  0  0  0
   20.4312   -9.1853  -15.3322 N   0  0  0  0  0  0  0  0  0  0  0  0
   20.9178   -6.9179  -14.6183 C   0  0  0  0  0  0  0  0  0  0  0  0
   20.3207   -6.4998  -15.6410 O   0  0  0  0  0  0  0  0  0  0  0  0
   21.2463   -6.0675  -13.5444 N   0  0  0  0  0  0  0  0  0  0  0  0
   20.9266   -4.6532  -13.6299 C   0  0  0  0  0  0  0  0  0  0  0  0
   21.8969   -3.9314  -14.4830 C   0  0  0  0  0  0  0  0  0  0  0  0
   22.8141   -4.6142  -15.0106 O   0  0  0  0  0  0  0  0  0  0  0  0
   21.8418   -2.5634  -14.7226 O   0  0  0  0  0  0  0  0  0  0  0  0
  2  1  1  0
  3  2  1  0
  3  4  1  1
  5  6  2  0
  5  3  1  0
  8  7  1  6
  8  9  1  0
  9  5  1  0
 10 12  1  0
 10  8  1  0
 11 10  2  0
 13 14  1  0
 13 12  1  0
 14 16  1  0
 15 14  2  0
M  END
$$$$
