SAG.pdb
     RDKit          3D

 16 15  0  0  1  0  0  0  0  0999 V2000
   24.2650   -7.0476  -20.2276 O   0  0  0  0  0  0  0  0  0  0  0  0
   25.1786   -8.1265  -20.2231 C   0  0  0  0  0  0  0  0  0  0  0  0
   24.4704   -9.3821  -19.7391 C   0  0  2  0  0  0  0  0  0  0  0  0
   23.2938   -9.6674  -20.4879 N   0  0  0  0  0  0  0  0  0  0  0  0
   24.1152   -9.1562  -18.3096 C   0  0  0  0  0  0  0  0  0  0  0  0
   22.9469   -8.8287  -17.9782 O   0  0  0  0  0  0  0  0  0  0  0  0
   25.8608   -9.6218  -15.0084 C   0  0  0  0  0  0  0  0  0  0  0  0
   24.7292   -9.1046  -15.8642 C   0  0  2  0  0  0  0  0  0  0  0  0
   25.0719   -9.2987  -17.2592 N   0  0  0  0  0  0  0  0  0  0  0  0
   24.4294   -7.6727  -15.5767 C   0  0  0  0  0  0  0  0  0  0  0  0
   25.1077   -6.7707  -16.1278 O   0  0  0  0  0  0  0  0  0  0  0  0
   23.3802   -7.3790  -14.6838 N   0  0  0  0  0  0  0  0  0  0  0  0
   23.0835   -5.9941  -14.3613 C   0  0  0  0  0  0  0  0  0  0  0  0
   22.1352   -5.4052  -15.3330 C   0  0  0  0  0  0  0  0  0  0  0  0
   21.7865   -4.2105  -15.1406 O   0  0  0  0  0  0  0  0  0  0  0  0
   21.6235   -6.0971  -16.4246 O   0  0  0  0  0  0  0  0  0  0  0  0
  2  1  1  0
  3  2  1  0
  3  4  1  6
  5  6  2  0
  5  3  1  0
  8  7  1  1
  8  9  1  0
  9  5  1  0
 10 12  1  0
 10  8  1  0
 11 10  2  0
 13 14  1  0
 13 12  1  0
 14 16  1  0
 15 14  2  0
M  END
$$$$
