SAG.pdb
     RDKit          3D

 16 15  0  0  1  0  0  0  0  0999 V2000
   23.1770  -12.3452  -14.1126 O   0  0  0  0  0  0  0  0  0  0  0  0
   23.1243  -10.9710  -14.4404 C   0  0  0  0  0  0  0  0  0  0  0  0
   22.7528  -10.8188  -15.9071 C   0  0  2  0  0  0  0  0  0  0  0  0
   23.7480  -11.3440  -16.7791 N   0  0  0  0  0  0  0  0  0  0  0  0
   22.5788   -9.3609  -16.1616 C   0  0  0  0  0  0  0  0  0  0  0  0
   23.5361   -8.6589  -16.5776 O   0  0  0  0  0  0  0  0  0  0  0  0
   19.6444   -7.1299  -16.6454 C   0  0  0  0  0  0  0  0  0  0  0  0
   21.1101   -7.3181  -16.3342 C   0  0  2  0  0  0  0  0  0  0  0  0
   21.3324   -8.6977  -15.9484 N   0  0  0  0  0  0  0  0  0  0  0  0
   21.5741   -6.3798  -15.2725 C   0  0  0  0  0  0  0  0  0  0  0  0
   21.6015   -6.7574  -14.0750 O   0  0  0  0  0  0  0  0  0  0  0  0
   21.9708   -5.0840  -15.6570 N   0  0  0  0  0  0  0  0  0  0  0  0
   22.5186   -4.1798  -14.6609 C   0  0  0  0  0  0  0  0  0  0  0  0
   21.4550   -3.3737  -14.0211 C   0  0  0  0  0  0  0  0  0  0  0  0
   20.2715   -3.5876  -14.3947 O   0  0  0  0  0  0  0  0  0  0  0  0
   21.6991   -2.4122  -13.0475 O   0  0  0  0  0  0  0  0  0  0  0  0
  2  1  1  0
  3  2  1  0
  3  4  1  6
  5  6  2  0
  5  3  1  0
  8  7  1  1
  8  9  1  0
  9  5  1  0
 10 12  1  0
 10  8  1  0
 11 10  2  0
 13 14  1  0
 13 12  1  0
 14 16  1  0
 15 14  2  0
M  END
$$$$
