SAG.pdb
     RDKit          3D

 16 15  0  0  1  0  0  0  0  0999 V2000
   25.4110  -23.1949  -17.4374 O   0  0  0  0  0  0  0  0  0  0  0  0
   24.4048  -22.7123  -16.5695 C   0  0  0  0  0  0  0  0  0  0  0  0
   24.9549  -21.5471  -15.7619 C   0  0  2  0  0  0  0  0  0  0  0  0
   26.1263  -21.8949  -15.0313 N   0  0  0  0  0  0  0  0  0  0  0  0
   23.8800  -21.1264  -14.8196 C   0  0  0  0  0  0  0  0  0  0  0  0
   23.7867  -21.6398  -13.6751 O   0  0  0  0  0  0  0  0  0  0  0  0
   21.3163  -18.4083  -14.6510 C   0  0  0  0  0  0  0  0  0  0  0  0
   21.8030  -19.7939  -14.2994 C   0  0  2  0  0  0  0  0  0  0  0  0
   22.9151  -20.1323  -15.1655 N   0  0  0  0  0  0  0  0  0  0  0  0
   20.7122  -20.8050  -14.4025 C   0  0  0  0  0  0  0  0  0  0  0  0
   20.5600  -21.4518  -15.4683 O   0  0  0  0  0  0  0  0  0  0  0  0
   19.8791  -21.0012  -13.2837 N   0  0  0  0  0  0  0  0  0  0  0  0
   18.8517  -22.0270  -13.3293 C   0  0  0  0  0  0  0  0  0  0  0  0
   17.6526  -21.5575  -14.0586 C   0  0  0  0  0  0  0  0  0  0  0  0
   16.9045  -22.4389  -14.5579 O   0  0  0  0  0  0  0  0  0  0  0  0
   17.3227  -20.2161  -14.2136 O   0  0  0  0  0  0  0  0  0  0  0  0
  2  1  1  0
  3  2  1  0
  3  4  1  1
  5  6  2  0
  5  3  1  0
  8  7  1  6
  8  9  1  0
  9  5  1  0
 10 12  1  0
 10  8  1  0
 11 10  2  0
 13 14  1  0
 13 12  1  0
 14 16  1  0
 15 14  2  0
M  END
$$$$
