SAG.pdb
     RDKit          3D

 16 15  0  0  1  0  0  0  0  0999 V2000
   18.1836  -12.7743  -14.4693 O   0  0  0  0  0  0  0  0  0  0  0  0
   18.5055  -11.3988  -14.5239 C   0  0  0  0  0  0  0  0  0  0  0  0
   18.6150  -10.9662  -15.9776 C   0  0  2  0  0  0  0  0  0  0  0  0
   19.6211  -11.6829  -16.6854 N   0  0  0  0  0  0  0  0  0  0  0  0
   18.9407   -9.5121  -15.9742 C   0  0  0  0  0  0  0  0  0  0  0  0
   20.0906   -9.1067  -16.2833 O   0  0  0  0  0  0  0  0  0  0  0  0
   16.9506   -6.3421  -15.6062 C   0  0  0  0  0  0  0  0  0  0  0  0
   18.2524   -7.0999  -15.7141 C   0  0  2  0  0  0  0  0  0  0  0  0
   17.9752   -8.5199  -15.6243 N   0  0  0  0  0  0  0  0  0  0  0  0
   19.2276   -6.6737  -14.6699 C   0  0  0  0  0  0  0  0  0  0  0  0
   19.2846   -7.2942  -13.5794 O   0  0  0  0  0  0  0  0  0  0  0  0
   20.0623   -5.5738  -14.9487 N   0  0  0  0  0  0  0  0  0  0  0  0
   21.0783   -5.1862  -13.9857 C   0  0  0  0  0  0  0  0  0  0  0  0
   22.4255   -5.6191  -14.4191 C   0  0  0  0  0  0  0  0  0  0  0  0
   22.6577   -6.8568  -14.4161 O   0  0  0  0  0  0  0  0  0  0  0  0
   23.4241   -4.7394  -14.8204 O   0  0  0  0  0  0  0  0  0  0  0  0
  2  1  1  0
  3  2  1  0
  3  4  1  1
  5  6  2  0
  5  3  1  0
  8  7  1  1
  8  9  1  0
  9  5  1  0
 10 12  1  0
 10  8  1  0
 11 10  2  0
 13 14  1  0
 13 12  1  0
 14 16  1  0
 15 14  2  0
M  END
$$$$
