LCA.pdb
     RDKit          3D

 20 19  0  0  1  0  0  0  0  0999 V2000
    7.5483  -11.5527   25.6283 C   0  0  0  0  0  0  0  0  0  0  0  0
    6.5265  -12.6292   25.7216 C   0  0  1  0  0  0  0  0  0  0  0  0
    5.2033  -12.0444   26.1768 C   0  0  0  0  0  0  0  0  0  0  0  0
    6.3936  -13.3994   24.4405 C   0  0  0  0  0  0  0  0  0  0  0  0
    7.6379  -14.1703   24.1795 C   0  0  2  0  0  0  0  0  0  0  0  0
    7.6573  -14.8268   22.8947 N   0  0  0  0  0  0  0  0  0  0  0  0
    7.9143  -15.1520   25.2834 C   0  0  0  0  0  0  0  0  0  0  0  0
    7.8834  -14.7875   26.4933 O   0  0  0  0  0  0  0  0  0  0  0  0
    8.2134  -16.4903   25.0230 N   0  0  0  0  0  0  0  0  0  0  0  0
    8.5216  -17.4392   26.0743 C   0  0  1  0  0  0  0  0  0  0  0  0
    8.5583  -18.8555   25.6029 C   0  0  0  0  0  0  0  0  0  0  0  0
    7.0197  -19.1791   24.6926 S   0  0  0  0  0  0  0  0  0  0  0  0
    9.8058  -17.0697   26.7650 C   0  0  0  0  0  0  0  0  0  0  0  0
   10.8556  -17.0975   26.0954 O   0  0  0  0  0  0  0  0  0  0  0  0
   10.7696  -15.1033   29.6358 C   0  0  0  0  0  0  0  0  0  0  0  0
   10.9985  -16.3978   28.9149 C   0  0  2  0  0  0  0  0  0  0  0  0
    9.8376  -16.7033   28.1186 N   0  0  0  0  0  0  0  0  0  0  0  0
   11.4588  -17.5022   29.7901 C   0  0  0  0  0  0  0  0  0  0  0  0
   12.6737  -17.4152   30.4630 O   0  0  0  0  0  0  0  0  0  0  0  0
   10.7887  -18.5357   29.9566 O   0  0  0  0  0  0  0  0  0  0  0  0
  2  4  1  0
  2  1  1  6
  3  2  1  0
  4  5  1  0
  5  7  1  0
  5  6  1  6
  7  8  2  0
  9 10  1  0
  9  7  1  0
 10 13  1  0
 11 12  1  0
 10 11  1  6
 13 14  2  0
 16 15  1  1
 16 18  1  0
 17 13  1  0
 17 16  1  0
 18 20  2  0
 18 19  1  0
M  END
$$$$
