LCA.pdb
     RDKit          3D

 20 19  0  0  1  0  0  0  0  0999 V2000
    7.6133  -12.6267   21.2598 C   0  0  0  0  0  0  0  0  0  0  0  0
    7.9801  -13.6629   20.2581 C   0  0  1  0  0  0  0  0  0  0  0  0
    8.5304  -12.9999   19.0100 C   0  0  0  0  0  0  0  0  0  0  0  0
    8.9244  -14.6860   20.8182 C   0  0  0  0  0  0  0  0  0  0  0  0
    8.2550  -15.4580   21.8984 C   0  0  2  0  0  0  0  0  0  0  0  0
    6.8202  -15.5266   21.7615 N   0  0  0  0  0  0  0  0  0  0  0  0
    8.6362  -14.9404   23.2568 C   0  0  0  0  0  0  0  0  0  0  0  0
    9.8471  -14.9076   23.6180 O   0  0  0  0  0  0  0  0  0  0  0  0
    7.6820  -14.4804   24.1657 N   0  0  0  0  0  0  0  0  0  0  0  0
    8.0345  -13.9763   25.4781 C   0  0  1  0  0  0  0  0  0  0  0  0
    7.0799  -12.9517   25.9960 C   0  0  0  0  0  0  0  0  0  0  0  0
    5.4549  -13.7446   26.1737 S   0  0  0  0  0  0  0  0  0  0  0  0
    8.1924  -15.1069   26.4576 C   0  0  0  0  0  0  0  0  0  0  0  0
    8.4606  -14.8199   27.6395 O   0  0  0  0  0  0  0  0  0  0  0  0
    7.2043  -18.6516   26.4710 C   0  0  0  0  0  0  0  0  0  0  0  0
    8.2060  -17.6184   26.8917 C   0  0  2  0  0  0  0  0  0  0  0  0
    8.0455  -16.4467   26.0692 N   0  0  0  0  0  0  0  0  0  0  0  0
    9.5954  -18.1273   26.9824 C   0  0  0  0  0  0  0  0  0  0  0  0
    9.9528  -19.0432   27.9672 O   0  0  0  0  0  0  0  0  0  0  0  0
   10.4848  -17.7626   26.1946 O   0  0  0  0  0  0  0  0  0  0  0  0
  2  4  1  0
  2  1  1  1
  3  2  1  0
  4  5  1  0
  5  7  1  0
  5  6  1  6
  7  8  2  0
  9 10  1  0
  9  7  1  0
 10 13  1  0
 11 12  1  0
 10 11  1  1
 13 14  2  0
 16 15  1  6
 16 18  1  0
 17 13  1  0
 17 16  1  0
 18 20  2  0
 18 19  1  0
M  END
$$$$
