LCA.pdb
     RDKit          3D

 20 19  0  0  1  0  0  0  0  0999 V2000
    9.8024  -12.9491   20.2784 C   0  0  0  0  0  0  0  0  0  0  0  0
    8.4606  -13.5562   20.4847 C   0  0  1  0  0  0  0  0  0  0  0  0
    7.3814  -12.5416   20.1594 C   0  0  0  0  0  0  0  0  0  0  0  0
    8.2890  -14.8316   19.7126 C   0  0  0  0  0  0  0  0  0  0  0  0
    9.1410  -15.8996   20.2994 C   0  0  2  0  0  0  0  0  0  0  0  0
    9.1667  -17.1159   19.5234 N   0  0  0  0  0  0  0  0  0  0  0  0
    8.7563  -16.1847   21.7239 C   0  0  0  0  0  0  0  0  0  0  0  0
    7.5741  -16.5224   22.0174 O   0  0  0  0  0  0  0  0  0  0  0  0
    9.6757  -16.0894   22.7698 N   0  0  0  0  0  0  0  0  0  0  0  0
    9.3822  -16.5549   24.1107 C   0  0  1  0  0  0  0  0  0  0  0  0
    9.8417  -17.9523   24.3671 C   0  0  0  0  0  0  0  0  0  0  0  0
    9.5017  -18.3392   26.1094 S   0  0  0  0  0  0  0  0  0  0  0  0
    9.9423  -15.6087   25.1371 C   0  0  0  0  0  0  0  0  0  0  0  0
   11.1679  -15.3879   25.1178 O   0  0  0  0  0  0  0  0  0  0  0  0
    8.3903  -13.2991   27.6230 C   0  0  0  0  0  0  0  0  0  0  0  0
    9.5421  -14.1575   27.1938 C   0  0  2  0  0  0  0  0  0  0  0  0
    9.1248  -14.9865   26.0921 N   0  0  0  0  0  0  0  0  0  0  0  0
   10.1978  -14.8867   28.3056 C   0  0  0  0  0  0  0  0  0  0  0  0
   10.9905  -14.2104   29.2278 O   0  0  0  0  0  0  0  0  0  0  0  0
   10.0685  -16.1134   28.4575 O   0  0  0  0  0  0  0  0  0  0  0  0
  2  4  1  0
  2  1  1  6
  3  2  1  0
  4  5  1  0
  5  7  1  0
  5  6  1  6
  7  8  2  0
  9 10  1  0
  9  7  1  0
 10 13  1  0
 11 12  1  0
 10 11  1  1
 13 14  2  0
 16 15  1  1
 16 18  1  0
 17 13  1  0
 17 16  1  0
 18 20  2  0
 18 19  1  0
M  END
$$$$
