LCA.pdb
     RDKit          3D

 20 19  0  0  1  0  0  0  0  0999 V2000
    7.6602  -12.2496   18.6788 C   0  0  0  0  0  0  0  0  0  0  0  0
    8.2548  -13.5323   19.1399 C   0  0  1  0  0  0  0  0  0  0  0  0
    9.7160  -13.3256   19.4899 C   0  0  0  0  0  0  0  0  0  0  0  0
    7.4826  -14.1420   20.2732 C   0  0  0  0  0  0  0  0  0  0  0  0
    8.0840  -15.4474   20.6538 C   0  0  2  0  0  0  0  0  0  0  0  0
    7.7410  -16.5285   19.7616 N   0  0  0  0  0  0  0  0  0  0  0  0
    7.7563  -15.8062   22.0759 C   0  0  0  0  0  0  0  0  0  0  0  0
    6.5617  -16.0222   22.4277 O   0  0  0  0  0  0  0  0  0  0  0  0
    8.7442  -15.9143   23.0561 N   0  0  0  0  0  0  0  0  0  0  0  0
    8.4412  -16.2368   24.4363 C   0  0  1  0  0  0  0  0  0  0  0  0
    8.5929  -17.6879   24.7533 C   0  0  0  0  0  0  0  0  0  0  0  0
   10.2748  -18.1877   24.2821 S   0  0  0  0  0  0  0  0  0  0  0  0
    9.2630  -15.3938   25.3725 C   0  0  0  0  0  0  0  0  0  0  0  0
   10.4818  -15.2856   25.1403 O   0  0  0  0  0  0  0  0  0  0  0  0
    8.4472  -12.9203   28.0077 C   0  0  0  0  0  0  0  0  0  0  0  0
    9.3715  -13.9819   27.4917 C   0  0  2  0  0  0  0  0  0  0  0  0
    8.6909  -14.7437   26.4760 N   0  0  0  0  0  0  0  0  0  0  0  0
   10.0088  -14.7953   28.5548 C   0  0  0  0  0  0  0  0  0  0  0  0
   10.9252  -14.2238   29.4323 O   0  0  0  0  0  0  0  0  0  0  0  0
    9.7548  -16.0027   28.7039 O   0  0  0  0  0  0  0  0  0  0  0  0
  2  4  1  0
  2  1  1  1
  3  2  1  0
  4  5  1  0
  5  7  1  0
  5  6  1  6
  7  8  2  0
  9 10  1  0
  9  7  1  0
 10 13  1  0
 11 12  1  0
 10 11  1  6
 13 14  2  0
 16 15  1  1
 16 18  1  0
 17 13  1  0
 17 16  1  0
 18 20  2  0
 18 19  1  0
M  END
$$$$
