LCA.pdb
     RDKit          3D

 20 19  0  0  1  0  0  0  0  0999 V2000
    6.9359  -12.8863   18.4524 C   0  0  0  0  0  0  0  0  0  0  0  0
    8.0518  -13.5447   19.1823 C   0  0  1  0  0  0  0  0  0  0  0  0
    9.2465  -12.6125   19.2449 C   0  0  0  0  0  0  0  0  0  0  0  0
    7.6368  -14.0241   20.5425 C   0  0  0  0  0  0  0  0  0  0  0  0
    8.7901  -14.6628   21.2300 C   0  0  2  0  0  0  0  0  0  0  0  0
    9.2892  -15.8389   20.5592 N   0  0  0  0  0  0  0  0  0  0  0  0
    8.4708  -14.9647   22.6672 C   0  0  0  0  0  0  0  0  0  0  0  0
    7.7791  -14.1621   23.3565 O   0  0  0  0  0  0  0  0  0  0  0  0
    8.9188  -16.1286   23.2939 N   0  0  0  0  0  0  0  0  0  0  0  0
    8.5677  -16.4633   24.6598 C   0  0  1  0  0  0  0  0  0  0  0  0
    8.4383  -17.9320   24.8959 C   0  0  0  0  0  0  0  0  0  0  0  0
    9.9733  -18.7237   24.3325 S   0  0  0  0  0  0  0  0  0  0  0  0
    9.5427  -15.8480   25.6259 C   0  0  0  0  0  0  0  0  0  0  0  0
   10.7451  -15.8221   25.3022 O   0  0  0  0  0  0  0  0  0  0  0  0
    9.3213  -13.4584   28.3532 C   0  0  0  0  0  0  0  0  0  0  0  0
    9.9557  -14.7316   27.8796 C   0  0  2  0  0  0  0  0  0  0  0  0
    9.1279  -15.3161   26.8557 N   0  0  0  0  0  0  0  0  0  0  0  0
   10.3377  -15.6577   28.9724 C   0  0  0  0  0  0  0  0  0  0  0  0
   11.3211  -15.3039   29.8911 O   0  0  0  0  0  0  0  0  0  0  0  0
    9.8035  -16.7714   29.1110 O   0  0  0  0  0  0  0  0  0  0  0  0
  2  4  1  0
  2  1  1  1
  3  2  1  0
  4  5  1  0
  5  7  1  0
  5  6  1  6
  7  8  2  0
  9 10  1  0
  9  7  1  0
 10 13  1  0
 11 12  1  0
 10 11  1  6
 13 14  2  0
 16 15  1  1
 16 18  1  0
 17 13  1  0
 17 16  1  0
 18 20  2  0
 18 19  1  0
M  END
$$$$
