LCA.pdb
     RDKit          3D

 20 19  0  0  1  0  0  0  0  0999 V2000
    5.9626  -11.5596   26.9658 C   0  0  0  0  0  0  0  0  0  0  0  0
    6.0392  -12.5267   25.8387 C   0  0  1  0  0  0  0  0  0  0  0  0
    6.4983  -11.8151   24.5805 C   0  0  0  0  0  0  0  0  0  0  0  0
    6.9003  -13.7120   26.1642 C   0  0  0  0  0  0  0  0  0  0  0  0
    6.8003  -14.7256   25.0809 C   0  0  2  0  0  0  0  0  0  0  0  0
    5.5297  -15.4082   25.0379 N   0  0  0  0  0  0  0  0  0  0  0  0
    7.9325  -15.7115   25.1489 C   0  0  0  0  0  0  0  0  0  0  0  0
    7.9533  -16.6094   26.0382 O   0  0  0  0  0  0  0  0  0  0  0  0
    8.9957  -15.6777   24.2451 N   0  0  0  0  0  0  0  0  0  0  0  0
   10.1489  -16.5475   24.3650 C   0  0  1  0  0  0  0  0  0  0  0  0
   10.9322  -16.6715   23.0999 C   0  0  0  0  0  0  0  0  0  0  0  0
    9.8170  -17.3085   21.8149 S   0  0  0  0  0  0  0  0  0  0  0  0
   11.0308  -16.1084   25.5017 C   0  0  0  0  0  0  0  0  0  0  0  0
   12.1277  -15.5898   25.2206 O   0  0  0  0  0  0  0  0  0  0  0  0
   10.8502  -14.7704   28.6951 C   0  0  0  0  0  0  0  0  0  0  0  0
   11.4245  -15.9777   28.0165 C   0  0  2  0  0  0  0  0  0  0  0  0
   10.6454  -16.2702   26.8406 N   0  0  0  0  0  0  0  0  0  0  0  0
   11.6404  -17.1322   28.9210 C   0  0  0  0  0  0  0  0  0  0  0  0
   12.5225  -17.0385   29.9930 O   0  0  0  0  0  0  0  0  0  0  0  0
   11.0513  -18.2149   28.7615 O   0  0  0  0  0  0  0  0  0  0  0  0
  2  4  1  0
  2  1  1  1
  3  2  1  0
  4  5  1  0
  5  7  1  0
  5  6  1  1
  7  8  2  0
  9 10  1  0
  9  7  1  0
 10 13  1  0
 11 12  1  0
 10 11  1  6
 13 14  2  0
 16 15  1  1
 16 18  1  0
 17 13  1  0
 17 16  1  0
 18 20  2  0
 18 19  1  0
M  END
$$$$
