LCA.pdb
     RDKit          3D

 20 19  0  0  1  0  0  0  0  0999 V2000
    7.6357  -12.2395   19.2538 C   0  0  0  0  0  0  0  0  0  0  0  0
    7.5715  -13.6475   19.7278 C   0  0  1  0  0  0  0  0  0  0  0  0
    7.1791  -14.5591   18.5810 C   0  0  0  0  0  0  0  0  0  0  0  0
    8.8472  -14.0844   20.3865 C   0  0  0  0  0  0  0  0  0  0  0  0
    8.6129  -15.3210   21.1782 C   0  0  2  0  0  0  0  0  0  0  0  0
    7.2180  -15.6539   21.3386 N   0  0  0  0  0  0  0  0  0  0  0  0
    9.3013  -15.2543   22.5124 C   0  0  0  0  0  0  0  0  0  0  0  0
   10.5006  -14.8650   22.6006 O   0  0  0  0  0  0  0  0  0  0  0  0
    8.6543  -15.6151   23.6955 N   0  0  0  0  0  0  0  0  0  0  0  0
    9.3202  -15.6042   24.9828 C   0  0  1  0  0  0  0  0  0  0  0  0
    8.6023  -14.7989   26.0150 C   0  0  0  0  0  0  0  0  0  0  0  0
    7.3534  -13.7900   25.1645 S   0  0  0  0  0  0  0  0  0  0  0  0
    9.5620  -17.0070   25.4688 C   0  0  0  0  0  0  0  0  0  0  0  0
    8.5705  -17.7368   25.6570 O   0  0  0  0  0  0  0  0  0  0  0  0
   12.5511  -19.1749   25.5363 C   0  0  0  0  0  0  0  0  0  0  0  0
   11.2268  -18.8161   26.1408 C   0  0  2  0  0  0  0  0  0  0  0  0
   10.8559  -17.4934   25.7072 N   0  0  0  0  0  0  0  0  0  0  0  0
   11.1543  -19.0321   27.6057 C   0  0  0  0  0  0  0  0  0  0  0  0
   11.3239  -20.3037   28.1448 O   0  0  0  0  0  0  0  0  0  0  0  0
   10.9423  -18.1005   28.4006 O   0  0  0  0  0  0  0  0  0  0  0  0
  2  4  1  0
  2  1  1  6
  3  2  1  0
  4  5  1  0
  5  7  1  0
  5  6  1  1
  7  8  2  0
  9 10  1  0
  9  7  1  0
 10 13  1  0
 11 12  1  0
 10 11  1  1
 13 14  2  0
 16 15  1  1
 16 18  1  0
 17 13  1  0
 17 16  1  0
 18 20  2  0
 18 19  1  0
M  END
$$$$
