LCA.pdb
     RDKit          3D

 20 19  0  0  1  0  0  0  0  0999 V2000
    5.6547  -11.7224   26.4552 C   0  0  0  0  0  0  0  0  0  0  0  0
    6.7650  -12.7115   26.4325 C   0  0  1  0  0  0  0  0  0  0  0  0
    7.8531  -12.2857   27.3994 C   0  0  0  0  0  0  0  0  0  0  0  0
    6.2870  -14.1089   26.6988 C   0  0  0  0  0  0  0  0  0  0  0  0
    7.3091  -15.0903   26.2482 C   0  0  2  0  0  0  0  0  0  0  0  0
    8.6602  -14.7275   26.6021 N   0  0  0  0  0  0  0  0  0  0  0  0
    7.1982  -15.3565   24.7733 C   0  0  0  0  0  0  0  0  0  0  0  0
    6.1783  -15.9312   24.2966 O   0  0  0  0  0  0  0  0  0  0  0  0
    8.2036  -14.9858   23.8788 N   0  0  0  0  0  0  0  0  0  0  0  0
    8.1477  -15.3064   22.4664 C   0  0  1  0  0  0  0  0  0  0  0  0
    8.0290  -14.1038   21.5895 C   0  0  0  0  0  0  0  0  0  0  0  0
    7.8196  -14.6803   19.8794 S   0  0  0  0  0  0  0  0  0  0  0  0
    9.3271  -16.1493   22.0650 C   0  0  0  0  0  0  0  0  0  0  0  0
    9.3575  -16.5911   20.9009 O   0  0  0  0  0  0  0  0  0  0  0  0
   12.7374  -16.5211   22.6324 C   0  0  0  0  0  0  0  0  0  0  0  0
   11.4799  -17.3290   22.7505 C   0  0  2  0  0  0  0  0  0  0  0  0
   10.3675  -16.4381   22.9603 N   0  0  0  0  0  0  0  0  0  0  0  0
   11.5706  -18.4474   23.7193 C   0  0  0  0  0  0  0  0  0  0  0  0
   10.6091  -18.6054   24.7128 O   0  0  0  0  0  0  0  0  0  0  0  0
   12.4950  -19.2775   23.6848 O   0  0  0  0  0  0  0  0  0  0  0  0
  2  4  1  0
  2  1  1  1
  3  2  1  0
  4  5  1  0
  5  7  1  0
  5  6  1  6
  7  8  2  0
  9 10  1  0
  9  7  1  0
 10 13  1  0
 11 12  1  0
 10 11  1  6
 13 14  2  0
 16 15  1  1
 16 18  1  0
 17 13  1  0
 17 16  1  0
 18 20  2  0
 18 19  1  0
M  END
$$$$
