LCA.pdb
     RDKit          3D

 20 19  0  0  1  0  0  0  0  0999 V2000
    7.5880  -11.9421   19.4179 C   0  0  0  0  0  0  0  0  0  0  0  0
    7.7524  -13.3467   19.8780 C   0  0  1  0  0  0  0  0  0  0  0  0
    8.4256  -14.1673   18.7947 C   0  0  0  0  0  0  0  0  0  0  0  0
    8.4794  -13.4344   21.1879 C   0  0  0  0  0  0  0  0  0  0  0  0
    8.1263  -14.7014   21.8813 C   0  0  2  0  0  0  0  0  0  0  0  0
    6.7399  -15.0757   21.7397 N   0  0  0  0  0  0  0  0  0  0  0  0
    8.5214  -14.6597   23.3306 C   0  0  0  0  0  0  0  0  0  0  0  0
    9.7356  -14.5532   23.6654 O   0  0  0  0  0  0  0  0  0  0  0  0
    7.5768  -14.7362   24.3555 N   0  0  0  0  0  0  0  0  0  0  0  0
    7.9429  -14.7008   25.7575 C   0  0  1  0  0  0  0  0  0  0  0  0
    6.9075  -14.0644   26.6249 C   0  0  0  0  0  0  0  0  0  0  0  0
    6.5247  -12.4310   25.9276 S   0  0  0  0  0  0  0  0  0  0  0  0
    8.2852  -16.0791   26.2530 C   0  0  0  0  0  0  0  0  0  0  0  0
    7.3527  -16.8900   26.4087 O   0  0  0  0  0  0  0  0  0  0  0  0
   11.2061  -18.2073   26.2138 C   0  0  0  0  0  0  0  0  0  0  0  0
   10.0642  -17.7192   27.0539 C   0  0  2  0  0  0  0  0  0  0  0  0
    9.6066  -16.4555   26.5355 N   0  0  0  0  0  0  0  0  0  0  0  0
   10.3397  -17.7293   28.5105 C   0  0  0  0  0  0  0  0  0  0  0  0
   10.4722  -18.9311   29.1993 O   0  0  0  0  0  0  0  0  0  0  0  0
   10.4620  -16.6808   29.1665 O   0  0  0  0  0  0  0  0  0  0  0  0
  2  4  1  0
  2  1  1  6
  3  2  1  0
  4  5  1  0
  5  7  1  0
  5  6  1  1
  7  8  2  0
  9 10  1  0
  9  7  1  0
 10 13  1  0
 11 12  1  0
 10 11  1  1
 13 14  2  0
 16 15  1  6
 16 18  1  0
 17 13  1  0
 17 16  1  0
 18 20  2  0
 18 19  1  0
M  END
$$$$
