LCA.pdb
     RDKit          3D

 20 19  0  0  1  0  0  0  0  0999 V2000
    7.3456  -12.1502   18.9675 C   0  0  0  0  0  0  0  0  0  0  0  0
    7.5042  -13.4979   19.5759 C   0  0  1  0  0  0  0  0  0  0  0  0
    8.3535  -14.3728   18.6739 C   0  0  0  0  0  0  0  0  0  0  0  0
    8.0476  -13.4305   20.9731 C   0  0  0  0  0  0  0  0  0  0  0  0
    8.0570  -14.7875   21.5808 C   0  0  2  0  0  0  0  0  0  0  0  0
    6.7809  -15.4590   21.5255 N   0  0  0  0  0  0  0  0  0  0  0  0
    8.5795  -14.7519   22.9894 C   0  0  0  0  0  0  0  0  0  0  0  0
    9.7685  -14.3950   23.2275 O   0  0  0  0  0  0  0  0  0  0  0  0
    7.7847  -15.1071   24.0805 N   0  0  0  0  0  0  0  0  0  0  0  0
    8.2799  -15.0949   25.4427 C   0  0  1  0  0  0  0  0  0  0  0  0
    7.3121  -14.5142   26.4203 C   0  0  0  0  0  0  0  0  0  0  0  0
    6.3496  -13.2366   25.5588 S   0  0  0  0  0  0  0  0  0  0  0  0
    8.7084  -16.4733   25.8655 C   0  0  0  0  0  0  0  0  0  0  0  0
    7.8239  -17.3369   26.0171 O   0  0  0  0  0  0  0  0  0  0  0  0
   12.0234  -18.1565   26.1192 C   0  0  0  0  0  0  0  0  0  0  0  0
   10.5932  -18.0445   26.5549 C   0  0  2  0  0  0  0  0  0  0  0  0
   10.0563  -16.7925   26.0862 N   0  0  0  0  0  0  0  0  0  0  0  0
   10.3798  -18.3099   27.9977 C   0  0  0  0  0  0  0  0  0  0  0  0
   10.3904  -19.6118   28.4889 O   0  0  0  0  0  0  0  0  0  0  0  0
   10.1857  -17.3945   28.8157 O   0  0  0  0  0  0  0  0  0  0  0  0
  2  4  1  0
  2  1  1  6
  3  2  1  0
  4  5  1  0
  5  7  1  0
  5  6  1  1
  7  8  2  0
  9 10  1  0
  9  7  1  0
 10 13  1  0
 11 12  1  0
 10 11  1  1
 13 14  2  0
 16 15  1  1
 16 18  1  0
 17 13  1  0
 17 16  1  0
 18 20  2  0
 18 19  1  0
M  END
$$$$
