LCA.pdb
     RDKit          3D

 20 19  0  0  1  0  0  0  0  0999 V2000
    7.4073  -11.9688   19.2282 C   0  0  0  0  0  0  0  0  0  0  0  0
    8.4820  -12.9730   19.0084 C   0  0  1  0  0  0  0  0  0  0  0  0
    9.8314  -12.3622   19.3346 C   0  0  0  0  0  0  0  0  0  0  0  0
    8.2374  -14.2432   19.7692 C   0  0  0  0  0  0  0  0  0  0  0  0
    9.3293  -15.2156   19.4993 C   0  0  2  0  0  0  0  0  0  0  0  0
    9.3345  -15.7251   18.1493 N   0  0  0  0  0  0  0  0  0  0  0  0
    9.3158  -16.3423   20.4937 C   0  0  0  0  0  0  0  0  0  0  0  0
    8.4045  -17.2177   20.4642 O   0  0  0  0  0  0  0  0  0  0  0  0
   10.2959  -16.4682   21.4796 N   0  0  0  0  0  0  0  0  0  0  0  0
   10.3351  -17.5857   22.4018 C   0  0  1  0  0  0  0  0  0  0  0  0
   11.5391  -18.4524   22.2326 C   0  0  0  0  0  0  0  0  0  0  0  0
   12.9952  -17.3699   22.1380 S   0  0  0  0  0  0  0  0  0  0  0  0
   10.2131  -17.1076   23.8227 C   0  0  0  0  0  0  0  0  0  0  0  0
   10.9353  -16.1585   24.1815 O   0  0  0  0  0  0  0  0  0  0  0  0
    7.6992  -17.5427   26.4821 C   0  0  0  0  0  0  0  0  0  0  0  0
    9.1451  -17.3796   26.1209 C   0  0  2  0  0  0  0  0  0  0  0  0
    9.3199  -17.7002   24.7274 N   0  0  0  0  0  0  0  0  0  0  0  0
   10.0782  -18.0748   27.0395 C   0  0  0  0  0  0  0  0  0  0  0  0
   10.2931  -17.5965   28.3284 O   0  0  0  0  0  0  0  0  0  0  0  0
   10.6976  -19.0979   26.7013 O   0  0  0  0  0  0  0  0  0  0  0  0
  2  4  1  0
  2  1  1  1
  3  2  1  0
  4  5  1  0
  5  7  1  0
  5  6  1  6
  7  8  2  0
  9 10  1  0
  9  7  1  0
 10 13  1  0
 11 12  1  0
 10 11  1  1
 13 14  2  0
 16 15  1  1
 16 18  1  0
 17 13  1  0
 17 16  1  0
 18 20  2  0
 18 19  1  0
M  END
$$$$
