LCA.pdb
     RDKit          3D

 20 19  0  0  1  0  0  0  0  0999 V2000
    7.1980  -17.8089   20.4535 C   0  0  0  0  0  0  0  0  0  0  0  0
    8.2217  -16.9362   19.8194 C   0  0  1  0  0  0  0  0  0  0  0  0
    7.6540  -16.3078   18.5612 C   0  0  0  0  0  0  0  0  0  0  0  0
    8.7610  -15.9086   20.7709 C   0  0  0  0  0  0  0  0  0  0  0  0
    7.6412  -15.2394   21.4844 C   0  0  2  0  0  0  0  0  0  0  0  0
    6.8215  -14.4107   20.6338 N   0  0  0  0  0  0  0  0  0  0  0  0
    8.1369  -14.4598   22.6698 C   0  0  0  0  0  0  0  0  0  0  0  0
    9.2721  -13.9044   22.6475 O   0  0  0  0  0  0  0  0  0  0  0  0
    7.3750  -14.3182   23.8308 N   0  0  0  0  0  0  0  0  0  0  0  0
    7.8708  -13.6374   25.0104 C   0  0  1  0  0  0  0  0  0  0  0  0
    6.8502  -12.7662   25.6652 C   0  0  0  0  0  0  0  0  0  0  0  0
    7.5780  -12.1091   27.1947 S   0  0  0  0  0  0  0  0  0  0  0  0
    8.4447  -14.6226   25.9915 C   0  0  0  0  0  0  0  0  0  0  0  0
    7.6560  -15.3896   26.5752 O   0  0  0  0  0  0  0  0  0  0  0  0
   11.9537  -15.6532   26.7553 C   0  0  0  0  0  0  0  0  0  0  0  0
   10.5025  -15.6068   27.1287 C   0  0  2  0  0  0  0  0  0  0  0  0
    9.8214  -14.6885   26.2524 N   0  0  0  0  0  0  0  0  0  0  0  0
   10.2585  -15.3824   28.5736 C   0  0  0  0  0  0  0  0  0  0  0  0
   10.5958  -16.3551   29.5098 O   0  0  0  0  0  0  0  0  0  0  0  0
    9.7505  -14.3320   29.0020 O   0  0  0  0  0  0  0  0  0  0  0  0
  2  4  1  0
  2  1  1  1
  3  2  1  0
  4  5  1  0
  5  7  1  0
  5  6  1  6
  7  8  2  0
  9 10  1  0
  9  7  1  0
 10 13  1  0
 11 12  1  0
 10 11  1  1
 13 14  2  0
 16 15  1  1
 16 18  1  0
 17 13  1  0
 17 16  1  0
 18 20  2  0
 18 19  1  0
M  END
$$$$
