LCA.pdb
     RDKit          3D

 20 19  0  0  1  0  0  0  0  0999 V2000
    8.0579  -20.0999   22.2151 C   0  0  0  0  0  0  0  0  0  0  0  0
    7.5434  -18.7579   21.8332 C   0  0  1  0  0  0  0  0  0  0  0  0
    6.0268  -18.7643   21.8509 C   0  0  0  0  0  0  0  0  0  0  0  0
    8.1143  -17.6654   22.6892 C   0  0  0  0  0  0  0  0  0  0  0  0
    7.6159  -16.3435   22.2256 C   0  0  2  0  0  0  0  0  0  0  0  0
    7.8657  -16.0847   20.8281 N   0  0  0  0  0  0  0  0  0  0  0  0
    8.1520  -15.2279   23.0779 C   0  0  0  0  0  0  0  0  0  0  0  0
    9.2840  -14.7194   22.8376 O   0  0  0  0  0  0  0  0  0  0  0  0
    7.4324  -14.7127   24.1573 N   0  0  0  0  0  0  0  0  0  0  0  0
    7.9301  -13.6276   24.9794 C   0  0  1  0  0  0  0  0  0  0  0  0
    6.9198  -12.5550   25.2207 C   0  0  0  0  0  0  0  0  0  0  0  0
    5.9110  -13.0514   26.6478 S   0  0  0  0  0  0  0  0  0  0  0  0
    8.4772  -14.1521   26.2787 C   0  0  0  0  0  0  0  0  0  0  0  0
    7.7417  -14.8853   26.9663 O   0  0  0  0  0  0  0  0  0  0  0  0
    9.8412  -13.4003   29.0695 C   0  0  0  0  0  0  0  0  0  0  0  0
   10.3979  -14.2306   27.9522 C   0  0  2  0  0  0  0  0  0  0  0  0
    9.7716  -13.8355   26.7166 N   0  0  0  0  0  0  0  0  0  0  0  0
   10.3805  -15.6890   28.2182 C   0  0  0  0  0  0  0  0  0  0  0  0
   10.9994  -16.2114   29.3497 O   0  0  0  0  0  0  0  0  0  0  0  0
    9.8209  -16.4929   27.4531 O   0  0  0  0  0  0  0  0  0  0  0  0
  2  4  1  0
  2  1  1  1
  3  2  1  0
  4  5  1  0
  5  7  1  0
  5  6  1  6
  7  8  2  0
  9 10  1  0
  9  7  1  0
 10 13  1  0
 11 12  1  0
 10 11  1  1
 13 14  2  0
 16 15  1  1
 16 18  1  0
 17 13  1  0
 17 16  1  0
 18 20  2  0
 18 19  1  0
M  END
$$$$
