LCA.pdb
     RDKit          3D

 20 19  0  0  1  0  0  0  0  0999 V2000
    7.4319  -12.1301   19.1102 C   0  0  0  0  0  0  0  0  0  0  0  0
    7.4534  -13.4778   19.7385 C   0  0  1  0  0  0  0  0  0  0  0  0
    7.8456  -14.5195   18.7083 C   0  0  0  0  0  0  0  0  0  0  0  0
    8.3332  -13.5247   20.9534 C   0  0  0  0  0  0  0  0  0  0  0  0
    8.1046  -14.7913   21.6979 C   0  0  2  0  0  0  0  0  0  0  0  0
    6.7270  -15.2210   21.7065 N   0  0  0  0  0  0  0  0  0  0  0  0
    8.6451  -14.7076   23.0976 C   0  0  0  0  0  0  0  0  0  0  0  0
    9.8526  -14.3969   23.3052 O   0  0  0  0  0  0  0  0  0  0  0  0
    7.8474  -14.9665   24.2134 N   0  0  0  0  0  0  0  0  0  0  0  0
    8.3679  -14.9446   25.5660 C   0  0  1  0  0  0  0  0  0  0  0  0
    7.5165  -14.1692   26.5165 C   0  0  0  0  0  0  0  0  0  0  0  0
    6.0015  -13.6847   25.6387 S   0  0  0  0  0  0  0  0  0  0  0  0
    8.5989  -16.3428   26.0700 C   0  0  0  0  0  0  0  0  0  0  0  0
    7.6038  -17.0729   26.2379 O   0  0  0  0  0  0  0  0  0  0  0  0
   11.3941  -18.6570   26.0283 C   0  0  0  0  0  0  0  0  0  0  0  0
   10.2451  -18.1317   26.8355 C   0  0  2  0  0  0  0  0  0  0  0  0
    9.8867  -16.8248   26.3469 N   0  0  0  0  0  0  0  0  0  0  0  0
   10.4519  -18.2110   28.3014 C   0  0  0  0  0  0  0  0  0  0  0  0
   10.6017  -19.4426   28.9313 O   0  0  0  0  0  0  0  0  0  0  0  0
   10.4993  -17.1960   29.0172 O   0  0  0  0  0  0  0  0  0  0  0  0
  2  4  1  0
  2  1  1  6
  3  2  1  0
  4  5  1  0
  5  7  1  0
  5  6  1  1
  7  8  2  0
  9 10  1  0
  9  7  1  0
 10 13  1  0
 11 12  1  0
 10 11  1  1
 13 14  2  0
 16 15  1  6
 16 18  1  0
 17 13  1  0
 17 16  1  0
 18 20  2  0
 18 19  1  0
M  END
$$$$
