LCA.pdb
     RDKit          3D

 20 19  0  0  1  0  0  0  0  0999 V2000
    7.4179  -12.0562   19.3847 C   0  0  0  0  0  0  0  0  0  0  0  0
    8.0341  -13.3905   19.6117 C   0  0  1  0  0  0  0  0  0  0  0  0
    9.5413  -13.2909   19.4756 C   0  0  0  0  0  0  0  0  0  0  0  0
    7.6232  -13.9906   20.9244 C   0  0  0  0  0  0  0  0  0  0  0  0
    8.2698  -15.3178   21.1012 C   0  0  2  0  0  0  0  0  0  0  0  0
    7.8359  -16.3085   20.1459 N   0  0  0  0  0  0  0  0  0  0  0  0
    8.1032  -15.8240   22.5063 C   0  0  0  0  0  0  0  0  0  0  0  0
    6.9532  -16.0596   22.9749 O   0  0  0  0  0  0  0  0  0  0  0  0
    9.1970  -16.0520   23.3430 N   0  0  0  0  0  0  0  0  0  0  0  0
    9.0500  -16.4960   24.7149 C   0  0  1  0  0  0  0  0  0  0  0  0
    9.4269  -17.9263   24.9190 C   0  0  0  0  0  0  0  0  0  0  0  0
   11.1533  -18.1278   24.3902 S   0  0  0  0  0  0  0  0  0  0  0  0
    9.8163  -15.6002   25.6492 C   0  0  0  0  0  0  0  0  0  0  0  0
   10.9611  -15.2471   25.3087 O   0  0  0  0  0  0  0  0  0  0  0  0
    9.0275  -13.3837   28.4457 C   0  0  0  0  0  0  0  0  0  0  0  0
    9.9464  -14.4437   27.9167 C   0  0  2  0  0  0  0  0  0  0  0  0
    9.2740  -15.1674   26.8682 N   0  0  0  0  0  0  0  0  0  0  0  0
   10.5532  -15.2951   28.9678 C   0  0  0  0  0  0  0  0  0  0  0  0
   11.4396  -14.7549   29.8945 O   0  0  0  0  0  0  0  0  0  0  0  0
   10.2990  -16.5079   29.0633 O   0  0  0  0  0  0  0  0  0  0  0  0
  2  4  1  0
  2  1  1  1
  3  2  1  0
  4  5  1  0
  5  7  1  0
  5  6  1  6
  7  8  2  0
  9 10  1  0
  9  7  1  0
 10 13  1  0
 11 12  1  0
 10 11  1  6
 13 14  2  0
 16 15  1  1
 16 18  1  0
 17 13  1  0
 17 16  1  0
 18 20  2  0
 18 19  1  0
M  END
$$$$
