FNS.pdb
     RDKit          3D

 26 26  0  0  1  0  0  0  0  0999 V2000
    8.5697  -16.3385   21.8242 N   0  0  0  0  0  0  0  0  0  0  0  0
    8.5443  -15.2529   22.7823 C   0  0  1  0  0  0  0  0  0  0  0  0
    7.3429  -14.3483   22.5314 C   0  0  0  0  0  0  0  0  0  0  0  0
    7.4523  -13.7080   21.1850 C   0  0  0  0  0  0  0  0  0  0  0  0
    8.3534  -12.6856   20.9553 C   0  0  0  0  0  0  0  0  0  0  0  0
    8.4501  -12.0979   19.7099 C   0  0  0  0  0  0  0  0  0  0  0  0
    7.6584  -12.5005   18.6453 C   0  0  0  0  0  0  0  0  0  0  0  0
    6.7568  -13.5212   18.8693 C   0  0  0  0  0  0  0  0  0  0  0  0
    6.6643  -14.1087   20.1255 C   0  0  0  0  0  0  0  0  0  0  0  0
    8.3765  -15.8355   24.1348 C   0  0  0  0  0  0  0  0  0  0  0  0
    8.1181  -15.1029   25.1054 O   0  0  0  0  0  0  0  0  0  0  0  0
    7.0596  -20.5433   23.8892 N   0  0  0  0  0  0  0  0  0  0  0  0
    7.0921  -19.7116   25.0429 C   0  0  0  0  0  0  0  0  0  0  0  0
    5.9864  -19.3778   25.5420 O   0  0  0  0  0  0  0  0  0  0  0  0
    8.4043  -19.2972   25.5759 C   0  0  0  0  0  0  0  0  0  0  0  0
    8.4924  -17.7912   25.6489 C   0  0  2  0  0  0  0  0  0  0  0  0
    8.5131  -17.2584   24.3282 N   0  0  0  0  0  0  0  0  0  0  0  0
    9.6595  -17.3370   26.4428 C   0  0  0  0  0  0  0  0  0  0  0  0
   10.8042  -17.6090   26.0229 O   0  0  0  0  0  0  0  0  0  0  0  0
    9.3870  -14.2301   28.9772 O   0  0  0  0  0  0  0  0  0  0  0  0
   10.6696  -14.6237   28.5395 C   0  0  0  0  0  0  0  0  0  0  0  0
   10.6496  -16.1292   28.4187 C   0  0  2  0  0  0  0  0  0  0  0  0
    9.5341  -16.6095   27.6543 N   0  0  0  0  0  0  0  0  0  0  0  0
   10.7295  -16.7691   29.7602 C   0  0  0  0  0  0  0  0  0  0  0  0
   11.5606  -16.4283   30.6278 O   0  0  0  0  0  0  0  0  0  0  0  0
    9.8400  -17.7871   30.0539 O   0  0  0  0  0  0  0  0  0  0  0  0
  2  1  1  6
  2 10  1  0
  3  2  1  0
  3  4  1  0
  4  5  2  0
  4  9  1  0
  5  6  1  0
  6  7  2  0
  8  7  1  0
  9  8  2  0
 10 11  2  0
 13 12  1  0
 14 13  2  0
 15 13  1  0
 16 15  1  6
 16 18  1  0
 17 16  1  0
 17 10  1  0
 18 23  1  0
 19 18  2  0
 21 20  1  0
 22 21  1  1
 23 22  1  0
 24 26  1  0
 24 22  1  0
 25 24  2  0
M  END
$$$$
