FNS.pdb
     RDKit          3D

 26 26  0  0  1  0  0  0  0  0999 V2000
    9.2278  -16.3683   16.1828 N   0  0  0  0  0  0  0  0  0  0  0  0
    9.3154  -15.3092   17.1664 C   0  0  1  0  0  0  0  0  0  0  0  0
    7.9780  -15.1283   17.8759 C   0  0  0  0  0  0  0  0  0  0  0  0
    8.1065  -14.1146   18.9670 C   0  0  0  0  0  0  0  0  0  0  0  0
    8.3973  -12.7943   18.6798 C   0  0  0  0  0  0  0  0  0  0  0  0
    8.5148  -11.8624   19.6915 C   0  0  0  0  0  0  0  0  0  0  0  0
    8.3489  -12.2025   21.0252 C   0  0  0  0  0  0  0  0  0  0  0  0
    8.0584  -13.5198   21.3175 C   0  0  0  0  0  0  0  0  0  0  0  0
    7.9414  -14.4532   20.2944 C   0  0  0  0  0  0  0  0  0  0  0  0
   10.3028  -15.7153   18.1946 C   0  0  0  0  0  0  0  0  0  0  0  0
   10.2490  -16.8487   18.7024 O   0  0  0  0  0  0  0  0  0  0  0  0
   14.3114  -14.0153   16.8280 N   0  0  0  0  0  0  0  0  0  0  0  0
   14.1729  -14.9682   17.8753 C   0  0  0  0  0  0  0  0  0  0  0  0
   14.5178  -16.1518   17.6247 O   0  0  0  0  0  0  0  0  0  0  0  0
   13.6398  -14.5144   19.1745 C   0  0  0  0  0  0  0  0  0  0  0  0
   12.3529  -15.2359   19.4976 C   0  0  2  0  0  0  0  0  0  0  0  0
   11.3315  -14.7931   18.6092 N   0  0  0  0  0  0  0  0  0  0  0  0
   11.9579  -15.0665   20.9168 C   0  0  0  0  0  0  0  0  0  0  0  0
   11.5358  -13.9502   21.2855 O   0  0  0  0  0  0  0  0  0  0  0  0
    9.5404  -17.0938   22.7512 O   0  0  0  0  0  0  0  0  0  0  0  0
   10.0604  -15.9056   23.3075 C   0  0  0  0  0  0  0  0  0  0  0  0
   11.5654  -16.0026   23.2218 C   0  0  2  0  0  0  0  0  0  0  0  0
   12.0380  -16.1131   21.8713 N   0  0  0  0  0  0  0  0  0  0  0  0
   12.0753  -17.1004   24.0879 C   0  0  0  0  0  0  0  0  0  0  0  0
   12.6973  -18.0866   23.6404 O   0  0  0  0  0  0  0  0  0  0  0  0
   11.8469  -17.0194   25.4499 O   0  0  0  0  0  0  0  0  0  0  0  0
  2  1  1  6
  2 10  1  0
  3  2  1  0
  3  4  1  0
  4  5  2  0
  4  9  1  0
  5  6  1  0
  6  7  2  0
  8  7  1  0
  9  8  2  0
 10 11  2  0
 13 12  1  0
 14 13  2  0
 15 13  1  0
 16 15  1  1
 16 18  1  0
 17 16  1  0
 17 10  1  0
 18 23  1  0
 19 18  2  0
 21 20  1  0
 22 21  1  6
 23 22  1  0
 24 26  1  0
 24 22  1  0
 25 24  2  0
M  END
$$$$
