FNS.pdb
     RDKit          3D

 26 26  0  0  1  0  0  0  0  0999 V2000
    8.1154  -17.4365   20.7480 N   0  0  0  0  0  0  0  0  0  0  0  0
    9.3193  -16.6407   20.6284 C   0  0  1  0  0  0  0  0  0  0  0  0
    9.2709  -15.4535   21.5838 C   0  0  0  0  0  0  0  0  0  0  0  0
    8.4035  -14.3740   21.0206 C   0  0  0  0  0  0  0  0  0  0  0  0
    7.1305  -14.1561   21.5127 C   0  0  0  0  0  0  0  0  0  0  0  0
    6.3338  -13.1577   20.9888 C   0  0  0  0  0  0  0  0  0  0  0  0
    6.7674  -12.3380   19.9583 C   0  0  0  0  0  0  0  0  0  0  0  0
    8.0380  -12.5514   19.4631 C   0  0  0  0  0  0  0  0  0  0  0  0
    8.8352  -13.5582   19.9949 C   0  0  0  0  0  0  0  0  0  0  0  0
   10.4700  -17.4815   21.0359 C   0  0  0  0  0  0  0  0  0  0  0  0
   10.3422  -18.3223   21.9427 O   0  0  0  0  0  0  0  0  0  0  0  0
   13.5290  -19.6593   18.4048 N   0  0  0  0  0  0  0  0  0  0  0  0
   13.6914  -18.2620   18.6171 C   0  0  0  0  0  0  0  0  0  0  0  0
   13.5126  -17.5058   17.6277 O   0  0  0  0  0  0  0  0  0  0  0  0
   14.0551  -17.7924   19.9681 C   0  0  0  0  0  0  0  0  0  0  0  0
   12.8946  -17.9697   20.9183 C   0  0  2  0  0  0  0  0  0  0  0  0
   11.7446  -17.3253   20.3790 N   0  0  0  0  0  0  0  0  0  0  0  0
   13.2090  -17.4809   22.2824 C   0  0  0  0  0  0  0  0  0  0  0  0
   12.3773  -16.7454   22.8550 O   0  0  0  0  0  0  0  0  0  0  0  0
   12.3984  -18.9252   25.1970 O   0  0  0  0  0  0  0  0  0  0  0  0
   13.6006  -19.4099   24.6388 C   0  0  0  0  0  0  0  0  0  0  0  0
   14.4637  -18.2063   24.3422 C   0  0  2  0  0  0  0  0  0  0  0  0
   14.4088  -17.8105   22.9639 N   0  0  0  0  0  0  0  0  0  0  0  0
   15.8596  -18.4279   24.8088 C   0  0  0  0  0  0  0  0  0  0  0  0
   16.3799  -17.7702   25.7342 O   0  0  0  0  0  0  0  0  0  0  0  0
   16.6102  -19.4086   24.1854 O   0  0  0  0  0  0  0  0  0  0  0  0
  2  1  1  1
  2 10  1  0
  3  2  1  0
  3  4  1  0
  4  5  2  0
  4  9  1  0
  5  6  1  0
  6  7  2  0
  8  7  1  0
  9  8  2  0
 10 11  2  0
 13 12  1  0
 14 13  2  0
 15 13  1  0
 16 15  1  6
 16 18  1  0
 17 16  1  0
 17 10  1  0
 18 23  1  0
 19 18  2  0
 21 20  1  0
 22 21  1  6
 23 22  1  0
 24 26  1  0
 24 22  1  0
 25 24  2  0
M  END
$$$$
