FNS.pdb
     RDKit          3D

 26 26  0  0  1  0  0  0  0  0999 V2000
    7.3036  -16.1235   24.0330 N   0  0  0  0  0  0  0  0  0  0  0  0
    7.8455  -15.0800   23.1877 C   0  0  1  0  0  0  0  0  0  0  0  0
    8.6242  -14.0687   24.0218 C   0  0  0  0  0  0  0  0  0  0  0  0
    7.6860  -13.2596   24.8585 C   0  0  0  0  0  0  0  0  0  0  0  0
    7.7500  -11.8790   24.8649 C   0  0  0  0  0  0  0  0  0  0  0  0
    6.8811  -11.1369   25.6396 C   0  0  0  0  0  0  0  0  0  0  0  0
    5.9164  -11.7337   26.4367 C   0  0  0  0  0  0  0  0  0  0  0  0
    5.8482  -13.1122   26.4339 C   0  0  0  0  0  0  0  0  0  0  0  0
    6.7259  -13.8537   25.6518 C   0  0  0  0  0  0  0  0  0  0  0  0
    8.8073  -15.7018   22.2469 C   0  0  0  0  0  0  0  0  0  0  0  0
    9.1731  -15.0898   21.2285 O   0  0  0  0  0  0  0  0  0  0  0  0
   11.2632  -18.1885   20.0763 N   0  0  0  0  0  0  0  0  0  0  0  0
   11.6950  -16.8533   20.3102 C   0  0  0  0  0  0  0  0  0  0  0  0
   12.3109  -16.2767   19.3770 O   0  0  0  0  0  0  0  0  0  0  0  0
   11.3974  -16.2355   21.6170 C   0  0  0  0  0  0  0  0  0  0  0  0
   10.7308  -17.2344   22.5331 C   0  0  2  0  0  0  0  0  0  0  0  0
    9.3226  -17.0228   22.5120 N   0  0  0  0  0  0  0  0  0  0  0  0
   11.2741  -17.1783   23.9116 C   0  0  0  0  0  0  0  0  0  0  0  0
   12.4913  -16.9398   24.0599 O   0  0  0  0  0  0  0  0  0  0  0  0
    8.8700  -17.8220   27.3172 O   0  0  0  0  0  0  0  0  0  0  0  0
    9.9937  -16.9766   27.4366 C   0  0  0  0  0  0  0  0  0  0  0  0
   10.9965  -17.4305   26.4021 C   0  0  2  0  0  0  0  0  0  0  0  0
   10.4752  -17.3829   25.0660 N   0  0  0  0  0  0  0  0  0  0  0  0
   11.5413  -18.7723   26.7460 C   0  0  0  0  0  0  0  0  0  0  0  0
   11.4663  -19.7541   25.9777 O   0  0  0  0  0  0  0  0  0  0  0  0
   12.1576  -18.9336   27.9739 O   0  0  0  0  0  0  0  0  0  0  0  0
  2  1  1  1
  2 10  1  0
  3  2  1  0
  3  4  1  0
  4  5  2  0
  4  9  1  0
  5  6  1  0
  6  7  2  0
  8  7  1  0
  9  8  2  0
 10 11  2  0
 13 12  1  0
 14 13  2  0
 15 13  1  0
 16 15  1  6
 16 18  1  0
 17 16  1  0
 17 10  1  0
 18 23  1  0
 19 18  2  0
 21 20  1  0
 22 21  1  1
 23 22  1  0
 24 26  1  0
 24 22  1  0
 25 24  2  0
M  END
$$$$
