FNS.pdb
     RDKit          3D

 26 26  0  0  1  0  0  0  0  0999 V2000
    8.6911  -16.1219   15.8358 N   0  0  0  0  0  0  0  0  0  0  0  0
    8.8618  -15.1307   16.8777 C   0  0  1  0  0  0  0  0  0  0  0  0
    7.6012  -15.0297   17.7293 C   0  0  0  0  0  0  0  0  0  0  0  0
    7.8696  -14.2124   18.9520 C   0  0  0  0  0  0  0  0  0  0  0  0
    8.2628  -12.8913   18.8516 C   0  0  0  0  0  0  0  0  0  0  0  0
    8.5093  -12.1414   19.9842 C   0  0  0  0  0  0  0  0  0  0  0  0
    8.3758  -12.6712   21.2583 C   0  0  0  0  0  0  0  0  0  0  0  0
    7.9832  -13.9902   21.3642 C   0  0  0  0  0  0  0  0  0  0  0  0
    7.7366  -14.7399   20.2202 C   0  0  0  0  0  0  0  0  0  0  0  0
    9.9555  -15.5833   17.7699 C   0  0  0  0  0  0  0  0  0  0  0  0
    9.9730  -16.7503   18.1980 O   0  0  0  0  0  0  0  0  0  0  0  0
   15.6304  -14.1848   19.4150 N   0  0  0  0  0  0  0  0  0  0  0  0
   14.5607  -15.0561   19.0676 C   0  0  0  0  0  0  0  0  0  0  0  0
   14.6924  -16.2726   19.3599 O   0  0  0  0  0  0  0  0  0  0  0  0
   13.3778  -14.4856   18.3945 C   0  0  0  0  0  0  0  0  0  0  0  0
   12.1155  -15.1446   18.8979 C   0  0  2  0  0  0  0  0  0  0  0  0
   11.0050  -14.6675   18.1443 N   0  0  0  0  0  0  0  0  0  0  0  0
   11.9200  -14.9401   20.3535 C   0  0  0  0  0  0  0  0  0  0  0  0
   12.0862  -13.7927   20.8186 O   0  0  0  0  0  0  0  0  0  0  0  0
    9.6997  -17.3437   22.7892 O   0  0  0  0  0  0  0  0  0  0  0  0
   10.1204  -16.0698   23.2272 C   0  0  0  0  0  0  0  0  0  0  0  0
   11.5051  -15.8476   22.6660 C   0  0  2  0  0  0  0  0  0  0  0  0
   11.5538  -15.9867   21.2385 N   0  0  0  0  0  0  0  0  0  0  0  0
   12.4996  -16.7181   23.3504 C   0  0  0  0  0  0  0  0  0  0  0  0
   13.1801  -17.5758   22.7496 O   0  0  0  0  0  0  0  0  0  0  0  0
   12.6740  -16.5659   24.7143 O   0  0  0  0  0  0  0  0  0  0  0  0
  2  1  1  6
  2 10  1  0
  3  2  1  0
  3  4  1  0
  4  5  2  0
  4  9  1  0
  5  6  1  0
  6  7  2  0
  8  7  1  0
  9  8  2  0
 10 11  2  0
 13 12  1  0
 14 13  2  0
 15 13  1  0
 16 15  1  6
 16 18  1  0
 17 16  1  0
 17 10  1  0
 18 23  1  0
 19 18  2  0
 21 20  1  0
 22 21  1  1
 23 22  1  0
 24 26  1  0
 24 22  1  0
 25 24  2  0
M  END
$$$$
