FNS.pdb
     RDKit          3D

 26 26  0  0  1  0  0  0  0  0999 V2000
    6.7026  -16.4254   24.2592 N   0  0  0  0  0  0  0  0  0  0  0  0
    7.9152  -15.6606   24.4633 C   0  0  1  0  0  0  0  0  0  0  0  0
    7.9241  -15.0361   25.8542 C   0  0  0  0  0  0  0  0  0  0  0  0
    7.1737  -13.7432   25.8434 C   0  0  0  0  0  0  0  0  0  0  0  0
    5.9901  -13.6027   26.5430 C   0  0  0  0  0  0  0  0  0  0  0  0
    5.3013  -12.4063   26.5295 C   0  0  0  0  0  0  0  0  0  0  0  0
    5.7583  -11.3046   25.8228 C   0  0  0  0  0  0  0  0  0  0  0  0
    6.9399  -11.4396   25.1223 C   0  0  0  0  0  0  0  0  0  0  0  0
    7.6286  -12.6467   25.1400 C   0  0  0  0  0  0  0  0  0  0  0  0
    9.0653  -16.5933   24.3969 C   0  0  0  0  0  0  0  0  0  0  0  0
    8.8790  -17.8219   24.4309 O   0  0  0  0  0  0  0  0  0  0  0  0
   11.1272  -17.5404   21.4473 N   0  0  0  0  0  0  0  0  0  0  0  0
   11.8557  -16.4337   21.9655 C   0  0  0  0  0  0  0  0  0  0  0  0
   11.8917  -15.3901   21.2639 O   0  0  0  0  0  0  0  0  0  0  0  0
   12.5157  -16.5772   23.2777 C   0  0  0  0  0  0  0  0  0  0  0  0
   11.5108  -16.9751   24.3328 C   0  0  2  0  0  0  0  0  0  0  0  0
   10.4075  -16.0754   24.2923 N   0  0  0  0  0  0  0  0  0  0  0  0
   12.1162  -17.0415   25.6848 C   0  0  0  0  0  0  0  0  0  0  0  0
   13.1629  -17.7069   25.8337 O   0  0  0  0  0  0  0  0  0  0  0  0
   10.0238  -15.5456   28.9090 O   0  0  0  0  0  0  0  0  0  0  0  0
   11.4135  -15.6260   29.1410 C   0  0  0  0  0  0  0  0  0  0  0  0
   11.9634  -16.6408   28.1666 C   0  0  2  0  0  0  0  0  0  0  0  0
   11.5609  -16.3849   26.8131 N   0  0  0  0  0  0  0  0  0  0  0  0
   11.6308  -18.0253   28.6002 C   0  0  0  0  0  0  0  0  0  0  0  0
   10.9289  -18.8014   27.9184 O   0  0  0  0  0  0  0  0  0  0  0  0
   12.1243  -18.4672   29.8146 O   0  0  0  0  0  0  0  0  0  0  0  0
  2  1  1  1
  2 10  1  0
  3  2  1  0
  3  4  1  0
  4  5  2  0
  4  9  1  0
  5  6  1  0
  6  7  2  0
  8  7  1  0
  9  8  2  0
 10 11  2  0
 13 12  1  0
 14 13  2  0
 15 13  1  0
 16 15  1  6
 16 18  1  0
 17 16  1  0
 17 10  1  0
 18 23  1  0
 19 18  2  0
 21 20  1  0
 22 21  1  1
 23 22  1  0
 24 26  1  0
 24 22  1  0
 25 24  2  0
M  END
$$$$
