FNS.pdb
     RDKit          3D

 26 26  0  0  1  0  0  0  0  0999 V2000
    7.7417  -15.1324   20.8603 N   0  0  0  0  0  0  0  0  0  0  0  0
    7.9737  -14.5848   22.1807 C   0  0  1  0  0  0  0  0  0  0  0  0
    6.6559  -14.1687   22.8246 C   0  0  0  0  0  0  0  0  0  0  0  0
    6.9061  -13.5777   24.1748 C   0  0  0  0  0  0  0  0  0  0  0  0
    7.5592  -12.3673   24.3107 C   0  0  0  0  0  0  0  0  0  0  0  0
    7.7876  -11.8262   25.5601 C   0  0  0  0  0  0  0  0  0  0  0  0
    7.3780  -12.4630   26.7215 C   0  0  0  0  0  0  0  0  0  0  0  0
    6.7253  -13.6722   26.5913 C   0  0  0  0  0  0  0  0  0  0  0  0
    6.4985  -14.2116   25.3306 C   0  0  0  0  0  0  0  0  0  0  0  0
    8.5544  -15.6538   23.0276 C   0  0  0  0  0  0  0  0  0  0  0  0
    7.9981  -16.7627   23.1067 O   0  0  0  0  0  0  0  0  0  0  0  0
   13.0394  -15.9067   21.9957 N   0  0  0  0  0  0  0  0  0  0  0  0
   12.3193  -16.8009   22.8358 C   0  0  0  0  0  0  0  0  0  0  0  0
   12.0545  -17.9393   22.3704 O   0  0  0  0  0  0  0  0  0  0  0  0
   11.9324  -16.3429   24.1843 C   0  0  0  0  0  0  0  0  0  0  0  0
   10.4438  -16.4978   24.3871 C   0  0  2  0  0  0  0  0  0  0  0  0
    9.7701  -15.4085   23.7642 N   0  0  0  0  0  0  0  0  0  0  0  0
   10.0842  -16.6186   25.8206 C   0  0  0  0  0  0  0  0  0  0  0  0
   10.1665  -15.6009   26.5402 O   0  0  0  0  0  0  0  0  0  0  0  0
    7.8983  -19.7541   27.2465 O   0  0  0  0  0  0  0  0  0  0  0  0
    7.9691  -18.5820   28.0294 C   0  0  0  0  0  0  0  0  0  0  0  0
    9.3370  -17.9833   27.8011 C   0  0  2  0  0  0  0  0  0  0  0  0
    9.6522  -17.8351   26.4090 N   0  0  0  0  0  0  0  0  0  0  0  0
   10.3798  -18.7504   28.5356 C   0  0  0  0  0  0  0  0  0  0  0  0
   11.3666  -19.2682   27.9718 O   0  0  0  0  0  0  0  0  0  0  0  0
   10.2447  -18.8931   29.9049 O   0  0  0  0  0  0  0  0  0  0  0  0
  2  1  1  6
  2 10  1  0
  3  2  1  0
  3  4  1  0
  4  5  2  0
  4  9  1  0
  5  6  1  0
  6  7  2  0
  8  7  1  0
  9  8  2  0
 10 11  2  0
 13 12  1  0
 14 13  2  0
 15 13  1  0
 16 15  1  1
 16 18  1  0
 17 16  1  0
 17 10  1  0
 18 23  1  0
 19 18  2  0
 21 20  1  0
 22 21  1  6
 23 22  1  0
 24 26  1  0
 24 22  1  0
 25 24  2  0
M  END
$$$$
