FNS.pdb
     RDKit          3D

 26 26  0  0  1  0  0  0  0  0999 V2000
    7.1544  -15.4797   21.0920 N   0  0  0  0  0  0  0  0  0  0  0  0
    7.5698  -14.8184   22.3115 C   0  0  1  0  0  0  0  0  0  0  0  0
    6.3549  -14.3494   23.1044 C   0  0  0  0  0  0  0  0  0  0  0  0
    6.7920  -13.6469   24.3495 C   0  0  0  0  0  0  0  0  0  0  0  0
    7.6011  -12.5282   24.2875 C   0  0  0  0  0  0  0  0  0  0  0  0
    8.0017  -11.8834   25.4406 C   0  0  0  0  0  0  0  0  0  0  0  0
    7.6163  -12.3221   26.6981 C   0  0  0  0  0  0  0  0  0  0  0  0
    6.8082  -13.4389   26.7656 C   0  0  0  0  0  0  0  0  0  0  0  0
    6.4083  -14.0835   25.6010 C   0  0  0  0  0  0  0  0  0  0  0  0
    8.2836  -15.8083   23.1527 C   0  0  0  0  0  0  0  0  0  0  0  0
    7.7777  -16.9215   23.3768 O   0  0  0  0  0  0  0  0  0  0  0  0
   12.4040  -15.7996   21.6053 N   0  0  0  0  0  0  0  0  0  0  0  0
   11.7250  -16.7374   22.4320 C   0  0  0  0  0  0  0  0  0  0  0  0
   11.1643  -17.7075   21.8600 O   0  0  0  0  0  0  0  0  0  0  0  0
   11.7208  -16.5166   23.8912 C   0  0  0  0  0  0  0  0  0  0  0  0
   10.3047  -16.4806   24.4151 C   0  0  2  0  0  0  0  0  0  0  0  0
    9.5711  -15.4808   23.7147 N   0  0  0  0  0  0  0  0  0  0  0  0
   10.2564  -16.2708   25.8822 C   0  0  0  0  0  0  0  0  0  0  0  0
   11.1912  -15.6424   26.4223 O   0  0  0  0  0  0  0  0  0  0  0  0
    8.7370  -20.0772   28.1095 O   0  0  0  0  0  0  0  0  0  0  0  0
    8.5822  -19.0876   27.1152 C   0  0  0  0  0  0  0  0  0  0  0  0
    9.3222  -17.8619   27.5965 C   0  0  2  0  0  0  0  0  0  0  0  0
    9.1987  -16.7506   26.6970 N   0  0  0  0  0  0  0  0  0  0  0  0
   10.7432  -18.1861   27.8986 C   0  0  0  0  0  0  0  0  0  0  0  0
   11.5935  -18.4081   27.0112 O   0  0  0  0  0  0  0  0  0  0  0  0
   11.1342  -18.2427   29.2243 O   0  0  0  0  0  0  0  0  0  0  0  0
  2  1  1  6
  2 10  1  0
  3  2  1  0
  3  4  1  0
  4  5  2  0
  4  9  1  0
  5  6  1  0
  6  7  2  0
  8  7  1  0
  9  8  2  0
 10 11  2  0
 13 12  1  0
 14 13  2  0
 15 13  1  0
 16 15  1  6
 16 18  1  0
 17 16  1  0
 17 10  1  0
 18 23  1  0
 19 18  2  0
 21 20  1  0
 22 21  1  6
 23 22  1  0
 24 26  1  0
 24 22  1  0
 25 24  2  0
M  END
$$$$
