FNS.pdb
     RDKit          3D

 26 26  0  0  1  0  0  0  0  0999 V2000
    7.9685  -15.5442   25.6826 N   0  0  0  0  0  0  0  0  0  0  0  0
    6.9187  -15.8640   24.7378 C   0  0  1  0  0  0  0  0  0  0  0  0
    5.8385  -14.7882   24.7565 C   0  0  0  0  0  0  0  0  0  0  0  0
    6.2861  -13.6229   25.5790 C   0  0  0  0  0  0  0  0  0  0  0  0
    7.0096  -12.5900   25.0135 C   0  0  0  0  0  0  0  0  0  0  0  0
    7.4204  -11.5163   25.7779 C   0  0  0  0  0  0  0  0  0  0  0  0
    7.1302  -11.4249   27.1305 C   0  0  0  0  0  0  0  0  0  0  0  0
    6.4078  -12.4538   27.7002 C   0  0  0  0  0  0  0  0  0  0  0  0
    5.9972  -13.5320   26.9252 C   0  0  0  0  0  0  0  0  0  0  0  0
    7.5076  -15.8668   23.3776 C   0  0  0  0  0  0  0  0  0  0  0  0
    6.9248  -16.4435   22.4432 O   0  0  0  0  0  0  0  0  0  0  0  0
    7.6221  -12.6483   20.3883 N   0  0  0  0  0  0  0  0  0  0  0  0
    8.2619  -13.9185   20.3508 C   0  0  0  0  0  0  0  0  0  0  0  0
    7.7274  -14.8104   19.6426 O   0  0  0  0  0  0  0  0  0  0  0  0
    9.4973  -14.1083   21.1353 C   0  0  0  0  0  0  0  0  0  0  0  0
    9.4415  -15.4092   21.9007 C   0  0  2  0  0  0  0  0  0  0  0  0
    8.7624  -15.1981   23.1347 N   0  0  0  0  0  0  0  0  0  0  0  0
   10.7881  -15.9944   22.1078 C   0  0  0  0  0  0  0  0  0  0  0  0
   11.7176  -15.2352   22.4543 O   0  0  0  0  0  0  0  0  0  0  0  0
   11.2013  -19.9004   22.9420 O   0  0  0  0  0  0  0  0  0  0  0  0
   12.2533  -19.0294   23.2975 C   0  0  0  0  0  0  0  0  0  0  0  0
   12.3368  -17.9776   22.2165 C   0  0  2  0  0  0  0  0  0  0  0  0
   11.0666  -17.3742   21.9305 N   0  0  0  0  0  0  0  0  0  0  0  0
   12.9876  -18.5246   20.9948 C   0  0  0  0  0  0  0  0  0  0  0  0
   14.1445  -18.9952   20.9931 O   0  0  0  0  0  0  0  0  0  0  0  0
   12.2738  -18.5085   19.8098 O   0  0  0  0  0  0  0  0  0  0  0  0
  2  1  1  1
  2 10  1  0
  3  2  1  0
  3  4  1  0
  4  5  2  0
  4  9  1  0
  5  6  1  0
  6  7  2  0
  8  7  1  0
  9  8  2  0
 10 11  2  0
 13 12  1  0
 14 13  2  0
 15 13  1  0
 16 15  1  1
 16 18  1  0
 17 16  1  0
 17 10  1  0
 18 23  1  0
 19 18  2  0
 21 20  1  0
 22 21  1  1
 23 22  1  0
 24 26  1  0
 24 22  1  0
 25 24  2  0
M  END
$$$$
