ACA.pdb
     RDKit          3D

 17 16  0  0  1  0  0  0  0  0999 V2000
    6.6120  -14.8352   20.3172 C   0  0  0  0  0  0  0  0  0  0  0  0
    7.2195  -13.5235   20.8255 C   0  0  2  0  0  0  0  0  0  0  0  0
    8.2347  -13.1502   19.8623 N   0  0  0  0  0  0  0  0  0  0  0  0
    7.8367  -13.6832   22.1422 C   0  0  0  0  0  0  0  0  0  0  0  0
    9.0506  -13.9915   22.2237 O   0  0  0  0  0  0  0  0  0  0  0  0
    7.1479  -13.5111   23.3819 N   0  0  0  0  0  0  0  0  0  0  0  0
    7.8183  -13.6081   24.6422 C   0  0  1  0  0  0  0  0  0  0  0  0
    6.9153  -12.9380   25.6879 C   0  0  0  0  0  0  0  0  0  0  0  0
    7.7467  -13.0069   27.2929 S   0  0  0  0  0  0  0  0  0  0  0  0
    8.0188  -15.0012   25.0954 C   0  0  0  0  0  0  0  0  0  0  0  0
    6.9881  -15.7243   25.1866 O   0  0  0  0  0  0  0  0  0  0  0  0
   10.2664  -17.6713   24.9137 C   0  0  0  0  0  0  0  0  0  0  0  0
    9.3253  -16.9462   25.8551 C   0  0  2  0  0  0  0  0  0  0  0  0
    9.2591  -15.5638   25.4256 N   0  0  0  0  0  0  0  0  0  0  0  0
    9.7855  -17.0552   27.2698 C   0  0  0  0  0  0  0  0  0  0  0  0
   10.1115  -16.0900   27.9761 O   0  0  0  0  0  0  0  0  0  0  0  0
    9.8407  -18.3411   27.8015 O   0  0  0  0  0  0  0  0  0  0  0  0
  2  1  1  6
  2  4  1  0
  3  2  1  0
  4  6  1  0
  5  4  2  0
  6  7  1  0
  7  8  1  1
  8  9  1  0
 10 14  1  0
 10  7  1  0
 11 10  2  0
 13 12  1  6
 13 14  1  0
 13 15  1  0
 15 17  1  0
 16 15  2  0
M  END
$$$$
