ACA.pdb
     RDKit          3D

 17 16  0  0  1  0  0  0  0  0999 V2000
   -3.0823  -24.6515   27.4564 C   0  0  0  0  0  0  0  0  0  0  0  0
   -4.4852  -25.2389   27.6430 C   0  0  2  0  0  0  0  0  0  0  0  0
   -5.2142  -24.9334   26.4293 N   0  0  0  0  0  0  0  0  0  0  0  0
   -5.1773  -24.6439   28.7862 C   0  0  0  0  0  0  0  0  0  0  0  0
   -4.7171  -24.8073   29.9423 O   0  0  0  0  0  0  0  0  0  0  0  0
   -6.3726  -23.8672   28.6901 N   0  0  0  0  0  0  0  0  0  0  0  0
   -7.0179  -23.3218   29.8448 C   0  0  1  0  0  0  0  0  0  0  0  0
   -7.6433  -21.9840   29.4242 C   0  0  0  0  0  0  0  0  0  0  0  0
   -8.5146  -21.2851   30.8470 S   0  0  0  0  0  0  0  0  0  0  0  0
   -8.1264  -24.1602   30.3495 C   0  0  0  0  0  0  0  0  0  0  0  0
   -9.0138  -24.4931   29.5157 O   0  0  0  0  0  0  0  0  0  0  0  0
   -8.9910  -26.2668   33.2251 C   0  0  0  0  0  0  0  0  0  0  0  0
   -9.4037  -25.4022   32.0504 C   0  0  2  0  0  0  0  0  0  0  0  0
   -8.2551  -24.6033   31.6728 N   0  0  0  0  0  0  0  0  0  0  0  0
  -10.5740  -24.5439   32.3953 C   0  0  0  0  0  0  0  0  0  0  0  0
  -10.5530  -23.3045   32.4092 O   0  0  0  0  0  0  0  0  0  0  0  0
  -11.7526  -25.2116   32.7180 O   0  0  0  0  0  0  0  0  0  0  0  0
  2  1  1  6
  2  4  1  0
  3  2  1  0
  4  6  1  0
  5  4  2  0
  6  7  1  0
  7  8  1  6
  8  9  1  0
 10 14  1  0
 10  7  1  0
 11 10  2  0
 13 12  1  1
 13 14  1  0
 13 15  1  0
 15 17  1  0
 16 15  2  0
M  END
$$$$
