ACA.pdb
     RDKit          3D

 17 16  0  0  1  0  0  0  0  0999 V2000
    6.2003  -15.2551   20.5780 C   0  0  0  0  0  0  0  0  0  0  0  0
    7.0098  -13.9951   20.9018 C   0  0  2  0  0  0  0  0  0  0  0  0
    7.9102  -13.7971   19.7847 N   0  0  0  0  0  0  0  0  0  0  0  0
    7.7891  -14.1489   22.1302 C   0  0  0  0  0  0  0  0  0  0  0  0
    8.9562  -14.6065   22.0700 O   0  0  0  0  0  0  0  0  0  0  0  0
    7.3142  -13.8095   23.4342 N   0  0  0  0  0  0  0  0  0  0  0  0
    8.1242  -13.9713   24.6026 C   0  0  1  0  0  0  0  0  0  0  0  0
    7.4518  -13.1784   25.7327 C   0  0  0  0  0  0  0  0  0  0  0  0
    5.7452  -13.7539   25.9011 S   0  0  0  0  0  0  0  0  0  0  0  0
    8.2095  -15.3718   25.0691 C   0  0  0  0  0  0  0  0  0  0  0  0
    7.4457  -16.2062   24.5088 O   0  0  0  0  0  0  0  0  0  0  0  0
   10.2398  -17.4668   24.7882 C   0  0  0  0  0  0  0  0  0  0  0  0
    9.4934  -17.2133   26.0829 C   0  0  2  0  0  0  0  0  0  0  0  0
    9.0695  -15.8275   26.0774 N   0  0  0  0  0  0  0  0  0  0  0  0
   10.3473  -17.5166   27.2678 C   0  0  0  0  0  0  0  0  0  0  0  0
   10.8870  -16.6573   27.9799 O   0  0  0  0  0  0  0  0  0  0  0  0
   10.5296  -18.8646   27.5659 O   0  0  0  0  0  0  0  0  0  0  0  0
  2  1  1  6
  2  4  1  0
  3  2  1  0
  4  6  1  0
  5  4  2  0
  6  7  1  0
  7  8  1  1
  8  9  1  0
 10 14  1  0
 10  7  1  0
 11 10  2  0
 13 12  1  6
 13 14  1  0
 13 15  1  0
 15 17  1  0
 16 15  2  0
M  END
$$$$
