ACA.pdb
     RDKit          3D

 17 16  0  0  1  0  0  0  0  0999 V2000
    7.0621  -19.1610   18.5155 C   0  0  0  0  0  0  0  0  0  0  0  0
    7.4208  -17.8499   17.8081 C   0  0  2  0  0  0  0  0  0  0  0  0
    8.1607  -18.2229   16.6201 N   0  0  0  0  0  0  0  0  0  0  0  0
    8.2542  -16.9885   18.6468 C   0  0  0  0  0  0  0  0  0  0  0  0
    9.4936  -17.1808   18.6928 O   0  0  0  0  0  0  0  0  0  0  0  0
    7.7557  -15.9121   19.4430 N   0  0  0  0  0  0  0  0  0  0  0  0
    8.6158  -15.1086   20.2566 C   0  0  1  0  0  0  0  0  0  0  0  0
    7.8017  -13.8868   20.7064 C   0  0  0  0  0  0  0  0  0  0  0  0
    7.7133  -12.7173   19.3293 S   0  0  0  0  0  0  0  0  0  0  0  0
    9.0622  -15.7898   21.4907 C   0  0  0  0  0  0  0  0  0  0  0  0
    8.2247  -16.5434   22.0601 O   0  0  0  0  0  0  0  0  0  0  0  0
   10.6147  -17.9533   22.6644 C   0  0  0  0  0  0  0  0  0  0  0  0
   10.7220  -16.5236   23.1563 C   0  0  2  0  0  0  0  0  0  0  0  0
   10.3350  -15.6561   22.0618 N   0  0  0  0  0  0  0  0  0  0  0  0
   12.1023  -16.2173   23.6316 C   0  0  0  0  0  0  0  0  0  0  0  0
   12.8505  -15.3757   23.1132 O   0  0  0  0  0  0  0  0  0  0  0  0
   12.5489  -16.9431   24.7330 O   0  0  0  0  0  0  0  0  0  0  0  0
  2  1  1  1
  2  4  1  0
  3  2  1  0
  4  6  1  0
  5  4  2  0
  6  7  1  0
  7  8  1  1
  8  9  1  0
 10 14  1  0
 10  7  1  0
 11 10  2  0
 13 12  1  6
 13 14  1  0
 13 15  1  0
 15 17  1  0
 16 15  2  0
M  END
$$$$
