ACA.pdb
     RDKit          3D

 17 16  0  0  1  0  0  0  0  0999 V2000
    6.8046  -14.9360   20.2742 C   0  0  0  0  0  0  0  0  0  0  0  0
    7.1956  -13.5324   20.7482 C   0  0  2  0  0  0  0  0  0  0  0  0
    8.0013  -12.9598   19.6894 N   0  0  0  0  0  0  0  0  0  0  0  0
    7.9779  -13.5727   21.9837 C   0  0  0  0  0  0  0  0  0  0  0  0
    9.2292  -13.6486   21.9222 O   0  0  0  0  0  0  0  0  0  0  0  0
    7.4150  -13.5314   23.2962 N   0  0  0  0  0  0  0  0  0  0  0  0
    8.2159  -13.6943   24.4707 C   0  0  1  0  0  0  0  0  0  0  0  0
    7.4285  -13.0907   25.6426 C   0  0  0  0  0  0  0  0  0  0  0  0
    5.7117  -13.6494   25.5289 S   0  0  0  0  0  0  0  0  0  0  0  0
    8.4653  -15.1092   24.8203 C   0  0  0  0  0  0  0  0  0  0  0  0
    7.4855  -15.8997   24.7285 O   0  0  0  0  0  0  0  0  0  0  0  0
   11.1404  -17.4751   24.7797 C   0  0  0  0  0  0  0  0  0  0  0  0
    9.8469  -17.0500   25.4459 C   0  0  2  0  0  0  0  0  0  0  0  0
    9.6995  -15.6231   25.2406 N   0  0  0  0  0  0  0  0  0  0  0  0
    9.8478  -17.3938   26.8975 C   0  0  0  0  0  0  0  0  0  0  0  0
    9.7535  -16.5638   27.8134 O   0  0  0  0  0  0  0  0  0  0  0  0
    9.9637  -18.7460   27.2093 O   0  0  0  0  0  0  0  0  0  0  0  0
  2  1  1  6
  2  4  1  0
  3  2  1  0
  4  6  1  0
  5  4  2  0
  6  7  1  0
  7  8  1  1
  8  9  1  0
 10 14  1  0
 10  7  1  0
 11 10  2  0
 13 12  1  1
 13 14  1  0
 13 15  1  0
 15 17  1  0
 16 15  2  0
M  END
$$$$
