ACA.pdb
     RDKit          3D

 17 16  0  0  1  0  0  0  0  0999 V2000
    6.5090  -16.0425   21.1397 C   0  0  0  0  0  0  0  0  0  0  0  0
    6.9982  -14.5939   21.2402 C   0  0  2  0  0  0  0  0  0  0  0  0
    7.9211  -14.4035   20.1402 N   0  0  0  0  0  0  0  0  0  0  0  0
    7.6912  -14.3392   22.5031 C   0  0  0  0  0  0  0  0  0  0  0  0
    8.9256  -14.5504   22.5856 O   0  0  0  0  0  0  0  0  0  0  0  0
    7.0566  -13.8542   23.6876 N   0  0  0  0  0  0  0  0  0  0  0  0
    7.7558  -13.7405   24.9307 C   0  0  1  0  0  0  0  0  0  0  0  0
    6.8416  -12.9713   25.8954 C   0  0  0  0  0  0  0  0  0  0  0  0
    7.7158  -12.7537   27.4640 S   0  0  0  0  0  0  0  0  0  0  0  0
    8.0339  -15.0445   25.5700 C   0  0  0  0  0  0  0  0  0  0  0  0
    7.0464  -15.8076   25.7601 O   0  0  0  0  0  0  0  0  0  0  0  0
   10.3178  -17.6425   25.8190 C   0  0  0  0  0  0  0  0  0  0  0  0
    9.4344  -16.7484   26.6664 C   0  0  2  0  0  0  0  0  0  0  0  0
    9.3025  -15.4829   25.9729 N   0  0  0  0  0  0  0  0  0  0  0  0
   10.0040  -16.5636   28.0326 C   0  0  0  0  0  0  0  0  0  0  0  0
   10.3269  -15.4678   28.5140 O   0  0  0  0  0  0  0  0  0  0  0  0
   10.1708  -17.7195   28.7911 O   0  0  0  0  0  0  0  0  0  0  0  0
  2  1  1  1
  2  4  1  0
  3  2  1  0
  4  6  1  0
  5  4  2  0
  6  7  1  0
  7  8  1  1
  8  9  1  0
 10 14  1  0
 10  7  1  0
 11 10  2  0
 13 12  1  6
 13 14  1  0
 13 15  1  0
 15 17  1  0
 16 15  2  0
M  END
$$$$
