ACA.pdb
     RDKit          3D

 17 16  0  0  1  0  0  0  0  0999 V2000
    7.4027  -15.2973   18.1096 C   0  0  0  0  0  0  0  0  0  0  0  0
    7.5539  -13.9552   18.8333 C   0  0  2  0  0  0  0  0  0  0  0  0
    8.3570  -13.1183   17.9657 N   0  0  0  0  0  0  0  0  0  0  0  0
    8.2289  -14.1042   20.1225 C   0  0  0  0  0  0  0  0  0  0  0  0
    9.4829  -14.0849   20.1707 O   0  0  0  0  0  0  0  0  0  0  0  0
    7.5550  -14.2754   21.3705 N   0  0  0  0  0  0  0  0  0  0  0  0
    8.2645  -14.3646   22.6099 C   0  0  1  0  0  0  0  0  0  0  0  0
    7.2433  -14.1350   23.7334 C   0  0  0  0  0  0  0  0  0  0  0  0
    8.1111  -14.1970   25.3193 S   0  0  0  0  0  0  0  0  0  0  0  0
    8.8588  -15.6967   22.8521 C   0  0  0  0  0  0  0  0  0  0  0  0
    8.1132  -16.6968   22.6583 O   0  0  0  0  0  0  0  0  0  0  0  0
   11.8777  -17.4264   22.5345 C   0  0  0  0  0  0  0  0  0  0  0  0
   10.6593  -17.2775   23.4238 C   0  0  2  0  0  0  0  0  0  0  0  0
   10.1757  -15.9194   23.2765 N   0  0  0  0  0  0  0  0  0  0  0  0
   10.9864  -17.5874   24.8458 C   0  0  0  0  0  0  0  0  0  0  0  0
   10.8878  -16.7777   25.7792 O   0  0  0  0  0  0  0  0  0  0  0  0
   11.4292  -18.8816   25.1072 O   0  0  0  0  0  0  0  0  0  0  0  0
  2  1  1  6
  2  4  1  0
  3  2  1  0
  4  6  1  0
  5  4  2  0
  6  7  1  0
  7  8  1  1
  8  9  1  0
 10 14  1  0
 10  7  1  0
 11 10  2  0
 13 12  1  6
 13 14  1  0
 13 15  1  0
 15 17  1  0
 16 15  2  0
M  END
$$$$
