ACA.pdb
     RDKit          3D

 17 16  0  0  1  0  0  0  0  0999 V2000
    3.6733  -22.9331   21.5758 C   0  0  0  0  0  0  0  0  0  0  0  0
    3.8144  -21.4971   21.0603 C   0  0  2  0  0  0  0  0  0  0  0  0
    3.8146  -21.5867   19.6146 N   0  0  0  0  0  0  0  0  0  0  0  0
    5.0621  -20.8778   21.5071 C   0  0  0  0  0  0  0  0  0  0  0  0
    6.1601  -21.3752   21.1576 O   0  0  0  0  0  0  0  0  0  0  0  0
    5.1342  -19.7159   22.3352 N   0  0  0  0  0  0  0  0  0  0  0  0
    6.3823  -19.1866   22.7927 C   0  0  1  0  0  0  0  0  0  0  0  0
    6.1101  -17.7654   23.3064 C   0  0  0  0  0  0  0  0  0  0  0  0
    7.6550  -17.0838   23.9553 S   0  0  0  0  0  0  0  0  0  0  0  0
    6.9580  -19.9377   23.9289 C   0  0  0  0  0  0  0  0  0  0  0  0
    6.2261  -20.0788   24.9476 O   0  0  0  0  0  0  0  0  0  0  0  0
    9.3340  -22.4924   24.6844 C   0  0  0  0  0  0  0  0  0  0  0  0
    8.7025  -21.1903   25.1352 C   0  0  2  0  0  0  0  0  0  0  0  0
    8.2437  -20.4951   23.9493 N   0  0  0  0  0  0  0  0  0  0  0  0
    9.6687  -20.3611   25.9124 C   0  0  0  0  0  0  0  0  0  0  0  0
   10.1365  -20.6807   27.0150 O   0  0  0  0  0  0  0  0  0  0  0  0
   10.0495  -19.1540   25.3320 O   0  0  0  0  0  0  0  0  0  0  0  0
  2  1  1  1
  2  4  1  0
  3  2  1  0
  4  6  1  0
  5  4  2  0
  6  7  1  0
  7  8  1  1
  8  9  1  0
 10 14  1  0
 10  7  1  0
 11 10  2  0
 13 12  1  6
 13 14  1  0
 13 15  1  0
 15 17  1  0
 16 15  2  0
M  END
$$$$
