ACA.pdb
     RDKit          3D

 17 16  0  0  1  0  0  0  0  0999 V2000
    6.6495  -15.5638   20.8239 C   0  0  0  0  0  0  0  0  0  0  0  0
    7.0106  -14.1100   21.1461 C   0  0  2  0  0  0  0  0  0  0  0  0
    7.9007  -13.6729   20.0904 N   0  0  0  0  0  0  0  0  0  0  0  0
    7.6928  -13.9908   22.4347 C   0  0  0  0  0  0  0  0  0  0  0  0
    8.9263  -14.2118   22.5051 O   0  0  0  0  0  0  0  0  0  0  0  0
    7.0484  -13.6318   23.6581 N   0  0  0  0  0  0  0  0  0  0  0  0
    7.7372  -13.6493   24.9121 C   0  0  1  0  0  0  0  0  0  0  0  0
    6.8323  -12.9480   25.9354 C   0  0  0  0  0  0  0  0  0  0  0  0
    7.6690  -12.9516   27.5392 S   0  0  0  0  0  0  0  0  0  0  0  0
    7.9765  -15.0127   25.4322 C   0  0  0  0  0  0  0  0  0  0  0  0
    6.9751  -15.7778   25.5063 O   0  0  0  0  0  0  0  0  0  0  0  0
   10.1035  -17.7054   25.5265 C   0  0  0  0  0  0  0  0  0  0  0  0
    9.3074  -16.8134   26.4584 C   0  0  2  0  0  0  0  0  0  0  0  0
    9.2231  -15.5046   25.8422 N   0  0  0  0  0  0  0  0  0  0  0  0
    9.9391  -16.7400   27.8077 C   0  0  0  0  0  0  0  0  0  0  0  0
   10.3409  -15.6932   28.3364 O   0  0  0  0  0  0  0  0  0  0  0  0
   10.0710  -17.9459   28.4916 O   0  0  0  0  0  0  0  0  0  0  0  0
  2  1  1  6
  2  4  1  0
  3  2  1  0
  4  6  1  0
  5  4  2  0
  6  7  1  0
  7  8  1  1
  8  9  1  0
 10 14  1  0
 10  7  1  0
 11 10  2  0
 13 12  1  6
 13 14  1  0
 13 15  1  0
 15 17  1  0
 16 15  2  0
M  END
$$$$
