ACA.pdb
     RDKit          3D

 17 16  0  0  1  0  0  0  0  0999 V2000
   10.5828  -17.5989   16.8710 C   0  0  0  0  0  0  0  0  0  0  0  0
    9.4951  -17.7507   17.9395 C   0  0  2  0  0  0  0  0  0  0  0  0
    8.2430  -17.4248   17.2883 N   0  0  0  0  0  0  0  0  0  0  0  0
    9.7064  -16.8407   19.0652 C   0  0  0  0  0  0  0  0  0  0  0  0
   10.8081  -16.8449   19.6665 O   0  0  0  0  0  0  0  0  0  0  0  0
    8.7294  -15.9185   19.5510 N   0  0  0  0  0  0  0  0  0  0  0  0
    8.9931  -15.0437   20.6522 C   0  0  1  0  0  0  0  0  0  0  0  0
    7.8120  -14.0671   20.7472 C   0  0  0  0  0  0  0  0  0  0  0  0
    7.9097  -12.9113   19.3591 S   0  0  0  0  0  0  0  0  0  0  0  0
    9.0628  -15.7420   21.9537 C   0  0  0  0  0  0  0  0  0  0  0  0
    8.0237  -16.3531   22.3284 O   0  0  0  0  0  0  0  0  0  0  0  0
   10.6685  -17.9810   23.5610 C   0  0  0  0  0  0  0  0  0  0  0  0
   10.1824  -16.6050   23.9709 C   0  0  2  0  0  0  0  0  0  0  0  0
   10.1895  -15.7698   22.7866 N   0  0  0  0  0  0  0  0  0  0  0  0
   11.0372  -16.0282   25.0487 C   0  0  0  0  0  0  0  0  0  0  0  0
   11.7367  -15.0130   24.9194 O   0  0  0  0  0  0  0  0  0  0  0  0
   11.0252  -16.6995   26.2687 O   0  0  0  0  0  0  0  0  0  0  0  0
  2  1  1  6
  2  4  1  0
  3  2  1  0
  4  6  1  0
  5  4  2  0
  6  7  1  0
  7  8  1  1
  8  9  1  0
 10 14  1  0
 10  7  1  0
 11 10  2  0
 13 12  1  6
 13 14  1  0
 13 15  1  0
 15 17  1  0
 16 15  2  0
M  END
$$$$
