ACA.pdb
     RDKit          3D

 17 16  0  0  1  0  0  0  0  0999 V2000
   -3.8124  -24.6715   25.4629 C   0  0  0  0  0  0  0  0  0  0  0  0
   -4.7208  -25.3279   26.5077 C   0  0  2  0  0  0  0  0  0  0  0  0
   -5.9366  -25.6941   25.8109 N   0  0  0  0  0  0  0  0  0  0  0  0
   -5.0463  -24.4107   27.5999 C   0  0  0  0  0  0  0  0  0  0  0  0
   -4.1307  -23.9872   28.3466 O   0  0  0  0  0  0  0  0  0  0  0  0
   -6.3638  -23.9433   27.8947 N   0  0  0  0  0  0  0  0  0  0  0  0
   -6.6447  -23.1430   29.0471 C   0  0  1  0  0  0  0  0  0  0  0  0
   -7.9372  -22.3672   28.7550 C   0  0  0  0  0  0  0  0  0  0  0  0
   -8.2648  -21.2544   30.1430 S   0  0  0  0  0  0  0  0  0  0  0  0
   -6.9023  -23.9387   30.2665 C   0  0  0  0  0  0  0  0  0  0  0  0
   -7.1976  -23.2975   31.3130 O   0  0  0  0  0  0  0  0  0  0  0  0
   -8.4598  -25.9150   31.9990 C   0  0  0  0  0  0  0  0  0  0  0  0
   -6.9949  -25.9961   31.6178 C   0  0  2  0  0  0  0  0  0  0  0  0
   -6.8411  -25.3371   30.3363 N   0  0  0  0  0  0  0  0  0  0  0  0
   -6.5283  -27.4117   31.5612 C   0  0  0  0  0  0  0  0  0  0  0  0
   -6.5053  -28.1005   30.5308 O   0  0  0  0  0  0  0  0  0  0  0  0
   -6.0965  -27.9656   32.7637 O   0  0  0  0  0  0  0  0  0  0  0  0
  2  1  1  6
  2  4  1  0
  3  2  1  0
  4  6  1  0
  5  4  2  0
  6  7  1  0
  7  8  1  6
  8  9  1  0
 10 14  1  0
 10  7  1  0
 11 10  2  0
 13 12  1  6
 13 14  1  0
 13 15  1  0
 15 17  1  0
 16 15  2  0
M  END
$$$$
