ACA.pdb
     RDKit          3D

 17 16  0  0  1  0  0  0  0  0999 V2000
    6.7695  -16.1711   21.0488 C   0  0  0  0  0  0  0  0  0  0  0  0
    7.1466  -14.6976   21.2345 C   0  0  2  0  0  0  0  0  0  0  0  0
    8.1144  -14.3963   20.1998 N   0  0  0  0  0  0  0  0  0  0  0  0
    7.7464  -14.4496   22.5455 C   0  0  0  0  0  0  0  0  0  0  0  0
    8.9762  -14.6392   22.7096 O   0  0  0  0  0  0  0  0  0  0  0  0
    7.0229  -13.9947   23.6903 N   0  0  0  0  0  0  0  0  0  0  0  0
    7.6731  -13.6959   24.9293 C   0  0  1  0  0  0  0  0  0  0  0  0
    6.6483  -12.9732   25.8155 C   0  0  0  0  0  0  0  0  0  0  0  0
    7.4261  -12.6001   27.4054 S   0  0  0  0  0  0  0  0  0  0  0  0
    8.0953  -14.9000   25.6766 C   0  0  0  0  0  0  0  0  0  0  0  0
    7.2220  -15.7936   25.8569 O   0  0  0  0  0  0  0  0  0  0  0  0
   10.7504  -17.0719   26.2455 C   0  0  0  0  0  0  0  0  0  0  0  0
    9.6553  -16.3073   26.9624 C   0  0  2  0  0  0  0  0  0  0  0  0
    9.3818  -15.1117   26.1905 N   0  0  0  0  0  0  0  0  0  0  0  0
   10.0548  -15.9732   28.3601 C   0  0  0  0  0  0  0  0  0  0  0  0
   10.1366  -14.8202   28.8081 O   0  0  0  0  0  0  0  0  0  0  0  0
   10.3488  -17.0518   29.1904 O   0  0  0  0  0  0  0  0  0  0  0  0
  2  1  1  1
  2  4  1  0
  3  2  1  0
  4  6  1  0
  5  4  2  0
  6  7  1  0
  7  8  1  1
  8  9  1  0
 10 14  1  0
 10  7  1  0
 11 10  2  0
 13 12  1  6
 13 14  1  0
 13 15  1  0
 15 17  1  0
 16 15  2  0
M  END
$$$$
