ACA.pdb
     RDKit          3D

 17 16  0  0  1  0  0  0  0  0999 V2000
   -0.5100  -28.0330   24.7759 C   0  0  0  0  0  0  0  0  0  0  0  0
   -1.7450  -27.1537   24.9980 C   0  0  2  0  0  0  0  0  0  0  0  0
   -1.7522  -26.1895   23.9172 N   0  0  0  0  0  0  0  0  0  0  0  0
   -1.6874  -26.4465   26.2773 C   0  0  0  0  0  0  0  0  0  0  0  0
   -0.7705  -25.6149   26.4844 O   0  0  0  0  0  0  0  0  0  0  0  0
   -2.6199  -26.6317   27.3437 N   0  0  0  0  0  0  0  0  0  0  0  0
   -2.4621  -25.9852   28.6103 C   0  0  1  0  0  0  0  0  0  0  0  0
   -3.7931  -25.2908   28.9329 C   0  0  0  0  0  0  0  0  0  0  0  0
   -3.6571  -24.5180   30.5628 S   0  0  0  0  0  0  0  0  0  0  0  0
   -2.2021  -26.9254   29.7215 C   0  0  0  0  0  0  0  0  0  0  0  0
   -3.0698  -27.8192   29.9261 O   0  0  0  0  0  0  0  0  0  0  0  0
    0.5853  -27.9566   31.9044 C   0  0  0  0  0  0  0  0  0  0  0  0
   -0.8884  -27.9224   31.5511 C   0  0  2  0  0  0  0  0  0  0  0  0
   -1.0727  -26.8905   30.5506 N   0  0  0  0  0  0  0  0  0  0  0  0
   -1.7280  -27.6671   32.7574 C   0  0  0  0  0  0  0  0  0  0  0  0
   -2.2461  -28.5549   33.4503 O   0  0  0  0  0  0  0  0  0  0  0  0
   -1.9226  -26.3314   33.0999 O   0  0  0  0  0  0  0  0  0  0  0  0
  2  1  1  6
  2  4  1  0
  3  2  1  0
  4  6  1  0
  5  4  2  0
  6  7  1  0
  7  8  1  1
  8  9  1  0
 10 14  1  0
 10  7  1  0
 11 10  2  0
 13 12  1  1
 13 14  1  0
 13 15  1  0
 15 17  1  0
 16 15  2  0
M  END
$$$$
