ACA.pdb
     RDKit          3D

 17 16  0  0  1  0  0  0  0  0999 V2000
    9.1076  -16.7204   21.4406 C   0  0  0  0  0  0  0  0  0  0  0  0
    8.1425  -15.5307   21.4109 C   0  0  2  0  0  0  0  0  0  0  0  0
    8.4734  -14.7736   20.2212 N   0  0  0  0  0  0  0  0  0  0  0  0
    8.2959  -14.6750   22.5874 C   0  0  0  0  0  0  0  0  0  0  0  0
    9.2909  -13.9150   22.6748 O   0  0  0  0  0  0  0  0  0  0  0  0
    7.3759  -14.6332   23.6796 N   0  0  0  0  0  0  0  0  0  0  0  0
    7.6347  -13.8683   24.8608 C   0  0  1  0  0  0  0  0  0  0  0  0
    6.2988  -13.7145   25.6021 C   0  0  0  0  0  0  0  0  0  0  0  0
    6.5402  -12.5811   26.9910 S   0  0  0  0  0  0  0  0  0  0  0  0
    8.5596  -14.5355   25.8019 C   0  0  0  0  0  0  0  0  0  0  0  0
    8.6148  -15.7956   25.7491 O   0  0  0  0  0  0  0  0  0  0  0  0
   10.9633  -13.6628   28.5035 C   0  0  0  0  0  0  0  0  0  0  0  0
   10.2743  -14.6358   27.5674 C   0  0  2  0  0  0  0  0  0  0  0  0
    9.3673  -13.8714   26.7350 N   0  0  0  0  0  0  0  0  0  0  0  0
    9.5522  -15.6975   28.3267 C   0  0  0  0  0  0  0  0  0  0  0  0
    8.3189  -15.8188   28.3593 O   0  0  0  0  0  0  0  0  0  0  0  0
   10.3465  -16.5956   29.0350 O   0  0  0  0  0  0  0  0  0  0  0  0
  2  1  1  1
  2  4  1  0
  3  2  1  0
  4  6  1  0
  5  4  2  0
  6  7  1  0
  7  8  1  1
  8  9  1  0
 10 14  1  0
 10  7  1  0
 11 10  2  0
 13 12  1  1
 13 14  1  0
 13 15  1  0
 15 17  1  0
 16 15  2  0
M  END
$$$$
