PEL.pdb
     RDKit          3D

 25 25  0  0  1  0  0  0  0  0999 V2000
    8.5097  -14.7942   18.6680 N   0  0  0  0  0  0  0  0  0  0  0  0
    8.4156  -13.8412   17.5678 C   0  0  0  0  0  0  0  0  0  0  0  0
    7.6557  -12.6658   18.0910 C   0  0  0  0  0  0  0  0  0  0  0  0
    7.5793  -12.9212   19.5815 C   0  0  0  0  0  0  0  0  0  0  0  0
    8.6252  -13.9832   19.8554 C   0  0  1  0  0  0  0  0  0  0  0  0
    8.3722  -14.7417   21.0845 C   0  0  0  0  0  0  0  0  0  0  0  0
    7.3146  -14.5690   21.7404 O   0  0  0  0  0  0  0  0  0  0  0  0
    9.3023  -15.6878   21.5693 N   0  0  0  0  0  0  0  0  0  0  0  0
    9.1291  -16.5183   22.7356 C   0  0  1  0  0  0  0  0  0  0  0  0
   10.1343  -17.6141   22.7218 C   0  0  0  0  0  0  0  0  0  0  0  0
   10.1490  -18.5828   23.8350 C   0  0  0  0  0  0  0  0  0  0  0  0
   11.2086  -19.5905   23.7321 C   0  0  0  0  0  0  0  0  0  0  0  0
   12.3756  -19.3748   24.1352 O   0  0  0  0  0  0  0  0  0  0  0  0
    9.3176  -15.7228   24.0083 C   0  0  0  0  0  0  0  0  0  0  0  0
   10.4039  -15.0795   24.1174 O   0  0  0  0  0  0  0  0  0  0  0  0
   10.9712  -20.8583   23.1688 O   0  0  0  0  0  0  0  0  0  0  0  0
    7.4491  -11.8684   25.6380 C   0  0  0  0  0  0  0  0  0  0  0  0
    6.7724  -13.1803   25.9127 C   0  0  2  0  0  0  0  0  0  0  0  0
    5.4685  -12.8342   26.6585 C   0  0  0  0  0  0  0  0  0  0  0  0
    7.5235  -14.0963   26.7934 C   0  0  0  0  0  0  0  0  0  0  0  0
    8.6303  -14.9018   26.2640 C   0  0  2  0  0  0  0  0  0  0  0  0
    8.3977  -15.6474   25.0569 N   0  0  0  0  0  0  0  0  0  0  0  0
    9.3504  -15.7078   27.2908 C   0  0  0  0  0  0  0  0  0  0  0  0
    9.5899  -17.0720   27.0596 O   0  0  0  0  0  0  0  0  0  0  0  0
    9.7743  -15.2578   28.3784 O   0  0  0  0  0  0  0  0  0  0  0  0
  1  2  1  0
  3  2  1  0
  4  3  1  0
  5  4  1  0
  5  1  1  0
  6  7  2  0
  5  6  1  1
  8  6  1  0
  9  8  1  0
  9 10  1  6
 11 10  1  0
 12 11  1  0
 13 12  2  0
 14  9  1  0
 14 22  1  0
 15 14  2  0
 16 12  1  0
 18 17  1  1
 19 18  1  0
 20 18  1  0
 21 20  1  1
 21 22  1  0
 21 23  1  0
 23 24  1  0
 25 23  2  0
M  END
$$$$
