PEL.pdb
     RDKit          3D

 25 25  0  0  1  0  0  0  0  0999 V2000
    9.1570  -14.4881   19.0367 N   0  0  0  0  0  0  0  0  0  0  0  0
    8.9795  -13.7407   17.7968 C   0  0  0  0  0  0  0  0  0  0  0  0
    7.6413  -13.0822   17.8885 C   0  0  0  0  0  0  0  0  0  0  0  0
    7.2325  -13.2972   19.3304 C   0  0  0  0  0  0  0  0  0  0  0  0
    8.5072  -13.6916   20.0489 C   0  0  1  0  0  0  0  0  0  0  0  0
    8.2665  -14.4386   21.2875 C   0  0  0  0  0  0  0  0  0  0  0  0
    7.5360  -13.9639   22.1929 O   0  0  0  0  0  0  0  0  0  0  0  0
    8.8426  -15.7101   21.5031 N   0  0  0  0  0  0  0  0  0  0  0  0
    8.6700  -16.5244   22.6809 C   0  0  1  0  0  0  0  0  0  0  0  0
    9.5478  -17.7216   22.5928 C   0  0  0  0  0  0  0  0  0  0  0  0
    9.4649  -18.7464   23.6516 C   0  0  0  0  0  0  0  0  0  0  0  0
   10.3549  -19.8920   23.4409 C   0  0  0  0  0  0  0  0  0  0  0  0
   10.5161  -20.7801   24.3105 O   0  0  0  0  0  0  0  0  0  0  0  0
    9.0389  -15.7617   23.9340 C   0  0  0  0  0  0  0  0  0  0  0  0
   10.2110  -15.2823   23.9798 O   0  0  0  0  0  0  0  0  0  0  0  0
   11.0821  -20.0536   22.2467 O   0  0  0  0  0  0  0  0  0  0  0  0
    7.8181  -11.5552   25.2115 C   0  0  0  0  0  0  0  0  0  0  0  0
    7.0265  -12.7893   25.5349 C   0  0  2  0  0  0  0  0  0  0  0  0
    5.6941  -12.2920   26.1295 C   0  0  0  0  0  0  0  0  0  0  0  0
    7.6327  -13.6692   26.5533 C   0  0  0  0  0  0  0  0  0  0  0  0
    8.5550  -14.7414   26.1609 C   0  0  2  0  0  0  0  0  0  0  0  0
    8.1965  -15.5512   25.0284 N   0  0  0  0  0  0  0  0  0  0  0  0
    9.0643  -15.5608   27.2973 C   0  0  0  0  0  0  0  0  0  0  0  0
    9.0040  -16.9619   27.2246 O   0  0  0  0  0  0  0  0  0  0  0  0
    9.5581  -15.0915   28.3466 O   0  0  0  0  0  0  0  0  0  0  0  0
  1  2  1  0
  3  2  1  0
  4  3  1  0
  5  4  1  0
  5  1  1  0
  6  7  2  0
  5  6  1  1
  8  6  1  0
  9  8  1  0
  9 10  1  6
 11 10  1  0
 12 11  1  0
 13 12  2  0
 14  9  1  0
 14 22  1  0
 15 14  2  0
 16 12  1  0
 18 17  1  1
 19 18  1  0
 20 18  1  0
 21 20  1  1
 21 22  1  0
 21 23  1  0
 23 24  1  0
 25 23  2  0
M  END
$$$$
