PEL.pdb
     RDKit          3D

 25 25  0  0  1  0  0  0  0  0999 V2000
    9.1504  -14.3896   18.5702 N   0  0  0  0  0  0  0  0  0  0  0  0
    8.8856  -13.6606   17.3349 C   0  0  0  0  0  0  0  0  0  0  0  0
    7.4806  -13.1611   17.4323 C   0  0  0  0  0  0  0  0  0  0  0  0
    7.1022  -13.4300   18.8734 C   0  0  0  0  0  0  0  0  0  0  0  0
    8.4153  -13.6790   19.5879 C   0  0  1  0  0  0  0  0  0  0  0  0
    8.2647  -14.4557   20.8225 C   0  0  0  0  0  0  0  0  0  0  0  0
    7.5674  -14.0224   21.7736 O   0  0  0  0  0  0  0  0  0  0  0  0
    8.8930  -15.7105   20.9829 N   0  0  0  0  0  0  0  0  0  0  0  0
    8.8299  -16.5398   22.1613 C   0  0  1  0  0  0  0  0  0  0  0  0
    9.8093  -17.6523   22.0416 C   0  0  0  0  0  0  0  0  0  0  0  0
    9.9539  -18.5993   23.1643 C   0  0  0  0  0  0  0  0  0  0  0  0
   10.9060  -19.6840   22.9080 C   0  0  0  0  0  0  0  0  0  0  0  0
   10.5387  -20.8735   22.7631 O   0  0  0  0  0  0  0  0  0  0  0  0
    9.1652  -15.7495   23.4067 C   0  0  0  0  0  0  0  0  0  0  0  0
    9.7928  -14.6623   23.2347 O   0  0  0  0  0  0  0  0  0  0  0  0
   12.2901  -19.4463   22.8146 O   0  0  0  0  0  0  0  0  0  0  0  0
    6.0350  -12.4674   26.5607 C   0  0  0  0  0  0  0  0  0  0  0  0
    7.3546  -13.1732   26.6832 C   0  0  2  0  0  0  0  0  0  0  0  0
    8.4306  -12.0720   26.6073 C   0  0  0  0  0  0  0  0  0  0  0  0
    7.6561  -14.1237   25.5949 C   0  0  0  0  0  0  0  0  0  0  0  0
    8.6522  -15.1849   25.7842 C   0  0  2  0  0  0  0  0  0  0  0  0
    8.8406  -16.1247   24.7127 N   0  0  0  0  0  0  0  0  0  0  0  0
    8.5906  -15.8558   27.1140 C   0  0  0  0  0  0  0  0  0  0  0  0
    8.8689  -15.1190   28.2767 O   0  0  0  0  0  0  0  0  0  0  0  0
    8.3023  -17.0605   27.2896 O   0  0  0  0  0  0  0  0  0  0  0  0
  1  2  1  0
  3  2  1  0
  4  3  1  0
  5  4  1  0
  5  1  1  0
  6  7  2  0
  5  6  1  1
  8  6  1  0
  9  8  1  0
  9 10  1  6
 11 10  1  0
 12 11  1  0
 13 12  2  0
 14  9  1  0
 14 22  1  0
 15 14  2  0
 16 12  1  0
 18 17  1  6
 19 18  1  0
 20 18  1  0
 21 20  1  6
 21 22  1  0
 21 23  1  0
 23 24  1  0
 25 23  2  0
M  END
$$$$
