PEL.pdb
     RDKit          3D

 25 25  0  0  1  0  0  0  0  0999 V2000
    9.2694  -14.4150   19.0325 N   0  0  0  0  0  0  0  0  0  0  0  0
    9.1394  -13.6692   17.7857 C   0  0  0  0  0  0  0  0  0  0  0  0
    7.7290  -13.1784   17.7324 C   0  0  0  0  0  0  0  0  0  0  0  0
    7.1937  -13.4703   19.1182 C   0  0  0  0  0  0  0  0  0  0  0  0
    8.4204  -13.7231   19.9715 C   0  0  1  0  0  0  0  0  0  0  0  0
    8.1380  -14.5187   21.1704 C   0  0  0  0  0  0  0  0  0  0  0  0
    7.2218  -14.1846   21.9626 O   0  0  0  0  0  0  0  0  0  0  0  0
    8.8806  -15.6815   21.4730 N   0  0  0  0  0  0  0  0  0  0  0  0
    8.6853  -16.5305   22.6224 C   0  0  1  0  0  0  0  0  0  0  0  0
    9.6394  -17.6698   22.5692 C   0  0  0  0  0  0  0  0  0  0  0  0
    9.6273  -18.6622   23.6615 C   0  0  0  0  0  0  0  0  0  0  0  0
   10.6100  -19.7375   23.4985 C   0  0  0  0  0  0  0  0  0  0  0  0
   11.8415  -19.5400   23.6214 O   0  0  0  0  0  0  0  0  0  0  0  0
    8.9267  -15.7744   23.9101 C   0  0  0  0  0  0  0  0  0  0  0  0
   10.0594  -15.2208   24.0370 O   0  0  0  0  0  0  0  0  0  0  0  0
   10.2206  -21.0545   23.1899 O   0  0  0  0  0  0  0  0  0  0  0  0
    5.6101  -12.2300   26.3934 C   0  0  0  0  0  0  0  0  0  0  0  0
    7.0303  -12.7170   26.3824 C   0  0  2  0  0  0  0  0  0  0  0  0
    7.5066  -12.5953   24.9214 C   0  0  0  0  0  0  0  0  0  0  0  0
    7.2062  -14.1333   26.7596 C   0  0  0  0  0  0  0  0  0  0  0  0
    8.2872  -14.9341   26.1727 C   0  0  2  0  0  0  0  0  0  0  0  0
    8.0080  -15.6447   24.9546 N   0  0  0  0  0  0  0  0  0  0  0  0
    9.0323  -15.7738   27.1535 C   0  0  0  0  0  0  0  0  0  0  0  0
    9.2626  -17.1302   26.8721 O   0  0  0  0  0  0  0  0  0  0  0  0
    9.4860  -15.3598   28.2434 O   0  0  0  0  0  0  0  0  0  0  0  0
  1  2  1  0
  3  2  1  0
  4  3  1  0
  5  4  1  0
  5  1  1  0
  6  7  2  0
  5  6  1  1
  8  6  1  0
  9  8  1  0
  9 10  1  6
 11 10  1  0
 12 11  1  0
 13 12  2  0
 14  9  1  0
 14 22  1  0
 15 14  2  0
 16 12  1  0
 18 17  1  6
 19 18  1  0
 20 18  1  0
 21 20  1  1
 21 22  1  0
 21 23  1  0
 23 24  1  0
 25 23  2  0
M  END
$$$$
