PEL.pdb
     RDKit          3D

 25 25  0  0  1  0  0  0  0  0999 V2000
    9.1219  -14.4193   19.1021 N   0  0  0  0  0  0  0  0  0  0  0  0
    8.8507  -13.6907   17.8679 C   0  0  0  0  0  0  0  0  0  0  0  0
    7.4853  -13.1020   18.0164 C   0  0  0  0  0  0  0  0  0  0  0  0
    7.1528  -13.3280   19.4761 C   0  0  0  0  0  0  0  0  0  0  0  0
    8.4770  -13.6506   20.1387 C   0  0  1  0  0  0  0  0  0  0  0  0
    8.3310  -14.4005   21.3902 C   0  0  0  0  0  0  0  0  0  0  0  0
    7.5864  -13.9778   22.3097 O   0  0  0  0  0  0  0  0  0  0  0  0
    9.0167  -15.6169   21.6029 N   0  0  0  0  0  0  0  0  0  0  0  0
    8.9024  -16.4555   22.7707 C   0  0  1  0  0  0  0  0  0  0  0  0
    9.8368  -17.6062   22.6522 C   0  0  0  0  0  0  0  0  0  0  0  0
    9.8626  -18.6178   23.7265 C   0  0  0  0  0  0  0  0  0  0  0  0
   10.8501  -19.6809   23.5183 C   0  0  0  0  0  0  0  0  0  0  0  0
   11.0663  -20.5679   24.3769 O   0  0  0  0  0  0  0  0  0  0  0  0
    9.2518  -15.6932   24.0296 C   0  0  0  0  0  0  0  0  0  0  0  0
   10.4069  -15.1742   24.0742 O   0  0  0  0  0  0  0  0  0  0  0  0
   11.6143  -19.7596   22.3389 O   0  0  0  0  0  0  0  0  0  0  0  0
    8.2023  -11.5714   25.5059 C   0  0  0  0  0  0  0  0  0  0  0  0
    7.4087  -12.8064   25.8209 C   0  0  2  0  0  0  0  0  0  0  0  0
    6.0985  -12.3128   26.4659 C   0  0  0  0  0  0  0  0  0  0  0  0
    8.0354  -13.7170   26.7991 C   0  0  0  0  0  0  0  0  0  0  0  0
    8.8154  -14.8757   26.3482 C   0  0  2  0  0  0  0  0  0  0  0  0
    8.4089  -15.5232   25.1306 N   0  0  0  0  0  0  0  0  0  0  0  0
    9.1379  -15.8561   27.4239 C   0  0  0  0  0  0  0  0  0  0  0  0
    8.9405  -17.2275   27.1950 O   0  0  0  0  0  0  0  0  0  0  0  0
    9.5848  -15.5518   28.5521 O   0  0  0  0  0  0  0  0  0  0  0  0
  1  2  1  0
  3  2  1  0
  4  3  1  0
  5  4  1  0
  5  1  1  0
  6  7  2  0
  5  6  1  1
  8  6  1  0
  9  8  1  0
  9 10  1  6
 11 10  1  0
 12 11  1  0
 13 12  2  0
 14  9  1  0
 14 22  1  0
 15 14  2  0
 16 12  1  0
 18 17  1  1
 19 18  1  0
 20 18  1  0
 21 20  1  1
 21 22  1  0
 21 23  1  0
 23 24  1  0
 25 23  2  0
M  END
$$$$
