PEL.pdb
     RDKit          3D

 25 25  0  0  1  0  0  0  0  0999 V2000
    9.2372  -14.4667   18.9514 N   0  0  0  0  0  0  0  0  0  0  0  0
    9.0405  -13.7270   17.7098 C   0  0  0  0  0  0  0  0  0  0  0  0
    7.6366  -13.2163   17.7405 C   0  0  0  0  0  0  0  0  0  0  0  0
    7.1843  -13.4918   19.1589 C   0  0  0  0  0  0  0  0  0  0  0  0
    8.4579  -13.7569   19.9363 C   0  0  1  0  0  0  0  0  0  0  0  0
    8.2394  -14.5408   21.1560 C   0  0  0  0  0  0  0  0  0  0  0  0
    7.3830  -14.1853   22.0038 O   0  0  0  0  0  0  0  0  0  0  0  0
    8.9784  -15.7158   21.4171 N   0  0  0  0  0  0  0  0  0  0  0  0
    8.8106  -16.5802   22.5594 C   0  0  1  0  0  0  0  0  0  0  0  0
    9.7934  -17.6941   22.4910 C   0  0  0  0  0  0  0  0  0  0  0  0
    9.7744  -18.7280   23.5440 C   0  0  0  0  0  0  0  0  0  0  0  0
   10.7927  -19.7686   23.3738 C   0  0  0  0  0  0  0  0  0  0  0  0
   11.7798  -19.8675   24.1397 O   0  0  0  0  0  0  0  0  0  0  0  0
    9.0387  -15.8302   23.8530 C   0  0  0  0  0  0  0  0  0  0  0  0
   10.1266  -15.1877   23.9500 O   0  0  0  0  0  0  0  0  0  0  0  0
   10.7174  -20.7137   22.3335 O   0  0  0  0  0  0  0  0  0  0  0  0
    8.2471  -11.8530   25.9185 C   0  0  0  0  0  0  0  0  0  0  0  0
    7.2030  -12.9301   25.8544 C   0  0  2  0  0  0  0  0  0  0  0  0
    5.9221  -12.3118   26.4487 C   0  0  0  0  0  0  0  0  0  0  0  0
    7.4967  -14.1312   26.6607 C   0  0  0  0  0  0  0  0  0  0  0  0
    8.4470  -15.1406   26.1788 C   0  0  2  0  0  0  0  0  0  0  0  0
    8.1531  -15.7953   24.9329 N   0  0  0  0  0  0  0  0  0  0  0  0
    8.9056  -16.1012   27.2224 C   0  0  0  0  0  0  0  0  0  0  0  0
    9.4104  -15.6152   28.4393 O   0  0  0  0  0  0  0  0  0  0  0  0
    8.8786  -17.3463   27.1033 O   0  0  0  0  0  0  0  0  0  0  0  0
  1  2  1  0
  3  2  1  0
  4  3  1  0
  5  4  1  0
  5  1  1  0
  6  7  2  0
  5  6  1  1
  8  6  1  0
  9  8  1  0
  9 10  1  6
 11 10  1  0
 12 11  1  0
 13 12  2  0
 14  9  1  0
 14 22  1  0
 15 14  2  0
 16 12  1  0
 18 17  1  1
 19 18  1  0
 20 18  1  0
 21 20  1  1
 21 22  1  0
 21 23  1  0
 23 24  1  0
 25 23  2  0
M  END
$$$$
