PEL.pdb
     RDKit          3D

 25 25  0  0  1  0  0  0  0  0999 V2000
    9.2815  -14.2920   19.0021 N   0  0  0  0  0  0  0  0  0  0  0  0
    9.0626  -13.5105   17.7902 C   0  0  0  0  0  0  0  0  0  0  0  0
    7.6420  -13.0494   17.8359 C   0  0  0  0  0  0  0  0  0  0  0  0
    7.1960  -13.3965   19.2406 C   0  0  0  0  0  0  0  0  0  0  0  0
    8.4761  -13.6490   20.0115 C   0  0  1  0  0  0  0  0  0  0  0  0
    8.2815  -14.4880   21.1983 C   0  0  0  0  0  0  0  0  0  0  0  0
    7.4022  -14.2036   22.0494 O   0  0  0  0  0  0  0  0  0  0  0  0
    9.0701  -15.6381   21.4229 N   0  0  0  0  0  0  0  0  0  0  0  0
    8.9731  -16.5166   22.5626 C   0  0  1  0  0  0  0  0  0  0  0  0
   10.0098  -17.5781   22.4642 C   0  0  0  0  0  0  0  0  0  0  0  0
   10.0438  -18.6394   23.4891 C   0  0  0  0  0  0  0  0  0  0  0  0
   11.0897  -19.6430   23.2710 C   0  0  0  0  0  0  0  0  0  0  0  0
   10.8259  -20.8586   23.1171 O   0  0  0  0  0  0  0  0  0  0  0  0
    9.1922  -15.7633   23.8560 C   0  0  0  0  0  0  0  0  0  0  0  0
   10.2653  -15.0957   23.9467 O   0  0  0  0  0  0  0  0  0  0  0  0
   12.4524  -19.2934   23.2268 O   0  0  0  0  0  0  0  0  0  0  0  0
    7.9745  -11.8024   25.7900 C   0  0  0  0  0  0  0  0  0  0  0  0
    7.0837  -13.0108   25.8118 C   0  0  2  0  0  0  0  0  0  0  0  0
    5.7485  -12.5396   26.4213 C   0  0  0  0  0  0  0  0  0  0  0  0
    7.5592  -14.1201   26.6616 C   0  0  0  0  0  0  0  0  0  0  0  0
    8.5801  -15.0531   26.1702 C   0  0  2  0  0  0  0  0  0  0  0  0
    8.3132  -15.7508   24.9417 N   0  0  0  0  0  0  0  0  0  0  0  0
    9.1439  -15.9541   27.2155 C   0  0  0  0  0  0  0  0  0  0  0  0
    9.6756  -15.4037   28.3929 O   0  0  0  0  0  0  0  0  0  0  0  0
    9.1856  -17.2016   27.1312 O   0  0  0  0  0  0  0  0  0  0  0  0
  1  2  1  0
  3  2  1  0
  4  3  1  0
  5  4  1  0
  5  1  1  0
  6  7  2  0
  5  6  1  1
  8  6  1  0
  9  8  1  0
  9 10  1  6
 11 10  1  0
 12 11  1  0
 13 12  2  0
 14  9  1  0
 14 22  1  0
 15 14  2  0
 16 12  1  0
 18 17  1  1
 19 18  1  0
 20 18  1  0
 21 20  1  1
 21 22  1  0
 21 23  1  0
 23 24  1  0
 25 23  2  0
M  END
$$$$
