PEL.pdb
     RDKit          3D

 25 25  0  0  1  0  0  0  0  0999 V2000
    7.8490  -14.8451   18.8333 N   0  0  0  0  0  0  0  0  0  0  0  0
    7.7827  -13.7299   17.8956 C   0  0  0  0  0  0  0  0  0  0  0  0
    7.5906  -12.4973   18.7182 C   0  0  0  0  0  0  0  0  0  0  0  0
    7.8196  -12.9725   20.1374 C   0  0  0  0  0  0  0  0  0  0  0  0
    8.5118  -14.3136   19.9992 C   0  0  1  0  0  0  0  0  0  0  0  0
    8.3546  -15.1707   21.1785 C   0  0  0  0  0  0  0  0  0  0  0  0
    7.2159  -15.5493   21.5508 O   0  0  0  0  0  0  0  0  0  0  0  0
    9.4710  -15.5987   21.9305 N   0  0  0  0  0  0  0  0  0  0  0  0
    9.4229  -16.4053   23.1251 C   0  0  1  0  0  0  0  0  0  0  0  0
   10.5702  -17.3514   23.1350 C   0  0  0  0  0  0  0  0  0  0  0  0
   10.7171  -18.2828   24.2703 C   0  0  0  0  0  0  0  0  0  0  0  0
   11.9020  -19.1415   24.1851 C   0  0  0  0  0  0  0  0  0  0  0  0
   13.0657  -18.6814   24.2548 O   0  0  0  0  0  0  0  0  0  0  0  0
    9.5087  -15.5488   24.3690 C   0  0  0  0  0  0  0  0  0  0  0  0
   10.4179  -14.6664   24.3865 O   0  0  0  0  0  0  0  0  0  0  0  0
   11.7948  -20.5347   24.0156 O   0  0  0  0  0  0  0  0  0  0  0  0
    7.6955  -11.8292   25.7788 C   0  0  0  0  0  0  0  0  0  0  0  0
    7.0290  -13.1467   26.0516 C   0  0  2  0  0  0  0  0  0  0  0  0
    5.6437  -12.8056   26.6354 C   0  0  0  0  0  0  0  0  0  0  0  0
    7.7059  -13.9911   27.0554 C   0  0  0  0  0  0  0  0  0  0  0  0
    8.8247  -14.8593   26.6693 C   0  0  2  0  0  0  0  0  0  0  0  0
    8.6735  -15.6581   25.4836 N   0  0  0  0  0  0  0  0  0  0  0  0
    9.4185  -15.6345   27.7956 C   0  0  0  0  0  0  0  0  0  0  0  0
    9.6580  -17.0096   27.6415 O   0  0  0  0  0  0  0  0  0  0  0  0
    9.7328  -15.1486   28.9048 O   0  0  0  0  0  0  0  0  0  0  0  0
  1  2  1  0
  3  2  1  0
  4  3  1  0
  5  4  1  0
  5  1  1  0
  6  7  2  0
  5  6  1  1
  8  6  1  0
  9  8  1  0
  9 10  1  6
 11 10  1  0
 12 11  1  0
 13 12  2  0
 14  9  1  0
 14 22  1  0
 15 14  2  0
 16 12  1  0
 18 17  1  1
 19 18  1  0
 20 18  1  0
 21 20  1  1
 21 22  1  0
 21 23  1  0
 23 24  1  0
 25 23  2  0
M  END
$$$$
