PEL.pdb
     RDKit          3D

 25 25  0  0  1  0  0  0  0  0999 V2000
    7.8759  -14.7313   18.2295 N   0  0  0  0  0  0  0  0  0  0  0  0
    7.9638  -13.5415   17.3904 C   0  0  0  0  0  0  0  0  0  0  0  0
    7.8892  -12.3680   18.3125 C   0  0  0  0  0  0  0  0  0  0  0  0
    8.0216  -12.9834   19.6895 C   0  0  0  0  0  0  0  0  0  0  0  0
    8.5608  -14.3792   19.4493 C   0  0  1  0  0  0  0  0  0  0  0  0
    8.2732  -15.3080   20.5470 C   0  0  0  0  0  0  0  0  0  0  0  0
    7.2284  -16.0057   20.5417 O   0  0  0  0  0  0  0  0  0  0  0  0
    9.1563  -15.4502   21.6402 N   0  0  0  0  0  0  0  0  0  0  0  0
    8.9840  -16.3548   22.7502 C   0  0  1  0  0  0  0  0  0  0  0  0
    9.9557  -17.4747   22.6369 C   0  0  0  0  0  0  0  0  0  0  0  0
    9.9311  -18.5461   23.6515 C   0  0  0  0  0  0  0  0  0  0  0  0
   10.9262  -19.5990   23.4284 C   0  0  0  0  0  0  0  0  0  0  0  0
   12.0614  -19.3547   22.9567 O   0  0  0  0  0  0  0  0  0  0  0  0
    9.2237  -15.6555   24.0699 C   0  0  0  0  0  0  0  0  0  0  0  0
   10.3137  -15.0193   24.1830 O   0  0  0  0  0  0  0  0  0  0  0  0
   10.6567  -20.9472   23.7299 O   0  0  0  0  0  0  0  0  0  0  0  0
    8.1945  -11.8062   25.9530 C   0  0  0  0  0  0  0  0  0  0  0  0
    7.2253  -12.9440   26.0968 C   0  0  2  0  0  0  0  0  0  0  0  0
    5.9862  -12.3561   26.8004 C   0  0  0  0  0  0  0  0  0  0  0  0
    7.6939  -14.0583   26.9440 C   0  0  0  0  0  0  0  0  0  0  0  0
    8.6467  -15.0448   26.4212 C   0  0  2  0  0  0  0  0  0  0  0  0
    8.3465  -15.6605   25.1572 N   0  0  0  0  0  0  0  0  0  0  0  0
    9.1208  -16.0357   27.4290 C   0  0  0  0  0  0  0  0  0  0  0  0
    9.7067  -15.5852   28.6230 O   0  0  0  0  0  0  0  0  0  0  0  0
    9.0387  -17.2772   27.2981 O   0  0  0  0  0  0  0  0  0  0  0  0
  1  2  1  0
  3  2  1  0
  4  3  1  0
  5  4  1  0
  5  1  1  0
  6  7  2  0
  5  6  1  1
  8  6  1  0
  9  8  1  0
  9 10  1  6
 11 10  1  0
 12 11  1  0
 13 12  2  0
 14  9  1  0
 14 22  1  0
 15 14  2  0
 16 12  1  0
 18 17  1  1
 19 18  1  0
 20 18  1  0
 21 20  1  1
 21 22  1  0
 21 23  1  0
 23 24  1  0
 25 23  2  0
M  END
$$$$
