PEL.pdb
     RDKit          3D

 25 25  0  0  1  0  0  0  0  0999 V2000
    9.2416  -14.2965   19.0939 N   0  0  0  0  0  0  0  0  0  0  0  0
    9.0260  -13.5209   17.8776 C   0  0  0  0  0  0  0  0  0  0  0  0
    7.5749  -13.1649   17.8554 C   0  0  0  0  0  0  0  0  0  0  0  0
    7.0869  -13.5576   19.2338 C   0  0  0  0  0  0  0  0  0  0  0  0
    8.3426  -13.7238   20.0660 C   0  0  1  0  0  0  0  0  0  0  0  0
    8.1518  -14.5865   21.2362 C   0  0  0  0  0  0  0  0  0  0  0  0
    7.2042  -14.3845   22.0361 O   0  0  0  0  0  0  0  0  0  0  0  0
    9.0203  -15.6683   21.5017 N   0  0  0  0  0  0  0  0  0  0  0  0
    8.9268  -16.5677   22.6253 C   0  0  1  0  0  0  0  0  0  0  0  0
    9.9621  -17.6282   22.5032 C   0  0  0  0  0  0  0  0  0  0  0  0
   10.0481  -18.6651   23.5498 C   0  0  0  0  0  0  0  0  0  0  0  0
   11.0913  -19.6665   23.3100 C   0  0  0  0  0  0  0  0  0  0  0  0
   10.8216  -20.8682   23.0779 O   0  0  0  0  0  0  0  0  0  0  0  0
    9.1516  -15.8388   23.9315 C   0  0  0  0  0  0  0  0  0  0  0  0
   10.2516  -15.2216   24.0527 O   0  0  0  0  0  0  0  0  0  0  0  0
   12.4580  -19.3304   23.3320 O   0  0  0  0  0  0  0  0  0  0  0  0
    8.3282  -11.9166   26.1512 C   0  0  0  0  0  0  0  0  0  0  0  0
    7.3004  -13.0081   26.0702 C   0  0  2  0  0  0  0  0  0  0  0  0
    6.0222  -12.4323   26.7112 C   0  0  0  0  0  0  0  0  0  0  0  0
    7.6297  -14.2314   26.8278 C   0  0  0  0  0  0  0  0  0  0  0  0
    8.5630  -15.2220   26.2784 C   0  0  2  0  0  0  0  0  0  0  0  0
    8.2507  -15.7977   24.9985 N   0  0  0  0  0  0  0  0  0  0  0  0
    9.0177  -16.2486   27.2590 C   0  0  0  0  0  0  0  0  0  0  0  0
    9.6182  -15.8419   28.4615 O   0  0  0  0  0  0  0  0  0  0  0  0
    8.9064  -17.4842   27.0974 O   0  0  0  0  0  0  0  0  0  0  0  0
  1  2  1  0
  3  2  1  0
  4  3  1  0
  5  4  1  0
  5  1  1  0
  6  7  2  0
  5  6  1  1
  8  6  1  0
  9  8  1  0
  9 10  1  6
 11 10  1  0
 12 11  1  0
 13 12  2  0
 14  9  1  0
 14 22  1  0
 15 14  2  0
 16 12  1  0
 18 17  1  1
 19 18  1  0
 20 18  1  0
 21 20  1  1
 21 22  1  0
 21 23  1  0
 23 24  1  0
 25 23  2  0
M  END
$$$$
