PEL.pdb
     RDKit          3D

 25 25  0  0  1  0  0  0  0  0999 V2000
    9.3169  -14.1036   19.1850 N   0  0  0  0  0  0  0  0  0  0  0  0
    9.0515  -13.3077   17.9918 C   0  0  0  0  0  0  0  0  0  0  0  0
    7.5966  -12.9687   18.0253 C   0  0  0  0  0  0  0  0  0  0  0  0
    7.1600  -13.3932   19.4116 C   0  0  0  0  0  0  0  0  0  0  0  0
    8.4449  -13.5602   20.1977 C   0  0  1  0  0  0  0  0  0  0  0  0
    8.3037  -14.4470   21.3568 C   0  0  0  0  0  0  0  0  0  0  0  0
    7.3512  -14.3037   22.1635 O   0  0  0  0  0  0  0  0  0  0  0  0
    9.2268  -15.4871   21.6036 N   0  0  0  0  0  0  0  0  0  0  0  0
    9.1685  -16.4228   22.6996 C   0  0  1  0  0  0  0  0  0  0  0  0
   10.2594  -17.4238   22.5598 C   0  0  0  0  0  0  0  0  0  0  0  0
   10.1948  -18.3997   21.4546 C   0  0  0  0  0  0  0  0  0  0  0  0
   11.3591  -19.2869   21.3763 C   0  0  0  0  0  0  0  0  0  0  0  0
   11.4519  -20.3281   22.0676 O   0  0  0  0  0  0  0  0  0  0  0  0
    9.3406  -15.7219   24.0290 C   0  0  0  0  0  0  0  0  0  0  0  0
   10.3858  -15.0188   24.1664 O   0  0  0  0  0  0  0  0  0  0  0  0
   12.4413  -19.0126   20.5191 O   0  0  0  0  0  0  0  0  0  0  0  0
    7.8531  -11.8625   25.9325 C   0  0  0  0  0  0  0  0  0  0  0  0
    7.0668  -13.1416   25.9211 C   0  0  2  0  0  0  0  0  0  0  0  0
    5.6662  -12.7805   26.4540 C   0  0  0  0  0  0  0  0  0  0  0  0
    7.5877  -14.2009   26.8074 C   0  0  0  0  0  0  0  0  0  0  0  0
    8.6480  -15.1056   26.3474 C   0  0  2  0  0  0  0  0  0  0  0  0
    8.4471  -15.7927   25.1006 N   0  0  0  0  0  0  0  0  0  0  0  0
    9.1876  -16.0080   27.4041 C   0  0  0  0  0  0  0  0  0  0  0  0
    9.6155  -15.4665   28.6271 O   0  0  0  0  0  0  0  0  0  0  0  0
    9.2960  -17.2492   27.2914 O   0  0  0  0  0  0  0  0  0  0  0  0
  1  2  1  0
  3  2  1  0
  4  3  1  0
  5  4  1  0
  5  1  1  0
  6  7  2  0
  5  6  1  1
  8  6  1  0
  9  8  1  0
  9 10  1  6
 11 10  1  0
 12 11  1  0
 13 12  2  0
 14  9  1  0
 14 22  1  0
 15 14  2  0
 16 12  1  0
 18 17  1  1
 19 18  1  0
 20 18  1  0
 21 20  1  1
 21 22  1  0
 21 23  1  0
 23 24  1  0
 25 23  2  0
M  END
$$$$
