PEL.pdb
     RDKit          3D

 25 25  0  0  1  0  0  0  0  0999 V2000
    8.9574  -14.7663   18.8703 N   0  0  0  0  0  0  0  0  0  0  0  0
    8.8282  -14.0305   17.6175 C   0  0  0  0  0  0  0  0  0  0  0  0
    7.6015  -13.1871   17.7477 C   0  0  0  0  0  0  0  0  0  0  0  0
    7.2353  -13.3083   19.2118 C   0  0  0  0  0  0  0  0  0  0  0  0
    8.4746  -13.8623   19.8856 C   0  0  1  0  0  0  0  0  0  0  0  0
    8.1902  -14.5385   21.1552 C   0  0  0  0  0  0  0  0  0  0  0  0
    7.5269  -13.9646   22.0547 O   0  0  0  0  0  0  0  0  0  0  0  0
    8.6482  -15.8505   21.4082 N   0  0  0  0  0  0  0  0  0  0  0  0
    8.3222  -16.6483   22.5646 C   0  0  1  0  0  0  0  0  0  0  0  0
    9.1131  -17.9074   22.5414 C   0  0  0  0  0  0  0  0  0  0  0  0
    8.9062  -18.8997   23.6140 C   0  0  0  0  0  0  0  0  0  0  0  0
    9.7719  -20.0780   23.5087 C   0  0  0  0  0  0  0  0  0  0  0  0
   10.8562  -20.1667   24.1309 O   0  0  0  0  0  0  0  0  0  0  0  0
    8.6450  -15.9134   23.8467 C   0  0  0  0  0  0  0  0  0  0  0  0
    9.8480  -15.5460   24.0004 O   0  0  0  0  0  0  0  0  0  0  0  0
    9.4312  -21.1755   22.6960 O   0  0  0  0  0  0  0  0  0  0  0  0
    6.3938  -11.4746   26.7280 C   0  0  0  0  0  0  0  0  0  0  0  0
    7.5213  -12.4358   26.4844 C   0  0  2  0  0  0  0  0  0  0  0  0
    8.0121  -12.1555   25.0503 C   0  0  0  0  0  0  0  0  0  0  0  0
    7.1432  -13.8621   26.5224 C   0  0  0  0  0  0  0  0  0  0  0  0
    8.0751  -14.8948   26.0540 C   0  0  2  0  0  0  0  0  0  0  0  0
    7.7295  -15.6157   24.8591 N   0  0  0  0  0  0  0  0  0  0  0  0
    8.5823  -15.7975   27.1265 C   0  0  0  0  0  0  0  0  0  0  0  0
    8.4705  -17.1889   26.9730 O   0  0  0  0  0  0  0  0  0  0  0  0
    9.1175  -15.4087   28.1883 O   0  0  0  0  0  0  0  0  0  0  0  0
  1  2  1  0
  3  2  1  0
  4  3  1  0
  5  4  1  0
  5  1  1  0
  6  7  2  0
  5  6  1  1
  8  6  1  0
  9  8  1  0
  9 10  1  6
 11 10  1  0
 12 11  1  0
 13 12  2  0
 14  9  1  0
 14 22  1  0
 15 14  2  0
 16 12  1  0
 18 17  1  6
 19 18  1  0
 20 18  1  0
 21 20  1  1
 21 22  1  0
 21 23  1  0
 23 24  1  0
 25 23  2  0
M  END
$$$$
