NDR.pdb
     RDKit          3D

 28 27  0  0  1  0  0  0  0  0999 V2000
   25.4749  -12.7417  -17.2426 N   0  0  0  0  0  0  0  0  0  0  0  0
   25.7627  -12.3191  -15.9271 C   0  0  0  0  0  0  0  0  0  0  0  0
   26.7828  -12.7530  -15.3561 O   0  0  0  0  0  0  0  0  0  0  0  0
   24.8693  -11.3809  -15.2447 C   0  0  0  0  0  0  0  0  0  0  0  0
   23.7301  -10.8827  -16.1233 C   0  0  2  0  0  0  0  0  0  0  0  0
   24.2555  -10.2182  -17.2827 N   0  0  0  0  0  0  0  0  0  0  0  0
   22.9370   -9.9665  -15.2611 C   0  0  0  0  0  0  0  0  0  0  0  0
   22.3486  -10.4421  -14.2622 O   0  0  0  0  0  0  0  0  0  0  0  0
   22.8116   -8.5628  -15.5144 N   0  0  0  0  0  0  0  0  0  0  0  0
   21.9452   -7.7053  -14.7546 C   0  0  1  0  0  0  0  0  0  0  0  0
   22.4733   -6.2960  -14.6475 C   0  0  0  0  0  0  0  0  0  0  0  0
   21.6286   -5.4825  -13.7515 C   0  0  0  0  0  0  0  0  0  0  0  0
   20.6219   -5.9231  -13.1458 O   0  0  0  0  0  0  0  0  0  0  0  0
   20.5324   -7.7842  -15.1717 C   0  0  0  0  0  0  0  0  0  0  0  0
   20.1750   -7.4308  -16.3292 O   0  0  0  0  0  0  0  0  0  0  0  0
   21.9162   -4.1345  -13.5239 O   0  0  0  0  0  0  0  0  0  0  0  0
   13.0363  -12.6526  -13.6943 N   0  0  0  0  0  0  0  0  0  0  0  0
   12.7716  -11.4428  -14.3997 C   0  0  0  0  0  0  0  0  0  0  0  0
   11.5655  -11.2155  -14.8338 N   0  0  0  0  0  0  0  0  0  0  0  0
   13.7600  -10.4698  -14.6541 N   0  0  0  0  0  0  0  0  0  0  0  0
   15.1146  -10.6224  -14.2217 C   0  0  0  0  0  0  0  0  0  0  0  0
   15.9305   -9.4225  -14.6855 C   0  0  0  0  0  0  0  0  0  0  0  0
   17.3385   -9.4708  -14.1702 C   0  0  0  0  0  0  0  0  0  0  0  0
   18.1043   -8.3115  -14.7352 C   0  0  2  0  0  0  0  0  0  0  0  0
   19.4872   -8.2532  -14.3169 N   0  0  0  0  0  0  0  0  0  0  0  0
   17.3906   -7.0396  -14.4694 C   0  0  0  0  0  0  0  0  0  0  0  0
   17.7444   -6.3277  -13.5069 O   0  0  0  0  0  0  0  0  0  0  0  0
   16.3464   -6.6461  -15.2763 O   0  0  0  0  0  0  0  0  0  0  0  0
  1  2  1  0
  2  3  2  0
  4  2  1  0
  5  4  1  0
  5  6  1  6
  7  8  2  0
  7  5  1  0
  9  7  1  0
 10 14  1  0
 10  9  1  0
 10 11  1  6
 12 11  1  0
 12 13  2  0
 14 15  2  0
 16 12  1  0
 18 17  1  0
 18 19  2  0
 20 18  1  0
 21 20  1  0
 22 21  1  0
 23 22  1  0
 24 23  1  1
 25 24  1  0
 25 14  1  0
 26 24  1  0
 27 26  2  0
 28 26  1  0
M  END
$$$$
