NDR.pdb
     RDKit          3D

 28 27  0  0  1  0  0  0  0  0999 V2000
   27.2757  -21.7940  -16.8277 N   0  0  0  0  0  0  0  0  0  0  0  0
   26.2777  -22.7355  -16.4968 C   0  0  0  0  0  0  0  0  0  0  0  0
   26.3570  -23.8940  -16.9511 O   0  0  0  0  0  0  0  0  0  0  0  0
   25.1631  -22.3504  -15.6289 C   0  0  0  0  0  0  0  0  0  0  0  0
   25.2489  -20.9124  -15.1363 C   0  0  2  0  0  0  0  0  0  0  0  0
   26.4414  -20.7278  -14.3580 N   0  0  0  0  0  0  0  0  0  0  0  0
   24.0150  -20.6943  -14.3351 C   0  0  0  0  0  0  0  0  0  0  0  0
   24.0661  -20.8689  -13.0953 O   0  0  0  0  0  0  0  0  0  0  0  0
   22.7668  -20.2924  -14.9101 N   0  0  0  0  0  0  0  0  0  0  0  0
   21.6040  -19.9906  -14.1226 C   0  0  1  0  0  0  0  0  0  0  0  0
   20.7484  -18.9132  -14.7419 C   0  0  0  0  0  0  0  0  0  0  0  0
   19.6238  -18.5574  -13.8549 C   0  0  0  0  0  0  0  0  0  0  0  0
   19.5620  -18.8701  -12.6413 O   0  0  0  0  0  0  0  0  0  0  0  0
   20.8500  -21.1897  -13.7105 C   0  0  0  0  0  0  0  0  0  0  0  0
   20.6156  -22.1233  -14.5265 O   0  0  0  0  0  0  0  0  0  0  0  0
   18.5332  -17.8296  -14.3373 O   0  0  0  0  0  0  0  0  0  0  0  0
   18.0622  -25.1289   -5.9735 N   0  0  0  0  0  0  0  0  0  0  0  0
   17.2835  -25.4440   -7.1248 C   0  0  0  0  0  0  0  0  0  0  0  0
   16.1928  -26.1396   -6.9788 N   0  0  0  0  0  0  0  0  0  0  0  0
   17.6382  -25.0365   -8.4273 N   0  0  0  0  0  0  0  0  0  0  0  0
   18.8785  -24.3856   -8.7154 C   0  0  0  0  0  0  0  0  0  0  0  0
   18.9722  -24.1178  -10.2121 C   0  0  0  0  0  0  0  0  0  0  0  0
   19.5082  -22.7472  -10.5025 C   0  0  0  0  0  0  0  0  0  0  0  0
   19.6416  -22.5804  -11.9871 C   0  0  2  0  0  0  0  0  0  0  0  0
   20.3386  -21.3791  -12.3892 N   0  0  0  0  0  0  0  0  0  0  0  0
   18.3176  -22.6992  -12.6434 C   0  0  0  0  0  0  0  0  0  0  0  0
   17.5402  -21.7224  -12.6367 O   0  0  0  0  0  0  0  0  0  0  0  0
   17.9474  -23.8761  -13.2549 O   0  0  0  0  0  0  0  0  0  0  0  0
  1  2  1  0
  2  3  2  0
  4  2  1  0
  5  4  1  0
  5  6  1  1
  7  8  2  0
  7  5  1  0
  9  7  1  0
 10 14  1  0
 10  9  1  0
 10 11  1  6
 12 11  1  0
 12 13  2  0
 14 15  2  0
 16 12  1  0
 18 17  1  0
 18 19  2  0
 20 18  1  0
 21 20  1  0
 22 21  1  0
 23 22  1  0
 24 23  1  1
 25 24  1  0
 25 14  1  0
 26 24  1  0
 27 26  2  0
 28 26  1  0
M  END
$$$$
