NDR.pdb
     RDKit          3D

 28 27  0  0  1  0  0  0  0  0999 V2000
   17.2760  -11.6005  -17.4490 N   0  0  0  0  0  0  0  0  0  0  0  0
   18.0261  -10.4213  -17.2526 C   0  0  0  0  0  0  0  0  0  0  0  0
   18.5133   -9.8363  -18.2402 O   0  0  0  0  0  0  0  0  0  0  0  0
   18.2271   -9.8948  -15.9011 C   0  0  0  0  0  0  0  0  0  0  0  0
   19.6163   -9.3128  -15.6792 C   0  0  2  0  0  0  0  0  0  0  0  0
   20.5961  -10.3624  -15.6745 N   0  0  0  0  0  0  0  0  0  0  0  0
   19.5447   -8.6045  -14.3734 C   0  0  0  0  0  0  0  0  0  0  0  0
   19.3707   -9.2807  -13.3329 O   0  0  0  0  0  0  0  0  0  0  0  0
   19.6657   -7.1836  -14.2437 N   0  0  0  0  0  0  0  0  0  0  0  0
   19.7359   -6.5174  -12.9730 C   0  0  1  0  0  0  0  0  0  0  0  0
   20.5204   -5.2302  -13.0362 C   0  0  0  0  0  0  0  0  0  0  0  0
   21.9034   -5.4767  -13.4887 C   0  0  0  0  0  0  0  0  0  0  0  0
   22.6072   -6.4399  -13.0997 O   0  0  0  0  0  0  0  0  0  0  0  0
   18.4252   -6.3867  -12.3087 C   0  0  0  0  0  0  0  0  0  0  0  0
   17.4596   -5.8110  -12.8820 O   0  0  0  0  0  0  0  0  0  0  0  0
   22.5208   -4.6213  -14.4044 O   0  0  0  0  0  0  0  0  0  0  0  0
   11.7826  -10.7336   -8.5824 N   0  0  0  0  0  0  0  0  0  0  0  0
   11.6850   -9.3416   -8.2929 C   0  0  0  0  0  0  0  0  0  0  0  0
   10.5990   -8.8865   -7.7378 N   0  0  0  0  0  0  0  0  0  0  0  0
   12.7154   -8.4229   -8.5803 N   0  0  0  0  0  0  0  0  0  0  0  0
   13.9496   -8.8200   -9.1840 C   0  0  0  0  0  0  0  0  0  0  0  0
   14.8050   -7.5862   -9.4420 C   0  0  0  0  0  0  0  0  0  0  0  0
   16.1333   -7.9421  -10.0413 C   0  0  0  0  0  0  0  0  0  0  0  0
   16.8933   -6.6807  -10.3260 C   0  0  2  0  0  0  0  0  0  0  0  0
   18.1572   -6.8879  -10.9972 N   0  0  0  0  0  0  0  0  0  0  0  0
   17.0473   -5.8777   -9.0894 C   0  0  0  0  0  0  0  0  0  0  0  0
   18.0950   -5.9801   -8.4185 O   0  0  0  0  0  0  0  0  0  0  0  0
   16.0440   -5.0264   -8.6834 O   0  0  0  0  0  0  0  0  0  0  0  0
  1  2  1  0
  2  3  2  0
  4  2  1  0
  5  4  1  0
  5  6  1  1
  7  8  2  0
  7  5  1  0
  9  7  1  0
 10 14  1  0
 10  9  1  0
 10 11  1  6
 12 11  1  0
 12 13  2  0
 14 15  2  0
 16 12  1  0
 18 17  1  0
 18 19  2  0
 20 18  1  0
 21 20  1  0
 22 21  1  0
 23 22  1  0
 24 23  1  1
 25 24  1  0
 25 14  1  0
 26 24  1  0
 27 26  2  0
 28 26  1  0
M  END
$$$$
