NDR.pdb
     RDKit          3D

 28 27  0  0  1  0  0  0  0  0999 V2000
   17.1014  -16.0875  -14.7597 N   0  0  0  0  0  0  0  0  0  0  0  0
   16.0216  -15.2016  -14.9620 C   0  0  0  0  0  0  0  0  0  0  0  0
   14.8865  -15.5201  -14.5558 O   0  0  0  0  0  0  0  0  0  0  0  0
   16.2376  -13.9231  -15.6423 C   0  0  0  0  0  0  0  0  0  0  0  0
   17.6620  -13.7400  -16.1478 C   0  0  2  0  0  0  0  0  0  0  0  0
   18.4921  -14.8161  -15.6844 N   0  0  0  0  0  0  0  0  0  0  0  0
   18.1031  -12.4217  -15.6192 C   0  0  0  0  0  0  0  0  0  0  0  0
   18.2269  -12.2833  -14.3799 O   0  0  0  0  0  0  0  0  0  0  0  0
   18.3956  -11.2982  -16.4573 N   0  0  0  0  0  0  0  0  0  0  0  0
   18.7683  -10.0116  -15.9387 C   0  0  1  0  0  0  0  0  0  0  0  0
   19.7376   -9.2834  -16.8367 C   0  0  0  0  0  0  0  0  0  0  0  0
   21.0303   -9.9924  -16.9030 C   0  0  0  0  0  0  0  0  0  0  0  0
   21.5718  -10.3645  -17.9720 O   0  0  0  0  0  0  0  0  0  0  0  0
   17.6143   -9.1948  -15.5176 C   0  0  0  0  0  0  0  0  0  0  0  0
   16.5204   -9.2416  -16.1450 O   0  0  0  0  0  0  0  0  0  0  0  0
   21.7415  -10.2960  -15.7396 O   0  0  0  0  0  0  0  0  0  0  0  0
   13.0568   -8.5848   -8.2889 N   0  0  0  0  0  0  0  0  0  0  0  0
   14.1554   -7.6772   -8.2637 C   0  0  0  0  0  0  0  0  0  0  0  0
   14.4567   -7.0809   -7.1465 N   0  0  0  0  0  0  0  0  0  0  0  0
   14.9402   -7.3893   -9.3992 N   0  0  0  0  0  0  0  0  0  0  0  0
   14.8133   -8.1180  -10.6232 C   0  0  0  0  0  0  0  0  0  0  0  0
   15.7088   -7.4867  -11.6816 C   0  0  0  0  0  0  0  0  0  0  0  0
   15.6107   -8.2023  -12.9963 C   0  0  0  0  0  0  0  0  0  0  0  0
   16.5051   -7.5217  -13.9895 C   0  0  2  0  0  0  0  0  0  0  0  0
   17.6478   -8.3088  -14.3964 N   0  0  0  0  0  0  0  0  0  0  0  0
   16.9025   -6.1813  -13.4965 C   0  0  0  0  0  0  0  0  0  0  0  0
   16.0348   -5.2929  -13.3692 O   0  0  0  0  0  0  0  0  0  0  0  0
   18.2168   -5.9173  -13.1818 O   0  0  0  0  0  0  0  0  0  0  0  0
  1  2  1  0
  2  3  2  0
  4  2  1  0
  5  4  1  0
  5  6  1  1
  7  8  2  0
  7  5  1  0
  9  7  1  0
 10 14  1  0
 10  9  1  0
 10 11  1  6
 12 11  1  0
 12 13  2  0
 14 15  2  0
 16 12  1  0
 18 17  1  0
 18 19  2  0
 20 18  1  0
 21 20  1  0
 22 21  1  0
 23 22  1  0
 24 23  1  1
 25 24  1  0
 25 14  1  0
 26 24  1  0
 27 26  2  0
 28 26  1  0
M  END
$$$$
