NDR.pdb
     RDKit          3D

 28 27  0  0  1  0  0  0  0  0999 V2000
   25.2462  -13.4791  -16.2986 N   0  0  0  0  0  0  0  0  0  0  0  0
   25.8087  -12.2330  -15.9487 C   0  0  0  0  0  0  0  0  0  0  0  0
   27.0491  -12.1160  -15.8979 O   0  0  0  0  0  0  0  0  0  0  0  0
   24.9401  -11.0927  -15.6495 C   0  0  0  0  0  0  0  0  0  0  0  0
   23.4619  -11.3849  -15.8676 C   0  0  2  0  0  0  0  0  0  0  0  0
   23.2203  -11.7045  -17.2464 N   0  0  0  0  0  0  0  0  0  0  0  0
   22.7479  -10.1513  -15.4428 C   0  0  0  0  0  0  0  0  0  0  0  0
   22.8303   -9.7928  -14.2449 O   0  0  0  0  0  0  0  0  0  0  0  0
   21.9687   -9.3485  -16.3365 N   0  0  0  0  0  0  0  0  0  0  0  0
   21.2105   -8.2078  -15.9038 C   0  0  1  0  0  0  0  0  0  0  0  0
   21.6434   -6.9324  -16.5838 C   0  0  0  0  0  0  0  0  0  0  0  0
   20.8388   -5.7864  -16.1176 C   0  0  0  0  0  0  0  0  0  0  0  0
   20.2364   -4.9952  -16.8828 O   0  0  0  0  0  0  0  0  0  0  0  0
   19.7527   -8.4323  -15.9267 C   0  0  0  0  0  0  0  0  0  0  0  0
   19.1748   -8.8496  -16.9680 O   0  0  0  0  0  0  0  0  0  0  0  0
   20.7020   -5.5143  -14.7542 O   0  0  0  0  0  0  0  0  0  0  0  0
   13.2536  -13.0276  -12.2910 N   0  0  0  0  0  0  0  0  0  0  0  0
   12.8002  -12.1672  -13.3329 C   0  0  0  0  0  0  0  0  0  0  0  0
   11.6048  -12.3390  -13.8187 N   0  0  0  0  0  0  0  0  0  0  0  0
   13.5891  -11.1291  -13.8698 N   0  0  0  0  0  0  0  0  0  0  0  0
   14.9735  -10.9733  -13.5469 C   0  0  0  0  0  0  0  0  0  0  0  0
   15.5146   -9.7258  -14.2336 C   0  0  0  0  0  0  0  0  0  0  0  0
   16.9993   -9.5943  -14.0653 C   0  0  0  0  0  0  0  0  0  0  0  0
   17.4745   -8.4033  -14.8434 C   0  0  2  0  0  0  0  0  0  0  0  0
   18.9052   -8.1980  -14.7998 N   0  0  0  0  0  0  0  0  0  0  0  0
   16.7275   -7.1882  -14.4394 C   0  0  0  0  0  0  0  0  0  0  0  0
   17.1936   -6.4506  -13.5466 O   0  0  0  0  0  0  0  0  0  0  0  0
   15.5299   -6.8752  -15.0427 O   0  0  0  0  0  0  0  0  0  0  0  0
  1  2  1  0
  2  3  2  0
  4  2  1  0
  5  4  1  0
  5  6  1  6
  7  8  2  0
  7  5  1  0
  9  7  1  0
 10 14  1  0
 10  9  1  0
 10 11  1  6
 12 11  1  0
 12 13  2  0
 14 15  2  0
 16 12  1  0
 18 17  1  0
 18 19  2  0
 20 18  1  0
 21 20  1  0
 22 21  1  0
 23 22  1  0
 24 23  1  1
 25 24  1  0
 25 14  1  0
 26 24  1  0
 27 26  2  0
 28 26  1  0
M  END
$$$$
