NDR.pdb
     RDKit          3D

 28 27  0  0  1  0  0  0  0  0999 V2000
   17.5880  -26.5581   -1.4836 N   0  0  0  0  0  0  0  0  0  0  0  0
   17.3036  -27.6892   -2.2784 C   0  0  0  0  0  0  0  0  0  0  0  0
   16.9332  -28.7447   -1.7273 O   0  0  0  0  0  0  0  0  0  0  0  0
   17.4437  -27.6184   -3.7342 C   0  0  0  0  0  0  0  0  0  0  0  0
   17.9680  -26.2766   -4.2267 C   0  0  2  0  0  0  0  0  0  0  0  0
   17.6504  -25.2450   -3.2797 N   0  0  0  0  0  0  0  0  0  0  0  0
   17.3111  -26.0538   -5.5423 C   0  0  0  0  0  0  0  0  0  0  0  0
   17.5357  -26.8657   -6.4701 O   0  0  0  0  0  0  0  0  0  0  0  0
   16.4308  -24.9552   -5.8039 N   0  0  0  0  0  0  0  0  0  0  0  0
   15.8252  -24.7265   -7.0862 C   0  0  1  0  0  0  0  0  0  0  0  0
   14.4815  -24.0485   -6.9797 C   0  0  0  0  0  0  0  0  0  0  0  0
   13.8765  -23.8636   -8.3131 C   0  0  0  0  0  0  0  0  0  0  0  0
   13.8883  -24.7355   -9.2154 O   0  0  0  0  0  0  0  0  0  0  0  0
   16.7374  -24.0961   -8.0591 C   0  0  0  0  0  0  0  0  0  0  0  0
   17.3706  -23.0434   -7.7701 O   0  0  0  0  0  0  0  0  0  0  0  0
   13.2382  -22.6677   -8.6508 O   0  0  0  0  0  0  0  0  0  0  0  0
   21.6484  -26.7272  -14.8586 N   0  0  0  0  0  0  0  0  0  0  0  0
   20.9062  -27.0389  -13.6826 C   0  0  0  0  0  0  0  0  0  0  0  0
   20.8003  -28.2828  -13.3136 N   0  0  0  0  0  0  0  0  0  0  0  0
   20.2742  -26.0584  -12.8905 N   0  0  0  0  0  0  0  0  0  0  0  0
   19.8442  -24.8030  -13.4236 C   0  0  0  0  0  0  0  0  0  0  0  0
   19.2188  -23.9702  -12.3119 C   0  0  0  0  0  0  0  0  0  0  0  0
   18.3465  -24.7987  -11.4158 C   0  0  0  0  0  0  0  0  0  0  0  0
   17.7486  -23.9131  -10.3632 C   0  0  2  0  0  0  0  0  0  0  0  0
   16.9657  -24.6156   -9.3710 N   0  0  0  0  0  0  0  0  0  0  0  0
   16.9866  -22.8058  -10.9884 C   0  0  0  0  0  0  0  0  0  0  0  0
   15.8296  -23.0175  -11.4066 O   0  0  0  0  0  0  0  0  0  0  0  0
   17.5492  -21.5547  -11.1077 O   0  0  0  0  0  0  0  0  0  0  0  0
  1  2  1  0
  2  3  2  0
  4  2  1  0
  5  4  1  0
  5  6  1  1
  7  8  2  0
  7  5  1  0
  9  7  1  0
 10 14  1  0
 10  9  1  0
 10 11  1  1
 12 11  1  0
 12 13  2  0
 14 15  2  0
 16 12  1  0
 18 17  1  0
 18 19  2  0
 20 18  1  0
 21 20  1  0
 22 21  1  0
 23 22  1  0
 24 23  1  6
 25 24  1  0
 25 14  1  0
 26 24  1  0
 27 26  2  0
 28 26  1  0
M  END
$$$$
