NDR.pdb
     RDKit          3D

 28 27  0  0  1  0  0  0  0  0999 V2000
   19.6027  -28.6361  -10.6633 N   0  0  0  0  0  0  0  0  0  0  0  0
   19.2459  -27.3199  -10.2999 C   0  0  0  0  0  0  0  0  0  0  0  0
   19.0311  -27.0550   -9.1005 O   0  0  0  0  0  0  0  0  0  0  0  0
   19.1306  -26.2803  -11.3246 C   0  0  0  0  0  0  0  0  0  0  0  0
   19.1917  -24.8670  -10.7617 C   0  0  2  0  0  0  0  0  0  0  0  0
   18.1081  -24.6541   -9.8440 N   0  0  0  0  0  0  0  0  0  0  0  0
   19.1132  -23.9669  -11.9431 C   0  0  0  0  0  0  0  0  0  0  0  0
   19.8810  -24.1784  -12.9105 O   0  0  0  0  0  0  0  0  0  0  0  0
   18.2007  -22.8670  -12.0324 N   0  0  0  0  0  0  0  0  0  0  0  0
   18.0784  -22.0454  -13.2043 C   0  0  1  0  0  0  0  0  0  0  0  0
   16.6594  -21.5967  -13.4519 C   0  0  0  0  0  0  0  0  0  0  0  0
   15.7611  -22.7557  -13.6196 C   0  0  0  0  0  0  0  0  0  0  0  0
   16.0566  -23.7822  -14.2780 O   0  0  0  0  0  0  0  0  0  0  0  0
   19.0687  -20.9533  -13.2581 C   0  0  0  0  0  0  0  0  0  0  0  0
   19.3946  -20.3185  -12.2173 O   0  0  0  0  0  0  0  0  0  0  0  0
   14.4927  -22.7698  -13.0344 O   0  0  0  0  0  0  0  0  0  0  0  0
   24.8134  -23.9676  -13.9704 N   0  0  0  0  0  0  0  0  0  0  0  0
   24.8709  -22.9693  -14.9859 C   0  0  0  0  0  0  0  0  0  0  0  0
   25.3615  -23.2807  -16.1508 N   0  0  0  0  0  0  0  0  0  0  0  0
   24.4190  -21.6479  -14.7907 N   0  0  0  0  0  0  0  0  0  0  0  0
   23.8324  -21.2125  -13.5612 C   0  0  0  0  0  0  0  0  0  0  0  0
   22.3252  -21.0821  -13.7396 C   0  0  0  0  0  0  0  0  0  0  0  0
   21.8696  -19.6576  -13.6239 C   0  0  0  0  0  0  0  0  0  0  0  0
   20.6719  -19.4559  -14.5040 C   0  0  2  0  0  0  0  0  0  0  0  0
   19.7162  -20.5403  -14.4636 N   0  0  0  0  0  0  0  0  0  0  0  0
   21.0937  -19.1400  -15.8896 C   0  0  0  0  0  0  0  0  0  0  0  0
   20.7998  -19.9257  -16.8141 O   0  0  0  0  0  0  0  0  0  0  0  0
   21.8038  -17.9906  -16.1556 O   0  0  0  0  0  0  0  0  0  0  0  0
  1  2  1  0
  2  3  2  0
  4  2  1  0
  5  4  1  0
  5  6  1  1
  7  8  2  0
  7  5  1  0
  9  7  1  0
 10 14  1  0
 10  9  1  0
 10 11  1  1
 12 11  1  0
 12 13  2  0
 14 15  2  0
 16 12  1  0
 18 17  1  0
 18 19  2  0
 20 18  1  0
 21 20  1  0
 22 21  1  0
 23 22  1  0
 24 23  1  1
 25 24  1  0
 25 14  1  0
 26 24  1  0
 27 26  2  0
 28 26  1  0
M  END
$$$$
