NDR.pdb
     RDKit          3D

 28 27  0  0  1  0  0  0  0  0999 V2000
   29.7433  -21.8628   -9.5716 N   0  0  0  0  0  0  0  0  0  0  0  0
   30.4411  -21.6475  -10.7792 C   0  0  0  0  0  0  0  0  0  0  0  0
   31.6506  -21.9434  -10.8463 O   0  0  0  0  0  0  0  0  0  0  0  0
   29.7473  -21.0823  -11.9382 C   0  0  0  0  0  0  0  0  0  0  0  0
   28.3765  -20.5108  -11.6029 C   0  0  2  0  0  0  0  0  0  0  0  0
   27.5671  -21.5114  -10.9662 N   0  0  0  0  0  0  0  0  0  0  0  0
   27.8041  -20.0674  -12.9020 C   0  0  0  0  0  0  0  0  0  0  0  0
   28.0629  -18.9104  -13.3079 O   0  0  0  0  0  0  0  0  0  0  0  0
   26.9698  -20.8986  -13.7164 N   0  0  0  0  0  0  0  0  0  0  0  0
   26.3486  -20.4367  -14.9264 C   0  0  1  0  0  0  0  0  0  0  0  0
   26.3240  -21.4919  -16.0045 C   0  0  0  0  0  0  0  0  0  0  0  0
   25.8767  -20.9223  -17.2904 C   0  0  0  0  0  0  0  0  0  0  0  0
   25.5365  -21.6118  -18.2821 O   0  0  0  0  0  0  0  0  0  0  0  0
   25.0461  -19.7816  -14.7014 C   0  0  0  0  0  0  0  0  0  0  0  0
   24.6029  -19.5983  -13.5341 O   0  0  0  0  0  0  0  0  0  0  0  0
   25.8067  -19.5395  -17.4760 O   0  0  0  0  0  0  0  0  0  0  0  0
   20.7996  -12.3441  -16.7628 N   0  0  0  0  0  0  0  0  0  0  0  0
   20.0590  -13.1559  -15.8553 C   0  0  0  0  0  0  0  0  0  0  0  0
   19.0121  -12.6527  -15.2675 N   0  0  0  0  0  0  0  0  0  0  0  0
   20.4064  -14.4899  -15.5585 N   0  0  0  0  0  0  0  0  0  0  0  0
   21.6003  -15.0997  -16.0567 C   0  0  0  0  0  0  0  0  0  0  0  0
   21.7184  -16.5107  -15.4949 C   0  0  0  0  0  0  0  0  0  0  0  0
   23.0359  -17.1405  -15.8377 C   0  0  0  0  0  0  0  0  0  0  0  0
   22.9715  -18.6062  -15.5253 C   0  0  2  0  0  0  0  0  0  0  0  0
   24.2074  -19.3185  -15.7621 N   0  0  0  0  0  0  0  0  0  0  0  0
   21.8260  -19.2357  -16.2247 C   0  0  0  0  0  0  0  0  0  0  0  0
   21.9409  -19.5529  -17.4266 O   0  0  0  0  0  0  0  0  0  0  0  0
   20.6452  -19.4685  -15.5556 O   0  0  0  0  0  0  0  0  0  0  0  0
  1  2  1  0
  2  3  2  0
  4  2  1  0
  5  4  1  0
  5  6  1  6
  7  8  2  0
  7  5  1  0
  9  7  1  0
 10 14  1  0
 10  9  1  0
 10 11  1  6
 12 11  1  0
 12 13  2  0
 14 15  2  0
 16 12  1  0
 18 17  1  0
 18 19  2  0
 20 18  1  0
 21 20  1  0
 22 21  1  0
 23 22  1  0
 24 23  1  6
 25 24  1  0
 25 14  1  0
 26 24  1  0
 27 26  2  0
 28 26  1  0
M  END
$$$$
