NDR.pdb
     RDKit          3D

 28 27  0  0  1  0  0  0  0  0999 V2000
   29.1365  -21.9142  -17.5418 N   0  0  0  0  0  0  0  0  0  0  0  0
   28.7713  -20.7091  -18.1792 C   0  0  0  0  0  0  0  0  0  0  0  0
   29.6625  -19.9645  -18.6332 O   0  0  0  0  0  0  0  0  0  0  0  0
   27.3593  -20.3421  -18.3032 C   0  0  0  0  0  0  0  0  0  0  0  0
   26.4138  -21.3514  -17.6665 C   0  0  2  0  0  0  0  0  0  0  0  0
   26.1226  -22.4080  -18.5941 N   0  0  0  0  0  0  0  0  0  0  0  0
   25.1991  -20.5771  -17.2965 C   0  0  0  0  0  0  0  0  0  0  0  0
   25.2836  -19.7329  -16.3744 O   0  0  0  0  0  0  0  0  0  0  0  0
   23.9330  -20.7470  -17.9434 N   0  0  0  0  0  0  0  0  0  0  0  0
   22.7429  -20.0595  -17.5259 C   0  0  1  0  0  0  0  0  0  0  0  0
   21.6917  -20.0118  -18.6071 C   0  0  0  0  0  0  0  0  0  0  0  0
   20.5629  -19.1489  -18.2080 C   0  0  0  0  0  0  0  0  0  0  0  0
   20.6843  -18.1150  -17.5075 O   0  0  0  0  0  0  0  0  0  0  0  0
   22.2346  -20.5133  -16.2175 C   0  0  0  0  0  0  0  0  0  0  0  0
   22.1761  -21.7412  -15.9324 O   0  0  0  0  0  0  0  0  0  0  0  0
   19.2570  -19.4491  -18.6029 O   0  0  0  0  0  0  0  0  0  0  0  0
   26.0982  -21.9194  -11.1762 N   0  0  0  0  0  0  0  0  0  0  0  0
   25.3185  -21.1109  -10.2988 C   0  0  0  0  0  0  0  0  0  0  0  0
   25.6797  -21.0009   -9.0530 N   0  0  0  0  0  0  0  0  0  0  0  0
   24.1639  -20.4174  -10.7160 N   0  0  0  0  0  0  0  0  0  0  0  0
   22.9452  -21.0882  -11.0480 C   0  0  0  0  0  0  0  0  0  0  0  0
   21.9020  -20.0608  -11.4684 C   0  0  0  0  0  0  0  0  0  0  0  0
   22.2472  -19.4174  -12.7787 C   0  0  0  0  0  0  0  0  0  0  0  0
   21.4399  -20.0623  -13.8660 C   0  0  2  0  0  0  0  0  0  0  0  0
   21.7792  -19.6188  -15.1998 N   0  0  0  0  0  0  0  0  0  0  0  0
   19.9905  -19.9235  -13.5876 C   0  0  0  0  0  0  0  0  0  0  0  0
   19.3333  -19.0446  -14.1826 O   0  0  0  0  0  0  0  0  0  0  0  0
   19.3735  -20.7560  -12.6806 O   0  0  0  0  0  0  0  0  0  0  0  0
  1  2  1  0
  2  3  2  0
  4  2  1  0
  5  4  1  0
  5  6  1  6
  7  8  2  0
  7  5  1  0
  9  7  1  0
 10 14  1  0
 10  9  1  0
 10 11  1  6
 12 11  1  0
 12 13  2  0
 14 15  2  0
 16 12  1  0
 18 17  1  0
 18 19  2  0
 20 18  1  0
 21 20  1  0
 22 21  1  0
 23 22  1  0
 24 23  1  1
 25 24  1  0
 25 14  1  0
 26 24  1  0
 27 26  2  0
 28 26  1  0
M  END
$$$$
