NDR.pdb
     RDKit          3D

 28 27  0  0  1  0  0  0  0  0999 V2000
   13.6720  -14.5813  -14.7065 N   0  0  0  0  0  0  0  0  0  0  0  0
   14.6700  -14.0675  -13.8509 C   0  0  0  0  0  0  0  0  0  0  0  0
   14.6020  -14.2970  -12.6272 O   0  0  0  0  0  0  0  0  0  0  0  0
   15.7712  -13.2739  -14.4000 C   0  0  0  0  0  0  0  0  0  0  0  0
   15.5751  -12.8975  -15.8621 C   0  0  2  0  0  0  0  0  0  0  0  0
   15.7399  -14.0548  -16.6960 N   0  0  0  0  0  0  0  0  0  0  0  0
   16.5959  -11.8527  -16.1420 C   0  0  0  0  0  0  0  0  0  0  0  0
   17.6891  -12.2016  -16.6453 O   0  0  0  0  0  0  0  0  0  0  0  0
   16.3922  -10.4626  -15.8656 N   0  0  0  0  0  0  0  0  0  0  0  0
   17.3488   -9.4481  -16.2108 C   0  0  1  0  0  0  0  0  0  0  0  0
   16.7034   -8.2228  -16.8094 C   0  0  0  0  0  0  0  0  0  0  0  0
   17.7145   -7.1959  -17.1277 C   0  0  0  0  0  0  0  0  0  0  0  0
   17.8400   -6.1170  -16.4994 O   0  0  0  0  0  0  0  0  0  0  0  0
   18.3031   -9.1515  -15.1257 C   0  0  0  0  0  0  0  0  0  0  0  0
   17.9008   -8.7816  -13.9883 O   0  0  0  0  0  0  0  0  0  0  0  0
   18.6143   -7.3785  -18.1806 O   0  0  0  0  0  0  0  0  0  0  0  0
   26.0213  -12.5289  -16.2217 N   0  0  0  0  0  0  0  0  0  0  0  0
   25.4794  -11.5381  -17.0911 C   0  0  0  0  0  0  0  0  0  0  0  0
   25.9627  -11.4207  -18.2942 N   0  0  0  0  0  0  0  0  0  0  0  0
   24.4360  -10.6696  -16.7103 N   0  0  0  0  0  0  0  0  0  0  0  0
   23.7877  -10.7620  -15.4389 C   0  0  0  0  0  0  0  0  0  0  0  0
   22.6031   -9.8048  -15.4057 C   0  0  0  0  0  0  0  0  0  0  0  0
   21.8083   -9.9423  -14.1410 C   0  0  0  0  0  0  0  0  0  0  0  0
   20.6424   -9.0001  -14.1932 C   0  0  2  0  0  0  0  0  0  0  0  0
   19.7206   -9.2558  -15.2775 N   0  0  0  0  0  0  0  0  0  0  0  0
   21.1112   -7.5938  -14.1840 C   0  0  0  0  0  0  0  0  0  0  0  0
   20.9867   -6.8994  -15.2139 O   0  0  0  0  0  0  0  0  0  0  0  0
   21.6795   -7.0574  -13.0502 O   0  0  0  0  0  0  0  0  0  0  0  0
  1  2  1  0
  2  3  2  0
  4  2  1  0
  5  4  1  0
  5  6  1  6
  7  8  2  0
  7  5  1  0
  9  7  1  0
 10 14  1  0
 10  9  1  0
 10 11  1  1
 12 11  1  0
 12 13  2  0
 14 15  2  0
 16 12  1  0
 18 17  1  0
 18 19  2  0
 20 18  1  0
 21 20  1  0
 22 21  1  0
 23 22  1  0
 24 23  1  6
 25 24  1  0
 25 14  1  0
 26 24  1  0
 27 26  2  0
 28 26  1  0
M  END
$$$$
