NDR.pdb
     RDKit          3D

 28 27  0  0  1  0  0  0  0  0999 V2000
   28.0030  -22.5012  -17.2262 N   0  0  0  0  0  0  0  0  0  0  0  0
   28.5842  -21.2829  -17.6385 C   0  0  0  0  0  0  0  0  0  0  0  0
   29.2805  -21.2581  -18.6726 O   0  0  0  0  0  0  0  0  0  0  0  0
   28.3685  -20.0641  -16.8563 C   0  0  0  0  0  0  0  0  0  0  0  0
   27.5876  -20.3006  -15.5709 C   0  0  2  0  0  0  0  0  0  0  0  0
   27.6372  -21.6900  -15.2120 N   0  0  0  0  0  0  0  0  0  0  0  0
   26.2021  -19.8435  -15.8599 C   0  0  0  0  0  0  0  0  0  0  0  0
   26.0183  -18.6425  -16.1666 O   0  0  0  0  0  0  0  0  0  0  0  0
   25.0629  -20.7093  -15.8062 N   0  0  0  0  0  0  0  0  0  0  0  0
   23.7143  -20.2375  -15.9543 C   0  0  1  0  0  0  0  0  0  0  0  0
   22.9491  -20.9930  -17.0127 C   0  0  0  0  0  0  0  0  0  0  0  0
   21.6946  -20.2954  -17.3560 C   0  0  0  0  0  0  0  0  0  0  0  0
   21.6467  -19.1572  -17.8821 O   0  0  0  0  0  0  0  0  0  0  0  0
   22.9953  -20.1112  -14.6724 C   0  0  0  0  0  0  0  0  0  0  0  0
   22.7427  -21.1254  -13.9653 O   0  0  0  0  0  0  0  0  0  0  0  0
   20.4541  -20.8863  -17.1043 O   0  0  0  0  0  0  0  0  0  0  0  0
   16.3481  -14.9215  -16.6512 N   0  0  0  0  0  0  0  0  0  0  0  0
   17.7568  -14.7214  -16.5686 C   0  0  0  0  0  0  0  0  0  0  0  0
   18.2514  -13.5652  -16.9050 N   0  0  0  0  0  0  0  0  0  0  0  0
   18.6509  -15.7225  -16.1367 N   0  0  0  0  0  0  0  0  0  0  0  0
   18.2238  -17.0542  -15.8376 C   0  0  0  0  0  0  0  0  0  0  0  0
   19.0382  -17.5949  -14.6692 C   0  0  0  0  0  0  0  0  0  0  0  0
   20.4353  -17.9543  -15.0803 C   0  0  0  0  0  0  0  0  0  0  0  0
   21.1417  -18.5775  -13.9131 C   0  0  2  0  0  0  0  0  0  0  0  0
   22.5399  -18.8618  -14.1483 N   0  0  0  0  0  0  0  0  0  0  0  0
   20.4049  -19.7733  -13.4391 C   0  0  0  0  0  0  0  0  0  0  0  0
   20.2262  -20.7321  -14.2183 O   0  0  0  0  0  0  0  0  0  0  0  0
   19.9211  -19.8269  -12.1510 O   0  0  0  0  0  0  0  0  0  0  0  0
  1  2  1  0
  2  3  2  0
  4  2  1  0
  5  4  1  0
  5  6  1  6
  7  8  2  0
  7  5  1  0
  9  7  1  0
 10 14  1  0
 10  9  1  0
 10 11  1  6
 12 11  1  0
 12 13  2  0
 14 15  2  0
 16 12  1  0
 18 17  1  0
 18 19  2  0
 20 18  1  0
 21 20  1  0
 22 21  1  0
 23 22  1  0
 24 23  1  6
 25 24  1  0
 25 14  1  0
 26 24  1  0
 27 26  2  0
 28 26  1  0
M  END
$$$$
