NDR.pdb
     RDKit          3D

 28 27  0  0  1  0  0  0  0  0999 V2000
   28.0892  -15.7562  -18.7832 N   0  0  0  0  0  0  0  0  0  0  0  0
   27.2451  -16.8821  -18.8907 C   0  0  0  0  0  0  0  0  0  0  0  0
   27.3440  -17.6263  -19.8863 O   0  0  0  0  0  0  0  0  0  0  0  0
   26.2651  -17.1686  -17.8411 C   0  0  0  0  0  0  0  0  0  0  0  0
   26.2064  -18.6398  -17.4538 C   0  0  2  0  0  0  0  0  0  0  0  0
   25.6272  -19.4080  -18.5197 N   0  0  0  0  0  0  0  0  0  0  0  0
   25.3860  -18.6902  -16.2142 C   0  0  0  0  0  0  0  0  0  0  0  0
   25.8112  -18.1079  -15.1893 O   0  0  0  0  0  0  0  0  0  0  0  0
   24.1296  -19.3720  -16.1319 N   0  0  0  0  0  0  0  0  0  0  0  0
   23.3985  -19.5190  -14.9043 C   0  0  1  0  0  0  0  0  0  0  0  0
   21.9444  -19.8511  -15.1320 C   0  0  0  0  0  0  0  0  0  0  0  0
   21.2171  -19.9425  -13.8510 C   0  0  0  0  0  0  0  0  0  0  0  0
   20.1217  -19.3738  -13.6247 O   0  0  0  0  0  0  0  0  0  0  0  0
   24.0670  -20.3999  -13.9279 C   0  0  0  0  0  0  0  0  0  0  0  0
   24.2472  -21.6246  -14.1730 O   0  0  0  0  0  0  0  0  0  0  0  0
   21.7280  -20.6922  -12.7888 O   0  0  0  0  0  0  0  0  0  0  0  0
   31.8294  -20.7173  -10.1312 N   0  0  0  0  0  0  0  0  0  0  0  0
   31.2286  -21.9418  -10.5447 C   0  0  0  0  0  0  0  0  0  0  0  0
   31.9853  -22.9834  -10.7371 N   0  0  0  0  0  0  0  0  0  0  0  0
   29.8420  -22.0835  -10.7583 N   0  0  0  0  0  0  0  0  0  0  0  0
   28.9234  -21.0037  -10.5703 C   0  0  0  0  0  0  0  0  0  0  0  0
   27.5180  -21.4684  -10.9299 C   0  0  0  0  0  0  0  0  0  0  0  0
   26.8045  -20.4731  -11.7962 C   0  0  0  0  0  0  0  0  0  0  0  0
   25.3359  -20.7775  -11.7803 C   0  0  2  0  0  0  0  0  0  0  0  0
   24.5475  -19.9446  -12.6610 N   0  0  0  0  0  0  0  0  0  0  0  0
   24.8178  -20.7618  -10.3914 C   0  0  0  0  0  0  0  0  0  0  0  0
   24.3982  -19.6910   -9.9058 O   0  0  0  0  0  0  0  0  0  0  0  0
   24.7996  -21.9173   -9.6427 O   0  0  0  0  0  0  0  0  0  0  0  0
  1  2  1  0
  2  3  2  0
  4  2  1  0
  5  4  1  0
  5  6  1  6
  7  8  2  0
  7  5  1  0
  9  7  1  0
 10 14  1  0
 10  9  1  0
 10 11  1  6
 12 11  1  0
 12 13  2  0
 14 15  2  0
 16 12  1  0
 18 17  1  0
 18 19  2  0
 20 18  1  0
 21 20  1  0
 22 21  1  0
 23 22  1  0
 24 23  1  1
 25 24  1  0
 25 14  1  0
 26 24  1  0
 27 26  2  0
 28 26  1  0
M  END
$$$$
