NDR.pdb
     RDKit          3D

 28 27  0  0  1  0  0  0  0  0999 V2000
   27.5051  -21.4373  -15.6001 N   0  0  0  0  0  0  0  0  0  0  0  0
   27.0321  -20.1128  -15.4832 C   0  0  0  0  0  0  0  0  0  0  0  0
   27.7879  -19.1664  -15.7804 O   0  0  0  0  0  0  0  0  0  0  0  0
   25.6675  -19.8582  -15.0173 C   0  0  0  0  0  0  0  0  0  0  0  0
   24.8946  -21.1275  -14.6868 C   0  0  2  0  0  0  0  0  0  0  0  0
   24.7640  -21.9452  -15.8599 N   0  0  0  0  0  0  0  0  0  0  0  0
   23.5772  -20.6663  -14.1733 C   0  0  0  0  0  0  0  0  0  0  0  0
   23.5449  -20.0168  -13.1021 O   0  0  0  0  0  0  0  0  0  0  0  0
   22.3389  -20.9266  -14.8435 N   0  0  0  0  0  0  0  0  0  0  0  0
   21.0613  -20.5704  -14.2920 C   0  0  1  0  0  0  0  0  0  0  0  0
   20.3272  -19.5587  -15.1370 C   0  0  0  0  0  0  0  0  0  0  0  0
   19.0841  -19.1196  -14.4737 C   0  0  0  0  0  0  0  0  0  0  0  0
   18.8759  -19.2164  -13.2401 O   0  0  0  0  0  0  0  0  0  0  0  0
   20.2432  -21.7375  -13.9114 C   0  0  0  0  0  0  0  0  0  0  0  0
   20.2149  -22.7746  -14.6300 O   0  0  0  0  0  0  0  0  0  0  0  0
   18.0401  -18.5545  -15.2100 O   0  0  0  0  0  0  0  0  0  0  0  0
   18.2073  -25.1277   -6.1561 N   0  0  0  0  0  0  0  0  0  0  0  0
   18.7170  -25.9445   -7.2068 C   0  0  0  0  0  0  0  0  0  0  0  0
   19.2302  -27.1043   -6.9131 N   0  0  0  0  0  0  0  0  0  0  0  0
   18.6937  -25.5562   -8.5621 N   0  0  0  0  0  0  0  0  0  0  0  0
   17.6901  -24.6865   -9.0929 C   0  0  0  0  0  0  0  0  0  0  0  0
   17.9426  -24.4728  -10.5799 C   0  0  0  0  0  0  0  0  0  0  0  0
   18.5572  -23.1326  -10.8558 C   0  0  0  0  0  0  0  0  0  0  0  0
   18.6893  -22.9530  -12.3390 C   0  0  2  0  0  0  0  0  0  0  0  0
   19.4390  -21.7802  -12.7306 N   0  0  0  0  0  0  0  0  0  0  0  0
   17.3573  -23.0016  -12.9880 C   0  0  0  0  0  0  0  0  0  0  0  0
   16.8347  -24.1086  -13.2328 O   0  0  0  0  0  0  0  0  0  0  0  0
   16.7016  -21.8367  -13.3185 O   0  0  0  0  0  0  0  0  0  0  0  0
  1  2  1  0
  2  3  2  0
  4  2  1  0
  5  4  1  0
  5  6  1  6
  7  8  2  0
  7  5  1  0
  9  7  1  0
 10 14  1  0
 10  9  1  0
 10 11  1  6
 12 11  1  0
 12 13  2  0
 14 15  2  0
 16 12  1  0
 18 17  1  0
 18 19  2  0
 20 18  1  0
 21 20  1  0
 22 21  1  0
 23 22  1  0
 24 23  1  1
 25 24  1  0
 25 14  1  0
 26 24  1  0
 27 26  2  0
 28 26  1  0
M  END
$$$$
