SLT.pdb
     RDKit          3D

 22 21  0  0  1  0  0  0  0  0999 V2000
    6.9645  -20.1473   18.3009 O   0  0  0  0  0  0  0  0  0  0  0  0
    7.6625  -19.2222   19.0581 C   0  0  0  0  0  0  0  0  0  0  0  0
    8.2899  -18.1581   18.1826 C   0  0  2  0  0  0  0  0  0  0  0  0
    9.0779  -18.7764   17.1326 N   0  0  0  0  0  0  0  0  0  0  0  0
    9.0874  -17.1940   18.9788 C   0  0  0  0  0  0  0  0  0  0  0  0
   10.3273  -17.2679   18.9392 O   0  0  0  0  0  0  0  0  0  0  0  0
    6.7947  -12.3450   20.2046 C   0  0  0  0  0  0  0  0  0  0  0  0
    7.9097  -13.2742   19.7632 C   0  0  1  0  0  0  0  0  0  0  0  0
    9.0711  -12.4025   19.3388 C   0  0  0  0  0  0  0  0  0  0  0  0
    8.2371  -14.1497   20.9261 C   0  0  0  0  0  0  0  0  0  0  0  0
    9.1571  -15.2838   20.6169 C   0  0  2  0  0  0  0  0  0  0  0  0
    8.4353  -16.2229   19.7568 N   0  0  0  0  0  0  0  0  0  0  0  0
    9.4044  -16.0064   21.9145 C   0  0  0  0  0  0  0  0  0  0  0  0
    8.4427  -16.2988   22.6858 O   0  0  0  0  0  0  0  0  0  0  0  0
   10.2759  -19.3020   22.4912 C   0  0  0  0  0  0  0  0  0  0  0  0
   11.3500  -18.5662   23.2679 C   0  0  1  0  0  0  0  0  0  0  0  0
   12.5062  -18.6076   22.5159 O   0  0  0  0  0  0  0  0  0  0  0  0
   10.8692  -17.1622   23.5438 C   0  0  2  0  0  0  0  0  0  0  0  0
   10.6957  -16.3929   22.3400 N   0  0  0  0  0  0  0  0  0  0  0  0
   11.7497  -16.4311   24.4667 C   0  0  0  0  0  0  0  0  0  0  0  0
   11.9161  -16.8203   25.7893 O   0  0  0  0  0  0  0  0  0  0  0  0
   12.3713  -15.4236   24.0479 O   0  0  0  0  0  0  0  0  0  0  0  0
  2  1  1  0
  3  2  1  0
  3  4  1  6
  5 12  1  0
  5  3  1  0
  6  5  2  0
  8  7  1  1
  8 10  1  0
  9  8  1  0
 11 10  1  1
 11 12  1  0
 13 11  1  0
 13 19  1  0
 14 13  2  0
 16 15  1  6
 17 16  1  0
 18 19  1  6
 18 16  1  0
 20 18  1  0
 21 20  1  0
 22 20  2  0
M  END
$$$$
