SLT.pdb
     RDKit          3D

 22 21  0  0  1  0  0  0  0  0999 V2000
   -4.0475  -29.1816   28.9752 O   0  0  0  0  0  0  0  0  0  0  0  0
   -4.3349  -27.8933   29.3926 C   0  0  0  0  0  0  0  0  0  0  0  0
   -3.2304  -26.9324   29.0064 C   0  0  2  0  0  0  0  0  0  0  0  0
   -1.9912  -27.3068   29.6620 N   0  0  0  0  0  0  0  0  0  0  0  0
   -3.6043  -25.5256   29.2905 C   0  0  0  0  0  0  0  0  0  0  0  0
   -3.4757  -25.0957   30.4494 O   0  0  0  0  0  0  0  0  0  0  0  0
   -2.6363  -21.5287   25.6275 C   0  0  0  0  0  0  0  0  0  0  0  0
   -2.7222  -22.2715   26.9475 C   0  0  1  0  0  0  0  0  0  0  0  0
   -2.1297  -21.3662   28.0049 C   0  0  0  0  0  0  0  0  0  0  0  0
   -4.1632  -22.5758   27.1865 C   0  0  0  0  0  0  0  0  0  0  0  0
   -4.4470  -23.3044   28.4580 C   0  0  2  0  0  0  0  0  0  0  0  0
   -4.0925  -24.7102   28.2560 N   0  0  0  0  0  0  0  0  0  0  0  0
   -5.9397  -23.2704   28.6522 C   0  0  0  0  0  0  0  0  0  0  0  0
   -6.7236  -23.5032   27.6843 O   0  0  0  0  0  0  0  0  0  0  0  0
   -7.8192  -25.4563   30.8007 C   0  0  0  0  0  0  0  0  0  0  0  0
   -8.3264  -24.0776   31.1749 C   0  0  1  0  0  0  0  0  0  0  0  0
   -7.7652  -23.7462   32.3912 O   0  0  0  0  0  0  0  0  0  0  0  0
   -7.9647  -23.1146   30.0702 C   0  0  2  0  0  0  0  0  0  0  0  0
   -6.5420  -22.9830   29.8981 N   0  0  0  0  0  0  0  0  0  0  0  0
   -8.5579  -21.7829   30.2606 C   0  0  0  0  0  0  0  0  0  0  0  0
   -9.9292  -21.5722   30.2015 O   0  0  0  0  0  0  0  0  0  0  0  0
   -7.8028  -20.8046   30.4834 O   0  0  0  0  0  0  0  0  0  0  0  0
  2  1  1  0
  3  2  1  0
  3  4  1  1
  5 12  1  0
  5  3  1  0
  6  5  2  0
  8  7  1  6
  8 10  1  0
  9  8  1  0
 11 10  1  6
 11 12  1  0
 13 11  1  0
 13 19  1  0
 14 13  2  0
 16 15  1  6
 17 16  1  0
 18 19  1  1
 18 16  1  0
 20 18  1  0
 21 20  1  0
 22 20  2  0
M  END
$$$$
