SLT.pdb
     RDKit          3D

 22 21  0  0  1  0  0  0  0  0999 V2000
    7.0206  -17.1625   21.6773 O   0  0  0  0  0  0  0  0  0  0  0  0
    7.5079  -16.3421   20.6743 C   0  0  0  0  0  0  0  0  0  0  0  0
    7.4457  -14.8845   21.0793 C   0  0  2  0  0  0  0  0  0  0  0  0
    7.9566  -14.0472   20.0099 N   0  0  0  0  0  0  0  0  0  0  0  0
    8.1536  -14.6410   22.3596 C   0  0  0  0  0  0  0  0  0  0  0  0
    9.3896  -14.5136   22.3439 O   0  0  0  0  0  0  0  0  0  0  0  0
    5.7815  -11.9490   26.6360 C   0  0  0  0  0  0  0  0  0  0  0  0
    6.8728  -12.3514   25.6620 C   0  0  1  0  0  0  0  0  0  0  0  0
    8.1095  -11.5621   26.0311 C   0  0  0  0  0  0  0  0  0  0  0  0
    7.0630  -13.8248   25.8008 C   0  0  0  0  0  0  0  0  0  0  0  0
    8.0637  -14.4180   24.8654 C   0  0  2  0  0  0  0  0  0  0  0  0
    7.4231  -14.5593   23.5567 N   0  0  0  0  0  0  0  0  0  0  0  0
    8.3366  -15.8160   25.3536 C   0  0  0  0  0  0  0  0  0  0  0  0
    7.3841  -16.6218   25.5740 O   0  0  0  0  0  0  0  0  0  0  0  0
   10.3700  -18.3831   23.6920 C   0  0  0  0  0  0  0  0  0  0  0  0
   10.8739  -18.3700   25.1217 C   0  0  1  0  0  0  0  0  0  0  0  0
   12.1057  -17.7482   25.1207 O   0  0  0  0  0  0  0  0  0  0  0  0
    9.8539  -17.6689   25.9860 C   0  0  2  0  0  0  0  0  0  0  0  0
    9.6427  -16.3016   25.5898 N   0  0  0  0  0  0  0  0  0  0  0  0
   10.1928  -17.7152   27.4159 C   0  0  0  0  0  0  0  0  0  0  0  0
   10.2926  -18.9134   28.1106 O   0  0  0  0  0  0  0  0  0  0  0  0
   10.3988  -16.6391   28.0294 O   0  0  0  0  0  0  0  0  0  0  0  0
  2  1  1  0
  3  2  1  0
  3  4  1  6
  5 12  1  0
  5  3  1  0
  6  5  2  0
  8  7  1  1
  8 10  1  0
  9  8  1  0
 11 10  1  1
 11 12  1  0
 13 11  1  0
 13 19  1  0
 14 13  2  0
 16 15  1  6
 17 16  1  0
 18 19  1  6
 18 16  1  0
 20 18  1  0
 21 20  1  0
 22 20  2  0
M  END
$$$$
