SLT.pdb
     RDKit          3D

 22 21  0  0  1  0  0  0  0  0999 V2000
    5.9749  -17.0888   20.9714 O   0  0  0  0  0  0  0  0  0  0  0  0
    7.2960  -16.6756   20.9937 C   0  0  0  0  0  0  0  0  0  0  0  0
    7.3993  -15.1791   21.1993 C   0  0  2  0  0  0  0  0  0  0  0  0
    7.9640  -14.5510   20.0194 N   0  0  0  0  0  0  0  0  0  0  0  0
    8.1658  -14.8462   22.4245 C   0  0  0  0  0  0  0  0  0  0  0  0
    9.3955  -14.6902   22.3359 O   0  0  0  0  0  0  0  0  0  0  0  0
    5.8613  -12.0603   26.7339 C   0  0  0  0  0  0  0  0  0  0  0  0
    6.9072  -12.4298   25.6990 C   0  0  1  0  0  0  0  0  0  0  0  0
    8.1125  -11.5518   25.9541 C   0  0  0  0  0  0  0  0  0  0  0  0
    7.2014  -13.8823   25.8719 C   0  0  0  0  0  0  0  0  0  0  0  0
    8.1964  -14.4388   24.9085 C   0  0  2  0  0  0  0  0  0  0  0  0
    7.4966  -14.7141   23.6526 N   0  0  0  0  0  0  0  0  0  0  0  0
    8.6251  -15.7755   25.4531 C   0  0  0  0  0  0  0  0  0  0  0  0
    7.7712  -16.6801   25.6938 O   0  0  0  0  0  0  0  0  0  0  0  0
   11.9405  -19.2866   25.9857 C   0  0  0  0  0  0  0  0  0  0  0  0
   11.6363  -17.8837   25.4985 C   0  0  1  0  0  0  0  0  0  0  0  0
   11.5806  -17.9272   24.1205 O   0  0  0  0  0  0  0  0  0  0  0  0
   10.3462  -17.4224   26.1322 C   0  0  2  0  0  0  0  0  0  0  0  0
    9.9756  -16.0935   25.7225 N   0  0  0  0  0  0  0  0  0  0  0  0
   10.3791  -17.4883   27.6006 C   0  0  0  0  0  0  0  0  0  0  0  0
   10.1385  -18.6693   28.2903 O   0  0  0  0  0  0  0  0  0  0  0  0
   10.6324  -16.4455   28.2528 O   0  0  0  0  0  0  0  0  0  0  0  0
  2  1  1  0
  3  2  1  0
  3  4  1  6
  5 12  1  0
  5  3  1  0
  6  5  2  0
  8  7  1  1
  8 10  1  0
  9  8  1  0
 11 10  1  1
 11 12  1  0
 13 11  1  0
 13 19  1  0
 14 13  2  0
 16 15  1  1
 17 16  1  0
 18 19  1  1
 18 16  1  0
 20 18  1  0
 21 20  1  0
 22 20  2  0
M  END
$$$$
