SLT.pdb
     RDKit          3D

 22 21  0  0  1  0  0  0  0  0999 V2000
    7.6576  -17.0147   21.3071 O   0  0  0  0  0  0  0  0  0  0  0  0
    6.6801  -16.0606   21.0821 C   0  0  0  0  0  0  0  0  0  0  0  0
    7.2429  -14.6600   21.2005 C   0  0  2  0  0  0  0  0  0  0  0  0
    8.0069  -14.3271   20.0125 N   0  0  0  0  0  0  0  0  0  0  0  0
    8.0431  -14.4941   22.4381 C   0  0  0  0  0  0  0  0  0  0  0  0
    9.2812  -14.4403   22.3463 O   0  0  0  0  0  0  0  0  0  0  0  0
    5.9766  -12.0138   27.0239 C   0  0  0  0  0  0  0  0  0  0  0  0
    6.9517  -12.3618   25.9151 C   0  0  1  0  0  0  0  0  0  0  0  0
    8.2023  -11.5441   26.1521 C   0  0  0  0  0  0  0  0  0  0  0  0
    7.1971  -13.8315   25.9922 C   0  0  0  0  0  0  0  0  0  0  0  0
    8.1228  -14.3673   24.9510 C   0  0  2  0  0  0  0  0  0  0  0  0
    7.3953  -14.4015   23.6812 N   0  0  0  0  0  0  0  0  0  0  0  0
    8.4005  -15.8015   25.3157 C   0  0  0  0  0  0  0  0  0  0  0  0
    7.4578  -16.6451   25.3870 O   0  0  0  0  0  0  0  0  0  0  0  0
   10.3604  -18.1911   23.5078 C   0  0  0  0  0  0  0  0  0  0  0  0
   10.9084  -18.3049   24.9166 C   0  0  1  0  0  0  0  0  0  0  0  0
   12.1445  -17.6917   24.9306 O   0  0  0  0  0  0  0  0  0  0  0  0
    9.9213  -17.6765   25.8702 C   0  0  2  0  0  0  0  0  0  0  0  0
    9.7004  -16.2814   25.5941 N   0  0  0  0  0  0  0  0  0  0  0  0
   10.3097  -17.8390   27.2788 C   0  0  0  0  0  0  0  0  0  0  0  0
   10.4548  -19.0904   27.8631 O   0  0  0  0  0  0  0  0  0  0  0  0
   10.5171  -16.8158   27.9767 O   0  0  0  0  0  0  0  0  0  0  0  0
  2  1  1  0
  3  2  1  0
  3  4  1  6
  5 12  1  0
  5  3  1  0
  6  5  2  0
  8  7  1  1
  8 10  1  0
  9  8  1  0
 11 10  1  1
 11 12  1  0
 13 11  1  0
 13 19  1  0
 14 13  2  0
 16 15  1  6
 17 16  1  0
 18 19  1  6
 18 16  1  0
 20 18  1  0
 21 20  1  0
 22 20  2  0
M  END
$$$$
