SLT.pdb
     RDKit          3D

 22 21  0  0  1  0  0  0  0  0999 V2000
    6.6183  -17.7008   19.9411 O   0  0  0  0  0  0  0  0  0  0  0  0
    7.5694  -17.3934   20.8989 C   0  0  0  0  0  0  0  0  0  0  0  0
    8.0363  -15.9590   20.7678 C   0  0  2  0  0  0  0  0  0  0  0  0
    9.0074  -15.8463   19.6955 N   0  0  0  0  0  0  0  0  0  0  0  0
    8.5648  -15.4356   22.0509 C   0  0  0  0  0  0  0  0  0  0  0  0
    9.7902  -15.4754   22.2528 O   0  0  0  0  0  0  0  0  0  0  0  0
    8.4854  -12.1651   26.1713 C   0  0  0  0  0  0  0  0  0  0  0  0
    7.2938  -13.0977   26.2787 C   0  0  1  0  0  0  0  0  0  0  0  0
    6.1448  -12.2864   26.8358 C   0  0  0  0  0  0  0  0  0  0  0  0
    7.0222  -13.6218   24.9084 C   0  0  0  0  0  0  0  0  0  0  0  0
    8.1257  -14.4363   24.3192 C   0  0  2  0  0  0  0  0  0  0  0  0
    7.6807  -14.9089   23.0072 N   0  0  0  0  0  0  0  0  0  0  0  0
    8.2670  -15.6619   25.1824 C   0  0  0  0  0  0  0  0  0  0  0  0
    7.2634  -16.3913   25.4397 O   0  0  0  0  0  0  0  0  0  0  0  0
   10.0295  -18.4828   24.2047 C   0  0  0  0  0  0  0  0  0  0  0  0
   10.5865  -18.2562   25.5962 C   0  0  1  0  0  0  0  0  0  0  0  0
   11.8492  -17.7182   25.4540 O   0  0  0  0  0  0  0  0  0  0  0  0
    9.6389  -17.3588   26.3547 C   0  0  2  0  0  0  0  0  0  0  0  0
    9.5003  -16.0629   25.7444 N   0  0  0  0  0  0  0  0  0  0  0  0
   10.0183  -17.1949   27.7656 C   0  0  0  0  0  0  0  0  0  0  0  0
   10.0766  -18.2704   28.6422 O   0  0  0  0  0  0  0  0  0  0  0  0
   10.2985  -16.0479   28.1930 O   0  0  0  0  0  0  0  0  0  0  0  0
  2  1  1  0
  3  2  1  0
  3  4  1  6
  5 12  1  0
  5  3  1  0
  6  5  2  0
  8  7  1  6
  8 10  1  0
  9  8  1  0
 11 10  1  1
 11 12  1  0
 13 11  1  0
 13 19  1  0
 14 13  2  0
 16 15  1  6
 17 16  1  0
 18 19  1  6
 18 16  1  0
 20 18  1  0
 21 20  1  0
 22 20  2  0
M  END
$$$$
