SLT.pdb
     RDKit          3D

 22 21  0  0  1  0  0  0  0  0999 V2000
    7.8948  -17.9118   21.2005 O   0  0  0  0  0  0  0  0  0  0  0  0
    7.0092  -16.9222   20.8098 C   0  0  0  0  0  0  0  0  0  0  0  0
    7.7022  -15.5812   20.6920 C   0  0  2  0  0  0  0  0  0  0  0  0
    8.6621  -15.6092   19.6042 N   0  0  0  0  0  0  0  0  0  0  0  0
    8.3287  -15.1741   21.9732 C   0  0  0  0  0  0  0  0  0  0  0  0
    9.5672  -15.2070   22.0695 O   0  0  0  0  0  0  0  0  0  0  0  0
    8.4404  -12.0231   26.2404 C   0  0  0  0  0  0  0  0  0  0  0  0
    7.3926  -13.1057   26.4181 C   0  0  1  0  0  0  0  0  0  0  0  0
    6.2369  -12.4845   27.1713 C   0  0  0  0  0  0  0  0  0  0  0  0
    7.0103  -13.5742   25.0541 C   0  0  0  0  0  0  0  0  0  0  0  0
    8.0722  -14.3360   24.3330 C   0  0  2  0  0  0  0  0  0  0  0  0
    7.5205  -14.7623   23.0459 N   0  0  0  0  0  0  0  0  0  0  0  0
    8.3150  -15.5939   25.1242 C   0  0  0  0  0  0  0  0  0  0  0  0
    7.3521  -16.3521   25.4456 O   0  0  0  0  0  0  0  0  0  0  0  0
   10.4289  -18.1630   23.8042 C   0  0  0  0  0  0  0  0  0  0  0  0
   10.8853  -18.0633   25.2463 C   0  0  1  0  0  0  0  0  0  0  0  0
   12.1094  -17.4263   25.2499 O   0  0  0  0  0  0  0  0  0  0  0  0
    9.8296  -17.3287   26.0365 C   0  0  2  0  0  0  0  0  0  0  0  0
    9.6030  -15.9948   25.5460 N   0  0  0  0  0  0  0  0  0  0  0  0
   10.1311  -17.2745   27.4745 C   0  0  0  0  0  0  0  0  0  0  0  0
   10.3513  -16.0735   28.1360 O   0  0  0  0  0  0  0  0  0  0  0  0
   10.1919  -18.3462   28.1261 O   0  0  0  0  0  0  0  0  0  0  0  0
  2  1  1  0
  3  2  1  0
  3  4  1  6
  5 12  1  0
  5  3  1  0
  6  5  2  0
  8  7  1  6
  8 10  1  0
  9  8  1  0
 11 10  1  1
 11 12  1  0
 13 11  1  0
 13 19  1  0
 14 13  2  0
 16 15  1  6
 17 16  1  0
 18 19  1  6
 18 16  1  0
 20 18  1  0
 21 20  1  0
 22 20  2  0
M  END
$$$$
