SLT.pdb
     RDKit          3D

 22 21  0  0  1  0  0  0  0  0999 V2000
    7.6596  -17.7846   21.0769 O   0  0  0  0  0  0  0  0  0  0  0  0
    6.9193  -16.7221   20.5876 C   0  0  0  0  0  0  0  0  0  0  0  0
    7.7499  -15.4578   20.5240 C   0  0  2  0  0  0  0  0  0  0  0  0
    8.7988  -15.5992   19.5313 N   0  0  0  0  0  0  0  0  0  0  0  0
    8.2925  -15.0914   21.8547 C   0  0  0  0  0  0  0  0  0  0  0  0
    9.5013  -15.2739   22.0778 O   0  0  0  0  0  0  0  0  0  0  0  0
    8.2187  -11.9823   26.1934 C   0  0  0  0  0  0  0  0  0  0  0  0
    7.0789  -12.9828   26.2270 C   0  0  1  0  0  0  0  0  0  0  0  0
    5.9024  -12.2924   26.8811 C   0  0  0  0  0  0  0  0  0  0  0  0
    6.8046  -13.3826   24.8159 C   0  0  0  0  0  0  0  0  0  0  0  0
    7.9187  -14.1150   24.1446 C   0  0  2  0  0  0  0  0  0  0  0  0
    7.4403  -14.5498   22.8313 N   0  0  0  0  0  0  0  0  0  0  0  0
    8.1547  -15.3695   24.9431 C   0  0  0  0  0  0  0  0  0  0  0  0
    7.2320  -16.2250   25.0917 O   0  0  0  0  0  0  0  0  0  0  0  0
   12.0078  -16.6921   25.0785 C   0  0  0  0  0  0  0  0  0  0  0  0
   10.7972  -17.6041   25.0482 C   0  0  1  0  0  0  0  0  0  0  0  0
   11.2108  -18.8545   25.4598 O   0  0  0  0  0  0  0  0  0  0  0  0
    9.7250  -17.0115   25.9300 C   0  0  2  0  0  0  0  0  0  0  0  0
    9.3921  -15.6610   25.5607 N   0  0  0  0  0  0  0  0  0  0  0  0
   10.0753  -17.0542   27.3573 C   0  0  0  0  0  0  0  0  0  0  0  0
   10.3308  -18.2489   28.0174 O   0  0  0  0  0  0  0  0  0  0  0  0
   10.1460  -15.9782   28.0008 O   0  0  0  0  0  0  0  0  0  0  0  0
  2  1  1  0
  3  2  1  0
  3  4  1  6
  5 12  1  0
  5  3  1  0
  6  5  2  0
  8  7  1  6
  8 10  1  0
  9  8  1  0
 11 10  1  1
 11 12  1  0
 13 11  1  0
 13 19  1  0
 14 13  2  0
 16 15  1  1
 17 16  1  0
 18 19  1  6
 18 16  1  0
 20 18  1  0
 21 20  1  0
 22 20  2  0
M  END
$$$$
