SLT.pdb
     RDKit          3D

 22 21  0  0  1  0  0  0  0  0999 V2000
    7.8564  -17.8042   21.6927 O   0  0  0  0  0  0  0  0  0  0  0  0
    8.7021  -17.2958   20.7218 C   0  0  0  0  0  0  0  0  0  0  0  0
    8.8475  -15.7944   20.8525 C   0  0  2  0  0  0  0  0  0  0  0  0
    9.8370  -15.3049   19.9108 N   0  0  0  0  0  0  0  0  0  0  0  0
    9.1626  -15.3938   22.2453 C   0  0  0  0  0  0  0  0  0  0  0  0
   10.3487  -15.4040   22.6159 O   0  0  0  0  0  0  0  0  0  0  0  0
    8.3192  -12.4676   26.5397 C   0  0  0  0  0  0  0  0  0  0  0  0
    7.1815  -13.4618   26.4044 C   0  0  1  0  0  0  0  0  0  0  0  0
    5.9191  -12.7533   26.8438 C   0  0  0  0  0  0  0  0  0  0  0  0
    7.1392  -13.8879   24.9751 C   0  0  0  0  0  0  0  0  0  0  0  0
    8.3677  -14.5852   24.4927 C   0  0  2  0  0  0  0  0  0  0  0  0
    8.1262  -15.0134   23.1139 N   0  0  0  0  0  0  0  0  0  0  0  0
    8.4986  -15.8444   25.3078 C   0  0  0  0  0  0  0  0  0  0  0  0
    7.5134  -16.6283   25.4502 O   0  0  0  0  0  0  0  0  0  0  0  0
   10.4411  -18.6140   24.4572 C   0  0  0  0  0  0  0  0  0  0  0  0
   10.8679  -18.3749   25.8920 C   0  0  1  0  0  0  0  0  0  0  0  0
   12.1197  -17.7953   25.8603 O   0  0  0  0  0  0  0  0  0  0  0  0
    9.8293  -17.5119   26.5666 C   0  0  2  0  0  0  0  0  0  0  0  0
    9.7016  -16.2187   25.9482 N   0  0  0  0  0  0  0  0  0  0  0  0
   10.0794  -17.3416   28.0054 C   0  0  0  0  0  0  0  0  0  0  0  0
   10.0646  -18.4142   28.8874 O   0  0  0  0  0  0  0  0  0  0  0  0
   10.3137  -16.1917   28.4522 O   0  0  0  0  0  0  0  0  0  0  0  0
  2  1  1  0
  3  2  1  0
  3  4  1  6
  5 12  1  0
  5  3  1  0
  6  5  2  0
  8  7  1  6
  8 10  1  0
  9  8  1  0
 11 10  1  1
 11 12  1  0
 13 11  1  0
 13 19  1  0
 14 13  2  0
 16 15  1  6
 17 16  1  0
 18 19  1  6
 18 16  1  0
 20 18  1  0
 21 20  1  0
 22 20  2  0
M  END
$$$$
