SLT.pdb
     RDKit          3D

 22 21  0  0  1  0  0  0  0  0999 V2000
    6.2137  -16.8616   19.8202 O   0  0  0  0  0  0  0  0  0  0  0  0
    6.7998  -16.5379   21.0319 C   0  0  0  0  0  0  0  0  0  0  0  0
    6.9745  -15.0407   21.1742 C   0  0  2  0  0  0  0  0  0  0  0  0
    7.4878  -14.4785   19.9389 N   0  0  0  0  0  0  0  0  0  0  0  0
    7.8293  -14.6971   22.3365 C   0  0  0  0  0  0  0  0  0  0  0  0
    9.0455  -14.5207   22.1520 O   0  0  0  0  0  0  0  0  0  0  0  0
    5.6819  -12.0125   26.6454 C   0  0  0  0  0  0  0  0  0  0  0  0
    6.6414  -12.3988   25.5357 C   0  0  1  0  0  0  0  0  0  0  0  0
    7.7317  -11.3504   25.5075 C   0  0  0  0  0  0  0  0  0  0  0  0
    7.1566  -13.7620   25.8561 C   0  0  0  0  0  0  0  0  0  0  0  0
    8.0545  -14.3518   24.8198 C   0  0  2  0  0  0  0  0  0  0  0  0
    7.2565  -14.5780   23.6136 N   0  0  0  0  0  0  0  0  0  0  0  0
    8.4563  -15.7139   25.3202 C   0  0  0  0  0  0  0  0  0  0  0  0
    7.5836  -16.6058   25.5402 O   0  0  0  0  0  0  0  0  0  0  0  0
   10.8776  -17.8851   23.6040 C   0  0  0  0  0  0  0  0  0  0  0  0
   11.2819  -17.9588   25.0632 C   0  0  1  0  0  0  0  0  0  0  0  0
   12.4501  -17.2385   25.2058 O   0  0  0  0  0  0  0  0  0  0  0  0
   10.1477  -17.4264   25.9051 C   0  0  2  0  0  0  0  0  0  0  0  0
    9.8011  -16.0708   25.5687 N   0  0  0  0  0  0  0  0  0  0  0  0
   10.4198  -17.5163   27.3472 C   0  0  0  0  0  0  0  0  0  0  0  0
   10.6673  -18.7296   27.9757 O   0  0  0  0  0  0  0  0  0  0  0  0
   10.4291  -16.4645   28.0332 O   0  0  0  0  0  0  0  0  0  0  0  0
  2  1  1  0
  3  2  1  0
  3  4  1  6
  5 12  1  0
  5  3  1  0
  6  5  2  0
  8  7  1  1
  8 10  1  0
  9  8  1  0
 11 10  1  1
 11 12  1  0
 13 11  1  0
 13 19  1  0
 14 13  2  0
 16 15  1  6
 17 16  1  0
 18 19  1  6
 18 16  1  0
 20 18  1  0
 21 20  1  0
 22 20  2  0
M  END
$$$$
