SLT.pdb
     RDKit          3D

 22 21  0  0  1  0  0  0  0  0999 V2000
    6.4660  -16.6550   19.5485 O   0  0  0  0  0  0  0  0  0  0  0  0
    7.2419  -16.3936   20.6648 C   0  0  0  0  0  0  0  0  0  0  0  0
    7.3546  -14.9052   20.9184 C   0  0  2  0  0  0  0  0  0  0  0  0
    7.9881  -14.2528   19.7876 N   0  0  0  0  0  0  0  0  0  0  0  0
    8.0611  -14.6183   22.1904 C   0  0  0  0  0  0  0  0  0  0  0  0
    9.2943  -14.4671   22.1679 O   0  0  0  0  0  0  0  0  0  0  0  0
    5.5880  -11.9999   26.4710 C   0  0  0  0  0  0  0  0  0  0  0  0
    6.7101  -12.3477   25.5112 C   0  0  1  0  0  0  0  0  0  0  0  0
    7.9083  -11.5144   25.9096 C   0  0  0  0  0  0  0  0  0  0  0  0
    6.9564  -13.8139   25.6373 C   0  0  0  0  0  0  0  0  0  0  0  0
    7.9747  -14.3613   24.6931 C   0  0  2  0  0  0  0  0  0  0  0  0
    7.3324  -14.5231   23.3877 N   0  0  0  0  0  0  0  0  0  0  0  0
    8.3078  -15.7491   25.1732 C   0  0  0  0  0  0  0  0  0  0  0  0
    7.4137  -16.6447   25.2339 O   0  0  0  0  0  0  0  0  0  0  0  0
   10.1509  -18.2053   23.5756 C   0  0  0  0  0  0  0  0  0  0  0  0
   10.8370  -18.1474   24.9261 C   0  0  1  0  0  0  0  0  0  0  0  0
   12.0205  -17.4577   24.7598 O   0  0  0  0  0  0  0  0  0  0  0  0
    9.9014  -17.4946   25.9146 C   0  0  2  0  0  0  0  0  0  0  0  0
    9.6090  -16.1268   25.5757 N   0  0  0  0  0  0  0  0  0  0  0  0
   10.3999  -17.5584   27.2963 C   0  0  0  0  0  0  0  0  0  0  0  0
   10.6191  -18.7665   27.9449 O   0  0  0  0  0  0  0  0  0  0  0  0
   10.6351  -16.4886   27.9103 O   0  0  0  0  0  0  0  0  0  0  0  0
  2  1  1  0
  3  2  1  0
  3  4  1  6
  5 12  1  0
  5  3  1  0
  6  5  2  0
  8  7  1  1
  8 10  1  0
  9  8  1  0
 11 10  1  1
 11 12  1  0
 13 11  1  0
 13 19  1  0
 14 13  2  0
 16 15  1  6
 17 16  1  0
 18 19  1  6
 18 16  1  0
 20 18  1  0
 21 20  1  0
 22 20  2  0
M  END
$$$$
