SLT.pdb
     RDKit          3D

 22 21  0  0  1  0  0  0  0  0999 V2000
    7.2127  -17.4864   20.9548 O   0  0  0  0  0  0  0  0  0  0  0  0
    6.2511  -16.5444   20.6316 C   0  0  0  0  0  0  0  0  0  0  0  0
    6.8682  -15.1758   20.4349 C   0  0  2  0  0  0  0  0  0  0  0  0
    7.6317  -15.1453   19.2013 N   0  0  0  0  0  0  0  0  0  0  0  0
    7.6871  -14.7711   21.6033 C   0  0  0  0  0  0  0  0  0  0  0  0
    8.9254  -14.8181   21.5099 O   0  0  0  0  0  0  0  0  0  0  0  0
    6.5204  -11.4502   26.5463 C   0  0  0  0  0  0  0  0  0  0  0  0
    7.5204  -12.4471   25.9918 C   0  0  1  0  0  0  0  0  0  0  0  0
    7.8447  -13.4165   27.1070 C   0  0  0  0  0  0  0  0  0  0  0  0
    6.8767  -13.1077   24.8189 C   0  0  0  0  0  0  0  0  0  0  0  0
    7.8026  -13.9096   23.9658 C   0  0  2  0  0  0  0  0  0  0  0  0
    7.0565  -14.3458   22.7843 N   0  0  0  0  0  0  0  0  0  0  0  0
    8.1320  -15.1583   24.7401 C   0  0  0  0  0  0  0  0  0  0  0  0
    7.2167  -15.9581   25.0978 O   0  0  0  0  0  0  0  0  0  0  0  0
   10.2496  -17.6662   23.3538 C   0  0  0  0  0  0  0  0  0  0  0  0
   10.7812  -17.5376   24.7677 C   0  0  1  0  0  0  0  0  0  0  0  0
   11.9867  -16.8699   24.6975 O   0  0  0  0  0  0  0  0  0  0  0  0
    9.7513  -16.8204   25.6066 C   0  0  2  0  0  0  0  0  0  0  0  0
    9.4525  -15.5046   25.1059 N   0  0  0  0  0  0  0  0  0  0  0  0
   10.1366  -16.7273   27.0224 C   0  0  0  0  0  0  0  0  0  0  0  0
   10.2677  -17.8526   27.8254 O   0  0  0  0  0  0  0  0  0  0  0  0
   10.3541  -15.5962   27.5226 O   0  0  0  0  0  0  0  0  0  0  0  0
  2  1  1  0
  3  2  1  0
  3  4  1  6
  5 12  1  0
  5  3  1  0
  6  5  2  0
  8  7  1  1
  8 10  1  0
  9  8  1  0
 11 10  1  1
 11 12  1  0
 13 11  1  0
 13 19  1  0
 14 13  2  0
 16 15  1  6
 17 16  1  0
 18 19  1  6
 18 16  1  0
 20 18  1  0
 21 20  1  0
 22 20  2  0
M  END
$$$$
