SLT.pdb
     RDKit          3D

 22 21  0  0  1  0  0  0  0  0999 V2000
    7.7032  -18.9032   22.6767 O   0  0  0  0  0  0  0  0  0  0  0  0
    6.6099  -18.1060   22.3841 C   0  0  0  0  0  0  0  0  0  0  0  0
    7.0410  -16.7718   21.8129 C   0  0  2  0  0  0  0  0  0  0  0  0
    7.7530  -16.9701   20.5641 N   0  0  0  0  0  0  0  0  0  0  0  0
    7.8404  -15.9911   22.7881 C   0  0  0  0  0  0  0  0  0  0  0  0
    9.0662  -15.8898   22.6108 O   0  0  0  0  0  0  0  0  0  0  0  0
    6.2501  -11.7541   26.8549 C   0  0  0  0  0  0  0  0  0  0  0  0
    7.4330  -12.5126   26.2833 C   0  0  1  0  0  0  0  0  0  0  0  0
    8.2886  -12.9464   27.4531 C   0  0  0  0  0  0  0  0  0  0  0  0
    6.8833  -13.6637   25.5093 C   0  0  0  0  0  0  0  0  0  0  0  0
    7.9077  -14.4963   24.8125 C   0  0  2  0  0  0  0  0  0  0  0  0
    7.2057  -15.3850   23.8850 N   0  0  0  0  0  0  0  0  0  0  0  0
    8.5278  -15.3843   25.8584 C   0  0  0  0  0  0  0  0  0  0  0  0
    7.8025  -16.0924   26.6186 O   0  0  0  0  0  0  0  0  0  0  0  0
   11.4808  -17.6261   24.9279 C   0  0  0  0  0  0  0  0  0  0  0  0
   11.7615  -17.0818   26.3146 C   0  0  1  0  0  0  0  0  0  0  0  0
   12.7653  -16.1426   26.1952 O   0  0  0  0  0  0  0  0  0  0  0  0
   10.4808  -16.5158   26.8788 C   0  0  2  0  0  0  0  0  0  0  0  0
    9.9249  -15.4788   26.0502 N   0  0  0  0  0  0  0  0  0  0  0  0
   10.6383  -16.0116   28.2508 C   0  0  0  0  0  0  0  0  0  0  0  0
   10.9820  -16.8452   29.3069 O   0  0  0  0  0  0  0  0  0  0  0  0
   10.4569  -14.7896   28.4765 O   0  0  0  0  0  0  0  0  0  0  0  0
  2  1  1  0
  3  2  1  0
  3  4  1  6
  5 12  1  0
  5  3  1  0
  6  5  2  0
  8  7  1  1
  8 10  1  0
  9  8  1  0
 11 10  1  1
 11 12  1  0
 13 11  1  0
 13 19  1  0
 14 13  2  0
 16 15  1  6
 17 16  1  0
 18 19  1  6
 18 16  1  0
 20 18  1  0
 21 20  1  0
 22 20  2  0
M  END
$$$$
