SLT.pdb
     RDKit          3D

 22 21  0  0  1  0  0  0  0  0999 V2000
    8.7394  -18.4525   20.8461 O   0  0  0  0  0  0  0  0  0  0  0  0
    7.9532  -17.5692   21.5659 C   0  0  0  0  0  0  0  0  0  0  0  0
    8.3357  -16.1331   21.2765 C   0  0  2  0  0  0  0  0  0  0  0  0
    9.3395  -16.0852   20.2298 N   0  0  0  0  0  0  0  0  0  0  0  0
    8.7799  -15.4270   22.5027 C   0  0  0  0  0  0  0  0  0  0  0  0
    9.9969  -15.2525   22.6838 O   0  0  0  0  0  0  0  0  0  0  0  0
    8.2090  -11.9401   26.3990 C   0  0  0  0  0  0  0  0  0  0  0  0
    7.1771  -13.0361   26.5866 C   0  0  1  0  0  0  0  0  0  0  0  0
    5.9189  -12.3760   27.1062 C   0  0  0  0  0  0  0  0  0  0  0  0
    6.9832  -13.6879   25.2585 C   0  0  0  0  0  0  0  0  0  0  0  0
    8.1983  -14.3554   24.7050 C   0  0  2  0  0  0  0  0  0  0  0  0
    7.8279  -14.9715   23.4299 N   0  0  0  0  0  0  0  0  0  0  0  0
    8.5325  -15.4885   25.6387 C   0  0  0  0  0  0  0  0  0  0  0  0
    7.6876  -16.4025   25.8753 O   0  0  0  0  0  0  0  0  0  0  0  0
   10.9262  -17.9137   24.9770 C   0  0  0  0  0  0  0  0  0  0  0  0
   11.2948  -17.5236   26.3948 C   0  0  1  0  0  0  0  0  0  0  0  0
   12.4413  -16.7586   26.3286 O   0  0  0  0  0  0  0  0  0  0  0  0
   10.1271  -16.7938   27.0131 C   0  0  2  0  0  0  0  0  0  0  0  0
    9.7810  -15.5974   26.2922 N   0  0  0  0  0  0  0  0  0  0  0  0
   10.3487  -16.4631   28.4284 C   0  0  0  0  0  0  0  0  0  0  0  0
   10.5324  -17.4442   29.3939 O   0  0  0  0  0  0  0  0  0  0  0  0
   10.3730  -15.2569   28.7768 O   0  0  0  0  0  0  0  0  0  0  0  0
  2  1  1  0
  3  2  1  0
  3  4  1  6
  5 12  1  0
  5  3  1  0
  6  5  2  0
  8  7  1  6
  8 10  1  0
  9  8  1  0
 11 10  1  1
 11 12  1  0
 13 11  1  0
 13 19  1  0
 14 13  2  0
 16 15  1  6
 17 16  1  0
 18 19  1  6
 18 16  1  0
 20 18  1  0
 21 20  1  0
 22 20  2  0
M  END
$$$$
