SLT.pdb
     RDKit          3D

 22 21  0  0  1  0  0  0  0  0999 V2000
    8.5461  -17.9942   21.5852 O   0  0  0  0  0  0  0  0  0  0  0  0
    7.7550  -17.1216   20.8577 C   0  0  0  0  0  0  0  0  0  0  0  0
    8.3953  -15.7532   20.7590 C   0  0  2  0  0  0  0  0  0  0  0  0
    9.4894  -15.7816   19.8062 N   0  0  0  0  0  0  0  0  0  0  0  0
    8.8297  -15.2547   22.0865 C   0  0  0  0  0  0  0  0  0  0  0  0
   10.0440  -15.2384   22.3504 O   0  0  0  0  0  0  0  0  0  0  0  0
    8.4086  -12.1899   26.3450 C   0  0  0  0  0  0  0  0  0  0  0  0
    7.2209  -13.1331   26.3126 C   0  0  1  0  0  0  0  0  0  0  0  0
    6.0237  -12.3555   26.8135 C   0  0  0  0  0  0  0  0  0  0  0  0
    7.0642  -13.5927   24.9018 C   0  0  0  0  0  0  0  0  0  0  0  0
    8.2257  -14.3577   24.3597 C   0  0  2  0  0  0  0  0  0  0  0  0
    7.8717  -14.8137   23.0145 N   0  0  0  0  0  0  0  0  0  0  0  0
    8.3584  -15.5980   25.2032 C   0  0  0  0  0  0  0  0  0  0  0  0
    7.3791  -16.3883   25.3501 O   0  0  0  0  0  0  0  0  0  0  0  0
   10.2394  -18.3208   24.3294 C   0  0  0  0  0  0  0  0  0  0  0  0
   10.7156  -18.1044   25.7523 C   0  0  1  0  0  0  0  0  0  0  0  0
   11.9701  -17.5336   25.6865 O   0  0  0  0  0  0  0  0  0  0  0  0
    9.7067  -17.2431   26.4726 C   0  0  2  0  0  0  0  0  0  0  0  0
    9.5568  -15.9465   25.8665 N   0  0  0  0  0  0  0  0  0  0  0  0
   10.0149  -17.0808   27.9009 C   0  0  0  0  0  0  0  0  0  0  0  0
   10.0520  -18.1604   28.7736 O   0  0  0  0  0  0  0  0  0  0  0  0
   10.2522  -15.9313   28.3473 O   0  0  0  0  0  0  0  0  0  0  0  0
  2  1  1  0
  3  2  1  0
  3  4  1  6
  5 12  1  0
  5  3  1  0
  6  5  2  0
  8  7  1  6
  8 10  1  0
  9  8  1  0
 11 10  1  1
 11 12  1  0
 13 11  1  0
 13 19  1  0
 14 13  2  0
 16 15  1  6
 17 16  1  0
 18 19  1  6
 18 16  1  0
 20 18  1  0
 21 20  1  0
 22 20  2  0
M  END
$$$$
