LCM.pdb
     RDKit          3D

 23 22  0  0  1  0  0  0  0  0999 V2000
   26.4395  -18.6727  -18.8971 C   0  0  0  0  0  0  0  0  0  0  0  0
   26.3295  -17.6941  -17.7430 C   0  0  2  0  0  0  0  0  0  0  0  0
   27.6070  -16.8670  -17.7137 C   0  0  0  0  0  0  0  0  0  0  0  0
   26.1376  -18.3917  -16.4261 C   0  0  0  0  0  0  0  0  0  0  0  0
   26.0719  -17.3895  -15.3149 C   0  0  2  0  0  0  0  0  0  0  0  0
   25.8992  -18.1010  -14.0635 N   0  0  0  0  0  0  0  0  0  0  0  0
   25.0096  -16.3795  -15.5272 C   0  0  0  0  0  0  0  0  0  0  0  0
   23.7971  -16.7392  -15.5240 O   0  0  0  0  0  0  0  0  0  0  0  0
   25.2487  -14.9945  -15.7414 N   0  0  0  0  0  0  0  0  0  0  0  0
   24.2026  -14.0164  -15.9307 C   0  0  1  0  0  0  0  0  0  0  0  0
   23.9732  -13.2402  -14.6748 C   0  0  0  0  0  0  0  0  0  0  0  0
   22.7617  -11.9109  -14.9076 S   0  0  0  0  0  0  0  0  0  0  0  0
   24.3728  -13.2052  -17.1317 C   0  0  0  0  0  0  0  0  0  0  0  0
   25.5327  -12.7373  -17.3824 O   0  0  0  0  0  0  0  0  0  0  0  0
   20.6125  -11.3754  -22.9606 C   0  0  0  0  0  0  0  0  0  0  0  0
   22.1538  -12.3405  -23.0716 S   0  0  0  0  0  0  0  0  0  0  0  0
   23.2028  -11.7728  -21.6745 C   0  0  0  0  0  0  0  0  0  0  0  0
   22.8208  -12.5187  -20.4299 C   0  0  0  0  0  0  0  0  0  0  0  0
   23.5847  -12.0759  -19.2607 C   0  0  2  0  0  0  0  0  0  0  0  0
   23.3603  -12.8801  -18.0630 N   0  0  0  0  0  0  0  0  0  0  0  0
   23.4965  -10.6437  -18.9809 C   0  0  0  0  0  0  0  0  0  0  0  0
   24.2094   -9.7961  -19.5213 O   0  0  0  0  0  0  0  0  0  0  0  0
   22.5585  -10.1542  -18.0476 O   0  0  0  0  0  0  0  0  0  0  0  0
  2  1  1  6
  2  3  1  0
  4  2  1  0
  5  6  1  1
  5  4  1  0
  7  5  1  0
  8  7  2  0
  9  7  1  0
 10 13  1  0
 10  9  1  0
 10 11  1  1
 12 11  1  0
 13 20  1  0
 14 13  2  0
 15 16  1  0
 16 17  1  0
 19 18  1  6
 18 17  1  0
 19 21  1  0
 20 19  1  0
 21 22  2  0
 21 23  1  0
M  END
$$$$
