LCM.pdb
     RDKit          3D

 23 22  0  0  1  0  0  0  0  0999 V2000
   31.6323  -27.0743  -18.9263 C   0  0  0  0  0  0  0  0  0  0  0  0
   31.2726  -25.6249  -19.1942 C   0  0  2  0  0  0  0  0  0  0  0  0
   32.0522  -25.1733  -20.4211 C   0  0  0  0  0  0  0  0  0  0  0  0
   31.5931  -24.7371  -18.0251 C   0  0  0  0  0  0  0  0  0  0  0  0
   30.3343  -24.1620  -17.4523 C   0  0  2  0  0  0  0  0  0  0  0  0
   30.6918  -23.1146  -16.5156 N   0  0  0  0  0  0  0  0  0  0  0  0
   29.4758  -25.1936  -16.8260 C   0  0  0  0  0  0  0  0  0  0  0  0
   29.8949  -25.8224  -15.8117 O   0  0  0  0  0  0  0  0  0  0  0  0
   28.1778  -25.5466  -17.2861 N   0  0  0  0  0  0  0  0  0  0  0  0
   27.3143  -26.4904  -16.6150 C   0  0  1  0  0  0  0  0  0  0  0  0
   25.9554  -25.9054  -16.4061 C   0  0  0  0  0  0  0  0  0  0  0  0
   25.6124  -24.5508  -17.5620 S   0  0  0  0  0  0  0  0  0  0  0  0
   27.3248  -27.8202  -17.2157 C   0  0  0  0  0  0  0  0  0  0  0  0
   27.5669  -27.9144  -18.4646 O   0  0  0  0  0  0  0  0  0  0  0  0
   29.4079  -33.9519  -15.2877 C   0  0  0  0  0  0  0  0  0  0  0  0
   27.6725  -34.1343  -15.8118 S   0  0  0  0  0  0  0  0  0  0  0  0
   27.3675  -32.7811  -17.0162 C   0  0  0  0  0  0  0  0  0  0  0  0
   27.3321  -31.4679  -16.2913 C   0  0  0  0  0  0  0  0  0  0  0  0
   27.0705  -30.3429  -17.1928 C   0  0  2  0  0  0  0  0  0  0  0  0
   27.0889  -29.0381  -16.5381 N   0  0  0  0  0  0  0  0  0  0  0  0
   25.8973  -30.5074  -18.0493 C   0  0  0  0  0  0  0  0  0  0  0  0
   25.8317  -31.3239  -18.9701 O   0  0  0  0  0  0  0  0  0  0  0  0
   24.7501  -29.7104  -17.8510 O   0  0  0  0  0  0  0  0  0  0  0  0
  2  1  1  1
  2  3  1  0
  4  2  1  0
  5  6  1  1
  5  4  1  0
  7  5  1  0
  8  7  2  0
  9  7  1  0
 10 13  1  0
 10  9  1  0
 10 11  1  6
 12 11  1  0
 13 20  1  0
 14 13  2  0
 15 16  1  0
 16 17  1  0
 19 18  1  1
 18 17  1  0
 19 21  1  0
 20 19  1  0
 21 22  2  0
 21 23  1  0
M  END
$$$$
