LCM.pdb
     RDKit          3D

 23 22  0  0  1  0  0  0  0  0999 V2000
   25.1650  -25.4689  -18.9937 C   0  0  0  0  0  0  0  0  0  0  0  0
   25.5472  -26.3658  -17.8312 C   0  0  2  0  0  0  0  0  0  0  0  0
   25.1175  -27.7839  -18.1795 C   0  0  0  0  0  0  0  0  0  0  0  0
   24.9001  -25.9328  -16.5461 C   0  0  0  0  0  0  0  0  0  0  0  0
   25.4326  -24.5983  -16.1232 C   0  0  2  0  0  0  0  0  0  0  0  0
   26.8196  -24.7593  -15.7328 N   0  0  0  0  0  0  0  0  0  0  0  0
   24.6236  -23.9826  -15.0462 C   0  0  0  0  0  0  0  0  0  0  0  0
   24.7571  -24.3885  -13.8558 O   0  0  0  0  0  0  0  0  0  0  0  0
   23.6786  -22.9395  -15.2471 N   0  0  0  0  0  0  0  0  0  0  0  0
   22.9058  -22.3374  -14.1855 C   0  0  1  0  0  0  0  0  0  0  0  0
   22.9080  -20.8486  -14.3111 C   0  0  0  0  0  0  0  0  0  0  0  0
   21.9743  -20.0512  -12.9765 S   0  0  0  0  0  0  0  0  0  0  0  0
   21.5868  -22.9370  -14.0116 C   0  0  0  0  0  0  0  0  0  0  0  0
   20.8087  -22.9826  -15.0214 O   0  0  0  0  0  0  0  0  0  0  0  0
   16.5379  -27.4822  -10.0538 C   0  0  0  0  0  0  0  0  0  0  0  0
   18.1394  -26.6193   -9.9537 S   0  0  0  0  0  0  0  0  0  0  0  0
   18.2202  -25.5382  -11.4368 C   0  0  0  0  0  0  0  0  0  0  0  0
   19.5170  -24.7835  -11.4327 C   0  0  0  0  0  0  0  0  0  0  0  0
   19.7373  -24.0515  -12.6827 C   0  0  2  0  0  0  0  0  0  0  0  0
   21.0759  -23.4832  -12.8122 N   0  0  0  0  0  0  0  0  0  0  0  0
   18.6970  -23.0783  -13.0112 C   0  0  0  0  0  0  0  0  0  0  0  0
   18.6774  -21.9252  -12.5768 O   0  0  0  0  0  0  0  0  0  0  0  0
   17.6342  -23.4305  -13.8696 O   0  0  0  0  0  0  0  0  0  0  0  0
  2  1  1  6
  2  3  1  0
  4  2  1  0
  5  6  1  1
  5  4  1  0
  7  5  1  0
  8  7  2  0
  9  7  1  0
 10 13  1  0
 10  9  1  0
 10 11  1  6
 12 11  1  0
 13 20  1  0
 14 13  2  0
 15 16  1  0
 16 17  1  0
 19 18  1  1
 18 17  1  0
 19 21  1  0
 20 19  1  0
 21 22  2  0
 21 23  1  0
M  END
$$$$
