LCM.pdb
     RDKit          3D

 23 22  0  0  1  0  0  0  0  0999 V2000
   25.0066  -14.4862  -17.2063 C   0  0  0  0  0  0  0  0  0  0  0  0
   26.3628  -15.0657  -16.8504 C   0  0  2  0  0  0  0  0  0  0  0  0
   26.5005  -15.0256  -15.3350 C   0  0  0  0  0  0  0  0  0  0  0  0
   27.4890  -14.3037  -17.4899 C   0  0  0  0  0  0  0  0  0  0  0  0
   27.5932  -12.9351  -16.8904 C   0  0  2  0  0  0  0  0  0  0  0  0
   26.3162  -12.2664  -17.0460 N   0  0  0  0  0  0  0  0  0  0  0  0
   28.7039  -12.1467  -17.4719 C   0  0  0  0  0  0  0  0  0  0  0  0
   29.8445  -12.6774  -17.6021 O   0  0  0  0  0  0  0  0  0  0  0  0
   28.5897  -10.7988  -17.9097 N   0  0  0  0  0  0  0  0  0  0  0  0
   29.6597  -10.0648  -18.5447 C   0  0  1  0  0  0  0  0  0  0  0  0
   29.1980   -9.4717  -19.8360 C   0  0  0  0  0  0  0  0  0  0  0  0
   27.5172   -8.8016  -19.7151 S   0  0  0  0  0  0  0  0  0  0  0  0
   30.3400   -9.1342  -17.6499 C   0  0  0  0  0  0  0  0  0  0  0  0
   29.6295   -8.4440  -16.8461 O   0  0  0  0  0  0  0  0  0  0  0  0
   36.7298   -8.4815  -16.4030 C   0  0  0  0  0  0  0  0  0  0  0  0
   36.0069   -7.9808  -14.8073 S   0  0  0  0  0  0  0  0  0  0  0  0
   34.2762   -7.4859  -15.1741 C   0  0  0  0  0  0  0  0  0  0  0  0
   33.6967   -8.4205  -16.1948 C   0  0  0  0  0  0  0  0  0  0  0  0
   32.3714   -7.9928  -16.6503 C   0  0  2  0  0  0  0  0  0  0  0  0
   31.7352   -8.9175  -17.5839 N   0  0  0  0  0  0  0  0  0  0  0  0
   32.3048   -6.6102  -17.1207 C   0  0  0  0  0  0  0  0  0  0  0  0
   32.3852   -6.2868  -18.3071 O   0  0  0  0  0  0  0  0  0  0  0  0
   32.1401   -5.5505  -16.2040 O   0  0  0  0  0  0  0  0  0  0  0  0
  2  1  1  1
  2  3  1  0
  4  2  1  0
  5  6  1  6
  5  4  1  0
  7  5  1  0
  8  7  2  0
  9  7  1  0
 10 13  1  0
 10  9  1  0
 10 11  1  6
 12 11  1  0
 13 20  1  0
 14 13  2  0
 15 16  1  0
 16 17  1  0
 19 18  1  6
 18 17  1  0
 19 21  1  0
 20 19  1  0
 21 22  2  0
 21 23  1  0
M  END
$$$$
