LCM.pdb
     RDKit          3D

 23 22  0  0  1  0  0  0  0  0999 V2000
   17.4976  -25.3542  -14.4695 C   0  0  0  0  0  0  0  0  0  0  0  0
   19.0119  -25.2643  -14.4405 C   0  0  2  0  0  0  0  0  0  0  0  0
   19.5591  -26.3772  -15.3231 C   0  0  0  0  0  0  0  0  0  0  0  0
   19.5598  -25.3955  -13.0476 C   0  0  0  0  0  0  0  0  0  0  0  0
   19.0103  -24.3118  -12.1717 C   0  0  2  0  0  0  0  0  0  0  0  0
   19.5347  -23.0400  -12.6298 N   0  0  0  0  0  0  0  0  0  0  0  0
   19.2987  -24.5438  -10.7377 C   0  0  0  0  0  0  0  0  0  0  0  0
   19.6822  -25.6868  -10.3552 O   0  0  0  0  0  0  0  0  0  0  0  0
   19.1757  -23.5556   -9.7230 N   0  0  0  0  0  0  0  0  0  0  0  0
   19.4765  -23.7899   -8.3296 C   0  0  1  0  0  0  0  0  0  0  0  0
   19.8799  -22.5186   -7.6564 C   0  0  0  0  0  0  0  0  0  0  0  0
   19.8670  -21.1097   -8.7983 S   0  0  0  0  0  0  0  0  0  0  0  0
   18.4486  -24.5551   -7.6315 C   0  0  0  0  0  0  0  0  0  0  0  0
   17.2842  -24.6112   -8.1496 O   0  0  0  0  0  0  0  0  0  0  0  0
   19.1030  -27.1806   -1.8684 C   0  0  0  0  0  0  0  0  0  0  0  0
   17.3927  -27.7777   -2.0633 S   0  0  0  0  0  0  0  0  0  0  0  0
   16.7891  -27.0631   -3.6444 C   0  0  0  0  0  0  0  0  0  0  0  0
   17.9229  -26.3725   -4.3436 C   0  0  0  0  0  0  0  0  0  0  0  0
   17.5146  -25.7951   -5.6268 C   0  0  2  0  0  0  0  0  0  0  0  0
   18.6182  -25.2542   -6.4147 N   0  0  0  0  0  0  0  0  0  0  0  0
   16.3924  -24.8617   -5.5463 C   0  0  0  0  0  0  0  0  0  0  0  0
   15.2209  -25.1807   -5.7573 O   0  0  0  0  0  0  0  0  0  0  0  0
   16.6108  -23.5085   -5.2122 O   0  0  0  0  0  0  0  0  0  0  0  0
  2  1  1  1
  2  3  1  0
  4  2  1  0
  5  6  1  6
  5  4  1  0
  7  5  1  0
  8  7  2  0
  9  7  1  0
 10 13  1  0
 10  9  1  0
 10 11  1  1
 12 11  1  0
 13 20  1  0
 14 13  2  0
 15 16  1  0
 16 17  1  0
 19 18  1  1
 18 17  1  0
 19 21  1  0
 20 19  1  0
 21 22  2  0
 21 23  1  0
M  END
$$$$
