LCM.pdb
     RDKit          3D

 23 22  0  0  1  0  0  0  0  0999 V2000
   20.8054  -12.6261  -19.2103 C   0  0  0  0  0  0  0  0  0  0  0  0
   19.3243  -12.3897  -18.9812 C   0  0  2  0  0  0  0  0  0  0  0  0
   18.6320  -12.4407  -20.3358 C   0  0  0  0  0  0  0  0  0  0  0  0
   19.0586  -11.0684  -18.3167 C   0  0  0  0  0  0  0  0  0  0  0  0
   19.7313  -11.0177  -16.9795 C   0  0  2  0  0  0  0  0  0  0  0  0
   19.2361  -12.1166  -16.1735 N   0  0  0  0  0  0  0  0  0  0  0  0
   19.5493   -9.7120  -16.3046 C   0  0  0  0  0  0  0  0  0  0  0  0
   19.7139   -8.6427  -16.9597 O   0  0  0  0  0  0  0  0  0  0  0  0
   19.1936   -9.5568  -14.9368 N   0  0  0  0  0  0  0  0  0  0  0  0
   19.0332   -8.2769  -14.2865 C   0  0  1  0  0  0  0  0  0  0  0  0
   18.2677   -8.4257  -13.0120 C   0  0  0  0  0  0  0  0  0  0  0  0
   16.7478   -9.3885  -13.2390 S   0  0  0  0  0  0  0  0  0  0  0  0
   20.2760   -7.5209  -14.1718 C   0  0  0  0  0  0  0  0  0  0  0  0
   21.3504   -8.1630  -13.9255 O   0  0  0  0  0  0  0  0  0  0  0  0
   26.1480   -5.0038  -17.5148 C   0  0  0  0  0  0  0  0  0  0  0  0
   24.5823   -5.9242  -17.3704 S   0  0  0  0  0  0  0  0  0  0  0  0
   23.7387   -5.2491  -15.8848 C   0  0  0  0  0  0  0  0  0  0  0  0
   22.4600   -5.9995  -15.6542 C   0  0  0  0  0  0  0  0  0  0  0  0
   21.6833   -5.4446  -14.5427 C   0  0  2  0  0  0  0  0  0  0  0  0
   20.4104   -6.1205  -14.3095 N   0  0  0  0  0  0  0  0  0  0  0  0
   21.5324   -3.9908  -14.5698 C   0  0  0  0  0  0  0  0  0  0  0  0
   20.4825   -3.4176  -14.8662 O   0  0  0  0  0  0  0  0  0  0  0  0
   22.6206   -3.1530  -14.2465 O   0  0  0  0  0  0  0  0  0  0  0  0
  2  1  1  6
  2  3  1  0
  4  2  1  0
  5  6  1  1
  5  4  1  0
  7  5  1  0
  8  7  2  0
  9  7  1  0
 10 13  1  0
 10  9  1  0
 10 11  1  1
 12 11  1  0
 13 20  1  0
 14 13  2  0
 15 16  1  0
 16 17  1  0
 19 18  1  6
 18 17  1  0
 19 21  1  0
 20 19  1  0
 21 22  2  0
 21 23  1  0
M  END
$$$$
