LCM.pdb
     RDKit          3D

 23 22  0  0  1  0  0  0  0  0999 V2000
   29.0780  -17.3706  -16.0940 C   0  0  0  0  0  0  0  0  0  0  0  0
   27.5729  -17.3112  -16.2757 C   0  0  2  0  0  0  0  0  0  0  0  0
   27.2353  -15.9685  -16.9084 C   0  0  0  0  0  0  0  0  0  0  0  0
   26.8394  -17.4655  -14.9734 C   0  0  0  0  0  0  0  0  0  0  0  0
   27.3084  -18.6953  -14.2585 C   0  0  2  0  0  0  0  0  0  0  0  0
   27.1307  -19.8343  -15.1378 N   0  0  0  0  0  0  0  0  0  0  0  0
   26.6247  -18.8887  -12.9591 C   0  0  0  0  0  0  0  0  0  0  0  0
   26.2800  -17.8796  -12.2790 O   0  0  0  0  0  0  0  0  0  0  0  0
   26.3142  -20.1564  -12.3951 N   0  0  0  0  0  0  0  0  0  0  0  0
   25.6349  -20.3316  -11.1323 C   0  0  1  0  0  0  0  0  0  0  0  0
   24.3369  -21.0455  -11.3267 C   0  0  0  0  0  0  0  0  0  0  0  0
   23.8385  -21.0896  -13.0698 S   0  0  0  0  0  0  0  0  0  0  0  0
   26.4869  -20.8812  -10.0828 C   0  0  0  0  0  0  0  0  0  0  0  0
   26.7222  -22.1349  -10.0936 O   0  0  0  0  0  0  0  0  0  0  0  0
   29.6765  -20.3514   -5.5875 C   0  0  0  0  0  0  0  0  0  0  0  0
   28.5009  -19.5872   -4.4241 S   0  0  0  0  0  0  0  0  0  0  0  0
   26.8930  -19.5165   -5.3099 C   0  0  0  0  0  0  0  0  0  0  0  0
   27.1366  -19.2250   -6.7614 C   0  0  0  0  0  0  0  0  0  0  0  0
   26.7989  -20.3628   -7.6205 C   0  0  2  0  0  0  0  0  0  0  0  0
   27.0894  -20.1481   -9.0351 N   0  0  0  0  0  0  0  0  0  0  0  0
   25.4571  -20.9053   -7.4150 C   0  0  0  0  0  0  0  0  0  0  0  0
   25.2303  -21.9654   -6.8288 O   0  0  0  0  0  0  0  0  0  0  0  0
   24.3252  -20.2141   -7.8961 O   0  0  0  0  0  0  0  0  0  0  0  0
  2  1  1  1
  2  3  1  0
  4  2  1  0
  5  6  1  6
  5  4  1  0
  7  5  1  0
  8  7  2  0
  9  7  1  0
 10 13  1  0
 10  9  1  0
 10 11  1  6
 12 11  1  0
 13 20  1  0
 14 13  2  0
 15 16  1  0
 16 17  1  0
 19 18  1  1
 18 17  1  0
 19 21  1  0
 20 19  1  0
 21 22  2  0
 21 23  1  0
M  END
$$$$
