LCM.pdb
     RDKit          3D

 23 22  0  0  1  0  0  0  0  0999 V2000
   14.2258  -10.3362  -15.9452 C   0  0  0  0  0  0  0  0  0  0  0  0
   15.7364  -10.2126  -16.0141 C   0  0  2  0  0  0  0  0  0  0  0  0
   16.2177  -11.0592  -17.1840 C   0  0  0  0  0  0  0  0  0  0  0  0
   16.3996  -10.6653  -14.7440 C   0  0  0  0  0  0  0  0  0  0  0  0
   17.7425  -10.0172  -14.6026 C   0  0  2  0  0  0  0  0  0  0  0  0
   18.7638  -11.0234  -14.8193 N   0  0  0  0  0  0  0  0  0  0  0  0
   17.9065   -9.3359  -13.2979 C   0  0  0  0  0  0  0  0  0  0  0  0
   17.8685  -10.0137  -12.2308 O   0  0  0  0  0  0  0  0  0  0  0  0
   18.1095   -7.9374  -13.1414 N   0  0  0  0  0  0  0  0  0  0  0  0
   18.4097   -7.3034  -11.8786 C   0  0  1  0  0  0  0  0  0  0  0  0
   19.6162   -6.4306  -12.0007 C   0  0  0  0  0  0  0  0  0  0  0  0
   21.1264   -7.3928  -12.2873 S   0  0  0  0  0  0  0  0  0  0  0  0
   17.2532   -6.6688  -11.2548 C   0  0  0  0  0  0  0  0  0  0  0  0
   16.4582   -6.0033  -11.9981 O   0  0  0  0  0  0  0  0  0  0  0  0
   12.7232   -8.3869   -6.7977 C   0  0  0  0  0  0  0  0  0  0  0  0
   13.3852   -6.8401   -6.0988 S   0  0  0  0  0  0  0  0  0  0  0  0
   14.0782   -5.9040   -7.5195 C   0  0  0  0  0  0  0  0  0  0  0  0
   15.2496   -6.6521   -8.0849 C   0  0  0  0  0  0  0  0  0  0  0  0
   15.7797   -6.0204   -9.2959 C   0  0  2  0  0  0  0  0  0  0  0  0
   16.9196   -6.7192   -9.8821 N   0  0  0  0  0  0  0  0  0  0  0  0
   16.0220   -4.5835   -9.1784 C   0  0  0  0  0  0  0  0  0  0  0  0
   17.1256   -4.0939   -8.9314 O   0  0  0  0  0  0  0  0  0  0  0  0
   14.9654   -3.6642   -9.3487 O   0  0  0  0  0  0  0  0  0  0  0  0
  2  1  1  1
  2  3  1  0
  4  2  1  0
  5  6  1  1
  5  4  1  0
  7  5  1  0
  8  7  2  0
  9  7  1  0
 10 13  1  0
 10  9  1  0
 10 11  1  6
 12 11  1  0
 13 20  1  0
 14 13  2  0
 15 16  1  0
 16 17  1  0
 19 18  1  1
 18 17  1  0
 19 21  1  0
 20 19  1  0
 21 22  2  0
 21 23  1  0
M  END
$$$$
