LCM.pdb
     RDKit          3D

 23 22  0  0  1  0  0  0  0  0999 V2000
   22.0905  -19.3227  -17.3313 C   0  0  0  0  0  0  0  0  0  0  0  0
   23.2595  -18.3909  -17.0722 C   0  0  2  0  0  0  0  0  0  0  0  0
   23.4199  -17.4980  -18.2944 C   0  0  0  0  0  0  0  0  0  0  0  0
   24.5348  -19.1421  -16.8125 C   0  0  0  0  0  0  0  0  0  0  0  0
   24.3783  -20.0279  -15.6150 C   0  0  2  0  0  0  0  0  0  0  0  0
   23.5460  -19.3453  -14.6436 N   0  0  0  0  0  0  0  0  0  0  0  0
   25.6807  -20.4337  -15.0383 C   0  0  0  0  0  0  0  0  0  0  0  0
   26.5810  -20.8978  -15.7957 O   0  0  0  0  0  0  0  0  0  0  0  0
   26.0126  -20.3415  -13.6589 N   0  0  0  0  0  0  0  0  0  0  0  0
   27.2977  -20.7125  -13.1132 C   0  0  1  0  0  0  0  0  0  0  0  0
   28.2083  -19.5293  -13.0580 C   0  0  0  0  0  0  0  0  0  0  0  0
   29.7862  -19.9214  -12.2546 S   0  0  0  0  0  0  0  0  0  0  0  0
   27.2064  -21.4757  -11.8728 C   0  0  0  0  0  0  0  0  0  0  0  0
   28.2913  -21.8128  -11.2925 O   0  0  0  0  0  0  0  0  0  0  0  0
   28.5262  -20.0468   -6.4573 C   0  0  0  0  0  0  0  0  0  0  0  0
   27.3046  -18.9177   -7.2005 S   0  0  0  0  0  0  0  0  0  0  0  0
   26.0253  -19.9937   -7.9622 C   0  0  0  0  0  0  0  0  0  0  0  0
   26.4808  -20.4189   -9.3272 C   0  0  0  0  0  0  0  0  0  0  0  0
   25.5629  -21.3797   -9.9445 C   0  0  2  0  0  0  0  0  0  0  0  0
   26.0122  -21.8864  -11.2379 N   0  0  0  0  0  0  0  0  0  0  0  0
   24.1656  -20.9514   -9.9816 C   0  0  0  0  0  0  0  0  0  0  0  0
   23.6274  -20.4587  -10.9747 O   0  0  0  0  0  0  0  0  0  0  0  0
   23.3454  -21.0886   -8.8418 O   0  0  0  0  0  0  0  0  0  0  0  0
  2  1  1  6
  2  3  1  0
  4  2  1  0
  5  6  1  1
  5  4  1  0
  7  5  1  0
  8  7  2  0
  9  7  1  0
 10 13  1  0
 10  9  1  0
 10 11  1  1
 12 11  1  0
 13 20  1  0
 14 13  2  0
 15 16  1  0
 16 17  1  0
 19 18  1  6
 18 17  1  0
 19 21  1  0
 20 19  1  0
 21 22  2  0
 21 23  1  0
M  END
$$$$
