MFV.pdb
     RDKit          3D

 27 27  0  0  1  0  0  0  0  0999 V2000
    9.0447  -21.2864   22.3196 C   0  0  0  0  0  0  0  0  0  0  0  0
   10.1682  -20.8569   20.9656 S   0  0  0  0  0  0  0  0  0  0  0  0
    9.9579  -19.1055   20.5841 C   0  0  0  0  0  0  0  0  0  0  0  0
    8.4833  -18.7376   20.5005 C   0  0  0  0  0  0  0  0  0  0  0  0
    8.3726  -17.2862   20.0965 C   0  0  2  0  0  0  0  0  0  0  0  0
    9.1876  -16.9665   18.9568 N   0  0  0  0  0  0  0  0  0  0  0  0
    8.7256  -16.4033   21.2327 C   0  0  0  0  0  0  0  0  0  0  0  0
    9.8874  -15.9014   21.2514 O   0  0  0  0  0  0  0  0  0  0  0  0
    7.7946  -16.1215   22.2747 N   0  0  0  0  0  0  0  0  0  0  0  0
    8.1476  -15.2465   23.3615 C   0  0  1  0  0  0  0  0  0  0  0  0
    6.9264  -14.5595   23.8832 C   0  0  0  0  0  0  0  0  0  0  0  0
    7.1420  -13.6806   25.0315 C   0  0  0  0  0  0  0  0  0  0  0  0
    6.7860  -14.0558   26.3270 C   0  0  0  0  0  0  0  0  0  0  0  0
    6.9737  -13.2398   27.4156 C   0  0  0  0  0  0  0  0  0  0  0  0
    7.5313  -12.0118   27.2231 C   0  0  0  0  0  0  0  0  0  0  0  0
    7.8874  -11.6238   25.9629 C   0  0  0  0  0  0  0  0  0  0  0  0
    7.7029  -12.4395   24.8521 C   0  0  0  0  0  0  0  0  0  0  0  0
    8.8102  -16.0813   24.4124 C   0  0  0  0  0  0  0  0  0  0  0  0
    8.3041  -17.1416   24.8582 O   0  0  0  0  0  0  0  0  0  0  0  0
   12.6673  -16.8930   24.2498 C   0  0  0  0  0  0  0  0  0  0  0  0
   12.2911  -16.4978   25.6799 C   0  0  2  0  0  0  0  0  0  0  0  0
   12.9821  -17.4954   26.5866 C   0  0  0  0  0  0  0  0  0  0  0  0
   10.7946  -16.5989   25.8098 C   0  0  2  0  0  0  0  0  0  0  0  0
   10.0730  -15.7085   24.9709 N   0  0  0  0  0  0  0  0  0  0  0  0
   10.3393  -16.4451   27.2072 C   0  0  0  0  0  0  0  0  0  0  0  0
    9.7367  -15.2986   27.6970 O   0  0  0  0  0  0  0  0  0  0  0  0
   10.5041  -17.3999   27.9979 O   0  0  0  0  0  0  0  0  0  0  0  0
  2  3  1  0
  2  1  1  0
  3  4  1  0
  4  5  1  0
  5  6  1  6
  7  5  1  0
  7  8  2  0
  9  7  1  0
 10  9  1  0
 10 11  1  1
 12 13  2  0
 12 11  1  0
 14 13  1  0
 15 14  2  0
 16 15  1  0
 16 17  2  0
 17 12  1  0
 18 10  1  0
 19 18  2  0
 21 20  1  6
 21 22  1  0
 23 21  1  0
 23 24  1  6
 24 18  1  0
 25 23  1  0
 26 25  1  0
 27 25  2  0
M  END
$$$$
