MFV.pdb
     RDKit          3D

 27 27  0  0  1  0  0  0  0  0999 V2000
    6.1020  -21.1079   18.1456 C   0  0  0  0  0  0  0  0  0  0  0  0
    7.0580  -20.5075   19.5619 S   0  0  0  0  0  0  0  0  0  0  0  0
    7.0642  -18.7032   19.5217 C   0  0  0  0  0  0  0  0  0  0  0  0
    7.8788  -18.1337   20.6746 C   0  0  0  0  0  0  0  0  0  0  0  0
    7.6500  -16.6416   20.7331 C   0  0  2  0  0  0  0  0  0  0  0  0
    8.2774  -15.9435   19.6448 N   0  0  0  0  0  0  0  0  0  0  0  0
    8.1261  -16.0942   22.0249 C   0  0  0  0  0  0  0  0  0  0  0  0
    9.3009  -15.6254   22.0702 O   0  0  0  0  0  0  0  0  0  0  0  0
    7.2961  -16.0903   23.1838 N   0  0  0  0  0  0  0  0  0  0  0  0
    7.7795  -15.5675   24.4346 C   0  0  1  0  0  0  0  0  0  0  0  0
    6.6318  -15.1083   25.2756 C   0  0  0  0  0  0  0  0  0  0  0  0
    6.8284  -13.8347   25.9658 C   0  0  0  0  0  0  0  0  0  0  0  0
    5.8261  -12.8666   26.0315 C   0  0  0  0  0  0  0  0  0  0  0  0
    5.9964  -11.6619   26.6685 C   0  0  0  0  0  0  0  0  0  0  0  0
    7.1946  -11.4002   27.2616 C   0  0  0  0  0  0  0  0  0  0  0  0
    8.1902  -12.3338   27.2094 C   0  0  0  0  0  0  0  0  0  0  0  0
    8.0316  -13.5572   26.5680 C   0  0  0  0  0  0  0  0  0  0  0  0
    8.5614  -16.6548   25.1031 C   0  0  0  0  0  0  0  0  0  0  0  0
    8.0716  -17.7817   25.3662 O   0  0  0  0  0  0  0  0  0  0  0  0
   12.8672  -16.4126   25.7343 C   0  0  0  0  0  0  0  0  0  0  0  0
   12.0670  -17.6704   25.3872 C   0  0  2  0  0  0  0  0  0  0  0  0
   11.9781  -17.7074   23.8754 C   0  0  0  0  0  0  0  0  0  0  0  0
   10.7001  -17.5343   26.0035 C   0  0  2  0  0  0  0  0  0  0  0  0
    9.9271  -16.4630   25.4819 N   0  0  0  0  0  0  0  0  0  0  0  0
   10.7542  -17.4374   27.4771 C   0  0  0  0  0  0  0  0  0  0  0  0
   11.2784  -18.4256   28.2933 O   0  0  0  0  0  0  0  0  0  0  0  0
   10.3030  -16.4077   28.0251 O   0  0  0  0  0  0  0  0  0  0  0  0
  2  3  1  0
  2  1  1  0
  3  4  1  0
  4  5  1  0
  5  6  1  6
  7  5  1  0
  7  8  2  0
  9  7  1  0
 10  9  1  0
 10 11  1  1
 12 13  2  0
 12 11  1  0
 14 13  1  0
 15 14  2  0
 16 15  1  0
 16 17  2  0
 17 12  1  0
 18 10  1  0
 19 18  2  0
 21 20  1  6
 21 22  1  0
 23 21  1  0
 23 24  1  6
 24 18  1  0
 25 23  1  0
 26 25  1  0
 27 25  2  0
M  END
$$$$
