MFV.pdb
     RDKit          3D

 27 27  0  0  1  0  0  0  0  0999 V2000
    7.9895  -13.1860   17.7355 C   0  0  0  0  0  0  0  0  0  0  0  0
    8.3676  -14.7694   16.9420 S   0  0  0  0  0  0  0  0  0  0  0  0
    8.8493  -15.9476   18.2214 C   0  0  0  0  0  0  0  0  0  0  0  0
    9.3237  -15.2283   19.4761 C   0  0  0  0  0  0  0  0  0  0  0  0
    9.6463  -16.2621   20.5294 C   0  0  2  0  0  0  0  0  0  0  0  0
    8.6673  -17.3124   20.5903 N   0  0  0  0  0  0  0  0  0  0  0  0
    9.7836  -15.6226   21.8588 C   0  0  0  0  0  0  0  0  0  0  0  0
   10.7764  -14.8606   22.0475 O   0  0  0  0  0  0  0  0  0  0  0  0
    8.8340  -15.8508   22.8971 N   0  0  0  0  0  0  0  0  0  0  0  0
    8.8066  -15.0138   24.0676 C   0  0  1  0  0  0  0  0  0  0  0  0
    7.4313  -14.9975   24.6536 C   0  0  0  0  0  0  0  0  0  0  0  0
    7.1189  -13.8411   25.4918 C   0  0  0  0  0  0  0  0  0  0  0  0
    6.3174  -13.9467   26.6287 C   0  0  0  0  0  0  0  0  0  0  0  0
    6.0073  -12.8698   27.4225 C   0  0  0  0  0  0  0  0  0  0  0  0
    6.5030  -11.6462   27.0863 C   0  0  0  0  0  0  0  0  0  0  0  0
    7.2899  -11.5198   25.9771 C   0  0  0  0  0  0  0  0  0  0  0  0
    7.6116  -12.6012   25.1646 C   0  0  0  0  0  0  0  0  0  0  0  0
    9.8170  -15.5554   25.0301 C   0  0  0  0  0  0  0  0  0  0  0  0
   11.0439  -15.6171   24.7653 O   0  0  0  0  0  0  0  0  0  0  0  0
    9.3917  -15.0002   29.1688 C   0  0  0  0  0  0  0  0  0  0  0  0
   10.6219  -15.1210   28.2660 C   0  0  2  0  0  0  0  0  0  0  0  0
   10.7104  -13.8169   27.5003 C   0  0  0  0  0  0  0  0  0  0  0  0
   10.3983  -16.2799   27.3313 C   0  0  2  0  0  0  0  0  0  0  0  0
    9.4308  -16.0375   26.3200 N   0  0  0  0  0  0  0  0  0  0  0  0
   10.0645  -17.5269   28.0505 C   0  0  0  0  0  0  0  0  0  0  0  0
   10.9270  -18.1618   28.9283 O   0  0  0  0  0  0  0  0  0  0  0  0
    8.9416  -18.0438   27.8608 O   0  0  0  0  0  0  0  0  0  0  0  0
  2  3  1  0
  2  1  1  0
  3  4  1  0
  4  5  1  0
  5  6  1  1
  7  5  1  0
  7  8  2  0
  9  7  1  0
 10  9  1  0
 10 11  1  1
 12 13  2  0
 12 11  1  0
 14 13  1  0
 15 14  2  0
 16 15  1  0
 16 17  2  0
 17 12  1  0
 18 10  1  0
 19 18  2  0
 21 20  1  1
 21 22  1  0
 23 21  1  0
 23 24  1  6
 24 18  1  0
 25 23  1  0
 26 25  1  0
 27 25  2  0
M  END
$$$$
