MFV.pdb
     RDKit          3D

 27 27  0  0  1  0  0  0  0  0999 V2000
    7.1560  -22.2781   24.5146 C   0  0  0  0  0  0  0  0  0  0  0  0
    8.1402  -22.2993   22.9943 S   0  0  0  0  0  0  0  0  0  0  0  0
    7.8622  -20.7487   22.1136 C   0  0  0  0  0  0  0  0  0  0  0  0
    6.5023  -20.1594   22.4604 C   0  0  0  0  0  0  0  0  0  0  0  0
    6.3568  -18.8354   21.7477 C   0  0  2  0  0  0  0  0  0  0  0  0
    6.7928  -18.8938   20.3796 N   0  0  0  0  0  0  0  0  0  0  0  0
    7.0981  -17.7742   22.4686 C   0  0  0  0  0  0  0  0  0  0  0  0
    8.2329  -17.4380   22.0199 O   0  0  0  0  0  0  0  0  0  0  0  0
    6.5595  -17.1461   23.6293 N   0  0  0  0  0  0  0  0  0  0  0  0
    7.2748  -16.0886   24.2938 C   0  0  1  0  0  0  0  0  0  0  0  0
    6.3400  -15.2992   25.1531 C   0  0  0  0  0  0  0  0  0  0  0  0
    6.9130  -14.1060   25.7737 C   0  0  0  0  0  0  0  0  0  0  0  0
    7.2837  -14.0772   27.1182 C   0  0  0  0  0  0  0  0  0  0  0  0
    7.8156  -12.9628   27.7193 C   0  0  0  0  0  0  0  0  0  0  0  0
    7.9889  -11.8373   26.9715 C   0  0  0  0  0  0  0  0  0  0  0  0
    7.6327  -11.8430   25.6530 C   0  0  0  0  0  0  0  0  0  0  0  0
    7.0931  -12.9639   25.0319 C   0  0  0  0  0  0  0  0  0  0  0  0
    8.3692  -16.7217   25.0949 C   0  0  0  0  0  0  0  0  0  0  0  0
    8.1698  -17.6844   25.8775 O   0  0  0  0  0  0  0  0  0  0  0  0
   12.5794  -15.5064   24.8216 C   0  0  0  0  0  0  0  0  0  0  0  0
   12.0744  -16.9498   24.8889 C   0  0  2  0  0  0  0  0  0  0  0  0
   11.8595  -17.3866   23.4543 C   0  0  0  0  0  0  0  0  0  0  0  0
   10.7766  -16.9512   25.6521 C   0  0  2  0  0  0  0  0  0  0  0  0
    9.7186  -16.2556   25.0085 N   0  0  0  0  0  0  0  0  0  0  0  0
   10.9350  -16.4488   27.0328 C   0  0  0  0  0  0  0  0  0  0  0  0
   11.7316  -17.0603   27.9861 O   0  0  0  0  0  0  0  0  0  0  0  0
   10.3179  -15.4134   27.3663 O   0  0  0  0  0  0  0  0  0  0  0  0
  2  3  1  0
  2  1  1  0
  3  4  1  0
  4  5  1  0
  5  6  1  6
  7  5  1  0
  7  8  2  0
  9  7  1  0
 10  9  1  0
 10 11  1  1
 12 13  2  0
 12 11  1  0
 14 13  1  0
 15 14  2  0
 16 15  1  0
 16 17  2  0
 17 12  1  0
 18 10  1  0
 19 18  2  0
 21 20  1  6
 21 22  1  0
 23 21  1  0
 23 24  1  6
 24 18  1  0
 25 23  1  0
 26 25  1  0
 27 25  2  0
M  END
$$$$
