MFV.pdb
     RDKit          3D

 27 27  0  0  1  0  0  0  0  0999 V2000
    9.5146  -22.0331   23.2181 C   0  0  0  0  0  0  0  0  0  0  0  0
   10.1400  -21.9843   21.5191 S   0  0  0  0  0  0  0  0  0  0  0  0
    9.6996  -20.3908   20.7952 C   0  0  0  0  0  0  0  0  0  0  0  0
    9.7439  -19.2849   21.8401 C   0  0  0  0  0  0  0  0  0  0  0  0
    9.2333  -18.0096   21.2114 C   0  0  2  0  0  0  0  0  0  0  0  0
    9.9264  -17.6763   19.9976 N   0  0  0  0  0  0  0  0  0  0  0  0
    9.3270  -16.8848   22.1712 C   0  0  0  0  0  0  0  0  0  0  0  0
   10.3992  -16.2125   22.1897 O   0  0  0  0  0  0  0  0  0  0  0  0
    8.2506  -16.5618   23.0481 N   0  0  0  0  0  0  0  0  0  0  0  0
    8.3888  -15.5204   24.0319 C   0  0  1  0  0  0  0  0  0  0  0  0
    7.0848  -14.8122   24.2147 C   0  0  0  0  0  0  0  0  0  0  0  0
    7.0704  -13.7788   25.2487 C   0  0  0  0  0  0  0  0  0  0  0  0
    6.5288  -14.0061   26.5140 C   0  0  0  0  0  0  0  0  0  0  0  0
    6.4997  -13.0446   27.4941 C   0  0  0  0  0  0  0  0  0  0  0  0
    7.0215  -11.8164   27.2200 C   0  0  0  0  0  0  0  0  0  0  0  0
    7.5568  -11.5718   25.9875 C   0  0  0  0  0  0  0  0  0  0  0  0
    7.5928  -12.5357   24.9862 C   0  0  0  0  0  0  0  0  0  0  0  0
    8.8585  -16.1612   25.3005 C   0  0  0  0  0  0  0  0  0  0  0  0
    8.3006  -17.1705   25.7999 O   0  0  0  0  0  0  0  0  0  0  0  0
   12.7100  -15.2039   27.1189 C   0  0  0  0  0  0  0  0  0  0  0  0
   12.0381  -16.5744   27.0041 C   0  0  2  0  0  0  0  0  0  0  0  0
   12.4198  -17.1162   25.6418 C   0  0  0  0  0  0  0  0  0  0  0  0
   10.5498  -16.3702   27.1044 C   0  0  2  0  0  0  0  0  0  0  0  0
    9.9837  -15.6491   26.0195 N   0  0  0  0  0  0  0  0  0  0  0  0
   10.1528  -15.7410   28.3812 C   0  0  0  0  0  0  0  0  0  0  0  0
    9.5234  -14.5106   28.4682 O   0  0  0  0  0  0  0  0  0  0  0  0
   10.3955  -16.3479   29.4474 O   0  0  0  0  0  0  0  0  0  0  0  0
  2  3  1  0
  2  1  1  0
  3  4  1  0
  4  5  1  0
  5  6  1  6
  7  5  1  0
  7  8  2  0
  9  7  1  0
 10  9  1  0
 10 11  1  1
 12 13  2  0
 12 11  1  0
 14 13  1  0
 15 14  2  0
 16 15  1  0
 16 17  2  0
 17 12  1  0
 18 10  1  0
 19 18  2  0
 21 20  1  6
 21 22  1  0
 23 21  1  0
 23 24  1  6
 24 18  1  0
 25 23  1  0
 26 25  1  0
 27 25  2  0
M  END
$$$$
