MFV.pdb
     RDKit          3D

 27 27  0  0  1  0  0  0  0  0999 V2000
    9.2689  -21.6438   21.7983 C   0  0  0  0  0  0  0  0  0  0  0  0
    8.2530  -21.4888   20.3070 S   0  0  0  0  0  0  0  0  0  0  0  0
    8.1924  -19.7474   19.8370 C   0  0  0  0  0  0  0  0  0  0  0  0
    8.6677  -18.8569   20.9763 C   0  0  0  0  0  0  0  0  0  0  0  0
    8.5251  -17.4147   20.5502 C   0  0  2  0  0  0  0  0  0  0  0  0
    9.3620  -17.0845   19.4296 N   0  0  0  0  0  0  0  0  0  0  0  0
    8.8190  -16.5074   21.6841 C   0  0  0  0  0  0  0  0  0  0  0  0
   10.0093  -16.0991   21.8201 O   0  0  0  0  0  0  0  0  0  0  0  0
    7.8018  -16.1013   22.5965 N   0  0  0  0  0  0  0  0  0  0  0  0
    8.1156  -15.2656   23.7255 C   0  0  1  0  0  0  0  0  0  0  0  0
    6.8820  -14.5723   24.2080 C   0  0  0  0  0  0  0  0  0  0  0  0
    7.0515  -13.7468   25.4026 C   0  0  0  0  0  0  0  0  0  0  0  0
    8.2502  -13.7148   26.1154 C   0  0  0  0  0  0  0  0  0  0  0  0
    8.4241  -12.9516   27.2439 C   0  0  0  0  0  0  0  0  0  0  0  0
    7.3825  -12.1933   27.6865 C   0  0  0  0  0  0  0  0  0  0  0  0
    6.1997  -12.2094   27.0040 C   0  0  0  0  0  0  0  0  0  0  0  0
    6.0097  -12.9773   25.8605 C   0  0  0  0  0  0  0  0  0  0  0  0
    8.7117  -16.1433   24.7813 C   0  0  0  0  0  0  0  0  0  0  0  0
    8.0584  -17.0431   25.3666 O   0  0  0  0  0  0  0  0  0  0  0  0
   12.1893  -17.8435   24.2490 C   0  0  0  0  0  0  0  0  0  0  0  0
   12.1466  -17.2404   25.6552 C   0  0  2  0  0  0  0  0  0  0  0  0
   12.7427  -18.2838   26.5776 C   0  0  0  0  0  0  0  0  0  0  0  0
   10.7057  -16.9756   26.0019 C   0  0  2  0  0  0  0  0  0  0  0  0
   10.0767  -15.9999   25.1834 N   0  0  0  0  0  0  0  0  0  0  0  0
   10.5251  -16.6222   27.4254 C   0  0  0  0  0  0  0  0  0  0  0  0
   10.7240  -17.5106   28.4687 O   0  0  0  0  0  0  0  0  0  0  0  0
   10.1727  -15.4568   27.7116 O   0  0  0  0  0  0  0  0  0  0  0  0
  2  3  1  0
  2  1  1  0
  3  4  1  0
  4  5  1  0
  5  6  1  6
  7  5  1  0
  7  8  2  0
  9  7  1  0
 10  9  1  0
 10 11  1  1
 12 13  2  0
 12 11  1  0
 14 13  1  0
 15 14  2  0
 16 15  1  0
 16 17  2  0
 17 12  1  0
 18 10  1  0
 19 18  2  0
 21 20  1  6
 21 22  1  0
 23 21  1  0
 23 24  1  6
 24 18  1  0
 25 23  1  0
 26 25  1  0
 27 25  2  0
M  END
$$$$
