MFV.pdb
     RDKit          3D

 27 27  0  0  1  0  0  0  0  0999 V2000
   10.8198  -21.6441   22.4086 C   0  0  0  0  0  0  0  0  0  0  0  0
   11.8895  -21.1424   21.0359 S   0  0  0  0  0  0  0  0  0  0  0  0
   11.3006  -19.5578   20.4040 C   0  0  0  0  0  0  0  0  0  0  0  0
   11.1928  -18.5298   21.5214 C   0  0  0  0  0  0  0  0  0  0  0  0
   10.4743  -17.3132   20.9869 C   0  0  2  0  0  0  0  0  0  0  0  0
   11.1983  -16.6648   19.9284 N   0  0  0  0  0  0  0  0  0  0  0  0
   10.2053  -16.3485   22.0788 C   0  0  0  0  0  0  0  0  0  0  0  0
   11.0021  -15.3746   22.2155 O   0  0  0  0  0  0  0  0  0  0  0  0
    9.0885  -16.5027   22.9511 N   0  0  0  0  0  0  0  0  0  0  0  0
    8.8035  -15.5207   23.9640 C   0  0  1  0  0  0  0  0  0  0  0  0
    7.3311  -15.2716   24.0360 C   0  0  0  0  0  0  0  0  0  0  0  0
    6.9224  -14.1653   24.9000 C   0  0  0  0  0  0  0  0  0  0  0  0
    7.3008  -12.8475   24.6431 C   0  0  0  0  0  0  0  0  0  0  0  0
    6.9328  -11.7977   25.4484 C   0  0  0  0  0  0  0  0  0  0  0  0
    6.1657  -12.0532   26.5449 C   0  0  0  0  0  0  0  0  0  0  0  0
    5.7838  -13.3362   26.8156 C   0  0  0  0  0  0  0  0  0  0  0  0
    6.1492  -14.4083   26.0092 C   0  0  0  0  0  0  0  0  0  0  0  0
    9.3454  -16.0414   25.2585 C   0  0  0  0  0  0  0  0  0  0  0  0
    9.4285  -17.2684   25.5168 O   0  0  0  0  0  0  0  0  0  0  0  0
    9.2162  -14.4269   29.1851 C   0  0  0  0  0  0  0  0  0  0  0  0
   10.5941  -14.6394   28.5534 C   0  0  2  0  0  0  0  0  0  0  0  0
   11.0152  -13.2928   28.0018 C   0  0  0  0  0  0  0  0  0  0  0  0
   10.4458  -15.6511   27.4483 C   0  0  2  0  0  0  0  0  0  0  0  0
    9.8033  -15.1547   26.2829 N   0  0  0  0  0  0  0  0  0  0  0  0
    9.7703  -16.8848   27.9016 C   0  0  0  0  0  0  0  0  0  0  0  0
    8.5282  -17.2926   27.4451 O   0  0  0  0  0  0  0  0  0  0  0  0
   10.3468  -17.6064   28.7448 O   0  0  0  0  0  0  0  0  0  0  0  0
  2  3  1  0
  2  1  1  0
  3  4  1  0
  4  5  1  0
  5  6  1  6
  7  5  1  0
  7  8  2  0
  9  7  1  0
 10  9  1  0
 10 11  1  1
 12 13  2  0
 12 11  1  0
 14 13  1  0
 15 14  2  0
 16 15  1  0
 16 17  2  0
 17 12  1  0
 18 10  1  0
 19 18  2  0
 21 20  1  6
 21 22  1  0
 23 21  1  0
 23 24  1  6
 24 18  1  0
 25 23  1  0
 26 25  1  0
 27 25  2  0
M  END
$$$$
