MFV.pdb
     RDKit          3D

 27 27  0  0  1  0  0  0  0  0999 V2000
    8.1970  -22.6399   24.8177 C   0  0  0  0  0  0  0  0  0  0  0  0
    6.5531  -23.2957   24.4335 S   0  0  0  0  0  0  0  0  0  0  0  0
    5.5423  -21.9520   23.7777 C   0  0  0  0  0  0  0  0  0  0  0  0
    6.3919  -20.7250   23.4782 C   0  0  0  0  0  0  0  0  0  0  0  0
    5.4762  -19.5950   23.0698 C   0  0  2  0  0  0  0  0  0  0  0  0
    5.0267  -19.7124   21.7100 N   0  0  0  0  0  0  0  0  0  0  0  0
    6.1449  -18.2879   23.2691 C   0  0  0  0  0  0  0  0  0  0  0  0
    6.6521  -17.7239   22.2558 O   0  0  0  0  0  0  0  0  0  0  0  0
    6.2192  -17.6772   24.5549 N   0  0  0  0  0  0  0  0  0  0  0  0
    6.9525  -16.4541   24.7485 C   0  0  1  0  0  0  0  0  0  0  0  0
    6.4149  -15.7165   25.9327 C   0  0  0  0  0  0  0  0  0  0  0  0
    6.9959  -14.3956   26.1672 C   0  0  0  0  0  0  0  0  0  0  0  0
    8.1266  -14.2159   26.9641 C   0  0  0  0  0  0  0  0  0  0  0  0
    8.6805  -12.9818   27.2016 C   0  0  0  0  0  0  0  0  0  0  0  0
    8.1019  -11.8862   26.6352 C   0  0  0  0  0  0  0  0  0  0  0  0
    6.9940  -12.0389   25.8513 C   0  0  0  0  0  0  0  0  0  0  0  0
    6.4228  -13.2820   25.6027 C   0  0  0  0  0  0  0  0  0  0  0  0
    8.3936  -16.8182   24.9249 C   0  0  0  0  0  0  0  0  0  0  0  0
    8.7683  -17.7928   25.6241 O   0  0  0  0  0  0  0  0  0  0  0  0
   11.5902  -14.8063   22.7213 C   0  0  0  0  0  0  0  0  0  0  0  0
   11.4357  -16.3194   22.8929 C   0  0  2  0  0  0  0  0  0  0  0  0
   10.5676  -16.7859   21.7423 C   0  0  0  0  0  0  0  0  0  0  0  0
   10.7581  -16.5688   24.2140 C   0  0  2  0  0  0  0  0  0  0  0  0
    9.4333  -16.0634   24.2966 N   0  0  0  0  0  0  0  0  0  0  0  0
   11.5524  -16.0717   25.3567 C   0  0  0  0  0  0  0  0  0  0  0  0
   12.8283  -16.5180   25.6574 O   0  0  0  0  0  0  0  0  0  0  0  0
   11.0506  -15.1988   26.0985 O   0  0  0  0  0  0  0  0  0  0  0  0
  2  3  1  0
  2  1  1  0
  3  4  1  0
  4  5  1  0
  5  6  1  6
  7  5  1  0
  7  8  2  0
  9  7  1  0
 10  9  1  0
 10 11  1  1
 12 13  2  0
 12 11  1  0
 14 13  1  0
 15 14  2  0
 16 15  1  0
 16 17  2  0
 17 12  1  0
 18 10  1  0
 19 18  2  0
 21 20  1  6
 21 22  1  0
 23 21  1  0
 23 24  1  6
 24 18  1  0
 25 23  1  0
 26 25  1  0
 27 25  2  0
M  END
$$$$
