MFV.pdb
     RDKit          3D

 27 27  0  0  1  0  0  0  0  0999 V2000
    7.8806  -12.4892   18.2723 C   0  0  0  0  0  0  0  0  0  0  0  0
    8.2182  -13.9855   17.3094 S   0  0  0  0  0  0  0  0  0  0  0  0
    8.5128  -15.3473   18.4566 C   0  0  0  0  0  0  0  0  0  0  0  0
    9.7080  -15.0575   19.3534 C   0  0  0  0  0  0  0  0  0  0  0  0
    9.7972  -16.1430   20.4003 C   0  0  2  0  0  0  0  0  0  0  0  0
    8.7621  -17.1302   20.2617 N   0  0  0  0  0  0  0  0  0  0  0  0
    9.7562  -15.5564   21.7602 C   0  0  0  0  0  0  0  0  0  0  0  0
   10.7257  -14.8252   22.1171 O   0  0  0  0  0  0  0  0  0  0  0  0
    8.6651  -15.8006   22.6445 N   0  0  0  0  0  0  0  0  0  0  0  0
    8.5689  -15.1110   23.9041 C   0  0  1  0  0  0  0  0  0  0  0  0
    7.1536  -14.7005   24.1564 C   0  0  0  0  0  0  0  0  0  0  0  0
    6.9486  -13.8282   25.3116 C   0  0  0  0  0  0  0  0  0  0  0  0
    7.2698  -12.4711   25.2799 C   0  0  0  0  0  0  0  0  0  0  0  0
    7.0914  -11.6393   26.3580 C   0  0  0  0  0  0  0  0  0  0  0  0
    6.5793  -12.1608   27.5077 C   0  0  0  0  0  0  0  0  0  0  0  0
    6.2579  -13.4871   27.5611 C   0  0  0  0  0  0  0  0  0  0  0  0
    6.4333  -14.3405   26.4775 C   0  0  0  0  0  0  0  0  0  0  0  0
    9.0785  -16.0380   24.9631 C   0  0  0  0  0  0  0  0  0  0  0  0
    9.0478  -17.2886   24.8447 O   0  0  0  0  0  0  0  0  0  0  0  0
   11.0465  -14.6020   28.6052 C   0  0  0  0  0  0  0  0  0  0  0  0
   11.5886  -15.6843   27.6684 C   0  0  2  0  0  0  0  0  0  0  0  0
   12.4236  -14.9619   26.6311 C   0  0  0  0  0  0  0  0  0  0  0  0
   10.4132  -16.3737   27.0281 C   0  0  2  0  0  0  0  0  0  0  0  0
    9.6348  -15.5391   26.1826 N   0  0  0  0  0  0  0  0  0  0  0  0
    9.5378  -17.0318   28.0202 C   0  0  0  0  0  0  0  0  0  0  0  0
    9.9729  -18.0074   28.9012 O   0  0  0  0  0  0  0  0  0  0  0  0
    8.3349  -16.6937   28.0730 O   0  0  0  0  0  0  0  0  0  0  0  0
  2  3  1  0
  2  1  1  0
  3  4  1  0
  4  5  1  0
  5  6  1  1
  7  5  1  0
  7  8  2  0
  9  7  1  0
 10  9  1  0
 10 11  1  1
 12 13  2  0
 12 11  1  0
 14 13  1  0
 15 14  2  0
 16 15  1  0
 16 17  2  0
 17 12  1  0
 18 10  1  0
 19 18  2  0
 21 20  1  1
 21 22  1  0
 23 21  1  0
 23 24  1  1
 24 18  1  0
 25 23  1  0
 26 25  1  0
 27 25  2  0
M  END
$$$$
