MFV.pdb
     RDKit          3D

 27 27  0  0  1  0  0  0  0  0999 V2000
    7.9591  -11.4945   19.6611 C   0  0  0  0  0  0  0  0  0  0  0  0
    7.6957  -12.7537   18.3862 S   0  0  0  0  0  0  0  0  0  0  0  0
    7.7031  -14.3759   19.1770 C   0  0  0  0  0  0  0  0  0  0  0  0
    8.2780  -14.2953   20.5841 C   0  0  0  0  0  0  0  0  0  0  0  0
    8.2843  -15.6833   21.1805 C   0  0  2  0  0  0  0  0  0  0  0  0
    6.9980  -16.3202   21.1108 N   0  0  0  0  0  0  0  0  0  0  0  0
    8.7513  -15.6417   22.5860 C   0  0  0  0  0  0  0  0  0  0  0  0
    9.9265  -15.2260   22.8054 O   0  0  0  0  0  0  0  0  0  0  0  0
    7.9123  -16.0531   23.6624 N   0  0  0  0  0  0  0  0  0  0  0  0
    8.3888  -16.0252   25.0202 C   0  0  1  0  0  0  0  0  0  0  0  0
    7.2804  -15.6332   25.9440 C   0  0  0  0  0  0  0  0  0  0  0  0
    7.0769  -14.1946   26.1065 C   0  0  0  0  0  0  0  0  0  0  0  0
    5.8546  -13.5842   25.8252 C   0  0  0  0  0  0  0  0  0  0  0  0
    5.6484  -12.2336   25.9645 C   0  0  0  0  0  0  0  0  0  0  0  0
    6.6807  -11.4562   26.3956 C   0  0  0  0  0  0  0  0  0  0  0  0
    7.8864  -12.0329   26.6767 C   0  0  0  0  0  0  0  0  0  0  0  0
    8.1091  -13.3985   26.5401 C   0  0  0  0  0  0  0  0  0  0  0  0
    8.9233  -17.3871   25.3361 C   0  0  0  0  0  0  0  0  0  0  0  0
    8.2379  -18.4329   25.2104 O   0  0  0  0  0  0  0  0  0  0  0  0
   13.1240  -18.1550   25.7527 C   0  0  0  0  0  0  0  0  0  0  0  0
   12.0670  -19.1540   25.2759 C   0  0  2  0  0  0  0  0  0  0  0  0
   11.8929  -18.9046   23.7918 C   0  0  0  0  0  0  0  0  0  0  0  0
   10.7910  -18.8699   26.0227 C   0  0  2  0  0  0  0  0  0  0  0  0
   10.2623  -17.5699   25.8042 N   0  0  0  0  0  0  0  0  0  0  0  0
   10.9212  -19.1167   27.4739 C   0  0  0  0  0  0  0  0  0  0  0  0
   10.7124  -18.1467   28.4398 O   0  0  0  0  0  0  0  0  0  0  0  0
   11.2376  -20.2638   27.8589 O   0  0  0  0  0  0  0  0  0  0  0  0
  2  3  1  0
  2  1  1  0
  3  4  1  0
  4  5  1  0
  5  6  1  1
  7  5  1  0
  7  8  2  0
  9  7  1  0
 10  9  1  0
 10 11  1  1
 12 13  2  0
 12 11  1  0
 14 13  1  0
 15 14  2  0
 16 15  1  0
 16 17  2  0
 17 12  1  0
 18 10  1  0
 19 18  2  0
 21 20  1  1
 21 22  1  0
 23 21  1  0
 23 24  1  1
 24 18  1  0
 25 23  1  0
 26 25  1  0
 27 25  2  0
M  END
$$$$
