MFV.pdb
     RDKit          3D

 27 27  0  0  1  0  0  0  0  0999 V2000
    9.6953  -21.5821   21.4716 C   0  0  0  0  0  0  0  0  0  0  0  0
    8.6726  -21.1194   20.0502 S   0  0  0  0  0  0  0  0  0  0  0  0
    9.0324  -19.4031   19.6237 C   0  0  0  0  0  0  0  0  0  0  0  0
    8.9631  -18.5083   20.8532 C   0  0  0  0  0  0  0  0  0  0  0  0
    9.1349  -17.0734   20.4131 C   0  0  2  0  0  0  0  0  0  0  0  0
   10.2553  -16.8967   19.5307 N   0  0  0  0  0  0  0  0  0  0  0  0
    9.2738  -16.1834   21.5894 C   0  0  0  0  0  0  0  0  0  0  0  0
   10.4291  -15.7466   21.8659 O   0  0  0  0  0  0  0  0  0  0  0  0
    8.1497  -15.8243   22.3890 N   0  0  0  0  0  0  0  0  0  0  0  0
    8.3141  -15.0258   23.5751 C   0  0  1  0  0  0  0  0  0  0  0  0
    7.0581  -14.2661   23.8592 C   0  0  0  0  0  0  0  0  0  0  0  0
    7.0598  -13.4896   25.0979 C   0  0  0  0  0  0  0  0  0  0  0  0
    6.3557  -13.9010   26.2296 C   0  0  0  0  0  0  0  0  0  0  0  0
    6.3398  -13.1801   27.3984 C   0  0  0  0  0  0  0  0  0  0  0  0
    7.0411  -12.0135   27.4560 C   0  0  0  0  0  0  0  0  0  0  0  0
    7.7376  -11.5915   26.3595 C   0  0  0  0  0  0  0  0  0  0  0  0
    7.7623  -12.3113   25.1701 C   0  0  0  0  0  0  0  0  0  0  0  0
    8.6706  -15.9534   24.6945 C   0  0  0  0  0  0  0  0  0  0  0  0
    7.9683  -16.9488   25.0029 O   0  0  0  0  0  0  0  0  0  0  0  0
   12.6404  -16.0416   26.3165 C   0  0  0  0  0  0  0  0  0  0  0  0
   11.6870  -17.2298   26.1690 C   0  0  2  0  0  0  0  0  0  0  0  0
   11.8494  -17.7242   24.7462 C   0  0  0  0  0  0  0  0  0  0  0  0
   10.2865  -16.7324   26.4093 C   0  0  2  0  0  0  0  0  0  0  0  0
    9.8472  -15.7504   25.4818 N   0  0  0  0  0  0  0  0  0  0  0  0
   10.0942  -16.2360   27.7878 C   0  0  0  0  0  0  0  0  0  0  0  0
    9.6976  -14.9443   28.0909 O   0  0  0  0  0  0  0  0  0  0  0  0
   10.2995  -17.0209   28.7396 O   0  0  0  0  0  0  0  0  0  0  0  0
  2  3  1  0
  2  1  1  0
  3  4  1  0
  4  5  1  0
  5  6  1  6
  7  5  1  0
  7  8  2  0
  9  7  1  0
 10  9  1  0
 10 11  1  1
 12 13  2  0
 12 11  1  0
 14 13  1  0
 15 14  2  0
 16 15  1  0
 16 17  2  0
 17 12  1  0
 18 10  1  0
 19 18  2  0
 21 20  1  6
 21 22  1  0
 23 21  1  0
 23 24  1  6
 24 18  1  0
 25 23  1  0
 26 25  1  0
 27 25  2  0
M  END
$$$$
