MFV.pdb
     RDKit          3D

 27 27  0  0  1  0  0  0  0  0999 V2000
    9.1854  -17.5587   17.4754 C   0  0  0  0  0  0  0  0  0  0  0  0
    7.4058  -17.2305   17.4025 S   0  0  0  0  0  0  0  0  0  0  0  0
    7.0521  -15.7778   18.4134 C   0  0  0  0  0  0  0  0  0  0  0  0
    7.8774  -15.7879   19.6923 C   0  0  0  0  0  0  0  0  0  0  0  0
    7.5749  -14.5279   20.4689 C   0  0  2  0  0  0  0  0  0  0  0  0
    7.9946  -13.3394   19.7786 N   0  0  0  0  0  0  0  0  0  0  0  0
    8.2037  -14.5814   21.8094 C   0  0  0  0  0  0  0  0  0  0  0  0
    9.3881  -14.1498   21.9234 O   0  0  0  0  0  0  0  0  0  0  0  0
    7.5062  -15.0991   22.9396 N   0  0  0  0  0  0  0  0  0  0  0  0
    8.1657  -15.2413   24.2109 C   0  0  1  0  0  0  0  0  0  0  0  0
    7.1932  -15.0049   25.3216 C   0  0  0  0  0  0  0  0  0  0  0  0
    7.0408  -13.6116   25.7375 C   0  0  0  0  0  0  0  0  0  0  0  0
    8.1381  -12.7693   25.9175 C   0  0  0  0  0  0  0  0  0  0  0  0
    8.0136  -11.4608   26.3156 C   0  0  0  0  0  0  0  0  0  0  0  0
    6.7662  -10.9635   26.5446 C   0  0  0  0  0  0  0  0  0  0  0  0
    5.6776  -11.7707   26.3747 C   0  0  0  0  0  0  0  0  0  0  0  0
    5.7890  -13.0969   25.9723 C   0  0  0  0  0  0  0  0  0  0  0  0
    8.7479  -16.6193   24.2626 C   0  0  0  0  0  0  0  0  0  0  0  0
    8.5136  -17.4900   23.3873 O   0  0  0  0  0  0  0  0  0  0  0  0
   12.5539  -16.9823   24.4607 C   0  0  0  0  0  0  0  0  0  0  0  0
   11.4736  -17.9804   24.0368 C   0  0  2  0  0  0  0  0  0  0  0  0
   10.8006  -17.3790   22.8202 C   0  0  0  0  0  0  0  0  0  0  0  0
   10.4998  -18.1206   25.1765 C   0  0  2  0  0  0  0  0  0  0  0  0
    9.6139  -17.0208   25.3276 N   0  0  0  0  0  0  0  0  0  0  0  0
   11.1740  -18.3968   26.4621 C   0  0  0  0  0  0  0  0  0  0  0  0
   11.8922  -19.5522   26.7203 O   0  0  0  0  0  0  0  0  0  0  0  0
   11.0958  -17.5436   27.3732 O   0  0  0  0  0  0  0  0  0  0  0  0
  2  3  1  0
  2  1  1  0
  3  4  1  0
  4  5  1  0
  5  6  1  6
  7  5  1  0
  7  8  2  0
  9  7  1  0
 10  9  1  0
 10 11  1  1
 12 13  2  0
 12 11  1  0
 14 13  1  0
 15 14  2  0
 16 15  1  0
 16 17  2  0
 17 12  1  0
 18 10  1  0
 19 18  2  0
 21 20  1  1
 21 22  1  0
 23 21  1  0
 23 24  1  1
 24 18  1  0
 25 23  1  0
 26 25  1  0
 27 25  2  0
M  END
$$$$
