HNG.pdb
     RDKit          3D

 23 23  0  0  1  0  0  0  0  0999 V2000
   21.9022  -22.7276  -15.5374 N   0  0  0  0  0  0  0  0  0  0  0  0
   21.5081  -23.1945  -14.2485 C   0  0  1  0  0  0  0  0  0  0  0  0
   20.8389  -22.1229  -13.4148 C   0  0  0  0  0  0  0  0  0  0  0  0
   21.1279  -20.7762  -13.9820 C   0  0  0  0  0  0  0  0  0  0  0  0
   21.8971  -20.5304  -15.0993 C   0  0  0  0  0  0  0  0  0  0  0  0
   21.9324  -19.2082  -15.3047 N   0  0  0  0  0  0  0  0  0  0  0  0
   21.1992  -18.6357  -14.3343 C   0  0  0  0  0  0  0  0  0  0  0  0
   20.7133  -19.5944  -13.5341 N   0  0  0  0  0  0  0  0  0  0  0  0
   20.6198  -24.3746  -14.3892 C   0  0  0  0  0  0  0  0  0  0  0  0
   19.4693  -24.2158  -14.8184 O   0  0  0  0  0  0  0  0  0  0  0  0
   21.6818  -27.5917  -17.5483 N   0  0  0  0  0  0  0  0  0  0  0  0
   20.6660  -27.3832  -16.5765 C   0  0  0  0  0  0  0  0  0  0  0  0
   19.6217  -26.7948  -16.9474 O   0  0  0  0  0  0  0  0  0  0  0  0
   20.8214  -27.8381  -15.1756 C   0  0  0  0  0  0  0  0  0  0  0  0
   20.2136  -26.8735  -14.2120 C   0  0  2  0  0  0  0  0  0  0  0  0
   21.0307  -25.6889  -14.0518 N   0  0  0  0  0  0  0  0  0  0  0  0
   19.9373  -27.4996  -12.8832 C   0  0  0  0  0  0  0  0  0  0  0  0
   19.1458  -28.4391  -12.7106 O   0  0  0  0  0  0  0  0  0  0  0  0
   20.6214  -26.9924  -11.7356 N   0  0  0  0  0  0  0  0  0  0  0  0
   20.3866  -27.4946  -10.4078 C   0  0  0  0  0  0  0  0  0  0  0  0
   21.2373  -28.6698  -10.0914 C   0  0  0  0  0  0  0  0  0  0  0  0
   21.1731  -29.1441   -8.9357 O   0  0  0  0  0  0  0  0  0  0  0  0
   22.0688  -29.2070  -11.0632 O   0  0  0  0  0  0  0  0  0  0  0  0
  2  9  1  0
  2  1  1  6
  3  2  1  0
  4  5  2  0
  4  3  1  0
  6  5  1  0
  7  8  2  0
  7  6  1  0
  8  4  1  0
  9 10  2  0
 11 12  1  0
 12 14  1  0
 13 12  2  0
 15 14  1  6
 15 17  1  0
 16  9  1  0
 16 15  1  0
 17 19  1  0
 18 17  2  0
 19 20  1  0
 20 21  1  0
 21 22  2  0
 21 23  1  0
M  END
$$$$
