HNG.pdb
     RDKit          3D

 23 23  0  0  1  0  0  0  0  0999 V2000
   31.2963  -10.0441  -18.8025 N   0  0  0  0  0  0  0  0  0  0  0  0
   30.5796   -8.8298  -18.5872 C   0  0  1  0  0  0  0  0  0  0  0  0
   29.3674   -9.0126  -17.6993 C   0  0  0  0  0  0  0  0  0  0  0  0
   28.3911   -9.9326  -18.3468 C   0  0  0  0  0  0  0  0  0  0  0  0
   28.5616  -10.5417  -19.5717 C   0  0  0  0  0  0  0  0  0  0  0  0
   27.4821  -11.2920  -19.8237 N   0  0  0  0  0  0  0  0  0  0  0  0
   26.6504  -11.1558  -18.7764 C   0  0  0  0  0  0  0  0  0  0  0  0
   27.2091  -10.3284  -17.8827 N   0  0  0  0  0  0  0  0  0  0  0  0
   31.4878   -7.8013  -18.0223 C   0  0  0  0  0  0  0  0  0  0  0  0
   31.0319   -6.6866  -17.7348 O   0  0  0  0  0  0  0  0  0  0  0  0
   32.8797   -6.1268  -14.8814 N   0  0  0  0  0  0  0  0  0  0  0  0
   33.9722   -7.0354  -14.8968 C   0  0  0  0  0  0  0  0  0  0  0  0
   34.4017   -7.4436  -13.7907 O   0  0  0  0  0  0  0  0  0  0  0  0
   34.5899   -7.4914  -16.1634 C   0  0  0  0  0  0  0  0  0  0  0  0
   33.8120   -7.0333  -17.3523 C   0  0  2  0  0  0  0  0  0  0  0  0
   32.8670   -8.0374  -17.7941 N   0  0  0  0  0  0  0  0  0  0  0  0
   34.6981   -6.6185  -18.4824 C   0  0  0  0  0  0  0  0  0  0  0  0
   35.5865   -5.7580  -18.3870 O   0  0  0  0  0  0  0  0  0  0  0  0
   34.5188   -7.2454  -19.7540 N   0  0  0  0  0  0  0  0  0  0  0  0
   35.2651   -6.8581  -20.9217 C   0  0  0  0  0  0  0  0  0  0  0  0
   34.6349   -5.7227  -21.6420 C   0  0  0  0  0  0  0  0  0  0  0  0
   33.7497   -5.9847  -22.4861 O   0  0  0  0  0  0  0  0  0  0  0  0
   35.0318   -4.4215  -21.3701 O   0  0  0  0  0  0  0  0  0  0  0  0
  2  9  1  0
  2  1  1  1
  3  2  1  0
  4  5  2  0
  4  3  1  0
  6  5  1  0
  7  8  2  0
  7  6  1  0
  8  4  1  0
  9 10  2  0
 11 12  1  0
 12 14  1  0
 13 12  2  0
 15 14  1  1
 15 17  1  0
 16  9  1  0
 16 15  1  0
 17 19  1  0
 18 17  2  0
 19 20  1  0
 20 21  1  0
 21 22  2  0
 21 23  1  0
M  END
$$$$
