HNG.pdb
     RDKit          3D

 23 23  0  0  1  0  0  0  0  0999 V2000
   26.1662  -18.7729  -15.7886 N   0  0  0  0  0  0  0  0  0  0  0  0
   26.6597  -20.1096  -15.7222 C   0  0  1  0  0  0  0  0  0  0  0  0
   28.1665  -20.1737  -15.5932 C   0  0  0  0  0  0  0  0  0  0  0  0
   28.8076  -19.3284  -16.6387 C   0  0  0  0  0  0  0  0  0  0  0  0
   28.1353  -18.5851  -17.5853 C   0  0  0  0  0  0  0  0  0  0  0  0
   29.0384  -17.9593  -18.3498 N   0  0  0  0  0  0  0  0  0  0  0  0
   30.2541  -18.3037  -17.8912 C   0  0  0  0  0  0  0  0  0  0  0  0
   30.1064  -19.1359  -16.8513 N   0  0  0  0  0  0  0  0  0  0  0  0
   26.0103  -20.8321  -14.6006 C   0  0  0  0  0  0  0  0  0  0  0  0
   26.3420  -22.0012  -14.3639 O   0  0  0  0  0  0  0  0  0  0  0  0
   26.3365  -21.7428  -11.2434 N   0  0  0  0  0  0  0  0  0  0  0  0
   25.4170  -20.7970  -10.7144 C   0  0  0  0  0  0  0  0  0  0  0  0
   25.6466  -20.3457   -9.5663 O   0  0  0  0  0  0  0  0  0  0  0  0
   24.2289  -20.3524  -11.4788 C   0  0  0  0  0  0  0  0  0  0  0  0
   24.1878  -20.9650  -12.8395 C   0  0  2  0  0  0  0  0  0  0  0  0
   25.0179  -20.2405  -13.7790 N   0  0  0  0  0  0  0  0  0  0  0  0
   22.7931  -21.0872  -13.3629 C   0  0  0  0  0  0  0  0  0  0  0  0
   22.2303  -20.2179  -14.0459 O   0  0  0  0  0  0  0  0  0  0  0  0
   22.0547  -22.2736  -13.0639 N   0  0  0  0  0  0  0  0  0  0  0  0
   20.7118  -22.4903  -13.5331 C   0  0  0  0  0  0  0  0  0  0  0  0
   19.7048  -21.7750  -12.7088 C   0  0  0  0  0  0  0  0  0  0  0  0
   19.8994  -20.5626  -12.4696 O   0  0  0  0  0  0  0  0  0  0  0  0
   18.5919  -22.4510  -12.2305 O   0  0  0  0  0  0  0  0  0  0  0  0
  2  9  1  0
  2  1  1  1
  3  2  1  0
  4  5  2  0
  4  3  1  0
  6  5  1  0
  7  8  2  0
  7  6  1  0
  8  4  1  0
  9 10  2  0
 11 12  1  0
 12 14  1  0
 13 12  2  0
 15 14  1  1
 15 17  1  0
 16  9  1  0
 16 15  1  0
 17 19  1  0
 18 17  2  0
 19 20  1  0
 20 21  1  0
 21 22  2  0
 21 23  1  0
M  END
$$$$
