HNG.pdb
     RDKit          3D

 23 23  0  0  1  0  0  0  0  0999 V2000
   17.1534  -11.8104  -15.5556 N   0  0  0  0  0  0  0  0  0  0  0  0
   17.2725  -10.3899  -15.5060 C   0  0  1  0  0  0  0  0  0  0  0  0
   16.3073   -9.7532  -14.5292 C   0  0  0  0  0  0  0  0  0  0  0  0
   14.9073   -9.9158  -15.0113 C   0  0  0  0  0  0  0  0  0  0  0  0
   14.4178   -9.4447  -16.2108 C   0  0  0  0  0  0  0  0  0  0  0  0
   13.1244   -9.7779  -16.2988 N   0  0  0  0  0  0  0  0  0  0  0  0
   12.8089  -10.4453  -15.1755 C   0  0  0  0  0  0  0  0  0  0  0  0
   13.8970  -10.5255  -14.3976 N   0  0  0  0  0  0  0  0  0  0  0  0
   18.6694  -10.0118  -15.1782 C   0  0  0  0  0  0  0  0  0  0  0  0
   19.2426  -10.5779  -14.2380 O   0  0  0  0  0  0  0  0  0  0  0  0
   21.0694  -10.4837  -18.6867 N   0  0  0  0  0  0  0  0  0  0  0  0
   21.6395  -10.1375  -17.4318 C   0  0  0  0  0  0  0  0  0  0  0  0
   22.1961  -11.0515  -16.7766 O   0  0  0  0  0  0  0  0  0  0  0  0
   21.5856   -8.7542  -16.9055 C   0  0  0  0  0  0  0  0  0  0  0  0
   20.7694   -8.6701  -15.6584 C   0  0  2  0  0  0  0  0  0  0  0  0
   19.3857   -9.0228  -15.8984 N   0  0  0  0  0  0  0  0  0  0  0  0
   20.8599   -7.3252  -15.0127 C   0  0  0  0  0  0  0  0  0  0  0  0
   20.1674   -6.3500  -15.3419 O   0  0  0  0  0  0  0  0  0  0  0  0
   21.7982   -7.1411  -13.9506 N   0  0  0  0  0  0  0  0  0  0  0  0
   21.9963   -5.8720  -13.3020 C   0  0  0  0  0  0  0  0  0  0  0  0
   22.6138   -4.8682  -14.2054 C   0  0  0  0  0  0  0  0  0  0  0  0
   22.9191   -5.2322  -15.3625 O   0  0  0  0  0  0  0  0  0  0  0  0
   22.8352   -3.5740  -13.7576 O   0  0  0  0  0  0  0  0  0  0  0  0
  2  9  1  0
  2  1  1  1
  3  2  1  0
  4  5  2  0
  4  3  1  0
  6  5  1  0
  7  8  2  0
  7  6  1  0
  8  4  1  0
  9 10  2  0
 11 12  1  0
 12 14  1  0
 13 12  2  0
 15 14  1  6
 15 17  1  0
 16  9  1  0
 16 15  1  0
 17 19  1  0
 18 17  2  0
 19 20  1  0
 20 21  1  0
 21 22  2  0
 21 23  1  0
M  END
$$$$
