HNG.pdb
     RDKit          3D

 23 23  0  0  1  0  0  0  0  0999 V2000
   20.2447  -12.5471  -17.9846 N   0  0  0  0  0  0  0  0  0  0  0  0
   21.2979  -11.6220  -17.7205 C   0  0  1  0  0  0  0  0  0  0  0  0
   22.1832  -11.3804  -18.9243 C   0  0  0  0  0  0  0  0  0  0  0  0
   22.7487  -12.6691  -19.4124 C   0  0  0  0  0  0  0  0  0  0  0  0
   23.5690  -13.5055  -18.6857 C   0  0  0  0  0  0  0  0  0  0  0  0
   23.8756  -14.5623  -19.4478 N   0  0  0  0  0  0  0  0  0  0  0  0
   23.2591  -14.3918  -20.6300 C   0  0  0  0  0  0  0  0  0  0  0  0
   22.5761  -13.2393  -20.6016 N   0  0  0  0  0  0  0  0  0  0  0  0
   20.7331  -10.3425  -17.2250 C   0  0  0  0  0  0  0  0  0  0  0  0
   20.0834   -9.6293  -18.0010 O   0  0  0  0  0  0  0  0  0  0  0  0
   17.0216   -8.5987  -15.8256 N   0  0  0  0  0  0  0  0  0  0  0  0
   17.9926   -9.4804  -15.2783 C   0  0  0  0  0  0  0  0  0  0  0  0
   17.8458  -10.7081  -15.4917 O   0  0  0  0  0  0  0  0  0  0  0  0
   19.1392   -8.9820  -14.4843 C   0  0  0  0  0  0  0  0  0  0  0  0
   20.3203   -8.6853  -15.3477 C   0  0  2  0  0  0  0  0  0  0  0  0
   20.9043   -9.8938  -15.8911 N   0  0  0  0  0  0  0  0  0  0  0  0
   21.3573   -7.8821  -14.6311 C   0  0  0  0  0  0  0  0  0  0  0  0
   22.2063   -8.3684  -13.8684 O   0  0  0  0  0  0  0  0  0  0  0  0
   21.3806   -6.4671  -14.8299 N   0  0  0  0  0  0  0  0  0  0  0  0
   22.2992   -5.6018  -14.1386 C   0  0  0  0  0  0  0  0  0  0  0  0
   22.1910   -4.1908  -14.5886 C   0  0  0  0  0  0  0  0  0  0  0  0
   21.4387   -3.9417  -15.5565 O   0  0  0  0  0  0  0  0  0  0  0  0
   22.9111   -3.1979  -13.9404 O   0  0  0  0  0  0  0  0  0  0  0  0
  2  9  1  0
  2  1  1  6
  3  2  1  0
  4  5  2  0
  4  3  1  0
  6  5  1  0
  7  8  2  0
  7  6  1  0
  8  4  1  0
  9 10  2  0
 11 12  1  0
 12 14  1  0
 13 12  2  0
 15 14  1  1
 15 17  1  0
 16  9  1  0
 16 15  1  0
 17 19  1  0
 18 17  2  0
 19 20  1  0
 20 21  1  0
 21 22  2  0
 21 23  1  0
M  END
$$$$
