HNG.pdb
     RDKit          3D

 23 23  0  0  1  0  0  0  0  0999 V2000
   18.5057   -8.8899  -14.6654 N   0  0  0  0  0  0  0  0  0  0  0  0
   19.3020   -8.3915  -13.5920 C   0  0  1  0  0  0  0  0  0  0  0  0
   19.3064   -9.3094  -12.3884 C   0  0  0  0  0  0  0  0  0  0  0  0
   17.9213   -9.4793  -11.8674 C   0  0  0  0  0  0  0  0  0  0  0  0
   16.9949  -10.3811  -12.3459 C   0  0  0  0  0  0  0  0  0  0  0  0
   15.8685  -10.2459  -11.6354 N   0  0  0  0  0  0  0  0  0  0  0  0
   16.0847   -9.2776  -10.7285 C   0  0  0  0  0  0  0  0  0  0  0  0
   17.3341   -8.8161  -10.8751 N   0  0  0  0  0  0  0  0  0  0  0  0
   20.6871   -8.1451  -14.0634 C   0  0  0  0  0  0  0  0  0  0  0  0
   21.3680   -9.1001  -14.4602 O   0  0  0  0  0  0  0  0  0  0  0  0
   21.9444   -8.6335  -18.0857 N   0  0  0  0  0  0  0  0  0  0  0  0
   22.5016   -7.8088  -17.0713 C   0  0  0  0  0  0  0  0  0  0  0  0
   23.6744   -8.0581  -16.7014 O   0  0  0  0  0  0  0  0  0  0  0  0
   21.7378   -6.6939  -16.4652 C   0  0  0  0  0  0  0  0  0  0  0  0
   22.2104   -6.3894  -15.0823 C   0  0  2  0  0  0  0  0  0  0  0  0
   21.2735   -6.8545  -14.0810 N   0  0  0  0  0  0  0  0  0  0  0  0
   22.4991   -4.9355  -14.8905 C   0  0  0  0  0  0  0  0  0  0  0  0
   23.4038   -4.3247  -15.4798 O   0  0  0  0  0  0  0  0  0  0  0  0
   21.6895   -4.1952  -13.9747 N   0  0  0  0  0  0  0  0  0  0  0  0
   21.8457   -2.7794  -13.7708 C   0  0  0  0  0  0  0  0  0  0  0  0
   20.6016   -2.0264  -14.0714 C   0  0  0  0  0  0  0  0  0  0  0  0
   19.6479   -2.6533  -14.5836 O   0  0  0  0  0  0  0  0  0  0  0  0
   20.5233   -0.6715  -13.7844 O   0  0  0  0  0  0  0  0  0  0  0  0
  2  9  1  0
  2  1  1  6
  3  2  1  0
  4  5  2  0
  4  3  1  0
  6  5  1  0
  7  8  2  0
  7  6  1  0
  8  4  1  0
  9 10  2  0
 11 12  1  0
 12 14  1  0
 13 12  2  0
 15 14  1  6
 15 17  1  0
 16  9  1  0
 16 15  1  0
 17 19  1  0
 18 17  2  0
 19 20  1  0
 20 21  1  0
 21 22  2  0
 21 23  1  0
M  END
$$$$
