HNG.pdb
     RDKit          3D

 23 23  0  0  1  0  0  0  0  0999 V2000
   17.5352  -12.1893  -16.5700 N   0  0  0  0  0  0  0  0  0  0  0  0
   18.6427  -11.3645  -16.2126 C   0  0  1  0  0  0  0  0  0  0  0  0
   19.9318  -11.7889  -16.8828 C   0  0  0  0  0  0  0  0  0  0  0  0
   20.1795  -13.2387  -16.6473 C   0  0  0  0  0  0  0  0  0  0  0  0
   20.3663  -14.1855  -17.6319 C   0  0  0  0  0  0  0  0  0  0  0  0
   20.5604  -15.3725  -17.0444 N   0  0  0  0  0  0  0  0  0  0  0  0
   20.4964  -15.1737  -15.7165 C   0  0  0  0  0  0  0  0  0  0  0  0
   20.2647  -13.8749  -15.4823 N   0  0  0  0  0  0  0  0  0  0  0  0
   18.3368   -9.9464  -16.5242 C   0  0  0  0  0  0  0  0  0  0  0  0
   17.9281   -9.6520  -17.6553 O   0  0  0  0  0  0  0  0  0  0  0  0
   14.8929   -6.4861  -16.2893 N   0  0  0  0  0  0  0  0  0  0  0  0
   15.7353   -7.4353  -15.6498 C   0  0  0  0  0  0  0  0  0  0  0  0
   15.3512   -8.6297  -15.6295 O   0  0  0  0  0  0  0  0  0  0  0  0
   17.0205   -7.0430  -15.0270 C   0  0  0  0  0  0  0  0  0  0  0  0
   18.1882   -7.5093  -15.8317 C   0  0  2  0  0  0  0  0  0  0  0  0
   18.4923   -8.9021  -15.5780 N   0  0  0  0  0  0  0  0  0  0  0  0
   19.4005   -6.6629  -15.6125 C   0  0  0  0  0  0  0  0  0  0  0  0
   19.4511   -5.4477  -15.8566 O   0  0  0  0  0  0  0  0  0  0  0  0
   20.5780   -7.2817  -15.0902 N   0  0  0  0  0  0  0  0  0  0  0  0
   21.8329   -6.5872  -14.9745 C   0  0  0  0  0  0  0  0  0  0  0  0
   21.9305   -5.8065  -13.7152 C   0  0  0  0  0  0  0  0  0  0  0  0
   20.9428   -5.8088  -12.9476 O   0  0  0  0  0  0  0  0  0  0  0  0
   23.0906   -5.1049  -13.4211 O   0  0  0  0  0  0  0  0  0  0  0  0
  2  9  1  0
  2  1  1  6
  3  2  1  0
  4  5  2  0
  4  3  1  0
  6  5  1  0
  7  8  2  0
  7  6  1  0
  8  4  1  0
  9 10  2  0
 11 12  1  0
 12 14  1  0
 13 12  2  0
 15 14  1  1
 15 17  1  0
 16  9  1  0
 16 15  1  0
 17 19  1  0
 18 17  2  0
 19 20  1  0
 20 21  1  0
 21 22  2  0
 21 23  1  0
M  END
$$$$
