HNG.pdb
     RDKit          3D

 23 23  0  0  1  0  0  0  0  0999 V2000
   22.9139  -14.9001  -16.7192 N   0  0  0  0  0  0  0  0  0  0  0  0
   21.9156  -13.9842  -16.2730 C   0  0  1  0  0  0  0  0  0  0  0  0
   21.3773  -14.3250  -14.9000 C   0  0  0  0  0  0  0  0  0  0  0  0
   20.6688  -15.6347  -14.9370 C   0  0  0  0  0  0  0  0  0  0  0  0
   19.8280  -16.0577  -15.9443 C   0  0  0  0  0  0  0  0  0  0  0  0
   19.3790  -17.2799  -15.6338 N   0  0  0  0  0  0  0  0  0  0  0  0
   19.9280  -17.6168  -14.4539 C   0  0  0  0  0  0  0  0  0  0  0  0
   20.7106  -16.6125  -14.0363 N   0  0  0  0  0  0  0  0  0  0  0  0
   22.4544  -12.6018  -16.2922 C   0  0  0  0  0  0  0  0  0  0  0  0
   23.6051  -12.3973  -15.8835 O   0  0  0  0  0  0  0  0  0  0  0  0
   24.1971   -8.0148  -18.3179 N   0  0  0  0  0  0  0  0  0  0  0  0
   22.8009   -8.2783  -18.3450 C   0  0  0  0  0  0  0  0  0  0  0  0
   22.0278   -7.2952  -18.4462 O   0  0  0  0  0  0  0  0  0  0  0  0
   22.2652   -9.6564  -18.2580 C   0  0  0  0  0  0  0  0  0  0  0  0
   22.2077  -10.1374  -16.8460 C   0  0  2  0  0  0  0  0  0  0  0  0
   21.7058  -11.4930  -16.7613 N   0  0  0  0  0  0  0  0  0  0  0  0
   21.4052   -9.2291  -15.9713 C   0  0  0  0  0  0  0  0  0  0  0  0
   20.1654   -9.2257  -15.9274 O   0  0  0  0  0  0  0  0  0  0  0  0
   22.0988   -8.3046  -15.1307 N   0  0  0  0  0  0  0  0  0  0  0  0
   21.4191   -7.4360  -14.2065 C   0  0  0  0  0  0  0  0  0  0  0  0
   20.7919   -6.2730  -14.8840 C   0  0  0  0  0  0  0  0  0  0  0  0
   20.8847   -6.2017  -16.1294 O   0  0  0  0  0  0  0  0  0  0  0  0
   20.1293   -5.3091  -14.1381 O   0  0  0  0  0  0  0  0  0  0  0  0
  2  9  1  0
  2  1  1  1
  3  2  1  0
  4  5  2  0
  4  3  1  0
  6  5  1  0
  7  8  2  0
  7  6  1  0
  8  4  1  0
  9 10  2  0
 11 12  1  0
 12 14  1  0
 13 12  2  0
 15 14  1  6
 15 17  1  0
 16  9  1  0
 16 15  1  0
 17 19  1  0
 18 17  2  0
 19 20  1  0
 20 21  1  0
 21 22  2  0
 21 23  1  0
M  END
$$$$
