HNG.pdb
     RDKit          3D

 23 23  0  0  1  0  0  0  0  0999 V2000
   17.8065  -13.0726  -16.4029 N   0  0  0  0  0  0  0  0  0  0  0  0
   16.9521  -11.9598  -16.1454 C   0  0  1  0  0  0  0  0  0  0  0  0
   15.7037  -12.3425  -15.3798 C   0  0  0  0  0  0  0  0  0  0  0  0
   14.9146  -13.3427  -16.1516 C   0  0  0  0  0  0  0  0  0  0  0  0
   14.4576  -13.1737  -17.4413 C   0  0  0  0  0  0  0  0  0  0  0  0
   13.7914  -14.2777  -17.8009 N   0  0  0  0  0  0  0  0  0  0  0  0
   13.8300  -15.1229  -16.7563 C   0  0  0  0  0  0  0  0  0  0  0  0
   14.5141  -14.5483  -15.7576 N   0  0  0  0  0  0  0  0  0  0  0  0
   17.7028  -10.9040  -15.4220 C   0  0  0  0  0  0  0  0  0  0  0  0
   17.4605  -10.7048  -14.2242 O   0  0  0  0  0  0  0  0  0  0  0  0
   21.0730   -7.2308  -14.0442 N   0  0  0  0  0  0  0  0  0  0  0  0
   21.6946   -8.3742  -14.6149 C   0  0  0  0  0  0  0  0  0  0  0  0
   22.9346   -8.4948  -14.4651 O   0  0  0  0  0  0  0  0  0  0  0  0
   20.9199   -9.3926  -15.3608 C   0  0  0  0  0  0  0  0  0  0  0  0
   19.4614   -9.0748  -15.3746 C   0  0  2  0  0  0  0  0  0  0  0  0
   18.6946  -10.1046  -16.0442 N   0  0  0  0  0  0  0  0  0  0  0  0
   19.1795   -7.7380  -15.9808 C   0  0  0  0  0  0  0  0  0  0  0  0
   19.5327   -7.4062  -17.1228 O   0  0  0  0  0  0  0  0  0  0  0  0
   18.4600   -6.7766  -15.2060 N   0  0  0  0  0  0  0  0  0  0  0  0
   18.0518   -5.5024  -15.7355 C   0  0  0  0  0  0  0  0  0  0  0  0
   18.8760   -4.3843  -15.2107 C   0  0  0  0  0  0  0  0  0  0  0  0
   18.5882   -3.2234  -15.5774 O   0  0  0  0  0  0  0  0  0  0  0  0
   19.9265   -4.6437  -14.3426 O   0  0  0  0  0  0  0  0  0  0  0  0
  2  9  1  0
  2  1  1  1
  3  2  1  0
  4  5  2  0
  4  3  1  0
  6  5  1  0
  7  8  2  0
  7  6  1  0
  8  4  1  0
  9 10  2  0
 11 12  1  0
 12 14  1  0
 13 12  2  0
 15 14  1  6
 15 17  1  0
 16  9  1  0
 16 15  1  0
 17 19  1  0
 18 17  2  0
 19 20  1  0
 20 21  1  0
 21 22  2  0
 21 23  1  0
M  END
$$$$
