HNG.pdb
     RDKit          3D

 23 23  0  0  1  0  0  0  0  0999 V2000
   23.9555  -17.0791  -17.0658 N   0  0  0  0  0  0  0  0  0  0  0  0
   24.0492  -18.1748  -16.1573 C   0  0  1  0  0  0  0  0  0  0  0  0
   25.2282  -18.0578  -15.2154 C   0  0  0  0  0  0  0  0  0  0  0  0
   26.5049  -18.1481  -15.9774 C   0  0  0  0  0  0  0  0  0  0  0  0
   26.6084  -18.3247  -17.3408 C   0  0  0  0  0  0  0  0  0  0  0  0
   27.9068  -18.3578  -17.6645 N   0  0  0  0  0  0  0  0  0  0  0  0
   28.6042  -18.2049  -16.5256 C   0  0  0  0  0  0  0  0  0  0  0  0
   27.7460  -18.0780  -15.5044 N   0  0  0  0  0  0  0  0  0  0  0  0
   22.7841  -18.3065  -15.3933 C   0  0  0  0  0  0  0  0  0  0  0  0
   22.4019  -17.3605  -14.6919 O   0  0  0  0  0  0  0  0  0  0  0  0
   20.0493  -17.5438  -16.5370 N   0  0  0  0  0  0  0  0  0  0  0  0
   19.3261  -18.7624  -16.6445 C   0  0  0  0  0  0  0  0  0  0  0  0
   18.4251  -18.8263  -17.5155 O   0  0  0  0  0  0  0  0  0  0  0  0
   19.6148  -19.9208  -15.7679 C   0  0  0  0  0  0  0  0  0  0  0  0
   20.6948  -19.6124  -14.7845 C   0  0  2  0  0  0  0  0  0  0  0  0
   21.9842  -19.4765  -15.4292 N   0  0  0  0  0  0  0  0  0  0  0  0
   20.7654  -20.6237  -13.6862 C   0  0  0  0  0  0  0  0  0  0  0  0
   21.5181  -21.6097  -13.6989 O   0  0  0  0  0  0  0  0  0  0  0  0
   19.9184  -20.4535  -12.5479 N   0  0  0  0  0  0  0  0  0  0  0  0
   19.9320  -21.3579  -11.4288 C   0  0  0  0  0  0  0  0  0  0  0  0
   19.2992  -22.6620  -11.7508 C   0  0  0  0  0  0  0  0  0  0  0  0
   18.9471  -22.8649  -12.9339 O   0  0  0  0  0  0  0  0  0  0  0  0
   19.1150  -23.6095  -10.7544 O   0  0  0  0  0  0  0  0  0  0  0  0
  2  9  1  0
  2  1  1  1
  3  2  1  0
  4  5  2  0
  4  3  1  0
  6  5  1  0
  7  8  2  0
  7  6  1  0
  8  4  1  0
  9 10  2  0
 11 12  1  0
 12 14  1  0
 13 12  2  0
 15 14  1  6
 15 17  1  0
 16  9  1  0
 16 15  1  0
 17 19  1  0
 18 17  2  0
 19 20  1  0
 20 21  1  0
 21 22  2  0
 21 23  1  0
M  END
$$$$
