HNG.pdb
     RDKit          3D

 23 23  0  0  1  0  0  0  0  0999 V2000
   23.9357  -12.3752  -17.4725 N   0  0  0  0  0  0  0  0  0  0  0  0
   24.2226  -11.3926  -16.4791 C   0  0  1  0  0  0  0  0  0  0  0  0
   25.6166  -10.8168  -16.6077 C   0  0  0  0  0  0  0  0  0  0  0  0
   26.6341  -11.8718  -16.3426 C   0  0  0  0  0  0  0  0  0  0  0  0
   26.4585  -12.9575  -15.5114 C   0  0  0  0  0  0  0  0  0  0  0  0
   27.5829  -13.6837  -15.5225 N   0  0  0  0  0  0  0  0  0  0  0  0
   28.4473  -13.0649  -16.3452 C   0  0  0  0  0  0  0  0  0  0  0  0
   27.8642  -11.9646  -16.8401 N   0  0  0  0  0  0  0  0  0  0  0  0
   23.2068  -10.3123  -16.5298 C   0  0  0  0  0  0  0  0  0  0  0  0
   22.9522   -9.7742  -17.6155 O   0  0  0  0  0  0  0  0  0  0  0  0
   19.3683  -11.7138  -15.1198 N   0  0  0  0  0  0  0  0  0  0  0  0
   19.6117  -10.4158  -15.6448 C   0  0  0  0  0  0  0  0  0  0  0  0
   19.3106  -10.2109  -16.8456 O   0  0  0  0  0  0  0  0  0  0  0  0
   20.1981   -9.3368  -14.8169 C   0  0  0  0  0  0  0  0  0  0  0  0
   21.4832   -8.8386  -15.3902 C   0  0  2  0  0  0  0  0  0  0  0  0
   22.5069   -9.8627  -15.3818 N   0  0  0  0  0  0  0  0  0  0  0  0
   21.9720   -7.6075  -14.6976 C   0  0  0  0  0  0  0  0  0  0  0  0
   22.2898   -7.5662  -13.4992 O   0  0  0  0  0  0  0  0  0  0  0  0
   22.0836   -6.3996  -15.4531 N   0  0  0  0  0  0  0  0  0  0  0  0
   22.6161   -5.1838  -14.8975 C   0  0  0  0  0  0  0  0  0  0  0  0
   21.5737   -4.3685  -14.2239 C   0  0  0  0  0  0  0  0  0  0  0  0
   20.4009   -4.8036  -14.2230 O   0  0  0  0  0  0  0  0  0  0  0  0
   21.9140   -3.1659  -13.6218 O   0  0  0  0  0  0  0  0  0  0  0  0
  2  9  1  0
  2  1  1  6
  3  2  1  0
  4  5  2  0
  4  3  1  0
  6  5  1  0
  7  8  2  0
  7  6  1  0
  8  4  1  0
  9 10  2  0
 11 12  1  0
 12 14  1  0
 13 12  2  0
 15 14  1  1
 15 17  1  0
 16  9  1  0
 16 15  1  0
 17 19  1  0
 18 17  2  0
 19 20  1  0
 20 21  1  0
 21 22  2  0
 21 23  1  0
M  END
$$$$
