PTG.pdb
     RDKit          3D

 19 19  0  0  1  0  0  0  0  0999 V2000
    7.3802  -15.2995   19.1007 N   0  0  0  0  0  0  0  0  0  0  0  0
    6.4901  -14.3593   18.4456 C   0  0  0  0  0  0  0  0  0  0  0  0
    7.1691  -13.0266   18.7727 C   0  0  0  0  0  0  0  0  0  0  0  0
    8.6222  -13.3863   18.4351 C   0  0  0  0  0  0  0  0  0  0  0  0
    8.7030  -14.7831   19.0265 C   0  0  1  0  0  0  0  0  0  0  0  0
    9.3543  -14.6422   20.3575 C   0  0  0  0  0  0  0  0  0  0  0  0
   10.4714  -14.1455   20.5372 O   0  0  0  0  0  0  0  0  0  0  0  0
    7.6174  -13.1743   23.3888 C   0  0  0  0  0  0  0  0  0  0  0  0
    8.2170  -14.5002   23.7739 C   0  0  1  0  0  0  0  0  0  0  0  0
    7.1493  -15.3443   24.0834 O   0  0  0  0  0  0  0  0  0  0  0  0
    9.1647  -15.0830   22.8008 C   0  0  2  0  0  0  0  0  0  0  0  0
    8.6202  -15.1184   21.4746 N   0  0  0  0  0  0  0  0  0  0  0  0
    9.8962  -16.2798   23.2318 C   0  0  0  0  0  0  0  0  0  0  0  0
    9.2432  -17.3692   23.2460 O   0  0  0  0  0  0  0  0  0  0  0  0
   11.2343  -16.3336   23.6308 N   0  0  0  0  0  0  0  0  0  0  0  0
   11.8982  -17.5665   24.0398 C   0  0  0  0  0  0  0  0  0  0  0  0
   13.3233  -17.3353   24.3579 C   0  0  0  0  0  0  0  0  0  0  0  0
   13.7665  -16.1709   24.1941 O   0  0  0  0  0  0  0  0  0  0  0  0
   14.1908  -18.3021   24.8179 O   0  0  0  0  0  0  0  0  0  0  0  0
  1  2  1  0
  3  2  1  0
  4  3  1  0
  4  5  1  0
  5  6  1  1
  5  1  1  0
  6 12  1  0
  7  6  2  0
  9  8  1  6
 10  9  1  0
 11  9  1  0
 11 13  1  0
 11 12  1  6
 13 15  1  0
 13 14  2  0
 15 16  1  0
 16 17  1  0
 17 18  2  0
 17 19  1  0
M  END
$$$$
