PTG.pdb
     RDKit          3D

 19 19  0  0  1  0  0  0  0  0999 V2000
    8.1197  -13.8685   17.9917 N   0  0  0  0  0  0  0  0  0  0  0  0
    7.0953  -13.0765   18.6467 C   0  0  0  0  0  0  0  0  0  0  0  0
    7.7711  -12.7595   19.9834 C   0  0  0  0  0  0  0  0  0  0  0  0
    9.1559  -12.3321   19.4790 C   0  0  0  0  0  0  0  0  0  0  0  0
    9.3896  -13.3776   18.4019 C   0  0  1  0  0  0  0  0  0  0  0  0
   10.2561  -14.4244   19.0091 C   0  0  0  0  0  0  0  0  0  0  0  0
    9.8374  -15.4850   19.4854 O   0  0  0  0  0  0  0  0  0  0  0  0
   14.8900  -16.1147   19.1527 C   0  0  0  0  0  0  0  0  0  0  0  0
   13.8351  -15.1367   18.7095 C   0  0  1  0  0  0  0  0  0  0  0  0
   13.6204  -15.3725   17.3507 O   0  0  0  0  0  0  0  0  0  0  0  0
   12.5917  -15.1279   19.5088 C   0  0  2  0  0  0  0  0  0  0  0  0
   11.6499  -14.1593   19.0279 N   0  0  0  0  0  0  0  0  0  0  0  0
   12.7464  -15.2118   20.9656 C   0  0  0  0  0  0  0  0  0  0  0  0
   13.2855  -14.2137   21.5371 O   0  0  0  0  0  0  0  0  0  0  0  0
   12.3636  -16.2818   21.7788 N   0  0  0  0  0  0  0  0  0  0  0  0
   12.5415  -16.2898   23.2266 C   0  0  0  0  0  0  0  0  0  0  0  0
   13.4817  -17.3486   23.6516 C   0  0  0  0  0  0  0  0  0  0  0  0
   13.9988  -18.0534   22.7489 O   0  0  0  0  0  0  0  0  0  0  0  0
   13.8262  -17.6124   24.9596 O   0  0  0  0  0  0  0  0  0  0  0  0
  1  2  1  0
  3  2  1  0
  4  3  1  0
  4  5  1  0
  5  6  1  1
  5  1  1  0
  6 12  1  0
  7  6  2  0
  9  8  1  1
 10  9  1  0
 11  9  1  0
 11 13  1  0
 11 12  1  1
 13 15  1  0
 13 14  2  0
 15 16  1  0
 16 17  1  0
 17 18  2  0
 17 19  1  0
M  END
$$$$
