PTG.pdb
     RDKit          3D

 19 19  0  0  1  0  0  0  0  0999 V2000
    8.6257  -14.7149   19.4241 N   0  0  0  0  0  0  0  0  0  0  0  0
    7.7101  -13.9829   18.5688 C   0  0  0  0  0  0  0  0  0  0  0  0
    6.9815  -13.1065   19.5911 C   0  0  0  0  0  0  0  0  0  0  0  0
    8.1832  -12.5915   20.3944 C   0  0  0  0  0  0  0  0  0  0  0  0
    9.0101  -13.8619   20.4948 C   0  0  1  0  0  0  0  0  0  0  0  0
    8.7330  -14.4423   21.8371 C   0  0  0  0  0  0  0  0  0  0  0  0
    8.8350  -13.8198   22.8997 O   0  0  0  0  0  0  0  0  0  0  0  0
    6.5993  -17.9994   24.4100 C   0  0  0  0  0  0  0  0  0  0  0  0
    6.9845  -17.3968   23.0856 C   0  0  1  0  0  0  0  0  0  0  0  0
    5.8375  -16.7831   22.5795 O   0  0  0  0  0  0  0  0  0  0  0  0
    8.1670  -16.5101   23.1035 C   0  0  2  0  0  0  0  0  0  0  0  0
    8.3269  -15.8016   21.8670 N   0  0  0  0  0  0  0  0  0  0  0  0
    9.3913  -17.0593   23.6972 C   0  0  0  0  0  0  0  0  0  0  0  0
   10.3570  -17.2811   22.9024 O   0  0  0  0  0  0  0  0  0  0  0  0
    9.5929  -17.3647   25.0459 N   0  0  0  0  0  0  0  0  0  0  0  0
   10.8440  -17.9060   25.5652 C   0  0  0  0  0  0  0  0  0  0  0  0
   10.8075  -18.0398   27.0370 C   0  0  0  0  0  0  0  0  0  0  0  0
    9.7570  -17.6733   27.6209 O   0  0  0  0  0  0  0  0  0  0  0  0
   11.8390  -18.5351   27.8051 O   0  0  0  0  0  0  0  0  0  0  0  0
  1  2  1  0
  3  2  1  0
  4  3  1  0
  4  5  1  0
  5  6  1  1
  5  1  1  0
  6 12  1  0
  7  6  2  0
  9  8  1  1
 10  9  1  0
 11  9  1  0
 11 13  1  0
 11 12  1  6
 13 15  1  0
 13 14  2  0
 15 16  1  0
 16 17  1  0
 17 18  2  0
 17 19  1  0
M  END
$$$$
