PTG.pdb
     RDKit          3D

 19 19  0  0  1  0  0  0  0  0999 V2000
    8.0443  -14.0940   17.9433 N   0  0  0  0  0  0  0  0  0  0  0  0
    7.2055  -12.9409   18.2121 C   0  0  0  0  0  0  0  0  0  0  0  0
    7.3699  -12.7979   19.7276 C   0  0  0  0  0  0  0  0  0  0  0  0
    8.8941  -12.9380   19.8374 C   0  0  0  0  0  0  0  0  0  0  0  0
    9.1366  -14.0695   18.8533 C   0  0  1  0  0  0  0  0  0  0  0  0
    9.2568  -15.3142   19.6607 C   0  0  0  0  0  0  0  0  0  0  0  0
    8.3033  -16.0331   19.9786 O   0  0  0  0  0  0  0  0  0  0  0  0
   11.7176  -19.1898   20.8341 C   0  0  0  0  0  0  0  0  0  0  0  0
   11.6373  -17.8343   20.1845 C   0  0  1  0  0  0  0  0  0  0  0  0
   11.2525  -18.0505   18.8603 O   0  0  0  0  0  0  0  0  0  0  0  0
   10.8021  -16.8356   20.8843 C   0  0  2  0  0  0  0  0  0  0  0  0
   10.5644  -15.6735   20.0784 N   0  0  0  0  0  0  0  0  0  0  0  0
   11.1159  -16.5902   22.2966 C   0  0  0  0  0  0  0  0  0  0  0  0
   12.1406  -15.8782   22.5344 O   0  0  0  0  0  0  0  0  0  0  0  0
   10.4015  -17.0671   23.3987 N   0  0  0  0  0  0  0  0  0  0  0  0
   10.6394  -16.6120   24.7641 C   0  0  0  0  0  0  0  0  0  0  0  0
   11.6414  -17.4553   25.4500 C   0  0  0  0  0  0  0  0  0  0  0  0
   12.1225  -18.4179   24.8011 O   0  0  0  0  0  0  0  0  0  0  0  0
   12.0796  -17.2586   26.7416 O   0  0  0  0  0  0  0  0  0  0  0  0
  1  2  1  0
  3  2  1  0
  4  3  1  0
  4  5  1  0
  5  6  1  1
  5  1  1  0
  6 12  1  0
  7  6  2  0
  9  8  1  1
 10  9  1  0
 11  9  1  0
 11 13  1  0
 11 12  1  6
 13 15  1  0
 13 14  2  0
 15 16  1  0
 16 17  1  0
 17 18  2  0
 17 19  1  0
M  END
$$$$
