PTG.pdb
     RDKit          3D

 19 19  0  0  1  0  0  0  0  0999 V2000
    5.7867  -12.3185   25.6407 N   0  0  0  0  0  0  0  0  0  0  0  0
    5.3427  -11.6910   26.8714 C   0  0  0  0  0  0  0  0  0  0  0  0
    6.3863  -12.2089   27.8648 C   0  0  0  0  0  0  0  0  0  0  0  0
    7.6640  -11.9592   27.0524 C   0  0  0  0  0  0  0  0  0  0  0  0
    7.2054  -12.4089   25.6758 C   0  0  1  0  0  0  0  0  0  0  0  0
    7.7104  -13.7972   25.4939 C   0  0  0  0  0  0  0  0  0  0  0  0
    7.7826  -14.6361   26.3984 O   0  0  0  0  0  0  0  0  0  0  0  0
    7.3043  -15.0589   21.6962 C   0  0  0  0  0  0  0  0  0  0  0  0
    8.4205  -15.7681   22.4151 C   0  0  1  0  0  0  0  0  0  0  0  0
    9.5899  -15.4902   21.7055 O   0  0  0  0  0  0  0  0  0  0  0  0
    8.5305  -15.4901   23.8626 C   0  0  2  0  0  0  0  0  0  0  0  0
    8.1293  -14.1517   24.1854 N   0  0  0  0  0  0  0  0  0  0  0  0
    9.7366  -15.9842   24.5368 C   0  0  0  0  0  0  0  0  0  0  0  0
   10.6955  -15.1602   24.6596 O   0  0  0  0  0  0  0  0  0  0  0  0
    9.9312  -17.2695   25.0493 N   0  0  0  0  0  0  0  0  0  0  0  0
   11.1404  -17.6735   25.7582 C   0  0  0  0  0  0  0  0  0  0  0  0
   11.0161  -19.0405   26.3074 C   0  0  0  0  0  0  0  0  0  0  0  0
   10.7671  -19.9655   25.4941 O   0  0  0  0  0  0  0  0  0  0  0  0
   11.1536  -19.3658   27.6394 O   0  0  0  0  0  0  0  0  0  0  0  0
  1  2  1  0
  3  2  1  0
  4  3  1  0
  4  5  1  0
  5  6  1  1
  5  1  1  0
  6 12  1  0
  7  6  2  0
  9  8  1  6
 10  9  1  0
 11  9  1  0
 11 13  1  0
 11 12  1  6
 13 15  1  0
 13 14  2  0
 15 16  1  0
 16 17  1  0
 17 18  2  0
 17 19  1  0
M  END
$$$$
