PTG.pdb
     RDKit          3D

 19 19  0  0  1  0  0  0  0  0999 V2000
    7.3105  -15.3504   19.3498 N   0  0  0  0  0  0  0  0  0  0  0  0
    6.4042  -14.4127   18.7134 C   0  0  0  0  0  0  0  0  0  0  0  0
    7.0259  -13.0736   19.1187 C   0  0  0  0  0  0  0  0  0  0  0  0
    8.4992  -13.3663   18.8053 C   0  0  0  0  0  0  0  0  0  0  0  0
    8.6152  -14.7852   19.3353 C   0  0  1  0  0  0  0  0  0  0  0  0
    9.2263  -14.6829   20.6886 C   0  0  0  0  0  0  0  0  0  0  0  0
   10.3290  -14.1747   20.9183 O   0  0  0  0  0  0  0  0  0  0  0  0
    8.4063  -14.4887   25.4731 C   0  0  0  0  0  0  0  0  0  0  0  0
    7.9227  -14.7907   24.0801 C   0  0  1  0  0  0  0  0  0  0  0  0
    7.1792  -13.6834   23.6687 O   0  0  0  0  0  0  0  0  0  0  0  0
    8.9648  -15.1923   23.1118 C   0  0  2  0  0  0  0  0  0  0  0  0
    8.4698  -15.2122   21.7661 N   0  0  0  0  0  0  0  0  0  0  0  0
    9.8258  -16.3150   23.5009 C   0  0  0  0  0  0  0  0  0  0  0  0
    9.2599  -17.4445   23.6328 O   0  0  0  0  0  0  0  0  0  0  0  0
   11.2007  -16.2588   23.7439 N   0  0  0  0  0  0  0  0  0  0  0  0
   11.9818  -17.4070   24.1906 C   0  0  0  0  0  0  0  0  0  0  0  0
   13.4086  -17.0592   24.3609 C   0  0  0  0  0  0  0  0  0  0  0  0
   13.7479  -15.8796   24.0923 O   0  0  0  0  0  0  0  0  0  0  0  0
   14.3829  -17.9340   24.7906 O   0  0  0  0  0  0  0  0  0  0  0  0
  1  2  1  0
  3  2  1  0
  4  3  1  0
  4  5  1  0
  5  6  1  1
  5  1  1  0
  6 12  1  0
  7  6  2  0
  9  8  1  1
 10  9  1  0
 11  9  1  0
 11 13  1  0
 11 12  1  6
 13 15  1  0
 13 14  2  0
 15 16  1  0
 16 17  1  0
 17 18  2  0
 17 19  1  0
M  END
$$$$
