PTG.pdb
     RDKit          3D

 19 19  0  0  1  0  0  0  0  0999 V2000
    7.5658  -15.1433   19.5995 N   0  0  0  0  0  0  0  0  0  0  0  0
    6.7233  -14.2024   18.8851 C   0  0  0  0  0  0  0  0  0  0  0  0
    7.2521  -12.8663   19.4135 C   0  0  0  0  0  0  0  0  0  0  0  0
    8.7607  -13.1142   19.2820 C   0  0  0  0  0  0  0  0  0  0  0  0
    8.8461  -14.5493   19.7726 C   0  0  1  0  0  0  0  0  0  0  0  0
    9.2765  -14.4852   21.1960 C   0  0  0  0  0  0  0  0  0  0  0  0
   10.3144  -13.9395   21.5859 O   0  0  0  0  0  0  0  0  0  0  0  0
    7.6303  -12.9651   23.9537 C   0  0  0  0  0  0  0  0  0  0  0  0
    7.8549  -14.3902   24.3831 C   0  0  1  0  0  0  0  0  0  0  0  0
    6.5915  -14.9664   24.5246 O   0  0  0  0  0  0  0  0  0  0  0  0
    8.7699  -15.1802   23.5327 C   0  0  2  0  0  0  0  0  0  0  0  0
    8.4186  -15.0995   22.1447 N   0  0  0  0  0  0  0  0  0  0  0  0
    9.1449  -16.5093   24.0287 C   0  0  0  0  0  0  0  0  0  0  0  0
    8.4873  -17.4932   23.5673 O   0  0  0  0  0  0  0  0  0  0  0  0
   10.1479  -16.7934   24.9593 N   0  0  0  0  0  0  0  0  0  0  0  0
   10.3914  -18.1302   25.4900 C   0  0  0  0  0  0  0  0  0  0  0  0
   11.4125  -18.1116   26.5590 C   0  0  0  0  0  0  0  0  0  0  0  0
   11.9102  -16.9972   26.8582 O   0  0  0  0  0  0  0  0  0  0  0  0
   11.8514  -19.2242   27.2435 O   0  0  0  0  0  0  0  0  0  0  0  0
  1  2  1  0
  3  2  1  0
  4  3  1  0
  4  5  1  0
  5  6  1  1
  5  1  1  0
  6 12  1  0
  7  6  2  0
  9  8  1  6
 10  9  1  0
 11  9  1  0
 11 13  1  0
 11 12  1  6
 13 15  1  0
 13 14  2  0
 15 16  1  0
 16 17  1  0
 17 18  2  0
 17 19  1  0
M  END
$$$$
