PTG.pdb
     RDKit          3D

 19 19  0  0  1  0  0  0  0  0999 V2000
    7.9514  -18.2648   19.7631 N   0  0  0  0  0  0  0  0  0  0  0  0
    6.9833  -18.1515   18.6881 C   0  0  0  0  0  0  0  0  0  0  0  0
    7.1543  -16.6844   18.2849 C   0  0  0  0  0  0  0  0  0  0  0  0
    8.6858  -16.6085   18.2258 C   0  0  0  0  0  0  0  0  0  0  0  0
    9.0476  -17.4098   19.4646 C   0  0  1  0  0  0  0  0  0  0  0  0
    9.3315  -16.4210   20.5403 C   0  0  0  0  0  0  0  0  0  0  0  0
   10.2266  -15.5707   20.4862 O   0  0  0  0  0  0  0  0  0  0  0  0
    7.1610  -13.8227   21.8341 C   0  0  0  0  0  0  0  0  0  0  0  0
    7.5201  -14.7067   22.9983 C   0  0  1  0  0  0  0  0  0  0  0  0
    6.3574  -15.3950   23.3482 O   0  0  0  0  0  0  0  0  0  0  0  0
    8.6885  -15.5895   22.7975 C   0  0  2  0  0  0  0  0  0  0  0  0
    8.5038  -16.4830   21.6911 N   0  0  0  0  0  0  0  0  0  0  0  0
    9.2889  -16.1697   24.0042 C   0  0  0  0  0  0  0  0  0  0  0  0
    8.4904  -16.4790   24.9424 O   0  0  0  0  0  0  0  0  0  0  0  0
   10.6487  -16.4081   24.2201 N   0  0  0  0  0  0  0  0  0  0  0  0
   11.1739  -16.9849   25.4528 C   0  0  0  0  0  0  0  0  0  0  0  0
   12.6416  -17.1515   25.3913 C   0  0  0  0  0  0  0  0  0  0  0  0
   13.2215  -16.7534   24.3500 O   0  0  0  0  0  0  0  0  0  0  0  0
   13.4099  -17.7091   26.3902 O   0  0  0  0  0  0  0  0  0  0  0  0
  1  2  1  0
  3  2  1  0
  4  3  1  0
  4  5  1  0
  5  6  1  1
  5  1  1  0
  6 12  1  0
  7  6  2  0
  9  8  1  6
 10  9  1  0
 11  9  1  0
 11 13  1  0
 11 12  1  6
 13 15  1  0
 13 14  2  0
 15 16  1  0
 16 17  1  0
 17 18  2  0
 17 19  1  0
M  END
$$$$
