PTG.pdb
     RDKit          3D

 19 19  0  0  1  0  0  0  0  0999 V2000
    8.3344  -14.0333   20.8132 N   0  0  0  0  0  0  0  0  0  0  0  0
    7.9101  -14.8931   19.7241 C   0  0  0  0  0  0  0  0  0  0  0  0
    7.0821  -15.9399   20.4743 C   0  0  0  0  0  0  0  0  0  0  0  0
    6.2428  -15.0156   21.3666 C   0  0  0  0  0  0  0  0  0  0  0  0
    7.2991  -14.0083   21.7875 C   0  0  1  0  0  0  0  0  0  0  0  0
    7.7579  -14.4175   23.1431 C   0  0  0  0  0  0  0  0  0  0  0  0
    8.7986  -15.0454   23.3661 O   0  0  0  0  0  0  0  0  0  0  0  0
    6.7957  -12.0007   26.3204 C   0  0  0  0  0  0  0  0  0  0  0  0
    6.6072  -13.4755   26.5553 C   0  0  1  0  0  0  0  0  0  0  0  0
    5.2315  -13.6892   26.6560 O   0  0  0  0  0  0  0  0  0  0  0  0
    7.2720  -14.3703   25.5847 C   0  0  2  0  0  0  0  0  0  0  0  0
    6.9251  -14.0484   24.2310 N   0  0  0  0  0  0  0  0  0  0  0  0
    7.3043  -15.7980   25.9221 C   0  0  0  0  0  0  0  0  0  0  0  0
    6.4044  -16.5251   25.3977 O   0  0  0  0  0  0  0  0  0  0  0  0
    8.2228  -16.4292   26.7651 N   0  0  0  0  0  0  0  0  0  0  0  0
    8.1877  -17.8575   27.0598 C   0  0  0  0  0  0  0  0  0  0  0  0
    9.1833  -18.2232   28.0898 C   0  0  0  0  0  0  0  0  0  0  0  0
    9.9228  -17.3053   28.5250 O   0  0  0  0  0  0  0  0  0  0  0  0
    9.3533  -19.4919   28.6003 O   0  0  0  0  0  0  0  0  0  0  0  0
  1  2  1  0
  3  2  1  0
  4  3  1  0
  4  5  1  0
  5  6  1  1
  5  1  1  0
  6 12  1  0
  7  6  2  0
  9  8  1  6
 10  9  1  0
 11  9  1  0
 11 13  1  0
 11 12  1  6
 13 15  1  0
 13 14  2  0
 15 16  1  0
 16 17  1  0
 17 18  2  0
 17 19  1  0
M  END
$$$$
