PTG.pdb
     RDKit          3D

 19 19  0  0  1  0  0  0  0  0999 V2000
    7.0155  -15.8205   22.3979 N   0  0  0  0  0  0  0  0  0  0  0  0
    6.3708  -15.2585   21.2256 C   0  0  0  0  0  0  0  0  0  0  0  0
    7.0479  -13.8880   21.1398 C   0  0  0  0  0  0  0  0  0  0  0  0
    8.5104  -14.3085   21.3371 C   0  0  0  0  0  0  0  0  0  0  0  0
    8.3524  -15.3383   22.4426 C   0  0  1  0  0  0  0  0  0  0  0  0
    8.6849  -14.6454   23.7173 C   0  0  0  0  0  0  0  0  0  0  0  0
    9.7500  -14.0573   23.9331 O   0  0  0  0  0  0  0  0  0  0  0  0
    6.3880  -12.0004   25.5113 C   0  0  0  0  0  0  0  0  0  0  0  0
    6.6748  -13.2120   26.3572 C   0  0  1  0  0  0  0  0  0  0  0  0
    5.5026  -13.9695   26.3766 O   0  0  0  0  0  0  0  0  0  0  0  0
    7.8724  -13.9908   25.9780 C   0  0  2  0  0  0  0  0  0  0  0  0
    7.6944  -14.6793   24.7327 N   0  0  0  0  0  0  0  0  0  0  0  0
    8.5288  -14.7499   27.0486 C   0  0  0  0  0  0  0  0  0  0  0  0
    8.8628  -14.0957   28.0850 O   0  0  0  0  0  0  0  0  0  0  0  0
    8.8243  -16.1156   27.0344 N   0  0  0  0  0  0  0  0  0  0  0  0
    9.4957  -16.8003   28.1337 C   0  0  0  0  0  0  0  0  0  0  0  0
   10.5623  -17.6984   27.6424 C   0  0  0  0  0  0  0  0  0  0  0  0
   10.8658  -17.6175   26.4257 O   0  0  0  0  0  0  0  0  0  0  0  0
   11.2402  -18.6104   28.4221 O   0  0  0  0  0  0  0  0  0  0  0  0
  1  2  1  0
  3  2  1  0
  4  3  1  0
  4  5  1  0
  5  6  1  1
  5  1  1  0
  6 12  1  0
  7  6  2  0
  9  8  1  6
 10  9  1  0
 11  9  1  0
 11 13  1  0
 11 12  1  6
 13 15  1  0
 13 14  2  0
 15 16  1  0
 16 17  1  0
 17 18  2  0
 17 19  1  0
M  END
$$$$
