PTG.pdb
     RDKit          3D

 19 19  0  0  1  0  0  0  0  0999 V2000
    8.2167  -13.4400   16.9573 N   0  0  0  0  0  0  0  0  0  0  0  0
    8.3784  -14.1022   15.6763 C   0  0  0  0  0  0  0  0  0  0  0  0
    8.8247  -15.4993   16.1159 C   0  0  0  0  0  0  0  0  0  0  0  0
    7.7962  -15.7634   17.2237 C   0  0  0  0  0  0  0  0  0  0  0  0
    7.7687  -14.4042   17.9015 C   0  0  1  0  0  0  0  0  0  0  0  0
    8.6493  -14.5094   19.0968 C   0  0  0  0  0  0  0  0  0  0  0  0
    9.8522  -14.2261   19.1029 O   0  0  0  0  0  0  0  0  0  0  0  0
    7.0964  -13.4687   22.6381 C   0  0  0  0  0  0  0  0  0  0  0  0
    7.8849  -14.7497   22.6933 C   0  0  1  0  0  0  0  0  0  0  0  0
    6.9667  -15.7711   22.9419 O   0  0  0  0  0  0  0  0  0  0  0  0
    8.7603  -15.0152   21.5323 C   0  0  2  0  0  0  0  0  0  0  0  0
    8.0398  -14.9678   20.2933 N   0  0  0  0  0  0  0  0  0  0  0  0
    9.7288  -16.1082   21.6759 C   0  0  0  0  0  0  0  0  0  0  0  0
    9.4182  -17.2157   21.1369 O   0  0  0  0  0  0  0  0  0  0  0  0
   10.9514  -16.0482   22.3499 N   0  0  0  0  0  0  0  0  0  0  0  0
   11.8225  -17.2041   22.5314 C   0  0  0  0  0  0  0  0  0  0  0  0
   13.1021  -16.8245   23.1671 C   0  0  0  0  0  0  0  0  0  0  0  0
   13.2855  -15.6042   23.4043 O   0  0  0  0  0  0  0  0  0  0  0  0
   14.0985  -17.7109   23.5141 O   0  0  0  0  0  0  0  0  0  0  0  0
  1  2  1  0
  3  2  1  0
  4  3  1  0
  4  5  1  0
  5  6  1  1
  5  1  1  0
  6 12  1  0
  7  6  2  0
  9  8  1  6
 10  9  1  0
 11  9  1  0
 11 13  1  0
 11 12  1  6
 13 15  1  0
 13 14  2  0
 15 16  1  0
 16 17  1  0
 17 18  2  0
 17 19  1  0
M  END
$$$$
