PTG.pdb
     RDKit          3D

 19 19  0  0  1  0  0  0  0  0999 V2000
    9.1772  -14.2281   18.4500 N   0  0  0  0  0  0  0  0  0  0  0  0
    8.2816  -13.8223   17.3828 C   0  0  0  0  0  0  0  0  0  0  0  0
    7.1375  -13.1870   18.1776 C   0  0  0  0  0  0  0  0  0  0  0  0
    7.9478  -12.3188   19.1495 C   0  0  0  0  0  0  0  0  0  0  0  0
    9.0706  -13.2789   19.5033 C   0  0  1  0  0  0  0  0  0  0  0  0
    8.7082  -13.8905   20.8110 C   0  0  0  0  0  0  0  0  0  0  0  0
    8.2880  -13.2555   21.7843 O   0  0  0  0  0  0  0  0  0  0  0  0
    6.4760  -16.8834   21.2209 C   0  0  0  0  0  0  0  0  0  0  0  0
    7.7424  -17.1445   21.9914 C   0  0  1  0  0  0  0  0  0  0  0  0
    8.3548  -18.2443   21.3883 O   0  0  0  0  0  0  0  0  0  0  0  0
    8.6447  -15.9853   22.1554 C   0  0  2  0  0  0  0  0  0  0  0  0
    8.8661  -15.2966   20.9172 N   0  0  0  0  0  0  0  0  0  0  0  0
    9.8248  -16.1860   23.0040 C   0  0  0  0  0  0  0  0  0  0  0  0
   10.9214  -16.4155   22.4053 O   0  0  0  0  0  0  0  0  0  0  0  0
    9.8558  -16.1538   24.4006 N   0  0  0  0  0  0  0  0  0  0  0  0
   11.0871  -16.2568   25.1761 C   0  0  0  0  0  0  0  0  0  0  0  0
   11.4208  -17.6647   25.4794 C   0  0  0  0  0  0  0  0  0  0  0  0
   11.2139  -18.5116   24.5745 O   0  0  0  0  0  0  0  0  0  0  0  0
   11.9391  -18.1070   26.6773 O   0  0  0  0  0  0  0  0  0  0  0  0
  1  2  1  0
  3  2  1  0
  4  3  1  0
  4  5  1  0
  5  6  1  1
  5  1  1  0
  6 12  1  0
  7  6  2  0
  9  8  1  6
 10  9  1  0
 11  9  1  0
 11 13  1  0
 11 12  1  6
 13 15  1  0
 13 14  2  0
 15 16  1  0
 16 17  1  0
 17 18  2  0
 17 19  1  0
M  END
$$$$
