PTG.pdb
     RDKit          3D

 19 19  0  0  1  0  0  0  0  0999 V2000
    8.0820  -14.2788   18.1906 N   0  0  0  0  0  0  0  0  0  0  0  0
    7.2219  -13.1195   18.3386 C   0  0  0  0  0  0  0  0  0  0  0  0
    7.3697  -12.8263   19.8340 C   0  0  0  0  0  0  0  0  0  0  0  0
    8.8948  -12.9285   19.9688 C   0  0  0  0  0  0  0  0  0  0  0  0
    9.1652  -14.1465   19.1022 C   0  0  1  0  0  0  0  0  0  0  0  0
    9.2984  -15.3040   20.0285 C   0  0  0  0  0  0  0  0  0  0  0  0
    8.3441  -15.9074   20.5308 O   0  0  0  0  0  0  0  0  0  0  0  0
   11.7242  -19.2139   21.2655 C   0  0  0  0  0  0  0  0  0  0  0  0
   11.5921  -17.9233   20.5022 C   0  0  1  0  0  0  0  0  0  0  0  0
   11.0386  -18.2494   19.2630 O   0  0  0  0  0  0  0  0  0  0  0  0
   10.8738  -16.8358   21.1994 C   0  0  2  0  0  0  0  0  0  0  0  0
   10.6198  -15.7190   20.3365 N   0  0  0  0  0  0  0  0  0  0  0  0
   11.3272  -16.5139   22.5574 C   0  0  0  0  0  0  0  0  0  0  0  0
   12.3691  -15.7935   22.6516 O   0  0  0  0  0  0  0  0  0  0  0  0
   10.7277  -16.9265   23.7503 N   0  0  0  0  0  0  0  0  0  0  0  0
   11.2199  -16.5407   25.0682 C   0  0  0  0  0  0  0  0  0  0  0  0
   11.4727  -17.7223   25.9200 C   0  0  0  0  0  0  0  0  0  0  0  0
   11.9009  -17.5111   27.0824 O   0  0  0  0  0  0  0  0  0  0  0  0
   11.2723  -19.0283   25.5286 O   0  0  0  0  0  0  0  0  0  0  0  0
  1  2  1  0
  3  2  1  0
  4  3  1  0
  4  5  1  0
  5  6  1  1
  5  1  1  0
  6 12  1  0
  7  6  2  0
  9  8  1  1
 10  9  1  0
 11  9  1  0
 11 13  1  0
 11 12  1  6
 13 15  1  0
 13 14  2  0
 15 16  1  0
 16 17  1  0
 17 18  2  0
 17 19  1  0
M  END
$$$$
