FSQ.pdb
     RDKit          3D

 27 27  0  0  1  0  0  0  0  0999 V2000
   24.4903  -19.1451  -16.3658 N   0  0  0  0  0  0  0  0  0  0  0  0
   23.1588  -18.6385  -16.1058 C   0  0  1  0  0  0  0  0  0  0  0  0
   22.2974  -18.7060  -17.3477 C   0  0  0  0  0  0  0  0  0  0  0  0
   22.6822  -17.6760  -18.3398 C   0  0  0  0  0  0  0  0  0  0  0  0
   22.1303  -16.4066  -18.3163 C   0  0  0  0  0  0  0  0  0  0  0  0
   22.4912  -15.4415  -19.2464 C   0  0  0  0  0  0  0  0  0  0  0  0
   23.4151  -15.7302  -20.2214 C   0  0  0  0  0  0  0  0  0  0  0  0
   23.9735  -16.9772  -20.2644 C   0  0  0  0  0  0  0  0  0  0  0  0
   23.6054  -17.9260  -19.3338 C   0  0  0  0  0  0  0  0  0  0  0  0
   22.5802  -19.3819  -14.9833 C   0  0  0  0  0  0  0  0  0  0  0  0
   23.0836  -20.4694  -14.5889 O   0  0  0  0  0  0  0  0  0  0  0  0
   19.4335  -17.8915  -12.4431 O   0  0  0  0  0  0  0  0  0  0  0  0
   20.4313  -18.7640  -12.0183 C   0  0  0  0  0  0  0  0  0  0  0  0
   20.9155  -19.6608  -13.1238 C   0  0  2  0  0  0  0  0  0  0  0  0
   21.4232  -18.9468  -14.2579 N   0  0  0  0  0  0  0  0  0  0  0  0
   19.8283  -20.6109  -13.4884 C   0  0  0  0  0  0  0  0  0  0  0  0
   19.1632  -20.3119  -14.5089 O   0  0  0  0  0  0  0  0  0  0  0  0
   18.8440  -26.3709  -10.9066 N   0  0  0  0  0  0  0  0  0  0  0  0
   18.3508  -25.2540  -10.1969 C   0  0  0  0  0  0  0  0  0  0  0  0
   18.0856  -25.3801   -8.9858 O   0  0  0  0  0  0  0  0  0  0  0  0
   18.1562  -23.9737  -10.8761 C   0  0  0  0  0  0  0  0  0  0  0  0
   18.6172  -23.9479  -12.2911 C   0  0  0  0  0  0  0  0  0  0  0  0
   18.4382  -22.6861  -13.0410 C   0  0  2  0  0  0  0  0  0  0  0  0
   19.5443  -21.7747  -12.7542 N   0  0  0  0  0  0  0  0  0  0  0  0
   17.1595  -22.0026  -12.6946 C   0  0  0  0  0  0  0  0  0  0  0  0
   17.2080  -20.9870  -11.9721 O   0  0  0  0  0  0  0  0  0  0  0  0
   15.9280  -22.4328  -13.1271 O   0  0  0  0  0  0  0  0  0  0  0  0
  2  1  1  6
  3  2  1  0
  4  3  1  0
  4  9  2  0
  5  4  1  0
  6  5  2  0
  6  7  1  0
  7  8  2  0
  8  9  1  0
 10  2  1  0
 11 10  2  0
 12 13  1  0
 14 13  1  1
 14 16  1  0
 14 15  1  0
 15 10  1  0
 16 17  2  0
 18 19  1  0
 19 21  1  0
 20 19  2  0
 21 22  1  0
 23 22  1  1
 24 23  1  0
 24 16  1  0
 25 27  1  0
 25 23  1  0
 26 25  2  0
M  END
$$$$
