FSQ.pdb
     RDKit          3D

 27 27  0  0  1  0  0  0  0  0999 V2000
   25.1238  -19.1666   -8.5495 N   0  0  0  0  0  0  0  0  0  0  0  0
   26.1948  -19.9288   -9.1570 C   0  0  1  0  0  0  0  0  0  0  0  0
   26.6317  -21.0661   -8.2601 C   0  0  0  0  0  0  0  0  0  0  0  0
   27.3096  -20.5736   -7.0390 C   0  0  0  0  0  0  0  0  0  0  0  0
   26.7191  -20.6779   -5.7912 C   0  0  0  0  0  0  0  0  0  0  0  0
   27.3548  -20.2161   -4.6471 C   0  0  0  0  0  0  0  0  0  0  0  0
   28.5987  -19.6389   -4.7307 C   0  0  0  0  0  0  0  0  0  0  0  0
   29.2016  -19.5251   -5.9523 C   0  0  0  0  0  0  0  0  0  0  0  0
   28.5581  -19.9883   -7.0806 C   0  0  0  0  0  0  0  0  0  0  0  0
   25.7562  -20.3937  -10.4756 C   0  0  0  0  0  0  0  0  0  0  0  0
   24.5336  -20.5612  -10.7379 O   0  0  0  0  0  0  0  0  0  0  0  0
   28.2078  -21.9191  -13.5095 O   0  0  0  0  0  0  0  0  0  0  0  0
   27.3833  -20.8642  -13.8904 C   0  0  0  0  0  0  0  0  0  0  0  0
   26.2520  -20.6451  -12.9247 C   0  0  2  0  0  0  0  0  0  0  0  0
   26.6567  -20.6897  -11.5506 N   0  0  0  0  0  0  0  0  0  0  0  0
   25.1608  -21.6116  -13.2291 C   0  0  0  0  0  0  0  0  0  0  0  0
   25.1097  -22.6252  -12.4921 O   0  0  0  0  0  0  0  0  0  0  0  0
   21.6869  -21.6610  -10.8056 N   0  0  0  0  0  0  0  0  0  0  0  0
   20.9561  -21.0730  -11.8612 C   0  0  0  0  0  0  0  0  0  0  0  0
   20.1286  -20.1797  -11.5955 O   0  0  0  0  0  0  0  0  0  0  0  0
   21.1699  -21.5084  -13.2408 C   0  0  0  0  0  0  0  0  0  0  0  0
   22.2611  -22.5059  -13.4123 C   0  0  0  0  0  0  0  0  0  0  0  0
   23.1470  -22.3486  -14.5858 C   0  0  2  0  0  0  0  0  0  0  0  0
   24.2345  -21.4248  -14.2689 N   0  0  0  0  0  0  0  0  0  0  0  0
   22.4161  -21.8290  -15.7765 C   0  0  0  0  0  0  0  0  0  0  0  0
   21.4812  -22.5112  -16.2414 O   0  0  0  0  0  0  0  0  0  0  0  0
   22.7185  -20.6379  -16.3919 O   0  0  0  0  0  0  0  0  0  0  0  0
  2  1  1  1
  3  2  1  0
  4  3  1  0
  4  9  2  0
  5  4  1  0
  6  5  2  0
  6  7  1  0
  7  8  2  0
  8  9  1  0
 10  2  1  0
 11 10  2  0
 12 13  1  0
 14 13  1  6
 14 16  1  0
 14 15  1  0
 15 10  1  0
 16 17  2  0
 18 19  1  0
 19 21  1  0
 20 19  2  0
 21 22  1  0
 23 22  1  1
 24 23  1  0
 24 16  1  0
 25 27  1  0
 25 23  1  0
 26 25  2  0
M  END
$$$$
