FSQ.pdb
     RDKit          3D

 27 27  0  0  1  0  0  0  0  0999 V2000
   26.0209  -14.5929  -17.1496 N   0  0  0  0  0  0  0  0  0  0  0  0
   24.8923  -14.0187  -16.4472 C   0  0  1  0  0  0  0  0  0  0  0  0
   24.8151  -14.5327  -15.0264 C   0  0  0  0  0  0  0  0  0  0  0  0
   24.4013  -15.9538  -14.9780 C   0  0  0  0  0  0  0  0  0  0  0  0
   23.0750  -16.3265  -15.1149 C   0  0  0  0  0  0  0  0  0  0  0  0
   22.6876  -17.6585  -15.0694 C   0  0  0  0  0  0  0  0  0  0  0  0
   23.6242  -18.6466  -14.8853 C   0  0  0  0  0  0  0  0  0  0  0  0
   24.9400  -18.3025  -14.7477 C   0  0  0  0  0  0  0  0  0  0  0  0
   25.3104  -16.9750  -14.7949 C   0  0  0  0  0  0  0  0  0  0  0  0
   24.9899  -12.5578  -16.5085 C   0  0  0  0  0  0  0  0  0  0  0  0
   26.1088  -11.9751  -16.4991 O   0  0  0  0  0  0  0  0  0  0  0  0
   23.7204  -10.2583  -19.1785 O   0  0  0  0  0  0  0  0  0  0  0  0
   24.5590   -9.9131  -18.1226 C   0  0  0  0  0  0  0  0  0  0  0  0
   23.9751  -10.2775  -16.7858 C   0  0  2  0  0  0  0  0  0  0  0  0
   23.8512  -11.6906  -16.5823 N   0  0  0  0  0  0  0  0  0  0  0  0
   22.6815   -9.5608  -16.6104 C   0  0  0  0  0  0  0  0  0  0  0  0
   21.6490  -10.2613  -16.7388 O   0  0  0  0  0  0  0  0  0  0  0  0
   18.1444   -9.2191  -15.7184 N   0  0  0  0  0  0  0  0  0  0  0  0
   18.0853   -7.9604  -15.0806 C   0  0  0  0  0  0  0  0  0  0  0  0
   16.9712   -7.4378  -14.8834 O   0  0  0  0  0  0  0  0  0  0  0  0
   19.3130   -7.2858  -14.6610 C   0  0  0  0  0  0  0  0  0  0  0  0
   20.5670   -7.9948  -15.0353 C   0  0  0  0  0  0  0  0  0  0  0  0
   21.3413   -7.4512  -16.1718 C   0  0  2  0  0  0  0  0  0  0  0  0
   22.5945   -8.1890  -16.3194 N   0  0  0  0  0  0  0  0  0  0  0  0
   21.6608   -6.0060  -15.9946 C   0  0  0  0  0  0  0  0  0  0  0  0
   22.8203   -5.6930  -15.6580 O   0  0  0  0  0  0  0  0  0  0  0  0
   20.7449   -4.9983  -16.1803 O   0  0  0  0  0  0  0  0  0  0  0  0
  2  1  1  1
  3  2  1  0
  4  3  1  0
  4  9  2  0
  5  4  1  0
  6  5  2  0
  6  7  1  0
  7  8  2  0
  8  9  1  0
 10  2  1  0
 11 10  2  0
 12 13  1  0
 14 13  1  6
 14 16  1  0
 14 15  1  0
 15 10  1  0
 16 17  2  0
 18 19  1  0
 19 21  1  0
 20 19  2  0
 21 22  1  0
 23 22  1  1
 24 23  1  0
 24 16  1  0
 25 27  1  0
 25 23  1  0
 26 25  2  0
M  END
$$$$
