FSQ.pdb
     RDKit          3D

 27 27  0  0  1  0  0  0  0  0999 V2000
   26.5921  -19.9411  -12.4725 N   0  0  0  0  0  0  0  0  0  0  0  0
   26.1551  -21.3048  -12.2564 C   0  0  1  0  0  0  0  0  0  0  0  0
   25.8003  -21.5404  -10.8047 C   0  0  0  0  0  0  0  0  0  0  0  0
   26.9553  -21.2966   -9.9104 C   0  0  0  0  0  0  0  0  0  0  0  0
   28.2381  -21.6780  -10.2646 C   0  0  0  0  0  0  0  0  0  0  0  0
   29.3203  -21.4494   -9.4261 C   0  0  0  0  0  0  0  0  0  0  0  0
   29.1380  -20.8321   -8.2123 C   0  0  0  0  0  0  0  0  0  0  0  0
   27.8802  -20.4466   -7.8411 C   0  0  0  0  0  0  0  0  0  0  0  0
   26.8143  -20.6802   -8.6844 C   0  0  0  0  0  0  0  0  0  0  0  0
   25.0368  -21.5921  -13.1588 C   0  0  0  0  0  0  0  0  0  0  0  0
   24.1532  -20.7255  -13.4036 O   0  0  0  0  0  0  0  0  0  0  0  0
   24.1403  -25.5419  -14.5251 O   0  0  0  0  0  0  0  0  0  0  0  0
   23.7480  -24.4602  -15.3083 C   0  0  0  0  0  0  0  0  0  0  0  0
   23.6496  -23.1863  -14.5158 C   0  0  2  0  0  0  0  0  0  0  0  0
   24.8576  -22.8500  -13.8219 N   0  0  0  0  0  0  0  0  0  0  0  0
   22.4742  -23.2713  -13.6055 C   0  0  0  0  0  0  0  0  0  0  0  0
   22.7377  -23.3552  -12.3821 O   0  0  0  0  0  0  0  0  0  0  0  0
   21.0634  -19.7627  -11.3335 N   0  0  0  0  0  0  0  0  0  0  0  0
   20.1389  -19.6581  -12.3961 C   0  0  0  0  0  0  0  0  0  0  0  0
   19.9063  -18.5345  -12.8824 O   0  0  0  0  0  0  0  0  0  0  0  0
   19.4687  -20.8505  -12.9130 C   0  0  0  0  0  0  0  0  0  0  0  0
   19.9343  -22.1306  -12.3131 C   0  0  0  0  0  0  0  0  0  0  0  0
   19.9710  -23.3190  -13.1923 C   0  0  2  0  0  0  0  0  0  0  0  0
   21.1451  -23.2603  -14.0610 N   0  0  0  0  0  0  0  0  0  0  0  0
   18.7543  -23.4240  -14.0471 C   0  0  0  0  0  0  0  0  0  0  0  0
   18.8695  -23.2070  -15.2700 O   0  0  0  0  0  0  0  0  0  0  0  0
   17.5102  -23.7454  -13.5597 O   0  0  0  0  0  0  0  0  0  0  0  0
  2  1  1  1
  3  2  1  0
  4  3  1  0
  4  9  2  0
  5  4  1  0
  6  5  2  0
  6  7  1  0
  7  8  2  0
  8  9  1  0
 10  2  1  0
 11 10  2  0
 12 13  1  0
 14 13  1  1
 14 16  1  0
 14 15  1  0
 15 10  1  0
 16 17  2  0
 18 19  1  0
 19 21  1  0
 20 19  2  0
 21 22  1  0
 23 22  1  6
 24 23  1  0
 24 16  1  0
 25 27  1  0
 25 23  1  0
 26 25  2  0
M  END
$$$$
