FSQ.pdb
     RDKit          3D

 27 27  0  0  1  0  0  0  0  0999 V2000
   29.0253  -21.7286  -13.5478 N   0  0  0  0  0  0  0  0  0  0  0  0
   28.2751  -20.9035  -12.6240 C   0  0  1  0  0  0  0  0  0  0  0  0
   29.1994  -20.0958  -11.7397 C   0  0  0  0  0  0  0  0  0  0  0  0
   30.1289  -20.9627  -10.9795 C   0  0  0  0  0  0  0  0  0  0  0  0
   29.6871  -21.7573   -9.9355 C   0  0  0  0  0  0  0  0  0  0  0  0
   30.5585  -22.5697   -9.2234 C   0  0  0  0  0  0  0  0  0  0  0  0
   31.8941  -22.6020   -9.5441 C   0  0  0  0  0  0  0  0  0  0  0  0
   32.3533  -21.8258  -10.5714 C   0  0  0  0  0  0  0  0  0  0  0  0
   31.4760  -21.0236  -11.2702 C   0  0  0  0  0  0  0  0  0  0  0  0
   27.3517  -20.0587  -13.3863 C   0  0  0  0  0  0  0  0  0  0  0  0
   26.6124  -19.2126  -12.8126 O   0  0  0  0  0  0  0  0  0  0  0  0
   25.3643  -18.5823  -17.5937 O   0  0  0  0  0  0  0  0  0  0  0  0
   26.3814  -19.3006  -16.9715 C   0  0  0  0  0  0  0  0  0  0  0  0
   26.1215  -19.5063  -15.5049 C   0  0  2  0  0  0  0  0  0  0  0  0
   27.2145  -20.1215  -14.8116 N   0  0  0  0  0  0  0  0  0  0  0  0
   24.8463  -20.2575  -15.3394 C   0  0  0  0  0  0  0  0  0  0  0  0
   24.9572  -21.5025  -15.2359 O   0  0  0  0  0  0  0  0  0  0  0  0
   23.4616  -20.6768  -10.4430 N   0  0  0  0  0  0  0  0  0  0  0  0
   22.1390  -20.9838  -10.8313 C   0  0  0  0  0  0  0  0  0  0  0  0
   21.3393  -21.3960   -9.9689 O   0  0  0  0  0  0  0  0  0  0  0  0
   21.7200  -20.8195  -12.2226 C   0  0  0  0  0  0  0  0  0  0  0  0
   22.7968  -20.3625  -13.1428 C   0  0  0  0  0  0  0  0  0  0  0  0
   22.4338  -20.1493  -14.5604 C   0  0  2  0  0  0  0  0  0  0  0  0
   23.5866  -19.6366  -15.2984 N   0  0  0  0  0  0  0  0  0  0  0  0
   21.3069  -19.1856  -14.7135 C   0  0  0  0  0  0  0  0  0  0  0  0
   21.5778  -17.9878  -14.9317 O   0  0  0  0  0  0  0  0  0  0  0  0
   19.9835  -19.5457  -14.6250 O   0  0  0  0  0  0  0  0  0  0  0  0
  2  1  1  6
  3  2  1  0
  4  3  1  0
  4  9  2  0
  5  4  1  0
  6  5  2  0
  6  7  1  0
  7  8  2  0
  8  9  1  0
 10  2  1  0
 11 10  2  0
 12 13  1  0
 14 13  1  6
 14 16  1  0
 14 15  1  0
 15 10  1  0
 16 17  2  0
 18 19  1  0
 19 21  1  0
 20 19  2  0
 21 22  1  0
 23 22  1  1
 24 23  1  0
 24 16  1  0
 25 27  1  0
 25 23  1  0
 26 25  2  0
M  END
$$$$
