FSQ.pdb
     RDKit          3D

 27 27  0  0  1  0  0  0  0  0999 V2000
   24.2811  -21.0734  -18.4992 N   0  0  0  0  0  0  0  0  0  0  0  0
   23.7994  -20.1056  -17.5356 C   0  0  1  0  0  0  0  0  0  0  0  0
   23.1455  -18.9283  -18.2251 C   0  0  0  0  0  0  0  0  0  0  0  0
   24.0825  -18.2386  -19.1414 C   0  0  0  0  0  0  0  0  0  0  0  0
   23.8682  -18.2100  -20.5088 C   0  0  0  0  0  0  0  0  0  0  0  0
   24.7466  -17.5634  -21.3672 C   0  0  0  0  0  0  0  0  0  0  0  0
   25.8606  -16.9308  -20.8710 C   0  0  0  0  0  0  0  0  0  0  0  0
   26.0930  -16.9459  -19.5240 C   0  0  0  0  0  0  0  0  0  0  0  0
   25.2117  -17.5922  -18.6831 C   0  0  0  0  0  0  0  0  0  0  0  0
   22.8941  -20.7789  -16.6005 C   0  0  0  0  0  0  0  0  0  0  0  0
   21.9742  -21.5383  -17.0111 O   0  0  0  0  0  0  0  0  0  0  0  0
   22.5709  -19.7408  -12.5285 O   0  0  0  0  0  0  0  0  0  0  0  0
   22.4010  -21.0885  -12.8323 C   0  0  0  0  0  0  0  0  0  0  0  0
   22.0816  -21.3114  -14.2846 C   0  0  2  0  0  0  0  0  0  0  0  0
   22.9759  -20.6346  -15.1769 N   0  0  0  0  0  0  0  0  0  0  0  0
   20.6562  -20.9554  -14.5276 C   0  0  0  0  0  0  0  0  0  0  0  0
   20.4607  -19.9905  -15.3047 O   0  0  0  0  0  0  0  0  0  0  0  0
   16.9873  -21.6189  -18.2692 N   0  0  0  0  0  0  0  0  0  0  0  0
   17.0712  -20.3272  -17.7045 C   0  0  0  0  0  0  0  0  0  0  0  0
   16.8004  -19.3408  -18.4164 O   0  0  0  0  0  0  0  0  0  0  0  0
   17.4695  -20.1553  -16.3080 C   0  0  0  0  0  0  0  0  0  0  0  0
   17.8743  -21.4122  -15.6213 C   0  0  0  0  0  0  0  0  0  0  0  0
   18.1715  -21.3306  -14.1750 C   0  0  2  0  0  0  0  0  0  0  0  0
   19.5802  -21.6396  -13.9375 N   0  0  0  0  0  0  0  0  0  0  0  0
   17.3386  -22.2737  -13.3757 C   0  0  0  0  0  0  0  0  0  0  0  0
   16.2032  -21.9025  -13.0168 O   0  0  0  0  0  0  0  0  0  0  0  0
   17.7554  -23.5313  -13.0105 O   0  0  0  0  0  0  0  0  0  0  0  0
  2  1  1  6
  3  2  1  0
  4  3  1  0
  4  9  2  0
  5  4  1  0
  6  5  2  0
  6  7  1  0
  7  8  2  0
  8  9  1  0
 10  2  1  0
 11 10  2  0
 12 13  1  0
 14 13  1  1
 14 16  1  0
 14 15  1  0
 15 10  1  0
 16 17  2  0
 18 19  1  0
 19 21  1  0
 20 19  2  0
 21 22  1  0
 23 22  1  6
 24 23  1  0
 24 16  1  0
 25 27  1  0
 25 23  1  0
 26 25  2  0
M  END
$$$$
