FSQ.pdb
     RDKit          3D

 27 27  0  0  1  0  0  0  0  0999 V2000
   18.0520   -8.3034  -10.8329 N   0  0  0  0  0  0  0  0  0  0  0  0
   18.7804   -7.0535  -10.7681 C   0  0  1  0  0  0  0  0  0  0  0  0
   19.7141   -6.9044  -11.9491 C   0  0  0  0  0  0  0  0  0  0  0  0
   20.8283   -7.8784  -11.8950 C   0  0  0  0  0  0  0  0  0  0  0  0
   20.9659   -8.8744  -12.8466 C   0  0  0  0  0  0  0  0  0  0  0  0
   22.0103   -9.7871  -12.7955 C   0  0  0  0  0  0  0  0  0  0  0  0
   22.9405   -9.7198  -11.7866 C   0  0  0  0  0  0  0  0  0  0  0  0
   22.8250   -8.7447  -10.8355 C   0  0  0  0  0  0  0  0  0  0  0  0
   21.7822   -7.8447  -10.8990 C   0  0  0  0  0  0  0  0  0  0  0  0
   17.8204   -5.9505  -10.6720 C   0  0  0  0  0  0  0  0  0  0  0  0
   16.8394   -5.8652  -11.4607 O   0  0  0  0  0  0  0  0  0  0  0  0
   18.6035   -2.3799   -8.4870 O   0  0  0  0  0  0  0  0  0  0  0  0
   17.2831   -2.8112   -8.5753 C   0  0  0  0  0  0  0  0  0  0  0  0
   17.0638   -3.7489   -9.7300 C   0  0  2  0  0  0  0  0  0  0  0  0
   17.9131   -4.9028   -9.6984 N   0  0  0  0  0  0  0  0  0  0  0  0
   17.1852   -2.9865  -11.0034 C   0  0  0  0  0  0  0  0  0  0  0  0
   18.0322   -3.4213  -11.8199 O   0  0  0  0  0  0  0  0  0  0  0  0
   14.9801   -3.8046  -15.6329 N   0  0  0  0  0  0  0  0  0  0  0  0
   15.2336   -2.4635  -15.9955 C   0  0  0  0  0  0  0  0  0  0  0  0
   14.9979   -2.1017  -17.1646 O   0  0  0  0  0  0  0  0  0  0  0  0
   15.7638   -1.5194  -15.0126 C   0  0  0  0  0  0  0  0  0  0  0  0
   15.9383   -2.0825  -13.6460 C   0  0  0  0  0  0  0  0  0  0  0  0
   16.4073   -1.1629  -12.5872 C   0  0  2  0  0  0  0  0  0  0  0  0
   16.4132   -1.8499  -11.2970 N   0  0  0  0  0  0  0  0  0  0  0  0
   15.5476    0.0496  -12.4741 C   0  0  0  0  0  0  0  0  0  0  0  0
   14.6202    0.0420  -11.6401 O   0  0  0  0  0  0  0  0  0  0  0  0
   15.7206    1.1764  -13.2416 O   0  0  0  0  0  0  0  0  0  0  0  0
  2  1  1  6
  3  2  1  0
  4  3  1  0
  4  9  2  0
  5  4  1  0
  6  5  2  0
  6  7  1  0
  7  8  2  0
  8  9  1  0
 10  2  1  0
 11 10  2  0
 12 13  1  0
 14 13  1  1
 14 16  1  0
 14 15  1  0
 15 10  1  0
 16 17  2  0
 18 19  1  0
 19 21  1  0
 20 19  2  0
 21 22  1  0
 23 22  1  6
 24 23  1  0
 24 16  1  0
 25 27  1  0
 25 23  1  0
 26 25  2  0
M  END
$$$$
