FSQ.pdb
     RDKit          3D

 27 27  0  0  1  0  0  0  0  0999 V2000
   22.4029  -22.8311  -17.3765 N   0  0  0  0  0  0  0  0  0  0  0  0
   21.4655  -21.8419  -16.8870 C   0  0  1  0  0  0  0  0  0  0  0  0
   20.1969  -21.8376  -17.7112 C   0  0  0  0  0  0  0  0  0  0  0  0
   20.2256  -20.7908  -18.7584 C   0  0  0  0  0  0  0  0  0  0  0  0
   19.6032  -19.5678  -18.5765 C   0  0  0  0  0  0  0  0  0  0  0  0
   19.6303  -18.5870  -19.5582 C   0  0  0  0  0  0  0  0  0  0  0  0
   20.2838  -18.8130  -20.7454 C   0  0  0  0  0  0  0  0  0  0  0  0
   20.9057  -20.0134  -20.9476 C   0  0  0  0  0  0  0  0  0  0  0  0
   20.8705  -20.9785  -19.9633 C   0  0  0  0  0  0  0  0  0  0  0  0
   21.2084  -22.0953  -15.4667 C   0  0  0  0  0  0  0  0  0  0  0  0
   21.3010  -23.2561  -14.9812 O   0  0  0  0  0  0  0  0  0  0  0  0
   19.8294  -19.1197  -12.6771 O   0  0  0  0  0  0  0  0  0  0  0  0
   20.7106  -20.1188  -12.2737 C   0  0  0  0  0  0  0  0  0  0  0  0
   20.6245  -21.3424  -13.1431 C   0  0  2  0  0  0  0  0  0  0  0  0
   20.8396  -21.0717  -14.5339 N   0  0  0  0  0  0  0  0  0  0  0  0
   19.3263  -22.0266  -12.8898 C   0  0  0  0  0  0  0  0  0  0  0  0
   18.4080  -21.7716  -13.7052 O   0  0  0  0  0  0  0  0  0  0  0  0
   18.3956  -26.3452   -8.3038 N   0  0  0  0  0  0  0  0  0  0  0  0
   19.1870  -26.5476   -9.4558 C   0  0  0  0  0  0  0  0  0  0  0  0
   19.9799  -27.5088   -9.4796 O   0  0  0  0  0  0  0  0  0  0  0  0
   19.0745  -25.6420  -10.5984 C   0  0  0  0  0  0  0  0  0  0  0  0
   18.0511  -24.5728  -10.4416 C   0  0  0  0  0  0  0  0  0  0  0  0
   17.8722  -23.6331  -11.5693 C   0  0  2  0  0  0  0  0  0  0  0  0
   19.1162  -22.9059  -11.8143 N   0  0  0  0  0  0  0  0  0  0  0  0
   16.7883  -22.6432  -11.3099 C   0  0  0  0  0  0  0  0  0  0  0  0
   17.0910  -21.5635  -10.7635 O   0  0  0  0  0  0  0  0  0  0  0  0
   15.4711  -22.8568  -11.6388 O   0  0  0  0  0  0  0  0  0  0  0  0
  2  1  1  6
  3  2  1  0
  4  3  1  0
  4  9  2  0
  5  4  1  0
  6  5  2  0
  6  7  1  0
  7  8  2  0
  8  9  1  0
 10  2  1  0
 11 10  2  0
 12 13  1  0
 14 13  1  1
 14 16  1  0
 14 15  1  0
 15 10  1  0
 16 17  2  0
 18 19  1  0
 19 21  1  0
 20 19  2  0
 21 22  1  0
 23 22  1  1
 24 23  1  0
 24 16  1  0
 25 27  1  0
 25 23  1  0
 26 25  2  0
M  END
$$$$
