FSQ.pdb
     RDKit          3D

 27 27  0  0  1  0  0  0  0  0999 V2000
   28.8145  -21.0564   -9.1538 N   0  0  0  0  0  0  0  0  0  0  0  0
   27.3926  -20.7998   -9.0560 C   0  0  1  0  0  0  0  0  0  0  0  0
   27.1169  -19.5659   -8.2252 C   0  0  0  0  0  0  0  0  0  0  0  0
   27.6519  -19.6982   -6.8507 C   0  0  0  0  0  0  0  0  0  0  0  0
   28.7763  -19.0019   -6.4415 C   0  0  0  0  0  0  0  0  0  0  0  0
   29.2774  -19.1263   -5.1532 C   0  0  0  0  0  0  0  0  0  0  0  0
   28.6600  -19.9534   -4.2464 C   0  0  0  0  0  0  0  0  0  0  0  0
   27.5480  -20.6510   -4.6278 C   0  0  0  0  0  0  0  0  0  0  0  0
   27.0613  -20.5176   -5.9112 C   0  0  0  0  0  0  0  0  0  0  0  0
   26.8356  -20.6994  -10.4077 C   0  0  0  0  0  0  0  0  0  0  0  0
   27.2661  -19.8468  -11.2320 O   0  0  0  0  0  0  0  0  0  0  0  0
   24.3619  -23.4236  -12.6246 O   0  0  0  0  0  0  0  0  0  0  0  0
   24.9096  -22.2295  -13.0845 C   0  0  0  0  0  0  0  0  0  0  0  0
   24.9644  -21.1756  -12.0136 C   0  0  2  0  0  0  0  0  0  0  0  0
   25.7817  -21.5401  -10.8942 N   0  0  0  0  0  0  0  0  0  0  0  0
   23.5752  -20.8191  -11.6128 C   0  0  0  0  0  0  0  0  0  0  0  0
   23.4665  -20.1625  -10.5497 O   0  0  0  0  0  0  0  0  0  0  0  0
   22.6647  -18.4021  -16.3760 N   0  0  0  0  0  0  0  0  0  0  0  0
   21.5828  -17.8001  -15.6966 C   0  0  0  0  0  0  0  0  0  0  0  0
   20.8691  -16.9816  -16.3081 O   0  0  0  0  0  0  0  0  0  0  0  0
   21.3090  -18.1345  -14.2996 C   0  0  0  0  0  0  0  0  0  0  0  0
   22.1379  -19.2445  -13.7556 C   0  0  0  0  0  0  0  0  0  0  0  0
   21.4624  -20.2365  -12.8917 C   0  0  2  0  0  0  0  0  0  0  0  0
   22.4413  -21.1821  -12.3589 N   0  0  0  0  0  0  0  0  0  0  0  0
   20.4158  -21.0022  -13.6268 C   0  0  0  0  0  0  0  0  0  0  0  0
   19.2222  -20.6784  -13.4651 O   0  0  0  0  0  0  0  0  0  0  0  0
   20.6952  -22.0485  -14.4729 O   0  0  0  0  0  0  0  0  0  0  0  0
  2  1  1  6
  3  2  1  0
  4  3  1  0
  4  9  2  0
  5  4  1  0
  6  5  2  0
  6  7  1  0
  7  8  2  0
  8  9  1  0
 10  2  1  0
 11 10  2  0
 12 13  1  0
 14 13  1  6
 14 16  1  0
 14 15  1  0
 15 10  1  0
 16 17  2  0
 18 19  1  0
 19 21  1  0
 20 19  2  0
 21 22  1  0
 23 22  1  6
 24 23  1  0
 24 16  1  0
 25 27  1  0
 25 23  1  0
 26 25  2  0
M  END
$$$$
