FSQ.pdb
     RDKit          3D

 27 27  0  0  1  0  0  0  0  0999 V2000
   19.0306  -13.7981  -16.3419 N   0  0  0  0  0  0  0  0  0  0  0  0
   19.0057  -12.4470  -16.8623 C   0  0  1  0  0  0  0  0  0  0  0  0
   17.5884  -11.9936  -17.1353 C   0  0  0  0  0  0  0  0  0  0  0  0
   16.9447  -12.8084  -18.1912 C   0  0  0  0  0  0  0  0  0  0  0  0
   17.4065  -12.7975  -19.4962 C   0  0  0  0  0  0  0  0  0  0  0  0
   16.8029  -13.5613  -20.4855 C   0  0  0  0  0  0  0  0  0  0  0  0
   15.7212  -14.3537  -20.1860 C   0  0  0  0  0  0  0  0  0  0  0  0
   15.2476  -14.3806  -18.9039 C   0  0  0  0  0  0  0  0  0  0  0  0
   15.8573  -13.6165  -17.9313 C   0  0  0  0  0  0  0  0  0  0  0  0
   19.7035  -11.5649  -15.9229 C   0  0  0  0  0  0  0  0  0  0  0  0
   19.2723  -11.3832  -14.7513 O   0  0  0  0  0  0  0  0  0  0  0  0
   23.7524  -10.4104  -16.2487 O   0  0  0  0  0  0  0  0  0  0  0  0
   23.0106  -10.3954  -15.0710 C   0  0  0  0  0  0  0  0  0  0  0  0
   21.5760  -10.0101  -15.3037 C   0  0  2  0  0  0  0  0  0  0  0  0
   20.9038  -10.8526  -16.2483 N   0  0  0  0  0  0  0  0  0  0  0  0
   21.5156   -8.5705  -15.6801 C   0  0  0  0  0  0  0  0  0  0  0  0
   21.1430   -8.3295  -16.8532 O   0  0  0  0  0  0  0  0  0  0  0  0
   17.8870   -5.0922  -16.5459 N   0  0  0  0  0  0  0  0  0  0  0  0
   18.7779   -4.0326  -16.2670 C   0  0  0  0  0  0  0  0  0  0  0  0
   18.3853   -2.8600  -16.4220 O   0  0  0  0  0  0  0  0  0  0  0  0
   20.1369   -4.3116  -15.8047 C   0  0  0  0  0  0  0  0  0  0  0  0
   20.4430   -5.7565  -15.6208 C   0  0  0  0  0  0  0  0  0  0  0  0
   21.7947   -6.1080  -15.1349 C   0  0  2  0  0  0  0  0  0  0  0  0
   21.8491   -7.5292  -14.7977 N   0  0  0  0  0  0  0  0  0  0  0  0
   22.1816   -5.3203  -13.9299 C   0  0  0  0  0  0  0  0  0  0  0  0
   22.0886   -5.8650  -12.8117 O   0  0  0  0  0  0  0  0  0  0  0  0
   22.6341   -4.0238  -13.9844 O   0  0  0  0  0  0  0  0  0  0  0  0
  2  1  1  1
  3  2  1  0
  4  3  1  0
  4  9  2  0
  5  4  1  0
  6  5  2  0
  6  7  1  0
  7  8  2  0
  8  9  1  0
 10  2  1  0
 11 10  2  0
 12 13  1  0
 14 13  1  6
 14 16  1  0
 14 15  1  0
 15 10  1  0
 16 17  2  0
 18 19  1  0
 19 21  1  0
 20 19  2  0
 21 22  1  0
 23 22  1  1
 24 23  1  0
 24 16  1  0
 25 27  1  0
 25 23  1  0
 26 25  2  0
M  END
$$$$
