FSQ.pdb
     RDKit          3D

 27 27  0  0  1  0  0  0  0  0999 V2000
   23.1613  -12.8349  -17.6726 N   0  0  0  0  0  0  0  0  0  0  0  0
   23.9980  -11.8680  -18.3525 C   0  0  1  0  0  0  0  0  0  0  0  0
   24.0429  -12.1364  -19.8407 C   0  0  0  0  0  0  0  0  0  0  0  0
   24.6066  -13.4726  -20.1412 C   0  0  0  0  0  0  0  0  0  0  0  0
   23.7910  -14.5685  -20.3651 C   0  0  0  0  0  0  0  0  0  0  0  0
   24.3197  -15.8206  -20.6466 C   0  0  0  0  0  0  0  0  0  0  0  0
   25.6804  -15.9999  -20.7097 C   0  0  0  0  0  0  0  0  0  0  0  0
   26.5057  -14.9321  -20.4921 C   0  0  0  0  0  0  0  0  0  0  0  0
   25.9663  -13.6939  -20.2134 C   0  0  0  0  0  0  0  0  0  0  0  0
   23.5126  -10.5206  -18.0421 C   0  0  0  0  0  0  0  0  0  0  0  0
   22.3033  -10.2044  -18.2127 O   0  0  0  0  0  0  0  0  0  0  0  0
   23.7746   -5.8559  -17.8748 O   0  0  0  0  0  0  0  0  0  0  0  0
   24.2712   -7.1142  -18.2028 C   0  0  0  0  0  0  0  0  0  0  0  0
   23.8454   -8.1706  -17.2213 C   0  0  2  0  0  0  0  0  0  0  0  0
   24.3500   -9.4756  -17.5314 N   0  0  0  0  0  0  0  0  0  0  0  0
   22.3615   -8.1478  -17.0981 C   0  0  0  0  0  0  0  0  0  0  0  0
   21.7408   -8.9436  -17.8428 O   0  0  0  0  0  0  0  0  0  0  0  0
   17.2653   -9.7649  -15.0116 N   0  0  0  0  0  0  0  0  0  0  0  0
   18.2041   -9.5275  -13.9836 C   0  0  0  0  0  0  0  0  0  0  0  0
   17.9185   -9.8655  -12.8185 O   0  0  0  0  0  0  0  0  0  0  0  0
   19.4876   -8.8955  -14.2861 C   0  0  0  0  0  0  0  0  0  0  0  0
   19.7040   -8.5940  -15.7274 C   0  0  0  0  0  0  0  0  0  0  0  0
   20.2213   -7.2519  -16.0705 C   0  0  2  0  0  0  0  0  0  0  0  0
   21.6753   -7.2996  -16.2128 N   0  0  0  0  0  0  0  0  0  0  0  0
   19.8800   -6.2359  -15.0345 C   0  0  0  0  0  0  0  0  0  0  0  0
   20.8085   -5.7304  -14.3726 O   0  0  0  0  0  0  0  0  0  0  0  0
   18.5955   -5.8269  -14.7673 O   0  0  0  0  0  0  0  0  0  0  0  0
  2  1  1  1
  3  2  1  0
  4  3  1  0
  4  9  2  0
  5  4  1  0
  6  5  2  0
  6  7  1  0
  7  8  2  0
  8  9  1  0
 10  2  1  0
 11 10  2  0
 12 13  1  0
 14 13  1  6
 14 16  1  0
 14 15  1  0
 15 10  1  0
 16 17  2  0
 18 19  1  0
 19 21  1  0
 20 19  2  0
 21 22  1  0
 23 22  1  1
 24 23  1  0
 24 16  1  0
 25 27  1  0
 25 23  1  0
 26 25  2  0
M  END
$$$$
