FSQ.pdb
     RDKit          3D

 27 27  0  0  1  0  0  0  0  0999 V2000
   26.7651  -20.7173   -9.9995 N   0  0  0  0  0  0  0  0  0  0  0  0
   27.6482  -20.5278  -11.1315 C   0  0  1  0  0  0  0  0  0  0  0  0
   28.3719  -21.8101  -11.4794 C   0  0  0  0  0  0  0  0  0  0  0  0
   29.6334  -21.9533  -10.7169 C   0  0  0  0  0  0  0  0  0  0  0  0
   29.6367  -22.3559   -9.3924 C   0  0  0  0  0  0  0  0  0  0  0  0
   30.8192  -22.4900   -8.6782 C   0  0  0  0  0  0  0  0  0  0  0  0
   32.0256  -22.2224   -9.2787 C   0  0  0  0  0  0  0  0  0  0  0  0
   32.0470  -21.8232  -10.5860 C   0  0  0  0  0  0  0  0  0  0  0  0
   30.8643  -21.6944  -11.2832 C   0  0  0  0  0  0  0  0  0  0  0  0
   26.8699  -20.0024  -12.2565 C   0  0  0  0  0  0  0  0  0  0  0  0
   25.6114  -20.0880  -12.2791 O   0  0  0  0  0  0  0  0  0  0  0  0
   28.3426  -19.2315  -16.1210 O   0  0  0  0  0  0  0  0  0  0  0  0
   27.4887  -18.2668  -15.5941 C   0  0  0  0  0  0  0  0  0  0  0  0
   26.6696  -18.7927  -14.4481 C   0  0  2  0  0  0  0  0  0  0  0  0
   27.4583  -19.3635  -13.3965 N   0  0  0  0  0  0  0  0  0  0  0  0
   25.6508  -19.7419  -14.9760 C   0  0  0  0  0  0  0  0  0  0  0  0
   26.0184  -20.9372  -15.0726 O   0  0  0  0  0  0  0  0  0  0  0  0
   20.5863  -20.6172  -12.3828 N   0  0  0  0  0  0  0  0  0  0  0  0
   20.3138  -21.3979  -13.5277 C   0  0  0  0  0  0  0  0  0  0  0  0
   19.3013  -22.1244  -13.5332 O   0  0  0  0  0  0  0  0  0  0  0  0
   21.2076  -21.3512  -14.6841 C   0  0  0  0  0  0  0  0  0  0  0  0
   22.4040  -20.4838  -14.5064 C   0  0  0  0  0  0  0  0  0  0  0  0
   23.2734  -20.2760  -15.6843 C   0  0  2  0  0  0  0  0  0  0  0  0
   24.3540  -19.3506  -15.3491 N   0  0  0  0  0  0  0  0  0  0  0  0
   22.5219  -19.7250  -16.8478 C   0  0  0  0  0  0  0  0  0  0  0  0
   22.1447  -18.5371  -16.8000 O   0  0  0  0  0  0  0  0  0  0  0  0
   22.2198  -20.4568  -17.9712 O   0  0  0  0  0  0  0  0  0  0  0  0
  2  1  1  1
  3  2  1  0
  4  3  1  0
  4  9  2  0
  5  4  1  0
  6  5  2  0
  6  7  1  0
  7  8  2  0
  8  9  1  0
 10  2  1  0
 11 10  2  0
 12 13  1  0
 14 13  1  6
 14 16  1  0
 14 15  1  0
 15 10  1  0
 16 17  2  0
 18 19  1  0
 19 21  1  0
 20 19  2  0
 21 22  1  0
 23 22  1  1
 24 23  1  0
 24 16  1  0
 25 27  1  0
 25 23  1  0
 26 25  2  0
M  END
$$$$
