FSQ.pdb
     RDKit          3D

 27 27  0  0  1  0  0  0  0  0999 V2000
   18.5930  -12.4541  -18.4087 N   0  0  0  0  0  0  0  0  0  0  0  0
   17.8663  -11.9653  -17.2554 C   0  0  1  0  0  0  0  0  0  0  0  0
   18.3726  -12.6040  -15.9808 C   0  0  0  0  0  0  0  0  0  0  0  0
   18.1941  -14.0741  -15.9945 C   0  0  0  0  0  0  0  0  0  0  0  0
   19.2754  -14.9352  -15.9184 C   0  0  0  0  0  0  0  0  0  0  0  0
   19.1076  -16.3130  -15.9313 C   0  0  0  0  0  0  0  0  0  0  0  0
   17.8492  -16.8569  -16.0209 C   0  0  0  0  0  0  0  0  0  0  0  0
   16.7663  -16.0262  -16.0971 C   0  0  0  0  0  0  0  0  0  0  0  0
   16.9481  -14.6593  -16.0832 C   0  0  0  0  0  0  0  0  0  0  0  0
   17.9583  -10.5032  -17.2226 C   0  0  0  0  0  0  0  0  0  0  0  0
   19.0353   -9.9081  -17.5013 O   0  0  0  0  0  0  0  0  0  0  0  0
   15.7854   -6.1336  -16.8406 O   0  0  0  0  0  0  0  0  0  0  0  0
   15.6674   -7.5107  -16.6765 C   0  0  0  0  0  0  0  0  0  0  0  0
   16.9825   -8.2209  -16.8404 C   0  0  2  0  0  0  0  0  0  0  0  0
   16.8602   -9.6483  -16.8798 N   0  0  0  0  0  0  0  0  0  0  0  0
   17.9188   -7.7582  -15.7789 C   0  0  0  0  0  0  0  0  0  0  0  0
   18.0081   -8.4989  -14.7707 O   0  0  0  0  0  0  0  0  0  0  0  0
   23.8213   -7.8841  -14.4579 N   0  0  0  0  0  0  0  0  0  0  0  0
   23.3981   -6.5515  -14.6568 C   0  0  0  0  0  0  0  0  0  0  0  0
   24.1854   -5.7430  -15.1857 O   0  0  0  0  0  0  0  0  0  0  0  0
   22.0584   -6.1323  -14.2473 C   0  0  0  0  0  0  0  0  0  0  0  0
   20.9735   -6.5238  -15.1879 C   0  0  0  0  0  0  0  0  0  0  0  0
   19.5980   -6.0953  -14.8547 C   0  0  2  0  0  0  0  0  0  0  0  0
   18.6663   -6.5724  -15.8749 N   0  0  0  0  0  0  0  0  0  0  0  0
   19.4783   -4.6124  -14.7604 C   0  0  0  0  0  0  0  0  0  0  0  0
   18.9643   -3.9980  -15.7165 O   0  0  0  0  0  0  0  0  0  0  0  0
   19.9061   -3.8843  -13.6762 O   0  0  0  0  0  0  0  0  0  0  0  0
  2  1  1  6
  3  2  1  0
  4  3  1  0
  4  9  2  0
  5  4  1  0
  6  5  2  0
  6  7  1  0
  7  8  2  0
  8  9  1  0
 10  2  1  0
 11 10  2  0
 12 13  1  0
 14 13  1  1
 14 16  1  0
 14 15  1  0
 15 10  1  0
 16 17  2  0
 18 19  1  0
 19 21  1  0
 20 19  2  0
 21 22  1  0
 23 22  1  6
 24 23  1  0
 24 16  1  0
 25 27  1  0
 25 23  1  0
 26 25  2  0
M  END
$$$$
