FSQ.pdb
     RDKit          3D

 27 27  0  0  1  0  0  0  0  0999 V2000
   27.2939  -22.2265  -11.3315 N   0  0  0  0  0  0  0  0  0  0  0  0
   26.3712  -21.3249  -10.6735 C   0  0  1  0  0  0  0  0  0  0  0  0
   27.0182  -19.9845  -10.4023 C   0  0  0  0  0  0  0  0  0  0  0  0
   27.6542  -19.9419   -9.0656 C   0  0  0  0  0  0  0  0  0  0  0  0
   26.9807  -19.4543   -7.9588 C   0  0  0  0  0  0  0  0  0  0  0  0
   27.5772  -19.4145   -6.7062 C   0  0  0  0  0  0  0  0  0  0  0  0
   28.8644  -19.8639   -6.5371 C   0  0  0  0  0  0  0  0  0  0  0  0
   29.5493  -20.3499   -7.6157 C   0  0  0  0  0  0  0  0  0  0  0  0
   28.9440  -20.3833   -8.8543 C   0  0  0  0  0  0  0  0  0  0  0  0
   25.1610  -21.2061  -11.4913 C   0  0  0  0  0  0  0  0  0  0  0  0
   25.2202  -21.1975  -12.7515 O   0  0  0  0  0  0  0  0  0  0  0  0
   21.2485  -20.0368  -10.1499 O   0  0  0  0  0  0  0  0  0  0  0  0
   21.3869  -21.1551  -10.9670 C   0  0  0  0  0  0  0  0  0  0  0  0
   22.6651  -21.1304  -11.7584 C   0  0  2  0  0  0  0  0  0  0  0  0
   23.8422  -21.0926  -10.9418 N   0  0  0  0  0  0  0  0  0  0  0  0
   22.6105  -20.0052  -12.7323 C   0  0  0  0  0  0  0  0  0  0  0  0
   23.1117  -18.9233  -12.3431 O   0  0  0  0  0  0  0  0  0  0  0  0
   24.0703  -17.6246  -19.3104 N   0  0  0  0  0  0  0  0  0  0  0  0
   23.9648  -18.4805  -18.1920 C   0  0  0  0  0  0  0  0  0  0  0  0
   24.7297  -19.4611  -18.1108 O   0  0  0  0  0  0  0  0  0  0  0  0
   22.9734  -18.2166  -17.1500 C   0  0  0  0  0  0  0  0  0  0  0  0
   22.9400  -19.2274  -16.0581 C   0  0  0  0  0  0  0  0  0  0  0  0
   21.9484  -19.0292  -14.9791 C   0  0  2  0  0  0  0  0  0  0  0  0
   22.0403  -20.1206  -14.0112 N   0  0  0  0  0  0  0  0  0  0  0  0
   20.5530  -18.9749  -15.5006 C   0  0  0  0  0  0  0  0  0  0  0  0
   19.8870  -20.0293  -15.5202 O   0  0  0  0  0  0  0  0  0  0  0  0
   19.9605  -17.8246  -15.9636 O   0  0  0  0  0  0  0  0  0  0  0  0
  2  1  1  6
  3  2  1  0
  4  3  1  0
  4  9  2  0
  5  4  1  0
  6  5  2  0
  6  7  1  0
  7  8  2  0
  8  9  1  0
 10  2  1  0
 11 10  2  0
 12 13  1  0
 14 13  1  1
 14 16  1  0
 14 15  1  0
 15 10  1  0
 16 17  2  0
 18 19  1  0
 19 21  1  0
 20 19  2  0
 21 22  1  0
 23 22  1  6
 24 23  1  0
 24 16  1  0
 25 27  1  0
 25 23  1  0
 26 25  2  0
M  END
$$$$
