FSQ.pdb
     RDKit          3D

 27 27  0  0  1  0  0  0  0  0999 V2000
   27.2289  -21.9397  -11.7035 N   0  0  0  0  0  0  0  0  0  0  0  0
   26.0885  -21.3089  -11.0721 C   0  0  1  0  0  0  0  0  0  0  0  0
   26.4606  -19.9601  -10.4967 C   0  0  0  0  0  0  0  0  0  0  0  0
   27.1867  -20.0920   -9.2127 C   0  0  0  0  0  0  0  0  0  0  0  0
   28.5289  -20.4285   -9.1715 C   0  0  0  0  0  0  0  0  0  0  0  0
   29.2091  -20.5521   -7.9680 C   0  0  0  0  0  0  0  0  0  0  0  0
   28.5558  -20.3402   -6.7780 C   0  0  0  0  0  0  0  0  0  0  0  0
   27.2302  -20.0068   -6.7939 C   0  0  0  0  0  0  0  0  0  0  0  0
   26.5673  -19.8876   -7.9972 C   0  0  0  0  0  0  0  0  0  0  0  0
   24.9975  -21.2191  -12.0464 C   0  0  0  0  0  0  0  0  0  0  0  0
   25.2249  -20.9823  -13.2645 O   0  0  0  0  0  0  0  0  0  0  0  0
   20.7728  -21.3050  -11.0864 O   0  0  0  0  0  0  0  0  0  0  0  0
   21.2773  -21.9373  -12.2192 C   0  0  0  0  0  0  0  0  0  0  0  0
   22.5712  -21.3293  -12.6849 C   0  0  2  0  0  0  0  0  0  0  0  0
   23.6158  -21.3885  -11.7055 N   0  0  0  0  0  0  0  0  0  0  0  0
   22.3118  -19.9415  -13.1585 C   0  0  0  0  0  0  0  0  0  0  0  0
   22.3359  -19.0512  -12.2753 O   0  0  0  0  0  0  0  0  0  0  0  0
   24.4880  -18.9303  -18.0746 N   0  0  0  0  0  0  0  0  0  0  0  0
   23.2110  -19.5073  -18.2500 C   0  0  0  0  0  0  0  0  0  0  0  0
   23.0461  -20.3360  -19.1661 O   0  0  0  0  0  0  0  0  0  0  0  0
   22.1044  -19.1353  -17.3694 C   0  0  0  0  0  0  0  0  0  0  0  0
   22.4488  -18.1172  -16.3399 C   0  0  0  0  0  0  0  0  0  0  0  0
   21.8329  -18.2669  -15.0038 C   0  0  2  0  0  0  0  0  0  0  0  0
   22.0540  -19.6219  -14.5021 N   0  0  0  0  0  0  0  0  0  0  0  0
   20.3657  -18.0046  -15.0284 C   0  0  0  0  0  0  0  0  0  0  0  0
   19.5900  -18.9811  -15.0479 O   0  0  0  0  0  0  0  0  0  0  0  0
   19.8207  -16.7430  -15.0327 O   0  0  0  0  0  0  0  0  0  0  0  0
  2  1  1  6
  3  2  1  0
  4  3  1  0
  4  9  2  0
  5  4  1  0
  6  5  2  0
  6  7  1  0
  7  8  2  0
  8  9  1  0
 10  2  1  0
 11 10  2  0
 12 13  1  0
 14 13  1  1
 14 16  1  0
 14 15  1  0
 15 10  1  0
 16 17  2  0
 18 19  1  0
 19 21  1  0
 20 19  2  0
 21 22  1  0
 23 22  1  6
 24 23  1  0
 24 16  1  0
 25 27  1  0
 25 23  1  0
 26 25  2  0
M  END
$$$$
