FFT.pdb
     RDKit          3D

 30 31  0  0  1  0  0  0  0  0999 V2000
   33.7060  -32.1261  -17.3241 N   0  0  0  0  0  0  0  0  0  0  0  0
   33.4751  -32.1991  -15.8969 C   0  0  1  0  0  0  0  0  0  0  0  0
   32.0433  -32.6896  -15.7147 C   0  0  0  0  0  0  0  0  0  0  0  0
   31.8811  -33.9094  -16.5627 C   0  0  0  0  0  0  0  0  0  0  0  0
   31.9550  -35.1800  -16.0360 C   0  0  0  0  0  0  0  0  0  0  0  0
   31.7993  -36.2767  -16.8556 C   0  0  0  0  0  0  0  0  0  0  0  0
   31.5693  -36.1155  -18.2026 C   0  0  0  0  0  0  0  0  0  0  0  0
   31.4926  -34.8530  -18.7448 C   0  0  0  0  0  0  0  0  0  0  0  0
   31.6504  -33.7774  -17.9118 C   0  0  0  0  0  0  0  0  0  0  0  0
   34.4568  -33.1066  -15.2982 C   0  0  0  0  0  0  0  0  0  0  0  0
   35.1521  -33.8434  -16.0465 O   0  0  0  0  0  0  0  0  0  0  0  0
   34.6904  -33.2224  -13.9068 N   0  0  0  0  0  0  0  0  0  0  0  0
   35.7284  -34.1001  -13.4043 C   0  0  1  0  0  0  0  0  0  0  0  0
   36.4423  -33.5281  -12.2351 C   0  0  0  0  0  0  0  0  0  0  0  0
   37.4721  -34.4470  -11.7194 C   0  0  0  0  0  0  0  0  0  0  0  0
   38.6330  -34.7174  -12.4360 C   0  0  0  0  0  0  0  0  0  0  0  0
   39.6088  -35.5565  -11.9421 C   0  0  0  0  0  0  0  0  0  0  0  0
   39.4755  -36.1655  -10.7130 C   0  0  0  0  0  0  0  0  0  0  0  0
   38.3304  -35.9070   -9.9911 C   0  0  0  0  0  0  0  0  0  0  0  0
   37.3438  -35.0573  -10.4924 C   0  0  0  0  0  0  0  0  0  0  0  0
   35.0854  -35.3777  -13.0476 C   0  0  0  0  0  0  0  0  0  0  0  0
   34.1130  -35.4430  -12.2563 O   0  0  0  0  0  0  0  0  0  0  0  0
   33.0478  -37.9735  -14.8443 C   0  0  0  0  0  0  0  0  0  0  0  0
   34.3431  -38.5727  -14.3899 C   0  0  1  0  0  0  0  0  0  0  0  0
   35.2441  -38.6615  -15.4315 O   0  0  0  0  0  0  0  0  0  0  0  0
   34.9321  -37.8594  -13.1858 C   0  0  2  0  0  0  0  0  0  0  0  0
   35.5256  -36.6222  -13.5775 N   0  0  0  0  0  0  0  0  0  0  0  0
   35.8846  -38.7943  -12.5508 C   0  0  0  0  0  0  0  0  0  0  0  0
   37.1169  -38.6127  -12.5821 O   0  0  0  0  0  0  0  0  0  0  0  0
   35.3851  -39.9056  -11.9020 O   0  0  0  0  0  0  0  0  0  0  0  0
  2  1  1  6
  2  3  1  0
  3  4  1  0
  4  9  2  0
  5  6  2  0
  5  4  1  0
  6  7  1  0
  7  8  2  0
  9  8  1  0
 10  2  1  0
 10 11  2  0
 12 10  1  0
 13 12  1  0
 13 14  1  1
 15 14  1  0
 15 16  2  0
 17 16  1  0
 18 17  2  0
 19 20  2  0
 19 18  1  0
 20 15  1  0
 21 13  1  0
 22 21  2  0
 24 23  1  6
 24 26  1  0
 25 24  1  0
 26 27  1  6
 26 28  1  0
 27 21  1  0
 28 30  1  0
 29 28  2  0
M  END
$$$$
