FFT.pdb
     RDKit          3D

 30 31  0  0  1  0  0  0  0  0999 V2000
   28.6051  -20.3117  -14.4226 N   0  0  0  0  0  0  0  0  0  0  0  0
   27.4777  -19.5260  -13.9675 C   0  0  1  0  0  0  0  0  0  0  0  0
   26.7670  -19.0234  -15.2190 C   0  0  0  0  0  0  0  0  0  0  0  0
   27.5218  -17.8302  -15.7087 C   0  0  0  0  0  0  0  0  0  0  0  0
   28.3648  -17.8952  -16.7960 C   0  0  0  0  0  0  0  0  0  0  0  0
   29.0411  -16.7693  -17.2129 C   0  0  0  0  0  0  0  0  0  0  0  0
   28.8826  -15.5736  -16.5508 C   0  0  0  0  0  0  0  0  0  0  0  0
   28.0442  -15.4916  -15.4626 C   0  0  0  0  0  0  0  0  0  0  0  0
   27.3821  -16.6228  -15.0657 C   0  0  0  0  0  0  0  0  0  0  0  0
   26.6139  -20.3653  -13.1337 C   0  0  0  0  0  0  0  0  0  0  0  0
   26.4615  -21.5797  -13.4307 O   0  0  0  0  0  0  0  0  0  0  0  0
   25.9189  -19.9045  -11.9897 N   0  0  0  0  0  0  0  0  0  0  0  0
   25.0183  -20.7833  -11.2709 C   0  0  1  0  0  0  0  0  0  0  0  0
   24.8928  -20.4219   -9.8364 C   0  0  0  0  0  0  0  0  0  0  0  0
   26.1606  -20.6144   -9.1107 C   0  0  0  0  0  0  0  0  0  0  0  0
   26.5415  -19.7716   -8.0721 C   0  0  0  0  0  0  0  0  0  0  0  0
   27.7149  -19.9670   -7.3755 C   0  0  0  0  0  0  0  0  0  0  0  0
   28.5637  -21.0094   -7.6794 C   0  0  0  0  0  0  0  0  0  0  0  0
   28.1995  -21.8532   -8.7062 C   0  0  0  0  0  0  0  0  0  0  0  0
   27.0114  -21.6541   -9.4102 C   0  0  0  0  0  0  0  0  0  0  0  0
   23.7080  -20.7104  -11.9425 C   0  0  0  0  0  0  0  0  0  0  0  0
   23.2701  -19.6481  -12.4482 O   0  0  0  0  0  0  0  0  0  0  0  0
   19.9478  -23.0903  -14.0921 C   0  0  0  0  0  0  0  0  0  0  0  0
   21.3154  -23.0577  -13.4820 C   0  0  1  0  0  0  0  0  0  0  0  0
   22.2874  -23.3340  -14.4219 O   0  0  0  0  0  0  0  0  0  0  0  0
   21.5963  -21.7668  -12.7337 C   0  0  2  0  0  0  0  0  0  0  0  0
   22.8529  -21.8408  -12.0616 N   0  0  0  0  0  0  0  0  0  0  0  0
   20.4548  -21.5355  -11.8238 C   0  0  0  0  0  0  0  0  0  0  0  0
   20.5780  -21.5502  -10.5840 O   0  0  0  0  0  0  0  0  0  0  0  0
   19.2114  -21.2953  -12.3731 O   0  0  0  0  0  0  0  0  0  0  0  0
  2  1  1  6
  2  3  1  0
  3  4  1  0
  4  9  2  0
  5  6  2  0
  5  4  1  0
  6  7  1  0
  7  8  2  0
  9  8  1  0
 10  2  1  0
 10 11  2  0
 12 10  1  0
 13 12  1  0
 13 14  1  1
 15 14  1  0
 15 16  2  0
 17 16  1  0
 18 17  2  0
 19 20  2  0
 19 18  1  0
 20 15  1  0
 21 13  1  0
 22 21  2  0
 24 23  1  6
 24 26  1  0
 25 24  1  0
 26 27  1  1
 26 28  1  0
 27 21  1  0
 28 30  1  0
 29 28  2  0
M  END
$$$$
