FFT.pdb
     RDKit          3D

 30 31  0  0  1  0  0  0  0  0999 V2000
   27.1058  -21.8302  -18.2412 N   0  0  0  0  0  0  0  0  0  0  0  0
   26.4375  -20.6799  -17.6704 C   0  0  1  0  0  0  0  0  0  0  0  0
   25.2920  -20.3324  -18.6143 C   0  0  0  0  0  0  0  0  0  0  0  0
   25.8107  -19.3256  -19.5894 C   0  0  0  0  0  0  0  0  0  0  0  0
   26.3319  -19.6928  -20.8103 C   0  0  0  0  0  0  0  0  0  0  0  0
   26.7990  -18.7302  -21.6787 C   0  0  0  0  0  0  0  0  0  0  0  0
   26.7501  -17.3982  -21.3374 C   0  0  0  0  0  0  0  0  0  0  0  0
   26.2324  -17.0145  -20.1215 C   0  0  0  0  0  0  0  0  0  0  0  0
   25.7739  -17.9877  -19.2741 C   0  0  0  0  0  0  0  0  0  0  0  0
   25.9691  -21.0169  -16.3240 C   0  0  0  0  0  0  0  0  0  0  0  0
   25.6074  -22.1972  -16.0744 O   0  0  0  0  0  0  0  0  0  0  0  0
   25.8895  -20.0939  -15.2535 N   0  0  0  0  0  0  0  0  0  0  0  0
   25.4506  -20.5236  -13.9410 C   0  0  1  0  0  0  0  0  0  0  0  0
   26.1471  -19.8064  -12.8436 C   0  0  0  0  0  0  0  0  0  0  0  0
   25.7019  -20.2699  -11.5177 C   0  0  0  0  0  0  0  0  0  0  0  0
   26.2863  -21.3674  -10.8948 C   0  0  0  0  0  0  0  0  0  0  0  0
   25.8881  -21.7854   -9.6430 C   0  0  0  0  0  0  0  0  0  0  0  0
   24.8904  -21.1315   -8.9528 C   0  0  0  0  0  0  0  0  0  0  0  0
   24.3019  -20.0418   -9.5573 C   0  0  0  0  0  0  0  0  0  0  0  0
   24.7063  -19.6200  -10.8243 C   0  0  0  0  0  0  0  0  0  0  0  0
   23.9958  -20.2961  -13.8706 C   0  0  0  0  0  0  0  0  0  0  0  0
   23.4800  -19.1721  -14.0864 O   0  0  0  0  0  0  0  0  0  0  0  0
   21.0029  -21.9330  -15.6731 C   0  0  0  0  0  0  0  0  0  0  0  0
   20.8757  -22.1093  -14.1911 C   0  0  1  0  0  0  0  0  0  0  0  0
   21.1699  -23.4043  -13.8159 O   0  0  0  0  0  0  0  0  0  0  0  0
   21.6821  -21.0907  -13.4052 C   0  0  2  0  0  0  0  0  0  0  0  0
   23.0799  -21.3370  -13.5528 N   0  0  0  0  0  0  0  0  0  0  0  0
   21.2174  -21.1574  -12.0037 C   0  0  0  0  0  0  0  0  0  0  0  0
   21.9388  -21.5858  -11.0827 O   0  0  0  0  0  0  0  0  0  0  0  0
   19.9381  -20.7285  -11.7118 O   0  0  0  0  0  0  0  0  0  0  0  0
  2  1  1  6
  2  3  1  0
  3  4  1  0
  4  9  2  0
  5  6  2  0
  5  4  1  0
  6  7  1  0
  7  8  2  0
  9  8  1  0
 10  2  1  0
 10 11  2  0
 12 10  1  0
 13 12  1  0
 13 14  1  1
 15 14  1  0
 15 16  2  0
 17 16  1  0
 18 17  2  0
 19 20  2  0
 19 18  1  0
 20 15  1  0
 21 13  1  0
 22 21  2  0
 24 23  1  6
 24 26  1  0
 25 24  1  0
 26 27  1  1
 26 28  1  0
 27 21  1  0
 28 30  1  0
 29 28  2  0
M  END
$$$$
