FFT.pdb
     RDKit          3D

 30 31  0  0  1  0  0  0  0  0999 V2000
   26.2463  -20.4299  -18.1765 N   0  0  0  0  0  0  0  0  0  0  0  0
   26.3033  -19.4084  -17.1523 C   0  0  1  0  0  0  0  0  0  0  0  0
   24.8924  -18.8456  -17.0235 C   0  0  0  0  0  0  0  0  0  0  0  0
   24.6264  -18.0310  -18.2479 C   0  0  0  0  0  0  0  0  0  0  0  0
   25.2697  -16.8362  -18.4839 C   0  0  0  0  0  0  0  0  0  0  0  0
   24.9931  -16.1178  -19.6269 C   0  0  0  0  0  0  0  0  0  0  0  0
   24.0759  -16.5839  -20.5405 C   0  0  0  0  0  0  0  0  0  0  0  0
   23.4245  -17.7758  -20.3198 C   0  0  0  0  0  0  0  0  0  0  0  0
   23.7147  -18.4731  -19.1774 C   0  0  0  0  0  0  0  0  0  0  0  0
   26.7818  -20.0073  -15.9041 C   0  0  0  0  0  0  0  0  0  0  0  0
   26.3301  -21.1267  -15.5444 O   0  0  0  0  0  0  0  0  0  0  0  0
   27.7378  -19.4093  -15.0483 N   0  0  0  0  0  0  0  0  0  0  0  0
   28.0544  -20.0057  -13.7660 C   0  0  1  0  0  0  0  0  0  0  0  0
   29.2881  -19.4411  -13.1634 C   0  0  0  0  0  0  0  0  0  0  0  0
   29.6180  -20.0901  -11.8824 C   0  0  0  0  0  0  0  0  0  0  0  0
   29.2392  -19.5350  -10.6649 C   0  0  0  0  0  0  0  0  0  0  0  0
   29.5246  -20.1551   -9.4673 C   0  0  0  0  0  0  0  0  0  0  0  0
   30.1999  -21.3558   -9.4250 C   0  0  0  0  0  0  0  0  0  0  0  0
   30.5816  -21.9182  -10.6237 C   0  0  0  0  0  0  0  0  0  0  0  0
   30.2918  -21.2893  -11.8350 C   0  0  0  0  0  0  0  0  0  0  0  0
   26.8951  -19.7839  -12.8829 C   0  0  0  0  0  0  0  0  0  0  0  0
   26.4222  -18.6409  -12.6686 O   0  0  0  0  0  0  0  0  0  0  0  0
   23.3538  -20.3953  -13.0526 C   0  0  0  0  0  0  0  0  0  0  0  0
   23.8598  -21.1797  -11.8813 C   0  0  1  0  0  0  0  0  0  0  0  0
   23.9635  -22.5215  -12.1869 O   0  0  0  0  0  0  0  0  0  0  0  0
   25.1531  -20.6226  -11.3134 C   0  0  2  0  0  0  0  0  0  0  0  0
   26.2356  -20.8523  -12.2144 N   0  0  0  0  0  0  0  0  0  0  0  0
   25.3486  -21.2456   -9.9874 C   0  0  0  0  0  0  0  0  0  0  0  0
   24.5338  -21.0993   -9.0563 O   0  0  0  0  0  0  0  0  0  0  0  0
   26.4756  -22.0153   -9.7799 O   0  0  0  0  0  0  0  0  0  0  0  0
  2  1  1  6
  2  3  1  0
  3  4  1  0
  4  9  2  0
  5  6  2  0
  5  4  1  0
  6  7  1  0
  7  8  2  0
  9  8  1  0
 10  2  1  0
 10 11  2  0
 12 10  1  0
 13 12  1  0
 13 14  1  1
 15 14  1  0
 15 16  2  0
 17 16  1  0
 18 17  2  0
 19 20  2  0
 19 18  1  0
 20 15  1  0
 21 13  1  0
 22 21  2  0
 24 23  1  6
 24 26  1  0
 25 24  1  0
 26 27  1  6
 26 28  1  0
 27 21  1  0
 28 30  1  0
 29 28  2  0
M  END
$$$$
