FFT.pdb
     RDKit          3D

 30 31  0  0  1  0  0  0  0  0999 V2000
   27.2070  -22.5706  -17.3538 N   0  0  0  0  0  0  0  0  0  0  0  0
   26.7996  -21.3001  -16.7922 C   0  0  1  0  0  0  0  0  0  0  0  0
   25.4908  -20.9239  -17.4772 C   0  0  0  0  0  0  0  0  0  0  0  0
   25.8414  -20.2500  -18.7642 C   0  0  0  0  0  0  0  0  0  0  0  0
   25.9848  -18.8833  -18.8573 C   0  0  0  0  0  0  0  0  0  0  0  0
   26.3091  -18.3044  -20.0650 C   0  0  0  0  0  0  0  0  0  0  0  0
   26.4924  -19.0813  -21.1857 C   0  0  0  0  0  0  0  0  0  0  0  0
   26.3529  -20.4483  -21.1098 C   0  0  0  0  0  0  0  0  0  0  0  0
   26.0302  -21.0023  -19.8996 C   0  0  0  0  0  0  0  0  0  0  0  0
   26.6500  -21.4429  -15.3420 C   0  0  0  0  0  0  0  0  0  0  0  0
   26.1398  -22.4957  -14.8755 O   0  0  0  0  0  0  0  0  0  0  0  0
   27.0451  -20.4631  -14.3997 N   0  0  0  0  0  0  0  0  0  0  0  0
   26.8202  -20.6699  -12.9831 C   0  0  1  0  0  0  0  0  0  0  0  0
   27.7038  -19.8294  -12.1366 C   0  0  0  0  0  0  0  0  0  0  0  0
   27.4240  -20.0136  -10.7018 C   0  0  0  0  0  0  0  0  0  0  0  0
   28.0374  -21.0191   -9.9624 C   0  0  0  0  0  0  0  0  0  0  0  0
   27.7960  -21.1753   -8.6142 C   0  0  0  0  0  0  0  0  0  0  0  0
   26.9335  -20.3389   -7.9390 C   0  0  0  0  0  0  0  0  0  0  0  0
   26.3182  -19.3375   -8.6585 C   0  0  0  0  0  0  0  0  0  0  0  0
   26.5638  -19.1807  -10.0230 C   0  0  0  0  0  0  0  0  0  0  0  0
   25.4023  -20.3667  -12.7170 C   0  0  0  0  0  0  0  0  0  0  0  0
   24.8733  -19.2786  -13.0520 O   0  0  0  0  0  0  0  0  0  0  0  0
   22.3393  -21.2862  -14.1120 C   0  0  0  0  0  0  0  0  0  0  0  0
   22.2414  -21.7290  -12.6844 C   0  0  1  0  0  0  0  0  0  0  0  0
   22.4021  -23.0951  -12.5739 O   0  0  0  0  0  0  0  0  0  0  0  0
   23.1809  -20.9681  -11.7657 C   0  0  2  0  0  0  0  0  0  0  0  0
   24.5395  -21.2886  -12.0621 N   0  0  0  0  0  0  0  0  0  0  0  0
   22.7886  -21.2931  -10.3783 C   0  0  0  0  0  0  0  0  0  0  0  0
   21.6674  -21.0038   -9.9182 O   0  0  0  0  0  0  0  0  0  0  0  0
   23.7010  -21.9398   -9.5691 O   0  0  0  0  0  0  0  0  0  0  0  0
  2  1  1  6
  2  3  1  0
  3  4  1  0
  4  9  2  0
  5  6  2  0
  5  4  1  0
  6  7  1  0
  7  8  2  0
  9  8  1  0
 10  2  1  0
 10 11  2  0
 12 10  1  0
 13 12  1  0
 13 14  1  1
 15 14  1  0
 15 16  2  0
 17 16  1  0
 18 17  2  0
 19 20  2  0
 19 18  1  0
 20 15  1  0
 21 13  1  0
 22 21  2  0
 24 23  1  6
 24 26  1  0
 25 24  1  0
 26 27  1  6
 26 28  1  0
 27 21  1  0
 28 30  1  0
 29 28  2  0
M  END
$$$$
