FFT.pdb
     RDKit          3D

 30 31  0  0  1  0  0  0  0  0999 V2000
   27.3352  -21.5613  -13.6514 N   0  0  0  0  0  0  0  0  0  0  0  0
   27.3027  -20.3482  -12.8622 C   0  0  1  0  0  0  0  0  0  0  0  0
   26.0915  -19.5544  -13.3385 C   0  0  0  0  0  0  0  0  0  0  0  0
   26.4930  -18.8401  -14.5883 C   0  0  0  0  0  0  0  0  0  0  0  0
   26.1427  -19.3019  -15.8378 C   0  0  0  0  0  0  0  0  0  0  0  0
   26.5347  -18.6109  -16.9636 C   0  0  0  0  0  0  0  0  0  0  0  0
   27.2768  -17.4576  -16.8527 C   0  0  0  0  0  0  0  0  0  0  0  0
   27.6352  -16.9826  -15.6118 C   0  0  0  0  0  0  0  0  0  0  0  0
   27.2348  -17.6852  -14.5066 C   0  0  0  0  0  0  0  0  0  0  0  0
   27.2159  -20.7016  -11.4432 C   0  0  0  0  0  0  0  0  0  0  0  0
   26.5907  -21.7409  -11.1038 O   0  0  0  0  0  0  0  0  0  0  0  0
   27.7959  -19.9452  -10.3966 N   0  0  0  0  0  0  0  0  0  0  0  0
   27.5497  -20.2936   -9.0116 C   0  0  1  0  0  0  0  0  0  0  0  0
   28.4616  -19.5892   -8.0755 C   0  0  0  0  0  0  0  0  0  0  0  0
   28.1552  -19.9070   -6.6698 C   0  0  0  0  0  0  0  0  0  0  0  0
   28.6301  -21.0651   -6.0637 C   0  0  0  0  0  0  0  0  0  0  0  0
   28.3656  -21.3498   -4.7412 C   0  0  0  0  0  0  0  0  0  0  0  0
   27.6167  -20.4963   -3.9602 C   0  0  0  0  0  0  0  0  0  0  0  0
   27.1392  -19.3445   -4.5470 C   0  0  0  0  0  0  0  0  0  0  0  0
   27.4080  -19.0577   -5.8857 C   0  0  0  0  0  0  0  0  0  0  0  0
   26.1441  -19.9585   -8.7200 C   0  0  0  0  0  0  0  0  0  0  0  0
   25.6099  -18.8948   -9.1191 O   0  0  0  0  0  0  0  0  0  0  0  0
   23.6362  -19.4549  -10.0224 C   0  0  0  0  0  0  0  0  0  0  0  0
   23.1777  -20.5406   -9.0980 C   0  0  1  0  0  0  0  0  0  0  0  0
   23.2286  -21.7744   -9.7139 O   0  0  0  0  0  0  0  0  0  0  0  0
   23.9152  -20.5349   -7.7708 C   0  0  2  0  0  0  0  0  0  0  0  0
   25.2998  -20.8198   -7.9660 N   0  0  0  0  0  0  0  0  0  0  0  0
   23.2326  -21.5068   -6.8910 C   0  0  0  0  0  0  0  0  0  0  0  0
   23.8200  -22.4925   -6.4055 O   0  0  0  0  0  0  0  0  0  0  0  0
   21.8974  -21.3097   -6.6009 O   0  0  0  0  0  0  0  0  0  0  0  0
  2  1  1  6
  2  3  1  0
  3  4  1  0
  4  9  2  0
  5  6  2  0
  5  4  1  0
  6  7  1  0
  7  8  2  0
  9  8  1  0
 10  2  1  0
 10 11  2  0
 12 10  1  0
 13 12  1  0
 13 14  1  1
 15 14  1  0
 15 16  2  0
 17 16  1  0
 18 17  2  0
 19 20  2  0
 19 18  1  0
 20 15  1  0
 21 13  1  0
 22 21  2  0
 24 23  1  6
 24 26  1  0
 25 24  1  0
 26 27  1  6
 26 28  1  0
 27 21  1  0
 28 30  1  0
 29 28  2  0
M  END
$$$$
