FFT.pdb
     RDKit          3D

 30 31  0  0  1  0  0  0  0  0999 V2000
   20.4090  -10.4231  -17.2537 N   0  0  0  0  0  0  0  0  0  0  0  0
   20.2745   -9.1196  -17.8687 C   0  0  1  0  0  0  0  0  0  0  0  0
   18.8889   -9.0814  -18.5033 C   0  0  0  0  0  0  0  0  0  0  0  0
   18.9708   -9.8321  -19.7929 C   0  0  0  0  0  0  0  0  0  0  0  0
   18.4551  -11.1016  -19.9327 C   0  0  0  0  0  0  0  0  0  0  0  0
   18.5531  -11.7568  -21.1410 C   0  0  0  0  0  0  0  0  0  0  0  0
   19.1641  -11.1531  -22.2159 C   0  0  0  0  0  0  0  0  0  0  0  0
   19.6845   -9.8850  -22.0929 C   0  0  0  0  0  0  0  0  0  0  0  0
   19.5760   -9.2526  -20.8831 C   0  0  0  0  0  0  0  0  0  0  0  0
   20.4486   -8.0863  -16.8451 C   0  0  0  0  0  0  0  0  0  0  0  0
   19.8287   -8.1890  -15.7536 O   0  0  0  0  0  0  0  0  0  0  0  0
   21.2820   -6.9514  -16.9919 N   0  0  0  0  0  0  0  0  0  0  0  0
   21.4031   -5.9826  -15.9211 C   0  0  1  0  0  0  0  0  0  0  0  0
   22.7805   -5.9086  -15.3720 C   0  0  0  0  0  0  0  0  0  0  0  0
   23.2724   -7.2311  -14.9480 C   0  0  0  0  0  0  0  0  0  0  0  0
   22.8361   -7.8282  -13.7702 C   0  0  0  0  0  0  0  0  0  0  0  0
   23.2760   -9.0769  -13.3863 C   0  0  0  0  0  0  0  0  0  0  0  0
   24.1701   -9.7896  -14.1558 C   0  0  0  0  0  0  0  0  0  0  0  0
   24.6114   -9.2108  -15.3260 C   0  0  0  0  0  0  0  0  0  0  0  0
   24.1650   -7.9469  -15.7131 C   0  0  0  0  0  0  0  0  0  0  0  0
   20.9885   -4.6765  -16.4645 C   0  0  0  0  0  0  0  0  0  0  0  0
   21.6666   -4.0594  -17.3222 O   0  0  0  0  0  0  0  0  0  0  0  0
   17.5825   -3.7579  -18.1434 C   0  0  0  0  0  0  0  0  0  0  0  0
   17.8765   -2.8689  -16.9744 C   0  0  1  0  0  0  0  0  0  0  0  0
   17.1132   -3.2170  -15.8787 O   0  0  0  0  0  0  0  0  0  0  0  0
   19.3564   -2.8039  -16.6410 C   0  0  2  0  0  0  0  0  0  0  0  0
   19.7912   -4.0289  -16.0519 N   0  0  0  0  0  0  0  0  0  0  0  0
   19.5531   -1.6282  -15.7672 C   0  0  0  0  0  0  0  0  0  0  0  0
   19.9612   -1.7310  -14.5944 O   0  0  0  0  0  0  0  0  0  0  0  0
   19.2731   -0.3752  -16.2743 O   0  0  0  0  0  0  0  0  0  0  0  0
  2  1  1  1
  2  3  1  0
  3  4  1  0
  4  9  2  0
  5  6  2  0
  5  4  1  0
  6  7  1  0
  7  8  2  0
  9  8  1  0
 10  2  1  0
 10 11  2  0
 12 10  1  0
 13 12  1  0
 13 14  1  6
 15 14  1  0
 15 16  2  0
 17 16  1  0
 18 17  2  0
 19 20  2  0
 19 18  1  0
 20 15  1  0
 21 13  1  0
 22 21  2  0
 24 23  1  6
 24 26  1  0
 25 24  1  0
 26 27  1  1
 26 28  1  0
 27 21  1  0
 28 30  1  0
 29 28  2  0
M  END
$$$$
