FFT.pdb
     RDKit          3D

 30 31  0  0  1  0  0  0  0  0999 V2000
   31.0215  -22.0016  -12.8868 N   0  0  0  0  0  0  0  0  0  0  0  0
   30.6910  -20.7594  -12.2210 C   0  0  1  0  0  0  0  0  0  0  0  0
   29.6405  -20.0714  -13.0853 C   0  0  0  0  0  0  0  0  0  0  0  0
   30.3646  -19.3634  -14.1843 C   0  0  0  0  0  0  0  0  0  0  0  0
   31.2572  -18.3450  -13.9330 C   0  0  0  0  0  0  0  0  0  0  0  0
   31.9027  -17.7199  -14.9777 C   0  0  0  0  0  0  0  0  0  0  0  0
   31.6639  -18.1043  -16.2771 C   0  0  0  0  0  0  0  0  0  0  0  0
   30.7752  -19.1201  -16.5454 C   0  0  0  0  0  0  0  0  0  0  0  0
   30.1450  -19.7273  -15.4920 C   0  0  0  0  0  0  0  0  0  0  0  0
   30.1994  -21.0540  -10.8730 C   0  0  0  0  0  0  0  0  0  0  0  0
   29.6500  -22.1644  -10.6460 O   0  0  0  0  0  0  0  0  0  0  0  0
   30.2967  -20.1635   -9.7768 N   0  0  0  0  0  0  0  0  0  0  0  0
   29.7116  -20.5049   -8.4957 C   0  0  1  0  0  0  0  0  0  0  0  0
   30.3913  -19.8315   -7.3606 C   0  0  0  0  0  0  0  0  0  0  0  0
   29.5809  -19.8795   -6.1310 C   0  0  0  0  0  0  0  0  0  0  0  0
   28.6453  -18.8940   -5.8353 C   0  0  0  0  0  0  0  0  0  0  0  0
   27.8683  -18.9522   -4.6982 C   0  0  0  0  0  0  0  0  0  0  0  0
   27.9856  -19.9932   -3.8026 C   0  0  0  0  0  0  0  0  0  0  0  0
   28.9085  -20.9776   -4.0823 C   0  0  0  0  0  0  0  0  0  0  0  0
   29.6941  -20.9172   -5.2338 C   0  0  0  0  0  0  0  0  0  0  0  0
   28.2884  -20.1244   -8.5501 C   0  0  0  0  0  0  0  0  0  0  0  0
   27.9159  -18.9409   -8.7414 O   0  0  0  0  0  0  0  0  0  0  0  0
   23.9756  -21.2461  -10.2422 C   0  0  0  0  0  0  0  0  0  0  0  0
   25.4215  -21.4834   -9.9315 C   0  0  1  0  0  0  0  0  0  0  0  0
   26.2190  -21.1990  -11.0212 O   0  0  0  0  0  0  0  0  0  0  0  0
   25.8829  -20.7551   -8.6817 C   0  0  2  0  0  0  0  0  0  0  0  0
   27.2425  -21.0749   -8.3889 N   0  0  0  0  0  0  0  0  0  0  0  0
   24.9464  -21.1178   -7.5974 C   0  0  0  0  0  0  0  0  0  0  0  0
   25.3197  -21.7046   -6.5636 O   0  0  0  0  0  0  0  0  0  0  0  0
   23.6126  -20.7921   -7.7412 O   0  0  0  0  0  0  0  0  0  0  0  0
  2  1  1  6
  2  3  1  0
  3  4  1  0
  4  9  2  0
  5  6  2  0
  5  4  1  0
  6  7  1  0
  7  8  2  0
  9  8  1  0
 10  2  1  0
 10 11  2  0
 12 10  1  0
 13 12  1  0
 13 14  1  1
 15 14  1  0
 15 16  2  0
 17 16  1  0
 18 17  2  0
 19 20  2  0
 19 18  1  0
 20 15  1  0
 21 13  1  0
 22 21  2  0
 24 23  1  6
 24 26  1  0
 25 24  1  0
 26 27  1  1
 26 28  1  0
 27 21  1  0
 28 30  1  0
 29 28  2  0
M  END
$$$$
