YHM.pdb
     RDKit          3D

 31 32  0  0  1  0  0  0  0  0999 V2000
    8.7765  -11.9219   19.6036 O   0  0  0  0  0  0  0  0  0  0  0  0
    8.0487  -12.9638   20.1552 C   0  0  0  0  0  0  0  0  0  0  0  0
    7.4987  -12.9264   21.4149 C   0  0  0  0  0  0  0  0  0  0  0  0
    6.7889  -13.9784   21.9161 C   0  0  0  0  0  0  0  0  0  0  0  0
    6.6296  -15.1026   21.1205 C   0  0  0  0  0  0  0  0  0  0  0  0
    5.8721  -16.2291   21.6859 C   0  0  0  0  0  0  0  0  0  0  0  0
    6.5368  -17.5692   21.5035 C   0  0  2  0  0  0  0  0  0  0  0  0
    5.5466  -18.6079   21.8430 N   0  0  0  0  0  0  0  0  0  0  0  0
    7.7082  -17.6570   22.4029 C   0  0  0  0  0  0  0  0  0  0  0  0
    7.5843  -18.1580   23.5458 O   0  0  0  0  0  0  0  0  0  0  0  0
    7.1594  -15.1785   19.8669 C   0  0  0  0  0  0  0  0  0  0  0  0
    7.8714  -14.1044   19.3835 C   0  0  0  0  0  0  0  0  0  0  0  0
    8.9761  -17.1743   21.9739 N   0  0  0  0  0  0  0  0  0  0  0  0
   10.1620  -17.3320   22.7698 C   0  0  1  0  0  0  0  0  0  0  0  0
   11.4297  -17.1059   22.0045 C   0  0  0  0  0  0  0  0  0  0  0  0
   11.6369  -18.0279   20.8950 C   0  0  0  0  0  0  0  0  0  0  0  0
   12.1232  -19.3050   20.9915 C   0  0  0  0  0  0  0  0  0  0  0  0
   12.1549  -19.8077   19.7298 N   0  0  0  0  0  0  0  0  0  0  0  0
   11.7069  -18.8804   18.8865 C   0  0  0  0  0  0  0  0  0  0  0  0
   11.3913  -17.7936   19.6039 N   0  0  0  0  0  0  0  0  0  0  0  0
   10.0706  -16.5116   24.0024 C   0  0  0  0  0  0  0  0  0  0  0  0
   10.5313  -15.3218   23.9409 O   0  0  0  0  0  0  0  0  0  0  0  0
    6.6811  -12.5920   27.4037 C   0  0  0  0  0  0  0  0  0  0  0  0
    6.4695  -13.4248   25.8061 S   0  0  0  0  0  0  0  0  0  0  0  0
    7.8359  -14.5394   25.4580 C   0  0  0  0  0  0  0  0  0  0  0  0
    8.2924  -15.3863   26.5797 C   0  0  0  0  0  0  0  0  0  0  0  0
    9.5750  -16.0768   26.3980 C   0  0  2  0  0  0  0  0  0  0  0  0
    9.5271  -16.9376   25.2039 N   0  0  0  0  0  0  0  0  0  0  0  0
   10.0594  -16.8205   27.5472 C   0  0  0  0  0  0  0  0  0  0  0  0
   10.2618  -16.3970   28.6940 O   0  0  0  0  0  0  0  0  0  0  0  0
   10.3379  -18.1871   27.3565 O   0  0  0  0  0  0  0  0  0  0  0  0
  2  1  1  0
  3  2  2  0
  4  3  1  0
  5  4  2  0
  5 11  1  0
  6  5  1  0
  7  6  1  0
  7  8  1  1
  9 10  2  0
  9  7  1  0
 11 12  2  0
 12  2  1  0
 13  9  1  0
 14 15  1  6
 14 13  1  0
 15 16  1  0
 16 20  1  0
 16 17  2  0
 17 18  1  0
 19 18  1  0
 20 19  2  0
 21 14  1  0
 22 21  2  0
 24 23  1  0
 24 25  1  0
 26 25  1  0
 27 26  1  1
 27 28  1  0
 28 21  1  0
 29 31  1  0
 29 27  1  0
 30 29  2  0
M  END
$$$$
