YHM.pdb
     RDKit          3D

 31 32  0  0  1  0  0  0  0  0999 V2000
    8.2886  -11.6575   27.0002 O   0  0  0  0  0  0  0  0  0  0  0  0
    7.8238  -12.8842   26.5547 C   0  0  0  0  0  0  0  0  0  0  0  0
    6.9715  -13.6849   27.2779 C   0  0  0  0  0  0  0  0  0  0  0  0
    6.5399  -14.8867   26.7972 C   0  0  0  0  0  0  0  0  0  0  0  0
    6.9827  -15.2921   25.5474 C   0  0  0  0  0  0  0  0  0  0  0  0
    6.5151  -16.5964   25.0549 C   0  0  0  0  0  0  0  0  0  0  0  0
    6.3371  -16.6604   23.5598 C   0  0  2  0  0  0  0  0  0  0  0  0
    5.5075  -17.8420   23.2598 N   0  0  0  0  0  0  0  0  0  0  0  0
    7.6641  -16.7828   22.9174 C   0  0  0  0  0  0  0  0  0  0  0  0
    8.2435  -17.8945   22.8836 O   0  0  0  0  0  0  0  0  0  0  0  0
    7.8276  -14.5272   24.7998 C   0  0  0  0  0  0  0  0  0  0  0  0
    8.2491  -13.3189   25.3064 C   0  0  0  0  0  0  0  0  0  0  0  0
    8.2850  -15.6417   22.3370 N   0  0  0  0  0  0  0  0  0  0  0  0
    9.6207  -15.6852   21.8092 C   0  0  1  0  0  0  0  0  0  0  0  0
    9.9277  -14.5619   20.8669 C   0  0  0  0  0  0  0  0  0  0  0  0
    9.1167  -14.5517   19.6561 C   0  0  0  0  0  0  0  0  0  0  0  0
    8.1888  -15.4954   19.3023 C   0  0  0  0  0  0  0  0  0  0  0  0
    7.6675  -15.1038   18.1105 N   0  0  0  0  0  0  0  0  0  0  0  0
    8.2484  -13.9646   17.7411 C   0  0  0  0  0  0  0  0  0  0  0  0
    9.1340  -13.6308   18.6897 N   0  0  0  0  0  0  0  0  0  0  0  0
   10.6079  -15.8098   22.9094 C   0  0  0  0  0  0  0  0  0  0  0  0
   11.8214  -16.0288   22.5759 O   0  0  0  0  0  0  0  0  0  0  0  0
    8.5990  -14.7904   29.8978 C   0  0  0  0  0  0  0  0  0  0  0  0
    9.6407  -14.0384   28.6170 S   0  0  0  0  0  0  0  0  0  0  0  0
   10.2247  -15.2640   27.4391 C   0  0  0  0  0  0  0  0  0  0  0  0
   11.0811  -14.7637   26.3436 C   0  0  0  0  0  0  0  0  0  0  0  0
   11.3869  -15.7133   25.2668 C   0  0  2  0  0  0  0  0  0  0  0  0
   10.3125  -15.7069   24.2595 N   0  0  0  0  0  0  0  0  0  0  0  0
   11.6865  -17.0700   25.6885 C   0  0  0  0  0  0  0  0  0  0  0  0
   11.0232  -18.0945   25.4743 O   0  0  0  0  0  0  0  0  0  0  0  0
   12.8669  -17.2660   26.4301 O   0  0  0  0  0  0  0  0  0  0  0  0
  2  1  1  0
  3  2  2  0
  4  3  1  0
  5  4  2  0
  5 11  1  0
  6  5  1  0
  7  6  1  0
  7  8  1  1
  9 10  2  0
  9  7  1  0
 11 12  2  0
 12  2  1  0
 13  9  1  0
 14 15  1  1
 14 13  1  0
 15 16  1  0
 16 20  1  0
 16 17  2  0
 17 18  1  0
 19 18  1  0
 20 19  2  0
 21 14  1  0
 22 21  2  0
 24 23  1  0
 24 25  1  0
 26 25  1  0
 27 26  1  1
 27 28  1  0
 28 21  1  0
 29 31  1  0
 29 27  1  0
 30 29  2  0
M  END
$$$$
