YHM.pdb
     RDKit          3D

 31 32  0  0  1  0  0  0  0  0999 V2000
    7.4757  -12.8051   16.0536 O   0  0  0  0  0  0  0  0  0  0  0  0
    7.5289  -13.3134   17.3414 C   0  0  0  0  0  0  0  0  0  0  0  0
    8.2933  -12.7675   18.3455 C   0  0  0  0  0  0  0  0  0  0  0  0
    8.3135  -13.3036   19.6000 C   0  0  0  0  0  0  0  0  0  0  0  0
    7.5377  -14.4257   19.8480 C   0  0  0  0  0  0  0  0  0  0  0  0
    7.5849  -14.9942   21.2033 C   0  0  0  0  0  0  0  0  0  0  0  0
    8.9489  -14.9465   21.8421 C   0  0  2  0  0  0  0  0  0  0  0  0
    9.9196  -15.4633   20.8597 N   0  0  0  0  0  0  0  0  0  0  0  0
    8.9454  -15.7885   23.0586 C   0  0  0  0  0  0  0  0  0  0  0  0
    8.0742  -15.6085   23.9425 O   0  0  0  0  0  0  0  0  0  0  0  0
    6.7667  -14.9964   18.8795 C   0  0  0  0  0  0  0  0  0  0  0  0
    6.7631  -14.4372   17.6219 C   0  0  0  0  0  0  0  0  0  0  0  0
    9.9285  -16.8031   23.2281 N   0  0  0  0  0  0  0  0  0  0  0  0
    9.9572  -17.6521   24.3870 C   0  0  1  0  0  0  0  0  0  0  0  0
   10.6378  -18.9652   24.1489 C   0  0  0  0  0  0  0  0  0  0  0  0
    9.9651  -19.8272   23.1855 C   0  0  0  0  0  0  0  0  0  0  0  0
    8.7494  -20.4337   23.3613 C   0  0  0  0  0  0  0  0  0  0  0  0
    8.4967  -21.1390   22.2280 N   0  0  0  0  0  0  0  0  0  0  0  0
    9.5137  -20.9762   21.3850 C   0  0  0  0  0  0  0  0  0  0  0  0
   10.4094  -20.1730   21.9750 N   0  0  0  0  0  0  0  0  0  0  0  0
   10.5018  -16.9161   25.5541 C   0  0  0  0  0  0  0  0  0  0  0  0
   11.1669  -15.8534   25.3090 O   0  0  0  0  0  0  0  0  0  0  0  0
    7.3755  -12.4536   26.4322 C   0  0  0  0  0  0  0  0  0  0  0  0
    8.6455  -12.5939   27.7199 S   0  0  0  0  0  0  0  0  0  0  0  0
    9.7873  -13.9387   27.3754 C   0  0  0  0  0  0  0  0  0  0  0  0
    9.3511  -15.2897   27.7861 C   0  0  0  0  0  0  0  0  0  0  0  0
   10.4079  -16.2940   27.9578 C   0  0  2  0  0  0  0  0  0  0  0  0
   10.3431  -17.2936   26.8781 N   0  0  0  0  0  0  0  0  0  0  0  0
   10.4559  -16.9433   29.2557 C   0  0  0  0  0  0  0  0  0  0  0  0
    9.9243  -18.0118   29.5890 O   0  0  0  0  0  0  0  0  0  0  0  0
   11.1890  -16.2981   30.2695 O   0  0  0  0  0  0  0  0  0  0  0  0
  2  1  1  0
  3  2  2  0
  4  3  1  0
  5  4  2  0
  5 11  1  0
  6  5  1  0
  7  6  1  0
  7  8  1  6
  9 10  2  0
  9  7  1  0
 11 12  2  0
 12  2  1  0
 13  9  1  0
 14 15  1  6
 14 13  1  0
 15 16  1  0
 16 20  1  0
 16 17  2  0
 17 18  1  0
 19 18  1  0
 20 19  2  0
 21 14  1  0
 22 21  2  0
 24 23  1  0
 24 25  1  0
 26 25  1  0
 27 26  1  1
 27 28  1  0
 28 21  1  0
 29 31  1  0
 29 27  1  0
 30 29  2  0
M  END
$$$$
