YHM.pdb
     RDKit          3D

 31 32  0  0  1  0  0  0  0  0999 V2000
    7.4416  -12.1338   17.2035 O   0  0  0  0  0  0  0  0  0  0  0  0
    7.8246  -12.8360   18.3348 C   0  0  0  0  0  0  0  0  0  0  0  0
    9.1345  -13.0869   18.6692 C   0  0  0  0  0  0  0  0  0  0  0  0
    9.4637  -13.7838   19.7951 C   0  0  0  0  0  0  0  0  0  0  0  0
    8.4381  -14.2412   20.6083 C   0  0  0  0  0  0  0  0  0  0  0  0
    8.8156  -15.0009   21.8095 C   0  0  0  0  0  0  0  0  0  0  0  0
    9.4373  -16.3422   21.5177 C   0  0  2  0  0  0  0  0  0  0  0  0
    8.4413  -17.1452   20.7844 N   0  0  0  0  0  0  0  0  0  0  0  0
    9.7947  -17.0001   22.7937 C   0  0  0  0  0  0  0  0  0  0  0  0
    8.8919  -17.4170   23.5579 O   0  0  0  0  0  0  0  0  0  0  0  0
    7.1275  -14.0133   20.3114 C   0  0  0  0  0  0  0  0  0  0  0  0
    6.8208  -13.3079   19.1701 C   0  0  0  0  0  0  0  0  0  0  0  0
   11.1611  -17.1614   23.1562 N   0  0  0  0  0  0  0  0  0  0  0  0
   11.5547  -17.7096   24.4248 C   0  0  1  0  0  0  0  0  0  0  0  0
   12.9312  -18.3003   24.4193 C   0  0  0  0  0  0  0  0  0  0  0  0
   13.0676  -19.5042   23.6093 C   0  0  0  0  0  0  0  0  0  0  0  0
   12.0477  -20.1733   22.9859 C   0  0  0  0  0  0  0  0  0  0  0  0
   12.6088  -21.2305   22.3432 N   0  0  0  0  0  0  0  0  0  0  0  0
   13.9220  -21.2170   22.5594 C   0  0  0  0  0  0  0  0  0  0  0  0
   14.1980  -20.1592   23.3344 N   0  0  0  0  0  0  0  0  0  0  0  0
   11.3521  -16.7126   25.5044 C   0  0  0  0  0  0  0  0  0  0  0  0
   11.8952  -15.5676   25.3438 O   0  0  0  0  0  0  0  0  0  0  0  0
    6.8368  -12.3261   27.0844 C   0  0  0  0  0  0  0  0  0  0  0  0
    8.5372  -12.3690   27.7150 S   0  0  0  0  0  0  0  0  0  0  0  0
    8.9619  -13.9942   28.3547 C   0  0  0  0  0  0  0  0  0  0  0  0
    9.3226  -15.0188   27.3527 C   0  0  0  0  0  0  0  0  0  0  0  0
   10.4780  -15.8665   27.6708 C   0  0  2  0  0  0  0  0  0  0  0  0
   10.6238  -16.9306   26.6631 N   0  0  0  0  0  0  0  0  0  0  0  0
   10.5016  -16.4233   29.0116 C   0  0  0  0  0  0  0  0  0  0  0  0
   10.4400  -15.8120   30.0877 O   0  0  0  0  0  0  0  0  0  0  0  0
   10.6063  -17.8226   29.1239 O   0  0  0  0  0  0  0  0  0  0  0  0
  2  1  1  0
  3  2  2  0
  4  3  1  0
  5  4  2  0
  5 11  1  0
  6  5  1  0
  7  6  1  0
  7  8  1  1
  9 10  2  0
  9  7  1  0
 11 12  2  0
 12  2  1  0
 13  9  1  0
 14 15  1  6
 14 13  1  0
 15 16  1  0
 16 20  1  0
 16 17  2  0
 17 18  1  0
 19 18  1  0
 20 19  2  0
 21 14  1  0
 22 21  2  0
 24 23  1  0
 24 25  1  0
 26 25  1  0
 27 26  1  6
 27 28  1  0
 28 21  1  0
 29 31  1  0
 29 27  1  0
 30 29  2  0
M  END
$$$$
