YHM.pdb
     RDKit          3D

 31 32  0  0  1  0  0  0  0  0999 V2000
    5.6085  -10.7528   27.6756 O   0  0  0  0  0  0  0  0  0  0  0  0
    5.8093  -11.7062   26.6906 C   0  0  0  0  0  0  0  0  0  0  0  0
    6.6424  -11.5242   25.6119 C   0  0  0  0  0  0  0  0  0  0  0  0
    6.8087  -12.4933   24.6660 C   0  0  0  0  0  0  0  0  0  0  0  0
    6.1122  -13.6829   24.8142 C   0  0  0  0  0  0  0  0  0  0  0  0
    6.2966  -14.7081   23.7762 C   0  0  0  0  0  0  0  0  0  0  0  0
    7.2770  -15.7901   24.1491 C   0  0  2  0  0  0  0  0  0  0  0  0
    8.0731  -15.2971   25.2882 N   0  0  0  0  0  0  0  0  0  0  0  0
    8.1519  -16.0735   22.9902 C   0  0  0  0  0  0  0  0  0  0  0  0
    7.7725  -16.8701   22.0990 O   0  0  0  0  0  0  0  0  0  0  0  0
    5.2770  -13.9018   25.8690 C   0  0  0  0  0  0  0  0  0  0  0  0
    5.1258  -12.9090   26.8101 C   0  0  0  0  0  0  0  0  0  0  0  0
    9.4234  -15.4439   22.8840 N   0  0  0  0  0  0  0  0  0  0  0  0
   10.4491  -15.9381   22.0074 C   0  0  1  0  0  0  0  0  0  0  0  0
   10.7645  -15.0106   20.8742 C   0  0  0  0  0  0  0  0  0  0  0  0
    9.6081  -14.6103   20.0828 C   0  0  0  0  0  0  0  0  0  0  0  0
    8.4798  -15.3583   19.8731 C   0  0  0  0  0  0  0  0  0  0  0  0
    7.6588  -14.6155   19.0859 N   0  0  0  0  0  0  0  0  0  0  0  0
    8.2539  -13.4553   18.8188 C   0  0  0  0  0  0  0  0  0  0  0  0
    9.4460  -13.4567   19.4308 N   0  0  0  0  0  0  0  0  0  0  0  0
   11.6473  -16.3364   22.7860 C   0  0  0  0  0  0  0  0  0  0  0  0
   12.5113  -15.4263   23.0242 O   0  0  0  0  0  0  0  0  0  0  0  0
   12.2776  -13.9044   28.4648 C   0  0  0  0  0  0  0  0  0  0  0  0
   11.6868  -15.5285   27.9134 S   0  0  0  0  0  0  0  0  0  0  0  0
   12.0879  -15.8241   26.1864 C   0  0  0  0  0  0  0  0  0  0  0  0
   11.3968  -16.9582   25.5382 C   0  0  0  0  0  0  0  0  0  0  0  0
   12.2207  -17.8272   24.6892 C   0  0  2  0  0  0  0  0  0  0  0  0
   11.8952  -17.6114   23.2692 N   0  0  0  0  0  0  0  0  0  0  0  0
   12.1868  -19.2420   25.0139 C   0  0  0  0  0  0  0  0  0  0  0  0
   11.2717  -20.0484   24.7953 O   0  0  0  0  0  0  0  0  0  0  0  0
   13.3190  -19.7812   25.6535 O   0  0  0  0  0  0  0  0  0  0  0  0
  2  1  1  0
  3  2  2  0
  4  3  1  0
  5  4  2  0
  5 11  1  0
  6  5  1  0
  7  6  1  0
  7  8  1  1
  9 10  2  0
  9  7  1  0
 11 12  2  0
 12  2  1  0
 13  9  1  0
 14 15  1  6
 14 13  1  0
 15 16  1  0
 16 20  1  0
 16 17  2  0
 17 18  1  0
 19 18  1  0
 20 19  2  0
 21 14  1  0
 22 21  2  0
 24 23  1  0
 24 25  1  0
 26 25  1  0
 27 26  1  1
 27 28  1  0
 28 21  1  0
 29 31  1  0
 29 27  1  0
 30 29  2  0
M  END
$$$$
