YHM.pdb
     RDKit          3D

 31 32  0  0  1  0  0  0  0  0999 V2000
    8.4099  -12.1231   17.3511 O   0  0  0  0  0  0  0  0  0  0  0  0
    8.1226  -12.8552   18.4917 C   0  0  0  0  0  0  0  0  0  0  0  0
    8.9784  -13.7821   19.0384 C   0  0  0  0  0  0  0  0  0  0  0  0
    8.6516  -14.4797   20.1645 C   0  0  0  0  0  0  0  0  0  0  0  0
    7.4224  -14.2334   20.7567 C   0  0  0  0  0  0  0  0  0  0  0  0
    7.0857  -15.0058   21.9619 C   0  0  0  0  0  0  0  0  0  0  0  0
    6.7268  -16.4438   21.6893 C   0  0  2  0  0  0  0  0  0  0  0  0
    5.4174  -16.4557   21.0113 N   0  0  0  0  0  0  0  0  0  0  0  0
    6.6523  -17.1775   22.9719 C   0  0  0  0  0  0  0  0  0  0  0  0
    5.7037  -16.9612   23.7631 O   0  0  0  0  0  0  0  0  0  0  0  0
    6.5463  -13.3228   20.2455 C   0  0  0  0  0  0  0  0  0  0  0  0
    6.8988  -12.6317   19.1087 C   0  0  0  0  0  0  0  0  0  0  0  0
    7.6548  -18.1289   23.3101 N   0  0  0  0  0  0  0  0  0  0  0  0
    7.7550  -18.6971   24.6261 C   0  0  1  0  0  0  0  0  0  0  0  0
    7.7657  -20.1950   24.6309 C   0  0  0  0  0  0  0  0  0  0  0  0
    7.8623  -20.7932   25.9563 C   0  0  0  0  0  0  0  0  0  0  0  0
    6.8570  -20.8567   26.8847 C   0  0  0  0  0  0  0  0  0  0  0  0
    7.3679  -21.4914   27.9717 N   0  0  0  0  0  0  0  0  0  0  0  0
    8.6373  -21.8080   27.7270 C   0  0  0  0  0  0  0  0  0  0  0  0
    8.9352  -21.3790   26.4930 N   0  0  0  0  0  0  0  0  0  0  0  0
    8.8992  -18.1033   25.3601 C   0  0  0  0  0  0  0  0  0  0  0  0
    9.6702  -17.3276   24.7001 O   0  0  0  0  0  0  0  0  0  0  0  0
   10.2420  -12.6818   30.0357 C   0  0  0  0  0  0  0  0  0  0  0  0
    9.7365  -13.4847   28.4895 S   0  0  0  0  0  0  0  0  0  0  0  0
   10.3755  -15.1609   28.3779 C   0  0  0  0  0  0  0  0  0  0  0  0
    9.5827  -16.1118   27.5708 C   0  0  0  0  0  0  0  0  0  0  0  0
   10.1407  -17.4604   27.4141 C   0  0  2  0  0  0  0  0  0  0  0  0
    9.1898  -18.3265   26.6966 N   0  0  0  0  0  0  0  0  0  0  0  0
   10.5965  -18.1003   28.6352 C   0  0  0  0  0  0  0  0  0  0  0  0
   11.5830  -17.8038   29.3240 O   0  0  0  0  0  0  0  0  0  0  0  0
    9.8411  -19.1892   29.1099 O   0  0  0  0  0  0  0  0  0  0  0  0
  2  1  1  0
  3  2  2  0
  4  3  1  0
  5  4  2  0
  5 11  1  0
  6  5  1  0
  7  6  1  0
  7  8  1  1
  9 10  2  0
  9  7  1  0
 11 12  2  0
 12  2  1  0
 13  9  1  0
 14 15  1  6
 14 13  1  0
 15 16  1  0
 16 20  1  0
 16 17  2  0
 17 18  1  0
 19 18  1  0
 20 19  2  0
 21 14  1  0
 22 21  2  0
 24 23  1  0
 24 25  1  0
 26 25  1  0
 27 26  1  1
 27 28  1  0
 28 21  1  0
 29 31  1  0
 29 27  1  0
 30 29  2  0
M  END
$$$$
