YHM.pdb
     RDKit          3D

 31 32  0  0  1  0  0  0  0  0999 V2000
    7.7155  -12.2401   16.5854 O   0  0  0  0  0  0  0  0  0  0  0  0
    7.9369  -12.9676   17.7435 C   0  0  0  0  0  0  0  0  0  0  0  0
    9.1881  -13.2926   18.2121 C   0  0  0  0  0  0  0  0  0  0  0  0
    9.3569  -14.0117   19.3593 C   0  0  0  0  0  0  0  0  0  0  0  0
    8.2272  -14.4150   20.0545 C   0  0  0  0  0  0  0  0  0  0  0  0
    8.4325  -15.1999   21.2810 C   0  0  0  0  0  0  0  0  0  0  0  0
    8.7086  -16.6610   21.0360 C   0  0  2  0  0  0  0  0  0  0  0  0
    7.5021  -17.2459   20.4224 N   0  0  0  0  0  0  0  0  0  0  0  0
    9.0060  -17.3222   22.3257 C   0  0  0  0  0  0  0  0  0  0  0  0
    8.0876  -17.5134   23.1580 O   0  0  0  0  0  0  0  0  0  0  0  0
    6.9700  -14.1131   19.6229 C   0  0  0  0  0  0  0  0  0  0  0  0
    6.8256  -13.3866   18.4629 C   0  0  0  0  0  0  0  0  0  0  0  0
   10.3322  -17.7423   22.6242 N   0  0  0  0  0  0  0  0  0  0  0  0
   10.7010  -18.2426   23.9197 C   0  0  1  0  0  0  0  0  0  0  0  0
   12.0049  -18.9800   23.9264 C   0  0  0  0  0  0  0  0  0  0  0  0
   12.3675  -19.5524   25.2167 C   0  0  0  0  0  0  0  0  0  0  0  0
   11.6346  -19.4620   26.3705 C   0  0  0  0  0  0  0  0  0  0  0  0
   12.3288  -20.1302   27.3281 N   0  0  0  0  0  0  0  0  0  0  0  0
   13.4457  -20.6144   26.7900 C   0  0  0  0  0  0  0  0  0  0  0  0
   13.4649  -20.2585   25.4983 N   0  0  0  0  0  0  0  0  0  0  0  0
   10.6391  -17.1582   24.9299 C   0  0  0  0  0  0  0  0  0  0  0  0
   11.4016  -16.1503   24.7444 O   0  0  0  0  0  0  0  0  0  0  0  0
    7.3035  -11.3447   28.3120 C   0  0  0  0  0  0  0  0  0  0  0  0
    7.3539  -12.7231   27.1338 S   0  0  0  0  0  0  0  0  0  0  0  0
    8.6263  -13.9157   27.5689 C   0  0  0  0  0  0  0  0  0  0  0  0
    8.8006  -15.0546   26.6435 C   0  0  0  0  0  0  0  0  0  0  0  0
    9.8409  -16.0291   26.9943 C   0  0  2  0  0  0  0  0  0  0  0  0
    9.8222  -17.1587   26.0495 N   0  0  0  0  0  0  0  0  0  0  0  0
    9.8210  -16.5068   28.3653 C   0  0  0  0  0  0  0  0  0  0  0  0
    9.4029  -17.5961   28.7827 O   0  0  0  0  0  0  0  0  0  0  0  0
   10.3337  -15.6447   29.3530 O   0  0  0  0  0  0  0  0  0  0  0  0
  2  1  1  0
  3  2  2  0
  4  3  1  0
  5  4  2  0
  5 11  1  0
  6  5  1  0
  7  6  1  0
  7  8  1  1
  9 10  2  0
  9  7  1  0
 11 12  2  0
 12  2  1  0
 13  9  1  0
 14 15  1  6
 14 13  1  0
 15 16  1  0
 16 20  1  0
 16 17  2  0
 17 18  1  0
 19 18  1  0
 20 19  2  0
 21 14  1  0
 22 21  2  0
 24 23  1  0
 24 25  1  0
 26 25  1  0
 27 26  1  6
 27 28  1  0
 28 21  1  0
 29 31  1  0
 29 27  1  0
 30 29  2  0
M  END
$$$$
