YHM.pdb
     RDKit          3D

 31 32  0  0  1  0  0  0  0  0999 V2000
    7.4844  -12.8444   14.1726 O   0  0  0  0  0  0  0  0  0  0  0  0
    7.7300  -13.3552   15.4368 C   0  0  0  0  0  0  0  0  0  0  0  0
    8.9913  -13.5577   15.9454 C   0  0  0  0  0  0  0  0  0  0  0  0
    9.1840  -14.0637   17.1978 C   0  0  0  0  0  0  0  0  0  0  0  0
    8.0684  -14.3747   17.9599 C   0  0  0  0  0  0  0  0  0  0  0  0
    8.2997  -14.9307   19.3015 C   0  0  0  0  0  0  0  0  0  0  0  0
    9.1555  -16.1710   19.3130 C   0  0  2  0  0  0  0  0  0  0  0  0
    8.6594  -17.0649   18.2503 N   0  0  0  0  0  0  0  0  0  0  0  0
    9.0437  -16.8262   20.6347 C   0  0  0  0  0  0  0  0  0  0  0  0
    8.4018  -17.8973   20.7506 O   0  0  0  0  0  0  0  0  0  0  0  0
    6.8018  -14.1887   17.4918 C   0  0  0  0  0  0  0  0  0  0  0  0
    6.6332  -13.6769   16.2253 C   0  0  0  0  0  0  0  0  0  0  0  0
    9.6635  -16.2440   21.7756 N   0  0  0  0  0  0  0  0  0  0  0  0
    9.4620  -16.7612   23.1009 C   0  0  1  0  0  0  0  0  0  0  0  0
    9.7636  -18.2233   23.2240 C   0  0  0  0  0  0  0  0  0  0  0  0
   10.6801  -18.7371   22.2140 C   0  0  0  0  0  0  0  0  0  0  0  0
   11.3448  -17.9903   21.2775 C   0  0  0  0  0  0  0  0  0  0  0  0
   12.0883  -18.8572   20.5418 N   0  0  0  0  0  0  0  0  0  0  0  0
   11.8923  -20.0901   21.0033 C   0  0  0  0  0  0  0  0  0  0  0  0
   11.0302  -20.0116   22.0262 N   0  0  0  0  0  0  0  0  0  0  0  0
   10.1844  -15.9309   24.0955 C   0  0  0  0  0  0  0  0  0  0  0  0
   11.0104  -15.0698   23.6396 O   0  0  0  0  0  0  0  0  0  0  0  0
    6.7043  -11.5351   27.8833 C   0  0  0  0  0  0  0  0  0  0  0  0
    7.7663  -12.2829   26.6169 S   0  0  0  0  0  0  0  0  0  0  0  0
    7.0299  -13.7746   25.9364 C   0  0  0  0  0  0  0  0  0  0  0  0
    7.9669  -14.7716   25.3778 C   0  0  0  0  0  0  0  0  0  0  0  0
    9.1489  -15.0851   26.1898 C   0  0  2  0  0  0  0  0  0  0  0  0
   10.0299  -16.0203   25.4698 N   0  0  0  0  0  0  0  0  0  0  0  0
    8.8817  -15.5642   27.5342 C   0  0  0  0  0  0  0  0  0  0  0  0
    8.2668  -16.5875   27.8662 O   0  0  0  0  0  0  0  0  0  0  0  0
    9.3713  -14.7878   28.6015 O   0  0  0  0  0  0  0  0  0  0  0  0
  2  1  1  0
  3  2  2  0
  4  3  1  0
  5  4  2  0
  5 11  1  0
  6  5  1  0
  7  6  1  0
  7  8  1  6
  9 10  2  0
  9  7  1  0
 11 12  2  0
 12  2  1  0
 13  9  1  0
 14 15  1  6
 14 13  1  0
 15 16  1  0
 16 20  1  0
 16 17  2  0
 17 18  1  0
 19 18  1  0
 20 19  2  0
 21 14  1  0
 22 21  2  0
 24 23  1  0
 24 25  1  0
 26 25  1  0
 27 26  1  6
 27 28  1  0
 28 21  1  0
 29 31  1  0
 29 27  1  0
 30 29  2  0
M  END
$$$$
