YHM.pdb
     RDKit          3D

 31 32  0  0  1  0  0  0  0  0999 V2000
    8.0507  -12.3190   16.7291 O   0  0  0  0  0  0  0  0  0  0  0  0
    8.0841  -12.9099   17.9818 C   0  0  0  0  0  0  0  0  0  0  0  0
    9.2464  -13.2125   18.6512 C   0  0  0  0  0  0  0  0  0  0  0  0
    9.2294  -13.7949   19.8850 C   0  0  0  0  0  0  0  0  0  0  0  0
    8.0007  -14.0803   20.4604 C   0  0  0  0  0  0  0  0  0  0  0  0
    8.0065  -14.7196   21.7847 C   0  0  0  0  0  0  0  0  0  0  0  0
    8.0203  -16.2258   21.7395 C   0  0  2  0  0  0  0  0  0  0  0  0
    6.6969  -16.6696   21.2638 N   0  0  0  0  0  0  0  0  0  0  0  0
    8.2850  -16.7503   23.0973 C   0  0  0  0  0  0  0  0  0  0  0  0
    7.3578  -16.8035   23.9400 O   0  0  0  0  0  0  0  0  0  0  0  0
    6.8265  -13.7960   19.8291 C   0  0  0  0  0  0  0  0  0  0  0  0
    6.8697  -13.2085   18.5852 C   0  0  0  0  0  0  0  0  0  0  0  0
    9.5898  -17.1951   23.4496 N   0  0  0  0  0  0  0  0  0  0  0  0
    9.8857  -17.7432   24.7444 C   0  0  1  0  0  0  0  0  0  0  0  0
   10.8400  -18.8971   24.7009 C   0  0  0  0  0  0  0  0  0  0  0  0
   11.1045  -19.5101   25.9964 C   0  0  0  0  0  0  0  0  0  0  0  0
   10.5190  -19.1618   27.1849 C   0  0  0  0  0  0  0  0  0  0  0  0
   11.0456  -19.9784   28.1343 N   0  0  0  0  0  0  0  0  0  0  0  0
   11.9212  -20.7986   27.5580 C   0  0  0  0  0  0  0  0  0  0  0  0
   11.9538  -20.5084   26.2502 N   0  0  0  0  0  0  0  0  0  0  0  0
   10.3106  -16.6697   25.6758 C   0  0  0  0  0  0  0  0  0  0  0  0
   11.3371  -15.9867   25.3417 O   0  0  0  0  0  0  0  0  0  0  0  0
    6.6026  -11.7884   25.3931 C   0  0  0  0  0  0  0  0  0  0  0  0
    7.1483  -12.5319   26.9552 S   0  0  0  0  0  0  0  0  0  0  0  0
    8.5654  -13.6105   26.7119 C   0  0  0  0  0  0  0  0  0  0  0  0
    9.1083  -14.2618   27.9223 C   0  0  0  0  0  0  0  0  0  0  0  0
   10.1717  -15.2515   27.7113 C   0  0  2  0  0  0  0  0  0  0  0  0
    9.6814  -16.3567   26.8702 N   0  0  0  0  0  0  0  0  0  0  0  0
   10.8042  -15.7638   28.9137 C   0  0  0  0  0  0  0  0  0  0  0  0
   10.7669  -16.9206   29.3561 O   0  0  0  0  0  0  0  0  0  0  0  0
   11.5541  -14.8534   29.6822 O   0  0  0  0  0  0  0  0  0  0  0  0
  2  1  1  0
  3  2  2  0
  4  3  1  0
  5  4  2  0
  5 11  1  0
  6  5  1  0
  7  6  1  0
  7  8  1  1
  9 10  2  0
  9  7  1  0
 11 12  2  0
 12  2  1  0
 13  9  1  0
 14 15  1  6
 14 13  1  0
 15 16  1  0
 16 20  1  0
 16 17  2  0
 17 18  1  0
 19 18  1  0
 20 19  2  0
 21 14  1  0
 22 21  2  0
 24 23  1  0
 24 25  1  0
 26 25  1  0
 27 26  1  1
 27 28  1  0
 28 21  1  0
 29 31  1  0
 29 27  1  0
 30 29  2  0
M  END
$$$$
