YHM.pdb
     RDKit          3D

 31 32  0  0  1  0  0  0  0  0999 V2000
    7.6448  -11.9977   16.9724 O   0  0  0  0  0  0  0  0  0  0  0  0
    7.8607  -12.7645   18.1060 C   0  0  0  0  0  0  0  0  0  0  0  0
    9.0624  -13.3622   18.4046 C   0  0  0  0  0  0  0  0  0  0  0  0
    9.2277  -14.1091   19.5345 C   0  0  0  0  0  0  0  0  0  0  0  0
    8.1459  -14.2566   20.3890 C   0  0  0  0  0  0  0  0  0  0  0  0
    8.3431  -15.0762   21.5940 C   0  0  0  0  0  0  0  0  0  0  0  0
    8.5504  -16.5421   21.3124 C   0  0  2  0  0  0  0  0  0  0  0  0
    7.3034  -17.0635   20.7227 N   0  0  0  0  0  0  0  0  0  0  0  0
    8.8559  -17.2417   22.5797 C   0  0  0  0  0  0  0  0  0  0  0  0
    7.9416  -17.4635   23.4089 O   0  0  0  0  0  0  0  0  0  0  0  0
    6.9385  -13.6802   20.1284 C   0  0  0  0  0  0  0  0  0  0  0  0
    6.7966  -12.9315   18.9823 C   0  0  0  0  0  0  0  0  0  0  0  0
   10.1853  -17.6643   22.8601 N   0  0  0  0  0  0  0  0  0  0  0  0
   10.5302  -18.3393   24.0807 C   0  0  1  0  0  0  0  0  0  0  0  0
   11.6380  -19.3348   23.9205 C   0  0  0  0  0  0  0  0  0  0  0  0
   11.2823  -20.5123   23.1389 C   0  0  0  0  0  0  0  0  0  0  0  0
   10.0170  -21.0057   22.9594 C   0  0  0  0  0  0  0  0  0  0  0  0
   10.1342  -22.1044   22.1692 N   0  0  0  0  0  0  0  0  0  0  0  0
   11.4188  -22.2844   21.8713 C   0  0  0  0  0  0  0  0  0  0  0  0
   12.1173  -21.3080   22.4667 N   0  0  0  0  0  0  0  0  0  0  0  0
   10.7818  -17.3558   25.1624 C   0  0  0  0  0  0  0  0  0  0  0  0
   11.2551  -16.2215   24.8144 O   0  0  0  0  0  0  0  0  0  0  0  0
    8.8668  -11.7070   26.7717 C   0  0  0  0  0  0  0  0  0  0  0  0
    8.1478  -13.1154   27.6609 S   0  0  0  0  0  0  0  0  0  0  0  0
    9.3975  -14.3373   28.0801 C   0  0  0  0  0  0  0  0  0  0  0  0
    9.5237  -15.4872   27.1605 C   0  0  0  0  0  0  0  0  0  0  0  0
   10.5778  -16.4605   27.4711 C   0  0  2  0  0  0  0  0  0  0  0  0
   10.5430  -17.5756   26.5097 N   0  0  0  0  0  0  0  0  0  0  0  0
   10.5938  -16.9593   28.8347 C   0  0  0  0  0  0  0  0  0  0  0  0
   10.3152  -18.1009   29.2277 O   0  0  0  0  0  0  0  0  0  0  0  0
   10.9678  -16.0535   29.8452 O   0  0  0  0  0  0  0  0  0  0  0  0
  2  1  1  0
  3  2  2  0
  4  3  1  0
  5  4  2  0
  5 11  1  0
  6  5  1  0
  7  6  1  0
  7  8  1  1
  9 10  2  0
  9  7  1  0
 11 12  2  0
 12  2  1  0
 13  9  1  0
 14 15  1  6
 14 13  1  0
 15 16  1  0
 16 20  1  0
 16 17  2  0
 17 18  1  0
 19 18  1  0
 20 19  2  0
 21 14  1  0
 22 21  2  0
 24 23  1  0
 24 25  1  0
 26 25  1  0
 27 26  1  1
 27 28  1  0
 28 21  1  0
 29 31  1  0
 29 27  1  0
 30 29  2  0
M  END
$$$$
