YHM.pdb
     RDKit          3D

 31 32  0  0  1  0  0  0  0  0999 V2000
    5.0775  -10.5288   26.0489 O   0  0  0  0  0  0  0  0  0  0  0  0
    5.6204  -11.7083   25.5656 C   0  0  0  0  0  0  0  0  0  0  0  0
    5.4681  -12.9271   26.1836 C   0  0  0  0  0  0  0  0  0  0  0  0
    6.0219  -14.0631   25.6694 C   0  0  0  0  0  0  0  0  0  0  0  0
    6.7520  -13.9651   24.4949 C   0  0  0  0  0  0  0  0  0  0  0  0
    7.3505  -15.1997   23.9658 C   0  0  0  0  0  0  0  0  0  0  0  0
    8.8472  -15.2740   24.1256 C   0  0  2  0  0  0  0  0  0  0  0  0
    9.4486  -14.3958   23.1051 N   0  0  0  0  0  0  0  0  0  0  0  0
    9.2878  -16.6727   23.9297 C   0  0  0  0  0  0  0  0  0  0  0  0
    8.6466  -17.6114   24.4592 O   0  0  0  0  0  0  0  0  0  0  0  0
    6.9259  -12.7756   23.8523 C   0  0  0  0  0  0  0  0  0  0  0  0
    6.3575  -11.6436   24.3907 C   0  0  0  0  0  0  0  0  0  0  0  0
   10.4380  -16.9557   23.1412 N   0  0  0  0  0  0  0  0  0  0  0  0
   11.0817  -18.2401   23.1637 C   0  0  1  0  0  0  0  0  0  0  0  0
   11.7981  -18.5718   21.8907 C   0  0  0  0  0  0  0  0  0  0  0  0
   10.9505  -18.5761   20.7052 C   0  0  0  0  0  0  0  0  0  0  0  0
    9.5934  -18.7622   20.6881 C   0  0  0  0  0  0  0  0  0  0  0  0
    9.2052  -18.6911   19.3882 N   0  0  0  0  0  0  0  0  0  0  0  0
   10.2774  -18.4701   18.6312 C   0  0  0  0  0  0  0  0  0  0  0  0
   11.3426  -18.4005   19.4412 N   0  0  0  0  0  0  0  0  0  0  0  0
   11.9405  -18.3673   24.3666 C   0  0  0  0  0  0  0  0  0  0  0  0
   13.0286  -17.6982   24.3739 O   0  0  0  0  0  0  0  0  0  0  0  0
   11.0438  -14.3097   30.1048 C   0  0  0  0  0  0  0  0  0  0  0  0
   10.9676  -14.9161   28.3967 S   0  0  0  0  0  0  0  0  0  0  0  0
   11.4298  -16.6499   28.2919 C   0  0  0  0  0  0  0  0  0  0  0  0
   11.3691  -17.2638   26.9490 C   0  0  0  0  0  0  0  0  0  0  0  0
   11.8702  -18.6389   26.8353 C   0  0  2  0  0  0  0  0  0  0  0  0
   11.6513  -19.1514   25.4721 N   0  0  0  0  0  0  0  0  0  0  0  0
   11.3674  -19.5771   27.8228 C   0  0  0  0  0  0  0  0  0  0  0  0
   11.9102  -19.9291   28.8797 O   0  0  0  0  0  0  0  0  0  0  0  0
   10.1155  -20.1681   27.5677 O   0  0  0  0  0  0  0  0  0  0  0  0
  2  1  1  0
  3  2  2  0
  4  3  1  0
  5  4  2  0
  5 11  1  0
  6  5  1  0
  7  6  1  0
  7  8  1  6
  9 10  2  0
  9  7  1  0
 11 12  2  0
 12  2  1  0
 13  9  1  0
 14 15  1  6
 14 13  1  0
 15 16  1  0
 16 20  1  0
 16 17  2  0
 17 18  1  0
 19 18  1  0
 20 19  2  0
 21 14  1  0
 22 21  2  0
 24 23  1  0
 24 25  1  0
 26 25  1  0
 27 26  1  6
 27 28  1  0
 28 21  1  0
 29 31  1  0
 29 27  1  0
 30 29  2  0
M  END
$$$$
