YHM.pdb
     RDKit          3D

 31 32  0  0  1  0  0  0  0  0999 V2000
    7.5519  -13.0247   26.2507 O   0  0  0  0  0  0  0  0  0  0  0  0
    7.1472  -14.0876   25.4596 C   0  0  0  0  0  0  0  0  0  0  0  0
    6.9805  -14.0039   24.0973 C   0  0  0  0  0  0  0  0  0  0  0  0
    6.5797  -15.0792   23.3591 C   0  0  0  0  0  0  0  0  0  0  0  0
    6.3401  -16.2757   24.0171 C   0  0  0  0  0  0  0  0  0  0  0  0
    5.8967  -17.4177   23.2035 C   0  0  0  0  0  0  0  0  0  0  0  0
    6.3055  -17.3354   21.7554 C   0  0  2  0  0  0  0  0  0  0  0  0
    5.8626  -18.5778   21.0959 N   0  0  0  0  0  0  0  0  0  0  0  0
    7.7765  -17.2014   21.6726 C   0  0  0  0  0  0  0  0  0  0  0  0
    8.5084  -18.2016   21.8642 O   0  0  0  0  0  0  0  0  0  0  0  0
    6.4937  -16.3992   25.3658 C   0  0  0  0  0  0  0  0  0  0  0  0
    6.8989  -15.3003   26.0887 C   0  0  0  0  0  0  0  0  0  0  0  0
    8.3635  -15.9397   21.3756 N   0  0  0  0  0  0  0  0  0  0  0  0
    9.7856  -15.7664   21.2654 C   0  0  1  0  0  0  0  0  0  0  0  0
   10.1806  -14.5496   20.4862 C   0  0  0  0  0  0  0  0  0  0  0  0
    9.4023  -14.3311   19.2736 C   0  0  0  0  0  0  0  0  0  0  0  0
    8.5918  -13.2557   19.0217 C   0  0  0  0  0  0  0  0  0  0  0  0
    8.0610  -13.4472   17.7859 N   0  0  0  0  0  0  0  0  0  0  0  0
    8.5233  -14.5936   17.2926 C   0  0  0  0  0  0  0  0  0  0  0  0
    9.3434  -15.1307   18.2062 N   0  0  0  0  0  0  0  0  0  0  0  0
   10.4201  -15.8328   22.6047 C   0  0  0  0  0  0  0  0  0  0  0  0
   11.6894  -15.6975   22.6508 O   0  0  0  0  0  0  0  0  0  0  0  0
   10.1526  -12.3875   28.5494 C   0  0  0  0  0  0  0  0  0  0  0  0
    9.5755  -14.1063   28.6109 S   0  0  0  0  0  0  0  0  0  0  0  0
   10.4239  -15.1298   27.4013 C   0  0  0  0  0  0  0  0  0  0  0  0
    9.8607  -15.1321   26.0350 C   0  0  0  0  0  0  0  0  0  0  0  0
   10.4698  -16.0638   25.0781 C   0  0  2  0  0  0  0  0  0  0  0  0
    9.7428  -16.0291   23.7977 N   0  0  0  0  0  0  0  0  0  0  0  0
   10.6271  -17.4308   25.5416 C   0  0  0  0  0  0  0  0  0  0  0  0
   10.1175  -18.4558   25.0669 O   0  0  0  0  0  0  0  0  0  0  0  0
   11.4531  -17.6376   26.6625 O   0  0  0  0  0  0  0  0  0  0  0  0
  2  1  1  0
  3  2  2  0
  4  3  1  0
  5  4  2  0
  5 11  1  0
  6  5  1  0
  7  6  1  0
  7  8  1  6
  9 10  2  0
  9  7  1  0
 11 12  2  0
 12  2  1  0
 13  9  1  0
 14 15  1  1
 14 13  1  0
 15 16  1  0
 16 20  1  0
 16 17  2  0
 17 18  1  0
 19 18  1  0
 20 19  2  0
 21 14  1  0
 22 21  2  0
 24 23  1  0
 24 25  1  0
 26 25  1  0
 27 26  1  1
 27 28  1  0
 28 21  1  0
 29 31  1  0
 29 27  1  0
 30 29  2  0
M  END
$$$$
