GRK.pdb
     RDKit          3D

 25 24  0  0  1  0  0  0  0  0999 V2000
    5.1140  -86.2743  -56.2490 N   0  0  0  0  0  0  0  0  0  0  0  0
    4.6797  -85.4289  -57.3495 C   0  0  0  0  0  0  0  0  0  0  0  0
    3.7178  -84.3998  -56.8692 C   0  0  0  0  0  0  0  0  0  0  0  0
    3.5389  -84.1745  -55.6432 O   0  0  0  0  0  0  0  0  0  0  0  0
   -0.6770  -79.9469  -56.3508 N   0  0  0  0  0  0  0  0  0  0  0  0
   -1.5035  -80.7546  -57.1475 C   0  0  0  0  0  0  0  0  0  0  0  0
   -2.7983  -80.6009  -57.1576 N   0  0  0  0  0  0  0  0  0  0  0  0
   -0.9642  -81.7744  -57.9677 N   0  0  0  0  0  0  0  0  0  0  0  0
    0.1403  -81.5652  -58.8552 C   0  0  0  0  0  0  0  0  0  0  0  0
    1.2163  -80.7581  -58.1870 C   0  0  0  0  0  0  0  0  0  0  0  0
    2.0661  -81.4711  -57.2034 C   0  0  0  0  0  0  0  0  0  0  0  0
    3.1942  -82.1953  -57.9322 C   0  0  2  0  0  0  0  0  0  0  0  0
    2.9711  -83.6396  -57.7815 N   0  0  0  0  0  0  0  0  0  0  0  0
    4.4620  -81.9106  -57.2622 C   0  0  0  0  0  0  0  0  0  0  0  0
    5.3784  -82.7676  -57.2362 O   0  0  0  0  0  0  0  0  0  0  0  0
   -3.3871  -81.3140  -57.6203 N   0  0  0  0  0  0  0  0  0  0  0  0
    4.6826  -80.6609  -56.6368 C   0  0  1  0  0  0  0  0  0  0  0  0
    4.0020  -80.2369  -55.4060 C   0  0  0  0  0  0  0  0  0  0  0  0
    4.8623  -79.2226  -54.7435 C   0  0  0  0  0  0  0  0  0  0  0  0
    6.2200  -79.7597  -54.3715 C   0  0  0  0  0  0  0  0  0  0  0  0
    6.1741  -80.3966  -53.0144 C   0  0  0  0  0  0  0  0  0  0  0  0
    6.2711  -79.3009  -51.9481 N   0  0  0  0  0  0  0  0  0  0  0  0
    7.6472  -79.1056  -51.5592 C   0  0  0  0  0  0  0  0  0  0  0  0
    2.6550  -79.7349  -55.7583 O   0  0  0  0  0  0  0  0  0  0  0  0
    2.4278  -79.0997  -56.9697 O   0  0  0  0  0  0  0  0  0  0  0  0
  1  2  1  0
  3  2  1  0
  4  3  2  0
  5  6  1  0
  6  7  2  0
  6  8  1  0
  8  9  1  0
  9 10  1  0
 11 10  1  0
 12 11  1  1
 12 13  1  0
 13  3  1  0
 14 12  1  0
 14 15  2  0
 16 14  1  0
 17 16  1  0
 17 18  1  6
 19 18  1  0
 20 19  1  0
 20 21  1  0
 21 22  1  0
 23 17  1  0
 24 23  1  0
 25 23  2  0
M  END
$$$$
