GRK.pdb
     RDKit          3D

 25 24  0  0  1  0  0  0  0  0999 V2000
   13.1735  -18.3682   20.1950 N   0  0  0  0  0  0  0  0  0  0  0  0
   11.7196  -18.3517   20.2103 C   0  0  0  0  0  0  0  0  0  0  0  0
   11.2192  -17.2675   21.0988 C   0  0  0  0  0  0  0  0  0  0  0  0
   11.9815  -16.6412   21.8813 O   0  0  0  0  0  0  0  0  0  0  0  0
    7.6008  -14.3529   17.5169 N   0  0  0  0  0  0  0  0  0  0  0  0
    7.7936  -13.0351   17.9601 C   0  0  0  0  0  0  0  0  0  0  0  0
    8.5185  -12.1892   17.2825 N   0  0  0  0  0  0  0  0  0  0  0  0
    7.2134  -12.5731   19.1658 N   0  0  0  0  0  0  0  0  0  0  0  0
    7.0221  -13.4073   20.3142 C   0  0  0  0  0  0  0  0  0  0  0  0
    8.1160  -14.4309   20.4185 C   0  0  0  0  0  0  0  0  0  0  0  0
    7.9683  -15.4538   21.4816 C   0  0  0  0  0  0  0  0  0  0  0  0
    9.3468  -15.8660   21.9896 C   0  0  2  0  0  0  0  0  0  0  0  0
    9.8637  -16.9065   21.0904 N   0  0  0  0  0  0  0  0  0  0  0  0
    9.2084  -16.4978   23.3007 C   0  0  0  0  0  0  0  0  0  0  0  0
    8.8548  -17.6979   23.3984 O   0  0  0  0  0  0  0  0  0  0  0  0
    8.7485  -11.2727   17.7025 N   0  0  0  0  0  0  0  0  0  0  0  0
    9.4777  -15.7703   24.4838 C   0  0  2  0  0  0  0  0  0  0  0  0
    9.3402  -16.3341   25.8333 C   0  0  0  0  0  0  0  0  0  0  0  0
    9.8432  -15.3210   26.7969 C   0  0  0  0  0  0  0  0  0  0  0  0
    9.8247  -15.8091   28.2223 C   0  0  0  0  0  0  0  0  0  0  0  0
   10.3891  -14.7640   29.1380 C   0  0  0  0  0  0  0  0  0  0  0  0
   10.3663  -15.2973   30.5740 N   0  0  0  0  0  0  0  0  0  0  0  0
   11.0119  -14.3609   31.4627 C   0  0  0  0  0  0  0  0  0  0  0  0
    7.9244  -16.7077   26.0488 O   0  0  0  0  0  0  0  0  0  0  0  0
    7.5899  -17.8074   26.8244 O   0  0  0  0  0  0  0  0  0  0  0  0
  1  2  1  0
  3  2  1  0
  4  3  2  0
  5  6  1  0
  6  7  2  0
  6  8  1  0
  8  9  1  0
  9 10  1  0
 11 10  1  0
 12 11  1  6
 12 13  1  0
 13  3  1  0
 14 12  1  0
 14 15  2  0
 16 14  1  0
 17 16  1  0
 17 18  1  6
 19 18  1  0
 20 19  1  0
 20 21  1  0
 21 22  1  0
 23 17  1  0
 24 23  1  0
 25 23  2  0
M  END
$$$$
