GRK.pdb
     RDKit          3D

 25 24  0  0  1  0  0  0  0  0999 V2000
   11.2417  -16.8204   18.6111 N   0  0  0  0  0  0  0  0  0  0  0  0
   11.9564  -17.2373   19.8068 C   0  0  0  0  0  0  0  0  0  0  0  0
   11.0147  -17.4005   20.9477 C   0  0  0  0  0  0  0  0  0  0  0  0
    9.8222  -17.0001   20.8908 O   0  0  0  0  0  0  0  0  0  0  0  0
   10.1342  -20.3882   29.0952 N   0  0  0  0  0  0  0  0  0  0  0  0
   11.2998  -19.9774   28.4296 C   0  0  0  0  0  0  0  0  0  0  0  0
   12.2262  -19.2931   29.0408 N   0  0  0  0  0  0  0  0  0  0  0  0
   11.5130  -20.2840   27.0642 N   0  0  0  0  0  0  0  0  0  0  0  0
   10.4670  -20.7095   26.1832 C   0  0  0  0  0  0  0  0  0  0  0  0
   10.0912  -19.6106   25.2311 C   0  0  0  0  0  0  0  0  0  0  0  0
   11.0114  -19.3759   24.0924 C   0  0  0  0  0  0  0  0  0  0  0  0
   10.5140  -18.1917   23.2687 C   0  0  2  0  0  0  0  0  0  0  0  0
   11.4343  -18.0141   22.1374 N   0  0  0  0  0  0  0  0  0  0  0  0
   10.6161  -16.9717   24.0677 C   0  0  0  0  0  0  0  0  0  0  0  0
   11.7352  -16.4594   24.3129 O   0  0  0  0  0  0  0  0  0  0  0  0
   13.0877  -19.0403   28.5276 N   0  0  0  0  0  0  0  0  0  0  0  0
    9.4549  -16.3414   24.5733 C   0  0  2  0  0  0  0  0  0  0  0  0
    9.4848  -15.1382   25.4155 C   0  0  0  0  0  0  0  0  0  0  0  0
    8.1375  -14.5142   25.3557 C   0  0  0  0  0  0  0  0  0  0  0  0
    8.0106  -13.3087   26.2505 C   0  0  0  0  0  0  0  0  0  0  0  0
    6.6243  -12.7424   26.1678 C   0  0  0  0  0  0  0  0  0  0  0  0
    6.5397  -11.5033   27.0648 N   0  0  0  0  0  0  0  0  0  0  0  0
    5.2325  -10.9006   26.9586 C   0  0  0  0  0  0  0  0  0  0  0  0
    9.8997  -15.5265   26.7821 O   0  0  0  0  0  0  0  0  0  0  0  0
   10.7754  -14.7357   27.5104 O   0  0  0  0  0  0  0  0  0  0  0  0
  1  2  1  0
  3  2  1  0
  4  3  2  0
  5  6  1  0
  6  7  2  0
  6  8  1  0
  8  9  1  0
  9 10  1  0
 11 10  1  0
 12 11  1  1
 12 13  1  0
 13  3  1  0
 14 12  1  0
 14 15  2  0
 16 14  1  0
 17 16  1  0
 17 18  1  1
 19 18  1  0
 20 19  1  0
 20 21  1  0
 21 22  1  0
 23 17  1  0
 24 23  1  0
 25 23  2  0
M  END
$$$$
