GRK.pdb
     RDKit          3D

 25 24  0  0  1  0  0  0  0  0999 V2000
   12.2322  -18.7858   19.7974 N   0  0  0  0  0  0  0  0  0  0  0  0
   10.8469  -18.7504   20.2380 C   0  0  0  0  0  0  0  0  0  0  0  0
   10.5919  -17.5373   21.0617 C   0  0  0  0  0  0  0  0  0  0  0  0
   11.4792  -17.0335   21.7998 O   0  0  0  0  0  0  0  0  0  0  0  0
    7.2189  -14.7143   16.7811 N   0  0  0  0  0  0  0  0  0  0  0  0
    7.6908  -13.4570   17.1893 C   0  0  0  0  0  0  0  0  0  0  0  0
    8.5245  -12.7731   16.4562 N   0  0  0  0  0  0  0  0  0  0  0  0
    7.2852  -12.8834   18.4181 N   0  0  0  0  0  0  0  0  0  0  0  0
    6.8630  -13.6603   19.5449 C   0  0  0  0  0  0  0  0  0  0  0  0
    8.0445  -14.2564   20.2549 C   0  0  0  0  0  0  0  0  0  0  0  0
    7.7496  -15.1242   21.4203 C   0  0  0  0  0  0  0  0  0  0  0  0
    9.0400  -15.7697   21.9167 C   0  0  2  0  0  0  0  0  0  0  0  0
    9.3372  -16.9104   21.0399 N   0  0  0  0  0  0  0  0  0  0  0  0
    8.8171  -16.3312   23.2480 C   0  0  0  0  0  0  0  0  0  0  0  0
    8.2038  -17.4169   23.3900 O   0  0  0  0  0  0  0  0  0  0  0  0
    8.8427  -11.8461   16.7860 N   0  0  0  0  0  0  0  0  0  0  0  0
    9.2951  -15.6650   24.4010 C   0  0  2  0  0  0  0  0  0  0  0  0
    9.0955  -16.1630   25.7685 C   0  0  0  0  0  0  0  0  0  0  0  0
    9.7767  -15.2208   26.6937 C   0  0  0  0  0  0  0  0  0  0  0  0
    9.7441  -15.6823   28.1276 C   0  0  0  0  0  0  0  0  0  0  0  0
   10.4976  -14.7234   29.0006 C   0  0  0  0  0  0  0  0  0  0  0  0
   10.4831  -15.2462   30.4406 N   0  0  0  0  0  0  0  0  0  0  0  0
   11.0981  -14.2854   31.3248 C   0  0  0  0  0  0  0  0  0  0  0  0
    7.6425  -16.2943   26.0176 O   0  0  0  0  0  0  0  0  0  0  0  0
    7.1409  -17.3575   26.7529 O   0  0  0  0  0  0  0  0  0  0  0  0
  1  2  1  0
  3  2  1  0
  4  3  2  0
  5  6  1  0
  6  7  2  0
  6  8  1  0
  8  9  1  0
  9 10  1  0
 11 10  1  0
 12 11  1  6
 12 13  1  0
 13  3  1  0
 14 12  1  0
 14 15  2  0
 16 14  1  0
 17 16  1  0
 17 18  1  6
 19 18  1  0
 20 19  1  0
 20 21  1  0
 21 22  1  0
 23 17  1  0
 24 23  1  0
 25 23  2  0
M  END
$$$$
