GRK.pdb
     RDKit          3D

 25 24  0  0  1  0  0  0  0  0999 V2000
    7.4051  -21.0852   18.7977 N   0  0  0  0  0  0  0  0  0  0  0  0
    6.9480  -20.0644   19.7269 C   0  0  0  0  0  0  0  0  0  0  0  0
    8.0675  -19.1560   20.0967 C   0  0  0  0  0  0  0  0  0  0  0  0
    9.2478  -19.3594   19.7077 O   0  0  0  0  0  0  0  0  0  0  0  0
    8.5701  -13.0311   18.4790 N   0  0  0  0  0  0  0  0  0  0  0  0
    8.4515  -12.4187   19.7365 C   0  0  0  0  0  0  0  0  0  0  0  0
    9.1765  -11.3843   20.0598 N   0  0  0  0  0  0  0  0  0  0  0  0
    7.5437  -12.9047   20.7078 N   0  0  0  0  0  0  0  0  0  0  0  0
    6.6780  -14.0232   20.4822 C   0  0  0  0  0  0  0  0  0  0  0  0
    7.4712  -15.2884   20.3229 C   0  0  0  0  0  0  0  0  0  0  0  0
    8.2674  -15.7242   21.4952 C   0  0  0  0  0  0  0  0  0  0  0  0
    8.9126  -17.0754   21.2014 C   0  0  2  0  0  0  0  0  0  0  0  0
    7.8372  -18.0303   20.9014 N   0  0  0  0  0  0  0  0  0  0  0  0
    9.5665  -17.5708   22.4115 C   0  0  0  0  0  0  0  0  0  0  0  0
    8.8871  -17.9888   23.3803 O   0  0  0  0  0  0  0  0  0  0  0  0
    9.0879  -10.9834   21.0089 N   0  0  0  0  0  0  0  0  0  0  0  0
   10.9776  -17.5953   22.5103 C   0  0  2  0  0  0  0  0  0  0  0  0
   11.7023  -18.1690   23.6520 C   0  0  0  0  0  0  0  0  0  0  0  0
   12.8150  -18.9916   23.1104 C   0  0  0  0  0  0  0  0  0  0  0  0
   13.6516  -19.6279   24.1899 C   0  0  0  0  0  0  0  0  0  0  0  0
   14.7372  -20.4651   23.5819 C   0  0  0  0  0  0  0  0  0  0  0  0
   15.5103  -21.1666   24.7032 N   0  0  0  0  0  0  0  0  0  0  0  0
   16.5093  -22.0457   24.1442 C   0  0  0  0  0  0  0  0  0  0  0  0
   12.1517  -17.0661   24.5307 O   0  0  0  0  0  0  0  0  0  0  0  0
   12.4556  -17.2984   25.8635 O   0  0  0  0  0  0  0  0  0  0  0  0
  1  2  1  0
  3  2  1  0
  4  3  2  0
  5  6  1  0
  6  7  2  0
  6  8  1  0
  8  9  1  0
  9 10  1  0
 11 10  1  0
 12 11  1  1
 12 13  1  0
 13  3  1  0
 14 12  1  0
 14 15  2  0
 16 14  1  0
 17 16  1  0
 17 18  1  6
 19 18  1  0
 20 19  1  0
 20 21  1  0
 21 22  1  0
 23 17  1  0
 24 23  1  0
 25 23  2  0
M  END
$$$$
