GRK.pdb
     RDKit          3D

 25 24  0  0  1  0  0  0  0  0999 V2000
    9.8579  -20.9380   16.4808 N   0  0  0  0  0  0  0  0  0  0  0  0
    8.9433  -20.5481   17.5419 C   0  0  0  0  0  0  0  0  0  0  0  0
    9.5199  -19.4359   18.3456 C   0  0  0  0  0  0  0  0  0  0  0  0
   10.7121  -19.0570   18.2011 O   0  0  0  0  0  0  0  0  0  0  0  0
    7.1861  -13.2981   18.9483 N   0  0  0  0  0  0  0  0  0  0  0  0
    7.9230  -12.6951   19.9797 C   0  0  0  0  0  0  0  0  0  0  0  0
    8.6659  -11.6462   19.7606 N   0  0  0  0  0  0  0  0  0  0  0  0
    7.8943  -13.2067   21.2992 N   0  0  0  0  0  0  0  0  0  0  0  0
    7.5227  -14.5545   21.6101 C   0  0  0  0  0  0  0  0  0  0  0  0
    8.5677  -15.5204   21.1300 C   0  0  0  0  0  0  0  0  0  0  0  0
    8.0780  -16.7458   20.4542 C   0  0  0  0  0  0  0  0  0  0  0  0
    9.2651  -17.6088   20.0367 C   0  0  2  0  0  0  0  0  0  0  0  0
    8.7408  -18.7677   19.3017 N   0  0  0  0  0  0  0  0  0  0  0  0
    9.9132  -18.1477   21.2313 C   0  0  0  0  0  0  0  0  0  0  0  0
    9.2581  -18.8140   22.0690 O   0  0  0  0  0  0  0  0  0  0  0  0
    9.1762  -11.2160   20.5505 N   0  0  0  0  0  0  0  0  0  0  0  0
   11.2926  -17.9346   21.4617 C   0  0  2  0  0  0  0  0  0  0  0  0
   12.0158  -18.4749   22.6205 C   0  0  0  0  0  0  0  0  0  0  0  0
   13.4653  -18.4574   22.2937 C   0  0  0  0  0  0  0  0  0  0  0  0
   14.3101  -19.1313   23.3436 C   0  0  0  0  0  0  0  0  0  0  0  0
   15.7656  -18.9883   23.0115 C   0  0  0  0  0  0  0  0  0  0  0  0
   16.5958  -19.6038   24.1424 N   0  0  0  0  0  0  0  0  0  0  0  0
   18.0035  -19.4938   23.8428 C   0  0  0  0  0  0  0  0  0  0  0  0
   11.6660  -17.6722   23.8137 O   0  0  0  0  0  0  0  0  0  0  0  0
   11.7798  -18.2069   25.0881 O   0  0  0  0  0  0  0  0  0  0  0  0
  1  2  1  0
  3  2  1  0
  4  3  2  0
  5  6  1  0
  6  7  2  0
  6  8  1  0
  8  9  1  0
  9 10  1  0
 11 10  1  0
 12 11  1  1
 12 13  1  0
 13  3  1  0
 14 12  1  0
 14 15  2  0
 16 14  1  0
 17 16  1  0
 17 18  1  6
 19 18  1  0
 20 19  1  0
 20 21  1  0
 21 22  1  0
 23 17  1  0
 24 23  1  0
 25 23  2  0
M  END
$$$$
