GRK.pdb
     RDKit          3D

 25 24  0  0  1  0  0  0  0  0999 V2000
    5.2849  -21.3797   23.1556 N   0  0  0  0  0  0  0  0  0  0  0  0
    4.9267  -19.9831   23.3444 C   0  0  0  0  0  0  0  0  0  0  0  0
    6.1249  -19.1124   23.1986 C   0  0  0  0  0  0  0  0  0  0  0  0
    7.2951  -19.5760   23.2387 O   0  0  0  0  0  0  0  0  0  0  0  0
    7.6521  -12.0486   19.6997 N   0  0  0  0  0  0  0  0  0  0  0  0
    8.2752  -13.0959   19.0032 C   0  0  0  0  0  0  0  0  0  0  0  0
    9.3208  -12.8858   18.2530 N   0  0  0  0  0  0  0  0  0  0  0  0
    7.7885  -14.4228   19.0821 N   0  0  0  0  0  0  0  0  0  0  0  0
    6.8568  -14.8585   20.0788 C   0  0  0  0  0  0  0  0  0  0  0  0
    7.5293  -14.9949   21.4147 C   0  0  0  0  0  0  0  0  0  0  0  0
    6.6827  -15.4612   22.5390 C   0  0  0  0  0  0  0  0  0  0  0  0
    7.1524  -16.8394   22.9953 C   0  0  2  0  0  0  0  0  0  0  0  0
    5.9838  -17.7296   23.0097 N   0  0  0  0  0  0  0  0  0  0  0  0
    7.6146  -16.7574   24.3799 C   0  0  0  0  0  0  0  0  0  0  0  0
    6.8563  -16.3283   25.2830 O   0  0  0  0  0  0  0  0  0  0  0  0
    9.7469  -13.6812   17.7478 N   0  0  0  0  0  0  0  0  0  0  0  0
    8.9229  -17.1671   24.7289 C   0  0  2  0  0  0  0  0  0  0  0  0
    9.4643  -17.0826   26.0918 C   0  0  0  0  0  0  0  0  0  0  0  0
    9.7327  -18.4686   26.5555 C   0  0  0  0  0  0  0  0  0  0  0  0
   10.3444  -18.5172   27.9316 C   0  0  0  0  0  0  0  0  0  0  0  0
   10.5646  -19.9395   28.3536 C   0  0  0  0  0  0  0  0  0  0  0  0
   11.2008  -19.9512   29.7472 N   0  0  0  0  0  0  0  0  0  0  0  0
   11.3987  -21.3098   30.1923 C   0  0  0  0  0  0  0  0  0  0  0  0
   10.6665  -16.2195   26.0715 O   0  0  0  0  0  0  0  0  0  0  0  0
   11.2524  -15.8454   24.8717 O   0  0  0  0  0  0  0  0  0  0  0  0
  1  2  1  0
  3  2  1  0
  4  3  2  0
  5  6  1  0
  6  7  2  0
  6  8  1  0
  8  9  1  0
  9 10  1  0
 11 10  1  0
 12 11  1  1
 12 13  1  0
 13  3  1  0
 14 12  1  0
 14 15  2  0
 16 14  1  0
 17 16  1  0
 17 18  1  6
 19 18  1  0
 20 19  1  0
 20 21  1  0
 21 22  1  0
 23 17  1  0
 24 23  1  0
 25 23  2  0
M  END
$$$$
