GRK.pdb
     RDKit          3D

 25 24  0  0  1  0  0  0  0  0999 V2000
    1.6021  -19.0768   21.6844 N   0  0  0  0  0  0  0  0  0  0  0  0
    2.6472  -18.0675   21.7410 C   0  0  0  0  0  0  0  0  0  0  0  0
    3.9421  -18.6788   22.1471 C   0  0  0  0  0  0  0  0  0  0  0  0
    4.0255  -19.8791   22.5187 O   0  0  0  0  0  0  0  0  0  0  0  0
    8.7341  -13.6672   20.8580 N   0  0  0  0  0  0  0  0  0  0  0  0
    7.7359  -13.6993   19.8716 C   0  0  0  0  0  0  0  0  0  0  0  0
    7.1733  -12.6058   19.4381 N   0  0  0  0  0  0  0  0  0  0  0  0
    7.2948  -14.9224   19.3122 N   0  0  0  0  0  0  0  0  0  0  0  0
    7.8005  -16.1990   19.7197 C   0  0  0  0  0  0  0  0  0  0  0  0
    7.0257  -16.7306   20.8913 C   0  0  0  0  0  0  0  0  0  0  0  0
    7.4302  -18.0610   21.4055 C   0  0  0  0  0  0  0  0  0  0  0  0
    6.4223  -18.5342   22.4488 C   0  0  2  0  0  0  0  0  0  0  0  0
    5.1247  -17.9247   22.1277 N   0  0  0  0  0  0  0  0  0  0  0  0
    6.8020  -18.0088   23.7592 C   0  0  0  0  0  0  0  0  0  0  0  0
    6.3439  -16.9138   24.1666 O   0  0  0  0  0  0  0  0  0  0  0  0
    6.4635  -12.6669   18.6886 N   0  0  0  0  0  0  0  0  0  0  0  0
    7.6873  -18.7284   24.5958 C   0  0  2  0  0  0  0  0  0  0  0  0
    8.0336  -18.3121   25.9613 C   0  0  0  0  0  0  0  0  0  0  0  0
    8.3309  -19.5399   26.7436 C   0  0  0  0  0  0  0  0  0  0  0  0
    8.8351  -19.2417   28.1318 C   0  0  0  0  0  0  0  0  0  0  0  0
    9.2888  -20.5036   28.8033 C   0  0  0  0  0  0  0  0  0  0  0  0
    9.7168  -20.1767   30.2376 N   0  0  0  0  0  0  0  0  0  0  0  0
   10.0714  -21.3872   30.9390 C   0  0  0  0  0  0  0  0  0  0  0  0
    9.1661  -17.3616   25.8941 O   0  0  0  0  0  0  0  0  0  0  0  0
    9.3979  -16.4588   26.9207 O   0  0  0  0  0  0  0  0  0  0  0  0
  1  2  1  0
  3  2  1  0
  4  3  2  0
  5  6  1  0
  6  7  2  0
  6  8  1  0
  8  9  1  0
  9 10  1  0
 11 10  1  0
 12 11  1  6
 12 13  1  0
 13  3  1  0
 14 12  1  0
 14 15  2  0
 16 14  1  0
 17 16  1  0
 17 18  1  6
 19 18  1  0
 20 19  1  0
 20 21  1  0
 21 22  1  0
 23 17  1  0
 24 23  1  0
 25 23  2  0
M  END
$$$$
