GRK.pdb
     RDKit          3D

 25 24  0  0  1  0  0  0  0  0999 V2000
    2.7226  -20.3038   21.5051 N   0  0  0  0  0  0  0  0  0  0  0  0
    3.0197  -19.3550   22.5661 C   0  0  0  0  0  0  0  0  0  0  0  0
    4.3942  -18.8069   22.4066 C   0  0  0  0  0  0  0  0  0  0  0  0
    5.3981  -19.5540   22.2662 O   0  0  0  0  0  0  0  0  0  0  0  0
   10.3191  -13.6407   20.3144 N   0  0  0  0  0  0  0  0  0  0  0  0
    9.1966  -13.2355   19.5754 C   0  0  0  0  0  0  0  0  0  0  0  0
    9.1983  -12.1262   18.8900 N   0  0  0  0  0  0  0  0  0  0  0  0
    8.0138  -14.0126   19.5502 N   0  0  0  0  0  0  0  0  0  0  0  0
    7.8380  -15.1992   20.3329 C   0  0  0  0  0  0  0  0  0  0  0  0
    7.2291  -14.8734   21.6665 C   0  0  0  0  0  0  0  0  0  0  0  0
    5.8718  -15.4109   21.9252 C   0  0  0  0  0  0  0  0  0  0  0  0
    5.9746  -16.8666   22.3711 C   0  0  2  0  0  0  0  0  0  0  0  0
    4.6148  -17.4215   22.4081 N   0  0  0  0  0  0  0  0  0  0  0  0
    6.4684  -16.9159   23.7462 C   0  0  0  0  0  0  0  0  0  0  0  0
    5.7858  -16.4454   24.6883 O   0  0  0  0  0  0  0  0  0  0  0  0
    8.3671  -11.8809   18.3258 N   0  0  0  0  0  0  0  0  0  0  0  0
    7.7218  -17.5017   24.0418 C   0  0  2  0  0  0  0  0  0  0  0  0
    8.2663  -17.6126   25.4016 C   0  0  0  0  0  0  0  0  0  0  0  0
    8.3134  -19.0562   25.7505 C   0  0  0  0  0  0  0  0  0  0  0  0
    8.8646  -19.3073   27.1301 C   0  0  0  0  0  0  0  0  0  0  0  0
    8.8142  -20.7711   27.4526 C   0  0  0  0  0  0  0  0  0  0  0  0
    9.3864  -20.9902   28.8567 N   0  0  0  0  0  0  0  0  0  0  0  0
    9.3696  -22.3952   29.1871 C   0  0  0  0  0  0  0  0  0  0  0  0
    9.5888  -16.9490   25.4380 O   0  0  0  0  0  0  0  0  0  0  0  0
   10.0996  -16.4474   26.6256 O   0  0  0  0  0  0  0  0  0  0  0  0
  1  2  1  0
  3  2  1  0
  4  3  2  0
  5  6  1  0
  6  7  2  0
  6  8  1  0
  8  9  1  0
  9 10  1  0
 11 10  1  0
 12 11  1  1
 12 13  1  0
 13  3  1  0
 14 12  1  0
 14 15  2  0
 16 14  1  0
 17 16  1  0
 17 18  1  6
 19 18  1  0
 20 19  1  0
 20 21  1  0
 21 22  1  0
 23 17  1  0
 24 23  1  0
 25 23  2  0
M  END
$$$$
