GRK.pdb
     RDKit          3D

 25 24  0  0  1  0  0  0  0  0999 V2000
   13.9461  -19.3892   15.3931 N   0  0  0  0  0  0  0  0  0  0  0  0
   12.5564  -19.5830   15.7746 C   0  0  0  0  0  0  0  0  0  0  0  0
   12.3009  -19.0111   17.1247 C   0  0  0  0  0  0  0  0  0  0  0  0
   13.2385  -18.6640   17.8904 O   0  0  0  0  0  0  0  0  0  0  0  0
    7.8409  -13.0094   15.8717 N   0  0  0  0  0  0  0  0  0  0  0  0
    8.0218  -14.0004   16.8492 C   0  0  0  0  0  0  0  0  0  0  0  0
    8.6617  -13.7528   17.9579 N   0  0  0  0  0  0  0  0  0  0  0  0
    7.5219  -15.3121   16.6669 N   0  0  0  0  0  0  0  0  0  0  0  0
    7.5991  -16.3279   17.6737 C   0  0  0  0  0  0  0  0  0  0  0  0
    9.0261  -16.7228   17.9249 C   0  0  0  0  0  0  0  0  0  0  0  0
    9.2510  -17.8018   18.9166 C   0  0  0  0  0  0  0  0  0  0  0  0
   10.7186  -18.2188   18.8945 C   0  0  2  0  0  0  0  0  0  0  0  0
   10.9890  -18.8398   17.5908 N   0  0  0  0  0  0  0  0  0  0  0  0
   10.9380  -19.2641   19.8928 C   0  0  0  0  0  0  0  0  0  0  0  0
   10.3280  -20.3583   19.8180 O   0  0  0  0  0  0  0  0  0  0  0  0
    8.8968  -14.5366   18.5902 N   0  0  0  0  0  0  0  0  0  0  0  0
   11.8475  -19.0647   20.9579 C   0  0  2  0  0  0  0  0  0  0  0  0
   12.1311  -20.0765   21.9844 C   0  0  0  0  0  0  0  0  0  0  0  0
   13.5233  -19.8600   22.4562 C   0  0  0  0  0  0  0  0  0  0  0  0
   13.9825  -20.9152   23.4289 C   0  0  0  0  0  0  0  0  0  0  0  0
   15.3840  -20.6319   23.8813 C   0  0  0  0  0  0  0  0  0  0  0  0
   15.7100  -21.5293   25.0794 N   0  0  0  0  0  0  0  0  0  0  0  0
   16.3747  -22.7309   24.6347 C   0  0  0  0  0  0  0  0  0  0  0  0
   11.1161  -19.9622   23.0556 O   0  0  0  0  0  0  0  0  0  0  0  0
   10.8075  -21.0480   23.8608 O   0  0  0  0  0  0  0  0  0  0  0  0
  1  2  1  0
  3  2  1  0
  4  3  2  0
  5  6  1  0
  6  7  2  0
  6  8  1  0
  8  9  1  0
  9 10  1  0
 11 10  1  0
 12 11  1  6
 12 13  1  0
 13  3  1  0
 14 12  1  0
 14 15  2  0
 16 14  1  0
 17 16  1  0
 17 18  1  6
 19 18  1  0
 20 19  1  0
 20 21  1  0
 21 22  1  0
 23 17  1  0
 24 23  1  0
 25 23  2  0
M  END
$$$$
