GRK.pdb
     RDKit          3D

 25 24  0  0  1  0  0  0  0  0999 V2000
   14.0199  -17.0050   20.0442 N   0  0  0  0  0  0  0  0  0  0  0  0
   12.6195  -17.3961   20.0583 C   0  0  0  0  0  0  0  0  0  0  0  0
   11.8602  -16.5826   21.0468 C   0  0  0  0  0  0  0  0  0  0  0  0
   12.4379  -15.9057   21.9377 O   0  0  0  0  0  0  0  0  0  0  0  0
    8.2340  -15.1123   16.9463 N   0  0  0  0  0  0  0  0  0  0  0  0
    7.8595  -13.7922   17.2417 C   0  0  0  0  0  0  0  0  0  0  0  0
    8.1269  -12.8111   16.4256 N   0  0  0  0  0  0  0  0  0  0  0  0
    7.1817  -13.4719   18.4424 N   0  0  0  0  0  0  0  0  0  0  0  0
    7.0160  -14.3995   19.5210 C   0  0  0  0  0  0  0  0  0  0  0  0
    8.3173  -14.6243   20.2362 C   0  0  0  0  0  0  0  0  0  0  0  0
    8.2865  -15.5489   21.3948 C   0  0  0  0  0  0  0  0  0  0  0  0
    9.6961  -15.7138   21.9552 C   0  0  2  0  0  0  0  0  0  0  0  0
   10.4583  -16.5459   21.0143 N   0  0  0  0  0  0  0  0  0  0  0  0
    9.6330  -16.4710   23.2041 C   0  0  0  0  0  0  0  0  0  0  0  0
    9.6311  -17.7259   23.1921 O   0  0  0  0  0  0  0  0  0  0  0  0
    7.8767  -11.8456   16.6989 N   0  0  0  0  0  0  0  0  0  0  0  0
    9.5803  -15.8035   24.4504 C   0  0  2  0  0  0  0  0  0  0  0  0
    9.3812  -16.4915   25.7329 C   0  0  0  0  0  0  0  0  0  0  0  0
    9.1714  -15.4513   26.7730 C   0  0  0  0  0  0  0  0  0  0  0  0
   10.1819  -15.5264   27.8881 C   0  0  0  0  0  0  0  0  0  0  0  0
    9.9459  -14.4263   28.8797 C   0  0  0  0  0  0  0  0  0  0  0  0
   10.9852  -14.5362   30.0000 N   0  0  0  0  0  0  0  0  0  0  0  0
   10.8293  -13.4451   30.9319 C   0  0  0  0  0  0  0  0  0  0  0  0
    8.2463  -17.4315   25.5951 O   0  0  0  0  0  0  0  0  0  0  0  0
    8.2545  -18.6556   26.2464 O   0  0  0  0  0  0  0  0  0  0  0  0
  1  2  1  0
  3  2  1  0
  4  3  2  0
  5  6  1  0
  6  7  2  0
  6  8  1  0
  8  9  1  0
  9 10  1  0
 11 10  1  0
 12 11  1  6
 12 13  1  0
 13  3  1  0
 14 12  1  0
 14 15  2  0
 16 14  1  0
 17 16  1  0
 17 18  1  6
 19 18  1  0
 20 19  1  0
 20 21  1  0
 21 22  1  0
 23 17  1  0
 24 23  1  0
 25 23  2  0
M  END
$$$$
