GRK.pdb
     RDKit          3D

 25 24  0  0  1  0  0  0  0  0999 V2000
    4.3959  -20.5412   23.2731 N   0  0  0  0  0  0  0  0  0  0  0  0
    4.3694  -19.0903   23.3655 C   0  0  0  0  0  0  0  0  0  0  0  0
    5.7106  -18.5229   23.0582 C   0  0  0  0  0  0  0  0  0  0  0  0
    6.7393  -19.2454   22.9835 O   0  0  0  0  0  0  0  0  0  0  0  0
    7.5364  -11.7959   17.5745 N   0  0  0  0  0  0  0  0  0  0  0  0
    7.8370  -13.1350   17.2797 C   0  0  0  0  0  0  0  0  0  0  0  0
    8.0008  -13.5402   16.0512 N   0  0  0  0  0  0  0  0  0  0  0  0
    7.9677  -14.1017   18.3053 N   0  0  0  0  0  0  0  0  0  0  0  0
    7.3826  -13.9515   19.6039 C   0  0  0  0  0  0  0  0  0  0  0  0
    7.5969  -15.1860   20.4319 C   0  0  0  0  0  0  0  0  0  0  0  0
    6.8790  -15.2487   21.7276 C   0  0  0  0  0  0  0  0  0  0  0  0
    7.1571  -16.5889   22.4020 C   0  0  2  0  0  0  0  0  0  0  0  0
    5.8703  -17.1465   22.8397 N   0  0  0  0  0  0  0  0  0  0  0  0
    7.9347  -16.3639   23.6194 C   0  0  0  0  0  0  0  0  0  0  0  0
    7.3836  -15.9270   24.6588 O   0  0  0  0  0  0  0  0  0  0  0  0
    8.2882  -14.5182   15.8770 N   0  0  0  0  0  0  0  0  0  0  0  0
    9.3216  -16.6414   23.6510 C   0  0  2  0  0  0  0  0  0  0  0  0
   10.1532  -16.4909   24.8525 C   0  0  0  0  0  0  0  0  0  0  0  0
    9.8414  -17.6256   25.7598 C   0  0  0  0  0  0  0  0  0  0  0  0
   10.6784  -17.6201   27.0127 C   0  0  0  0  0  0  0  0  0  0  0  0
   10.4045  -18.8493   27.8272 C   0  0  0  0  0  0  0  0  0  0  0  0
   11.1809  -18.7552   29.1446 N   0  0  0  0  0  0  0  0  0  0  0  0
   10.8797  -19.8918   29.9817 C   0  0  0  0  0  0  0  0  0  0  0  0
   11.5737  -16.4318   24.4412 O   0  0  0  0  0  0  0  0  0  0  0  0
   11.9349  -16.5789   23.1105 O   0  0  0  0  0  0  0  0  0  0  0  0
  1  2  1  0
  3  2  1  0
  4  3  2  0
  5  6  1  0
  6  7  2  0
  6  8  1  0
  8  9  1  0
  9 10  1  0
 11 10  1  0
 12 11  1  1
 12 13  1  0
 13  3  1  0
 14 12  1  0
 14 15  2  0
 16 14  1  0
 17 16  1  0
 17 18  1  1
 19 18  1  0
 20 19  1  0
 20 21  1  0
 21 22  1  0
 23 17  1  0
 24 23  1  0
 25 23  2  0
M  END
$$$$
