GRK.pdb
     RDKit          3D

 25 24  0  0  1  0  0  0  0  0999 V2000
    4.8210  -21.1325   23.5700 N   0  0  0  0  0  0  0  0  0  0  0  0
    4.5691  -19.7045   23.6776 C   0  0  0  0  0  0  0  0  0  0  0  0
    5.7650  -18.9295   23.2482 C   0  0  0  0  0  0  0  0  0  0  0  0
    6.8735  -19.4833   23.0241 O   0  0  0  0  0  0  0  0  0  0  0  0
    7.8889  -12.1698   19.1642 N   0  0  0  0  0  0  0  0  0  0  0  0
    9.0054  -13.0094   19.3017 C   0  0  0  0  0  0  0  0  0  0  0  0
   10.2201  -12.5368   19.2633 N   0  0  0  0  0  0  0  0  0  0  0  0
    8.8572  -14.4056   19.4809 N   0  0  0  0  0  0  0  0  0  0  0  0
    7.6575  -15.0096   19.9783 C   0  0  0  0  0  0  0  0  0  0  0  0
    7.4793  -14.7171   21.4405 C   0  0  0  0  0  0  0  0  0  0  0  0
    6.3687  -15.4196   22.1271 C   0  0  0  0  0  0  0  0  0  0  0  0
    6.8652  -16.7588   22.6640 C   0  0  2  0  0  0  0  0  0  0  0  0
    5.6912  -17.5390   23.0782 N   0  0  0  0  0  0  0  0  0  0  0  0
    7.6476  -16.5314   23.8779 C   0  0  0  0  0  0  0  0  0  0  0  0
    7.1117  -16.0434   24.9024 O   0  0  0  0  0  0  0  0  0  0  0  0
   11.0172  -13.1849   19.3814 N   0  0  0  0  0  0  0  0  0  0  0  0
    9.0219  -16.8641   23.9230 C   0  0  2  0  0  0  0  0  0  0  0  0
    9.8662  -16.6708   25.1094 C   0  0  0  0  0  0  0  0  0  0  0  0
    9.8054  -17.9194   25.9125 C   0  0  0  0  0  0  0  0  0  0  0  0
   10.6797  -17.8699   27.1386 C   0  0  0  0  0  0  0  0  0  0  0  0
   10.7057  -19.2087   27.8141 C   0  0  0  0  0  0  0  0  0  0  0  0
   11.4746  -19.0844   29.1334 N   0  0  0  0  0  0  0  0  0  0  0  0
   11.4494  -20.3404   29.8440 C   0  0  0  0  0  0  0  0  0  0  0  0
   11.2328  -16.3156   24.6657 O   0  0  0  0  0  0  0  0  0  0  0  0
   12.1246  -15.7030   25.5329 O   0  0  0  0  0  0  0  0  0  0  0  0
  1  2  1  0
  3  2  1  0
  4  3  2  0
  5  6  1  0
  6  7  2  0
  6  8  1  0
  8  9  1  0
  9 10  1  0
 11 10  1  0
 12 11  1  1
 12 13  1  0
 13  3  1  0
 14 12  1  0
 14 15  2  0
 16 14  1  0
 17 16  1  0
 17 18  1  6
 19 18  1  0
 20 19  1  0
 20 21  1  0
 21 22  1  0
 23 17  1  0
 24 23  1  0
 25 23  2  0
M  END
$$$$
