RRC.pdb
     RDKit          3D

 29 28  0  0  1  0  0  0  0  0999 V2000
    8.8652  -11.7016   18.8051 N   0  0  0  0  0  0  0  0  0  0  0  0
    8.3767  -12.8915   18.2197 C   0  0  0  0  0  0  0  0  0  0  0  0
    8.8840  -13.3815   17.1170 N   0  0  0  0  0  0  0  0  0  0  0  0
    7.3114  -13.6514   18.7623 N   0  0  0  0  0  0  0  0  0  0  0  0
    7.4009  -14.3031   20.0103 C   0  0  0  0  0  0  0  0  0  0  0  0
    7.8448  -15.7284   19.9786 C   0  0  0  0  0  0  0  0  0  0  0  0
    7.7998  -16.2834   21.3855 C   0  0  0  0  0  0  0  0  0  0  0  0
    8.3122  -17.6746   21.4937 C   0  0  2  0  0  0  0  0  0  0  0  0
    7.2246  -18.6083   21.4896 N   0  0  0  0  0  0  0  0  0  0  0  0
    8.9886  -17.7882   22.8324 C   0  0  0  0  0  0  0  0  0  0  0  0
    8.3282  -18.0548   23.8829 O   0  0  0  0  0  0  0  0  0  0  0  0
    8.4664  -14.2590   16.7576 N   0  0  0  0  0  0  0  0  0  0  0  0
   15.6127  -16.6886   22.3288 C   0  0  0  0  0  0  0  0  0  0  0  0
   16.0399  -16.1583   23.5890 N   0  0  0  0  0  0  0  0  0  0  0  0
   17.1064  -15.4431   23.6396 N   0  0  0  0  0  0  0  0  0  0  0  0
   15.3240  -16.3970   24.7864 C   0  0  0  0  0  0  0  0  0  0  0  0
   14.7493  -17.6724   25.1211 C   0  0  0  0  0  0  0  0  0  0  0  0
   13.2609  -17.5606   25.4156 C   0  0  0  0  0  0  0  0  0  0  0  0
   12.5180  -17.5517   24.0973 C   0  0  2  0  0  0  0  0  0  0  0  0
   11.0257  -17.4680   24.2946 N   0  0  0  0  0  0  0  0  0  0  0  0
   10.3804  -17.6043   22.9810 C   0  0  0  0  0  0  0  0  0  0  0  0
   10.6118  -16.2217   24.9590 O   0  0  0  0  0  0  0  0  0  0  0  0
   10.3684  -15.1804   24.3039 N   0  0  0  0  0  0  0  0  0  0  0  0
   17.4355  -15.0817   24.5424 C   0  0  2  0  0  0  0  0  0  0  0  0
   10.4766  -16.1685   26.3691 C   0  0  0  0  0  0  0  0  0  0  0  0
   10.0122  -15.0132   27.0854 S   0  0  0  0  0  0  0  0  0  0  0  0
    8.6032  -14.6954   26.5663 C   0  0  0  0  0  0  0  0  0  0  0  0
    8.0206  -13.2967   27.6011 O   0  0  0  0  0  0  0  0  0  0  0  0
   10.0643  -15.1312   28.5363 O   0  0  0  0  0  0  0  0  0  0  0  0
  2  1  1  0
  2  3  2  0
  4  2  1  0
  5  4  1  0
  6  5  1  0
  7  6  1  0
  8  7  1  0
  8  9  1  1
 10  8  1  0
 10 11  2  0
 13 12  1  0
 14 13  2  0
 15 13  1  0
 16 15  1  0
 17 16  1  0
 17 18  1  0
 19 18  1  1
 19 20  1  0
 19 21  1  0
 20 10  1  0
 21 23  1  0
 22 21  2  0
 23 24  1  0
 24 27  1  0
 25 26  1  0
 24 25  1  6
 27 28  2  0
 27 29  1  0
M  END
$$$$
