RRC.pdb
     RDKit          3D

 29 28  0  0  1  0  0  0  0  0999 V2000
    8.0827  -12.1385   18.8444 N   0  0  0  0  0  0  0  0  0  0  0  0
    8.3700  -13.2856   18.0703 C   0  0  0  0  0  0  0  0  0  0  0  0
    7.9892  -13.3940   16.8227 N   0  0  0  0  0  0  0  0  0  0  0  0
    9.0841  -14.4049   18.5640 N   0  0  0  0  0  0  0  0  0  0  0  0
    8.4847  -15.3923   19.3739 C   0  0  0  0  0  0  0  0  0  0  0  0
    7.0055  -15.2903   19.5505 C   0  0  0  0  0  0  0  0  0  0  0  0
    6.6662  -15.5891   20.9946 C   0  0  0  0  0  0  0  0  0  0  0  0
    6.9465  -16.9933   21.3939 C   0  0  2  0  0  0  0  0  0  0  0  0
    5.8278  -17.8333   21.0816 N   0  0  0  0  0  0  0  0  0  0  0  0
    7.1011  -16.9995   22.8901 C   0  0  0  0  0  0  0  0  0  0  0  0
    6.1562  -16.6262   23.6509 O   0  0  0  0  0  0  0  0  0  0  0  0
    8.2683  -14.2560   16.3200 N   0  0  0  0  0  0  0  0  0  0  0  0
   10.2334  -17.8082   30.9505 C   0  0  0  0  0  0  0  0  0  0  0  0
   10.9785  -17.9625   29.7370 N   0  0  0  0  0  0  0  0  0  0  0  0
   11.9564  -17.1644   29.4954 N   0  0  0  0  0  0  0  0  0  0  0  0
   10.6724  -18.9688   28.7899 C   0  0  0  0  0  0  0  0  0  0  0  0
    9.7417  -18.7789   27.7098 C   0  0  0  0  0  0  0  0  0  0  0  0
   10.1908  -17.6735   26.7659 C   0  0  0  0  0  0  0  0  0  0  0  0
    9.7109  -18.0181   25.3728 C   0  0  1  0  0  0  0  0  0  0  0  0
    8.6224  -17.0846   24.9072 N   0  0  0  0  0  0  0  0  0  0  0  0
    8.2969  -17.4176   23.5131 C   0  0  0  0  0  0  0  0  0  0  0  0
    8.9984  -15.6676   25.0372 O   0  0  0  0  0  0  0  0  0  0  0  0
    9.9705  -15.1879   24.4066 N   0  0  0  0  0  0  0  0  0  0  0  0
   12.5201  -17.2913   28.6468 C   0  0  2  0  0  0  0  0  0  0  0  0
    8.2630  -14.8029   25.8862 C   0  0  0  0  0  0  0  0  0  0  0  0
    8.7044  -13.4901   26.2674 S   0  0  0  0  0  0  0  0  0  0  0  0
    7.5565  -12.5194   25.9579 C   0  0  0  0  0  0  0  0  0  0  0  0
    6.1185  -13.1720   26.8923 O   0  0  0  0  0  0  0  0  0  0  0  0
    9.1809  -13.3793   27.6395 O   0  0  0  0  0  0  0  0  0  0  0  0
  2  1  1  0
  2  3  2  0
  4  2  1  0
  5  4  1  0
  6  5  1  0
  7  6  1  0
  8  7  1  0
  8  9  1  1
 10  8  1  0
 10 11  2  0
 13 12  1  0
 14 13  2  0
 15 13  1  0
 16 15  1  0
 17 16  1  0
 17 18  1  0
 19 18  1  1
 19 20  1  0
 19 21  1  0
 20 10  1  0
 21 23  1  0
 22 21  2  0
 23 24  1  0
 24 27  1  0
 25 26  1  0
 24 25  1  6
 27 28  2  0
 27 29  1  0
M  END
$$$$
