RRC.pdb
     RDKit          3D

 29 28  0  0  1  0  0  0  0  0999 V2000
   10.9644  -13.6993   19.3514 N   0  0  0  0  0  0  0  0  0  0  0  0
   10.2344  -13.5251   18.1539 C   0  0  0  0  0  0  0  0  0  0  0  0
   10.7545  -13.7819   16.9805 N   0  0  0  0  0  0  0  0  0  0  0  0
    8.8955  -13.0644   18.1127 N   0  0  0  0  0  0  0  0  0  0  0  0
    7.9499  -13.3856   19.1092 C   0  0  0  0  0  0  0  0  0  0  0  0
    7.5868  -14.8288   19.2318 C   0  0  0  0  0  0  0  0  0  0  0  0
    7.5682  -15.2029   20.6979 C   0  0  0  0  0  0  0  0  0  0  0  0
    7.3968  -16.6597   20.9386 C   0  0  2  0  0  0  0  0  0  0  0  0
    6.1434  -17.1087   20.4075 N   0  0  0  0  0  0  0  0  0  0  0  0
    7.3410  -16.8527   22.4293 C   0  0  0  0  0  0  0  0  0  0  0  0
    6.2393  -16.8071   23.0580 O   0  0  0  0  0  0  0  0  0  0  0  0
   10.1786  -13.5503   16.1509 N   0  0  0  0  0  0  0  0  0  0  0  0
   12.3620  -18.8736   30.4917 C   0  0  0  0  0  0  0  0  0  0  0  0
   11.4367  -18.2285   29.6089 N   0  0  0  0  0  0  0  0  0  0  0  0
   10.9676  -17.0748   29.9258 N   0  0  0  0  0  0  0  0  0  0  0  0
   11.0192  -18.8217   28.3936 C   0  0  0  0  0  0  0  0  0  0  0  0
   11.1727  -18.1866   27.1121 C   0  0  0  0  0  0  0  0  0  0  0  0
    9.8992  -17.4762   26.6784 C   0  0  0  0  0  0  0  0  0  0  0  0
    9.7466  -17.6514   25.1831 C   0  0  1  0  0  0  0  0  0  0  0  0
    8.5449  -16.9124   24.6513 N   0  0  0  0  0  0  0  0  0  0  0  0
    8.5041  -17.0913   23.1929 C   0  0  0  0  0  0  0  0  0  0  0  0
    8.5554  -15.4845   25.0076 O   0  0  0  0  0  0  0  0  0  0  0  0
    9.4911  -14.7284   24.6533 N   0  0  0  0  0  0  0  0  0  0  0  0
   10.3387  -16.5850   29.2788 C   0  0  2  0  0  0  0  0  0  0  0  0
    7.4974  -14.9244   25.7668 C   0  0  0  0  0  0  0  0  0  0  0  0
    7.4641  -13.5569   26.2056 S   0  0  0  0  0  0  0  0  0  0  0  0
    5.9944  -13.2026   26.4703 C   0  0  0  0  0  0  0  0  0  0  0  0
    6.0304  -11.4906   27.1294 O   0  0  0  0  0  0  0  0  0  0  0  0
    8.3285  -13.2570   27.3391 O   0  0  0  0  0  0  0  0  0  0  0  0
  2  1  1  0
  2  3  2  0
  4  2  1  0
  5  4  1  0
  6  5  1  0
  7  6  1  0
  8  7  1  0
  8  9  1  6
 10  8  1  0
 10 11  2  0
 13 12  1  0
 14 13  2  0
 15 13  1  0
 16 15  1  0
 17 16  1  0
 17 18  1  0
 19 18  1  1
 19 20  1  0
 19 21  1  0
 20 10  1  0
 21 23  1  0
 22 21  2  0
 23 24  1  0
 24 27  1  0
 25 26  1  0
 24 25  1  1
 27 28  2  0
 27 29  1  0
M  END
$$$$
