RRC.pdb
     RDKit          3D

 29 28  0  0  1  0  0  0  0  0999 V2000
    8.5794  -11.9202   18.5364 N   0  0  0  0  0  0  0  0  0  0  0  0
    8.4895  -13.1356   17.8207 C   0  0  0  0  0  0  0  0  0  0  0  0
    9.1700  -13.3463   16.7226 N   0  0  0  0  0  0  0  0  0  0  0  0
    7.6690  -14.2198   18.2182 N   0  0  0  0  0  0  0  0  0  0  0  0
    6.9968  -14.2499   19.4582 C   0  0  0  0  0  0  0  0  0  0  0  0
    7.1612  -15.4947   20.2664 C   0  0  0  0  0  0  0  0  0  0  0  0
    8.6175  -15.9045   20.2377 C   0  0  0  0  0  0  0  0  0  0  0  0
    8.8822  -17.2088   20.8999 C   0  0  2  0  0  0  0  0  0  0  0  0
    8.0236  -18.2236   20.3636 N   0  0  0  0  0  0  0  0  0  0  0  0
    8.5205  -17.0436   22.3506 C   0  0  0  0  0  0  0  0  0  0  0  0
    7.3323  -17.2270   22.7576 O   0  0  0  0  0  0  0  0  0  0  0  0
    9.0193  -14.2526   16.2436 N   0  0  0  0  0  0  0  0  0  0  0  0
   10.5801  -19.6481   29.5843 C   0  0  0  0  0  0  0  0  0  0  0  0
   11.4501  -19.7391   28.4501 N   0  0  0  0  0  0  0  0  0  0  0  0
   12.1790  -20.7870   28.3010 N   0  0  0  0  0  0  0  0  0  0  0  0
   11.5351  -18.7088   27.4835 C   0  0  0  0  0  0  0  0  0  0  0  0
   11.3001  -17.3222   27.7856 C   0  0  0  0  0  0  0  0  0  0  0  0
   10.0894  -16.7798   27.0408 C   0  0  0  0  0  0  0  0  0  0  0  0
   10.2870  -17.0424   25.5637 C   0  0  1  0  0  0  0  0  0  0  0  0
    9.1441  -16.5048   24.7404 N   0  0  0  0  0  0  0  0  0  0  0  0
    9.4797  -16.6788   23.3200 C   0  0  0  0  0  0  0  0  0  0  0  0
    8.8425  -15.0963   25.0426 O   0  0  0  0  0  0  0  0  0  0  0  0
    9.5530  -14.1645   24.5958 N   0  0  0  0  0  0  0  0  0  0  0  0
   12.8304  -20.8464   27.5098 C   0  0  2  0  0  0  0  0  0  0  0  0
    7.7305  -14.7564   25.8533 C   0  0  0  0  0  0  0  0  0  0  0  0
    7.4435  -13.4213   26.2990 S   0  0  0  0  0  0  0  0  0  0  0  0
    5.9172  -13.2979   26.4038 C   0  0  0  0  0  0  0  0  0  0  0  0
    5.6229  -11.6214   27.0891 O   0  0  0  0  0  0  0  0  0  0  0  0
    8.1258  -13.0252   27.5235 O   0  0  0  0  0  0  0  0  0  0  0  0
  2  1  1  0
  2  3  2  0
  4  2  1  0
  5  4  1  0
  6  5  1  0
  7  6  1  0
  8  7  1  0
  8  9  1  6
 10  8  1  0
 10 11  2  0
 13 12  1  0
 14 13  2  0
 15 13  1  0
 16 15  1  0
 17 16  1  0
 17 18  1  0
 19 18  1  1
 19 20  1  0
 19 21  1  0
 20 10  1  0
 21 23  1  0
 22 21  2  0
 23 24  1  0
 24 27  1  0
 25 26  1  0
 24 25  1  1
 27 28  2  0
 27 29  1  0
M  END
$$$$
