RRC.pdb
     RDKit          3D

 29 28  0  0  1  0  0  0  0  0999 V2000
    9.8537  -16.9204   16.4415 N   0  0  0  0  0  0  0  0  0  0  0  0
    9.9597  -18.0495   15.5981 C   0  0  0  0  0  0  0  0  0  0  0  0
    8.9502  -18.4802   14.8848 N   0  0  0  0  0  0  0  0  0  0  0  0
   11.1475  -18.8068   15.4486 N   0  0  0  0  0  0  0  0  0  0  0  0
   12.2391  -18.6918   16.3349 C   0  0  0  0  0  0  0  0  0  0  0  0
   12.3375  -19.7363   17.3974 C   0  0  0  0  0  0  0  0  0  0  0  0
   13.5468  -19.4423   18.2581 C   0  0  0  0  0  0  0  0  0  0  0  0
   13.2901  -19.5867   19.7152 C   0  0  2  0  0  0  0  0  0  0  0  0
   12.1926  -20.4805   19.9418 N   0  0  0  0  0  0  0  0  0  0  0  0
   12.8712  -18.2336   20.2213 C   0  0  0  0  0  0  0  0  0  0  0  0
   13.6636  -17.2427   20.1839 O   0  0  0  0  0  0  0  0  0  0  0  0
    9.0681  -19.3920   14.4071 N   0  0  0  0  0  0  0  0  0  0  0  0
    9.0013  -12.4695   18.6445 C   0  0  0  0  0  0  0  0  0  0  0  0
    8.1934  -12.2973   19.8148 N   0  0  0  0  0  0  0  0  0  0  0  0
    8.0358  -11.1180   20.3004 N   0  0  0  0  0  0  0  0  0  0  0  0
    7.5601  -13.3875   20.4579 C   0  0  0  0  0  0  0  0  0  0  0  0
    8.0029  -14.7493   20.3217 C   0  0  0  0  0  0  0  0  0  0  0  0
    9.4217  -14.9356   20.8384 C   0  0  0  0  0  0  0  0  0  0  0  0
    9.7902  -16.3958   20.6903 C   0  0  2  0  0  0  0  0  0  0  0  0
   11.1571  -16.6896   21.2546 N   0  0  0  0  0  0  0  0  0  0  0  0
   11.5859  -18.0049   20.7582 C   0  0  0  0  0  0  0  0  0  0  0  0
   11.1832  -16.6466   22.7255 O   0  0  0  0  0  0  0  0  0  0  0  0
   10.4290  -15.8806   23.3714 N   0  0  0  0  0  0  0  0  0  0  0  0
    7.4769  -10.9877   21.1517 C   0  0  1  0  0  0  0  0  0  0  0  0
   12.0699  -17.4786   23.4542 C   0  0  0  0  0  0  0  0  0  0  0  0
   11.9740  -17.7046   24.8696 S   0  0  0  0  0  0  0  0  0  0  0  0
   10.6083  -18.3540   25.1322 C   0  0  0  0  0  0  0  0  0  0  0  0
   10.2320  -17.9738   26.8874 O   0  0  0  0  0  0  0  0  0  0  0  0
   13.0775  -18.4621   25.4442 O   0  0  0  0  0  0  0  0  0  0  0  0
  2  1  1  0
  2  3  2  0
  4  2  1  0
  5  4  1  0
  6  5  1  0
  7  6  1  0
  8  7  1  0
  8  9  1  6
 10  8  1  0
 10 11  2  0
 13 12  1  0
 14 13  2  0
 15 13  1  0
 16 15  1  0
 17 16  1  0
 17 18  1  0
 19 18  1  6
 19 20  1  0
 19 21  1  0
 20 10  1  0
 21 23  1  0
 22 21  2  0
 23 24  1  0
 24 27  1  0
 25 26  1  0
 24 25  1  6
 27 28  2  0
 27 29  1  0
M  END
$$$$
