RRC.pdb
     RDKit          3D

 29 28  0  0  1  0  0  0  0  0999 V2000
   11.6734  -23.6234   27.2998 N   0  0  0  0  0  0  0  0  0  0  0  0
   11.3986  -22.3940   26.6590 C   0  0  0  0  0  0  0  0  0  0  0  0
   10.8657  -22.3378   25.4648 N   0  0  0  0  0  0  0  0  0  0  0  0
   11.6694  -21.1305   27.2394 N   0  0  0  0  0  0  0  0  0  0  0  0
   11.3440  -19.9152   26.6011 C   0  0  0  0  0  0  0  0  0  0  0  0
   10.9099  -20.0155   25.1759 C   0  0  0  0  0  0  0  0  0  0  0  0
   10.5690  -18.6298   24.6725 C   0  0  0  0  0  0  0  0  0  0  0  0
   10.0821  -18.6094   23.2682 C   0  0  2  0  0  0  0  0  0  0  0  0
   10.9868  -19.3240   22.4164 N   0  0  0  0  0  0  0  0  0  0  0  0
   10.0947  -17.1729   22.8222 C   0  0  0  0  0  0  0  0  0  0  0  0
   11.1845  -16.5392   22.6746 O   0  0  0  0  0  0  0  0  0  0  0  0
   10.8190  -21.4055   25.0150 N   0  0  0  0  0  0  0  0  0  0  0  0
    8.3847  -15.2870   18.2821 C   0  0  0  0  0  0  0  0  0  0  0  0
    7.8618  -14.1304   17.6184 N   0  0  0  0  0  0  0  0  0  0  0  0
    8.2543  -13.8609   16.4248 N   0  0  0  0  0  0  0  0  0  0  0  0
    6.9231  -13.2697   18.2359 C   0  0  0  0  0  0  0  0  0  0  0  0
    6.5414  -13.3804   19.6183 C   0  0  0  0  0  0  0  0  0  0  0  0
    7.7533  -13.4937   20.5310 C   0  0  0  0  0  0  0  0  0  0  0  0
    7.7868  -14.8956   21.0996 C   0  0  2  0  0  0  0  0  0  0  0  0
    8.8946  -15.0658   22.1080 N   0  0  0  0  0  0  0  0  0  0  0  0
    8.9026  -16.4678   22.5493 C   0  0  0  0  0  0  0  0  0  0  0  0
    8.7615  -14.1526   23.2545 O   0  0  0  0  0  0  0  0  0  0  0  0
    8.6541  -12.9134   23.0950 N   0  0  0  0  0  0  0  0  0  0  0  0
    7.8076  -13.0993   15.9010 C   0  0  1  0  0  0  0  0  0  0  0  0
    8.7509  -14.6572   24.5791 C   0  0  0  0  0  0  0  0  0  0  0  0
    8.5618  -13.8400   25.7452 S   0  0  0  0  0  0  0  0  0  0  0  0
    7.2486  -13.0698   25.5496 C   0  0  0  0  0  0  0  0  0  0  0  0
    7.0803  -12.0298   27.0518 O   0  0  0  0  0  0  0  0  0  0  0  0
    8.6092  -14.5596   27.0108 O   0  0  0  0  0  0  0  0  0  0  0  0
  2  1  1  0
  2  3  2  0
  4  2  1  0
  5  4  1  0
  6  5  1  0
  7  6  1  0
  8  7  1  0
  8  9  1  6
 10  8  1  0
 10 11  2  0
 13 12  1  0
 14 13  2  0
 15 13  1  0
 16 15  1  0
 17 16  1  0
 17 18  1  0
 19 18  1  6
 19 20  1  0
 19 21  1  0
 20 10  1  0
 21 23  1  0
 22 21  2  0
 23 24  1  0
 24 27  1  0
 25 26  1  0
 24 25  1  1
 27 28  2  0
 27 29  1  0
M  END
$$$$
