RRC.pdb
     RDKit          3D

 29 28  0  0  1  0  0  0  0  0999 V2000
   10.7984  -22.7160   25.8063 N   0  0  0  0  0  0  0  0  0  0  0  0
   11.5523  -22.2526   24.7043 C   0  0  0  0  0  0  0  0  0  0  0  0
   11.2730  -22.6049   23.4750 N   0  0  0  0  0  0  0  0  0  0  0  0
   12.6609  -21.3792   24.8255 N   0  0  0  0  0  0  0  0  0  0  0  0
   13.2253  -20.7090   23.7198 C   0  0  0  0  0  0  0  0  0  0  0  0
   12.6219  -19.3881   23.3721 C   0  0  0  0  0  0  0  0  0  0  0  0
   13.4754  -18.7274   22.3117 C   0  0  0  0  0  0  0  0  0  0  0  0
   12.6871  -18.0940   21.2221 C   0  0  2  0  0  0  0  0  0  0  0  0
   13.5621  -17.5334   20.2347 N   0  0  0  0  0  0  0  0  0  0  0  0
   11.9269  -16.9524   21.8397 C   0  0  0  0  0  0  0  0  0  0  0  0
   12.5219  -15.9041   22.2374 O   0  0  0  0  0  0  0  0  0  0  0  0
   11.8364  -22.1693   22.7224 N   0  0  0  0  0  0  0  0  0  0  0  0
    8.2469  -13.4744   18.0291 C   0  0  0  0  0  0  0  0  0  0  0  0
    7.6903  -13.2484   19.3294 N   0  0  0  0  0  0  0  0  0  0  0  0
    7.8448  -12.1010   19.8872 N   0  0  0  0  0  0  0  0  0  0  0  0
    6.9728  -14.2510   20.0245 C   0  0  0  0  0  0  0  0  0  0  0  0
    6.6218  -14.1492   21.4157 C   0  0  0  0  0  0  0  0  0  0  0  0
    7.8232  -14.3831   22.3193 C   0  0  0  0  0  0  0  0  0  0  0  0
    8.5714  -15.5942   21.8061 C   0  0  2  0  0  0  0  0  0  0  0  0
    9.7723  -15.9150   22.6594 N   0  0  0  0  0  0  0  0  0  0  0  0
   10.5255  -16.9943   22.0049 C   0  0  0  0  0  0  0  0  0  0  0  0
    9.4056  -16.2868   24.0354 O   0  0  0  0  0  0  0  0  0  0  0  0
    9.2913  -17.4869   24.3807 N   0  0  0  0  0  0  0  0  0  0  0  0
    7.5256  -11.9561   20.8521 C   0  0  2  0  0  0  0  0  0  0  0  0
    9.1713  -15.2871   25.0127 C   0  0  0  0  0  0  0  0  0  0  0  0
    8.7546  -15.5662   26.3589 S   0  0  0  0  0  0  0  0  0  0  0  0
    8.3321  -14.2312   26.9874 C   0  0  0  0  0  0  0  0  0  0  0  0
    9.8108  -13.1534   26.8503 O   0  0  0  0  0  0  0  0  0  0  0  0
    7.7308  -16.5951   26.4814 O   0  0  0  0  0  0  0  0  0  0  0  0
  2  1  1  0
  2  3  2  0
  4  2  1  0
  5  4  1  0
  6  5  1  0
  7  6  1  0
  8  7  1  0
  8  9  1  6
 10  8  1  0
 10 11  2  0
 13 12  1  0
 14 13  2  0
 15 13  1  0
 16 15  1  0
 17 16  1  0
 17 18  1  0
 19 18  1  6
 19 20  1  0
 19 21  1  0
 20 10  1  0
 21 23  1  0
 22 21  2  0
 23 24  1  0
 24 27  1  0
 25 26  1  0
 24 25  1  1
 27 28  2  0
 27 29  1  0
M  END
$$$$
