RRC.pdb
     RDKit          3D

 29 28  0  0  1  0  0  0  0  0999 V2000
   11.3459  -15.7550   20.7857 N   0  0  0  0  0  0  0  0  0  0  0  0
   12.1110  -14.7175   20.2063 C   0  0  0  0  0  0  0  0  0  0  0  0
   13.4107  -14.6519   20.3473 N   0  0  0  0  0  0  0  0  0  0  0  0
   11.5524  -13.6707   19.4326 N   0  0  0  0  0  0  0  0  0  0  0  0
   10.2236  -13.7005   18.9596 C   0  0  0  0  0  0  0  0  0  0  0  0
    9.1787  -13.1954   19.8991 C   0  0  0  0  0  0  0  0  0  0  0  0
    7.8205  -13.6365   19.3988 C   0  0  0  0  0  0  0  0  0  0  0  0
    7.5839  -15.0983   19.5286 C   0  0  2  0  0  0  0  0  0  0  0  0
    6.3656  -15.4666   18.8692 N   0  0  0  0  0  0  0  0  0  0  0  0
    7.3979  -15.3824   20.9940 C   0  0  0  0  0  0  0  0  0  0  0  0
    6.2998  -15.1311   21.5789 O   0  0  0  0  0  0  0  0  0  0  0  0
   13.8837  -13.8172   19.9559 N   0  0  0  0  0  0  0  0  0  0  0  0
   12.6995  -16.6954   24.7102 C   0  0  0  0  0  0  0  0  0  0  0  0
   12.3107  -17.9609   25.2571 N   0  0  0  0  0  0  0  0  0  0  0  0
   12.9209  -18.4099   26.2952 N   0  0  0  0  0  0  0  0  0  0  0  0
   11.2725  -18.7377   24.6898 C   0  0  0  0  0  0  0  0  0  0  0  0
    9.9858  -18.9083   25.3099 C   0  0  0  0  0  0  0  0  0  0  0  0
    9.0701  -17.7228   25.0446 C   0  0  0  0  0  0  0  0  0  0  0  0
    9.1674  -17.3702   23.5762 C   0  0  1  0  0  0  0  0  0  0  0  0
    8.2706  -16.2129   23.2163 N   0  0  0  0  0  0  0  0  0  0  0  0
    8.4298  -15.9375   21.7813 C   0  0  0  0  0  0  0  0  0  0  0  0
    8.5490  -15.0107   24.0183 O   0  0  0  0  0  0  0  0  0  0  0  0
    9.5598  -14.3002   23.8035 N   0  0  0  0  0  0  0  0  0  0  0  0
   12.5933  -19.2721   26.7459 C   0  0  2  0  0  0  0  0  0  0  0  0
    7.6722  -14.6234   25.0627 C   0  0  0  0  0  0  0  0  0  0  0  0
    7.8801  -13.4723   25.8965 S   0  0  0  0  0  0  0  0  0  0  0  0
    6.6794  -12.5394   25.6871 C   0  0  0  0  0  0  0  0  0  0  0  0
    5.8082  -12.5180   27.3018 O   0  0  0  0  0  0  0  0  0  0  0  0
    8.1232  -13.7704   27.3014 O   0  0  0  0  0  0  0  0  0  0  0  0
  2  1  1  0
  2  3  2  0
  4  2  1  0
  5  4  1  0
  6  5  1  0
  7  6  1  0
  8  7  1  0
  8  9  1  6
 10  8  1  0
 10 11  2  0
 13 12  1  0
 14 13  2  0
 15 13  1  0
 16 15  1  0
 17 16  1  0
 17 18  1  0
 19 18  1  6
 19 20  1  0
 19 21  1  0
 20 10  1  0
 21 23  1  0
 22 21  2  0
 23 24  1  0
 24 27  1  0
 25 26  1  0
 24 25  1  1
 27 28  2  0
 27 29  1  0
M  END
$$$$
