RRC.pdb
     RDKit          3D

 29 28  0  0  1  0  0  0  0  0999 V2000
   14.1446  -19.7845   12.7457 N   0  0  0  0  0  0  0  0  0  0  0  0
   13.4732  -19.3684   13.9177 C   0  0  0  0  0  0  0  0  0  0  0  0
   14.1188  -19.0430   15.0089 N   0  0  0  0  0  0  0  0  0  0  0  0
   12.0639  -19.2666   14.0187 N   0  0  0  0  0  0  0  0  0  0  0  0
   11.4141  -18.8575   15.2023 C   0  0  0  0  0  0  0  0  0  0  0  0
   11.2199  -19.9093   16.2442 C   0  0  0  0  0  0  0  0  0  0  0  0
   10.5027  -19.2959   17.4270 C   0  0  0  0  0  0  0  0  0  0  0  0
   10.9489  -19.8344   18.7387 C   0  0  2  0  0  0  0  0  0  0  0  0
    9.8562  -20.4703   19.4143 N   0  0  0  0  0  0  0  0  0  0  0  0
   11.3626  -18.6559   19.5769 C   0  0  0  0  0  0  0  0  0  0  0  0
   12.4473  -18.0364   19.3515 O   0  0  0  0  0  0  0  0  0  0  0  0
   13.5468  -18.8071   15.8400 N   0  0  0  0  0  0  0  0  0  0  0  0
    6.2641  -12.8849   19.2267 C   0  0  0  0  0  0  0  0  0  0  0  0
    7.5471  -12.6960   18.6184 N   0  0  0  0  0  0  0  0  0  0  0  0
    7.6926  -11.7753   17.7338 N   0  0  0  0  0  0  0  0  0  0  0  0
    8.6655  -13.4933   18.9601 C   0  0  0  0  0  0  0  0  0  0  0  0
    8.5654  -14.7049   19.7288 C   0  0  0  0  0  0  0  0  0  0  0  0
    9.9310  -15.3241   19.9864 C   0  0  0  0  0  0  0  0  0  0  0  0
    9.9028  -15.9791   21.3503 C   0  0  2  0  0  0  0  0  0  0  0  0
   10.9610  -17.0448   21.4830 N   0  0  0  0  0  0  0  0  0  0  0  0
   10.5689  -18.1880   20.6464 C   0  0  0  0  0  0  0  0  0  0  0  0
   11.1733  -17.4607   22.8787 O   0  0  0  0  0  0  0  0  0  0  0  0
   10.4090  -18.2808   23.4407 N   0  0  0  0  0  0  0  0  0  0  0  0
    8.5520  -11.7380   17.1734 C   0  0  1  0  0  0  0  0  0  0  0  0
   12.2578  -16.9393   23.6279 C   0  0  0  0  0  0  0  0  0  0  0  0
   12.6322  -17.4146   24.9308 S   0  0  0  0  0  0  0  0  0  0  0  0
   12.7825  -18.9387   24.8301 C   0  0  0  0  0  0  0  0  0  0  0  0
   13.1566  -19.4924   26.5390 O   0  0  0  0  0  0  0  0  0  0  0  0
   13.8061  -16.7696   25.5032 O   0  0  0  0  0  0  0  0  0  0  0  0
  2  1  1  0
  2  3  2  0
  4  2  1  0
  5  4  1  0
  6  5  1  0
  7  6  1  0
  8  7  1  0
  8  9  1  1
 10  8  1  0
 10 11  2  0
 13 12  1  0
 14 13  2  0
 15 13  1  0
 16 15  1  0
 17 16  1  0
 17 18  1  0
 19 18  1  6
 19 20  1  0
 19 21  1  0
 20 10  1  0
 21 23  1  0
 22 21  2  0
 23 24  1  0
 24 27  1  0
 25 26  1  0
 24 25  1  1
 27 28  2  0
 27 29  1  0
M  END
$$$$
