RRC.pdb
     RDKit          3D

 29 28  0  0  1  0  0  0  0  0999 V2000
    8.7682  -13.0292   18.1843 N   0  0  0  0  0  0  0  0  0  0  0  0
    8.4235  -12.2607   19.3192 C   0  0  0  0  0  0  0  0  0  0  0  0
    9.1013  -11.1969   19.6689 N   0  0  0  0  0  0  0  0  0  0  0  0
    7.3316  -12.5647   20.1688 N   0  0  0  0  0  0  0  0  0  0  0  0
    6.6250  -13.7835   20.0922 C   0  0  0  0  0  0  0  0  0  0  0  0
    7.4333  -14.9933   19.7565 C   0  0  0  0  0  0  0  0  0  0  0  0
    7.9564  -15.6003   21.0401 C   0  0  0  0  0  0  0  0  0  0  0  0
    8.7690  -16.8274   20.8306 C   0  0  2  0  0  0  0  0  0  0  0  0
    7.9371  -17.9060   20.3843 N   0  0  0  0  0  0  0  0  0  0  0  0
    9.3212  -17.2202   22.1735 C   0  0  0  0  0  0  0  0  0  0  0  0
    8.6220  -17.8741   23.0069 O   0  0  0  0  0  0  0  0  0  0  0  0
    8.7844  -10.6971   20.5194 N   0  0  0  0  0  0  0  0  0  0  0  0
   15.5891  -21.8787   23.0356 C   0  0  0  0  0  0  0  0  0  0  0  0
   15.6642  -20.6702   23.8009 N   0  0  0  0  0  0  0  0  0  0  0  0
   16.8039  -20.2815   24.2496 N   0  0  0  0  0  0  0  0  0  0  0  0
   14.5198  -19.8860   24.0814 C   0  0  0  0  0  0  0  0  0  0  0  0
   14.5705  -18.6515   24.8179 C   0  0  0  0  0  0  0  0  0  0  0  0
   13.1799  -18.0913   25.0765 C   0  0  0  0  0  0  0  0  0  0  0  0
   12.5532  -17.7486   23.7425 C   0  0  1  0  0  0  0  0  0  0  0  0
   11.1642  -17.1848   23.9033 N   0  0  0  0  0  0  0  0  0  0  0  0
   10.6341  -16.8813   22.5664 C   0  0  0  0  0  0  0  0  0  0  0  0
   11.1338  -15.9927   24.7660 O   0  0  0  0  0  0  0  0  0  0  0  0
   11.9506  -15.0534   24.6134 N   0  0  0  0  0  0  0  0  0  0  0  0
   16.8683  -19.4137   24.7944 C   0  0  2  0  0  0  0  0  0  0  0  0
   10.1707  -15.8767   25.7996 C   0  0  0  0  0  0  0  0  0  0  0  0
   10.2091  -14.8657   26.8193 S   0  0  0  0  0  0  0  0  0  0  0  0
    8.9470  -14.0082   26.6537 C   0  0  0  0  0  0  0  0  0  0  0  0
    7.5533  -15.2004   26.7055 O   0  0  0  0  0  0  0  0  0  0  0  0
   10.3725  -15.3709   28.1758 O   0  0  0  0  0  0  0  0  0  0  0  0
  2  1  1  0
  2  3  2  0
  4  2  1  0
  5  4  1  0
  6  5  1  0
  7  6  1  0
  8  7  1  0
  8  9  1  1
 10  8  1  0
 10 11  2  0
 13 12  1  0
 14 13  2  0
 15 13  1  0
 16 15  1  0
 17 16  1  0
 17 18  1  0
 19 18  1  6
 19 20  1  0
 19 21  1  0
 20 10  1  0
 21 23  1  0
 22 21  2  0
 23 24  1  0
 24 27  1  0
 25 26  1  0
 24 25  1  1
 27 28  2  0
 27 29  1  0
M  END
$$$$
