RRC.pdb
     RDKit          3D

 29 28  0  0  1  0  0  0  0  0999 V2000
   13.8041  -14.8559   18.2919 N   0  0  0  0  0  0  0  0  0  0  0  0
   12.5918  -14.8258   19.0177 C   0  0  0  0  0  0  0  0  0  0  0  0
   12.5302  -15.1655   20.2804 N   0  0  0  0  0  0  0  0  0  0  0  0
   11.3523  -14.4319   18.4563 N   0  0  0  0  0  0  0  0  0  0  0  0
   10.1637  -14.3597   19.2128 C   0  0  0  0  0  0  0  0  0  0  0  0
    9.7288  -12.9926   19.6272 C   0  0  0  0  0  0  0  0  0  0  0  0
    8.6069  -13.1232   20.6341 C   0  0  0  0  0  0  0  0  0  0  0  0
    7.8823  -14.4187   20.5535 C   0  0  2  0  0  0  0  0  0  0  0  0
    6.5840  -14.2286   19.9763 N   0  0  0  0  0  0  0  0  0  0  0  0
    7.6742  -14.8915   21.9662 C   0  0  0  0  0  0  0  0  0  0  0  0
    6.7985  -14.3603   22.7158 O   0  0  0  0  0  0  0  0  0  0  0  0
   13.4243  -15.4046   20.7462 N   0  0  0  0  0  0  0  0  0  0  0  0
    6.3754  -19.7239   27.6201 C   0  0  0  0  0  0  0  0  0  0  0  0
    7.0794  -20.8445   27.0722 N   0  0  0  0  0  0  0  0  0  0  0  0
    6.5721  -22.0200   27.1844 N   0  0  0  0  0  0  0  0  0  0  0  0
    8.3212  -20.7006   26.4085 C   0  0  0  0  0  0  0  0  0  0  0  0
    8.4643  -20.0462   25.1356 C   0  0  0  0  0  0  0  0  0  0  0  0
    8.2552  -18.5435   25.2470 C   0  0  0  0  0  0  0  0  0  0  0  0
    8.4101  -17.9415   23.8673 C   0  0  1  0  0  0  0  0  0  0  0  0
    8.2215  -16.4458   23.8832 N   0  0  0  0  0  0  0  0  0  0  0  0
    8.4390  -15.9410   22.5200 C   0  0  0  0  0  0  0  0  0  0  0  0
    9.1118  -15.7734   24.8431 O   0  0  0  0  0  0  0  0  0  0  0  0
   10.3242  -15.5805   24.5870 N   0  0  0  0  0  0  0  0  0  0  0  0
    7.0495  -22.8238   26.7602 C   0  0  2  0  0  0  0  0  0  0  0  0
    8.6148  -15.3230   26.0919 C   0  0  0  0  0  0  0  0  0  0  0  0
    9.4084  -14.6237   27.0639 S   0  0  0  0  0  0  0  0  0  0  0  0
    8.5239  -13.5204   27.6607 C   0  0  0  0  0  0  0  0  0  0  0  0
    9.5837  -12.6823   28.9021 O   0  0  0  0  0  0  0  0  0  0  0  0
   10.0156  -15.4706   28.0816 O   0  0  0  0  0  0  0  0  0  0  0  0
  2  1  1  0
  2  3  2  0
  4  2  1  0
  5  4  1  0
  6  5  1  0
  7  6  1  0
  8  7  1  0
  8  9  1  1
 10  8  1  0
 10 11  2  0
 13 12  1  0
 14 13  2  0
 15 13  1  0
 16 15  1  0
 17 16  1  0
 17 18  1  0
 19 18  1  6
 19 20  1  0
 19 21  1  0
 20 10  1  0
 21 23  1  0
 22 21  2  0
 23 24  1  0
 24 27  1  0
 25 26  1  0
 24 25  1  1
 27 28  2  0
 27 29  1  0
M  END
$$$$
