RRC.pdb
     RDKit          3D

 29 28  0  0  1  0  0  0  0  0999 V2000
    7.4736  -14.7709   15.8155 N   0  0  0  0  0  0  0  0  0  0  0  0
    8.5773  -13.9477   16.1346 C   0  0  0  0  0  0  0  0  0  0  0  0
    9.6768  -13.9551   15.4244 N   0  0  0  0  0  0  0  0  0  0  0  0
    8.5959  -13.0539   17.2333 N   0  0  0  0  0  0  0  0  0  0  0  0
    8.1248  -13.4130   18.5137 C   0  0  0  0  0  0  0  0  0  0  0  0
    8.2602  -14.8529   18.8852 C   0  0  0  0  0  0  0  0  0  0  0  0
    7.6027  -15.0722   20.2303 C   0  0  0  0  0  0  0  0  0  0  0  0
    7.7416  -16.4610   20.7418 C   0  0  2  0  0  0  0  0  0  0  0  0
    6.6682  -17.2795   20.2596 N   0  0  0  0  0  0  0  0  0  0  0  0
    7.6076  -16.3909   22.2384 C   0  0  0  0  0  0  0  0  0  0  0  0
    6.4750  -16.4877   22.8029 O   0  0  0  0  0  0  0  0  0  0  0  0
   10.4253  -13.2985   15.7113 N   0  0  0  0  0  0  0  0  0  0  0  0
   12.6101  -19.4603   29.0116 C   0  0  0  0  0  0  0  0  0  0  0  0
   11.9842  -18.2213   29.3648 N   0  0  0  0  0  0  0  0  0  0  0  0
   12.4136  -17.5703   30.3862 N   0  0  0  0  0  0  0  0  0  0  0  0
   10.9031  -17.6873   28.6236 C   0  0  0  0  0  0  0  0  0  0  0  0
   10.9341  -17.5150   27.1959 C   0  0  0  0  0  0  0  0  0  0  0  0
    9.5812  -17.0834   26.6502 C   0  0  0  0  0  0  0  0  0  0  0  0
    9.6751  -17.0327   25.1408 C   0  0  2  0  0  0  0  0  0  0  0  0
    8.6173  -16.1407   24.5423 N   0  0  0  0  0  0  0  0  0  0  0  0
    8.7283  -16.2148   23.0785 C   0  0  0  0  0  0  0  0  0  0  0  0
    8.7204  -14.7488   25.0094 O   0  0  0  0  0  0  0  0  0  0  0  0
    9.6928  -14.0228   24.6934 N   0  0  0  0  0  0  0  0  0  0  0  0
   11.9307  -16.7152   30.6856 C   0  0  2  0  0  0  0  0  0  0  0  0
    7.7126  -14.1903   25.8352 C   0  0  0  0  0  0  0  0  0  0  0  0
    7.8177  -12.9049   26.4678 S   0  0  0  0  0  0  0  0  0  0  0  0
    6.4721  -12.1931   26.2721 C   0  0  0  0  0  0  0  0  0  0  0  0
    5.2439  -13.2585   27.1225 O   0  0  0  0  0  0  0  0  0  0  0  0
    8.2376  -12.9420   27.8622 O   0  0  0  0  0  0  0  0  0  0  0  0
  2  1  1  0
  2  3  2  0
  4  2  1  0
  5  4  1  0
  6  5  1  0
  7  6  1  0
  8  7  1  0
  8  9  1  6
 10  8  1  0
 10 11  2  0
 13 12  1  0
 14 13  2  0
 15 13  1  0
 16 15  1  0
 17 16  1  0
 17 18  1  0
 19 18  1  6
 19 20  1  0
 19 21  1  0
 20 10  1  0
 21 23  1  0
 22 21  2  0
 23 24  1  0
 24 27  1  0
 25 26  1  0
 24 25  1  1
 27 28  2  0
 27 29  1  0
M  END
$$$$
