RRC.pdb
     RDKit          3D

 29 28  0  0  1  0  0  0  0  0999 V2000
    8.0161  -12.9483   17.9660 N   0  0  0  0  0  0  0  0  0  0  0  0
    7.7599  -13.1496   19.3412 C   0  0  0  0  0  0  0  0  0  0  0  0
    7.7270  -12.1568   20.1936 N   0  0  0  0  0  0  0  0  0  0  0  0
    7.5190  -14.4221   19.9151 N   0  0  0  0  0  0  0  0  0  0  0  0
    8.2798  -15.5626   19.5822 C   0  0  0  0  0  0  0  0  0  0  0  0
    7.7534  -16.4024   18.4654 C   0  0  0  0  0  0  0  0  0  0  0  0
    8.7350  -17.5216   18.1939 C   0  0  0  0  0  0  0  0  0  0  0  0
    9.7796  -17.1687   17.1970 C   0  0  2  0  0  0  0  0  0  0  0  0
    9.9198  -18.2170   16.2295 N   0  0  0  0  0  0  0  0  0  0  0  0
   11.0825  -17.0773   17.9432 C   0  0  0  0  0  0  0  0  0  0  0  0
   11.6154  -18.1042   18.4651 O   0  0  0  0  0  0  0  0  0  0  0  0
    7.5934  -12.3995   21.1920 N   0  0  0  0  0  0  0  0  0  0  0  0
   18.0725  -14.3879   19.8870 C   0  0  0  0  0  0  0  0  0  0  0  0
   18.2184  -14.2719   18.4668 N   0  0  0  0  0  0  0  0  0  0  0  0
   19.3020  -14.6835   17.9117 N   0  0  0  0  0  0  0  0  0  0  0  0
   17.2048  -13.7163   17.6500 C   0  0  0  0  0  0  0  0  0  0  0  0
   15.9168  -13.3185   18.1518 C   0  0  0  0  0  0  0  0  0  0  0  0
   15.1978  -14.4709   18.8371 C   0  0  0  0  0  0  0  0  0  0  0  0
   13.8026  -14.5675   18.2592 C   0  0  2  0  0  0  0  0  0  0  0  0
   13.0437  -15.7441   18.8185 N   0  0  0  0  0  0  0  0  0  0  0  0
   11.7679  -15.8528   18.0967 C   0  0  0  0  0  0  0  0  0  0  0  0
   12.8216  -15.6362   20.2694 O   0  0  0  0  0  0  0  0  0  0  0  0
   11.9194  -14.9037   20.7407 N   0  0  0  0  0  0  0  0  0  0  0  0
   19.4441  -14.5430   16.9047 C   0  0  2  0  0  0  0  0  0  0  0  0
   13.6298  -16.3654   21.1773 C   0  0  0  0  0  0  0  0  0  0  0  0
   13.3868  -16.4293   22.5917 S   0  0  0  0  0  0  0  0  0  0  0  0
   13.7788  -15.0668   23.1798 C   0  0  0  0  0  0  0  0  0  0  0  0
   15.5713  -14.8959   22.8269 O   0  0  0  0  0  0  0  0  0  0  0  0
   12.0381  -16.8357   22.9629 O   0  0  0  0  0  0  0  0  0  0  0  0
  2  1  1  0
  2  3  2  0
  4  2  1  0
  5  4  1  0
  6  5  1  0
  7  6  1  0
  8  7  1  0
  8  9  1  6
 10  8  1  0
 10 11  2  0
 13 12  1  0
 14 13  2  0
 15 13  1  0
 16 15  1  0
 17 16  1  0
 17 18  1  0
 19 18  1  6
 19 20  1  0
 19 21  1  0
 20 10  1  0
 21 23  1  0
 22 21  2  0
 23 24  1  0
 24 27  1  0
 25 26  1  0
 24 25  1  1
 27 28  2  0
 27 29  1  0
M  END
$$$$
