ETD.pdb
     RDKit          3D

 25 24  0  0  1  0  0  0  0  0999 V2000
    8.5274  -16.9081   16.3069 N   0  0  0  0  0  0  0  0  0  0  0  0
    8.6375  -17.7115   17.4901 C   0  0  1  0  0  0  0  0  0  0  0  0
    9.5078  -18.8929   17.2446 C   0  0  0  0  0  0  0  0  0  0  0  0
    9.8250  -19.1960   15.8233 C   0  0  0  0  0  0  0  0  0  0  0  0
   10.7409  -20.3296   15.6052 C   0  0  0  0  0  0  0  0  0  0  0  0
   10.3926  -21.4723   15.9824 O   0  0  0  0  0  0  0  0  0  0  0  0
    9.0945  -16.8773   18.6293 C   0  0  0  0  0  0  0  0  0  0  0  0
   10.0638  -16.0717   18.5130 O   0  0  0  0  0  0  0  0  0  0  0  0
   11.9774  -20.1927   14.9991 O   0  0  0  0  0  0  0  0  0  0  0  0
    8.2919  -14.7756   22.9640 C   0  0  0  0  0  0  0  0  0  0  0  0
    7.7521  -15.6787   21.8858 C   0  0  1  0  0  0  0  0  0  0  0  0
    6.7378  -15.1044   21.1438 O   0  0  0  0  0  0  0  0  0  0  0  0
    8.9048  -16.1653   21.0425 C   0  0  2  0  0  0  0  0  0  0  0  0
    8.4721  -16.9387   19.9023 N   0  0  0  0  0  0  0  0  0  0  0  0
    9.9571  -16.8306   21.8244 C   0  0  0  0  0  0  0  0  0  0  0  0
   10.4681  -17.8874   21.4199 O   0  0  0  0  0  0  0  0  0  0  0  0
   10.3847  -16.2621   23.0384 N   0  0  0  0  0  0  0  0  0  0  0  0
   11.6940  -16.5193   23.6177 C   0  0  1  0  0  0  0  0  0  0  0  0
   12.8115  -16.1252   22.7095 C   0  0  0  0  0  0  0  0  0  0  0  0
   14.1493  -16.4302   23.2207 C   0  0  0  0  0  0  0  0  0  0  0  0
   14.2933  -17.5482   23.8088 O   0  0  0  0  0  0  0  0  0  0  0  0
   11.8076  -15.8936   24.9419 C   0  0  0  0  0  0  0  0  0  0  0  0
   10.8211  -15.1741   25.5595 O   0  0  0  0  0  0  0  0  0  0  0  0
   15.2595  -15.6315   23.1284 O   0  0  0  0  0  0  0  0  0  0  0  0
   12.9044  -16.0187   25.5840 O   0  0  0  0  0  0  0  0  0  0  0  0
  2  7  1  0
  2  1  1  6
  3  2  1  0
  4  5  1  0
  4  3  1  0
  5  9  1  0
  6  5  2  0
  7  8  2  0
 11 10  1  1
 12 11  1  0
 13 11  1  0
 14  7  1  0
 13 14  1  6
 15 13  1  0
 15 17  1  0
 16 15  2  0
 18 17  1  0
 18 19  1  6
 20 19  1  0
 20 21  2  0
 22 23  1  0
 22 18  1  0
 24 20  1  0
 25 22  2  0
M  END
$$$$
