ETD.pdb
     RDKit          3D

 25 24  0  0  1  0  0  0  0  0999 V2000
    7.4179  -16.5667   16.8071 N   0  0  0  0  0  0  0  0  0  0  0  0
    8.8320  -16.3266   16.7871 C   0  0  1  0  0  0  0  0  0  0  0  0
    9.2180  -15.5586   15.5729 C   0  0  0  0  0  0  0  0  0  0  0  0
    8.1966  -15.4689   14.4953 C   0  0  0  0  0  0  0  0  0  0  0  0
    8.6894  -15.7261   13.1305 C   0  0  0  0  0  0  0  0  0  0  0  0
    9.8846  -16.0658   12.9710 O   0  0  0  0  0  0  0  0  0  0  0  0
    9.2534  -15.6710   18.0501 C   0  0  0  0  0  0  0  0  0  0  0  0
   10.4498  -15.3033   18.2380 O   0  0  0  0  0  0  0  0  0  0  0  0
    7.8899  -15.6098   12.0069 O   0  0  0  0  0  0  0  0  0  0  0  0
    7.1350  -13.0566   20.2329 C   0  0  0  0  0  0  0  0  0  0  0  0
    7.6082  -14.1910   21.1040 C   0  0  1  0  0  0  0  0  0  0  0  0
    6.5925  -15.0377   21.5047 O   0  0  0  0  0  0  0  0  0  0  0  0
    8.7344  -14.9044   20.3973 C   0  0  2  0  0  0  0  0  0  0  0  0
    8.3418  -15.4232   19.1081 N   0  0  0  0  0  0  0  0  0  0  0  0
    9.4093  -15.9028   21.2393 C   0  0  0  0  0  0  0  0  0  0  0  0
    9.9736  -16.8815   20.7243 O   0  0  0  0  0  0  0  0  0  0  0  0
    9.4131  -15.7439   22.6373 N   0  0  0  0  0  0  0  0  0  0  0  0
   10.4757  -16.2519   23.4911 C   0  0  1  0  0  0  0  0  0  0  0  0
   11.8308  -15.8126   23.0447 C   0  0  0  0  0  0  0  0  0  0  0  0
   12.6580  -16.8754   22.4700 C   0  0  0  0  0  0  0  0  0  0  0  0
   12.0505  -17.7755   21.8089 O   0  0  0  0  0  0  0  0  0  0  0  0
   10.2176  -15.9145   24.8973 C   0  0  0  0  0  0  0  0  0  0  0  0
   10.5358  -16.7055   25.9676 O   0  0  0  0  0  0  0  0  0  0  0  0
   14.0194  -16.9959   22.5739 O   0  0  0  0  0  0  0  0  0  0  0  0
    9.6530  -14.8006   25.1639 O   0  0  0  0  0  0  0  0  0  0  0  0
  2  7  1  0
  2  1  1  1
  3  2  1  0
  4  5  1  0
  4  3  1  0
  5  9  1  0
  6  5  2  0
  7  8  2  0
 11 10  1  6
 12 11  1  0
 13 11  1  0
 14  7  1  0
 13 14  1  6
 15 13  1  0
 15 17  1  0
 16 15  2  0
 18 17  1  0
 18 19  1  6
 20 19  1  0
 20 21  2  0
 22 23  1  0
 22 18  1  0
 24 20  1  0
 25 22  2  0
M  END
$$$$
