ETD.pdb
     RDKit          3D

 25 24  0  0  1  0  0  0  0  0999 V2000
    8.1135  -16.8703   16.1246 N   0  0  0  0  0  0  0  0  0  0  0  0
    8.1060  -17.5363   17.3951 C   0  0  1  0  0  0  0  0  0  0  0  0
    8.7068  -18.8926   17.2816 C   0  0  0  0  0  0  0  0  0  0  0  0
   10.1206  -18.9527   16.8233 C   0  0  0  0  0  0  0  0  0  0  0  0
   10.6950  -20.3053   16.7126 C   0  0  0  0  0  0  0  0  0  0  0  0
   11.9021  -20.4282   16.4010 O   0  0  0  0  0  0  0  0  0  0  0  0
    8.7695  -16.6884   18.4166 C   0  0  0  0  0  0  0  0  0  0  0  0
    9.8452  -16.0700   18.1665 O   0  0  0  0  0  0  0  0  0  0  0  0
    9.9601  -21.4561   16.9379 O   0  0  0  0  0  0  0  0  0  0  0  0
    7.0641  -14.0057   20.6484 C   0  0  0  0  0  0  0  0  0  0  0  0
    7.8150  -14.9460   21.5546 C   0  0  1  0  0  0  0  0  0  0  0  0
    6.9914  -15.7780   22.2885 O   0  0  0  0  0  0  0  0  0  0  0  0
    8.8375  -15.6929   20.7341 C   0  0  2  0  0  0  0  0  0  0  0  0
    8.2356  -16.5272   19.7207 N   0  0  0  0  0  0  0  0  0  0  0  0
    9.8314  -16.4045   21.5509 C   0  0  0  0  0  0  0  0  0  0  0  0
    9.8578  -17.6456   21.5692 O   0  0  0  0  0  0  0  0  0  0  0  0
   10.7565  -15.6698   22.3152 N   0  0  0  0  0  0  0  0  0  0  0  0
   11.7648  -16.2949   23.1571 C   0  0  1  0  0  0  0  0  0  0  0  0
   13.1139  -15.6773   22.9926 C   0  0  0  0  0  0  0  0  0  0  0  0
   14.1564  -16.2534   23.8442 C   0  0  0  0  0  0  0  0  0  0  0  0
   14.2107  -17.5225   23.8988 O   0  0  0  0  0  0  0  0  0  0  0  0
   11.3301  -16.3141   24.5601 C   0  0  0  0  0  0  0  0  0  0  0  0
   11.8425  -17.1301   25.5316 O   0  0  0  0  0  0  0  0  0  0  0  0
   15.0776  -15.5617   24.5871 O   0  0  0  0  0  0  0  0  0  0  0  0
   10.4026  -15.5148   24.9227 O   0  0  0  0  0  0  0  0  0  0  0  0
  2  7  1  0
  2  1  1  6
  3  2  1  0
  4  5  1  0
  4  3  1  0
  5  9  1  0
  6  5  2  0
  7  8  2  0
 11 10  1  6
 12 11  1  0
 13 11  1  0
 14  7  1  0
 13 14  1  1
 15 13  1  0
 15 17  1  0
 16 15  2  0
 18 17  1  0
 18 19  1  1
 20 19  1  0
 20 21  2  0
 22 23  1  0
 22 18  1  0
 24 20  1  0
 25 22  2  0
M  END
$$$$
