ETD.pdb
     RDKit          3D

 25 24  0  0  1  0  0  0  0  0999 V2000
    9.1066  -17.1928   16.0914 N   0  0  0  0  0  0  0  0  0  0  0  0
    8.2496  -17.2693   17.2392 C   0  0  1  0  0  0  0  0  0  0  0  0
    7.8432  -18.6766   17.4995 C   0  0  0  0  0  0  0  0  0  0  0  0
    8.9437  -19.6497   17.7330 C   0  0  0  0  0  0  0  0  0  0  0  0
    8.5236  -21.0490   17.9250 C   0  0  0  0  0  0  0  0  0  0  0  0
    8.9240  -21.9190   17.1175 O   0  0  0  0  0  0  0  0  0  0  0  0
    8.9048  -16.6266   18.4056 C   0  0  0  0  0  0  0  0  0  0  0  0
   10.1628  -16.6338   18.5453 O   0  0  0  0  0  0  0  0  0  0  0  0
    7.7013  -21.4527   18.9624 O   0  0  0  0  0  0  0  0  0  0  0  0
    7.4476  -13.3411   20.4028 C   0  0  0  0  0  0  0  0  0  0  0  0
    7.8166  -14.4679   21.3322 C   0  0  1  0  0  0  0  0  0  0  0  0
    6.7226  -15.1078   21.8825 O   0  0  0  0  0  0  0  0  0  0  0  0
    8.7520  -15.4041   20.6075 C   0  0  2  0  0  0  0  0  0  0  0  0
    8.1593  -15.9735   19.4202 N   0  0  0  0  0  0  0  0  0  0  0  0
    9.3628  -16.4117   21.4869 C   0  0  0  0  0  0  0  0  0  0  0  0
    9.4679  -17.5912   21.1137 O   0  0  0  0  0  0  0  0  0  0  0  0
    9.8298  -16.0319   22.7586 N   0  0  0  0  0  0  0  0  0  0  0  0
   10.6585  -16.8918   23.5893 C   0  0  1  0  0  0  0  0  0  0  0  0
   11.8859  -17.3635   22.8823 C   0  0  0  0  0  0  0  0  0  0  0  0
   12.7821  -18.1850   23.6984 C   0  0  0  0  0  0  0  0  0  0  0  0
   12.2327  -18.9627   24.5410 O   0  0  0  0  0  0  0  0  0  0  0  0
   10.9705  -16.2358   24.8660 C   0  0  0  0  0  0  0  0  0  0  0  0
   10.5522  -16.6672   26.0953 O   0  0  0  0  0  0  0  0  0  0  0  0
   14.1517  -18.1988   23.6443 O   0  0  0  0  0  0  0  0  0  0  0  0
   11.6868  -15.1787   24.8500 O   0  0  0  0  0  0  0  0  0  0  0  0
  2  7  1  0
  2  1  1  6
  3  2  1  0
  4  5  1  0
  4  3  1  0
  5  9  1  0
  6  5  2  0
  7  8  2  0
 11 10  1  6
 12 11  1  0
 13 11  1  0
 14  7  1  0
 13 14  1  6
 15 13  1  0
 15 17  1  0
 16 15  2  0
 18 17  1  0
 18 19  1  6
 20 19  1  0
 20 21  2  0
 22 23  1  0
 22 18  1  0
 24 20  1  0
 25 22  2  0
M  END
$$$$
