ETD.pdb
     RDKit          3D

 25 24  0  0  1  0  0  0  0  0999 V2000
   11.6009  -16.3941   18.4126 N   0  0  0  0  0  0  0  0  0  0  0  0
   12.2959  -15.9686   19.5931 C   0  0  1  0  0  0  0  0  0  0  0  0
   13.2789  -14.9002   19.2685 C   0  0  0  0  0  0  0  0  0  0  0  0
   14.3276  -15.2477   18.2725 C   0  0  0  0  0  0  0  0  0  0  0  0
   15.3446  -14.2085   18.0327 C   0  0  0  0  0  0  0  0  0  0  0  0
   16.3362  -14.4833   17.3183 O   0  0  0  0  0  0  0  0  0  0  0  0
   11.3220  -15.5667   20.6384 C   0  0  0  0  0  0  0  0  0  0  0  0
   10.3695  -14.7724   20.3855 O   0  0  0  0  0  0  0  0  0  0  0  0
   15.2571  -12.9330   18.5625 O   0  0  0  0  0  0  0  0  0  0  0  0
    8.0499  -15.9633   23.6479 C   0  0  0  0  0  0  0  0  0  0  0  0
    9.0111  -16.1628   22.5052 C   0  0  1  0  0  0  0  0  0  0  0  0
    8.6383  -15.5015   21.3508 O   0  0  0  0  0  0  0  0  0  0  0  0
   10.3996  -15.8048   22.9749 C   0  0  2  0  0  0  0  0  0  0  0  0
   11.4070  -16.0492   21.9695 N   0  0  0  0  0  0  0  0  0  0  0  0
   10.7384  -16.3838   24.2830 C   0  0  0  0  0  0  0  0  0  0  0  0
   11.5844  -17.2882   24.3702 O   0  0  0  0  0  0  0  0  0  0  0  0
   10.0970  -15.9064   25.4408 N   0  0  0  0  0  0  0  0  0  0  0  0
   10.4232  -16.3743   26.7791 C   0  0  1  0  0  0  0  0  0  0  0  0
    9.7620  -15.5671   27.8468 C   0  0  0  0  0  0  0  0  0  0  0  0
   10.2121  -14.1761   27.9267 C   0  0  0  0  0  0  0  0  0  0  0  0
   11.2232  -13.8631   27.2222 O   0  0  0  0  0  0  0  0  0  0  0  0
   10.1383  -17.8093   26.9109 C   0  0  0  0  0  0  0  0  0  0  0  0
   10.8557  -18.6868   27.6775 O   0  0  0  0  0  0  0  0  0  0  0  0
    9.6527  -13.1798   28.6840 O   0  0  0  0  0  0  0  0  0  0  0  0
    9.1482  -18.2966   26.2683 O   0  0  0  0  0  0  0  0  0  0  0  0
  2  7  1  0
  2  1  1  6
  3  2  1  0
  4  5  1  0
  4  3  1  0
  5  9  1  0
  6  5  2  0
  7  8  2  0
 11 10  1  1
 12 11  1  0
 13 11  1  0
 14  7  1  0
 13 14  1  6
 15 13  1  0
 15 17  1  0
 16 15  2  0
 18 17  1  0
 18 19  1  1
 20 19  1  0
 20 21  2  0
 22 23  1  0
 22 18  1  0
 24 20  1  0
 25 22  2  0
M  END
$$$$
