ETD.pdb
     RDKit          3D

 25 24  0  0  1  0  0  0  0  0999 V2000
    8.3215  -14.9326   14.8787 N   0  0  0  0  0  0  0  0  0  0  0  0
    8.8578  -15.8585   15.8341 C   0  0  1  0  0  0  0  0  0  0  0  0
   10.0096  -16.6023   15.2566 C   0  0  0  0  0  0  0  0  0  0  0  0
    9.9727  -16.8415   13.7889 C   0  0  0  0  0  0  0  0  0  0  0  0
   11.1192  -17.5855   13.2381 C   0  0  0  0  0  0  0  0  0  0  0  0
   10.9283  -18.7277   12.7604 O   0  0  0  0  0  0  0  0  0  0  0  0
    9.1941  -15.1499   17.0940 C   0  0  0  0  0  0  0  0  0  0  0  0
    9.9315  -14.1212   17.0985 O   0  0  0  0  0  0  0  0  0  0  0  0
   12.4074  -17.0801   13.2225 O   0  0  0  0  0  0  0  0  0  0  0  0
    7.3896  -13.0972   19.1117 C   0  0  0  0  0  0  0  0  0  0  0  0
    7.7736  -14.1520   20.1164 C   0  0  1  0  0  0  0  0  0  0  0  0
    6.7270  -14.9818   20.4702 O   0  0  0  0  0  0  0  0  0  0  0  0
    8.9763  -14.8993   19.5953 C   0  0  2  0  0  0  0  0  0  0  0  0
    8.7091  -15.5862   18.3535 N   0  0  0  0  0  0  0  0  0  0  0  0
    9.6089  -15.7599   20.6055 C   0  0  0  0  0  0  0  0  0  0  0  0
    9.6100  -16.9938   20.4687 O   0  0  0  0  0  0  0  0  0  0  0  0
   10.2157  -15.1765   21.7330 N   0  0  0  0  0  0  0  0  0  0  0  0
   10.8193  -15.9565   22.8023 C   0  0  1  0  0  0  0  0  0  0  0  0
   12.2487  -15.5967   23.0395 C   0  0  0  0  0  0  0  0  0  0  0  0
   13.0587  -16.6681   23.6225 C   0  0  0  0  0  0  0  0  0  0  0  0
   12.4585  -17.7579   23.8843 O   0  0  0  0  0  0  0  0  0  0  0  0
   10.0137  -15.8682   24.0275 C   0  0  0  0  0  0  0  0  0  0  0  0
    8.9243  -15.0577   24.1963 O   0  0  0  0  0  0  0  0  0  0  0  0
   14.3971  -16.6128   23.9134 O   0  0  0  0  0  0  0  0  0  0  0  0
   10.3384  -16.5962   25.0252 O   0  0  0  0  0  0  0  0  0  0  0  0
  2  7  1  0
  2  1  1  6
  3  2  1  0
  4  5  1  0
  4  3  1  0
  5  9  1  0
  6  5  2  0
  7  8  2  0
 11 10  1  6
 12 11  1  0
 13 11  1  0
 14  7  1  0
 13 14  1  6
 15 13  1  0
 15 17  1  0
 16 15  2  0
 18 17  1  0
 18 19  1  1
 20 19  1  0
 20 21  2  0
 22 23  1  0
 22 18  1  0
 24 20  1  0
 25 22  2  0
M  END
$$$$
