ETD.pdb
     RDKit          3D

 25 24  0  0  1  0  0  0  0  0999 V2000
    8.2383  -19.3654   17.5551 N   0  0  0  0  0  0  0  0  0  0  0  0
    9.6431  -19.1531   17.7531 C   0  0  1  0  0  0  0  0  0  0  0  0
   10.3235  -18.8917   16.4562 C   0  0  0  0  0  0  0  0  0  0  0  0
    9.5520  -18.1134   15.4504 C   0  0  0  0  0  0  0  0  0  0  0  0
   10.2571  -17.8344   14.1868 C   0  0  0  0  0  0  0  0  0  0  0  0
    9.6242  -17.9134   13.1086 O   0  0  0  0  0  0  0  0  0  0  0  0
    9.8579  -18.0762   18.7516 C   0  0  0  0  0  0  0  0  0  0  0  0
   11.0195  -17.6702   19.0478 O   0  0  0  0  0  0  0  0  0  0  0  0
   11.5954  -17.4865   14.1323 O   0  0  0  0  0  0  0  0  0  0  0  0
    8.1630  -14.3655   21.4770 C   0  0  0  0  0  0  0  0  0  0  0  0
    7.8707  -15.3887   20.4107 C   0  0  1  0  0  0  0  0  0  0  0  0
    7.6886  -14.8393   19.1561 O   0  0  0  0  0  0  0  0  0  0  0  0
    8.9475  -16.4450   20.4477 C   0  0  2  0  0  0  0  0  0  0  0  0
    8.7778  -17.4484   19.4231 N   0  0  0  0  0  0  0  0  0  0  0  0
    9.1551  -17.0172   21.7860 C   0  0  0  0  0  0  0  0  0  0  0  0
    8.3427  -17.8306   22.2550 O   0  0  0  0  0  0  0  0  0  0  0  0
   10.2832  -16.6374   22.5362 N   0  0  0  0  0  0  0  0  0  0  0  0
   10.5768  -17.1753   23.8556 C   0  0  1  0  0  0  0  0  0  0  0  0
   11.8237  -17.9960   23.8769 C   0  0  0  0  0  0  0  0  0  0  0  0
   12.1996  -18.4999   25.1993 C   0  0  0  0  0  0  0  0  0  0  0  0
   13.2680  -18.0315   25.7049 O   0  0  0  0  0  0  0  0  0  0  0  0
   10.6004  -16.1032   24.8596 C   0  0  0  0  0  0  0  0  0  0  0  0
   10.3043  -16.2607   26.1862 O   0  0  0  0  0  0  0  0  0  0  0  0
   11.5155  -19.4247   25.9447 O   0  0  0  0  0  0  0  0  0  0  0  0
   10.9194  -14.9244   24.4863 O   0  0  0  0  0  0  0  0  0  0  0  0
  2  7  1  0
  2  1  1  6
  3  2  1  0
  4  5  1  0
  4  3  1  0
  5  9  1  0
  6  5  2  0
  7  8  2  0
 11 10  1  1
 12 11  1  0
 13 11  1  0
 14  7  1  0
 13 14  1  6
 15 13  1  0
 15 17  1  0
 16 15  2  0
 18 17  1  0
 18 19  1  6
 20 19  1  0
 20 21  2  0
 22 23  1  0
 22 18  1  0
 24 20  1  0
 25 22  2  0
M  END
$$$$
