ETD.pdb
     RDKit          3D

 25 24  0  0  1  0  0  0  0  0999 V2000
    8.2447  -14.0290   15.7394 N   0  0  0  0  0  0  0  0  0  0  0  0
    8.2986  -15.1320   16.6548 C   0  0  1  0  0  0  0  0  0  0  0  0
    9.0556  -16.2688   16.0649 C   0  0  0  0  0  0  0  0  0  0  0  0
   10.3603  -15.9365   15.4325 C   0  0  0  0  0  0  0  0  0  0  0  0
   11.0884  -17.0744   14.8439 C   0  0  0  0  0  0  0  0  0  0  0  0
   10.8661  -17.3853   13.6509 O   0  0  0  0  0  0  0  0  0  0  0  0
    8.8448  -14.6825   17.9596 C   0  0  0  0  0  0  0  0  0  0  0  0
    9.8997  -13.9867   18.0313 O   0  0  0  0  0  0  0  0  0  0  0  0
   12.0136  -17.8229   15.5503 O   0  0  0  0  0  0  0  0  0  0  0  0
    7.3802  -12.7415   20.8884 C   0  0  0  0  0  0  0  0  0  0  0  0
    7.7836  -14.0893   21.4272 C   0  0  1  0  0  0  0  0  0  0  0  0
    6.7108  -14.9157   21.7015 O   0  0  0  0  0  0  0  0  0  0  0  0
    8.7846  -14.7067   20.4819 C   0  0  2  0  0  0  0  0  0  0  0  0
    8.2163  -15.0074   19.1889 N   0  0  0  0  0  0  0  0  0  0  0  0
    9.5157  -15.8396   21.0679 C   0  0  0  0  0  0  0  0  0  0  0  0
    9.8350  -16.8126   20.3659 O   0  0  0  0  0  0  0  0  0  0  0  0
    9.8536  -15.8163   22.4335 N   0  0  0  0  0  0  0  0  0  0  0  0
   10.9293  -16.6160   22.9988 C   0  0  1  0  0  0  0  0  0  0  0  0
   12.2345  -16.3925   22.3094 C   0  0  0  0  0  0  0  0  0  0  0  0
   13.3618  -17.1294   22.8840 C   0  0  0  0  0  0  0  0  0  0  0  0
   14.1404  -16.4752   23.6471 O   0  0  0  0  0  0  0  0  0  0  0  0
   11.0245  -16.4064   24.4497 C   0  0  0  0  0  0  0  0  0  0  0  0
   10.2808  -15.5082   25.1655 O   0  0  0  0  0  0  0  0  0  0  0  0
   13.6604  -18.4517   22.6813 O   0  0  0  0  0  0  0  0  0  0  0  0
   11.8605  -17.1068   25.1139 O   0  0  0  0  0  0  0  0  0  0  0  0
  2  7  1  0
  2  1  1  6
  3  2  1  0
  4  5  1  0
  4  3  1  0
  5  9  1  0
  6  5  2  0
  7  8  2  0
 11 10  1  6
 12 11  1  0
 13 11  1  0
 14  7  1  0
 13 14  1  6
 15 13  1  0
 15 17  1  0
 16 15  2  0
 18 17  1  0
 18 19  1  6
 20 19  1  0
 20 21  2  0
 22 23  1  0
 22 18  1  0
 24 20  1  0
 25 22  2  0
M  END
$$$$
