ETD.pdb
     RDKit          3D

 25 24  0  0  1  0  0  0  0  0999 V2000
    8.5507  -15.1269   14.7938 N   0  0  0  0  0  0  0  0  0  0  0  0
    9.3351  -15.9969   15.6217 C   0  0  1  0  0  0  0  0  0  0  0  0
   10.4103  -16.6504   14.8278 C   0  0  0  0  0  0  0  0  0  0  0  0
   10.2537  -16.6155   13.3490 C   0  0  0  0  0  0  0  0  0  0  0  0
   11.3045  -17.3089   12.5830 C   0  0  0  0  0  0  0  0  0  0  0  0
   11.9688  -16.6615   11.7410 O   0  0  0  0  0  0  0  0  0  0  0  0
    9.8497  -15.2512   16.7972 C   0  0  0  0  0  0  0  0  0  0  0  0
   10.8344  -14.4618   16.7013 O   0  0  0  0  0  0  0  0  0  0  0  0
   11.5958  -18.6515   12.7494 O   0  0  0  0  0  0  0  0  0  0  0  0
    8.1846  -12.7961   18.8529 C   0  0  0  0  0  0  0  0  0  0  0  0
    8.6410  -13.8123   19.8670 C   0  0  1  0  0  0  0  0  0  0  0  0
    7.6077  -14.5560   20.4041 O   0  0  0  0  0  0  0  0  0  0  0  0
    9.7248  -14.6594   19.2468 C   0  0  2  0  0  0  0  0  0  0  0  0
    9.2677  -15.3834   18.0840 N   0  0  0  0  0  0  0  0  0  0  0  0
   10.4239  -15.5123   20.2190 C   0  0  0  0  0  0  0  0  0  0  0  0
   10.2632  -16.7434   20.2053 O   0  0  0  0  0  0  0  0  0  0  0  0
   11.2798  -14.9250   21.1689 N   0  0  0  0  0  0  0  0  0  0  0  0
   11.9463  -15.6858   22.2144 C   0  0  1  0  0  0  0  0  0  0  0  0
   13.1330  -14.9743   22.7749 C   0  0  0  0  0  0  0  0  0  0  0  0
   14.3728  -15.1682   22.0203 C   0  0  0  0  0  0  0  0  0  0  0  0
   14.3771  -16.1072   21.1631 O   0  0  0  0  0  0  0  0  0  0  0  0
   10.9911  -16.0802   23.2585 C   0  0  0  0  0  0  0  0  0  0  0  0
    9.6966  -15.6455   23.3456 O   0  0  0  0  0  0  0  0  0  0  0  0
   15.5269  -14.4394   22.1462 O   0  0  0  0  0  0  0  0  0  0  0  0
   11.3787  -16.8914   24.1654 O   0  0  0  0  0  0  0  0  0  0  0  0
  2  7  1  0
  2  1  1  6
  3  2  1  0
  4  5  1  0
  4  3  1  0
  5  9  1  0
  6  5  2  0
  7  8  2  0
 11 10  1  6
 12 11  1  0
 13 11  1  0
 14  7  1  0
 13 14  1  6
 15 13  1  0
 15 17  1  0
 16 15  2  0
 18 17  1  0
 18 19  1  1
 20 19  1  0
 20 21  2  0
 22 23  1  0
 22 18  1  0
 24 20  1  0
 25 22  2  0
M  END
$$$$
