ETD.pdb
     RDKit          3D

 25 24  0  0  1  0  0  0  0  0999 V2000
    9.4773  -15.9675   15.7666 N   0  0  0  0  0  0  0  0  0  0  0  0
    9.2740  -16.5275   17.0715 C   0  0  1  0  0  0  0  0  0  0  0  0
   10.1528  -17.7098   17.2793 C   0  0  0  0  0  0  0  0  0  0  0  0
   11.6097  -17.4951   17.0696 C   0  0  0  0  0  0  0  0  0  0  0  0
   12.4991  -18.2700   17.9528 C   0  0  0  0  0  0  0  0  0  0  0  0
   13.7379  -18.1965   17.7822 O   0  0  0  0  0  0  0  0  0  0  0  0
    9.4522  -15.4794   18.1071 C   0  0  0  0  0  0  0  0  0  0  0  0
   10.3619  -14.6044   18.0136 O   0  0  0  0  0  0  0  0  0  0  0  0
   12.0289  -19.0819   18.9701 O   0  0  0  0  0  0  0  0  0  0  0  0
    7.1041  -12.8125   19.2774 C   0  0  0  0  0  0  0  0  0  0  0  0
    7.4180  -13.6513   20.4888 C   0  0  1  0  0  0  0  0  0  0  0  0
    6.3885  -14.4972   20.8541 O   0  0  0  0  0  0  0  0  0  0  0  0
    8.7238  -14.3695   20.2527 C   0  0  2  0  0  0  0  0  0  0  0  0
    8.6165  -15.4036   19.2505 N   0  0  0  0  0  0  0  0  0  0  0  0
    9.3652  -14.8323   21.4921 C   0  0  0  0  0  0  0  0  0  0  0  0
    9.5514  -14.0465   22.4351 O   0  0  0  0  0  0  0  0  0  0  0  0
    9.7689  -16.1754   21.6054 N   0  0  0  0  0  0  0  0  0  0  0  0
   10.3670  -16.7254   22.8120 C   0  0  1  0  0  0  0  0  0  0  0  0
   10.0388  -18.1683   23.0095 C   0  0  0  0  0  0  0  0  0  0  0  0
   10.5632  -18.7492   24.2471 C   0  0  0  0  0  0  0  0  0  0  0  0
   11.2509  -19.8123   24.1307 O   0  0  0  0  0  0  0  0  0  0  0  0
   11.8146  -16.4771   22.8333 C   0  0  0  0  0  0  0  0  0  0  0  0
   12.4808  -15.7894   23.8108 O   0  0  0  0  0  0  0  0  0  0  0  0
   10.3867  -18.2617   25.5160 O   0  0  0  0  0  0  0  0  0  0  0  0
   12.5256  -16.9298   21.8740 O   0  0  0  0  0  0  0  0  0  0  0  0
  2  7  1  0
  2  1  1  6
  3  2  1  0
  4  5  1  0
  4  3  1  0
  5  9  1  0
  6  5  2  0
  7  8  2  0
 11 10  1  6
 12 11  1  0
 13 11  1  0
 14  7  1  0
 13 14  1  6
 15 13  1  0
 15 17  1  0
 16 15  2  0
 18 17  1  0
 18 19  1  6
 20 19  1  0
 20 21  2  0
 22 23  1  0
 22 18  1  0
 24 20  1  0
 25 22  2  0
M  END
$$$$
