ETD.pdb
     RDKit          3D

 25 24  0  0  1  0  0  0  0  0999 V2000
    7.7819  -18.8543   17.4348 N   0  0  0  0  0  0  0  0  0  0  0  0
    8.7212  -17.8098   17.7254 C   0  0  1  0  0  0  0  0  0  0  0  0
    8.0347  -16.6402   18.3372 C   0  0  0  0  0  0  0  0  0  0  0  0
    7.2611  -16.9039   19.5800 C   0  0  0  0  0  0  0  0  0  0  0  0
    6.5512  -15.7423   20.1442 C   0  0  0  0  0  0  0  0  0  0  0  0
    5.8100  -15.9093   21.1401 O   0  0  0  0  0  0  0  0  0  0  0  0
    9.8269  -18.3397   18.5617 C   0  0  0  0  0  0  0  0  0  0  0  0
    9.6657  -19.3465   19.3117 O   0  0  0  0  0  0  0  0  0  0  0  0
    6.6641  -14.4652   19.6233 O   0  0  0  0  0  0  0  0  0  0  0  0
   14.6222  -18.3149   19.7821 C   0  0  0  0  0  0  0  0  0  0  0  0
   13.5483  -17.7095   18.9163 C   0  0  1  0  0  0  0  0  0  0  0  0
   13.7566  -17.9042   17.5644 O   0  0  0  0  0  0  0  0  0  0  0  0
   12.2065  -18.2111   19.3906 C   0  0  2  0  0  0  0  0  0  0  0  0
   11.1162  -17.7487   18.5643 N   0  0  0  0  0  0  0  0  0  0  0  0
   11.9767  -17.9889   20.8256 C   0  0  0  0  0  0  0  0  0  0  0  0
   11.1338  -17.1608   21.2066 O   0  0  0  0  0  0  0  0  0  0  0  0
   12.7194  -18.7220   21.7694 N   0  0  0  0  0  0  0  0  0  0  0  0
   12.6520  -18.4709   23.2007 C   0  0  1  0  0  0  0  0  0  0  0  0
   11.5199  -19.1892   23.8573 C   0  0  0  0  0  0  0  0  0  0  0  0
   10.1925  -18.6675   23.5259 C   0  0  0  0  0  0  0  0  0  0  0  0
   10.1042  -17.4134   23.3367 O   0  0  0  0  0  0  0  0  0  0  0  0
   13.9414  -18.7643   23.8404 C   0  0  0  0  0  0  0  0  0  0  0  0
   15.0249  -19.3144   23.2112 O   0  0  0  0  0  0  0  0  0  0  0  0
    9.0379  -19.3955   23.3999 O   0  0  0  0  0  0  0  0  0  0  0  0
   14.0836  -18.4926   25.0800 O   0  0  0  0  0  0  0  0  0  0  0  0
  2  7  1  0
  2  1  1  1
  3  2  1  0
  4  5  1  0
  4  3  1  0
  5  9  1  0
  6  5  2  0
  7  8  2  0
 11 10  1  1
 12 11  1  0
 13 11  1  0
 14  7  1  0
 13 14  1  6
 15 13  1  0
 15 17  1  0
 16 15  2  0
 18 17  1  0
 18 19  1  1
 20 19  1  0
 20 21  2  0
 22 23  1  0
 22 18  1  0
 24 20  1  0
 25 22  2  0
M  END
$$$$
