RAG.pdb
     RDKit          3D

 21 20  0  0  1  0  0  0  0  0999 V2000
    6.9739  -16.1687   15.6474 N   0  0  0  0  0  0  0  0  0  0  0  0
    7.7700  -15.0204   15.3717 C   0  0  0  0  0  0  0  0  0  0  0  0
    8.6677  -15.1356   14.4572 N   0  0  0  0  0  0  0  0  0  0  0  0
    7.5498  -13.8270   16.0948 N   0  0  0  0  0  0  0  0  0  0  0  0
    7.9926  -13.7785   17.4743 C   0  0  0  0  0  0  0  0  0  0  0  0
    7.2089  -14.7273   18.3427 C   0  0  0  0  0  0  0  0  0  0  0  0
    7.8225  -14.7705   19.7047 C   0  0  0  0  0  0  0  0  0  0  0  0
    7.9695  -13.4231   20.3455 C   0  0  2  0  0  0  0  0  0  0  0  0
    8.8983  -12.5692   19.6783 N   0  0  0  0  0  0  0  0  0  0  0  0
    8.2826  -13.6338   21.7793 C   0  0  0  0  0  0  0  0  0  0  0  0
    9.4586  -13.9831   22.0604 O   0  0  0  0  0  0  0  0  0  0  0  0
    9.3185  -14.3512   14.2352 C   0  0  0  0  0  0  0  0  0  0  0  0
    6.6667  -13.2348   25.1653 C   0  0  1  0  0  0  0  0  0  0  0  0
    7.7285  -13.7055   24.1993 N   0  0  0  0  0  0  0  0  0  0  0  0
    7.3547  -13.4680   22.8227 C   0  0  0  0  0  0  0  0  0  0  0  0
    7.9065  -15.1640   24.4103 O   0  0  0  0  0  0  0  0  0  0  0  0
    7.1068  -15.9570   23.8597 N   0  0  0  0  0  0  0  0  0  0  0  0
    8.9444  -15.6996   25.2094 C   0  0  0  0  0  0  0  0  0  0  0  0
    9.0672  -17.1195   25.3477 C   0  0  0  0  0  0  0  0  0  0  0  0
   10.2146  -17.5234   26.1684 O   0  0  0  0  0  0  0  0  0  0  0  0
   11.0117  -16.6634   26.6096 O   0  0  0  0  0  0  0  0  0  0  0  0
  1  2  1  0
  2  3  2  0
  4  5  1  0
  4  2  1  0
  5  6  1  0
  6  7  1  0
  7  8  1  0
  8 10  1  0
  8  9  1  6
 10 11  2  0
 10 14  1  0
 13 12  1  1
 13 15  1  0
 14 13  1  0
 15 17  1  0
 15 16  2  0
 17 18  1  0
 18 19  1  0
 19 21  1  0
 20 19  2  0
M  END
$$$$
