RAG.pdb
     RDKit          3D

 21 20  0  0  1  0  0  0  0  0999 V2000
    5.0637  -18.0906   14.7507 N   0  0  0  0  0  0  0  0  0  0  0  0
    5.1164  -19.4897   15.0117 C   0  0  0  0  0  0  0  0  0  0  0  0
    4.1814  -20.2154   14.5072 N   0  0  0  0  0  0  0  0  0  0  0  0
    6.1674  -20.0156   15.7955 N   0  0  0  0  0  0  0  0  0  0  0  0
    7.0268  -19.0798   16.4932 C   0  0  0  0  0  0  0  0  0  0  0  0
    7.8674  -18.2773   15.5351 C   0  0  0  0  0  0  0  0  0  0  0  0
    8.7698  -17.3721   16.3096 C   0  0  0  0  0  0  0  0  0  0  0  0
    8.5431  -15.9150   16.0390 C   0  0  2  0  0  0  0  0  0  0  0  0
    9.0858  -15.4716   14.7958 N   0  0  0  0  0  0  0  0  0  0  0  0
    9.0420  -15.1529   17.2089 C   0  0  0  0  0  0  0  0  0  0  0  0
   10.2827  -15.1780   17.4183 O   0  0  0  0  0  0  0  0  0  0  0  0
    4.1190  -21.2366   14.7106 C   0  0  0  0  0  0  0  0  0  0  0  0
    7.7532  -12.8313   19.8925 C   0  0  1  0  0  0  0  0  0  0  0  0
    8.7755  -13.7137   19.2154 N   0  0  0  0  0  0  0  0  0  0  0  0
    8.2199  -14.4174   18.0809 C   0  0  0  0  0  0  0  0  0  0  0  0
    9.2440  -14.7021   20.2190 O   0  0  0  0  0  0  0  0  0  0  0  0
    8.5265  -15.6998   20.4662 N   0  0  0  0  0  0  0  0  0  0  0  0
   10.4708  -14.5656   20.9111 C   0  0  0  0  0  0  0  0  0  0  0  0
   10.9346  -15.6354   21.7423 C   0  0  0  0  0  0  0  0  0  0  0  0
   12.2674  -15.3930   22.3066 O   0  0  0  0  0  0  0  0  0  0  0  0
   12.9768  -14.4548   21.8750 O   0  0  0  0  0  0  0  0  0  0  0  0
  1  2  1  0
  2  3  2  0
  4  5  1  0
  4  2  1  0
  5  6  1  0
  6  7  1  0
  7  8  1  0
  8 10  1  0
  8  9  1  6
 10 11  2  0
 10 14  1  0
 13 12  1  6
 13 15  1  0
 14 13  1  0
 15 17  1  0
 15 16  2  0
 17 18  1  0
 18 19  1  0
 19 21  1  0
 20 19  2  0
M  END
$$$$
