RAG.pdb
     RDKit          3D

 21 20  0  0  1  0  0  0  0  0999 V2000
    6.9844  -12.7239   17.4209 N   0  0  0  0  0  0  0  0  0  0  0  0
    7.7432  -13.6653   18.1735 C   0  0  0  0  0  0  0  0  0  0  0  0
    7.6426  -14.9027   17.8359 N   0  0  0  0  0  0  0  0  0  0  0  0
    8.5581  -13.2163   19.2365 N   0  0  0  0  0  0  0  0  0  0  0  0
    9.4003  -14.1897   19.9033 C   0  0  0  0  0  0  0  0  0  0  0  0
    8.6344  -14.9692   20.9397 C   0  0  0  0  0  0  0  0  0  0  0  0
    9.3443  -14.8754   22.2515 C   0  0  0  0  0  0  0  0  0  0  0  0
    9.0466  -16.0114   23.1836 C   0  0  2  0  0  0  0  0  0  0  0  0
    7.6529  -16.2786   23.3348 N   0  0  0  0  0  0  0  0  0  0  0  0
    9.7405  -15.7407   24.4655 C   0  0  0  0  0  0  0  0  0  0  0  0
   10.9877  -15.5796   24.4154 O   0  0  0  0  0  0  0  0  0  0  0  0
    8.1655  -15.6475   18.3459 C   0  0  0  0  0  0  0  0  0  0  0  0
    9.2201  -14.4707   27.8547 C   0  0  2  0  0  0  0  0  0  0  0  0
    9.8467  -15.4919   26.9344 N   0  0  0  0  0  0  0  0  0  0  0  0
    9.0934  -15.6557   25.7110 C   0  0  0  0  0  0  0  0  0  0  0  0
    9.8798  -16.7852   27.6622 O   0  0  0  0  0  0  0  0  0  0  0  0
    8.8588  -17.5124   27.6502 N   0  0  0  0  0  0  0  0  0  0  0  0
   11.0191  -17.2340   28.3716 C   0  0  0  0  0  0  0  0  0  0  0  0
   11.0171  -18.5418   28.9548 C   0  0  0  0  0  0  0  0  0  0  0  0
   11.3566  -18.5387   30.3824 O   0  0  0  0  0  0  0  0  0  0  0  0
   11.6393  -17.4656   30.9638 O   0  0  0  0  0  0  0  0  0  0  0  0
  1  2  1  0
  2  3  2  0
  4  5  1  0
  4  2  1  0
  5  6  1  0
  6  7  1  0
  7  8  1  0
  8 10  1  0
  8  9  1  1
 10 11  2  0
 10 14  1  0
 13 12  1  6
 13 15  1  0
 14 13  1  0
 15 17  1  0
 15 16  2  0
 17 18  1  0
 18 19  1  0
 19 21  1  0
 20 19  2  0
M  END
$$$$
