RAG.pdb
     RDKit          3D

 21 20  0  0  1  0  0  0  0  0999 V2000
    8.6694  -15.2063   16.5715 N   0  0  0  0  0  0  0  0  0  0  0  0
    8.7013  -14.1436   17.5191 C   0  0  0  0  0  0  0  0  0  0  0  0
    7.8326  -13.2052   17.3764 N   0  0  0  0  0  0  0  0  0  0  0  0
    9.6617  -14.1589   18.5548 N   0  0  0  0  0  0  0  0  0  0  0  0
    9.4202  -15.0263   19.6909 C   0  0  0  0  0  0  0  0  0  0  0  0
    8.3645  -14.4626   20.6053 C   0  0  0  0  0  0  0  0  0  0  0  0
    8.1833  -15.3780   21.7727 C   0  0  0  0  0  0  0  0  0  0  0  0
    7.0367  -15.0036   22.6632 C   0  0  2  0  0  0  0  0  0  0  0  0
    5.9132  -14.4749   21.9596 N   0  0  0  0  0  0  0  0  0  0  0  0
    7.5563  -14.0981   23.7160 C   0  0  0  0  0  0  0  0  0  0  0  0
    8.6338  -13.4964   23.4692 O   0  0  0  0  0  0  0  0  0  0  0  0
    7.8321  -12.3685   17.9992 C   0  0  0  0  0  0  0  0  0  0  0  0
    6.3586  -12.1213   26.5670 C   0  0  2  0  0  0  0  0  0  0  0  0
    7.4510  -12.9268   25.9036 N   0  0  0  0  0  0  0  0  0  0  0  0
    6.9227  -13.8790   24.9521 C   0  0  0  0  0  0  0  0  0  0  0  0
    8.1755  -13.6586   26.9728 O   0  0  0  0  0  0  0  0  0  0  0  0
    8.7057  -13.0043   27.9013 N   0  0  0  0  0  0  0  0  0  0  0  0
    8.2937  -15.0687   26.9886 C   0  0  0  0  0  0  0  0  0  0  0  0
    8.9747  -15.7074   28.0743 C   0  0  0  0  0  0  0  0  0  0  0  0
   10.3244  -16.1631   27.7221 O   0  0  0  0  0  0  0  0  0  0  0  0
   10.7921  -15.9364   26.5821 O   0  0  0  0  0  0  0  0  0  0  0  0
  1  2  1  0
  2  3  2  0
  4  5  1  0
  4  2  1  0
  5  6  1  0
  6  7  1  0
  7  8  1  0
  8 10  1  0
  8  9  1  6
 10 11  2  0
 10 14  1  0
 13 12  1  6
 13 15  1  0
 14 13  1  0
 15 17  1  0
 15 16  2  0
 17 18  1  0
 18 19  1  0
 19 21  1  0
 20 19  2  0
M  END
$$$$
