RAG.pdb
     RDKit          3D

 21 20  0  0  1  0  0  0  0  0999 V2000
    9.4271  -19.7475   27.7849 N   0  0  0  0  0  0  0  0  0  0  0  0
    8.1599  -20.2814   28.1559 C   0  0  0  0  0  0  0  0  0  0  0  0
    8.0481  -20.7500   29.3490 N   0  0  0  0  0  0  0  0  0  0  0  0
    7.0990  -20.2767   27.2232 N   0  0  0  0  0  0  0  0  0  0  0  0
    7.3835  -19.8271   25.8748 C   0  0  0  0  0  0  0  0  0  0  0  0
    6.1605  -19.8920   24.9981 C   0  0  0  0  0  0  0  0  0  0  0  0
    6.5436  -19.5615   23.5919 C   0  0  0  0  0  0  0  0  0  0  0  0
    5.7720  -18.4166   23.0074 C   0  0  2  0  0  0  0  0  0  0  0  0
    5.0559  -18.7545   21.8201 N   0  0  0  0  0  0  0  0  0  0  0  0
    6.7085  -17.2807   22.8316 C   0  0  0  0  0  0  0  0  0  0  0  0
    7.5908  -17.4020   21.9423 O   0  0  0  0  0  0  0  0  0  0  0  0
    7.1618  -21.1920   29.6764 C   0  0  0  0  0  0  0  0  0  0  0  0
    7.2631  -13.7668   24.0663 C   0  0  1  0  0  0  0  0  0  0  0  0
    7.6793  -15.0771   23.4401 N   0  0  0  0  0  0  0  0  0  0  0  0
    6.6656  -16.0973   23.5899 C   0  0  0  0  0  0  0  0  0  0  0  0
    8.9208  -15.5212   24.1220 O   0  0  0  0  0  0  0  0  0  0  0  0
    8.8747  -15.7961   25.3441 N   0  0  0  0  0  0  0  0  0  0  0  0
   10.1590  -15.6481   23.4486 C   0  0  0  0  0  0  0  0  0  0  0  0
   11.3258  -16.0333   24.1840 C   0  0  0  0  0  0  0  0  0  0  0  0
   12.5355  -16.0991   23.3559 O   0  0  0  0  0  0  0  0  0  0  0  0
   12.4467  -16.1370   22.1068 O   0  0  0  0  0  0  0  0  0  0  0  0
  1  2  1  0
  2  3  2  0
  4  5  1  0
  4  2  1  0
  5  6  1  0
  6  7  1  0
  7  8  1  0
  8 10  1  0
  8  9  1  6
 10 11  2  0
 10 14  1  0
 13 12  1  6
 13 15  1  0
 14 13  1  0
 15 17  1  0
 15 16  2  0
 17 18  1  0
 18 19  1  0
 19 21  1  0
 20 19  2  0
M  END
$$$$
