RAG.pdb
     RDKit          3D

 21 20  0  0  1  0  0  0  0  0999 V2000
    8.2481  -16.0848   13.9971 N   0  0  0  0  0  0  0  0  0  0  0  0
    8.1323  -16.0286   15.4155 C   0  0  0  0  0  0  0  0  0  0  0  0
    6.9829  -15.7088   15.8973 N   0  0  0  0  0  0  0  0  0  0  0  0
    9.2560  -16.3189   16.2208 N   0  0  0  0  0  0  0  0  0  0  0  0
    9.0861  -16.2840   17.6600 C   0  0  0  0  0  0  0  0  0  0  0  0
    8.5923  -14.9405   18.1284 C   0  0  0  0  0  0  0  0  0  0  0  0
    8.3752  -14.9827   19.6065 C   0  0  0  0  0  0  0  0  0  0  0  0
    7.8690  -13.6937   20.1810 C   0  0  2  0  0  0  0  0  0  0  0  0
    8.3615  -12.5344   19.5101 N   0  0  0  0  0  0  0  0  0  0  0  0
    8.1539  -13.7023   21.6360 C   0  0  0  0  0  0  0  0  0  0  0  0
    9.3592  -13.5928   21.9813 O   0  0  0  0  0  0  0  0  0  0  0  0
    6.7814  -15.7909   16.9174 C   0  0  0  0  0  0  0  0  0  0  0  0
    6.3193  -13.4616   24.9046 C   0  0  1  0  0  0  0  0  0  0  0  0
    7.5161  -13.7694   24.0354 N   0  0  0  0  0  0  0  0  0  0  0  0
    7.1693  -13.8237   22.6326 C   0  0  0  0  0  0  0  0  0  0  0  0
    8.0439  -15.0911   24.4575 O   0  0  0  0  0  0  0  0  0  0  0  0
    7.5750  -16.1266   23.9291 N   0  0  0  0  0  0  0  0  0  0  0  0
    9.0577  -15.2324   25.4347 C   0  0  0  0  0  0  0  0  0  0  0  0
    9.5205  -16.5409   25.7869 C   0  0  0  0  0  0  0  0  0  0  0  0
   10.7040  -16.9597   25.0269 O   0  0  0  0  0  0  0  0  0  0  0  0
   10.6408  -17.1012   23.7837 O   0  0  0  0  0  0  0  0  0  0  0  0
  1  2  1  0
  2  3  2  0
  4  5  1  0
  4  2  1  0
  5  6  1  0
  6  7  1  0
  7  8  1  0
  8 10  1  0
  8  9  1  6
 10 11  2  0
 10 14  1  0
 13 12  1  6
 13 15  1  0
 14 13  1  0
 15 17  1  0
 15 16  2  0
 17 18  1  0
 18 19  1  0
 19 21  1  0
 20 19  2  0
M  END
$$$$
