RAG.pdb
     RDKit          3D

 21 20  0  0  1  0  0  0  0  0999 V2000
    6.3089  -18.5137   15.7786 N   0  0  0  0  0  0  0  0  0  0  0  0
    6.7903  -18.0636   14.5160 C   0  0  0  0  0  0  0  0  0  0  0  0
    6.0883  -18.3636   13.4804 N   0  0  0  0  0  0  0  0  0  0  0  0
    7.9912  -17.3227   14.4494 N   0  0  0  0  0  0  0  0  0  0  0  0
    8.5864  -16.8824   15.6957 C   0  0  0  0  0  0  0  0  0  0  0  0
    7.8109  -15.7472   16.3108 C   0  0  0  0  0  0  0  0  0  0  0  0
    8.4439  -15.3639   17.6092 C   0  0  0  0  0  0  0  0  0  0  0  0
    7.8053  -14.1777   18.2672 C   0  0  2  0  0  0  0  0  0  0  0  0
    7.8925  -12.9792   17.4972 N   0  0  0  0  0  0  0  0  0  0  0  0
    8.3784  -14.0504   19.6286 C   0  0  0  0  0  0  0  0  0  0  0  0
    9.6003  -13.7594   19.7076 O   0  0  0  0  0  0  0  0  0  0  0  0
    6.3823  -18.0708   12.5234 C   0  0  0  0  0  0  0  0  0  0  0  0
    7.2624  -13.7459   23.1873 C   0  0  1  0  0  0  0  0  0  0  0  0
    8.2682  -14.0768   22.1097 N   0  0  0  0  0  0  0  0  0  0  0  0
    7.6450  -14.2336   20.8143 C   0  0  0  0  0  0  0  0  0  0  0  0
    8.9249  -15.3523   22.4911 O   0  0  0  0  0  0  0  0  0  0  0  0
    8.2667  -16.4167   22.4197 N   0  0  0  0  0  0  0  0  0  0  0  0
   10.2675  -15.4181   22.9334 C   0  0  0  0  0  0  0  0  0  0  0  0
   10.8322  -16.6853   23.2880 C   0  0  0  0  0  0  0  0  0  0  0  0
   12.1960  -16.5821   23.8198 O   0  0  0  0  0  0  0  0  0  0  0  0
   12.7832  -15.4757   23.8469 O   0  0  0  0  0  0  0  0  0  0  0  0
  1  2  1  0
  2  3  2  0
  4  5  1  0
  4  2  1  0
  5  6  1  0
  6  7  1  0
  7  8  1  0
  8 10  1  0
  8  9  1  6
 10 11  2  0
 10 14  1  0
 13 12  1  6
 13 15  1  0
 14 13  1  0
 15 17  1  0
 15 16  2  0
 17 18  1  0
 18 19  1  0
 19 21  1  0
 20 19  2  0
M  END
$$$$
