RAG.pdb
     RDKit          3D

 21 20  0  0  1  0  0  0  0  0999 V2000
    6.0011  -20.4449   14.5531 N   0  0  0  0  0  0  0  0  0  0  0  0
    7.3668  -20.8322   14.4386 C   0  0  0  0  0  0  0  0  0  0  0  0
    7.6596  -21.6820   13.5180 N   0  0  0  0  0  0  0  0  0  0  0  0
    8.3256  -20.2826   15.3185 N   0  0  0  0  0  0  0  0  0  0  0  0
    7.8682  -19.3295   16.3102 C   0  0  0  0  0  0  0  0  0  0  0  0
    8.1488  -17.9111   15.8882 C   0  0  0  0  0  0  0  0  0  0  0  0
    7.6579  -16.9757   16.9453 C   0  0  0  0  0  0  0  0  0  0  0  0
    7.8057  -15.5272   16.5880 C   0  0  2  0  0  0  0  0  0  0  0  0
    8.4864  -15.3079   15.3529 N   0  0  0  0  0  0  0  0  0  0  0  0
    8.4324  -14.8368   17.7407 C   0  0  0  0  0  0  0  0  0  0  0  0
    9.6860  -14.9026   17.8315 O   0  0  0  0  0  0  0  0  0  0  0  0
    8.6354  -22.0280   13.3907 C   0  0  0  0  0  0  0  0  0  0  0  0
    7.4876  -12.5682   20.6006 C   0  0  1  0  0  0  0  0  0  0  0  0
    8.3926  -13.5075   19.8383 N   0  0  0  0  0  0  0  0  0  0  0  0
    7.7161  -14.1258   18.7198 C   0  0  0  0  0  0  0  0  0  0  0  0
    8.8350  -14.5633   20.7833 O   0  0  0  0  0  0  0  0  0  0  0  0
    8.3565  -15.7163   20.6693 N   0  0  0  0  0  0  0  0  0  0  0  0
    9.7775  -14.3229   21.8112 C   0  0  0  0  0  0  0  0  0  0  0  0
   10.8854  -15.2151   21.9753 C   0  0  0  0  0  0  0  0  0  0  0  0
   10.7328  -16.1223   23.1187 O   0  0  0  0  0  0  0  0  0  0  0  0
    9.6596  -16.1524   23.7643 O   0  0  0  0  0  0  0  0  0  0  0  0
  1  2  1  0
  2  3  2  0
  4  5  1  0
  4  2  1  0
  5  6  1  0
  6  7  1  0
  7  8  1  0
  8 10  1  0
  8  9  1  6
 10 11  2  0
 10 14  1  0
 13 12  1  6
 13 15  1  0
 14 13  1  0
 15 17  1  0
 15 16  2  0
 17 18  1  0
 18 19  1  0
 19 21  1  0
 20 19  2  0
M  END
$$$$
