RAG.pdb
     RDKit          3D

 21 20  0  0  1  0  0  0  0  0999 V2000
   13.4978  -16.8632   19.3047 N   0  0  0  0  0  0  0  0  0  0  0  0
   13.2274  -15.6750   18.5675 C   0  0  0  0  0  0  0  0  0  0  0  0
   13.7635  -14.5859   18.9942 N   0  0  0  0  0  0  0  0  0  0  0  0
   12.4009  -15.7349   17.4235 N   0  0  0  0  0  0  0  0  0  0  0  0
   10.9749  -15.8999   17.6249 C   0  0  0  0  0  0  0  0  0  0  0  0
   10.3742  -14.7167   18.3376 C   0  0  0  0  0  0  0  0  0  0  0  0
    8.9010  -14.9232   18.4810 C   0  0  0  0  0  0  0  0  0  0  0  0
    8.1952  -13.7924   19.1674 C   0  0  2  0  0  0  0  0  0  0  0  0
    8.4330  -12.5196   18.5672 N   0  0  0  0  0  0  0  0  0  0  0  0
    8.5477  -13.8440   20.6066 C   0  0  0  0  0  0  0  0  0  0  0  0
    9.6342  -13.3076   20.9468 O   0  0  0  0  0  0  0  0  0  0  0  0
   13.6061  -13.6775   18.5063 C   0  0  0  0  0  0  0  0  0  0  0  0
    6.9245  -14.6870   23.8913 C   0  0  1  0  0  0  0  0  0  0  0  0
    8.0936  -14.3521   22.9949 N   0  0  0  0  0  0  0  0  0  0  0  0
    7.7492  -14.4483   21.5938 C   0  0  0  0  0  0  0  0  0  0  0  0
    9.1772  -15.3206   23.2971 O   0  0  0  0  0  0  0  0  0  0  0  0
    9.2959  -16.3397   22.5768 N   0  0  0  0  0  0  0  0  0  0  0  0
   10.0853  -15.1419   24.3676 C   0  0  0  0  0  0  0  0  0  0  0  0
   11.1217  -16.1064   24.5820 C   0  0  0  0  0  0  0  0  0  0  0  0
   10.7803  -17.1048   25.6019 O   0  0  0  0  0  0  0  0  0  0  0  0
    9.5860  -17.4307   25.7944 O   0  0  0  0  0  0  0  0  0  0  0  0
  1  2  1  0
  2  3  2  0
  4  5  1  0
  4  2  1  0
  5  6  1  0
  6  7  1  0
  7  8  1  0
  8 10  1  0
  8  9  1  6
 10 11  2  0
 10 14  1  0
 13 12  1  1
 13 15  1  0
 14 13  1  0
 15 17  1  0
 15 16  2  0
 17 18  1  0
 18 19  1  0
 19 21  1  0
 20 19  2  0
M  END
$$$$
