RAG.pdb
     RDKit          3D

 21 20  0  0  1  0  0  0  0  0999 V2000
    0.5090  -20.1580   23.5126 N   0  0  0  0  0  0  0  0  0  0  0  0
    1.0296  -20.6437   22.2791 C   0  0  0  0  0  0  0  0  0  0  0  0
    1.2120  -21.9135   22.1797 N   0  0  0  0  0  0  0  0  0  0  0  0
    1.3190  -19.7358   21.2364 N   0  0  0  0  0  0  0  0  0  0  0  0
    2.2667  -18.6726   21.5065 C   0  0  0  0  0  0  0  0  0  0  0  0
    3.6803  -19.1005   21.2115 C   0  0  0  0  0  0  0  0  0  0  0  0
    4.6034  -17.9490   21.4463 C   0  0  0  0  0  0  0  0  0  0  0  0
    5.3671  -17.5268   20.2271 C   0  0  2  0  0  0  0  0  0  0  0  0
    5.6939  -18.6066   19.3530 N   0  0  0  0  0  0  0  0  0  0  0  0
    6.5474  -16.7505   20.6769 C   0  0  0  0  0  0  0  0  0  0  0  0
    7.6062  -17.3962   20.8914 O   0  0  0  0  0  0  0  0  0  0  0  0
    1.5932  -22.3392   21.3070 C   0  0  0  0  0  0  0  0  0  0  0  0
    7.5378  -13.1713   21.3779 C   0  0  1  0  0  0  0  0  0  0  0  0
    7.7392  -14.6673   21.3159 N   0  0  0  0  0  0  0  0  0  0  0  0
    6.5485  -15.3580   20.8731 C   0  0  0  0  0  0  0  0  0  0  0  0
    8.0873  -15.1261   22.6841 O   0  0  0  0  0  0  0  0  0  0  0  0
    7.1775  -15.2163   23.5417 N   0  0  0  0  0  0  0  0  0  0  0  0
    9.4074  -15.4673   23.0630 C   0  0  0  0  0  0  0  0  0  0  0  0
    9.6725  -15.8703   24.4112 C   0  0  0  0  0  0  0  0  0  0  0  0
   11.0937  -16.1306   24.6680 O   0  0  0  0  0  0  0  0  0  0  0  0
   11.9352  -16.0148   23.7471 O   0  0  0  0  0  0  0  0  0  0  0  0
  1  2  1  0
  2  3  2  0
  4  5  1  0
  4  2  1  0
  5  6  1  0
  6  7  1  0
  7  8  1  0
  8 10  1  0
  8  9  1  1
 10 11  2  0
 10 14  1  0
 13 12  1  6
 13 15  1  0
 14 13  1  0
 15 17  1  0
 15 16  2  0
 17 18  1  0
 18 19  1  0
 19 21  1  0
 20 19  2  0
M  END
$$$$
