RAG.pdb
     RDKit          3D

 21 20  0  0  1  0  0  0  0  0999 V2000
    3.0408  -23.7081   25.2008 N   0  0  0  0  0  0  0  0  0  0  0  0
    4.4400  -23.9043   25.3795 C   0  0  0  0  0  0  0  0  0  0  0  0
    4.8044  -24.9169   26.0847 N   0  0  0  0  0  0  0  0  0  0  0  0
    5.3534  -23.0019   24.7904 N   0  0  0  0  0  0  0  0  0  0  0  0
    4.8269  -21.7726   24.2311 C   0  0  0  0  0  0  0  0  0  0  0  0
    5.9173  -20.9233   23.6324 C   0  0  0  0  0  0  0  0  0  0  0  0
    5.3255  -19.6504   23.1195 C   0  0  0  0  0  0  0  0  0  0  0  0
    6.3178  -18.7486   22.4487 C   0  0  2  0  0  0  0  0  0  0  0  0
    7.0839  -19.3945   21.4324 N   0  0  0  0  0  0  0  0  0  0  0  0
    7.1459  -18.1191   23.5051 C   0  0  0  0  0  0  0  0  0  0  0  0
    8.3280  -18.5340   23.6254 O   0  0  0  0  0  0  0  0  0  0  0  0
    5.8085  -25.0864   26.3106 C   0  0  0  0  0  0  0  0  0  0  0  0
    7.0195  -15.1925   25.8668 C   0  0  1  0  0  0  0  0  0  0  0  0
    7.5756  -16.4908   25.3306 N   0  0  0  0  0  0  0  0  0  0  0  0
    6.6913  -17.1028   24.3640 C   0  0  0  0  0  0  0  0  0  0  0  0
    7.7478  -17.4104   26.4830 O   0  0  0  0  0  0  0  0  0  0  0  0
    8.4925  -17.0618   27.4292 N   0  0  0  0  0  0  0  0  0  0  0  0
    7.1047  -18.6686   26.5594 C   0  0  0  0  0  0  0  0  0  0  0  0
    7.0903  -19.3792   27.8025 C   0  0  0  0  0  0  0  0  0  0  0  0
    8.3172  -20.1474   28.0436 O   0  0  0  0  0  0  0  0  0  0  0  0
    9.3015  -20.0254   27.2782 O   0  0  0  0  0  0  0  0  0  0  0  0
  1  2  1  0
  2  3  2  0
  4  5  1  0
  4  2  1  0
  5  6  1  0
  6  7  1  0
  7  8  1  0
  8 10  1  0
  8  9  1  6
 10 11  2  0
 10 14  1  0
 13 12  1  6
 13 15  1  0
 14 13  1  0
 15 17  1  0
 15 16  2  0
 17 18  1  0
 18 19  1  0
 19 21  1  0
 20 19  2  0
M  END
$$$$
