RAG.pdb
     RDKit          3D

 21 20  0  0  1  0  0  0  0  0999 V2000
    9.7707  -19.4068   19.7525 N   0  0  0  0  0  0  0  0  0  0  0  0
    9.2286  -19.6644   21.0441 C   0  0  0  0  0  0  0  0  0  0  0  0
    8.2355  -20.4797   21.1107 N   0  0  0  0  0  0  0  0  0  0  0  0
    9.7877  -19.0307   22.1761 N   0  0  0  0  0  0  0  0  0  0  0  0
   10.0201  -17.6016   22.1075 C   0  0  0  0  0  0  0  0  0  0  0  0
    8.7280  -16.8277   22.1193 C   0  0  0  0  0  0  0  0  0  0  0  0
    9.0297  -15.3649   22.1723 C   0  0  0  0  0  0  0  0  0  0  0  0
    7.8131  -14.5008   22.3174 C   0  0  2  0  0  0  0  0  0  0  0  0
    7.5001  -13.7500   21.1447 N   0  0  0  0  0  0  0  0  0  0  0  0
    7.9930  -13.6628   23.5272 C   0  0  0  0  0  0  0  0  0  0  0  0
    8.9185  -12.8103   23.4974 O   0  0  0  0  0  0  0  0  0  0  0  0
    7.8023  -20.7320   22.0255 C   0  0  0  0  0  0  0  0  0  0  0  0
    6.1860  -12.2654   26.3374 C   0  0  1  0  0  0  0  0  0  0  0  0
    7.4480  -12.9276   25.8360 N   0  0  0  0  0  0  0  0  0  0  0  0
    7.2009  -13.7664   24.6844 C   0  0  0  0  0  0  0  0  0  0  0  0
    7.9807  -13.7633   26.9412 O   0  0  0  0  0  0  0  0  0  0  0  0
    7.4714  -14.8900   27.1473 N   0  0  0  0  0  0  0  0  0  0  0  0
    9.0430  -13.3406   27.7752 C   0  0  0  0  0  0  0  0  0  0  0  0
    9.3991  -14.1274   28.9174 C   0  0  0  0  0  0  0  0  0  0  0  0
   10.3368  -15.2115   28.6031 O   0  0  0  0  0  0  0  0  0  0  0  0
   10.6988  -15.4129   27.4208 O   0  0  0  0  0  0  0  0  0  0  0  0
  1  2  1  0
  2  3  2  0
  4  5  1  0
  4  2  1  0
  5  6  1  0
  6  7  1  0
  7  8  1  0
  8 10  1  0
  8  9  1  6
 10 11  2  0
 10 14  1  0
 13 12  1  6
 13 15  1  0
 14 13  1  0
 15 17  1  0
 15 16  2  0
 17 18  1  0
 18 19  1  0
 19 21  1  0
 20 19  2  0
M  END
$$$$
