RAG.pdb
     RDKit          3D

 21 20  0  0  1  0  0  0  0  0999 V2000
    8.9771  -14.9281   16.7082 N   0  0  0  0  0  0  0  0  0  0  0  0
    8.2362  -13.7665   16.3475 C   0  0  0  0  0  0  0  0  0  0  0  0
    7.8872  -13.6538   15.1143 N   0  0  0  0  0  0  0  0  0  0  0  0
    7.9199  -12.8050   17.3329 N   0  0  0  0  0  0  0  0  0  0  0  0
    8.2208  -13.1254   18.7142 C   0  0  0  0  0  0  0  0  0  0  0  0
    7.8950  -14.5604   19.0351 C   0  0  0  0  0  0  0  0  0  0  0  0
    8.2548  -14.8415   20.4582 C   0  0  0  0  0  0  0  0  0  0  0  0
    8.0130  -16.2614   20.8746 C   0  0  2  0  0  0  0  0  0  0  0  0
    6.6931  -16.4989   21.3624 N   0  0  0  0  0  0  0  0  0  0  0  0
    9.0770  -16.6403   21.8352 C   0  0  0  0  0  0  0  0  0  0  0  0
    8.9985  -16.1540   22.9934 O   0  0  0  0  0  0  0  0  0  0  0  0
    7.4463  -12.7798   14.7539 C   0  0  0  0  0  0  0  0  0  0  0  0
   11.8098  -19.1271   22.3035 C   0  0  1  0  0  0  0  0  0  0  0  0
   11.1936  -17.7607   22.4930 N   0  0  0  0  0  0  0  0  0  0  0  0
   10.1489  -17.4972   21.5286 C   0  0  0  0  0  0  0  0  0  0  0  0
   12.2752  -16.7581   22.3246 O   0  0  0  0  0  0  0  0  0  0  0  0
   12.1355  -15.8560   21.4654 N   0  0  0  0  0  0  0  0  0  0  0  0
   13.4618  -16.7771   23.0955 C   0  0  0  0  0  0  0  0  0  0  0  0
   14.4278  -15.7333   22.9295 C   0  0  0  0  0  0  0  0  0  0  0  0
   15.5845  -15.8686   23.8223 O   0  0  0  0  0  0  0  0  0  0  0  0
   15.6340  -16.8009   24.6578 O   0  0  0  0  0  0  0  0  0  0  0  0
  1  2  1  0
  2  3  2  0
  4  5  1  0
  4  2  1  0
  5  6  1  0
  6  7  1  0
  7  8  1  0
  8 10  1  0
  8  9  1  1
 10 11  2  0
 10 14  1  0
 13 12  1  1
 13 15  1  0
 14 13  1  0
 15 17  1  0
 15 16  2  0
 17 18  1  0
 18 19  1  0
 19 21  1  0
 20 19  2  0
M  END
$$$$
