RAG.pdb
     RDKit          3D

 21 20  0  0  1  0  0  0  0  0999 V2000
    8.1369  -11.5363   19.9292 N   0  0  0  0  0  0  0  0  0  0  0  0
    8.9310  -12.7139   20.0346 C   0  0  0  0  0  0  0  0  0  0  0  0
   10.0923  -12.6889   19.4812 N   0  0  0  0  0  0  0  0  0  0  0  0
    8.4265  -13.8378   20.7258 N   0  0  0  0  0  0  0  0  0  0  0  0
    7.8080  -14.8919   19.9463 C   0  0  0  0  0  0  0  0  0  0  0  0
    6.8640  -15.7180   20.7798 C   0  0  0  0  0  0  0  0  0  0  0  0
    7.6373  -16.7760   21.4983 C   0  0  0  0  0  0  0  0  0  0  0  0
    8.0589  -17.9176   20.6226 C   0  0  2  0  0  0  0  0  0  0  0  0
    6.9662  -18.6287   20.0420 N   0  0  0  0  0  0  0  0  0  0  0  0
    8.9755  -18.7783   21.4084 C   0  0  0  0  0  0  0  0  0  0  0  0
    8.4473  -19.6679   22.1252 O   0  0  0  0  0  0  0  0  0  0  0  0
   10.7031  -13.5344   19.4656 C   0  0  0  0  0  0  0  0  0  0  0  0
   12.6602  -19.4695   21.7706 C   0  0  1  0  0  0  0  0  0  0  0  0
   11.2087  -19.5397   22.1837 N   0  0  0  0  0  0  0  0  0  0  0  0
   10.3763  -18.6571   21.3969 C   0  0  0  0  0  0  0  0  0  0  0  0
   11.1326  -19.1367   23.6104 O   0  0  0  0  0  0  0  0  0  0  0  0
   10.9594  -17.9268   23.8888 N   0  0  0  0  0  0  0  0  0  0  0  0
   11.2475  -20.0635   24.6736 C   0  0  0  0  0  0  0  0  0  0  0  0
   11.0642  -19.6170   26.0216 C   0  0  0  0  0  0  0  0  0  0  0  0
   12.3273  -19.4195   26.7421 O   0  0  0  0  0  0  0  0  0  0  0  0
   13.4118  -19.3694   26.1169 O   0  0  0  0  0  0  0  0  0  0  0  0
  1  2  1  0
  2  3  2  0
  4  5  1  0
  4  2  1  0
  5  6  1  0
  6  7  1  0
  7  8  1  0
  8 10  1  0
  8  9  1  1
 10 11  2  0
 10 14  1  0
 13 12  1  6
 13 15  1  0
 14 13  1  0
 15 17  1  0
 15 16  2  0
 17 18  1  0
 18 19  1  0
 19 21  1  0
 20 19  2  0
M  END
$$$$
