YAR.pdb
     RDKit          3D

 29 29  0  0  1  0  0  0  0  0999 V2000
   28.5100  -20.3069   -6.3073 O   0  0  0  0  0  0  0  0  0  0  0  0
   28.0846  -20.5481   -7.6098 C   0  0  0  0  0  0  0  0  0  0  0  0
   26.8465  -20.1427   -8.0572 C   0  0  0  0  0  0  0  0  0  0  0  0
   26.4127  -20.3807   -9.3616 C   0  0  0  0  0  0  0  0  0  0  0  0
   27.2317  -21.0409  -10.2502 C   0  0  0  0  0  0  0  0  0  0  0  0
   26.7719  -21.2948  -11.6578 C   0  0  0  0  0  0  0  0  0  0  0  0
   27.7234  -20.5576  -12.5668 C   0  0  2  0  0  0  0  0  0  0  0  0
   27.8688  -19.1877  -12.1857 N   0  0  0  0  0  0  0  0  0  0  0  0
   27.4034  -20.7243  -14.0073 C   0  0  0  0  0  0  0  0  0  0  0  0
   26.7779  -19.8288  -14.6327 O   0  0  0  0  0  0  0  0  0  0  0  0
   28.4708  -21.4490   -9.8094 C   0  0  0  0  0  0  0  0  0  0  0  0
   28.9015  -21.2083   -8.5007 C   0  0  0  0  0  0  0  0  0  0  0  0
   28.4268  -22.8971  -16.7986 C   0  0  0  0  0  0  0  0  0  0  0  0
   27.3578  -22.0578  -16.1318 C   0  0  2  0  0  0  0  0  0  0  0  0
   27.7736  -21.8749  -14.7537 N   0  0  0  0  0  0  0  0  0  0  0  0
   26.0248  -22.7032  -16.2026 C   0  0  0  0  0  0  0  0  0  0  0  0
   25.7483  -23.6187  -15.3839 O   0  0  0  0  0  0  0  0  0  0  0  0
   18.5300  -22.2025  -13.5440 N   0  0  0  0  0  0  0  0  0  0  0  0
   19.6329  -22.4025  -12.6770 C   0  0  0  0  0  0  0  0  0  0  0  0
   19.4433  -22.8837  -11.4832 N   0  0  0  0  0  0  0  0  0  0  0  0
   20.9489  -22.0716  -13.1098 N   0  0  0  0  0  0  0  0  0  0  0  0
   21.1598  -21.3467  -14.3243 C   0  0  0  0  0  0  0  0  0  0  0  0
   21.6835  -22.1281  -15.4857 C   0  0  0  0  0  0  0  0  0  0  0  0
   23.1381  -21.8924  -15.7213 C   0  0  0  0  0  0  0  0  0  0  0  0
   23.6353  -22.6447  -16.9394 C   0  0  2  0  0  0  0  0  0  0  0  0
   25.0567  -22.3241  -17.1593 N   0  0  0  0  0  0  0  0  0  0  0  0
   22.8729  -22.3949  -18.1705 C   0  0  0  0  0  0  0  0  0  0  0  0
   21.7998  -23.2525  -18.5147 O   0  0  0  0  0  0  0  0  0  0  0  0
   23.1451  -21.4419  -18.9285 O   0  0  0  0  0  0  0  0  0  0  0  0
  2  3  2  0
  2  1  1  0
  4  3  1  0
  5  4  2  0
  6  5  1  0
  7  6  1  0
  7  8  1  1
  9 10  2  0
  9  7  1  0
 11  5  1  0
 11 12  2  0
 12  2  1  0
 14 13  1  6
 14 15  1  0
 15  9  1  0
 16 17  2  0
 16 14  1  0
 18 19  1  0
 19 20  2  0
 21 22  1  0
 21 19  1  0
 23 22  1  0
 25 24  1  1
 24 23  1  0
 25 26  1  0
 26 16  1  0
 27 25  1  0
 28 27  1  0
 29 27  2  0
M  END
$$$$
