YAR.pdb
     RDKit          3D

 29 29  0  0  1  0  0  0  0  0999 V2000
   27.8163  -18.6546   -4.0145 O   0  0  0  0  0  0  0  0  0  0  0  0
   27.6496  -19.0676   -5.3326 C   0  0  0  0  0  0  0  0  0  0  0  0
   28.3888  -20.0976   -5.8709 C   0  0  0  0  0  0  0  0  0  0  0  0
   28.2275  -20.5177   -7.1915 C   0  0  0  0  0  0  0  0  0  0  0  0
   27.3044  -19.8974   -8.0036 C   0  0  0  0  0  0  0  0  0  0  0  0
   27.1224  -20.3493   -9.4248 C   0  0  0  0  0  0  0  0  0  0  0  0
   25.6505  -20.6218   -9.6103 C   0  0  2  0  0  0  0  0  0  0  0  0
   25.1816  -21.6378   -8.7210 N   0  0  0  0  0  0  0  0  0  0  0  0
   25.2767  -20.8766  -11.0248 C   0  0  0  0  0  0  0  0  0  0  0  0
   25.3667  -22.0332  -11.5130 O   0  0  0  0  0  0  0  0  0  0  0  0
   26.5620  -18.8668   -7.4717 C   0  0  0  0  0  0  0  0  0  0  0  0
   26.7273  -18.4490   -6.1472 C   0  0  0  0  0  0  0  0  0  0  0  0
   23.7004  -18.9808  -13.8096 C   0  0  0  0  0  0  0  0  0  0  0  0
   24.5841  -20.1032  -13.3086 C   0  0  2  0  0  0  0  0  0  0  0  0
   24.8049  -19.8582  -11.8956 N   0  0  0  0  0  0  0  0  0  0  0  0
   25.8703  -20.1638  -14.0440 C   0  0  0  0  0  0  0  0  0  0  0  0
   26.9304  -19.8511  -13.4412 O   0  0  0  0  0  0  0  0  0  0  0  0
   30.7755  -25.9736  -16.1276 N   0  0  0  0  0  0  0  0  0  0  0  0
   31.2625  -24.8804  -16.8864 C   0  0  0  0  0  0  0  0  0  0  0  0
   31.8933  -25.0937  -18.0041 N   0  0  0  0  0  0  0  0  0  0  0  0
   31.0668  -23.5478  -16.4231 N   0  0  0  0  0  0  0  0  0  0  0  0
   29.9979  -23.2337  -15.5266 C   0  0  0  0  0  0  0  0  0  0  0  0
   28.6620  -22.9762  -16.1450 C   0  0  0  0  0  0  0  0  0  0  0  0
   27.7744  -22.1612  -15.2647 C   0  0  0  0  0  0  0  0  0  0  0  0
   27.2387  -20.9417  -15.9877 C   0  0  2  0  0  0  0  0  0  0  0  0
   25.9432  -20.5599  -15.3982 N   0  0  0  0  0  0  0  0  0  0  0  0
   27.0958  -21.1016  -17.4413 C   0  0  0  0  0  0  0  0  0  0  0  0
   28.1953  -20.8178  -18.2876 O   0  0  0  0  0  0  0  0  0  0  0  0
   26.0254  -21.4828  -17.9572 O   0  0  0  0  0  0  0  0  0  0  0  0
  2  3  2  0
  2  1  1  0
  4  3  1  0
  5  4  2  0
  6  5  1  0
  7  6  1  0
  7  8  1  1
  9 10  2  0
  9  7  1  0
 11  5  1  0
 11 12  2  0
 12  2  1  0
 14 13  1  6
 14 15  1  0
 15  9  1  0
 16 17  2  0
 16 14  1  0
 18 19  1  0
 19 20  2  0
 21 22  1  0
 21 19  1  0
 23 22  1  0
 25 24  1  1
 24 23  1  0
 25 26  1  0
 26 16  1  0
 27 25  1  0
 28 27  1  0
 29 27  2  0
M  END
$$$$
