YAR.pdb
     RDKit          3D

 29 29  0  0  1  0  0  0  0  0999 V2000
   18.0887  -26.0826   -4.7982 O   0  0  0  0  0  0  0  0  0  0  0  0
   18.3114  -25.7815   -6.1381 C   0  0  0  0  0  0  0  0  0  0  0  0
   18.4802  -26.7663   -7.0863 C   0  0  0  0  0  0  0  0  0  0  0  0
   18.7037  -26.4726   -8.4317 C   0  0  0  0  0  0  0  0  0  0  0  0
   18.7616  -25.1620   -8.8503 C   0  0  0  0  0  0  0  0  0  0  0  0
   18.9963  -24.8399  -10.2988 C   0  0  0  0  0  0  0  0  0  0  0  0
   17.7069  -24.2673  -10.8325 C   0  0  2  0  0  0  0  0  0  0  0  0
   16.6360  -25.2113  -10.7605 N   0  0  0  0  0  0  0  0  0  0  0  0
   17.8503  -23.6600  -12.1800 C   0  0  0  0  0  0  0  0  0  0  0  0
   17.7554  -24.3687  -13.2158 O   0  0  0  0  0  0  0  0  0  0  0  0
   18.5936  -24.1725   -7.9074 C   0  0  0  0  0  0  0  0  0  0  0  0
   18.3699  -24.4716   -6.5596 C   0  0  0  0  0  0  0  0  0  0  0  0
   18.2568  -20.2100  -13.5486 C   0  0  0  0  0  0  0  0  0  0  0  0
   18.2619  -21.7151  -13.7103 C   0  0  2  0  0  0  0  0  0  0  0  0
   18.0967  -22.2756  -12.3822 N   0  0  0  0  0  0  0  0  0  0  0  0
   19.5149  -22.1989  -14.3383 C   0  0  0  0  0  0  0  0  0  0  0  0
   20.4530  -22.5940  -13.5974 O   0  0  0  0  0  0  0  0  0  0  0  0
   25.5408  -26.5785  -16.5237 N   0  0  0  0  0  0  0  0  0  0  0  0
   25.4656  -25.2435  -16.0546 C   0  0  0  0  0  0  0  0  0  0  0  0
   26.5224  -24.4850  -16.0778 N   0  0  0  0  0  0  0  0  0  0  0  0
   24.2345  -24.7330  -15.5521 N   0  0  0  0  0  0  0  0  0  0  0  0
   23.0543  -25.5405  -15.5473 C   0  0  0  0  0  0  0  0  0  0  0  0
   21.9659  -25.1374  -16.4889 C   0  0  0  0  0  0  0  0  0  0  0  0
   20.8952  -24.3451  -15.8161 C   0  0  0  0  0  0  0  0  0  0  0  0
   20.8536  -22.9181  -16.3250 C   0  0  2  0  0  0  0  0  0  0  0  0
   19.6894  -22.2295  -15.7400 N   0  0  0  0  0  0  0  0  0  0  0  0
   20.8252  -22.7872  -17.7882 C   0  0  0  0  0  0  0  0  0  0  0  0
   19.6129  -23.0063  -18.4866 O   0  0  0  0  0  0  0  0  0  0  0  0
   21.8462  -22.4867  -18.4398 O   0  0  0  0  0  0  0  0  0  0  0  0
  2  3  2  0
  2  1  1  0
  4  3  1  0
  5  4  2  0
  6  5  1  0
  7  6  1  0
  7  8  1  6
  9 10  2  0
  9  7  1  0
 11  5  1  0
 11 12  2  0
 12  2  1  0
 14 13  1  1
 14 15  1  0
 15  9  1  0
 16 17  2  0
 16 14  1  0
 18 19  1  0
 19 20  2  0
 21 22  1  0
 21 19  1  0
 23 22  1  0
 25 24  1  6
 24 23  1  0
 25 26  1  0
 26 16  1  0
 27 25  1  0
 28 27  1  0
 29 27  2  0
M  END
$$$$
