YAR.pdb
     RDKit          3D

 29 29  0  0  1  0  0  0  0  0999 V2000
   29.2990  -20.6554   -8.3207 O   0  0  0  0  0  0  0  0  0  0  0  0
   28.3989  -20.4508   -9.3616 C   0  0  0  0  0  0  0  0  0  0  0  0
   27.0397  -20.3907   -9.1463 C   0  0  0  0  0  0  0  0  0  0  0  0
   26.1307  -20.1858  -10.1846 C   0  0  0  0  0  0  0  0  0  0  0  0
   26.5831  -20.0357  -11.4766 C   0  0  0  0  0  0  0  0  0  0  0  0
   25.6092  -19.8090  -12.5978 C   0  0  0  0  0  0  0  0  0  0  0  0
   24.9959  -21.1489  -12.9199 C   0  0  2  0  0  0  0  0  0  0  0  0
   25.9379  -22.0308  -13.5345 N   0  0  0  0  0  0  0  0  0  0  0  0
   23.7248  -21.0425  -13.6804 C   0  0  0  0  0  0  0  0  0  0  0  0
   23.7361  -20.8987  -14.9307 O   0  0  0  0  0  0  0  0  0  0  0  0
   27.9409  -20.0948  -11.6988 C   0  0  0  0  0  0  0  0  0  0  0  0
   28.8485  -20.3005  -10.6548 C   0  0  0  0  0  0  0  0  0  0  0  0
   20.0885  -21.3620  -12.9206 C   0  0  0  0  0  0  0  0  0  0  0  0
   21.2228  -20.9239  -13.8222 C   0  0  2  0  0  0  0  0  0  0  0  0
   22.4469  -21.0956  -13.0621 N   0  0  0  0  0  0  0  0  0  0  0  0
   21.0655  -19.5173  -14.2641 C   0  0  0  0  0  0  0  0  0  0  0  0
   21.1893  -18.5960  -13.4152 O   0  0  0  0  0  0  0  0  0  0  0  0
   26.8022  -16.0277  -17.9937 N   0  0  0  0  0  0  0  0  0  0  0  0
   26.6285  -15.7479  -16.6155 C   0  0  0  0  0  0  0  0  0  0  0  0
   27.6157  -15.2631  -15.9203 N   0  0  0  0  0  0  0  0  0  0  0  0
   25.3749  -16.0025  -15.9890 N   0  0  0  0  0  0  0  0  0  0  0  0
   24.2868  -16.5624  -16.7289 C   0  0  0  0  0  0  0  0  0  0  0  0
   23.0478  -16.8807  -15.9560 C   0  0  0  0  0  0  0  0  0  0  0  0
   21.9622  -17.4288  -16.8207 C   0  0  0  0  0  0  0  0  0  0  0  0
   20.7230  -17.7646  -16.0153 C   0  0  2  0  0  0  0  0  0  0  0  0
   20.7805  -19.1791  -15.6059 N   0  0  0  0  0  0  0  0  0  0  0  0
   19.4518  -17.4968  -16.7018 C   0  0  0  0  0  0  0  0  0  0  0  0
   18.8709  -16.2078  -16.6202 O   0  0  0  0  0  0  0  0  0  0  0  0
   18.8632  -18.3787  -17.3598 O   0  0  0  0  0  0  0  0  0  0  0  0
  2  3  2  0
  2  1  1  0
  4  3  1  0
  5  4  2  0
  6  5  1  0
  7  6  1  0
  7  8  1  6
  9 10  2  0
  9  7  1  0
 11  5  1  0
 11 12  2  0
 12  2  1  0
 14 13  1  1
 14 15  1  0
 15  9  1  0
 16 17  2  0
 16 14  1  0
 18 19  1  0
 19 20  2  0
 21 22  1  0
 21 19  1  0
 23 22  1  0
 25 24  1  6
 24 23  1  0
 25 26  1  0
 26 16  1  0
 27 25  1  0
 28 27  1  0
 29 27  2  0
M  END
$$$$
