YAR.pdb
     RDKit          3D

 29 29  0  0  1  0  0  0  0  0999 V2000
   23.3879  -11.8012  -21.3056 O   0  0  0  0  0  0  0  0  0  0  0  0
   22.7041  -10.9793  -20.4153 C   0  0  0  0  0  0  0  0  0  0  0  0
   23.1128   -9.6899  -20.1554 C   0  0  0  0  0  0  0  0  0  0  0  0
   22.4326   -8.8595  -19.2642 C   0  0  0  0  0  0  0  0  0  0  0  0
   21.3122   -9.3217  -18.6105 C   0  0  0  0  0  0  0  0  0  0  0  0
   20.5724   -8.4301  -17.6541 C   0  0  0  0  0  0  0  0  0  0  0  0
   21.4166   -8.3317  -16.4080 C   0  0  2  0  0  0  0  0  0  0  0  0
   21.6382   -9.6125  -15.8136 N   0  0  0  0  0  0  0  0  0  0  0  0
   20.9132   -7.3257  -15.4386 C   0  0  0  0  0  0  0  0  0  0  0  0
   19.9010   -7.5680  -14.7310 O   0  0  0  0  0  0  0  0  0  0  0  0
   20.8981  -10.6100  -18.8658 C   0  0  0  0  0  0  0  0  0  0  0  0
   21.5833  -11.4390  -19.7599 C   0  0  0  0  0  0  0  0  0  0  0  0
   22.1445   -4.5598  -13.5115 C   0  0  0  0  0  0  0  0  0  0  0  0
   20.9821   -5.0745  -14.3334 C   0  0  2  0  0  0  0  0  0  0  0  0
   21.5262   -6.0579  -15.2513 N   0  0  0  0  0  0  0  0  0  0  0  0
   20.2995   -3.9828  -15.0689 C   0  0  0  0  0  0  0  0  0  0  0  0
   20.8018   -3.5692  -16.1466 O   0  0  0  0  0  0  0  0  0  0  0  0
   14.5033   -6.8662  -14.1296 N   0  0  0  0  0  0  0  0  0  0  0  0
   14.8972   -7.0078  -15.4833 C   0  0  0  0  0  0  0  0  0  0  0  0
   14.6230   -8.1031  -16.1298 N   0  0  0  0  0  0  0  0  0  0  0  0
   15.5984   -5.9535  -16.1356 N   0  0  0  0  0  0  0  0  0  0  0  0
   15.8855   -4.7313  -15.4508 C   0  0  0  0  0  0  0  0  0  0  0  0
   16.6188   -3.6868  -16.2284 C   0  0  0  0  0  0  0  0  0  0  0  0
   16.9806   -2.5042  -15.3934 C   0  0  0  0  0  0  0  0  0  0  0  0
   18.4802   -2.2895  -15.3496 C   0  0  2  0  0  0  0  0  0  0  0  0
   19.1052   -3.3926  -14.5984 N   0  0  0  0  0  0  0  0  0  0  0  0
   18.9010   -1.0008  -14.7828 C   0  0  0  0  0  0  0  0  0  0  0  0
   19.1916    0.0822  -15.6479 O   0  0  0  0  0  0  0  0  0  0  0  0
   19.0114   -0.8304  -13.5516 O   0  0  0  0  0  0  0  0  0  0  0  0
  2  3  2  0
  2  1  1  0
  4  3  1  0
  5  4  2  0
  6  5  1  0
  7  6  1  0
  7  8  1  1
  9 10  2  0
  9  7  1  0
 11  5  1  0
 11 12  2  0
 12  2  1  0
 14 13  1  6
 14 15  1  0
 15  9  1  0
 16 17  2  0
 16 14  1  0
 18 19  1  0
 19 20  2  0
 21 22  1  0
 21 19  1  0
 23 22  1  0
 25 24  1  1
 24 23  1  0
 25 26  1  0
 26 16  1  0
 27 25  1  0
 28 27  1  0
 29 27  2  0
M  END
$$$$
