YAR.pdb
     RDKit          3D

 29 29  0  0  1  0  0  0  0  0999 V2000
   27.6405  -13.2908  -26.9020 O   0  0  0  0  0  0  0  0  0  0  0  0
   26.3572  -13.5284  -26.4200 C   0  0  0  0  0  0  0  0  0  0  0  0
   25.4500  -14.2968  -27.1157 C   0  0  0  0  0  0  0  0  0  0  0  0
   24.1614  -14.5397  -26.6392 C   0  0  0  0  0  0  0  0  0  0  0  0
   23.7598  -14.0045  -25.4356 C   0  0  0  0  0  0  0  0  0  0  0  0
   22.3754  -14.2675  -24.9149 C   0  0  0  0  0  0  0  0  0  0  0  0
   22.4869  -15.4124  -23.9392 C   0  0  2  0  0  0  0  0  0  0  0  0
   22.8360  -16.6351  -24.5919 N   0  0  0  0  0  0  0  0  0  0  0  0
   21.2989  -15.5480  -23.0585 C   0  0  0  0  0  0  0  0  0  0  0  0
   20.2359  -16.0646  -23.4913 O   0  0  0  0  0  0  0  0  0  0  0  0
   24.6620  -13.2353  -24.7351 C   0  0  0  0  0  0  0  0  0  0  0  0
   25.9527  -12.9942  -25.2167 C   0  0  0  0  0  0  0  0  0  0  0  0
   20.5218  -14.9640  -19.4590 C   0  0  0  0  0  0  0  0  0  0  0  0
   20.0870  -15.1895  -20.8913 C   0  0  2  0  0  0  0  0  0  0  0  0
   21.2859  -15.1155  -21.7054 N   0  0  0  0  0  0  0  0  0  0  0  0
   19.0857  -14.1873  -21.3290 C   0  0  0  0  0  0  0  0  0  0  0  0
   19.4861  -13.0625  -21.7284 O   0  0  0  0  0  0  0  0  0  0  0  0
   10.8191  -14.2617  -23.2708 N   0  0  0  0  0  0  0  0  0  0  0  0
   11.1997  -13.0590  -23.9162 C   0  0  0  0  0  0  0  0  0  0  0  0
   10.3038  -12.3305  -24.5159 N   0  0  0  0  0  0  0  0  0  0  0  0
   12.5639  -12.6496  -23.9138 N   0  0  0  0  0  0  0  0  0  0  0  0
   13.5836  -13.5031  -23.3876 C   0  0  0  0  0  0  0  0  0  0  0  0
   14.9905  -13.0124  -23.5042 C   0  0  0  0  0  0  0  0  0  0  0  0
   15.9821  -13.9956  -22.9780 C   0  0  0  0  0  0  0  0  0  0  0  0
   16.7443  -13.4393  -21.7921 C   0  0  2  0  0  0  0  0  0  0  0  0
   17.6985  -14.4542  -21.3110 N   0  0  0  0  0  0  0  0  0  0  0  0
   15.9016  -12.9817  -20.6788 C   0  0  0  0  0  0  0  0  0  0  0  0
   15.4267  -11.6476  -20.6636 O   0  0  0  0  0  0  0  0  0  0  0  0
   15.5895  -13.7396  -19.7379 O   0  0  0  0  0  0  0  0  0  0  0  0
  2  3  2  0
  2  1  1  0
  4  3  1  0
  5  4  2  0
  6  5  1  0
  7  6  1  0
  7  8  1  6
  9 10  2  0
  9  7  1  0
 11  5  1  0
 11 12  2  0
 12  2  1  0
 14 13  1  1
 14 15  1  0
 15  9  1  0
 16 17  2  0
 16 14  1  0
 18 19  1  0
 19 20  2  0
 21 22  1  0
 21 19  1  0
 23 22  1  0
 25 24  1  6
 24 23  1  0
 25 26  1  0
 26 16  1  0
 27 25  1  0
 28 27  1  0
 29 27  2  0
M  END
$$$$
