YAR.pdb
     RDKit          3D

 29 29  0  0  1  0  0  0  0  0999 V2000
   31.8062  -16.3604  -17.7028 O   0  0  0  0  0  0  0  0  0  0  0  0
   30.5185  -16.3603  -17.1762 C   0  0  0  0  0  0  0  0  0  0  0  0
   30.0358  -17.4163  -16.4352 C   0  0  0  0  0  0  0  0  0  0  0  0
   28.7459  -17.4237  -15.9037 C   0  0  0  0  0  0  0  0  0  0  0  0
   27.9085  -16.3508  -16.1132 C   0  0  0  0  0  0  0  0  0  0  0  0
   26.5205  -16.3508  -15.5383 C   0  0  0  0  0  0  0  0  0  0  0  0
   25.7849  -17.5033  -16.1755 C   0  0  2  0  0  0  0  0  0  0  0  0
   25.9701  -17.5339  -17.5924 N   0  0  0  0  0  0  0  0  0  0  0  0
   24.3555  -17.5752  -15.7793 C   0  0  0  0  0  0  0  0  0  0  0  0
   24.0203  -17.4847  -14.5695 O   0  0  0  0  0  0  0  0  0  0  0  0
   28.3848  -15.2916  -16.8532 C   0  0  0  0  0  0  0  0  0  0  0  0
   29.6787  -15.2886  -17.3842 C   0  0  0  0  0  0  0  0  0  0  0  0
   21.0708  -17.6269  -17.5315 C   0  0  0  0  0  0  0  0  0  0  0  0
   21.9162  -17.8522  -16.2961 C   0  0  2  0  0  0  0  0  0  0  0  0
   23.3010  -17.7454  -16.7159 N   0  0  0  0  0  0  0  0  0  0  0  0
   21.6495  -19.1732  -15.6777 C   0  0  0  0  0  0  0  0  0  0  0  0
   22.3499  -20.1597  -16.0257 O   0  0  0  0  0  0  0  0  0  0  0  0
   26.2660  -21.0825  -10.1724 N   0  0  0  0  0  0  0  0  0  0  0  0
   26.0732  -20.9462  -11.5696 C   0  0  0  0  0  0  0  0  0  0  0  0
   27.0929  -20.7369  -12.3501 N   0  0  0  0  0  0  0  0  0  0  0  0
   24.7622  -21.0325  -12.1199 N   0  0  0  0  0  0  0  0  0  0  0  0
   23.6234  -21.2131  -11.2741 C   0  0  0  0  0  0  0  0  0  0  0  0
   22.2972  -21.3224  -11.9545 C   0  0  0  0  0  0  0  0  0  0  0  0
   22.0932  -20.2569  -12.9791 C   0  0  0  0  0  0  0  0  0  0  0  0
   20.7675  -20.4181  -13.6957 C   0  0  2  0  0  0  0  0  0  0  0  0
   20.6350  -19.3594  -14.7122 N   0  0  0  0  0  0  0  0  0  0  0  0
   19.5892  -20.4151  -12.8179 C   0  0  0  0  0  0  0  0  0  0  0  0
   19.0366  -21.6449  -12.3848 O   0  0  0  0  0  0  0  0  0  0  0  0
   19.0559  -19.3522  -12.4396 O   0  0  0  0  0  0  0  0  0  0  0  0
  2  3  2  0
  2  1  1  0
  4  3  1  0
  5  4  2  0
  6  5  1  0
  7  6  1  0
  7  8  1  6
  9 10  2  0
  9  7  1  0
 11  5  1  0
 11 12  2  0
 12  2  1  0
 14 13  1  6
 14 15  1  0
 15  9  1  0
 16 17  2  0
 16 14  1  0
 18 19  1  0
 19 20  2  0
 21 22  1  0
 21 19  1  0
 23 22  1  0
 25 24  1  1
 24 23  1  0
 25 26  1  0
 26 16  1  0
 27 25  1  0
 28 27  1  0
 29 27  2  0
M  END
$$$$
