YAR.pdb
     RDKit          3D

 29 29  0  0  1  0  0  0  0  0999 V2000
   18.1420   -6.5648   -9.6264 O   0  0  0  0  0  0  0  0  0  0  0  0
   18.7709   -7.2322  -10.6726 C   0  0  0  0  0  0  0  0  0  0  0  0
   18.1714   -7.3833  -11.9035 C   0  0  0  0  0  0  0  0  0  0  0  0
   18.7955   -8.0511  -12.9575 C   0  0  0  0  0  0  0  0  0  0  0  0
   20.0529   -8.5856  -12.7861 C   0  0  0  0  0  0  0  0  0  0  0  0
   20.7320   -9.3008  -13.9195 C   0  0  0  0  0  0  0  0  0  0  0  0
   21.8210   -8.3860  -14.4219 C   0  0  2  0  0  0  0  0  0  0  0  0
   21.3266   -7.0744  -14.7015 N   0  0  0  0  0  0  0  0  0  0  0  0
   22.5949   -8.9630  -15.5504 C   0  0  0  0  0  0  0  0  0  0  0  0
   23.0403  -10.1385  -15.4874 O   0  0  0  0  0  0  0  0  0  0  0  0
   20.6579   -8.4382  -11.5579 C   0  0  0  0  0  0  0  0  0  0  0  0
   20.0285   -7.7680  -10.5040 C   0  0  0  0  0  0  0  0  0  0  0  0
   23.0094   -8.2085  -19.1172 C   0  0  0  0  0  0  0  0  0  0  0  0
   23.5551   -8.8631  -17.8660 C   0  0  2  0  0  0  0  0  0  0  0  0
   22.8745   -8.2445  -16.7436 N   0  0  0  0  0  0  0  0  0  0  0  0
   25.0242   -8.6980  -17.7522 C   0  0  0  0  0  0  0  0  0  0  0  0
   25.4979   -7.5380  -17.6302 O   0  0  0  0  0  0  0  0  0  0  0  0
   31.8447  -14.4273  -18.3337 N   0  0  0  0  0  0  0  0  0  0  0  0
   32.4825  -13.1807  -18.1168 C   0  0  0  0  0  0  0  0  0  0  0  0
   33.7812  -13.1118  -18.0796 N   0  0  0  0  0  0  0  0  0  0  0  0
   31.7022  -12.0032  -17.9335 N   0  0  0  0  0  0  0  0  0  0  0  0
   30.2752  -12.0503  -18.0148 C   0  0  0  0  0  0  0  0  0  0  0  0
   29.5564  -10.7455  -17.8945 C   0  0  0  0  0  0  0  0  0  0  0  0
   28.0735  -10.9111  -17.8837 C   0  0  0  0  0  0  0  0  0  0  0  0
   27.3644   -9.5807  -17.7287 C   0  0  2  0  0  0  0  0  0  0  0  0
   25.9079   -9.8000  -17.7771 N   0  0  0  0  0  0  0  0  0  0  0  0
   27.7468   -8.5610  -18.7151 C   0  0  0  0  0  0  0  0  0  0  0  0
   27.2752   -8.6644  -20.0465 O   0  0  0  0  0  0  0  0  0  0  0  0
   28.4813   -7.5987  -18.4126 O   0  0  0  0  0  0  0  0  0  0  0  0
  2  3  2  0
  2  1  1  0
  4  3  1  0
  5  4  2  0
  6  5  1  0
  7  6  1  0
  7  8  1  6
  9 10  2  0
  9  7  1  0
 11  5  1  0
 11 12  2  0
 12  2  1  0
 14 13  1  6
 14 15  1  0
 15  9  1  0
 16 17  2  0
 16 14  1  0
 18 19  1  0
 19 20  2  0
 21 22  1  0
 21 19  1  0
 23 22  1  0
 25 24  1  6
 24 23  1  0
 25 26  1  0
 26 16  1  0
 27 25  1  0
 28 27  1  0
 29 27  2  0
M  END
$$$$
