YAR.pdb
     RDKit          3D

 29 29  0  0  1  0  0  0  0  0999 V2000
   11.0108   -7.1922   -4.9918 O   0  0  0  0  0  0  0  0  0  0  0  0
   12.0472   -7.1486   -5.9190 C   0  0  0  0  0  0  0  0  0  0  0  0
   12.8175   -6.0205   -6.0959 C   0  0  0  0  0  0  0  0  0  0  0  0
   13.8584   -5.9688   -7.0233 C   0  0  0  0  0  0  0  0  0  0  0  0
   14.1447   -7.0697   -7.7995 C   0  0  0  0  0  0  0  0  0  0  0  0
   15.2682   -7.0217   -8.7957 C   0  0  0  0  0  0  0  0  0  0  0  0
   14.6841   -6.5052  -10.0869 C   0  0  2  0  0  0  0  0  0  0  0  0
   13.8026   -7.4555  -10.6892 N   0  0  0  0  0  0  0  0  0  0  0  0
   15.7108   -5.9931  -11.0297 C   0  0  0  0  0  0  0  0  0  0  0  0
   16.2915   -6.7720  -11.8299 O   0  0  0  0  0  0  0  0  0  0  0  0
   13.3783   -8.2009   -7.6276 C   0  0  0  0  0  0  0  0  0  0  0  0
   12.3356   -8.2480   -6.6967 C   0  0  0  0  0  0  0  0  0  0  0  0
   17.0751   -2.6321  -11.9328 C   0  0  0  0  0  0  0  0  0  0  0  0
   17.0314   -4.1378  -12.0823 C   0  0  2  0  0  0  0  0  0  0  0  0
   16.0936   -4.6264  -11.0886 N   0  0  0  0  0  0  0  0  0  0  0  0
   18.3688   -4.7505  -11.8962 C   0  0  0  0  0  0  0  0  0  0  0  0
   18.7958   -4.9341  -10.7262 O   0  0  0  0  0  0  0  0  0  0  0  0
   22.2005  -11.6027  -15.4549 N   0  0  0  0  0  0  0  0  0  0  0  0
   20.9607  -10.9487  -15.2477 C   0  0  0  0  0  0  0  0  0  0  0  0
   19.8705  -11.4436  -15.7572 N   0  0  0  0  0  0  0  0  0  0  0  0
   20.9077   -9.7459  -14.4866 N   0  0  0  0  0  0  0  0  0  0  0  0
   22.0372   -8.8713  -14.4197 C   0  0  0  0  0  0  0  0  0  0  0  0
   21.9068   -7.6798  -13.5270 C   0  0  0  0  0  0  0  0  0  0  0  0
   20.5925   -6.9911  -13.6847 C   0  0  0  0  0  0  0  0  0  0  0  0
   20.4702   -5.8017  -12.7533 C   0  0  2  0  0  0  0  0  0  0  0  0
   19.1782   -5.1333  -12.9890 N   0  0  0  0  0  0  0  0  0  0  0  0
   21.5622   -4.8240  -12.8574 C   0  0  0  0  0  0  0  0  0  0  0  0
   22.8195   -5.1151  -12.2743 O   0  0  0  0  0  0  0  0  0  0  0  0
   21.4137   -3.7353  -13.4489 O   0  0  0  0  0  0  0  0  0  0  0  0
  2  3  2  0
  2  1  1  0
  4  3  1  0
  5  4  2  0
  6  5  1  0
  7  6  1  0
  7  8  1  6
  9 10  2  0
  9  7  1  0
 11  5  1  0
 11 12  2  0
 12  2  1  0
 14 13  1  1
 14 15  1  0
 15  9  1  0
 16 17  2  0
 16 14  1  0
 18 19  1  0
 19 20  2  0
 21 22  1  0
 21 19  1  0
 23 22  1  0
 25 24  1  6
 24 23  1  0
 25 26  1  0
 26 16  1  0
 27 25  1  0
 28 27  1  0
 29 27  2  0
M  END
$$$$
