YAR.pdb
     RDKit          3D

 29 29  0  0  1  0  0  0  0  0999 V2000
   28.5013  -19.6992  -23.5402 O   0  0  0  0  0  0  0  0  0  0  0  0
   27.5154  -19.7946  -22.5631 C   0  0  0  0  0  0  0  0  0  0  0  0
   27.3599  -20.9276  -21.7954 C   0  0  0  0  0  0  0  0  0  0  0  0
   26.3739  -21.0310  -20.8137 C   0  0  0  0  0  0  0  0  0  0  0  0
   25.5156  -19.9785  -20.5860 C   0  0  0  0  0  0  0  0  0  0  0  0
   24.4557  -20.0821  -19.5263 C   0  0  0  0  0  0  0  0  0  0  0  0
   24.9990  -19.3956  -18.2979 C   0  0  2  0  0  0  0  0  0  0  0  0
   26.1815  -20.0342  -17.8113 N   0  0  0  0  0  0  0  0  0  0  0  0
   23.9761  -19.1938  -17.2404 C   0  0  0  0  0  0  0  0  0  0  0  0
   23.8052  -20.0574  -16.3409 O   0  0  0  0  0  0  0  0  0  0  0  0
   25.6657  -18.8428  -21.3502 C   0  0  0  0  0  0  0  0  0  0  0  0
   26.6555  -18.7436  -22.3333 C   0  0  0  0  0  0  0  0  0  0  0  0
   21.5093  -16.5242  -16.3591 C   0  0  0  0  0  0  0  0  0  0  0  0
   22.1256  -17.8919  -16.1564 C   0  0  2  0  0  0  0  0  0  0  0  0
   23.1465  -18.0423  -17.1766 N   0  0  0  0  0  0  0  0  0  0  0  0
   21.1153  -18.9729  -16.2534 C   0  0  0  0  0  0  0  0  0  0  0  0
   21.1254  -19.7256  -17.2625 O   0  0  0  0  0  0  0  0  0  0  0  0
   17.3858  -25.3805  -12.4310 N   0  0  0  0  0  0  0  0  0  0  0  0
   18.7935  -25.3095  -12.2849 C   0  0  0  0  0  0  0  0  0  0  0  0
   19.4596  -26.3525  -11.8831 N   0  0  0  0  0  0  0  0  0  0  0  0
   19.4795  -24.0948  -12.5723 N   0  0  0  0  0  0  0  0  0  0  0  0
   19.3467  -23.4630  -13.8483 C   0  0  0  0  0  0  0  0  0  0  0  0
   20.0461  -22.1536  -14.0208 C   0  0  0  0  0  0  0  0  0  0  0  0
   19.8918  -21.6026  -15.3990 C   0  0  0  0  0  0  0  0  0  0  0  0
   19.1616  -20.2746  -15.3907 C   0  0  2  0  0  0  0  0  0  0  0  0
   20.1425  -19.1838  -15.2509 N   0  0  0  0  0  0  0  0  0  0  0  0
   18.1262  -20.1482  -14.3558 C   0  0  0  0  0  0  0  0  0  0  0  0
   18.3435  -19.2900  -13.2504 O   0  0  0  0  0  0  0  0  0  0  0  0
   17.0522  -20.7800  -14.4218 O   0  0  0  0  0  0  0  0  0  0  0  0
  2  3  2  0
  2  1  1  0
  4  3  1  0
  5  4  2  0
  6  5  1  0
  7  6  1  0
  7  8  1  1
  9 10  2  0
  9  7  1  0
 11  5  1  0
 11 12  2  0
 12  2  1  0
 14 13  1  6
 14 15  1  0
 15  9  1  0
 16 17  2  0
 16 14  1  0
 18 19  1  0
 19 20  2  0
 21 22  1  0
 21 19  1  0
 23 22  1  0
 25 24  1  1
 24 23  1  0
 25 26  1  0
 26 16  1  0
 27 25  1  0
 28 27  1  0
 29 27  2  0
M  END
$$$$
