YAR.pdb
     RDKit          3D

 29 29  0  0  1  0  0  0  0  0999 V2000
   28.7290  -15.3115  -17.8210 O   0  0  0  0  0  0  0  0  0  0  0  0
   28.0526  -16.2615  -17.0624 C   0  0  0  0  0  0  0  0  0  0  0  0
   28.0276  -16.2096  -15.6862 C   0  0  0  0  0  0  0  0  0  0  0  0
   27.3516  -17.1583  -14.9185 C   0  0  0  0  0  0  0  0  0  0  0  0
   26.6793  -18.1905  -15.5342 C   0  0  0  0  0  0  0  0  0  0  0  0
   25.9449  -19.2116  -14.7127 C   0  0  0  0  0  0  0  0  0  0  0  0
   26.9912  -20.0756  -14.0541 C   0  0  2  0  0  0  0  0  0  0  0  0
   27.7690  -20.7938  -15.0144 N   0  0  0  0  0  0  0  0  0  0  0  0
   26.4406  -20.9506  -12.9880 C   0  0  0  0  0  0  0  0  0  0  0  0
   25.9412  -22.0704  -13.2721 O   0  0  0  0  0  0  0  0  0  0  0  0
   26.7004  -18.2482  -16.9099 C   0  0  0  0  0  0  0  0  0  0  0  0
   27.3795  -17.2950  -17.6755 C   0  0  0  0  0  0  0  0  0  0  0  0
   25.7146  -20.4216   -9.3567 C   0  0  0  0  0  0  0  0  0  0  0  0
   25.3644  -20.9741  -10.7218 C   0  0  2  0  0  0  0  0  0  0  0  0
   26.4425  -20.5901  -11.6139 N   0  0  0  0  0  0  0  0  0  0  0  0
   24.0629  -20.4576  -11.2095 C   0  0  0  0  0  0  0  0  0  0  0  0
   24.0502  -19.4274  -11.9330 O   0  0  0  0  0  0  0  0  0  0  0  0
   21.6457  -22.5871  -17.8864 N   0  0  0  0  0  0  0  0  0  0  0  0
   20.5389  -21.8898  -17.3418 C   0  0  0  0  0  0  0  0  0  0  0  0
   19.6057  -21.4355  -18.1264 N   0  0  0  0  0  0  0  0  0  0  0  0
   20.4500  -21.6807  -15.9356 N   0  0  0  0  0  0  0  0  0  0  0  0
   21.4699  -22.1641  -15.0575 C   0  0  0  0  0  0  0  0  0  0  0  0
   21.2158  -22.0131  -13.5925 C   0  0  0  0  0  0  0  0  0  0  0  0
   21.7659  -20.7375  -13.0475 C   0  0  0  0  0  0  0  0  0  0  0  0
   21.5918  -20.6517  -11.5444 C   0  0  2  0  0  0  0  0  0  0  0  0
   22.8381  -21.0839  -10.8875 N   0  0  0  0  0  0  0  0  0  0  0  0
   20.4571  -21.4182  -11.0116 C   0  0  0  0  0  0  0  0  0  0  0  0
   19.1429  -20.9086  -11.1487 O   0  0  0  0  0  0  0  0  0  0  0  0
   20.6179  -22.5139  -10.4367 O   0  0  0  0  0  0  0  0  0  0  0  0
  2  3  2  0
  2  1  1  0
  4  3  1  0
  5  4  2  0
  6  5  1  0
  7  6  1  0
  7  8  1  6
  9 10  2  0
  9  7  1  0
 11  5  1  0
 11 12  2  0
 12  2  1  0
 14 13  1  1
 14 15  1  0
 15  9  1  0
 16 17  2  0
 16 14  1  0
 18 19  1  0
 19 20  2  0
 21 22  1  0
 21 19  1  0
 23 22  1  0
 25 24  1  6
 24 23  1  0
 25 26  1  0
 26 16  1  0
 27 25  1  0
 28 27  1  0
 29 27  2  0
M  END
$$$$
