YAR.pdb
     RDKit          3D

 29 29  0  0  1  0  0  0  0  0999 V2000
   21.0887  -21.7856  -20.7194 O   0  0  0  0  0  0  0  0  0  0  0  0
   21.6989  -20.5353  -20.7268 C   0  0  0  0  0  0  0  0  0  0  0  0
   22.5382  -20.1420  -21.7457 C   0  0  0  0  0  0  0  0  0  0  0  0
   23.1538  -18.8901  -21.7605 C   0  0  0  0  0  0  0  0  0  0  0  0
   22.9303  -18.0004  -20.7334 C   0  0  0  0  0  0  0  0  0  0  0  0
   23.5860  -16.6488  -20.7470 C   0  0  0  0  0  0  0  0  0  0  0  0
   24.9548  -16.8221  -20.1374 C   0  0  2  0  0  0  0  0  0  0  0  0
   24.8811  -17.3030  -18.7935 N   0  0  0  0  0  0  0  0  0  0  0  0
   25.8118  -15.6169  -20.2721 C   0  0  0  0  0  0  0  0  0  0  0  0
   25.7329  -14.6779  -19.4378 O   0  0  0  0  0  0  0  0  0  0  0  0
   22.0922  -18.3874  -19.7116 C   0  0  0  0  0  0  0  0  0  0  0  0
   21.4773  -19.6436  -19.7008 C   0  0  0  0  0  0  0  0  0  0  0  0
   28.6474  -14.5402  -22.4344 C   0  0  0  0  0  0  0  0  0  0  0  0
   27.5164  -14.2265  -21.4784 C   0  0  2  0  0  0  0  0  0  0  0  0
   26.7524  -15.4503  -21.3236 N   0  0  0  0  0  0  0  0  0  0  0  0
   26.6589  -13.1255  -21.9796 C   0  0  0  0  0  0  0  0  0  0  0  0
   25.4958  -13.3946  -22.3791 O   0  0  0  0  0  0  0  0  0  0  0  0
   20.1482   -9.4428  -20.2369 N   0  0  0  0  0  0  0  0  0  0  0  0
   20.4342   -8.6498  -21.3759 C   0  0  0  0  0  0  0  0  0  0  0  0
   19.5153   -7.8785  -21.8794 N   0  0  0  0  0  0  0  0  0  0  0  0
   21.7261   -8.7007  -21.9737 N   0  0  0  0  0  0  0  0  0  0  0  0
   22.6631   -9.7168  -21.6069 C   0  0  0  0  0  0  0  0  0  0  0  0
   24.0101   -9.6462  -22.2504 C   0  0  0  0  0  0  0  0  0  0  0  0
   24.9098  -10.7527  -21.8114 C   0  0  0  0  0  0  0  0  0  0  0  0
   26.2276  -10.7311  -22.5598 C   0  0  2  0  0  0  0  0  0  0  0  0
   27.1059  -11.7860  -22.0238 N   0  0  0  0  0  0  0  0  0  0  0  0
   26.9284   -9.4399  -22.5344 C   0  0  0  0  0  0  0  0  0  0  0  0
   28.1677   -9.3300  -21.8579 O   0  0  0  0  0  0  0  0  0  0  0  0
   26.4602   -8.4283  -23.0954 O   0  0  0  0  0  0  0  0  0  0  0  0
  2  3  2  0
  2  1  1  0
  4  3  1  0
  5  4  2  0
  6  5  1  0
  7  6  1  0
  7  8  1  1
  9 10  2  0
  9  7  1  0
 11  5  1  0
 11 12  2  0
 12  2  1  0
 14 13  1  6
 14 15  1  0
 15  9  1  0
 16 17  2  0
 16 14  1  0
 18 19  1  0
 19 20  2  0
 21 22  1  0
 21 19  1  0
 23 22  1  0
 25 24  1  1
 24 23  1  0
 25 26  1  0
 26 16  1  0
 27 25  1  0
 28 27  1  0
 29 27  2  0
M  END
$$$$
