YAR.pdb
     RDKit          3D

 29 29  0  0  1  0  0  0  0  0999 V2000
   28.5667  -16.1538  -20.6581 O   0  0  0  0  0  0  0  0  0  0  0  0
   28.2202  -16.8313  -19.4934 C   0  0  0  0  0  0  0  0  0  0  0  0
   29.1135  -17.0033  -18.4591 C   0  0  0  0  0  0  0  0  0  0  0  0
   28.7738  -17.6813  -17.2882 C   0  0  0  0  0  0  0  0  0  0  0  0
   27.5091  -18.2050  -17.1377 C   0  0  0  0  0  0  0  0  0  0  0  0
   27.1359  -18.9311  -15.8765 C   0  0  0  0  0  0  0  0  0  0  0  0
   28.0044  -20.1624  -15.8092 C   0  0  2  0  0  0  0  0  0  0  0  0
   27.7542  -21.0498  -16.9014 N   0  0  0  0  0  0  0  0  0  0  0  0
   27.9529  -20.8430  -14.4902 C   0  0  0  0  0  0  0  0  0  0  0  0
   27.0124  -21.6318  -14.2123 O   0  0  0  0  0  0  0  0  0  0  0  0
   26.6111  -18.0366  -18.1680 C   0  0  0  0  0  0  0  0  0  0  0  0
   26.9561  -17.3563  -19.3402 C   0  0  0  0  0  0  0  0  0  0  0  0
   29.9956  -20.7741  -11.3577 C   0  0  0  0  0  0  0  0  0  0  0  0
   28.7206  -21.0813  -12.1137 C   0  0  2  0  0  0  0  0  0  0  0  0
   28.9368  -20.6533  -13.4832 N   0  0  0  0  0  0  0  0  0  0  0  0
   27.5480  -20.3934  -11.5217 C   0  0  0  0  0  0  0  0  0  0  0  0
   27.3181  -19.1982  -11.8434 O   0  0  0  0  0  0  0  0  0  0  0  0
   20.3824  -21.6017  -13.4099 N   0  0  0  0  0  0  0  0  0  0  0  0
   20.8855  -20.2772  -13.4335 C   0  0  0  0  0  0  0  0  0  0  0  0
   20.1182  -19.2961  -13.8098 N   0  0  0  0  0  0  0  0  0  0  0  0
   22.2331  -20.0198  -13.0506 N   0  0  0  0  0  0  0  0  0  0  0  0
   23.1795  -21.0861  -12.9406 C   0  0  0  0  0  0  0  0  0  0  0  0
   23.8402  -21.2576  -11.6111 C   0  0  0  0  0  0  0  0  0  0  0  0
   24.5379  -20.0188  -11.1577 C   0  0  0  0  0  0  0  0  0  0  0  0
   25.5285  -20.3103  -10.0484 C   0  0  2  0  0  0  0  0  0  0  0  0
   26.6825  -21.0359  -10.6084 N   0  0  0  0  0  0  0  0  0  0  0  0
   24.9757  -21.0578   -8.9105 C   0  0  0  0  0  0  0  0  0  0  0  0
   24.0721  -20.4189   -8.0268 O   0  0  0  0  0  0  0  0  0  0  0  0
   25.2813  -22.2487   -8.6973 O   0  0  0  0  0  0  0  0  0  0  0  0
  2  3  2  0
  2  1  1  0
  4  3  1  0
  5  4  2  0
  6  5  1  0
  7  6  1  0
  7  8  1  6
  9 10  2  0
  9  7  1  0
 11  5  1  0
 11 12  2  0
 12  2  1  0
 14 13  1  1
 14 15  1  0
 15  9  1  0
 16 17  2  0
 16 14  1  0
 18 19  1  0
 19 20  2  0
 21 22  1  0
 21 19  1  0
 23 22  1  0
 25 24  1  6
 24 23  1  0
 25 26  1  0
 26 16  1  0
 27 25  1  0
 28 27  1  0
 29 27  2  0
M  END
$$$$
