SDN.pdb
     RDKit          3D

 23 22  0  0  1  0  0  0  0  0999 V2000
   14.6464   -9.4332  -17.3815 O   0  0  0  0  0  0  0  0  0  0  0  0
   15.8065   -8.9873  -16.7808 C   0  0  0  0  0  0  0  0  0  0  0  0
   16.5995  -10.1173  -16.1500 C   0  0  2  0  0  0  0  0  0  0  0  0
   15.8479  -10.6547  -15.0331 N   0  0  0  0  0  0  0  0  0  0  0  0
   17.9002   -9.6252  -15.6170 C   0  0  0  0  0  0  0  0  0  0  0  0
   17.8490   -9.1625  -14.4468 O   0  0  0  0  0  0  0  0  0  0  0  0
   19.1023   -9.6740  -16.3681 N   0  0  0  0  0  0  0  0  0  0  0  0
   20.3996   -9.2794  -15.7740 C   0  0  1  0  0  0  0  0  0  0  0  0
   21.4109  -10.2589  -16.2068 C   0  0  0  0  0  0  0  0  0  0  0  0
   22.7470  -10.1766  -15.6415 C   0  0  0  0  0  0  0  0  0  0  0  0
   23.1026   -9.1396  -14.9881 O   0  0  0  0  0  0  0  0  0  0  0  0
   20.6561   -7.8610  -16.0050 C   0  0  0  0  0  0  0  0  0  0  0  0
   20.6368   -7.3723  -17.1801 O   0  0  0  0  0  0  0  0  0  0  0  0
   23.7117  -11.1625  -15.7503 O   0  0  0  0  0  0  0  0  0  0  0  0
   21.1110   -2.6361  -15.4495 N   0  0  0  0  0  0  0  0  0  0  0  0
   19.9187   -3.3383  -15.0499 C   0  0  0  0  0  0  0  0  0  0  0  0
   18.9315   -2.6007  -14.7752 O   0  0  0  0  0  0  0  0  0  0  0  0
   19.8808   -4.8069  -14.9755 C   0  0  0  0  0  0  0  0  0  0  0  0
   21.1660   -5.5027  -15.3025 C   0  0  2  0  0  0  0  0  0  0  0  0
   20.9385   -6.9332  -14.9729 N   0  0  0  0  0  0  0  0  0  0  0  0
   22.2241   -5.0562  -14.3806 C   0  0  0  0  0  0  0  0  0  0  0  0
   22.3883   -5.6434  -13.2944 O   0  0  0  0  0  0  0  0  0  0  0  0
   23.0473   -3.9971  -14.6856 O   0  0  0  0  0  0  0  0  0  0  0  0
  2  1  1  0
  3  4  1  1
  3  2  1  0
  5  6  2  0
  5  3  1  0
  7  5  1  0
  8  7  1  0
  8 12  1  0
  8  9  1  6
 10 14  1  0
 10  9  1  0
 11 10  2  0
 12 20  1  0
 13 12  2  0
 15 16  1  0
 16 18  1  0
 17 16  2  0
 19 18  1  1
 20 19  1  0
 21 19  1  0
 21 23  1  0
 22 21  2  0
M  END
$$$$
