SDN.pdb
     RDKit          3D

 23 22  0  0  1  0  0  0  0  0999 V2000
   16.1999  -11.8752  -12.0544 O   0  0  0  0  0  0  0  0  0  0  0  0
   16.5211  -11.3800  -10.8065 C   0  0  0  0  0  0  0  0  0  0  0  0
   15.4575  -10.4404  -10.2685 C   0  0  2  0  0  0  0  0  0  0  0  0
   14.1845  -10.7705  -10.8783 N   0  0  0  0  0  0  0  0  0  0  0  0
   15.7665   -9.0262  -10.6187 C   0  0  0  0  0  0  0  0  0  0  0  0
   15.2721   -8.6330  -11.7082 O   0  0  0  0  0  0  0  0  0  0  0  0
   16.5555   -8.1879   -9.7902 N   0  0  0  0  0  0  0  0  0  0  0  0
   16.8691   -6.7943  -10.1785 C   0  0  1  0  0  0  0  0  0  0  0  0
   16.3295   -5.9031   -9.1373 C   0  0  0  0  0  0  0  0  0  0  0  0
   16.3791   -4.4673   -9.3551 C   0  0  0  0  0  0  0  0  0  0  0  0
   16.0247   -3.6666   -8.4267 O   0  0  0  0  0  0  0  0  0  0  0  0
   18.2772   -6.6710  -10.5434 C   0  0  0  0  0  0  0  0  0  0  0  0
   19.1985   -6.8990   -9.6953 O   0  0  0  0  0  0  0  0  0  0  0  0
   16.7943   -3.8612  -10.5276 O   0  0  0  0  0  0  0  0  0  0  0  0
   19.8962   -9.5106  -13.5456 N   0  0  0  0  0  0  0  0  0  0  0  0
   20.6587   -8.4752  -12.8968 C   0  0  0  0  0  0  0  0  0  0  0  0
   21.4747   -8.8811  -12.0230 O   0  0  0  0  0  0  0  0  0  0  0  0
   20.4804   -7.0573  -13.2452 C   0  0  0  0  0  0  0  0  0  0  0  0
   20.1807   -6.1437  -12.0971 C   0  0  2  0  0  0  0  0  0  0  0  0
   18.7270   -6.2998  -11.8340 N   0  0  0  0  0  0  0  0  0  0  0  0
   20.3502   -4.7423  -12.5168 C   0  0  0  0  0  0  0  0  0  0  0  0
   21.4900   -4.3003  -12.7559 O   0  0  0  0  0  0  0  0  0  0  0  0
   19.2752   -3.8952  -12.6547 O   0  0  0  0  0  0  0  0  0  0  0  0
  2  1  1  0
  3  4  1  6
  3  2  1  0
  5  6  2  0
  5  3  1  0
  7  5  1  0
  8  7  1  0
  8 12  1  0
  8  9  1  1
 10 14  1  0
 10  9  1  0
 11 10  2  0
 12 20  1  0
 13 12  2  0
 15 16  1  0
 16 18  1  0
 17 16  2  0
 19 18  1  6
 20 19  1  0
 21 19  1  0
 21 23  1  0
 22 21  2  0
M  END
$$$$
