SDN.pdb
     RDKit          3D

 23 22  0  0  1  0  0  0  0  0999 V2000
   17.7876  -12.6748  -11.5639 O   0  0  0  0  0  0  0  0  0  0  0  0
   17.6359  -11.3439  -11.8975 C   0  0  0  0  0  0  0  0  0  0  0  0
   16.1867  -10.8970  -11.8390 C   0  0  2  0  0  0  0  0  0  0  0  0
   15.5857  -11.0731  -13.1463 N   0  0  0  0  0  0  0  0  0  0  0  0
   16.0861   -9.4520  -11.4928 C   0  0  0  0  0  0  0  0  0  0  0  0
   16.0047   -8.6774  -12.4824 O   0  0  0  0  0  0  0  0  0  0  0  0
   16.0823   -8.9848  -10.1536 N   0  0  0  0  0  0  0  0  0  0  0  0
   16.0438   -7.5382   -9.8415 C   0  0  1  0  0  0  0  0  0  0  0  0
   15.3322   -7.3710   -8.5627 C   0  0  0  0  0  0  0  0  0  0  0  0
   13.9138   -7.6819   -8.5091 C   0  0  0  0  0  0  0  0  0  0  0  0
   13.0945   -7.0657   -9.2692 O   0  0  0  0  0  0  0  0  0  0  0  0
   17.3722   -6.9499   -9.9845 C   0  0  0  0  0  0  0  0  0  0  0  0
   18.1798   -6.9034   -9.0019 O   0  0  0  0  0  0  0  0  0  0  0  0
   13.3443   -8.6265   -7.6737 O   0  0  0  0  0  0  0  0  0  0  0  0
   21.9401   -5.2475  -12.0370 N   0  0  0  0  0  0  0  0  0  0  0  0
   21.4462   -6.5875  -12.2233 C   0  0  0  0  0  0  0  0  0  0  0  0
   22.2684   -7.3919  -12.7440 O   0  0  0  0  0  0  0  0  0  0  0  0
   20.0806   -6.9647  -11.8276 C   0  0  0  0  0  0  0  0  0  0  0  0
   19.2468   -5.8604  -11.2549 C   0  0  2  0  0  0  0  0  0  0  0  0
   17.8635   -6.3982  -11.1929 N   0  0  0  0  0  0  0  0  0  0  0  0
   19.1838   -4.7378  -12.2060 C   0  0  0  0  0  0  0  0  0  0  0  0
   20.1791   -4.0067  -12.3689 O   0  0  0  0  0  0  0  0  0  0  0  0
   18.0453   -4.4678  -12.9293 O   0  0  0  0  0  0  0  0  0  0  0  0
  2  1  1  0
  3  4  1  6
  3  2  1  0
  5  6  2  0
  5  3  1  0
  7  5  1  0
  8  7  1  0
  8 12  1  0
  8  9  1  1
 10 14  1  0
 10  9  1  0
 11 10  2  0
 12 20  1  0
 13 12  2  0
 15 16  1  0
 16 18  1  0
 17 16  2  0
 19 18  1  6
 20 19  1  0
 21 19  1  0
 21 23  1  0
 22 21  2  0
M  END
$$$$
