SDN.pdb
     RDKit          3D

 23 22  0  0  1  0  0  0  0  0999 V2000
   20.4761  -11.1628  -14.4487 O   0  0  0  0  0  0  0  0  0  0  0  0
   20.3902  -10.5578  -15.6866 C   0  0  0  0  0  0  0  0  0  0  0  0
   21.7181  -10.5588  -16.4215 C   0  0  2  0  0  0  0  0  0  0  0  0
   22.7939  -10.5012  -15.4516 N   0  0  0  0  0  0  0  0  0  0  0  0
   21.8444   -9.3624  -17.2993 C   0  0  0  0  0  0  0  0  0  0  0  0
   23.0193   -9.1038  -17.6720 O   0  0  0  0  0  0  0  0  0  0  0  0
   20.7291   -8.5759  -17.6856 N   0  0  0  0  0  0  0  0  0  0  0  0
   20.8804   -7.4160  -18.5930 C   0  0  1  0  0  0  0  0  0  0  0  0
   19.6953   -7.3685  -19.4664 C   0  0  0  0  0  0  0  0  0  0  0  0
   19.3727   -8.5376  -20.2669 C   0  0  0  0  0  0  0  0  0  0  0  0
   20.0914   -8.8394  -21.2773 O   0  0  0  0  0  0  0  0  0  0  0  0
   21.2400   -6.2202  -17.8368 C   0  0  0  0  0  0  0  0  0  0  0  0
   21.3997   -5.0987  -18.4172 O   0  0  0  0  0  0  0  0  0  0  0  0
   18.3119   -9.3920  -20.0235 O   0  0  0  0  0  0  0  0  0  0  0  0
   21.5649   -2.4902  -14.2176 N   0  0  0  0  0  0  0  0  0  0  0  0
   20.4017   -2.9345  -14.9415 C   0  0  0  0  0  0  0  0  0  0  0  0
   19.4003   -2.1694  -14.8640 O   0  0  0  0  0  0  0  0  0  0  0  0
   20.4067   -4.1908  -15.7065 C   0  0  0  0  0  0  0  0  0  0  0  0
   21.7135   -4.9216  -15.7381 C   0  0  2  0  0  0  0  0  0  0  0  0
   21.4349   -6.2040  -16.4341 N   0  0  0  0  0  0  0  0  0  0  0  0
   22.1067   -5.3005  -14.3704 C   0  0  0  0  0  0  0  0  0  0  0  0
   21.4555   -6.1662  -13.7555 O   0  0  0  0  0  0  0  0  0  0  0  0
   23.1846   -4.7206  -13.7426 O   0  0  0  0  0  0  0  0  0  0  0  0
  2  1  1  0
  3  4  1  1
  3  2  1  0
  5  6  2  0
  5  3  1  0
  7  5  1  0
  8  7  1  0
  8 12  1  0
  8  9  1  1
 10 14  1  0
 10  9  1  0
 11 10  2  0
 12 20  1  0
 13 12  2  0
 15 16  1  0
 16 18  1  0
 17 16  2  0
 19 18  1  1
 20 19  1  0
 21 19  1  0
 21 23  1  0
 22 21  2  0
M  END
$$$$
