SDN.pdb
     RDKit          3D

 23 22  0  0  1  0  0  0  0  0999 V2000
   17.9185  -12.7702  -17.9582 O   0  0  0  0  0  0  0  0  0  0  0  0
   17.6189  -11.4230  -17.9248 C   0  0  0  0  0  0  0  0  0  0  0  0
   17.0768  -10.9869  -16.5759 C   0  0  2  0  0  0  0  0  0  0  0  0
   15.7765  -11.5943  -16.3716 N   0  0  0  0  0  0  0  0  0  0  0  0
   16.8921   -9.5100  -16.5260 C   0  0  0  0  0  0  0  0  0  0  0  0
   16.4853   -8.9931  -17.6000 O   0  0  0  0  0  0  0  0  0  0  0  0
   17.1536   -8.7454  -15.3603 N   0  0  0  0  0  0  0  0  0  0  0  0
   17.0536   -7.2685  -15.3681 C   0  0  1  0  0  0  0  0  0  0  0  0
   15.8987   -6.8897  -14.5361 C   0  0  0  0  0  0  0  0  0  0  0  0
   15.6185   -5.4782  -14.3344 C   0  0  0  0  0  0  0  0  0  0  0  0
   15.4947   -4.7006  -15.3387 O   0  0  0  0  0  0  0  0  0  0  0  0
   18.3519   -6.6677  -15.0772 C   0  0  0  0  0  0  0  0  0  0  0  0
   18.4664   -5.4167  -14.8729 O   0  0  0  0  0  0  0  0  0  0  0  0
   15.4659   -4.8728  -13.0996 O   0  0  0  0  0  0  0  0  0  0  0  0
   20.4834   -7.5310  -11.9270 N   0  0  0  0  0  0  0  0  0  0  0  0
   21.4969   -8.1703  -12.7260 C   0  0  0  0  0  0  0  0  0  0  0  0
   22.1476   -9.0779  -12.1369 O   0  0  0  0  0  0  0  0  0  0  0  0
   21.7360   -7.7757  -14.1228 C   0  0  0  0  0  0  0  0  0  0  0  0
   20.8291   -6.7101  -14.6563 C   0  0  2  0  0  0  0  0  0  0  0  0
   19.5600   -7.4026  -14.9977 N   0  0  0  0  0  0  0  0  0  0  0  0
   21.3516   -6.2051  -15.9372 C   0  0  0  0  0  0  0  0  0  0  0  0
   20.9971   -6.7393  -17.0052 O   0  0  0  0  0  0  0  0  0  0  0  0
   22.2304   -5.1482  -15.9917 O   0  0  0  0  0  0  0  0  0  0  0  0
  2  1  1  0
  3  4  1  6
  3  2  1  0
  5  6  2  0
  5  3  1  0
  7  5  1  0
  8  7  1  0
  8 12  1  0
  8  9  1  1
 10 14  1  0
 10  9  1  0
 11 10  2  0
 12 20  1  0
 13 12  2  0
 15 16  1  0
 16 18  1  0
 17 16  2  0
 19 18  1  6
 20 19  1  0
 21 19  1  0
 21 23  1  0
 22 21  2  0
M  END
$$$$
