SDN.pdb
     RDKit          3D

 23 22  0  0  1  0  0  0  0  0999 V2000
   15.1143  -12.3235  -10.2962 O   0  0  0  0  0  0  0  0  0  0  0  0
   15.4048  -11.0506  -10.7444 C   0  0  0  0  0  0  0  0  0  0  0  0
   14.7827   -9.9765   -9.8710 C   0  0  2  0  0  0  0  0  0  0  0  0
   13.3435  -10.0045  -10.0423 N   0  0  0  0  0  0  0  0  0  0  0  0
   15.2535   -8.6218  -10.2722 C   0  0  0  0  0  0  0  0  0  0  0  0
   14.7501   -8.1839  -11.3404 O   0  0  0  0  0  0  0  0  0  0  0  0
   16.1947   -7.8826   -9.5111 N   0  0  0  0  0  0  0  0  0  0  0  0
   16.6346   -6.5323   -9.9291 C   0  0  1  0  0  0  0  0  0  0  0  0
   16.3076   -5.5942   -8.8416 C   0  0  0  0  0  0  0  0  0  0  0  0
   16.6206   -4.1863   -9.0186 C   0  0  0  0  0  0  0  0  0  0  0  0
   16.7017   -3.6914  -10.1921 O   0  0  0  0  0  0  0  0  0  0  0  0
   18.0060   -6.5740  -10.4277 C   0  0  0  0  0  0  0  0  0  0  0  0
   18.8838   -7.3124   -9.8762 O   0  0  0  0  0  0  0  0  0  0  0  0
   16.8479   -3.2930   -7.9867 O   0  0  0  0  0  0  0  0  0  0  0  0
   22.2787   -6.6280  -13.4028 N   0  0  0  0  0  0  0  0  0  0  0  0
   21.2525   -7.6269  -13.2488 C   0  0  0  0  0  0  0  0  0  0  0  0
   21.5291   -8.7565  -13.7404 O   0  0  0  0  0  0  0  0  0  0  0  0
   19.9851   -7.3269  -12.5652 C   0  0  0  0  0  0  0  0  0  0  0  0
   19.8735   -5.9492  -11.9889 C   0  0  2  0  0  0  0  0  0  0  0  0
   18.4646   -5.8208  -11.5360 N   0  0  0  0  0  0  0  0  0  0  0  0
   20.0300   -4.9472  -13.0567 C   0  0  0  0  0  0  0  0  0  0  0  0
   19.0260   -4.5181  -13.6563 O   0  0  0  0  0  0  0  0  0  0  0  0
   21.2665   -4.4641  -13.4174 O   0  0  0  0  0  0  0  0  0  0  0  0
  2  1  1  0
  3  4  1  6
  3  2  1  0
  5  6  2  0
  5  3  1  0
  7  5  1  0
  8  7  1  0
  8 12  1  0
  8  9  1  1
 10 14  1  0
 10  9  1  0
 11 10  2  0
 12 20  1  0
 13 12  2  0
 15 16  1  0
 16 18  1  0
 17 16  2  0
 19 18  1  6
 20 19  1  0
 21 19  1  0
 21 23  1  0
 22 21  2  0
M  END
$$$$
