SDN.pdb
     RDKit          3D

 23 22  0  0  1  0  0  0  0  0999 V2000
   18.3924  -11.8736  -18.7943 O   0  0  0  0  0  0  0  0  0  0  0  0
   19.1049  -11.1050  -17.8958 C   0  0  0  0  0  0  0  0  0  0  0  0
   20.5235  -11.6093  -17.7044 C   0  0  2  0  0  0  0  0  0  0  0  0
   20.4821  -12.8824  -17.0124 N   0  0  0  0  0  0  0  0  0  0  0  0
   21.3161  -10.6700  -16.8634 C   0  0  0  0  0  0  0  0  0  0  0  0
   20.9950  -10.6537  -15.6457 O   0  0  0  0  0  0  0  0  0  0  0  0
   22.3515   -9.8574  -17.3921 N   0  0  0  0  0  0  0  0  0  0  0  0
   23.1588   -8.9731  -16.5215 C   0  0  1  0  0  0  0  0  0  0  0  0
   24.5770   -9.1749  -16.8639 C   0  0  0  0  0  0  0  0  0  0  0  0
   25.1840  -10.4654  -16.5853 C   0  0  0  0  0  0  0  0  0  0  0  0
   24.7386  -11.1901  -15.6339 O   0  0  0  0  0  0  0  0  0  0  0  0
   22.6224   -7.6155  -16.5357 C   0  0  0  0  0  0  0  0  0  0  0  0
   22.4895   -6.9725  -17.6261 O   0  0  0  0  0  0  0  0  0  0  0  0
   26.2468  -11.0055  -17.2878 O   0  0  0  0  0  0  0  0  0  0  0  0
   20.1943   -3.0874  -15.3415 N   0  0  0  0  0  0  0  0  0  0  0  0
   19.5029   -4.3444  -15.2145 C   0  0  0  0  0  0  0  0  0  0  0  0
   18.2505   -4.2538  -15.0822 O   0  0  0  0  0  0  0  0  0  0  0  0
   20.2263   -5.6249  -15.2402 C   0  0  0  0  0  0  0  0  0  0  0  0
   21.7009   -5.5279  -15.4831 C   0  0  2  0  0  0  0  0  0  0  0  0
   22.2141   -6.9175  -15.3729 N   0  0  0  0  0  0  0  0  0  0  0  0
   22.3409   -4.7900  -14.3809 C   0  0  0  0  0  0  0  0  0  0  0  0
   23.0368   -5.4009  -13.5477 O   0  0  0  0  0  0  0  0  0  0  0  0
   22.1921   -3.4296  -14.2411 O   0  0  0  0  0  0  0  0  0  0  0  0
  2  1  1  0
  3  4  1  1
  3  2  1  0
  5  6  2  0
  5  3  1  0
  7  5  1  0
  8  7  1  0
  8 12  1  0
  8  9  1  6
 10 14  1  0
 10  9  1  0
 11 10  2  0
 12 20  1  0
 13 12  2  0
 15 16  1  0
 16 18  1  0
 17 16  2  0
 19 18  1  1
 20 19  1  0
 21 19  1  0
 21 23  1  0
 22 21  2  0
M  END
$$$$
