SDN.pdb
     RDKit          3D

 23 22  0  0  1  0  0  0  0  0999 V2000
   24.4698  -25.1825  -14.2366 O   0  0  0  0  0  0  0  0  0  0  0  0
   24.1259  -23.8460  -14.2016 C   0  0  0  0  0  0  0  0  0  0  0  0
   24.4722  -23.1282  -15.4932 C   0  0  2  0  0  0  0  0  0  0  0  0
   25.9046  -23.2010  -15.7038 N   0  0  0  0  0  0  0  0  0  0  0  0
   24.1050  -21.6868  -15.4191 C   0  0  0  0  0  0  0  0  0  0  0  0
   24.9284  -20.9644  -14.7975 O   0  0  0  0  0  0  0  0  0  0  0  0
   22.9209  -21.1681  -16.0027 N   0  0  0  0  0  0  0  0  0  0  0  0
   22.5871  -19.7282  -15.9205 C   0  0  1  0  0  0  0  0  0  0  0  0
   22.6516  -19.1712  -17.2825 C   0  0  0  0  0  0  0  0  0  0  0  0
   22.9669  -17.7621  -17.4446 C   0  0  0  0  0  0  0  0  0  0  0  0
   23.8921  -17.4014  -18.2462 O   0  0  0  0  0  0  0  0  0  0  0  0
   21.3686  -19.5307  -15.1413 C   0  0  0  0  0  0  0  0  0  0  0  0
   20.9644  -18.3625  -14.8379 O   0  0  0  0  0  0  0  0  0  0  0  0
   22.3278  -16.7294  -16.7816 O   0  0  0  0  0  0  0  0  0  0  0  0
   21.9299  -19.6816  -11.0651 N   0  0  0  0  0  0  0  0  0  0  0  0
   20.7250  -20.2185  -11.6432 C   0  0  0  0  0  0  0  0  0  0  0  0
   20.3873  -21.3564  -11.2125 O   0  0  0  0  0  0  0  0  0  0  0  0
   19.9630  -19.4755  -12.6586 C   0  0  0  0  0  0  0  0  0  0  0  0
   19.4037  -20.3001  -13.7766 C   0  0  2  0  0  0  0  0  0  0  0  0
   20.5539  -20.5895  -14.6709 N   0  0  0  0  0  0  0  0  0  0  0  0
   18.4803  -19.4853  -14.5843 C   0  0  0  0  0  0  0  0  0  0  0  0
   17.4053  -19.0943  -14.0912 O   0  0  0  0  0  0  0  0  0  0  0  0
   18.7717  -19.1382  -15.8831 O   0  0  0  0  0  0  0  0  0  0  0  0
  2  1  1  0
  3  4  1  1
  3  2  1  0
  5  6  2  0
  5  3  1  0
  7  5  1  0
  8  7  1  0
  8 12  1  0
  8  9  1  6
 10 14  1  0
 10  9  1  0
 11 10  2  0
 12 20  1  0
 13 12  2  0
 15 16  1  0
 16 18  1  0
 17 16  2  0
 19 18  1  1
 20 19  1  0
 21 19  1  0
 21 23  1  0
 22 21  2  0
M  END
$$$$
