SDN.pdb
     RDKit          3D

 23 22  0  0  1  0  0  0  0  0999 V2000
   12.6517   -9.5134  -10.9530 O   0  0  0  0  0  0  0  0  0  0  0  0
   13.8957   -9.6349  -11.5390 C   0  0  0  0  0  0  0  0  0  0  0  0
   13.9023  -10.6441  -12.6726 C   0  0  2  0  0  0  0  0  0  0  0  0
   13.5541  -11.9485  -12.1447 N   0  0  0  0  0  0  0  0  0  0  0  0
   15.2570  -10.7562  -13.2809 C   0  0  0  0  0  0  0  0  0  0  0  0
   15.6730  -11.9359  -13.4273 O   0  0  0  0  0  0  0  0  0  0  0  0
   16.0190   -9.6234  -13.6654 N   0  0  0  0  0  0  0  0  0  0  0  0
   17.3290   -9.7676  -14.3396 C   0  0  1  0  0  0  0  0  0  0  0  0
   17.1301  -10.5976  -15.5401 C   0  0  0  0  0  0  0  0  0  0  0  0
   18.2816  -10.9107  -16.3690 C   0  0  0  0  0  0  0  0  0  0  0  0
   18.3233  -10.5158  -17.5819 O   0  0  0  0  0  0  0  0  0  0  0  0
   17.9722   -8.4656  -14.4885 C   0  0  0  0  0  0  0  0  0  0  0  0
   17.3472   -7.4773  -14.9910 O   0  0  0  0  0  0  0  0  0  0  0  0
   19.3864  -11.6284  -15.9460 O   0  0  0  0  0  0  0  0  0  0  0  0
   21.1122   -4.3187  -13.3962 N   0  0  0  0  0  0  0  0  0  0  0  0
   21.6516   -5.5486  -12.8758 C   0  0  0  0  0  0  0  0  0  0  0  0
   22.7261   -5.4267  -12.2240 O   0  0  0  0  0  0  0  0  0  0  0  0
   20.9804   -6.8378  -13.1015 C   0  0  0  0  0  0  0  0  0  0  0  0
   19.7830   -6.7931  -13.9997 C   0  0  2  0  0  0  0  0  0  0  0  0
   19.3065   -8.1967  -14.0971 N   0  0  0  0  0  0  0  0  0  0  0  0
   20.1967   -6.4287  -15.3654 C   0  0  0  0  0  0  0  0  0  0  0  0
   20.7846   -7.2639  -16.0786 O   0  0  0  0  0  0  0  0  0  0  0  0
   19.9511   -5.1788  -15.8845 O   0  0  0  0  0  0  0  0  0  0  0  0
  2  1  1  0
  3  4  1  1
  3  2  1  0
  5  6  2  0
  5  3  1  0
  7  5  1  0
  8  7  1  0
  8 12  1  0
  8  9  1  6
 10 14  1  0
 10  9  1  0
 11 10  2  0
 12 20  1  0
 13 12  2  0
 15 16  1  0
 16 18  1  0
 17 16  2  0
 19 18  1  1
 20 19  1  0
 21 19  1  0
 21 23  1  0
 22 21  2  0
M  END
$$$$
