SDN.pdb
     RDKit          3D

 23 22  0  0  1  0  0  0  0  0999 V2000
   16.8515  -12.8022  -14.0568 O   0  0  0  0  0  0  0  0  0  0  0  0
   17.3942  -11.7568  -14.7767 C   0  0  0  0  0  0  0  0  0  0  0  0
   16.3301  -10.8901  -15.4247 C   0  0  2  0  0  0  0  0  0  0  0  0
   15.7607  -11.6048  -16.5500 N   0  0  0  0  0  0  0  0  0  0  0  0
   16.9167   -9.6259  -15.9497 C   0  0  0  0  0  0  0  0  0  0  0  0
   17.0329   -9.5794  -17.2029 O   0  0  0  0  0  0  0  0  0  0  0  0
   17.3133   -8.5579  -15.1048 N   0  0  0  0  0  0  0  0  0  0  0  0
   17.8201   -7.2826  -15.6599 C   0  0  1  0  0  0  0  0  0  0  0  0
   16.6623   -6.4072  -15.9100 C   0  0  0  0  0  0  0  0  0  0  0  0
   16.8872   -5.1184  -16.5423 C   0  0  0  0  0  0  0  0  0  0  0  0
   16.0693   -4.6854  -17.4211 O   0  0  0  0  0  0  0  0  0  0  0  0
   18.9192   -6.7727  -14.8456 C   0  0  0  0  0  0  0  0  0  0  0  0
   18.7970   -6.6394  -13.5857 O   0  0  0  0  0  0  0  0  0  0  0  0
   17.9527   -4.2797  -16.2668 O   0  0  0  0  0  0  0  0  0  0  0  0
   21.8258   -8.5843  -13.3567 N   0  0  0  0  0  0  0  0  0  0  0  0
   22.7074   -8.0478  -14.3614 C   0  0  0  0  0  0  0  0  0  0  0  0
   23.6588   -8.8070  -14.6972 O   0  0  0  0  0  0  0  0  0  0  0  0
   22.4928   -6.7113  -14.9370 C   0  0  0  0  0  0  0  0  0  0  0  0
   21.2741   -5.9884  -14.4524 C   0  0  2  0  0  0  0  0  0  0  0  0
   20.1793   -6.3952  -15.3704 N   0  0  0  0  0  0  0  0  0  0  0  0
   21.4368   -4.5397  -14.6615 C   0  0  0  0  0  0  0  0  0  0  0  0
   21.1305   -4.0333  -15.7577 O   0  0  0  0  0  0  0  0  0  0  0  0
   21.9228   -3.7178  -13.6713 O   0  0  0  0  0  0  0  0  0  0  0  0
  2  1  1  0
  3  4  1  6
  3  2  1  0
  5  6  2  0
  5  3  1  0
  7  5  1  0
  8  7  1  0
  8 12  1  0
  8  9  1  1
 10 14  1  0
 10  9  1  0
 11 10  2  0
 12 20  1  0
 13 12  2  0
 15 16  1  0
 16 18  1  0
 17 16  2  0
 19 18  1  6
 20 19  1  0
 21 19  1  0
 21 23  1  0
 22 21  2  0
M  END
$$$$
