SDN.pdb
     RDKit          3D

 23 22  0  0  1  0  0  0  0  0999 V2000
   17.2499  -14.5727  -15.7621 O   0  0  0  0  0  0  0  0  0  0  0  0
   17.6766  -13.3376  -16.2073 C   0  0  0  0  0  0  0  0  0  0  0  0
   17.5735  -12.2709  -15.1327 C   0  0  2  0  0  0  0  0  0  0  0  0
   16.1915  -12.1596  -14.7097 N   0  0  0  0  0  0  0  0  0  0  0  0
   17.9877  -10.9405  -15.6583 C   0  0  0  0  0  0  0  0  0  0  0  0
   19.2070  -10.8494  -15.9603 O   0  0  0  0  0  0  0  0  0  0  0  0
   17.0803   -9.8606  -15.8074 N   0  0  0  0  0  0  0  0  0  0  0  0
   17.4878   -8.5949  -16.4581 C   0  0  1  0  0  0  0  0  0  0  0  0
   16.3278   -8.0764  -17.2032 C   0  0  0  0  0  0  0  0  0  0  0  0
   16.4652   -6.8197  -17.9196 C   0  0  0  0  0  0  0  0  0  0  0  0
   15.4706   -6.0258  -18.0156 O   0  0  0  0  0  0  0  0  0  0  0  0
   18.1508   -7.7178  -15.4977 C   0  0  0  0  0  0  0  0  0  0  0  0
   17.7151   -7.5972  -14.3079 O   0  0  0  0  0  0  0  0  0  0  0  0
   17.6263   -6.3847  -18.5337 O   0  0  0  0  0  0  0  0  0  0  0  0
   21.6123   -4.4358  -13.1333 N   0  0  0  0  0  0  0  0  0  0  0  0
   22.2050   -5.4019  -14.0220 C   0  0  0  0  0  0  0  0  0  0  0  0
   23.4675   -5.4109  -14.0354 O   0  0  0  0  0  0  0  0  0  0  0  0
   21.3776   -6.2997  -14.8424 C   0  0  0  0  0  0  0  0  0  0  0  0
   19.8999   -6.0722  -14.7576 C   0  0  2  0  0  0  0  0  0  0  0  0
   19.3024   -6.9495  -15.7968 N   0  0  0  0  0  0  0  0  0  0  0  0
   19.5812   -4.6980  -15.1806 C   0  0  0  0  0  0  0  0  0  0  0  0
   19.4805   -4.4303  -16.3930 O   0  0  0  0  0  0  0  0  0  0  0  0
   19.3891   -3.6879  -14.2669 O   0  0  0  0  0  0  0  0  0  0  0  0
  2  1  1  0
  3  4  1  6
  3  2  1  0
  5  6  2  0
  5  3  1  0
  7  5  1  0
  8  7  1  0
  8 12  1  0
  8  9  1  1
 10 14  1  0
 10  9  1  0
 11 10  2  0
 12 20  1  0
 13 12  2  0
 15 16  1  0
 16 18  1  0
 17 16  2  0
 19 18  1  6
 20 19  1  0
 21 19  1  0
 21 23  1  0
 22 21  2  0
M  END
$$$$
