HHD.pdb
     RDKit          3D

 29 30  0  0  1  0  0  0  0  0999 V2000
   20.8956  -13.6631  -17.7320 N   0  0  0  0  0  0  0  0  0  0  0  0
   20.1059  -12.4613  -17.5006 C   0  0  1  0  0  0  0  0  0  0  0  0
   19.5691  -12.5330  -16.0899 C   0  0  0  0  0  0  0  0  0  0  0  0
   18.5742  -13.6371  -16.0483 C   0  0  0  0  0  0  0  0  0  0  0  0
   18.2354  -14.5033  -17.0943 C   0  0  0  0  0  0  0  0  0  0  0  0
   17.3015  -15.3638  -16.6749 N   0  0  0  0  0  0  0  0  0  0  0  0
   17.0389  -15.0695  -15.3969 C   0  0  0  0  0  0  0  0  0  0  0  0
   17.8028  -14.0324  -15.0195 N   0  0  0  0  0  0  0  0  0  0  0  0
   20.9533  -11.2693  -17.7173 C   0  0  0  0  0  0  0  0  0  0  0  0
   22.2176  -11.4453  -17.7502 O   0  0  0  0  0  0  0  0  0  0  0  0
   20.4023   -9.9762  -17.8837 N   0  0  0  0  0  0  0  0  0  0  0  0
   21.2474   -8.8488  -18.1245 C   0  0  1  0  0  0  0  0  0  0  0  0
   21.1789   -8.2837  -19.5155 C   0  0  0  0  0  0  0  0  0  0  0  0
   19.8567   -8.3471  -20.1547 C   0  0  0  0  0  0  0  0  0  0  0  0
   18.6988   -7.9000  -19.5738 C   0  0  0  0  0  0  0  0  0  0  0  0
   17.7065   -8.1217  -20.4482 N   0  0  0  0  0  0  0  0  0  0  0  0
   18.2372   -8.6896  -21.5382 C   0  0  0  0  0  0  0  0  0  0  0  0
   19.5556   -8.8276  -21.3577 N   0  0  0  0  0  0  0  0  0  0  0  0
   21.0443   -7.7514  -17.1525 C   0  0  0  0  0  0  0  0  0  0  0  0
   20.0630   -7.8184  -16.3720 O   0  0  0  0  0  0  0  0  0  0  0  0
   21.8933   -6.6243  -17.0546 N   0  0  0  0  0  0  0  0  0  0  0  0
   21.7905   -5.5747  -16.0589 C   0  0  1  0  0  0  0  0  0  0  0  0
   21.9500   -6.0612  -14.6566 C   0  0  0  0  0  0  0  0  0  0  0  0
   21.9370   -5.0323  -13.6198 C   0  0  0  0  0  0  0  0  0  0  0  0
   22.6578   -5.0308  -12.5960 O   0  0  0  0  0  0  0  0  0  0  0  0
   22.8965   -4.6178  -16.3224 C   0  0  0  0  0  0  0  0  0  0  0  0
   24.0176   -5.0632  -16.6234 O   0  0  0  0  0  0  0  0  0  0  0  0
   21.0618   -3.9601  -13.7613 O   0  0  0  0  0  0  0  0  0  0  0  0
   22.6861   -3.2700  -16.2358 O   0  0  0  0  0  0  0  0  0  0  0  0
  2  1  1  1
  2  9  1  0
  3  2  1  0
  4  8  1  0
  4  3  1  0
  5  4  2  0
  6  5  1  0
  6  7  1  0
  7  8  2  0
  9 10  2  0
 11  9  1  0
 11 12  1  0
 12 13  1  6
 13 14  1  0
 14 15  2  0
 16 15  1  0
 17 16  1  0
 18 17  2  0
 18 14  1  0
 19 12  1  0
 19 20  2  0
 21 19  1  0
 22 21  1  0
 22 26  1  0
 22 23  1  1
 24 23  1  0
 24 28  1  0
 25 24  2  0
 26 29  1  0
 27 26  2  0
M  END
$$$$
