HHD.pdb
     RDKit          3D

 29 30  0  0  1  0  0  0  0  0999 V2000
   20.9944  -12.9587  -15.7549 N   0  0  0  0  0  0  0  0  0  0  0  0
   20.5186  -11.8629  -16.5882 C   0  0  1  0  0  0  0  0  0  0  0  0
   19.0085  -11.8709  -16.5335 C   0  0  0  0  0  0  0  0  0  0  0  0
   18.5455  -13.1082  -17.2156 C   0  0  0  0  0  0  0  0  0  0  0  0
   18.4751  -13.3313  -18.5957 C   0  0  0  0  0  0  0  0  0  0  0  0
   18.0092  -14.5638  -18.8242 N   0  0  0  0  0  0  0  0  0  0  0  0
   17.7827  -15.1275  -17.6326 C   0  0  0  0  0  0  0  0  0  0  0  0
   18.1045  -14.2540  -16.6656 N   0  0  0  0  0  0  0  0  0  0  0  0
   21.0898  -10.5906  -16.0973 C   0  0  0  0  0  0  0  0  0  0  0  0
   20.8534  -10.2697  -14.8842 O   0  0  0  0  0  0  0  0  0  0  0  0
   21.8705   -9.7488  -16.9252 N   0  0  0  0  0  0  0  0  0  0  0  0
   22.3074   -8.4698  -16.4595 C   0  0  1  0  0  0  0  0  0  0  0  0
   23.7440   -8.1392  -16.7525 C   0  0  0  0  0  0  0  0  0  0  0  0
   24.7311   -9.0662  -16.1806 C   0  0  0  0  0  0  0  0  0  0  0  0
   24.4152  -10.1140  -15.3557 C   0  0  0  0  0  0  0  0  0  0  0  0
   25.5644  -10.7280  -15.0386 N   0  0  0  0  0  0  0  0  0  0  0  0
   26.5616  -10.0775  -15.6507 C   0  0  0  0  0  0  0  0  0  0  0  0
   26.0501   -9.0587  -16.3508 N   0  0  0  0  0  0  0  0  0  0  0  0
   21.4549   -7.3564  -16.9324 C   0  0  0  0  0  0  0  0  0  0  0  0
   20.9020   -7.4619  -18.0547 O   0  0  0  0  0  0  0  0  0  0  0  0
   21.2295   -6.1728  -16.1912 N   0  0  0  0  0  0  0  0  0  0  0  0
   20.3197   -5.1058  -16.5618 C   0  0  1  0  0  0  0  0  0  0  0  0
   18.8913   -5.5339  -16.6336 C   0  0  0  0  0  0  0  0  0  0  0  0
   17.9186   -4.4707  -16.8724 C   0  0  0  0  0  0  0  0  0  0  0  0
   18.1167   -3.4576  -17.5809 O   0  0  0  0  0  0  0  0  0  0  0  0
   20.4164   -4.0670  -15.5036 C   0  0  0  0  0  0  0  0  0  0  0  0
   21.0662   -4.3171  -14.4736 O   0  0  0  0  0  0  0  0  0  0  0  0
   16.6663   -4.5718  -16.2748 O   0  0  0  0  0  0  0  0  0  0  0  0
   19.8016   -2.8562  -15.6588 O   0  0  0  0  0  0  0  0  0  0  0  0
  2  1  1  1
  2  9  1  0
  3  2  1  0
  4  8  1  0
  4  3  1  0
  5  4  2  0
  6  5  1  0
  6  7  1  0
  7  8  2  0
  9 10  2  0
 11  9  1  0
 11 12  1  0
 12 13  1  6
 13 14  1  0
 14 15  2  0
 16 15  1  0
 17 16  1  0
 18 17  2  0
 18 14  1  0
 19 12  1  0
 19 20  2  0
 21 19  1  0
 22 21  1  0
 22 26  1  0
 22 23  1  1
 24 23  1  0
 24 28  1  0
 25 24  2  0
 26 29  1  0
 27 26  2  0
M  END
$$$$
