HHD.pdb
     RDKit          3D

 29 30  0  0  1  0  0  0  0  0999 V2000
   24.8713   -6.2472  -18.7724 N   0  0  0  0  0  0  0  0  0  0  0  0
   24.0774   -6.5593  -17.5918 C   0  0  1  0  0  0  0  0  0  0  0  0
   22.7912   -5.7717  -17.6860 C   0  0  0  0  0  0  0  0  0  0  0  0
   23.1349   -4.3361  -17.5084 C   0  0  0  0  0  0  0  0  0  0  0  0
   23.2929   -3.6530  -16.2969 C   0  0  0  0  0  0  0  0  0  0  0  0
   23.6009   -2.3752  -16.5432 N   0  0  0  0  0  0  0  0  0  0  0  0
   23.6428   -2.2283  -17.8719 C   0  0  0  0  0  0  0  0  0  0  0  0
   23.3631   -3.4055  -18.4527 N   0  0  0  0  0  0  0  0  0  0  0  0
   23.8382   -8.0171  -17.5339 C   0  0  0  0  0  0  0  0  0  0  0  0
   23.5109   -8.6025  -18.6205 O   0  0  0  0  0  0  0  0  0  0  0  0
   23.9624   -8.7515  -16.3303 N   0  0  0  0  0  0  0  0  0  0  0  0
   23.7862  -10.1700  -16.3200 C   0  0  1  0  0  0  0  0  0  0  0  0
   24.6240  -10.9112  -15.3159 C   0  0  0  0  0  0  0  0  0  0  0  0
   26.0572  -10.9928  -15.6320 C   0  0  0  0  0  0  0  0  0  0  0  0
   26.6227  -10.4936  -16.7761 C   0  0  0  0  0  0  0  0  0  0  0  0
   27.9370  -10.7525  -16.7131 N   0  0  0  0  0  0  0  0  0  0  0  0
   28.1760  -11.3935  -15.5623 C   0  0  0  0  0  0  0  0  0  0  0  0
   27.0230  -11.5406  -14.8998 N   0  0  0  0  0  0  0  0  0  0  0  0
   22.3733  -10.5795  -16.1585 C   0  0  0  0  0  0  0  0  0  0  0  0
   21.6035   -9.8280  -15.5109 O   0  0  0  0  0  0  0  0  0  0  0  0
   21.8387  -11.7763  -16.6903 N   0  0  0  0  0  0  0  0  0  0  0  0
   20.4436  -12.1703  -16.6450 C   0  0  1  0  0  0  0  0  0  0  0  0
   19.6469  -11.6899  -17.8125 C   0  0  0  0  0  0  0  0  0  0  0  0
   18.2383  -12.0764  -17.8251 C   0  0  0  0  0  0  0  0  0  0  0  0
   17.4547  -11.9787  -16.8535 O   0  0  0  0  0  0  0  0  0  0  0  0
   20.4119  -13.6558  -16.6703 C   0  0  0  0  0  0  0  0  0  0  0  0
   21.4316  -14.2726  -17.0247 O   0  0  0  0  0  0  0  0  0  0  0  0
   17.7045  -12.5967  -18.9999 O   0  0  0  0  0  0  0  0  0  0  0  0
   19.2812  -14.3340  -16.3103 O   0  0  0  0  0  0  0  0  0  0  0  0
  2  1  1  6
  2  9  1  0
  3  2  1  0
  4  8  1  0
  4  3  1  0
  5  4  2  0
  6  5  1  0
  6  7  1  0
  7  8  2  0
  9 10  2  0
 11  9  1  0
 11 12  1  0
 12 13  1  1
 13 14  1  0
 14 15  2  0
 16 15  1  0
 17 16  1  0
 18 17  2  0
 18 14  1  0
 19 12  1  0
 19 20  2  0
 21 19  1  0
 22 21  1  0
 22 26  1  0
 22 23  1  6
 24 23  1  0
 24 28  1  0
 25 24  2  0
 26 29  1  0
 27 26  2  0
M  END
$$$$
