HHD.pdb
     RDKit          3D

 29 30  0  0  1  0  0  0  0  0999 V2000
   25.5895  -10.2976  -21.2601 N   0  0  0  0  0  0  0  0  0  0  0  0
   25.8991   -9.1879  -20.3690 C   0  0  1  0  0  0  0  0  0  0  0  0
   25.5064   -7.9117  -21.0765 C   0  0  0  0  0  0  0  0  0  0  0  0
   26.4740   -7.7025  -22.1858 C   0  0  0  0  0  0  0  0  0  0  0  0
   26.2890   -8.0256  -23.5351 C   0  0  0  0  0  0  0  0  0  0  0  0
   27.3819   -7.6877  -24.2278 N   0  0  0  0  0  0  0  0  0  0  0  0
   28.2524   -7.1611  -23.3595 C   0  0  0  0  0  0  0  0  0  0  0  0
   27.7081   -7.1695  -22.1327 N   0  0  0  0  0  0  0  0  0  0  0  0
   25.1734   -9.3670  -19.0935 C   0  0  0  0  0  0  0  0  0  0  0  0
   24.0155   -9.9027  -19.1464 O   0  0  0  0  0  0  0  0  0  0  0  0
   25.7247   -8.9663  -17.8529 N   0  0  0  0  0  0  0  0  0  0  0  0
   25.0271   -9.2154  -16.6303 C   0  0  1  0  0  0  0  0  0  0  0  0
   25.8912   -9.6400  -15.4761 C   0  0  0  0  0  0  0  0  0  0  0  0
   26.6039  -10.9125  -15.6600 C   0  0  0  0  0  0  0  0  0  0  0  0
   26.4822  -11.7096  -16.7681 C   0  0  0  0  0  0  0  0  0  0  0  0
   27.2751  -12.7743  -16.5783 N   0  0  0  0  0  0  0  0  0  0  0  0
   27.8696  -12.6381  -15.3865 C   0  0  0  0  0  0  0  0  0  0  0  0
   27.4577  -11.4963  -14.8239 N   0  0  0  0  0  0  0  0  0  0  0  0
   24.1814   -8.0792  -16.2013 C   0  0  0  0  0  0  0  0  0  0  0  0
   24.6122   -6.9132  -16.3785 O   0  0  0  0  0  0  0  0  0  0  0  0
   22.9119   -8.2321  -15.5964 N   0  0  0  0  0  0  0  0  0  0  0  0
   21.9947   -7.1550  -15.2766 C   0  0  1  0  0  0  0  0  0  0  0  0
   21.5688   -6.3578  -16.4648 C   0  0  0  0  0  0  0  0  0  0  0  0
   20.5760   -5.3168  -16.2112 C   0  0  0  0  0  0  0  0  0  0  0  0
   20.7823   -4.2658  -15.5629 O   0  0  0  0  0  0  0  0  0  0  0  0
   20.7742   -7.7808  -14.7047 C   0  0  0  0  0  0  0  0  0  0  0  0
   19.9609   -7.0645  -14.0954 O   0  0  0  0  0  0  0  0  0  0  0  0
   19.2928   -5.4866  -16.7215 O   0  0  0  0  0  0  0  0  0  0  0  0
   20.5484   -9.1214  -14.8453 O   0  0  0  0  0  0  0  0  0  0  0  0
  2  1  1  6
  2  9  1  0
  3  2  1  0
  4  8  1  0
  4  3  1  0
  5  4  2  0
  6  5  1  0
  6  7  1  0
  7  8  2  0
  9 10  2  0
 11  9  1  0
 11 12  1  0
 12 13  1  1
 13 14  1  0
 14 15  2  0
 16 15  1  0
 17 16  1  0
 18 17  2  0
 18 14  1  0
 19 12  1  0
 19 20  2  0
 21 19  1  0
 22 21  1  0
 22 26  1  0
 22 23  1  6
 24 23  1  0
 24 28  1  0
 25 24  2  0
 26 29  1  0
 27 26  2  0
M  END
$$$$
