HHD.pdb
     RDKit          3D

 29 30  0  0  1  0  0  0  0  0999 V2000
   23.5712  -10.8705  -17.0752 N   0  0  0  0  0  0  0  0  0  0  0  0
   23.6273   -9.6524  -16.2787 C   0  0  1  0  0  0  0  0  0  0  0  0
   24.7464   -8.7989  -16.8291 C   0  0  0  0  0  0  0  0  0  0  0  0
   26.0167   -9.5426  -16.6199 C   0  0  0  0  0  0  0  0  0  0  0  0
   26.7747   -9.5981  -15.4445 C   0  0  0  0  0  0  0  0  0  0  0  0
   27.8504  -10.3671  -15.6443 N   0  0  0  0  0  0  0  0  0  0  0  0
   27.7969  -10.7998  -16.9087 C   0  0  0  0  0  0  0  0  0  0  0  0
   26.6959  -10.3052  -17.4957 N   0  0  0  0  0  0  0  0  0  0  0  0
   22.3188   -8.9669  -16.3393 C   0  0  0  0  0  0  0  0  0  0  0  0
   21.7043   -8.9715  -17.4587 O   0  0  0  0  0  0  0  0  0  0  0  0
   21.7539   -8.3255  -15.2111 N   0  0  0  0  0  0  0  0  0  0  0  0
   20.4588   -7.7250  -15.2860 C   0  0  1  0  0  0  0  0  0  0  0  0
   19.4804   -8.1826  -14.2407 C   0  0  0  0  0  0  0  0  0  0  0  0
   18.9026   -9.5159  -14.4623 C   0  0  0  0  0  0  0  0  0  0  0  0
   19.2287  -10.3309  -15.5147 C   0  0  0  0  0  0  0  0  0  0  0  0
   18.5070  -11.4536  -15.3838 N   0  0  0  0  0  0  0  0  0  0  0  0
   17.7565  -11.3348  -14.2816 C   0  0  0  0  0  0  0  0  0  0  0  0
   17.9995  -10.1466  -13.7169 N   0  0  0  0  0  0  0  0  0  0  0  0
   20.5025   -6.2458  -15.2844 C   0  0  0  0  0  0  0  0  0  0  0  0
   21.3345   -5.6732  -14.5383 O   0  0  0  0  0  0  0  0  0  0  0  0
   19.6543   -5.4360  -16.0754 N   0  0  0  0  0  0  0  0  0  0  0  0
   19.6567   -3.9859  -16.1020 C   0  0  1  0  0  0  0  0  0  0  0  0
   19.9116   -3.4116  -17.4562 C   0  0  0  0  0  0  0  0  0  0  0  0
   19.8180   -1.9577  -17.5598 C   0  0  0  0  0  0  0  0  0  0  0  0
   20.5995   -1.1440  -17.0169 O   0  0  0  0  0  0  0  0  0  0  0  0
   18.3017   -3.5426  -15.6827 C   0  0  0  0  0  0  0  0  0  0  0  0
   17.3680   -4.3633  -15.7029 O   0  0  0  0  0  0  0  0  0  0  0  0
   18.7860   -1.4124  -18.3171 O   0  0  0  0  0  0  0  0  0  0  0  0
   18.0841   -2.2543  -15.2813 O   0  0  0  0  0  0  0  0  0  0  0  0
  2  1  1  6
  2  9  1  0
  3  2  1  0
  4  8  1  0
  4  3  1  0
  5  4  2  0
  6  5  1  0
  6  7  1  0
  7  8  2  0
  9 10  2  0
 11  9  1  0
 11 12  1  0
 12 13  1  1
 13 14  1  0
 14 15  2  0
 16 15  1  0
 17 16  1  0
 18 17  2  0
 18 14  1  0
 19 12  1  0
 19 20  2  0
 21 19  1  0
 22 21  1  0
 22 26  1  0
 22 23  1  6
 24 23  1  0
 24 28  1  0
 25 24  2  0
 26 29  1  0
 27 26  2  0
M  END
$$$$
