HHD.pdb
     RDKit          3D

 29 30  0  0  1  0  0  0  0  0999 V2000
   25.1425  -17.0852  -18.9913 N   0  0  0  0  0  0  0  0  0  0  0  0
   25.8023  -17.4298  -17.7393 C   0  0  1  0  0  0  0  0  0  0  0  0
   26.5502  -16.2051  -17.2658 C   0  0  0  0  0  0  0  0  0  0  0  0
   27.5391  -15.8533  -18.3190 C   0  0  0  0  0  0  0  0  0  0  0  0
   28.4669  -16.7110  -18.9213 C   0  0  0  0  0  0  0  0  0  0  0  0
   29.1830  -16.0301  -19.8223 N   0  0  0  0  0  0  0  0  0  0  0  0
   28.7377  -14.7690  -19.8092 C   0  0  0  0  0  0  0  0  0  0  0  0
   27.7502  -14.6617  -18.9065 N   0  0  0  0  0  0  0  0  0  0  0  0
   24.7903  -17.8810  -16.7604 C   0  0  0  0  0  0  0  0  0  0  0  0
   25.2006  -18.1906  -15.5915 O   0  0  0  0  0  0  0  0  0  0  0  0
   23.4165  -17.9723  -17.0884 N   0  0  0  0  0  0  0  0  0  0  0  0
   22.4774  -18.5076  -16.1529 C   0  0  1  0  0  0  0  0  0  0  0  0
   22.2014  -17.6406  -14.9566 C   0  0  0  0  0  0  0  0  0  0  0  0
   21.3084  -18.2283  -13.9477 C   0  0  0  0  0  0  0  0  0  0  0  0
   21.5570  -19.4059  -13.2923 C   0  0  0  0  0  0  0  0  0  0  0  0
   20.5302  -19.6175  -12.4562 N   0  0  0  0  0  0  0  0  0  0  0  0
   19.6718  -18.5991  -12.5918 C   0  0  0  0  0  0  0  0  0  0  0  0
   20.1495  -17.7475  -13.5064 N   0  0  0  0  0  0  0  0  0  0  0  0
   21.1894  -18.8878  -16.7747 C   0  0  0  0  0  0  0  0  0  0  0  0
   20.6672  -18.0975  -17.5989 O   0  0  0  0  0  0  0  0  0  0  0  0
   20.5075  -20.0938  -16.4894 N   0  0  0  0  0  0  0  0  0  0  0  0
   19.2693  -20.5292  -17.1067 C   0  0  1  0  0  0  0  0  0  0  0  0
   18.9908  -21.9851  -16.9296 C   0  0  0  0  0  0  0  0  0  0  0  0
   17.8305  -22.5041  -17.6492 C   0  0  0  0  0  0  0  0  0  0  0  0
   17.0240  -21.8126  -18.3118 O   0  0  0  0  0  0  0  0  0  0  0  0
   18.1685  -19.7852  -16.4412 C   0  0  0  0  0  0  0  0  0  0  0  0
   18.1733  -19.6864  -15.2019 O   0  0  0  0  0  0  0  0  0  0  0  0
   17.5831  -23.8727  -17.6083 O   0  0  0  0  0  0  0  0  0  0  0  0
   17.1665  -19.2185  -17.1782 O   0  0  0  0  0  0  0  0  0  0  0  0
  2  1  1  6
  2  9  1  0
  3  2  1  0
  4  8  1  0
  4  3  1  0
  5  4  2  0
  6  5  1  0
  6  7  1  0
  7  8  2  0
  9 10  2  0
 11  9  1  0
 11 12  1  0
 12 13  1  1
 13 14  1  0
 14 15  2  0
 16 15  1  0
 17 16  1  0
 18 17  2  0
 18 14  1  0
 19 12  1  0
 19 20  2  0
 21 19  1  0
 22 21  1  0
 22 26  1  0
 22 23  1  1
 24 23  1  0
 24 28  1  0
 25 24  2  0
 26 29  1  0
 27 26  2  0
M  END
$$$$
