HHD.pdb
     RDKit          3D

 29 30  0  0  1  0  0  0  0  0999 V2000
   21.6092  -11.8049  -19.9576 N   0  0  0  0  0  0  0  0  0  0  0  0
   22.1612  -11.0001  -18.8763 C   0  0  1  0  0  0  0  0  0  0  0  0
   22.9502   -9.8740  -19.5030 C   0  0  0  0  0  0  0  0  0  0  0  0
   24.1293  -10.4788  -20.1773 C   0  0  0  0  0  0  0  0  0  0  0  0
   24.4930  -11.8305  -20.1830 C   0  0  0  0  0  0  0  0  0  0  0  0
   25.6133  -11.9871  -20.8962 N   0  0  0  0  0  0  0  0  0  0  0  0
   25.9698  -10.7775  -21.3419 C   0  0  0  0  0  0  0  0  0  0  0  0
   25.0792   -9.8708  -20.9107 N   0  0  0  0  0  0  0  0  0  0  0  0
   21.0601  -10.5050  -18.0230 C   0  0  0  0  0  0  0  0  0  0  0  0
   20.1238   -9.8501  -18.5932 O   0  0  0  0  0  0  0  0  0  0  0  0
   21.0283  -10.7381  -16.6273 N   0  0  0  0  0  0  0  0  0  0  0  0
   19.9848  -10.1882  -15.8197 C   0  0  1  0  0  0  0  0  0  0  0  0
   19.4403  -11.1093  -14.7641 C   0  0  0  0  0  0  0  0  0  0  0  0
   18.6120  -12.2163  -15.2632 C   0  0  0  0  0  0  0  0  0  0  0  0
   18.2403  -12.3695  -16.5734 C   0  0  0  0  0  0  0  0  0  0  0  0
   17.4962  -13.4828  -16.6458 N   0  0  0  0  0  0  0  0  0  0  0  0
   17.4110  -14.0021  -15.4148 C   0  0  0  0  0  0  0  0  0  0  0  0
   18.0953  -13.2252  -14.5675 N   0  0  0  0  0  0  0  0  0  0  0  0
   20.3552   -8.9026  -15.1870 C   0  0  0  0  0  0  0  0  0  0  0  0
   19.4709   -8.2680  -14.5609 O   0  0  0  0  0  0  0  0  0  0  0  0
   21.6527   -8.3430  -15.2510 N   0  0  0  0  0  0  0  0  0  0  0  0
   22.0535   -7.0741  -14.6740 C   0  0  1  0  0  0  0  0  0  0  0  0
   22.1348   -5.9628  -15.6675 C   0  0  0  0  0  0  0  0  0  0  0  0
   22.5910   -4.6760  -15.1484 C   0  0  0  0  0  0  0  0  0  0  0  0
   23.4683   -4.5232  -14.2684 O   0  0  0  0  0  0  0  0  0  0  0  0
   21.0132   -6.7022  -13.6801 C   0  0  0  0  0  0  0  0  0  0  0  0
   19.9784   -7.3877  -13.6083 O   0  0  0  0  0  0  0  0  0  0  0  0
   22.0183   -3.5151  -15.6585 O   0  0  0  0  0  0  0  0  0  0  0  0
   21.1897   -5.6247  -12.8580 O   0  0  0  0  0  0  0  0  0  0  0  0
  2  1  1  6
  2  9  1  0
  3  2  1  0
  4  8  1  0
  4  3  1  0
  5  4  2  0
  6  5  1  0
  6  7  1  0
  7  8  2  0
  9 10  2  0
 11  9  1  0
 11 12  1  0
 12 13  1  1
 13 14  1  0
 14 15  2  0
 16 15  1  0
 17 16  1  0
 18 17  2  0
 18 14  1  0
 19 12  1  0
 19 20  2  0
 21 19  1  0
 22 21  1  0
 22 26  1  0
 22 23  1  6
 24 23  1  0
 24 28  1  0
 25 24  2  0
 26 29  1  0
 27 26  2  0
M  END
$$$$
