HHD.pdb
     RDKit          3D

 29 30  0  0  1  0  0  0  0  0999 V2000
   24.7666  -12.0578  -17.8725 N   0  0  0  0  0  0  0  0  0  0  0  0
   24.6257  -11.4522  -16.5554 C   0  0  1  0  0  0  0  0  0  0  0  0
   25.9870  -10.9456  -16.1385 C   0  0  0  0  0  0  0  0  0  0  0  0
   26.8524  -12.1329  -15.9101 C   0  0  0  0  0  0  0  0  0  0  0  0
   26.5202  -13.4726  -16.1428 C   0  0  0  0  0  0  0  0  0  0  0  0
   27.5574  -14.2515  -15.8171 N   0  0  0  0  0  0  0  0  0  0  0  0
   28.5350  -13.4470  -15.3858 C   0  0  0  0  0  0  0  0  0  0  0  0
   28.1126  -12.1743  -15.4412 N   0  0  0  0  0  0  0  0  0  0  0  0
   23.6210  -10.3695  -16.6192 C   0  0  0  0  0  0  0  0  0  0  0  0
   23.5682   -9.6792  -17.6921 O   0  0  0  0  0  0  0  0  0  0  0  0
   22.7437  -10.0945  -15.5430 N   0  0  0  0  0  0  0  0  0  0  0  0
   21.6920   -9.1369  -15.6857 C   0  0  1  0  0  0  0  0  0  0  0  0
   20.3221   -9.6314  -15.3144 C   0  0  0  0  0  0  0  0  0  0  0  0
   19.7819  -10.6917  -16.1773 C   0  0  0  0  0  0  0  0  0  0  0  0
   20.2142  -10.9400  -17.4539 C   0  0  0  0  0  0  0  0  0  0  0  0
   19.4954  -11.9711  -17.9213 N   0  0  0  0  0  0  0  0  0  0  0  0
   18.6433  -12.3486  -16.9601 C   0  0  0  0  0  0  0  0  0  0  0  0
   18.8194  -11.5638  -15.8911 N   0  0  0  0  0  0  0  0  0  0  0  0
   21.9552   -7.8720  -14.9640 C   0  0  0  0  0  0  0  0  0  0  0  0
   22.2794   -7.9315  -13.7524 O   0  0  0  0  0  0  0  0  0  0  0  0
   21.8579   -6.5938  -15.5620 N   0  0  0  0  0  0  0  0  0  0  0  0
   22.1726   -5.3340  -14.9159 C   0  0  1  0  0  0  0  0  0  0  0  0
   22.4398   -4.2198  -15.8729 C   0  0  0  0  0  0  0  0  0  0  0  0
   23.5995   -4.3923  -16.7440 C   0  0  0  0  0  0  0  0  0  0  0  0
   23.6633   -4.0295  -17.9406 O   0  0  0  0  0  0  0  0  0  0  0  0
   20.9827   -4.9500  -14.1127 C   0  0  0  0  0  0  0  0  0  0  0  0
   21.0718   -3.9895  -13.3283 O   0  0  0  0  0  0  0  0  0  0  0  0
   24.7342   -5.0062  -16.2228 O   0  0  0  0  0  0  0  0  0  0  0  0
   19.8093   -5.6403  -14.2334 O   0  0  0  0  0  0  0  0  0  0  0  0
  2  1  1  6
  2  9  1  0
  3  2  1  0
  4  8  1  0
  4  3  1  0
  5  4  2  0
  6  5  1  0
  6  7  1  0
  7  8  2  0
  9 10  2  0
 11  9  1  0
 11 12  1  0
 12 13  1  1
 13 14  1  0
 14 15  2  0
 16 15  1  0
 17 16  1  0
 18 17  2  0
 18 14  1  0
 19 12  1  0
 19 20  2  0
 21 19  1  0
 22 21  1  0
 22 26  1  0
 22 23  1  6
 24 23  1  0
 24 28  1  0
 25 24  2  0
 26 29  1  0
 27 26  2  0
M  END
$$$$
