HHD.pdb
     RDKit          3D

 29 30  0  0  1  0  0  0  0  0999 V2000
   21.0529  -10.1148  -18.1320 N   0  0  0  0  0  0  0  0  0  0  0  0
   21.6218   -9.2000  -17.1516 C   0  0  1  0  0  0  0  0  0  0  0  0
   22.2975   -8.0813  -17.9101 C   0  0  0  0  0  0  0  0  0  0  0  0
   23.4493   -8.6724  -18.6415 C   0  0  0  0  0  0  0  0  0  0  0  0
   23.6621   -8.6609  -20.0249 C   0  0  0  0  0  0  0  0  0  0  0  0
   24.8075   -9.2920  -20.3044 N   0  0  0  0  0  0  0  0  0  0  0  0
   25.3260   -9.7023  -19.1418 C   0  0  0  0  0  0  0  0  0  0  0  0
   24.5109   -9.3307  -18.1422 N   0  0  0  0  0  0  0  0  0  0  0  0
   20.5487   -8.7054  -16.2630 C   0  0  0  0  0  0  0  0  0  0  0  0
   19.4025   -8.4967  -16.7856 O   0  0  0  0  0  0  0  0  0  0  0  0
   20.7652   -8.4670  -14.8847 N   0  0  0  0  0  0  0  0  0  0  0  0
   19.7068   -7.9863  -14.0527 C   0  0  1  0  0  0  0  0  0  0  0  0
   19.7702   -8.4288  -12.6176 C   0  0  0  0  0  0  0  0  0  0  0  0
   18.6234   -8.0336  -11.7873 C   0  0  0  0  0  0  0  0  0  0  0  0
   17.6073   -7.2197  -12.2156 C   0  0  0  0  0  0  0  0  0  0  0  0
   16.7508   -7.0850  -11.1926 N   0  0  0  0  0  0  0  0  0  0  0  0
   17.2249   -7.7958  -10.1619 C   0  0  0  0  0  0  0  0  0  0  0  0
   18.3731   -8.3772  -10.5271 N   0  0  0  0  0  0  0  0  0  0  0  0
   19.5583   -6.5144  -14.0927 C   0  0  0  0  0  0  0  0  0  0  0  0
   20.5644   -5.8053  -13.8451 O   0  0  0  0  0  0  0  0  0  0  0  0
   18.3415   -5.8575  -14.3908 N   0  0  0  0  0  0  0  0  0  0  0  0
   18.1513   -4.4210  -14.4519 C   0  0  1  0  0  0  0  0  0  0  0  0
   18.0680   -3.8860  -15.8431 C   0  0  0  0  0  0  0  0  0  0  0  0
   17.7876   -2.4574  -15.9608 C   0  0  0  0  0  0  0  0  0  0  0  0
   16.6801   -1.9628  -16.2712 O   0  0  0  0  0  0  0  0  0  0  0  0
   16.8549   -4.1269  -13.7877 C   0  0  0  0  0  0  0  0  0  0  0  0
   16.0115   -5.0349  -13.6875 O   0  0  0  0  0  0  0  0  0  0  0  0
   18.8190   -1.5571  -15.7127 O   0  0  0  0  0  0  0  0  0  0  0  0
   16.5928   -2.8794  -13.2947 O   0  0  0  0  0  0  0  0  0  0  0  0
  2  1  1  6
  2  9  1  0
  3  2  1  0
  4  8  1  0
  4  3  1  0
  5  4  2  0
  6  5  1  0
  6  7  1  0
  7  8  2  0
  9 10  2  0
 11  9  1  0
 11 12  1  0
 12 13  1  1
 13 14  1  0
 14 15  2  0
 16 15  1  0
 17 16  1  0
 18 17  2  0
 18 14  1  0
 19 12  1  0
 19 20  2  0
 21 19  1  0
 22 21  1  0
 22 26  1  0
 22 23  1  6
 24 23  1  0
 24 28  1  0
 25 24  2  0
 26 29  1  0
 27 26  2  0
M  END
$$$$
