HHD.pdb
     RDKit          3D

 29 30  0  0  1  0  0  0  0  0999 V2000
   14.2611  -12.5750  -12.9723 N   0  0  0  0  0  0  0  0  0  0  0  0
   15.5505  -12.2105  -12.4012 C   0  0  1  0  0  0  0  0  0  0  0  0
   16.6163  -12.5882  -13.4036 C   0  0  0  0  0  0  0  0  0  0  0  0
   16.6593  -14.0729  -13.4687 C   0  0  0  0  0  0  0  0  0  0  0  0
   17.3750  -14.9311  -12.6258 C   0  0  0  0  0  0  0  0  0  0  0  0
   17.1638  -16.1983  -12.9973 N   0  0  0  0  0  0  0  0  0  0  0  0
   16.3372  -16.1690  -14.0484 C   0  0  0  0  0  0  0  0  0  0  0  0
   16.0335  -14.8928  -14.3324 N   0  0  0  0  0  0  0  0  0  0  0  0
   15.5586  -10.7645  -12.0935 C   0  0  0  0  0  0  0  0  0  0  0  0
   15.2669   -9.9603  -13.0415 O   0  0  0  0  0  0  0  0  0  0  0  0
   15.8749  -10.2726  -10.8045 N   0  0  0  0  0  0  0  0  0  0  0  0
   15.8112   -8.8727  -10.5222 C   0  0  1  0  0  0  0  0  0  0  0  0
   15.2538   -8.5172   -9.1724 C   0  0  0  0  0  0  0  0  0  0  0  0
   15.2169   -7.0799   -8.8669 C   0  0  0  0  0  0  0  0  0  0  0  0
   15.6888   -6.1027   -9.7039 C   0  0  0  0  0  0  0  0  0  0  0  0
   15.4865   -4.9266   -9.0923 N   0  0  0  0  0  0  0  0  0  0  0  0
   14.9061   -5.1709   -7.9109 C   0  0  0  0  0  0  0  0  0  0  0  0
   14.7410   -6.4914   -7.7732 N   0  0  0  0  0  0  0  0  0  0  0  0
   17.1089   -8.1839  -10.6997 C   0  0  0  0  0  0  0  0  0  0  0  0
   18.1230   -8.6654  -10.1372 O   0  0  0  0  0  0  0  0  0  0  0  0
   17.2727   -7.0066  -11.4666 N   0  0  0  0  0  0  0  0  0  0  0  0
   18.5421   -6.4259  -11.8600 C   0  0  1  0  0  0  0  0  0  0  0  0
   19.4477   -7.3834  -12.5612 C   0  0  0  0  0  0  0  0  0  0  0  0
   20.6942   -6.8218  -13.0752 C   0  0  0  0  0  0  0  0  0  0  0  0
   21.1924   -5.7286  -12.7225 O   0  0  0  0  0  0  0  0  0  0  0  0
   18.2389   -5.3268  -12.8131 C   0  0  0  0  0  0  0  0  0  0  0  0
   17.1308   -5.3086  -13.3765 O   0  0  0  0  0  0  0  0  0  0  0  0
   21.4001   -7.5423  -14.0335 O   0  0  0  0  0  0  0  0  0  0  0  0
   19.1621   -4.3514  -13.0671 O   0  0  0  0  0  0  0  0  0  0  0  0
  2  1  1  6
  2  9  1  0
  3  2  1  0
  4  8  1  0
  4  3  1  0
  5  4  2  0
  6  5  1  0
  6  7  1  0
  7  8  2  0
  9 10  2  0
 11  9  1  0
 11 12  1  0
 12 13  1  1
 13 14  1  0
 14 15  2  0
 16 15  1  0
 17 16  1  0
 18 17  2  0
 18 14  1  0
 19 12  1  0
 19 20  2  0
 21 19  1  0
 22 21  1  0
 22 26  1  0
 22 23  1  6
 24 23  1  0
 24 28  1  0
 25 24  2  0
 26 29  1  0
 27 26  2  0
M  END
$$$$
