HHD.pdb
     RDKit          3D

 29 30  0  0  1  0  0  0  0  0999 V2000
   23.3452  -36.1241  -12.9205 N   0  0  0  0  0  0  0  0  0  0  0  0
   24.6251  -36.7013  -12.5329 C   0  0  1  0  0  0  0  0  0  0  0  0
   25.3934  -36.9986  -13.7997 C   0  0  0  0  0  0  0  0  0  0  0  0
   24.8344  -38.2503  -14.3753 C   0  0  0  0  0  0  0  0  0  0  0  0
   24.3698  -38.4406  -15.6819 C   0  0  0  0  0  0  0  0  0  0  0  0
   23.9435  -39.7002  -15.8238 N   0  0  0  0  0  0  0  0  0  0  0  0
   24.1237  -40.3127  -14.6485 C   0  0  0  0  0  0  0  0  0  0  0  0
   24.6587  -39.4427  -13.7777 N   0  0  0  0  0  0  0  0  0  0  0  0
   25.3424  -35.7550  -11.6522 C   0  0  0  0  0  0  0  0  0  0  0  0
   26.5114  -36.0876  -11.2606 O   0  0  0  0  0  0  0  0  0  0  0  0
   24.7715  -34.5243  -11.2486 N   0  0  0  0  0  0  0  0  0  0  0  0
   25.4522  -33.6730  -10.3237 C   0  0  1  0  0  0  0  0  0  0  0  0
   25.9339  -32.3674  -10.8916 C   0  0  0  0  0  0  0  0  0  0  0  0
   26.6328  -32.4631  -12.1812 C   0  0  0  0  0  0  0  0  0  0  0  0
   26.9393  -33.6445  -12.8046 C   0  0  0  0  0  0  0  0  0  0  0  0
   27.5696  -33.3365  -13.9475 N   0  0  0  0  0  0  0  0  0  0  0  0
   27.6498  -32.0025  -14.0273 C   0  0  0  0  0  0  0  0  0  0  0  0
   27.0752  -31.4675  -12.9440 N   0  0  0  0  0  0  0  0  0  0  0  0
   24.6683  -33.4008   -9.0984 C   0  0  0  0  0  0  0  0  0  0  0  0
   23.4627  -33.0721   -9.2208 O   0  0  0  0  0  0  0  0  0  0  0  0
   25.2026  -33.4859   -7.7914 N   0  0  0  0  0  0  0  0  0  0  0  0
   24.4502  -33.3337   -6.5609 C   0  0  1  0  0  0  0  0  0  0  0  0
   23.3381  -34.3185   -6.4125 C   0  0  0  0  0  0  0  0  0  0  0  0
   22.5334  -34.1933   -5.2000 C   0  0  0  0  0  0  0  0  0  0  0  0
   22.6280  -33.2660   -4.3640 O   0  0  0  0  0  0  0  0  0  0  0  0
   25.3989  -33.5674   -5.4412 C   0  0  0  0  0  0  0  0  0  0  0  0
   26.5272  -34.0237   -5.6950 O   0  0  0  0  0  0  0  0  0  0  0  0
   21.5801  -35.1710   -4.9335 O   0  0  0  0  0  0  0  0  0  0  0  0
   25.0382  -33.2860   -4.1532 O   0  0  0  0  0  0  0  0  0  0  0  0
  2  1  1  6
  2  9  1  0
  3  2  1  0
  4  8  1  0
  4  3  1  0
  5  4  2  0
  6  5  1  0
  6  7  1  0
  7  8  2  0
  9 10  2  0
 11  9  1  0
 11 12  1  0
 12 13  1  6
 13 14  1  0
 14 15  2  0
 16 15  1  0
 17 16  1  0
 18 17  2  0
 18 14  1  0
 19 12  1  0
 19 20  2  0
 21 19  1  0
 22 21  1  0
 22 26  1  0
 22 23  1  6
 24 23  1  0
 24 28  1  0
 25 24  2  0
 26 29  1  0
 27 26  2  0
M  END
$$$$
