CAC.pdb
     RDKit          3D

 18 17  0  0  1  0  0  0  0  0999 V2000
   18.6864  -11.2213  -14.8325 N   0  0  0  0  0  0  0  0  0  0  0  0
   17.6935  -10.1972  -14.9109 C   0  0  1  0  0  0  0  0  0  0  0  0
   16.3293  -10.8919  -14.8978 C   0  0  0  0  0  0  0  0  0  0  0  0
   16.0093  -11.7097  -16.4838 S   0  0  0  0  0  0  0  0  0  0  0  0
   17.8179   -9.2174  -13.8125 C   0  0  0  0  0  0  0  0  0  0  0  0
   18.0039   -9.5476  -12.6339 O   0  0  0  0  0  0  0  0  0  0  0  0
   18.1043   -5.4378  -13.8016 C   0  0  0  0  0  0  0  0  0  0  0  0
   17.8843   -6.7904  -13.1584 C   0  0  2  0  0  0  0  0  0  0  0  0
   17.7192   -7.8322  -14.1248 N   0  0  0  0  0  0  0  0  0  0  0  0
   16.7470   -6.7695  -12.2165 C   0  0  0  0  0  0  0  0  0  0  0  0
   15.5931   -6.9858  -12.6480 O   0  0  0  0  0  0  0  0  0  0  0  0
   16.9963   -6.5041  -10.8467 N   0  0  0  0  0  0  0  0  0  0  0  0
   15.8967   -6.5178   -9.9172 C   0  0  1  0  0  0  0  0  0  0  0  0
   16.3861   -7.0277   -8.5724 C   0  0  0  0  0  0  0  0  0  0  0  0
   15.0127   -7.1271   -7.3988 S   0  0  0  0  0  0  0  0  0  0  0  0
   15.2808   -5.1816   -9.8019 C   0  0  0  0  0  0  0  0  0  0  0  0
   16.0151   -4.1675   -9.8967 O   0  0  0  0  0  0  0  0  0  0  0  0
   13.9363   -5.0023   -9.5952 O   0  0  0  0  0  0  0  0  0  0  0  0
  2  1  1  1
  2  3  1  0
  4  3  1  0
  5  2  1  0
  6  5  2  0
  8  7  1  6
  8  9  1  0
  9  5  1  0
 10  8  1  0
 10 12  1  0
 11 10  2  0
 13 14  1  1
 13 12  1  0
 13 16  1  0
 14 15  1  0
 16 18  1  0
 17 16  2  0
M  END
$$$$
