CAC.pdb
     RDKit          3D

 18 17  0  0  1  0  0  0  0  0999 V2000
   19.7160  -12.6378  -16.6383 N   0  0  0  0  0  0  0  0  0  0  0  0
   18.8105  -11.5536  -16.4252 C   0  0  1  0  0  0  0  0  0  0  0  0
   18.2571  -11.7027  -15.0056 C   0  0  0  0  0  0  0  0  0  0  0  0
   17.3263  -13.2494  -14.8377 S   0  0  0  0  0  0  0  0  0  0  0  0
   19.4585  -10.2411  -16.6236 C   0  0  0  0  0  0  0  0  0  0  0  0
   20.6465  -10.0285  -16.3475 O   0  0  0  0  0  0  0  0  0  0  0  0
   18.2289   -6.9829  -18.1455 C   0  0  0  0  0  0  0  0  0  0  0  0
   19.1883   -7.8525  -17.3613 C   0  0  2  0  0  0  0  0  0  0  0  0
   18.6810   -9.1743  -17.1560 N   0  0  0  0  0  0  0  0  0  0  0  0
   19.5608   -7.2324  -16.0738 C   0  0  0  0  0  0  0  0  0  0  0  0
   18.8983   -7.5080  -15.0493 O   0  0  0  0  0  0  0  0  0  0  0  0
   20.6616   -6.3403  -16.0358 N   0  0  0  0  0  0  0  0  0  0  0  0
   21.0486   -5.7555  -14.7783 C   0  0  1  0  0  0  0  0  0  0  0  0
   22.0824   -6.6462  -14.1106 C   0  0  0  0  0  0  0  0  0  0  0  0
   22.7270   -5.8530  -12.6176 S   0  0  0  0  0  0  0  0  0  0  0  0
   21.5521   -4.3806  -14.9634 C   0  0  0  0  0  0  0  0  0  0  0  0
   22.3165   -4.1421  -15.9306 O   0  0  0  0  0  0  0  0  0  0  0  0
   21.2182   -3.3509  -14.1204 O   0  0  0  0  0  0  0  0  0  0  0  0
  2  1  1  1
  2  3  1  0
  4  3  1  0
  5  2  1  0
  6  5  2  0
  8  7  1  1
  8  9  1  0
  9  5  1  0
 10  8  1  0
 10 12  1  0
 11 10  2  0
 13 14  1  6
 13 12  1  0
 13 16  1  0
 14 15  1  0
 16 18  1  0
 17 16  2  0
M  END
$$$$
