CAC.pdb
     RDKit          3D

 18 17  0  0  1  0  0  0  0  0999 V2000
   22.3903  -21.6270  -11.2588 N   0  0  0  0  0  0  0  0  0  0  0  0
   23.4604  -20.7400  -11.5889 C   0  0  1  0  0  0  0  0  0  0  0  0
   24.6683  -21.1604  -10.7474 C   0  0  0  0  0  0  0  0  0  0  0  0
   24.4839  -20.5998   -9.0332 S   0  0  0  0  0  0  0  0  0  0  0  0
   23.7692  -20.7550  -13.0333 C   0  0  0  0  0  0  0  0  0  0  0  0
   24.1828  -21.7622  -13.6227 O   0  0  0  0  0  0  0  0  0  0  0  0
   23.2166  -18.2258  -15.7991 C   0  0  0  0  0  0  0  0  0  0  0  0
   23.8636  -19.4452  -15.1776 C   0  0  2  0  0  0  0  0  0  0  0  0
   23.5825  -19.5574  -13.7794 N   0  0  0  0  0  0  0  0  0  0  0  0
   25.3203  -19.4742  -15.4192 C   0  0  0  0  0  0  0  0  0  0  0  0
   26.0678  -18.7449  -14.7309 O   0  0  0  0  0  0  0  0  0  0  0  0
   25.8310  -20.3301  -16.4270 N   0  0  0  0  0  0  0  0  0  0  0  0
   27.2509  -20.3692  -16.6622 C   0  0  1  0  0  0  0  0  0  0  0  0
   27.7905  -21.7239  -16.2361 C   0  0  0  0  0  0  0  0  0  0  0  0
   27.4327  -22.0229  -14.4879 S   0  0  0  0  0  0  0  0  0  0  0  0
   27.5645  -20.0775  -18.0745 C   0  0  0  0  0  0  0  0  0  0  0  0
   26.6180  -19.8751  -18.8744 O   0  0  0  0  0  0  0  0  0  0  0  0
   28.8503  -20.0185  -18.5496 O   0  0  0  0  0  0  0  0  0  0  0  0
  2  1  1  6
  2  3  1  0
  4  3  1  0
  5  2  1  0
  6  5  2  0
  8  7  1  1
  8  9  1  0
  9  5  1  0
 10  8  1  0
 10 12  1  0
 11 10  2  0
 13 14  1  6
 13 12  1  0
 13 16  1  0
 14 15  1  0
 16 18  1  0
 17 16  2  0
M  END
$$$$
