CAC.pdb
     RDKit          3D

 18 17  0  0  1  0  0  0  0  0999 V2000
   19.1758  -12.9140  -16.9132 N   0  0  0  0  0  0  0  0  0  0  0  0
   20.1311  -11.9793  -17.4176 C   0  0  1  0  0  0  0  0  0  0  0  0
   19.4925  -11.2931  -18.6280 C   0  0  0  0  0  0  0  0  0  0  0  0
   19.4598  -12.4091  -20.0564 S   0  0  0  0  0  0  0  0  0  0  0  0
   20.5469  -11.0012  -16.3918 C   0  0  0  0  0  0  0  0  0  0  0  0
   19.7426  -10.4165  -15.6542 O   0  0  0  0  0  0  0  0  0  0  0  0
   23.9466   -9.9389  -15.0936 C   0  0  0  0  0  0  0  0  0  0  0  0
   22.4553   -9.7806  -15.3007 C   0  0  2  0  0  0  0  0  0  0  0  0
   21.9345  -10.7195  -16.2461 N   0  0  0  0  0  0  0  0  0  0  0  0
   22.1007   -8.4005  -15.6888 C   0  0  0  0  0  0  0  0  0  0  0  0
   22.1505   -8.0738  -16.8951 O   0  0  0  0  0  0  0  0  0  0  0  0
   21.7129   -7.4830  -14.6803 N   0  0  0  0  0  0  0  0  0  0  0  0
   21.4493   -6.1140  -15.0399 C   0  0  1  0  0  0  0  0  0  0  0  0
   19.9771   -5.8135  -14.8154 C   0  0  0  0  0  0  0  0  0  0  0  0
   18.9515   -6.8639  -15.8730 S   0  0  0  0  0  0  0  0  0  0  0  0
   22.3156   -5.1890  -14.2837 C   0  0  0  0  0  0  0  0  0  0  0  0
   22.9144   -5.6171  -13.2665 O   0  0  0  0  0  0  0  0  0  0  0  0
   22.4936   -3.8781  -14.6478 O   0  0  0  0  0  0  0  0  0  0  0  0
  2  1  1  1
  2  3  1  0
  4  3  1  0
  5  2  1  0
  6  5  2  0
  8  7  1  6
  8  9  1  0
  9  5  1  0
 10  8  1  0
 10 12  1  0
 11 10  2  0
 13 14  1  1
 13 12  1  0
 13 16  1  0
 14 15  1  0
 16 18  1  0
 17 16  2  0
M  END
$$$$
