CAC.pdb
     RDKit          3D

 18 17  0  0  1  0  0  0  0  0999 V2000
   18.0310  -12.6459  -15.9083 N   0  0  0  0  0  0  0  0  0  0  0  0
   17.5257  -11.4422  -15.3280 C   0  0  1  0  0  0  0  0  0  0  0  0
   17.5387  -11.6356  -13.8094 C   0  0  0  0  0  0  0  0  0  0  0  0
   16.1879  -12.7270  -13.2889 S   0  0  0  0  0  0  0  0  0  0  0  0
   18.3093  -10.2578  -15.7343 C   0  0  0  0  0  0  0  0  0  0  0  0
   19.5466  -10.2519  -15.7781 O   0  0  0  0  0  0  0  0  0  0  0  0
   17.3542   -6.9690  -17.3169 C   0  0  0  0  0  0  0  0  0  0  0  0
   18.2580   -7.8610  -16.4927 C   0  0  2  0  0  0  0  0  0  0  0  0
   17.6091   -9.0710  -16.0912 N   0  0  0  0  0  0  0  0  0  0  0  0
   18.8056   -7.1503  -15.3197 C   0  0  0  0  0  0  0  0  0  0  0  0
   18.2260   -7.2565  -14.2164 O   0  0  0  0  0  0  0  0  0  0  0  0
   19.9755   -6.3660  -15.4780 N   0  0  0  0  0  0  0  0  0  0  0  0
   20.5352   -5.7000  -14.3308 C   0  0  1  0  0  0  0  0  0  0  0  0
   21.7640   -6.4606  -13.8621 C   0  0  0  0  0  0  0  0  0  0  0  0
   22.5801   -5.5701  -12.5150 S   0  0  0  0  0  0  0  0  0  0  0  0
   20.8501   -4.2905  -14.6349 C   0  0  0  0  0  0  0  0  0  0  0  0
   21.2622   -3.9978  -15.7842 O   0  0  0  0  0  0  0  0  0  0  0  0
   20.7105   -3.2856  -13.7112 O   0  0  0  0  0  0  0  0  0  0  0  0
  2  1  1  6
  2  3  1  0
  4  3  1  0
  5  2  1  0
  6  5  2  0
  8  7  1  1
  8  9  1  0
  9  5  1  0
 10  8  1  0
 10 12  1  0
 11 10  2  0
 13 14  1  6
 13 12  1  0
 13 16  1  0
 14 15  1  0
 16 18  1  0
 17 16  2  0
M  END
$$$$
