CAC.pdb
     RDKit          3D

 18 17  0  0  1  0  0  0  0  0999 V2000
   23.8565  -11.1443  -18.2430 N   0  0  0  0  0  0  0  0  0  0  0  0
   23.1547  -11.0720  -17.0008 C   0  0  1  0  0  0  0  0  0  0  0  0
   24.2081  -11.0554  -15.8900 C   0  0  0  0  0  0  0  0  0  0  0  0
   25.0606  -12.6522  -15.7887 S   0  0  0  0  0  0  0  0  0  0  0  0
   22.2687   -9.8922  -16.9309 C   0  0  0  0  0  0  0  0  0  0  0  0
   22.6175   -8.7654  -17.3071 O   0  0  0  0  0  0  0  0  0  0  0  0
   18.6052   -9.5006  -16.0230 C   0  0  0  0  0  0  0  0  0  0  0  0
   20.0050   -8.9962  -16.3024 C   0  0  2  0  0  0  0  0  0  0  0  0
   20.9558  -10.0599  -16.4074 N   0  0  0  0  0  0  0  0  0  0  0  0
   20.4405   -8.0065  -15.2964 C   0  0  0  0  0  0  0  0  0  0  0  0
   21.1493   -8.3828  -14.3371 O   0  0  0  0  0  0  0  0  0  0  0  0
   20.0417   -6.6548  -15.4474 N   0  0  0  0  0  0  0  0  0  0  0  0
   20.5090   -5.6749  -14.5017 C   0  0  1  0  0  0  0  0  0  0  0  0
   22.0265   -5.6200  -14.5483 C   0  0  0  0  0  0  0  0  0  0  0  0
   22.6417   -4.2927  -13.4837 S   0  0  0  0  0  0  0  0  0  0  0  0
   19.9077   -4.3529  -14.7644 C   0  0  0  0  0  0  0  0  0  0  0  0
   19.6913   -4.0129  -15.9536 O   0  0  0  0  0  0  0  0  0  0  0  0
   19.5750   -3.4790  -13.7603 O   0  0  0  0  0  0  0  0  0  0  0  0
  2  1  1  6
  2  3  1  0
  4  3  1  0
  5  2  1  0
  6  5  2  0
  8  7  1  1
  8  9  1  0
  9  5  1  0
 10  8  1  0
 10 12  1  0
 11 10  2  0
 13 14  1  6
 13 12  1  0
 13 16  1  0
 14 15  1  0
 16 18  1  0
 17 16  2  0
M  END
$$$$
