CAC.pdb
     RDKit          3D

 18 17  0  0  1  0  0  0  0  0999 V2000
   24.0632   -4.9218  -16.3867 N   0  0  0  0  0  0  0  0  0  0  0  0
   22.7994   -5.4821  -16.0267 C   0  0  1  0  0  0  0  0  0  0  0  0
   21.7379   -4.7801  -16.8776 C   0  0  0  0  0  0  0  0  0  0  0  0
   21.4375   -3.0980  -16.2717 S   0  0  0  0  0  0  0  0  0  0  0  0
   22.7676   -6.9471  -16.2131 C   0  0  0  0  0  0  0  0  0  0  0  0
   23.6228   -7.5614  -16.8643 O   0  0  0  0  0  0  0  0  0  0  0  0
   22.7643   -9.8163  -15.0529 C   0  0  0  0  0  0  0  0  0  0  0  0
   21.5905   -9.1076  -15.6947 C   0  0  2  0  0  0  0  0  0  0  0  0
   21.7057   -7.6838  -15.6169 N   0  0  0  0  0  0  0  0  0  0  0  0
   20.3035   -9.5572  -15.1268 C   0  0  0  0  0  0  0  0  0  0  0  0
   19.9863   -9.1958  -13.9722 O   0  0  0  0  0  0  0  0  0  0  0  0
   19.4621  -10.3878  -15.9088 N   0  0  0  0  0  0  0  0  0  0  0  0
   18.1712  -10.7636  -15.3937 C   0  0  1  0  0  0  0  0  0  0  0  0
   17.1175  -10.5187  -16.4603 C   0  0  0  0  0  0  0  0  0  0  0  0
   15.4869  -11.0268  -15.8630 S   0  0  0  0  0  0  0  0  0  0  0  0
   18.1686  -12.1672  -14.9373 C   0  0  0  0  0  0  0  0  0  0  0  0
   18.8141  -13.0184  -15.5971 O   0  0  0  0  0  0  0  0  0  0  0  0
   17.4883  -12.5802  -13.8197 O   0  0  0  0  0  0  0  0  0  0  0  0
  2  1  1  6
  2  3  1  0
  4  3  1  0
  5  2  1  0
  6  5  2  0
  8  7  1  1
  8  9  1  0
  9  5  1  0
 10  8  1  0
 10 12  1  0
 11 10  2  0
 13 14  1  6
 13 12  1  0
 13 16  1  0
 14 15  1  0
 16 18  1  0
 17 16  2  0
M  END
$$$$
