CAC.pdb
     RDKit          3D

 18 17  0  0  1  0  0  0  0  0999 V2000
   24.0243  -11.4711  -18.4360 N   0  0  0  0  0  0  0  0  0  0  0  0
   23.7602  -10.9606  -17.1282 C   0  0  1  0  0  0  0  0  0  0  0  0
   25.1153  -10.7118  -16.4608 C   0  0  0  0  0  0  0  0  0  0  0  0
   25.9319  -12.2800  -16.0599 S   0  0  0  0  0  0  0  0  0  0  0  0
   22.9369   -9.7347  -17.1660 C   0  0  0  0  0  0  0  0  0  0  0  0
   23.2688   -8.7202  -17.7932 O   0  0  0  0  0  0  0  0  0  0  0  0
   19.3751   -9.0404  -16.1608 C   0  0  0  0  0  0  0  0  0  0  0  0
   20.7972   -8.6174  -16.4619 C   0  0  2  0  0  0  0  0  0  0  0  0
   21.7075   -9.7209  -16.4488 N   0  0  0  0  0  0  0  0  0  0  0  0
   21.2565   -7.5532  -15.5467 C   0  0  0  0  0  0  0  0  0  0  0  0
   22.2409   -7.7684  -14.8056 O   0  0  0  0  0  0  0  0  0  0  0  0
   20.5669   -6.3150  -15.5343 N   0  0  0  0  0  0  0  0  0  0  0  0
   21.0905   -5.2272  -14.7498 C   0  0  1  0  0  0  0  0  0  0  0  0
   22.5382   -4.9820  -15.1397 C   0  0  0  0  0  0  0  0  0  0  0  0
   23.2068   -3.5719  -14.2242 S   0  0  0  0  0  0  0  0  0  0  0  0
   20.2694   -4.0115  -14.9109 C   0  0  0  0  0  0  0  0  0  0  0  0
   19.8819   -3.6922  -16.0618 O   0  0  0  0  0  0  0  0  0  0  0  0
   19.9118   -3.2149  -13.8526 O   0  0  0  0  0  0  0  0  0  0  0  0
  2  1  1  6
  2  3  1  0
  4  3  1  0
  5  2  1  0
  6  5  2  0
  8  7  1  1
  8  9  1  0
  9  5  1  0
 10  8  1  0
 10 12  1  0
 11 10  2  0
 13 14  1  6
 13 12  1  0
 13 16  1  0
 14 15  1  0
 16 18  1  0
 17 16  2  0
M  END
$$$$
