CAC.pdb
     RDKit          3D

 18 17  0  0  1  0  0  0  0  0999 V2000
   19.3758  -12.2702  -16.1717 N   0  0  0  0  0  0  0  0  0  0  0  0
   19.4243  -11.0511  -16.9147 C   0  0  1  0  0  0  0  0  0  0  0  0
   18.0004  -10.4898  -16.9506 C   0  0  0  0  0  0  0  0  0  0  0  0
   16.9447  -11.4844  -18.0383 S   0  0  0  0  0  0  0  0  0  0  0  0
   20.3779  -10.0840  -16.3341 C   0  0  0  0  0  0  0  0  0  0  0  0
   20.3912   -9.7913  -15.1312 O   0  0  0  0  0  0  0  0  0  0  0  0
   23.4360   -8.3575  -17.7476 C   0  0  0  0  0  0  0  0  0  0  0  0
   22.3141   -8.5335  -16.7465 C   0  0  2  0  0  0  0  0  0  0  0  0
   21.3232   -9.4617  -17.1974 N   0  0  0  0  0  0  0  0  0  0  0  0
   21.6929   -7.2424  -16.3887 C   0  0  0  0  0  0  0  0  0  0  0  0
   20.7119   -6.8334  -17.0482 O   0  0  0  0  0  0  0  0  0  0  0  0
   22.2277   -6.5014  -15.3052 N   0  0  0  0  0  0  0  0  0  0  0  0
   21.6293   -5.2398  -14.9538 C   0  0  1  0  0  0  0  0  0  0  0  0
   21.2925   -5.2424  -13.4724 C   0  0  0  0  0  0  0  0  0  0  0  0
   22.6981   -5.8490  -12.5080 S   0  0  0  0  0  0  0  0  0  0  0  0
   22.5145   -4.1137  -15.3093 C   0  0  0  0  0  0  0  0  0  0  0  0
   23.6409   -4.3635  -15.8048 O   0  0  0  0  0  0  0  0  0  0  0  0
   22.1561   -2.8029  -15.1200 O   0  0  0  0  0  0  0  0  0  0  0  0
  2  1  1  1
  2  3  1  0
  4  3  1  0
  5  2  1  0
  6  5  2  0
  8  7  1  6
  8  9  1  0
  9  5  1  0
 10  8  1  0
 10 12  1  0
 11 10  2  0
 13 14  1  1
 13 12  1  0
 13 16  1  0
 14 15  1  0
 16 18  1  0
 17 16  2  0
M  END
$$$$
