CAC.pdb
     RDKit          3D

 18 17  0  0  1  0  0  0  0  0999 V2000
   17.4740  -11.3908  -16.8303 N   0  0  0  0  0  0  0  0  0  0  0  0
   17.0219  -10.5070  -15.8030 C   0  0  1  0  0  0  0  0  0  0  0  0
   17.3285  -11.1813  -14.4632 C   0  0  0  0  0  0  0  0  0  0  0  0
   16.1561  -12.5251  -14.1368 S   0  0  0  0  0  0  0  0  0  0  0  0
   17.6511   -9.1741  -15.9000 C   0  0  0  0  0  0  0  0  0  0  0  0
   18.8470   -9.0128  -16.1768 O   0  0  0  0  0  0  0  0  0  0  0  0
   16.1334   -5.7070  -15.9920 C   0  0  0  0  0  0  0  0  0  0  0  0
   17.2850   -6.6864  -15.9134 C   0  0  2  0  0  0  0  0  0  0  0  0
   16.8451   -8.0248  -15.6646 N   0  0  0  0  0  0  0  0  0  0  0  0
   18.2868   -6.2732  -14.9101 C   0  0  0  0  0  0  0  0  0  0  0  0
   18.1532   -6.6475  -13.7241 O   0  0  0  0  0  0  0  0  0  0  0  0
   19.3740   -5.4619  -15.3209 N   0  0  0  0  0  0  0  0  0  0  0  0
   20.3600   -5.0644  -14.3499 C   0  0  1  0  0  0  0  0  0  0  0  0
   21.5972   -5.9313  -14.5109 C   0  0  0  0  0  0  0  0  0  0  0  0
   22.9383   -5.3154  -13.4642 S   0  0  0  0  0  0  0  0  0  0  0  0
   20.6806   -3.6291  -14.4740 C   0  0  0  0  0  0  0  0  0  0  0  0
   20.6172   -3.0915  -15.6070 O   0  0  0  0  0  0  0  0  0  0  0  0
   21.0455   -2.8573  -13.4000 O   0  0  0  0  0  0  0  0  0  0  0  0
  2  1  1  6
  2  3  1  0
  4  3  1  0
  5  2  1  0
  6  5  2  0
  8  7  1  1
  8  9  1  0
  9  5  1  0
 10  8  1  0
 10 12  1  0
 11 10  2  0
 13 14  1  6
 13 12  1  0
 13 16  1  0
 14 15  1  0
 16 18  1  0
 17 16  2  0
M  END
$$$$
