CAC.pdb
     RDKit          3D

 18 17  0  0  1  0  0  0  0  0999 V2000
   18.4209  -10.8734  -15.3293 N   0  0  0  0  0  0  0  0  0  0  0  0
   19.3794   -9.9597  -15.8654 C   0  0  1  0  0  0  0  0  0  0  0  0
   19.1510   -9.9054  -17.3782 C   0  0  0  0  0  0  0  0  0  0  0  0
   19.7088  -11.4389  -18.1680 S   0  0  0  0  0  0  0  0  0  0  0  0
   19.2765   -8.6212  -15.2492 C   0  0  0  0  0  0  0  0  0  0  0  0
   18.1941   -8.0972  -14.9547 O   0  0  0  0  0  0  0  0  0  0  0  0
   21.8775   -6.2279  -13.8799 C   0  0  0  0  0  0  0  0  0  0  0  0
   20.5028   -6.5997  -14.3936 C   0  0  2  0  0  0  0  0  0  0  0  0
   20.4762   -7.9031  -14.9826 N   0  0  0  0  0  0  0  0  0  0  0  0
   19.9810   -5.5913  -15.3380 C   0  0  0  0  0  0  0  0  0  0  0  0
   20.2200   -5.7174  -16.5593 O   0  0  0  0  0  0  0  0  0  0  0  0
   19.2220   -4.5064  -14.8321 N   0  0  0  0  0  0  0  0  0  0  0  0
   18.7194   -3.5141  -15.7463 C   0  0  1  0  0  0  0  0  0  0  0  0
   17.3136   -3.1172  -15.3289 C   0  0  0  0  0  0  0  0  0  0  0  0
   16.2060   -4.5457  -15.4087 S   0  0  0  0  0  0  0  0  0  0  0  0
   19.6188   -2.3458  -15.8106 C   0  0  0  0  0  0  0  0  0  0  0  0
   20.2715   -2.0285  -14.7859 O   0  0  0  0  0  0  0  0  0  0  0  0
   19.7711   -1.5912  -16.9464 O   0  0  0  0  0  0  0  0  0  0  0  0
  2  1  1  1
  2  3  1  0
  4  3  1  0
  5  2  1  0
  6  5  2  0
  8  7  1  6
  8  9  1  0
  9  5  1  0
 10  8  1  0
 10 12  1  0
 11 10  2  0
 13 14  1  1
 13 12  1  0
 13 16  1  0
 14 15  1  0
 16 18  1  0
 17 16  2  0
M  END
$$$$
