PCY.pdb
     RDKit          3D

 26 27  0  0  1  0  0  0  0  0999 V2000
    8.9957  -14.4294   19.1027 N   0  0  0  0  0  0  0  0  0  0  0  0
    8.5872  -13.8757   17.8443 C   0  0  0  0  0  0  0  0  0  0  0  0
    7.6197  -12.7552   18.1287 C   0  0  0  0  0  0  0  0  0  0  0  0
    7.1351  -13.1123   19.5330 C   0  0  0  0  0  0  0  0  0  0  0  0
    8.4053  -13.6540   20.1490 C   0  0  1  0  0  0  0  0  0  0  0  0
    8.0173  -14.5181   21.3206 C   0  0  0  0  0  0  0  0  0  0  0  0
    7.3917  -13.9944   22.2779 O   0  0  0  0  0  0  0  0  0  0  0  0
    8.3338  -15.8907   21.3749 N   0  0  0  0  0  0  0  0  0  0  0  0
    7.9253  -16.6905   22.4916 C   0  0  1  0  0  0  0  0  0  0  0  0
    8.0240  -18.1733   22.2126 C   0  0  0  0  0  0  0  0  0  0  0  0
    9.6897  -18.7194   21.8546 S   0  0  0  0  0  0  0  0  0  0  0  0
    8.7251  -16.3598   23.7054 C   0  0  0  0  0  0  0  0  0  0  0  0
    9.8479  -15.8598   23.5732 O   0  0  0  0  0  0  0  0  0  0  0  0
    6.1324  -10.6396   26.1415 O   0  0  0  0  0  0  0  0  0  0  0  0
    6.6340  -11.9023   26.4191 C   0  0  0  0  0  0  0  0  0  0  0  0
    5.8307  -13.0238   26.3202 C   0  0  0  0  0  0  0  0  0  0  0  0
    6.2761  -14.2972   26.5833 C   0  0  0  0  0  0  0  0  0  0  0  0
    7.6020  -14.4843   26.9706 C   0  0  0  0  0  0  0  0  0  0  0  0
    8.0605  -15.8470   27.2757 C   0  0  0  0  0  0  0  0  0  0  0  0
    8.9354  -16.3911   26.2001 C   0  0  2  0  0  0  0  0  0  0  0  0
    8.1868  -16.6228   24.9694 N   0  0  0  0  0  0  0  0  0  0  0  0
    9.6627  -17.6098   26.6089 C   0  0  0  0  0  0  0  0  0  0  0  0
    9.2889  -18.7156   26.1170 O   0  0  0  0  0  0  0  0  0  0  0  0
    8.4131  -13.3594   27.0712 C   0  0  0  0  0  0  0  0  0  0  0  0
    7.9558  -12.0894   26.8052 C   0  0  0  0  0  0  0  0  0  0  0  0
   10.7270  -17.5482   27.5040 O   0  0  0  0  0  0  0  0  0  0  0  0
  1  2  1  0
  3  2  1  0
  4  3  1  0
  4  5  1  0
  5  6  1  1
  5  1  1  0
  6  7  2  0
  8  6  1  0
  8  9  1  0
  9 10  1  6
 11 10  1  0
 12 21  1  0
 12  9  1  0
 13 12  2  0
 15 14  1  0
 16 15  2  0
 17 16  1  0
 18 24  1  0
 18 17  2  0
 19 18  1  0
 20 21  1  0
 20 19  1  1
 22 26  1  0
 22 20  1  0
 23 22  2  0
 24 25  2  0
 25 15  1  0
M  END
$$$$
