PCY.pdb
     RDKit          3D

 26 27  0  0  1  0  0  0  0  0999 V2000
    8.9276  -14.1702   17.8520 N   0  0  0  0  0  0  0  0  0  0  0  0
    8.2683  -13.6603   16.6849 C   0  0  0  0  0  0  0  0  0  0  0  0
    7.2369  -12.6599   17.1410 C   0  0  0  0  0  0  0  0  0  0  0  0
    7.0204  -13.0779   18.5946 C   0  0  0  0  0  0  0  0  0  0  0  0
    8.4238  -13.4736   18.9947 C   0  0  1  0  0  0  0  0  0  0  0  0
    8.3230  -14.3829   20.1916 C   0  0  0  0  0  0  0  0  0  0  0  0
    7.8468  -13.9242   21.2616 O   0  0  0  0  0  0  0  0  0  0  0  0
    8.7451  -15.7271   20.1475 N   0  0  0  0  0  0  0  0  0  0  0  0
    8.5527  -16.5903   21.2751 C   0  0  1  0  0  0  0  0  0  0  0  0
    8.8958  -18.0310   20.9705 C   0  0  0  0  0  0  0  0  0  0  0  0
   10.5260  -18.2387   20.2632 S   0  0  0  0  0  0  0  0  0  0  0  0
    9.3525  -16.1263   22.4444 C   0  0  0  0  0  0  0  0  0  0  0  0
   10.4388  -15.5686   22.2522 O   0  0  0  0  0  0  0  0  0  0  0  0
   11.4646  -14.6057   30.8577 O   0  0  0  0  0  0  0  0  0  0  0  0
   10.7787  -14.7865   29.6661 C   0  0  0  0  0  0  0  0  0  0  0  0
   10.2263  -16.0126   29.3429 C   0  0  0  0  0  0  0  0  0  0  0  0
    9.5372  -16.2465   28.1768 C   0  0  0  0  0  0  0  0  0  0  0  0
    9.3786  -15.2054   27.2635 C   0  0  0  0  0  0  0  0  0  0  0  0
    8.6636  -15.4736   26.0077 C   0  0  0  0  0  0  0  0  0  0  0  0
    9.5877  -15.9209   24.9286 C   0  0  2  0  0  0  0  0  0  0  0  0
    8.8555  -16.3324   23.7357 N   0  0  0  0  0  0  0  0  0  0  0  0
   10.5158  -16.9828   25.3668 C   0  0  0  0  0  0  0  0  0  0  0  0
   11.6466  -16.6323   25.8171 O   0  0  0  0  0  0  0  0  0  0  0  0
    9.9325  -13.9711   27.5846 C   0  0  0  0  0  0  0  0  0  0  0  0
   10.6203  -13.7490   28.7552 C   0  0  0  0  0  0  0  0  0  0  0  0
   10.1611  -18.3269   25.2910 O   0  0  0  0  0  0  0  0  0  0  0  0
  1  2  1  0
  3  2  1  0
  4  3  1  0
  4  5  1  0
  5  6  1  1
  5  1  1  0
  6  7  2  0
  8  6  1  0
  8  9  1  0
  9 10  1  6
 11 10  1  0
 12 21  1  0
 12  9  1  0
 13 12  2  0
 15 14  1  0
 16 15  2  0
 17 16  1  0
 18 24  1  0
 18 17  2  0
 19 18  1  0
 20 21  1  0
 20 19  1  1
 22 26  1  0
 22 20  1  0
 23 22  2  0
 24 25  2  0
 25 15  1  0
M  END
$$$$
