PCY.pdb
     RDKit          3D

 26 27  0  0  1  0  0  0  0  0999 V2000
    8.9674  -15.0884   18.0354 N   0  0  0  0  0  0  0  0  0  0  0  0
    8.8314  -14.6153   16.6883 C   0  0  0  0  0  0  0  0  0  0  0  0
    8.5736  -13.1312   16.7472 C   0  0  0  0  0  0  0  0  0  0  0  0
    8.0448  -12.9641   18.1709 C   0  0  0  0  0  0  0  0  0  0  0  0
    8.8989  -13.9644   18.9167 C   0  0  1  0  0  0  0  0  0  0  0  0
    8.1873  -14.3138   20.1978 C   0  0  0  0  0  0  0  0  0  0  0  0
    8.0414  -13.4212   21.0719 O   0  0  0  0  0  0  0  0  0  0  0  0
    7.6823  -15.6066   20.4443 N   0  0  0  0  0  0  0  0  0  0  0  0
    6.9530  -15.8889   21.6452 C   0  0  1  0  0  0  0  0  0  0  0  0
    6.0364  -17.0829   21.5025 C   0  0  0  0  0  0  0  0  0  0  0  0
    5.3307  -17.6261   23.0542 S   0  0  0  0  0  0  0  0  0  0  0  0
    7.8792  -16.1088   22.7924 C   0  0  0  0  0  0  0  0  0  0  0  0
    8.7757  -16.9542   22.6936 O   0  0  0  0  0  0  0  0  0  0  0  0
   11.3374  -15.3329   30.8741 O   0  0  0  0  0  0  0  0  0  0  0  0
   10.6379  -15.1184   29.6960 C   0  0  0  0  0  0  0  0  0  0  0  0
    9.2999  -14.7688   29.7173 C   0  0  0  0  0  0  0  0  0  0  0  0
    8.5599  -14.5448   28.5809 C   0  0  0  0  0  0  0  0  0  0  0  0
    9.1746  -14.6725   27.3364 C   0  0  0  0  0  0  0  0  0  0  0  0
    8.3672  -14.4573   26.1272 C   0  0  0  0  0  0  0  0  0  0  0  0
    8.5212  -15.5727   25.1523 C   0  0  2  0  0  0  0  0  0  0  0  0
    7.7135  -15.3524   23.9574 N   0  0  0  0  0  0  0  0  0  0  0  0
    8.2367  -16.8971   25.7408 C   0  0  0  0  0  0  0  0  0  0  0  0
    9.2184  -17.6581   25.9890 O   0  0  0  0  0  0  0  0  0  0  0  0
   10.5196  -15.0239   27.3105 C   0  0  0  0  0  0  0  0  0  0  0  0
   11.2502  -15.2457   28.4550 C   0  0  0  0  0  0  0  0  0  0  0  0
    6.9327  -17.2982   26.0175 O   0  0  0  0  0  0  0  0  0  0  0  0
  1  2  1  0
  3  2  1  0
  4  3  1  0
  4  5  1  0
  5  6  1  1
  5  1  1  0
  6  7  2  0
  8  6  1  0
  8  9  1  0
  9 10  1  6
 11 10  1  0
 12 21  1  0
 12  9  1  0
 13 12  2  0
 15 14  1  0
 16 15  2  0
 17 16  1  0
 18 24  1  0
 18 17  2  0
 19 18  1  0
 20 21  1  0
 20 19  1  1
 22 26  1  0
 22 20  1  0
 23 22  2  0
 24 25  2  0
 25 15  1  0
M  END
$$$$
