PCY.pdb
     RDKit          3D

 26 27  0  0  1  0  0  0  0  0999 V2000
    8.0214  -18.6598   19.1904 N   0  0  0  0  0  0  0  0  0  0  0  0
    7.2355  -19.3146   18.1851 C   0  0  0  0  0  0  0  0  0  0  0  0
    7.5200  -18.6387   16.8681 C   0  0  0  0  0  0  0  0  0  0  0  0
    8.0543  -17.2819   17.3243 C   0  0  0  0  0  0  0  0  0  0  0  0
    8.8427  -17.6786   18.5520 C   0  0  1  0  0  0  0  0  0  0  0  0
    9.0033  -16.4528   19.4130 C   0  0  0  0  0  0  0  0  0  0  0  0
    9.8497  -15.5848   19.0782 O   0  0  0  0  0  0  0  0  0  0  0  0
    8.2356  -16.2511   20.5779 N   0  0  0  0  0  0  0  0  0  0  0  0
    8.4760  -15.1198   21.4240 C   0  0  1  0  0  0  0  0  0  0  0  0
    7.2081  -14.3726   21.7710 C   0  0  0  0  0  0  0  0  0  0  0  0
    6.1023  -15.3019   22.8267 S   0  0  0  0  0  0  0  0  0  0  0  0
    9.1693  -15.5297   22.6784 C   0  0  0  0  0  0  0  0  0  0  0  0
    9.0220  -16.6811   23.1033 O   0  0  0  0  0  0  0  0  0  0  0  0
   10.9134  -15.5421   31.0510 O   0  0  0  0  0  0  0  0  0  0  0  0
   10.5223  -15.3441   29.7353 C   0  0  0  0  0  0  0  0  0  0  0  0
   10.5673  -14.0863   29.1619 C   0  0  0  0  0  0  0  0  0  0  0  0
   10.1919  -13.8343   27.8639 C   0  0  0  0  0  0  0  0  0  0  0  0
    9.7406  -14.8894   27.0726 C   0  0  0  0  0  0  0  0  0  0  0  0
    9.3161  -14.6042   25.6947 C   0  0  0  0  0  0  0  0  0  0  0  0
   10.4244  -14.8060   24.7204 C   0  0  2  0  0  0  0  0  0  0  0  0
    9.9728  -14.6010   23.3483 N   0  0  0  0  0  0  0  0  0  0  0  0
   11.0873  -16.1180   24.8638 C   0  0  0  0  0  0  0  0  0  0  0  0
   12.3234  -16.1300   25.1401 O   0  0  0  0  0  0  0  0  0  0  0  0
    9.6937  -16.1556   27.6452 C   0  0  0  0  0  0  0  0  0  0  0  0
   10.0723  -16.3956   28.9459 C   0  0  0  0  0  0  0  0  0  0  0  0
   10.3784  -17.3054   24.7038 O   0  0  0  0  0  0  0  0  0  0  0  0
  1  2  1  0
  3  2  1  0
  4  3  1  0
  4  5  1  0
  5  6  1  1
  5  1  1  0
  6  7  2  0
  8  6  1  0
  8  9  1  0
  9 10  1  1
 11 10  1  0
 12 21  1  0
 12  9  1  0
 13 12  2  0
 15 14  1  0
 16 15  2  0
 17 16  1  0
 18 24  1  0
 18 17  2  0
 19 18  1  0
 20 21  1  0
 20 19  1  1
 22 26  1  0
 22 20  1  0
 23 22  2  0
 24 25  2  0
 25 15  1  0
M  END
$$$$
