PCY.pdb
     RDKit          3D

 26 27  0  0  1  0  0  0  0  0999 V2000
    9.2186  -14.1562   19.4517 N   0  0  0  0  0  0  0  0  0  0  0  0
    8.8070  -13.6221   18.1858 C   0  0  0  0  0  0  0  0  0  0  0  0
    7.4931  -12.9128   18.3927 C   0  0  0  0  0  0  0  0  0  0  0  0
    6.9864  -13.5660   19.6777 C   0  0  0  0  0  0  0  0  0  0  0  0
    8.2783  -13.7378   20.4444 C   0  0  1  0  0  0  0  0  0  0  0  0
    8.0605  -14.8096   21.4805 C   0  0  0  0  0  0  0  0  0  0  0  0
    7.1787  -14.6313   22.3595 O   0  0  0  0  0  0  0  0  0  0  0  0
    8.8131  -16.0015   21.4934 N   0  0  0  0  0  0  0  0  0  0  0  0
    8.6106  -16.9818   22.5190 C   0  0  1  0  0  0  0  0  0  0  0  0
    9.2169  -18.3224   22.1706 C   0  0  0  0  0  0  0  0  0  0  0  0
   10.0980  -19.0787   23.5317 S   0  0  0  0  0  0  0  0  0  0  0  0
    9.1613  -16.5118   23.8221 C   0  0  0  0  0  0  0  0  0  0  0  0
   10.1747  -15.8039   23.8314 O   0  0  0  0  0  0  0  0  0  0  0  0
    6.1914  -10.7283   25.6258 O   0  0  0  0  0  0  0  0  0  0  0  0
    6.6318  -11.9886   26.0008 C   0  0  0  0  0  0  0  0  0  0  0  0
    5.8055  -13.0923   25.8906 C   0  0  0  0  0  0  0  0  0  0  0  0
    6.1906  -14.3626   26.2473 C   0  0  0  0  0  0  0  0  0  0  0  0
    7.4760  -14.5651   26.7472 C   0  0  0  0  0  0  0  0  0  0  0  0
    7.8682  -15.9228   27.1509 C   0  0  0  0  0  0  0  0  0  0  0  0
    8.9870  -16.4469   26.3189 C   0  0  2  0  0  0  0  0  0  0  0  0
    8.5183  -16.8826   25.0078 N   0  0  0  0  0  0  0  0  0  0  0  0
    9.7491  -17.5211   26.9871 C   0  0  0  0  0  0  0  0  0  0  0  0
   10.3253  -17.2461   28.0811 O   0  0  0  0  0  0  0  0  0  0  0  0
    8.3099  -13.4583   26.8597 C   0  0  0  0  0  0  0  0  0  0  0  0
    7.9131  -12.1912   26.4992 C   0  0  0  0  0  0  0  0  0  0  0  0
    9.8314  -18.7969   26.4360 O   0  0  0  0  0  0  0  0  0  0  0  0
  1  2  1  0
  3  2  1  0
  4  3  1  0
  4  5  1  0
  5  6  1  1
  5  1  1  0
  6  7  2  0
  8  6  1  0
  8  9  1  0
  9 10  1  6
 11 10  1  0
 12 21  1  0
 12  9  1  0
 13 12  2  0
 15 14  1  0
 16 15  2  0
 17 16  1  0
 18 24  1  0
 18 17  2  0
 19 18  1  0
 20 21  1  0
 20 19  1  1
 22 26  1  0
 22 20  1  0
 23 22  2  0
 24 25  2  0
 25 15  1  0
M  END
$$$$
