PCY.pdb
     RDKit          3D

 26 27  0  0  1  0  0  0  0  0999 V2000
    8.5173  -15.3426   18.2637 N   0  0  0  0  0  0  0  0  0  0  0  0
    8.2365  -14.8742   16.9375 C   0  0  0  0  0  0  0  0  0  0  0  0
    7.8847  -13.4115   17.0325 C   0  0  0  0  0  0  0  0  0  0  0  0
    7.4678  -13.2868   18.4972 C   0  0  0  0  0  0  0  0  0  0  0  0
    8.4475  -14.2296   19.1588 C   0  0  1  0  0  0  0  0  0  0  0  0
    7.8717  -14.6322   20.4915 C   0  0  0  0  0  0  0  0  0  0  0  0
    7.7415  -13.7556   21.3841 O   0  0  0  0  0  0  0  0  0  0  0  0
    7.4764  -15.9571   20.7660 N   0  0  0  0  0  0  0  0  0  0  0  0
    6.8624  -16.2915   22.0169 C   0  0  1  0  0  0  0  0  0  0  0  0
    6.1707  -17.6357   21.9849 C   0  0  0  0  0  0  0  0  0  0  0  0
    5.5010  -18.1278   23.5693 S   0  0  0  0  0  0  0  0  0  0  0  0
    7.8617  -16.2740   23.1230 C   0  0  0  0  0  0  0  0  0  0  0  0
    8.9713  -16.7890   22.9449 O   0  0  0  0  0  0  0  0  0  0  0  0
   11.2598  -14.8012   31.1546 O   0  0  0  0  0  0  0  0  0  0  0  0
   10.4318  -14.8366   30.0427 C   0  0  0  0  0  0  0  0  0  0  0  0
   10.4101  -13.7897   29.1390 C   0  0  0  0  0  0  0  0  0  0  0  0
    9.6097  -13.7732   28.0217 C   0  0  0  0  0  0  0  0  0  0  0  0
    8.7719  -14.8591   27.7729 C   0  0  0  0  0  0  0  0  0  0  0  0
    7.9005  -14.8191   26.5900 C   0  0  0  0  0  0  0  0  0  0  0  0
    8.4186  -15.6803   25.4907 C   0  0  2  0  0  0  0  0  0  0  0  0
    7.5216  -15.6742   24.3401 N   0  0  0  0  0  0  0  0  0  0  0  0
    8.7041  -17.0624   25.9259 C   0  0  0  0  0  0  0  0  0  0  0  0
    7.7281  -17.8625   26.0350 O   0  0  0  0  0  0  0  0  0  0  0  0
    8.7906  -15.9137   28.6789 C   0  0  0  0  0  0  0  0  0  0  0  0
    9.5963  -15.9189   29.7941 C   0  0  0  0  0  0  0  0  0  0  0  0
   10.0034  -17.4765   26.2055 O   0  0  0  0  0  0  0  0  0  0  0  0
  1  2  1  0
  3  2  1  0
  4  3  1  0
  4  5  1  0
  5  6  1  1
  5  1  1  0
  6  7  2  0
  8  6  1  0
  8  9  1  0
  9 10  1  6
 11 10  1  0
 12 21  1  0
 12  9  1  0
 13 12  2  0
 15 14  1  0
 16 15  2  0
 17 16  1  0
 18 24  1  0
 18 17  2  0
 19 18  1  0
 20 21  1  0
 20 19  1  1
 22 26  1  0
 22 20  1  0
 23 22  2  0
 24 25  2  0
 25 15  1  0
M  END
$$$$
