PCY.pdb
     RDKit          3D

 26 27  0  0  1  0  0  0  0  0999 V2000
    6.7049  -16.0210   21.5068 N   0  0  0  0  0  0  0  0  0  0  0  0
    5.9195  -15.9644   20.3080 C   0  0  0  0  0  0  0  0  0  0  0  0
    6.6386  -15.0704   19.3303 C   0  0  0  0  0  0  0  0  0  0  0  0
    7.5296  -14.2472   20.2595 C   0  0  0  0  0  0  0  0  0  0  0  0
    7.9121  -15.2859   21.2896 C   0  0  1  0  0  0  0  0  0  0  0  0
    8.3450  -14.5605   22.5370 C   0  0  0  0  0  0  0  0  0  0  0  0
    9.4407  -13.9429   22.5284 O   0  0  0  0  0  0  0  0  0  0  0  0
    7.5611  -14.5538   23.7086 N   0  0  0  0  0  0  0  0  0  0  0  0
    7.9961  -13.8425   24.8741 C   0  0  1  0  0  0  0  0  0  0  0  0
    6.9250  -12.9349   25.4356 C   0  0  0  0  0  0  0  0  0  0  0  0
    5.4344  -13.8037   25.9091 S   0  0  0  0  0  0  0  0  0  0  0  0
    8.4535  -14.7852   25.9344 C   0  0  0  0  0  0  0  0  0  0  0  0
    7.7478  -14.9612   26.9340 O   0  0  0  0  0  0  0  0  0  0  0  0
    9.6082  -18.6251   31.1626 O   0  0  0  0  0  0  0  0  0  0  0  0
    9.8996  -17.5968   30.2789 C   0  0  0  0  0  0  0  0  0  0  0  0
   11.2067  -17.2107   30.0438 C   0  0  0  0  0  0  0  0  0  0  0  0
   11.5514  -16.1992   29.1792 C   0  0  0  0  0  0  0  0  0  0  0  0
   10.5439  -15.5186   28.4974 C   0  0  0  0  0  0  0  0  0  0  0  0
   10.9218  -14.4210   27.5960 C   0  0  0  0  0  0  0  0  0  0  0  0
   10.9449  -14.8565   26.1718 C   0  0  2  0  0  0  0  0  0  0  0  0
    9.6733  -15.4513   25.7749 N   0  0  0  0  0  0  0  0  0  0  0  0
   12.0678  -15.7653   25.8643 C   0  0  0  0  0  0  0  0  0  0  0  0
   11.7927  -16.9065   25.3883 O   0  0  0  0  0  0  0  0  0  0  0  0
    9.2285  -15.9036   28.7309 C   0  0  0  0  0  0  0  0  0  0  0  0
    8.8957  -16.9179   29.5989 C   0  0  0  0  0  0  0  0  0  0  0  0
   13.3874  -15.3821   26.0869 O   0  0  0  0  0  0  0  0  0  0  0  0
  1  2  1  0
  3  2  1  0
  4  3  1  0
  4  5  1  0
  5  6  1  1
  5  1  1  0
  6  7  2  0
  8  6  1  0
  8  9  1  0
  9 10  1  1
 11 10  1  0
 12 21  1  0
 12  9  1  0
 13 12  2  0
 15 14  1  0
 16 15  2  0
 17 16  1  0
 18 24  1  0
 18 17  2  0
 19 18  1  0
 20 21  1  0
 20 19  1  1
 22 26  1  0
 22 20  1  0
 23 22  2  0
 24 25  2  0
 25 15  1  0
M  END
$$$$
