PCY.pdb
     RDKit          3D

 26 27  0  0  1  0  0  0  0  0999 V2000
    6.9795  -15.4095   21.0625 N   0  0  0  0  0  0  0  0  0  0  0  0
    6.5428  -15.0448   19.7460 C   0  0  0  0  0  0  0  0  0  0  0  0
    7.6692  -14.2962   19.0801 C   0  0  0  0  0  0  0  0  0  0  0  0
    8.4814  -13.8219   20.2843 C   0  0  0  0  0  0  0  0  0  0  0  0
    8.3437  -15.0077   21.2122 C   0  0  1  0  0  0  0  0  0  0  0  0
    8.6251  -14.5317   22.6136 C   0  0  0  0  0  0  0  0  0  0  0  0
    9.8135  -14.2807   22.9402 O   0  0  0  0  0  0  0  0  0  0  0  0
    7.5996  -14.3602   23.5654 N   0  0  0  0  0  0  0  0  0  0  0  0
    7.8976  -13.8743   24.8803 C   0  0  1  0  0  0  0  0  0  0  0  0
    7.0981  -12.6426   25.2407 C   0  0  0  0  0  0  0  0  0  0  0  0
    5.5804  -13.0113   26.1135 S   0  0  0  0  0  0  0  0  0  0  0  0
    7.6674  -14.9326   25.9047 C   0  0  0  0  0  0  0  0  0  0  0  0
    6.5106  -15.2051   26.2446 O   0  0  0  0  0  0  0  0  0  0  0  0
    7.9549  -23.0677   28.4257 O   0  0  0  0  0  0  0  0  0  0  0  0
    7.9463  -21.8100   27.8417 C   0  0  0  0  0  0  0  0  0  0  0  0
    8.8120  -20.8207   28.2716 C   0  0  0  0  0  0  0  0  0  0  0  0
    8.8457  -19.5585   27.7286 C   0  0  0  0  0  0  0  0  0  0  0  0
    7.9692  -19.2440   26.6912 C   0  0  0  0  0  0  0  0  0  0  0  0
    7.9950  -17.8834   26.1362 C   0  0  0  0  0  0  0  0  0  0  0  0
    8.6586  -16.9209   27.0591 C   0  0  2  0  0  0  0  0  0  0  0  0
    8.7672  -15.5952   26.4598 N   0  0  0  0  0  0  0  0  0  0  0  0
    9.9755  -17.3913   27.5343 C   0  0  0  0  0  0  0  0  0  0  0  0
   10.1021  -17.6503   28.7677 O   0  0  0  0  0  0  0  0  0  0  0  0
    7.0972  -20.2357   26.2561 C   0  0  0  0  0  0  0  0  0  0  0  0
    7.0727  -21.4959   26.8076 C   0  0  0  0  0  0  0  0  0  0  0  0
   11.0447  -17.5484   26.6567 O   0  0  0  0  0  0  0  0  0  0  0  0
  1  2  1  0
  3  2  1  0
  4  3  1  0
  4  5  1  0
  5  6  1  1
  5  1  1  0
  6  7  2  0
  8  6  1  0
  8  9  1  0
  9 10  1  1
 11 10  1  0
 12 21  1  0
 12  9  1  0
 13 12  2  0
 15 14  1  0
 16 15  2  0
 17 16  1  0
 18 24  1  0
 18 17  2  0
 19 18  1  0
 20 21  1  0
 20 19  1  6
 22 26  1  0
 22 20  1  0
 23 22  2  0
 24 25  2  0
 25 15  1  0
M  END
$$$$
