PCY.pdb
     RDKit          3D

 26 27  0  0  1  0  0  0  0  0999 V2000
    9.0809  -14.2275   17.9563 N   0  0  0  0  0  0  0  0  0  0  0  0
    8.2884  -13.7129   16.8774 C   0  0  0  0  0  0  0  0  0  0  0  0
    7.0734  -13.0510   17.4758 C   0  0  0  0  0  0  0  0  0  0  0  0
    7.0010  -13.7179   18.8486 C   0  0  0  0  0  0  0  0  0  0  0  0
    8.4691  -13.8403   19.1894 C   0  0  1  0  0  0  0  0  0  0  0  0
    8.6117  -14.9159   20.2346 C   0  0  0  0  0  0  0  0  0  0  0  0
    7.8708  -14.8748   21.2501 O   0  0  0  0  0  0  0  0  0  0  0  0
    9.5474  -15.9625   20.1079 N   0  0  0  0  0  0  0  0  0  0  0  0
    9.6917  -16.9422   21.1438 C   0  0  1  0  0  0  0  0  0  0  0  0
   10.5278  -18.1261   20.7129 C   0  0  0  0  0  0  0  0  0  0  0  0
    9.7639  -19.1034   19.4236 S   0  0  0  0  0  0  0  0  0  0  0  0
   10.2834  -16.3373   22.3711 C   0  0  0  0  0  0  0  0  0  0  0  0
   11.1643  -15.4774   22.2583 O   0  0  0  0  0  0  0  0  0  0  0  0
   11.3586  -14.3344   30.8614 O   0  0  0  0  0  0  0  0  0  0  0  0
   10.8374  -14.6933   29.6274 C   0  0  0  0  0  0  0  0  0  0  0  0
   10.6007  -16.0195   29.3143 C   0  0  0  0  0  0  0  0  0  0  0  0
   10.0860  -16.4304   28.1079 C   0  0  0  0  0  0  0  0  0  0  0  0
    9.7821  -15.4739   27.1405 C   0  0  0  0  0  0  0  0  0  0  0  0
    9.2576  -15.9261   25.8441 C   0  0  0  0  0  0  0  0  0  0  0  0
   10.3502  -16.2027   24.8703 C   0  0  2  0  0  0  0  0  0  0  0  0
    9.8283  -16.7566   23.6257 N   0  0  0  0  0  0  0  0  0  0  0  0
   11.4121  -17.0668   25.4244 C   0  0  0  0  0  0  0  0  0  0  0  0
   11.2435  -18.3210   25.3701 O   0  0  0  0  0  0  0  0  0  0  0  0
   10.0185  -14.1394   27.4512 C   0  0  0  0  0  0  0  0  0  0  0  0
   10.5342  -13.7403   28.6626 C   0  0  0  0  0  0  0  0  0  0  0  0
   12.5639  -16.5234   25.9866 O   0  0  0  0  0  0  0  0  0  0  0  0
  1  2  1  0
  3  2  1  0
  4  3  1  0
  4  5  1  0
  5  6  1  1
  5  1  1  0
  6  7  2  0
  8  6  1  0
  8  9  1  0
  9 10  1  6
 11 10  1  0
 12 21  1  0
 12  9  1  0
 13 12  2  0
 15 14  1  0
 16 15  2  0
 17 16  1  0
 18 24  1  0
 18 17  2  0
 19 18  1  0
 20 21  1  0
 20 19  1  1
 22 26  1  0
 22 20  1  0
 23 22  2  0
 24 25  2  0
 25 15  1  0
M  END
$$$$
