PCY.pdb
     RDKit          3D

 26 27  0  0  1  0  0  0  0  0999 V2000
    9.1952  -14.1353   19.1177 N   0  0  0  0  0  0  0  0  0  0  0  0
    8.8005  -13.5787   17.8561 C   0  0  0  0  0  0  0  0  0  0  0  0
    7.6868  -12.5967   18.1164 C   0  0  0  0  0  0  0  0  0  0  0  0
    7.1636  -13.0723   19.4709 C   0  0  0  0  0  0  0  0  0  0  0  0
    8.4501  -13.4845   20.1502 C   0  0  1  0  0  0  0  0  0  0  0  0
    8.0995  -14.4408   21.2602 C   0  0  0  0  0  0  0  0  0  0  0  0
    7.3153  -14.0560   22.1653 O   0  0  0  0  0  0  0  0  0  0  0  0
    8.6226  -15.7487   21.3139 N   0  0  0  0  0  0  0  0  0  0  0  0
    8.2349  -16.6477   22.3603 C   0  0  1  0  0  0  0  0  0  0  0  0
    8.4716  -18.0970   22.0000 C   0  0  0  0  0  0  0  0  0  0  0  0
   10.1700  -18.4523   21.5639 S   0  0  0  0  0  0  0  0  0  0  0  0
    8.9495  -16.3289   23.6292 C   0  0  0  0  0  0  0  0  0  0  0  0
   10.0509  -15.7699   23.5801 O   0  0  0  0  0  0  0  0  0  0  0  0
    6.1802  -10.7084   25.9288 O   0  0  0  0  0  0  0  0  0  0  0  0
    6.5958  -11.9970   26.2284 C   0  0  0  0  0  0  0  0  0  0  0  0
    7.9133  -12.2609   26.5563 C   0  0  0  0  0  0  0  0  0  0  0  0
    8.3783  -13.5178   26.8615 C   0  0  0  0  0  0  0  0  0  0  0  0
    7.4893  -14.5913   26.8441 C   0  0  0  0  0  0  0  0  0  0  0  0
    8.0027  -15.9351   27.1456 C   0  0  0  0  0  0  0  0  0  0  0  0
    8.9946  -16.3897   26.1318 C   0  0  2  0  0  0  0  0  0  0  0  0
    8.3571  -16.6699   24.8497 N   0  0  0  0  0  0  0  0  0  0  0  0
    9.7935  -17.5466   26.5842 C   0  0  0  0  0  0  0  0  0  0  0  0
   10.4982  -17.4079   27.6276 O   0  0  0  0  0  0  0  0  0  0  0  0
    6.1638  -14.3304   26.5150 C   0  0  0  0  0  0  0  0  0  0  0  0
    5.7100  -13.0677   26.2113 C   0  0  0  0  0  0  0  0  0  0  0  0
    9.7729  -18.7529   25.8897 O   0  0  0  0  0  0  0  0  0  0  0  0
  1  2  1  0
  3  2  1  0
  4  3  1  0
  4  5  1  0
  5  6  1  1
  5  1  1  0
  6  7  2  0
  8  6  1  0
  8  9  1  0
  9 10  1  6
 11 10  1  0
 12 21  1  0
 12  9  1  0
 13 12  2  0
 15 14  1  0
 16 15  2  0
 17 16  1  0
 18 24  1  0
 18 17  2  0
 19 18  1  0
 20 21  1  0
 20 19  1  1
 22 26  1  0
 22 20  1  0
 23 22  2  0
 24 25  2  0
 25 15  1  0
M  END
$$$$
