PCY.pdb
     RDKit          3D

 26 27  0  0  1  0  0  0  0  0999 V2000
    8.6549  -15.3290   18.4851 N   0  0  0  0  0  0  0  0  0  0  0  0
    8.3987  -14.6514   17.2473 C   0  0  0  0  0  0  0  0  0  0  0  0
    8.2972  -13.1770   17.5440 C   0  0  0  0  0  0  0  0  0  0  0  0
    7.9694  -13.1823   19.0364 C   0  0  0  0  0  0  0  0  0  0  0  0
    8.8078  -14.3469   19.5131 C   0  0  1  0  0  0  0  0  0  0  0  0
    8.2310  -14.8258   20.8199 C   0  0  0  0  0  0  0  0  0  0  0  0
    8.1894  -14.0281   21.7915 O   0  0  0  0  0  0  0  0  0  0  0  0
    7.7386  -16.1363   20.9847 N   0  0  0  0  0  0  0  0  0  0  0  0
    7.3255  -16.6042   22.2747 C   0  0  1  0  0  0  0  0  0  0  0  0
    6.7217  -17.9896   22.2254 C   0  0  0  0  0  0  0  0  0  0  0  0
    5.2064  -18.0707   21.2776 S   0  0  0  0  0  0  0  0  0  0  0  0
    8.4650  -16.5936   23.2358 C   0  0  0  0  0  0  0  0  0  0  0  0
    9.5927  -16.9113   22.8418 O   0  0  0  0  0  0  0  0  0  0  0  0
    5.0031  -11.6319   27.2686 O   0  0  0  0  0  0  0  0  0  0  0  0
    6.1100  -12.3673   26.8722 C   0  0  0  0  0  0  0  0  0  0  0  0
    7.2205  -12.4767   27.6893 C   0  0  0  0  0  0  0  0  0  0  0  0
    8.3429  -13.1920   27.3461 C   0  0  0  0  0  0  0  0  0  0  0  0
    8.3792  -13.8458   26.1155 C   0  0  0  0  0  0  0  0  0  0  0  0
    9.5948  -14.5853   25.7471 C   0  0  0  0  0  0  0  0  0  0  0  0
    9.3170  -16.0312   25.5220 C   0  0  2  0  0  0  0  0  0  0  0  0
    8.2329  -16.2236   24.5648 N   0  0  0  0  0  0  0  0  0  0  0  0
    9.0492  -16.7691   26.7730 C   0  0  0  0  0  0  0  0  0  0  0  0
    7.9120  -17.3101   26.9096 O   0  0  0  0  0  0  0  0  0  0  0  0
    7.2648  -13.7383   25.2910 C   0  0  0  0  0  0  0  0  0  0  0  0
    6.1467  -13.0193   25.6455 C   0  0  0  0  0  0  0  0  0  0  0  0
   10.0144  -16.8707   27.7709 O   0  0  0  0  0  0  0  0  0  0  0  0
  1  2  1  0
  3  2  1  0
  4  3  1  0
  4  5  1  0
  5  6  1  1
  5  1  1  0
  6  7  2  0
  8  6  1  0
  8  9  1  0
  9 10  1  6
 11 10  1  0
 12 21  1  0
 12  9  1  0
 13 12  2  0
 15 14  1  0
 16 15  2  0
 17 16  1  0
 18 24  1  0
 18 17  2  0
 19 18  1  0
 20 21  1  0
 20 19  1  1
 22 26  1  0
 22 20  1  0
 23 22  2  0
 24 25  2  0
 25 15  1  0
M  END
$$$$
