PCY.pdb
     RDKit          3D

 26 27  0  0  1  0  0  0  0  0999 V2000
    9.0488  -14.4465   19.2497 N   0  0  0  0  0  0  0  0  0  0  0  0
    8.5764  -13.8851   18.0174 C   0  0  0  0  0  0  0  0  0  0  0  0
    7.5961  -12.7916   18.3576 C   0  0  0  0  0  0  0  0  0  0  0  0
    7.1779  -13.1793   19.7752 C   0  0  0  0  0  0  0  0  0  0  0  0
    8.4844  -13.6997   20.3307 C   0  0  1  0  0  0  0  0  0  0  0  0
    8.1649  -14.5887   21.5043 C   0  0  0  0  0  0  0  0  0  0  0  0
    7.5708  -14.0922   22.4955 O   0  0  0  0  0  0  0  0  0  0  0  0
    8.5109  -15.9551   21.5236 N   0  0  0  0  0  0  0  0  0  0  0  0
    8.1504  -16.7839   22.6357 C   0  0  1  0  0  0  0  0  0  0  0  0
    8.3202  -18.2575   22.3425 C   0  0  0  0  0  0  0  0  0  0  0  0
   10.0047  -18.7138   21.9487 S   0  0  0  0  0  0  0  0  0  0  0  0
    8.9414  -16.4247   23.8471 C   0  0  0  0  0  0  0  0  0  0  0  0
   10.0346  -15.8635   23.7122 O   0  0  0  0  0  0  0  0  0  0  0  0
    5.9853  -10.9358   25.3572 O   0  0  0  0  0  0  0  0  0  0  0  0
    6.4961  -12.1315   25.8393 C   0  0  0  0  0  0  0  0  0  0  0  0
    7.7552  -12.1884   26.4089 C   0  0  0  0  0  0  0  0  0  0  0  0
    8.3093  -13.3455   26.9019 C   0  0  0  0  0  0  0  0  0  0  0  0
    7.5779  -14.5301   26.8315 C   0  0  0  0  0  0  0  0  0  0  0  0
    8.1906  -15.7667   27.3370 C   0  0  0  0  0  0  0  0  0  0  0  0
    9.1223  -16.3697   26.3436 C   0  0  2  0  0  0  0  0  0  0  0  0
    8.4286  -16.7308   25.1120 N   0  0  0  0  0  0  0  0  0  0  0  0
    9.8715  -17.5234   26.8812 C   0  0  0  0  0  0  0  0  0  0  0  0
   10.6351  -17.3240   27.8720 O   0  0  0  0  0  0  0  0  0  0  0  0
    6.3117  -14.4773   26.2595 C   0  0  0  0  0  0  0  0  0  0  0  0
    5.7674  -13.3127   25.7694 C   0  0  0  0  0  0  0  0  0  0  0  0
    9.7429  -18.7911   26.3207 O   0  0  0  0  0  0  0  0  0  0  0  0
  1  2  1  0
  3  2  1  0
  4  3  1  0
  4  5  1  0
  5  6  1  1
  5  1  1  0
  6  7  2  0
  8  6  1  0
  8  9  1  0
  9 10  1  6
 11 10  1  0
 12 21  1  0
 12  9  1  0
 13 12  2  0
 15 14  1  0
 16 15  2  0
 17 16  1  0
 18 24  1  0
 18 17  2  0
 19 18  1  0
 20 21  1  0
 20 19  1  1
 22 26  1  0
 22 20  1  0
 23 22  2  0
 24 25  2  0
 25 15  1  0
M  END
$$$$
