PCY.pdb
     RDKit          3D

 26 27  0  0  1  0  0  0  0  0999 V2000
    7.6197  -22.7240   14.8524 N   0  0  0  0  0  0  0  0  0  0  0  0
    6.9656  -22.9036   13.5888 C   0  0  0  0  0  0  0  0  0  0  0  0
    8.0053  -22.7497   12.5081 C   0  0  0  0  0  0  0  0  0  0  0  0
    9.0898  -21.9530   13.2318 C   0  0  0  0  0  0  0  0  0  0  0  0
    9.0202  -22.5589   14.6154 C   0  0  1  0  0  0  0  0  0  0  0  0
    9.6282  -21.5749   15.5807 C   0  0  0  0  0  0  0  0  0  0  0  0
   10.8696  -21.3763   15.5409 O   0  0  0  0  0  0  0  0  0  0  0  0
    8.8495  -20.8732   16.5232 N   0  0  0  0  0  0  0  0  0  0  0  0
    9.4536  -19.9151   17.4011 C   0  0  1  0  0  0  0  0  0  0  0  0
    8.4584  -18.9148   17.9444 C   0  0  0  0  0  0  0  0  0  0  0  0
    7.2865  -18.3420   16.7198 S   0  0  0  0  0  0  0  0  0  0  0  0
   10.1454  -20.5924   18.5347 C   0  0  0  0  0  0  0  0  0  0  0  0
    9.6550  -21.6196   19.0168 O   0  0  0  0  0  0  0  0  0  0  0  0
   16.8671  -25.0530   21.3183 O   0  0  0  0  0  0  0  0  0  0  0  0
   15.9109  -24.2643   20.6965 C   0  0  0  0  0  0  0  0  0  0  0  0
   16.2745  -23.3047   19.7692 C   0  0  0  0  0  0  0  0  0  0  0  0
   15.3689  -22.4967   19.1239 C   0  0  0  0  0  0  0  0  0  0  0  0
   14.0116  -22.6396   19.4076 C   0  0  0  0  0  0  0  0  0  0  0  0
   13.0543  -21.7522   18.7322 C   0  0  0  0  0  0  0  0  0  0  0  0
   12.3469  -20.8639   19.6960 C   0  0  2  0  0  0  0  0  0  0  0  0
   11.3364  -20.0500   19.0289 N   0  0  0  0  0  0  0  0  0  0  0  0
   13.2665  -20.0174   20.4828 C   0  0  0  0  0  0  0  0  0  0  0  0
   13.5310  -20.3742   21.6691 O   0  0  0  0  0  0  0  0  0  0  0  0
   13.6418  -23.6031   20.3393 C   0  0  0  0  0  0  0  0  0  0  0  0
   14.5576  -24.4062   20.9789 C   0  0  0  0  0  0  0  0  0  0  0  0
   13.8283  -18.8651   19.9401 O   0  0  0  0  0  0  0  0  0  0  0  0
  1  2  1  0
  3  2  1  0
  4  3  1  0
  4  5  1  0
  5  6  1  1
  5  1  1  0
  6  7  2  0
  8  6  1  0
  8  9  1  0
  9 10  1  1
 11 10  1  0
 12 21  1  0
 12  9  1  0
 13 12  2  0
 15 14  1  0
 16 15  2  0
 17 16  1  0
 18 24  1  0
 18 17  2  0
 19 18  1  0
 20 21  1  0
 20 19  1  6
 22 26  1  0
 22 20  1  0
 23 22  2  0
 24 25  2  0
 25 15  1  0
M  END
$$$$
