PCY.pdb
     RDKit          3D

 26 27  0  0  1  0  0  0  0  0999 V2000
    8.4758  -14.9537   18.1117 N   0  0  0  0  0  0  0  0  0  0  0  0
    8.3267  -14.3258   16.8308 C   0  0  0  0  0  0  0  0  0  0  0  0
    8.2356  -12.8382   17.0571 C   0  0  0  0  0  0  0  0  0  0  0  0
    7.7985  -12.7727   18.5197 C   0  0  0  0  0  0  0  0  0  0  0  0
    8.5737  -13.9309   19.1062 C   0  0  1  0  0  0  0  0  0  0  0  0
    7.8916  -14.3417   20.3851 C   0  0  0  0  0  0  0  0  0  0  0  0
    7.8235  -13.5121   21.3281 O   0  0  0  0  0  0  0  0  0  0  0  0
    7.3298  -15.6234   20.5550 N   0  0  0  0  0  0  0  0  0  0  0  0
    6.7144  -15.9923   21.7954 C   0  0  1  0  0  0  0  0  0  0  0  0
    5.8784  -17.2469   21.6800 C   0  0  0  0  0  0  0  0  0  0  0  0
    5.2496  -17.8284   23.2508 S   0  0  0  0  0  0  0  0  0  0  0  0
    7.7371  -16.1743   22.8647 C   0  0  0  0  0  0  0  0  0  0  0  0
    8.6624  -16.9747   22.6879 O   0  0  0  0  0  0  0  0  0  0  0  0
   11.7814  -15.1901   30.6646 O   0  0  0  0  0  0  0  0  0  0  0  0
   11.0104  -15.0213   29.5243 C   0  0  0  0  0  0  0  0  0  0  0  0
    9.9019  -14.1942   29.5316 C   0  0  0  0  0  0  0  0  0  0  0  0
    9.1039  -13.9913   28.4311 C   0  0  0  0  0  0  0  0  0  0  0  0
    9.4144  -14.6450   27.2397 C   0  0  0  0  0  0  0  0  0  0  0  0
    8.5389  -14.4421   26.0767 C   0  0  0  0  0  0  0  0  0  0  0  0
    8.5308  -15.6279   25.1756 C   0  0  2  0  0  0  0  0  0  0  0  0
    7.6273  -15.4341   24.0466 N   0  0  0  0  0  0  0  0  0  0  0  0
    8.2242  -16.8879   25.8824 C   0  0  0  0  0  0  0  0  0  0  0  0
    7.0161  -17.1178   26.1860 O   0  0  0  0  0  0  0  0  0  0  0  0
   10.5280  -15.4775   27.2280 C   0  0  0  0  0  0  0  0  0  0  0  0
   11.3194  -15.6728   28.3363 C   0  0  0  0  0  0  0  0  0  0  0  0
    9.2281  -17.7971   26.2038 O   0  0  0  0  0  0  0  0  0  0  0  0
  1  2  1  0
  3  2  1  0
  4  3  1  0
  4  5  1  0
  5  6  1  1
  5  1  1  0
  6  7  2  0
  8  6  1  0
  8  9  1  0
  9 10  1  6
 11 10  1  0
 12 21  1  0
 12  9  1  0
 13 12  2  0
 15 14  1  0
 16 15  2  0
 17 16  1  0
 18 24  1  0
 18 17  2  0
 19 18  1  0
 20 21  1  0
 20 19  1  1
 22 26  1  0
 22 20  1  0
 23 22  2  0
 24 25  2  0
 25 15  1  0
M  END
$$$$
