PCY.pdb
     RDKit          3D

 26 27  0  0  1  0  0  0  0  0999 V2000
    5.2253  -18.6576   21.6069 N   0  0  0  0  0  0  0  0  0  0  0  0
    4.0663  -19.2721   21.0271 C   0  0  0  0  0  0  0  0  0  0  0  0
    4.4384  -19.7386   19.6428 C   0  0  0  0  0  0  0  0  0  0  0  0
    5.6522  -18.8627   19.3358 C   0  0  0  0  0  0  0  0  0  0  0  0
    6.3158  -18.8007   20.6930 C   0  0  1  0  0  0  0  0  0  0  0  0
    7.2117  -17.5896   20.7133 C   0  0  0  0  0  0  0  0  0  0  0  0
    8.3067  -17.6365   20.0963 O   0  0  0  0  0  0  0  0  0  0  0  0
    6.8598  -16.4104   21.4009 N   0  0  0  0  0  0  0  0  0  0  0  0
    7.7276  -15.2701   21.3862 C   0  0  1  0  0  0  0  0  0  0  0  0
    7.0585  -14.0367   20.8229 C   0  0  0  0  0  0  0  0  0  0  0  0
    8.1761  -12.6555   20.6131 S   0  0  0  0  0  0  0  0  0  0  0  0
    8.2427  -14.9744   22.7535 C   0  0  0  0  0  0  0  0  0  0  0  0
    7.8033  -13.9958   23.3678 O   0  0  0  0  0  0  0  0  0  0  0  0
    5.9289  -10.9891   26.7402 O   0  0  0  0  0  0  0  0  0  0  0  0
    6.5735  -12.1905   26.4866 C   0  0  0  0  0  0  0  0  0  0  0  0
    7.9543  -12.2646   26.4604 C   0  0  0  0  0  0  0  0  0  0  0  0
    8.6435  -13.4281   26.2144 C   0  0  0  0  0  0  0  0  0  0  0  0
    7.9289  -14.6012   25.9774 C   0  0  0  0  0  0  0  0  0  0  0  0
    8.6755  -15.8339   25.6886 C   0  0  0  0  0  0  0  0  0  0  0  0
    9.7318  -15.6143   24.6619 C   0  0  2  0  0  0  0  0  0  0  0  0
    9.2137  -15.8121   23.3124 N   0  0  0  0  0  0  0  0  0  0  0  0
   10.9362  -16.4388   24.8873 C   0  0  0  0  0  0  0  0  0  0  0  0
   11.2425  -17.2937   24.0042 O   0  0  0  0  0  0  0  0  0  0  0  0
    6.5405  -14.5311   26.0028 C   0  0  0  0  0  0  0  0  0  0  0  0
    5.8616  -13.3604   26.2502 C   0  0  0  0  0  0  0  0  0  0  0  0
   11.7135  -16.2821   26.0315 O   0  0  0  0  0  0  0  0  0  0  0  0
  1  2  1  0
  3  2  1  0
  4  3  1  0
  4  5  1  0
  5  6  1  6
  5  1  1  0
  6  7  2  0
  8  6  1  0
  8  9  1  0
  9 10  1  1
 11 10  1  0
 12 21  1  0
 12  9  1  0
 13 12  2  0
 15 14  1  0
 16 15  2  0
 17 16  1  0
 18 24  1  0
 18 17  2  0
 19 18  1  0
 20 21  1  0
 20 19  1  1
 22 26  1  0
 22 20  1  0
 23 22  2  0
 24 25  2  0
 25 15  1  0
M  END
$$$$
