PCY.pdb
     RDKit          3D

 26 27  0  0  1  0  0  0  0  0999 V2000
    8.0268  -14.8995   17.8822 N   0  0  0  0  0  0  0  0  0  0  0  0
    7.2036  -14.0930   17.0285 C   0  0  0  0  0  0  0  0  0  0  0  0
    7.7821  -12.7010   17.0150 C   0  0  0  0  0  0  0  0  0  0  0  0
    8.5984  -12.6915   18.3066 C   0  0  0  0  0  0  0  0  0  0  0  0
    9.1319  -14.1062   18.3229 C   0  0  1  0  0  0  0  0  0  0  0  0
    9.5149  -14.4381   19.7416 C   0  0  0  0  0  0  0  0  0  0  0  0
   10.5758  -13.9525   20.2115 O   0  0  0  0  0  0  0  0  0  0  0  0
    8.7222  -15.2737   20.5544 N   0  0  0  0  0  0  0  0  0  0  0  0
    9.0471  -15.4695   21.9363 C   0  0  1  0  0  0  0  0  0  0  0  0
    7.9149  -16.0977   22.7170 C   0  0  0  0  0  0  0  0  0  0  0  0
    6.3093  -15.4234   22.3068 S   0  0  0  0  0  0  0  0  0  0  0  0
   10.2736  -16.3041   22.0826 C   0  0  0  0  0  0  0  0  0  0  0  0
   10.4192  -17.2983   21.3626 O   0  0  0  0  0  0  0  0  0  0  0  0
   14.4357  -14.8226   17.5515 O   0  0  0  0  0  0  0  0  0  0  0  0
   14.2604  -15.1383   18.8904 C   0  0  0  0  0  0  0  0  0  0  0  0
   13.5066  -14.3274   19.7193 C   0  0  0  0  0  0  0  0  0  0  0  0
   13.3009  -14.5929   21.0521 C   0  0  0  0  0  0  0  0  0  0  0  0
   13.8745  -15.7336   21.6116 C   0  0  0  0  0  0  0  0  0  0  0  0
   13.6706  -15.9937   23.0437 C   0  0  0  0  0  0  0  0  0  0  0  0
   12.4167  -16.7572   23.2952 C   0  0  2  0  0  0  0  0  0  0  0  0
   11.2346  -15.9433   23.0330 N   0  0  0  0  0  0  0  0  0  0  0  0
   12.3599  -17.3436   24.6496 C   0  0  0  0  0  0  0  0  0  0  0  0
   13.3183  -18.0876   25.0135 O   0  0  0  0  0  0  0  0  0  0  0  0
   14.6331  -16.5516   20.7818 C   0  0  0  0  0  0  0  0  0  0  0  0
   14.8320  -16.2754   19.4488 C   0  0  0  0  0  0  0  0  0  0  0  0
   11.2898  -17.0868   25.5022 O   0  0  0  0  0  0  0  0  0  0  0  0
  1  2  1  0
  3  2  1  0
  4  3  1  0
  4  5  1  0
  5  6  1  1
  5  1  1  0
  6  7  2  0
  8  6  1  0
  8  9  1  0
  9 10  1  1
 11 10  1  0
 12 21  1  0
 12  9  1  0
 13 12  2  0
 15 14  1  0
 16 15  2  0
 17 16  1  0
 18 24  1  0
 18 17  2  0
 19 18  1  0
 20 21  1  0
 20 19  1  1
 22 26  1  0
 22 20  1  0
 23 22  2  0
 24 25  2  0
 25 15  1  0
M  END
$$$$
