PCY.pdb
     RDKit          3D

 26 27  0  0  1  0  0  0  0  0999 V2000
    9.1063  -20.8153   16.9814 N   0  0  0  0  0  0  0  0  0  0  0  0
    8.4256  -20.8876   15.7210 C   0  0  0  0  0  0  0  0  0  0  0  0
    7.4809  -22.0609   15.7766 C   0  0  0  0  0  0  0  0  0  0  0  0
    8.0950  -22.9014   16.8951 C   0  0  0  0  0  0  0  0  0  0  0  0
    8.5680  -21.8221   17.8425 C   0  0  1  0  0  0  0  0  0  0  0  0
    9.6345  -22.4176   18.7244 C   0  0  0  0  0  0  0  0  0  0  0  0
    9.2855  -23.1502   19.6854 O   0  0  0  0  0  0  0  0  0  0  0  0
   11.0063  -22.1788   18.5046 N   0  0  0  0  0  0  0  0  0  0  0  0
   11.9982  -22.8202   19.3160 C   0  0  1  0  0  0  0  0  0  0  0  0
   13.1384  -23.3880   18.5012 C   0  0  0  0  0  0  0  0  0  0  0  0
   14.5367  -23.8969   19.4945 S   0  0  0  0  0  0  0  0  0  0  0  0
   12.5393  -21.8806   20.3391 C   0  0  0  0  0  0  0  0  0  0  0  0
   12.9719  -20.7792   19.9814 O   0  0  0  0  0  0  0  0  0  0  0  0
   11.2321  -26.2571   26.4797 O   0  0  0  0  0  0  0  0  0  0  0  0
   11.3927  -25.0535   25.8099 C   0  0  0  0  0  0  0  0  0  0  0  0
   12.3369  -24.1309   26.2224 C   0  0  0  0  0  0  0  0  0  0  0  0
   12.5377  -22.9242   25.5958 C   0  0  0  0  0  0  0  0  0  0  0  0
   11.7582  -22.5991   24.4868 C   0  0  0  0  0  0  0  0  0  0  0  0
   11.9626  -21.2949   23.8408 C   0  0  0  0  0  0  0  0  0  0  0  0
   12.9751  -21.3690   22.7509 C   0  0  2  0  0  0  0  0  0  0  0  0
   12.5457  -22.2663   21.6837 N   0  0  0  0  0  0  0  0  0  0  0  0
   14.3202  -21.7377   23.2367 C   0  0  0  0  0  0  0  0  0  0  0  0
   14.7657  -22.8840   22.9335 O   0  0  0  0  0  0  0  0  0  0  0  0
   10.8077  -23.5238   24.0688 C   0  0  0  0  0  0  0  0  0  0  0  0
   10.6158  -24.7288   24.7043 C   0  0  0  0  0  0  0  0  0  0  0  0
   15.0777  -20.8549   24.0015 O   0  0  0  0  0  0  0  0  0  0  0  0
  1  2  1  0
  3  2  1  0
  4  3  1  0
  4  5  1  0
  5  6  1  1
  5  1  1  0
  6  7  2  0
  8  6  1  0
  8  9  1  0
  9 10  1  6
 11 10  1  0
 12 21  1  0
 12  9  1  0
 13 12  2  0
 15 14  1  0
 16 15  2  0
 17 16  1  0
 18 24  1  0
 18 17  2  0
 19 18  1  0
 20 21  1  0
 20 19  1  1
 22 26  1  0
 22 20  1  0
 23 22  2  0
 24 25  2  0
 25 15  1  0
M  END
$$$$
