QPT.pdb
     RDKit          3D

 24 24  0  0  1  0  0  0  0  0999 V2000
   25.4063  -18.6850  -16.4935 N   0  0  0  0  0  0  0  0  0  0  0  0
   26.5357  -18.0565  -17.0755 C   0  0  0  0  0  0  0  0  0  0  0  0
   26.6266  -16.8004  -17.1556 O   0  0  0  0  0  0  0  0  0  0  0  0
   27.6420  -18.8777  -17.6060 C   0  0  0  0  0  0  0  0  0  0  0  0
   27.3106  -20.3692  -17.5134 C   0  0  0  0  0  0  0  0  0  0  0  0
   28.3944  -21.0891  -16.7321 C   0  0  2  0  0  0  0  0  0  0  0  0
   28.8800  -22.1445  -17.5598 N   0  0  0  0  0  0  0  0  0  0  0  0
   27.9107  -21.5380  -15.4283 C   0  0  0  0  0  0  0  0  0  0  0  0
   27.2033  -22.5993  -15.3937 O   0  0  0  0  0  0  0  0  0  0  0  0
   28.1668  -20.8840  -14.2034 N   0  0  0  0  0  0  0  0  0  0  0  0
   28.8989  -19.6790  -13.9901 C   0  0  0  0  0  0  0  0  0  0  0  0
   29.3212  -19.7193  -12.5445 C   0  0  0  0  0  0  0  0  0  0  0  0
   28.9311  -21.1044  -12.0454 C   0  0  0  0  0  0  0  0  0  0  0  0
   27.6873  -21.3223  -12.8805 C   0  0  1  0  0  0  0  0  0  0  0  0
   26.6574  -20.3754  -12.3708 C   0  0  0  0  0  0  0  0  0  0  0  0
   26.5912  -19.1725  -12.7309 O   0  0  0  0  0  0  0  0  0  0  0  0
   24.4589  -20.5946  -13.9995 C   0  0  0  0  0  0  0  0  0  0  0  0
   23.6544  -21.0281  -12.7820 C   0  0  1  0  0  0  0  0  0  0  0  0
   23.6964  -22.4122  -12.6304 O   0  0  0  0  0  0  0  0  0  0  0  0
   24.3132  -20.4178  -11.5615 C   0  0  2  0  0  0  0  0  0  0  0  0
   25.6905  -20.8254  -11.4316 N   0  0  0  0  0  0  0  0  0  0  0  0
   23.5274  -20.8545  -10.3759 C   0  0  0  0  0  0  0  0  0  0  0  0
   22.2232  -20.4407  -10.1559 O   0  0  0  0  0  0  0  0  0  0  0  0
   24.0380  -21.6284   -9.5226 O   0  0  0  0  0  0  0  0  0  0  0  0
  2  1  1  0
  2  3  2  0
  4  2  1  0
  5  4  1  0
  6  7  1  6
  6  5  1  0
  8  6  1  0
  9  8  2  0
 10  8  1  0
 11 10  1  0
 12 11  1  0
 13 12  1  0
 13 14  1  0
 14 10  1  0
 14 15  1  1
 15 21  1  0
 16 15  2  0
 18 17  1  6
 18 19  1  0
 18 20  1  0
 20 21  1  1
 20 22  1  0
 22 23  1  0
 24 22  2  0
M  END
$$$$
