QPT.pdb
     RDKit          3D

 24 24  0  0  1  0  0  0  0  0999 V2000
   26.6956  -22.8251  -13.7126 N   0  0  0  0  0  0  0  0  0  0  0  0
   26.3234  -22.6994  -15.0745 C   0  0  0  0  0  0  0  0  0  0  0  0
   27.1405  -22.9298  -16.0082 O   0  0  0  0  0  0  0  0  0  0  0  0
   24.9494  -22.2896  -15.4264 C   0  0  0  0  0  0  0  0  0  0  0  0
   24.0683  -22.1981  -14.1781 C   0  0  0  0  0  0  0  0  0  0  0  0
   24.2777  -20.8575  -13.4981 C   0  0  2  0  0  0  0  0  0  0  0  0
   24.5690  -21.1216  -12.1269 N   0  0  0  0  0  0  0  0  0  0  0  0
   23.1352  -19.9683  -13.6970 C   0  0  0  0  0  0  0  0  0  0  0  0
   22.2942  -19.8642  -12.7431 O   0  0  0  0  0  0  0  0  0  0  0  0
   22.8917  -19.2162  -14.8668 N   0  0  0  0  0  0  0  0  0  0  0  0
   23.6426  -19.2144  -16.0791 C   0  0  0  0  0  0  0  0  0  0  0  0
   23.3072  -17.9099  -16.7542 C   0  0  0  0  0  0  0  0  0  0  0  0
   22.4761  -17.1308  -15.7432 C   0  0  0  0  0  0  0  0  0  0  0  0
   21.7665  -18.2863  -15.0699 C   0  0  1  0  0  0  0  0  0  0  0  0
   20.8149  -18.8459  -16.0691 C   0  0  0  0  0  0  0  0  0  0  0  0
   21.1726  -19.5905  -17.0171 O   0  0  0  0  0  0  0  0  0  0  0  0
   17.2797  -21.0658  -14.3530 C   0  0  0  0  0  0  0  0  0  0  0  0
   18.6427  -20.4889  -14.7090 C   0  0  1  0  0  0  0  0  0  0  0  0
   19.5305  -21.5026  -15.0618 O   0  0  0  0  0  0  0  0  0  0  0  0
   18.4578  -19.6041  -15.9252 C   0  0  2  0  0  0  0  0  0  0  0  0
   19.4306  -18.5404  -15.9710 N   0  0  0  0  0  0  0  0  0  0  0  0
   17.0801  -19.0465  -15.8550 C   0  0  0  0  0  0  0  0  0  0  0  0
   16.8317  -17.7164  -15.5555 O   0  0  0  0  0  0  0  0  0  0  0  0
   16.0819  -19.7846  -16.0707 O   0  0  0  0  0  0  0  0  0  0  0  0
  2  1  1  0
  2  3  2  0
  4  2  1  0
  5  4  1  0
  6  7  1  1
  6  5  1  0
  8  6  1  0
  9  8  2  0
 10  8  1  0
 11 10  1  0
 12 11  1  0
 13 12  1  0
 13 14  1  0
 14 10  1  0
 14 15  1  6
 15 21  1  0
 16 15  2  0
 18 17  1  6
 18 19  1  0
 18 20  1  0
 20 21  1  1
 20 22  1  0
 22 23  1  0
 24 22  2  0
M  END
$$$$
