QPT.pdb
     RDKit          3D

 24 24  0  0  1  0  0  0  0  0999 V2000
   22.2162  -20.3650  -12.7368 N   0  0  0  0  0  0  0  0  0  0  0  0
   21.7516  -20.0759  -14.0443 C   0  0  0  0  0  0  0  0  0  0  0  0
   20.5242  -20.1158  -14.3349 O   0  0  0  0  0  0  0  0  0  0  0  0
   22.7148  -19.7176  -15.1043 C   0  0  0  0  0  0  0  0  0  0  0  0
   24.1331  -19.6035  -14.5401 C   0  0  0  0  0  0  0  0  0  0  0  0
   24.9008  -20.8831  -14.8165 C   0  0  2  0  0  0  0  0  0  0  0  0
   24.0186  -21.7619  -15.5123 N   0  0  0  0  0  0  0  0  0  0  0  0
   25.4555  -21.4540  -13.5910 C   0  0  0  0  0  0  0  0  0  0  0  0
   24.8403  -22.4420  -13.0681 O   0  0  0  0  0  0  0  0  0  0  0  0
   26.6212  -20.9930  -12.9413 N   0  0  0  0  0  0  0  0  0  0  0  0
   27.4687  -19.9124  -13.3251 C   0  0  0  0  0  0  0  0  0  0  0  0
   28.7890  -20.1820  -12.6514 C   0  0  0  0  0  0  0  0  0  0  0  0
   28.6551  -21.5681  -12.0346 C   0  0  0  0  0  0  0  0  0  0  0  0
   27.1806  -21.5406  -11.6925 C   0  0  1  0  0  0  0  0  0  0  0  0
   27.0157  -20.5590  -10.5850 C   0  0  0  0  0  0  0  0  0  0  0  0
   27.0640  -19.3144  -10.7567 O   0  0  0  0  0  0  0  0  0  0  0  0
   23.9373  -20.6388   -8.5207 C   0  0  0  0  0  0  0  0  0  0  0  0
   25.0937  -20.6558   -7.5309 C   0  0  1  0  0  0  0  0  0  0  0  0
   25.3864  -21.9594   -7.1367 O   0  0  0  0  0  0  0  0  0  0  0  0
   26.3136  -20.1140   -8.2482 C   0  0  2  0  0  0  0  0  0  0  0  0
   26.7917  -21.0230   -9.2607 N   0  0  0  0  0  0  0  0  0  0  0  0
   27.3617  -19.8855   -7.2172 C   0  0  0  0  0  0  0  0  0  0  0  0
   27.2442  -18.9071   -6.2429 O   0  0  0  0  0  0  0  0  0  0  0  0
   28.4060  -20.5906   -7.2026 O   0  0  0  0  0  0  0  0  0  0  0  0
  2  1  1  0
  2  3  2  0
  4  2  1  0
  5  4  1  0
  6  7  1  1
  6  5  1  0
  8  6  1  0
  9  8  2  0
 10  8  1  0
 11 10  1  0
 12 11  1  0
 13 12  1  0
 13 14  1  0
 14 10  1  0
 14 15  1  1
 15 21  1  0
 16 15  2  0
 18 17  1  6
 18 19  1  0
 18 20  1  0
 20 21  1  6
 20 22  1  0
 22 23  1  0
 24 22  2  0
M  END
$$$$
