QPT.pdb
     RDKit          3D

 24 24  0  0  1  0  0  0  0  0999 V2000
   20.6141  -21.2479  -12.2872 N   0  0  0  0  0  0  0  0  0  0  0  0
   21.0301  -22.6028  -12.3066 C   0  0  0  0  0  0  0  0  0  0  0  0
   20.2523  -23.5392  -11.9737 O   0  0  0  0  0  0  0  0  0  0  0  0
   22.4045  -22.9440  -12.7241 C   0  0  0  0  0  0  0  0  0  0  0  0
   23.0883  -21.7468  -13.3888 C   0  0  0  0  0  0  0  0  0  0  0  0
   24.1274  -21.1617  -12.4500 C   0  0  2  0  0  0  0  0  0  0  0  0
   23.4518  -20.7989  -11.2472 N   0  0  0  0  0  0  0  0  0  0  0  0
   24.8554  -20.0581  -13.0726 C   0  0  0  0  0  0  0  0  0  0  0  0
   24.3678  -18.8853  -12.9511 O   0  0  0  0  0  0  0  0  0  0  0  0
   26.0581  -20.1929  -13.7999 N   0  0  0  0  0  0  0  0  0  0  0  0
   26.7398  -21.3954  -14.1502 C   0  0  0  0  0  0  0  0  0  0  0  0
   28.1636  -20.9829  -14.4194 C   0  0  0  0  0  0  0  0  0  0  0  0
   28.2464  -19.5177  -14.0118 C   0  0  0  0  0  0  0  0  0  0  0  0
   26.8417  -19.0848  -14.3744 C   0  0  1  0  0  0  0  0  0  0  0  0
   26.7544  -19.1138  -15.8606 C   0  0  0  0  0  0  0  0  0  0  0  0
   26.9428  -20.1548  -16.5401 O   0  0  0  0  0  0  0  0  0  0  0  0
   23.7409  -18.6367  -17.6547 C   0  0  0  0  0  0  0  0  0  0  0  0
   24.6510  -17.5444  -18.1986 C   0  0  1  0  0  0  0  0  0  0  0  0
   24.4637  -16.3534  -17.5008 O   0  0  0  0  0  0  0  0  0  0  0  0
   26.0813  -17.9869  -17.9652 C   0  0  2  0  0  0  0  0  0  0  0  0
   26.4449  -17.9226  -16.5710 N   0  0  0  0  0  0  0  0  0  0  0  0
   26.9535  -17.0915  -18.7721 C   0  0  0  0  0  0  0  0  0  0  0  0
   26.9827  -17.1340  -20.1570 O   0  0  0  0  0  0  0  0  0  0  0  0
   27.7045  -16.2532  -18.2055 O   0  0  0  0  0  0  0  0  0  0  0  0
  2  1  1  0
  2  3  2  0
  4  2  1  0
  5  4  1  0
  6  7  1  1
  6  5  1  0
  8  6  1  0
  9  8  2  0
 10  8  1  0
 11 10  1  0
 12 11  1  0
 13 12  1  0
 13 14  1  0
 14 10  1  0
 14 15  1  6
 15 21  1  0
 16 15  2  0
 18 17  1  1
 18 19  1  0
 18 20  1  0
 20 21  1  1
 20 22  1  0
 22 23  1  0
 24 22  2  0
M  END
$$$$
