QPT.pdb
     RDKit          3D

 24 24  0  0  1  0  0  0  0  0999 V2000
   21.2531  -20.3052  -16.0000 N   0  0  0  0  0  0  0  0  0  0  0  0
   20.4681  -19.2305  -15.5123 C   0  0  0  0  0  0  0  0  0  0  0  0
   19.2126  -19.3171  -15.4178 O   0  0  0  0  0  0  0  0  0  0  0  0
   21.1199  -17.9715  -15.1004 C   0  0  0  0  0  0  0  0  0  0  0  0
   22.6394  -18.1404  -15.0250 C   0  0  0  0  0  0  0  0  0  0  0  0
   23.3036  -17.3073  -16.1058 C   0  0  2  0  0  0  0  0  0  0  0  0
   22.2865  -16.9311  -17.0325 N   0  0  0  0  0  0  0  0  0  0  0  0
   24.4260  -18.0150  -16.7180 C   0  0  0  0  0  0  0  0  0  0  0  0
   24.2517  -18.5031  -17.8839 O   0  0  0  0  0  0  0  0  0  0  0  0
   25.6892  -18.2001  -16.1150 N   0  0  0  0  0  0  0  0  0  0  0  0
   26.0707  -17.9059  -14.7729 C   0  0  0  0  0  0  0  0  0  0  0  0
   27.5713  -17.7754  -14.8041 C   0  0  0  0  0  0  0  0  0  0  0  0
   27.9539  -17.8332  -16.2773 C   0  0  0  0  0  0  0  0  0  0  0  0
   26.8768  -18.7754  -16.7713 C   0  0  1  0  0  0  0  0  0  0  0  0
   27.1810  -20.1142  -16.1949 C   0  0  0  0  0  0  0  0  0  0  0  0
   26.8083  -20.4696  -15.0478 O   0  0  0  0  0  0  0  0  0  0  0  0
   25.7005  -22.7402  -18.1713 C   0  0  0  0  0  0  0  0  0  0  0  0
   27.1699  -23.1172  -18.0441 C   0  0  1  0  0  0  0  0  0  0  0  0
   27.9040  -22.6076  -19.1126 O   0  0  0  0  0  0  0  0  0  0  0  0
   27.6975  -22.4684  -16.7805 C   0  0  2  0  0  0  0  0  0  0  0  0
   27.9265  -21.0552  -16.9552 N   0  0  0  0  0  0  0  0  0  0  0  0
   28.9665  -23.1617  -16.4299 C   0  0  0  0  0  0  0  0  0  0  0  0
   28.9904  -24.4336  -15.8803 O   0  0  0  0  0  0  0  0  0  0  0  0
   30.0762  -22.5985  -16.6276 O   0  0  0  0  0  0  0  0  0  0  0  0
  2  1  1  0
  2  3  2  0
  4  2  1  0
  5  4  1  0
  6  7  1  6
  6  5  1  0
  8  6  1  0
  9  8  2  0
 10  8  1  0
 11 10  1  0
 12 11  1  0
 13 12  1  0
 13 14  1  0
 14 10  1  0
 14 15  1  1
 15 21  1  0
 16 15  2  0
 18 17  1  6
 18 19  1  0
 18 20  1  0
 20 21  1  6
 20 22  1  0
 22 23  1  0
 24 22  2  0
M  END
$$$$
