QPT.pdb
     RDKit          3D

 24 24  0  0  1  0  0  0  0  0999 V2000
   17.0864   -9.6391  -19.7310 N   0  0  0  0  0  0  0  0  0  0  0  0
   17.7886  -10.8253  -20.0609 C   0  0  0  0  0  0  0  0  0  0  0  0
   17.7030  -11.3488  -21.2060 O   0  0  0  0  0  0  0  0  0  0  0  0
   18.6460  -11.4771  -19.0511 C   0  0  0  0  0  0  0  0  0  0  0  0
   18.7421  -10.6261  -17.7824 C   0  0  0  0  0  0  0  0  0  0  0  0
   19.2087  -11.4850  -16.6213 C   0  0  2  0  0  0  0  0  0  0  0  0
   18.1309  -12.3553  -16.2812 N   0  0  0  0  0  0  0  0  0  0  0  0
   19.6828  -10.6700  -15.5048 C   0  0  0  0  0  0  0  0  0  0  0  0
   18.8341  -10.3424  -14.6101 O   0  0  0  0  0  0  0  0  0  0  0  0
   21.0101  -10.2168  -15.3426 N   0  0  0  0  0  0  0  0  0  0  0  0
   22.1158  -10.4117  -16.2217 C   0  0  0  0  0  0  0  0  0  0  0  0
   23.3426  -10.2227  -15.3678 C   0  0  0  0  0  0  0  0  0  0  0  0
   22.8286  -10.0988  -13.9395 C   0  0  0  0  0  0  0  0  0  0  0  0
   21.5091   -9.4097  -14.2149 C   0  0  1  0  0  0  0  0  0  0  0  0
   21.8332   -8.0317  -14.6767 C   0  0  0  0  0  0  0  0  0  0  0  0
   22.5067   -7.7941  -15.7116 O   0  0  0  0  0  0  0  0  0  0  0  0
   19.5490   -5.6305  -15.9234 C   0  0  0  0  0  0  0  0  0  0  0  0
   20.1740   -4.9273  -14.7266 C   0  0  1  0  0  0  0  0  0  0  0  0
   19.3939   -5.1066  -13.5865 O   0  0  0  0  0  0  0  0  0  0  0  0
   21.5159   -5.5808  -14.4656 C   0  0  2  0  0  0  0  0  0  0  0  0
   21.3722   -6.9129  -13.9317 N   0  0  0  0  0  0  0  0  0  0  0  0
   22.2465   -4.7111  -13.5045 C   0  0  0  0  0  0  0  0  0  0  0  0
   22.7758   -3.4832  -13.8685 O   0  0  0  0  0  0  0  0  0  0  0  0
   22.4066   -5.0761  -12.3091 O   0  0  0  0  0  0  0  0  0  0  0  0
  2  1  1  0
  2  3  2  0
  4  2  1  0
  5  4  1  0
  6  7  1  1
  6  5  1  0
  8  6  1  0
  9  8  2  0
 10  8  1  0
 11 10  1  0
 12 11  1  0
 13 12  1  0
 13 14  1  0
 14 10  1  0
 14 15  1  6
 15 21  1  0
 16 15  2  0
 18 17  1  6
 18 19  1  0
 18 20  1  0
 20 21  1  1
 20 22  1  0
 22 23  1  0
 24 22  2  0
M  END
$$$$
