QPT.pdb
     RDKit          3D

 24 24  0  0  1  0  0  0  0  0999 V2000
   22.3906  -12.4574  -19.4452 N   0  0  0  0  0  0  0  0  0  0  0  0
   21.2162  -12.7523  -20.1820 C   0  0  0  0  0  0  0  0  0  0  0  0
   21.2400  -13.5104  -21.1906 O   0  0  0  0  0  0  0  0  0  0  0  0
   19.9246  -12.1659  -19.7725 C   0  0  0  0  0  0  0  0  0  0  0  0
   20.1154  -11.1626  -18.6323 C   0  0  0  0  0  0  0  0  0  0  0  0
   20.0174  -11.8773  -17.2969 C   0  0  2  0  0  0  0  0  0  0  0  0
   18.8198  -12.6518  -17.3204 N   0  0  0  0  0  0  0  0  0  0  0  0
   20.0913  -10.9404  -16.1779 C   0  0  0  0  0  0  0  0  0  0  0  0
   18.9920  -10.5388  -15.6697 O   0  0  0  0  0  0  0  0  0  0  0  0
   21.2889  -10.4452  -15.6174 N   0  0  0  0  0  0  0  0  0  0  0  0
   22.6234  -10.6620  -16.0706 C   0  0  0  0  0  0  0  0  0  0  0  0
   23.4996  -10.3934  -14.8748 C   0  0  0  0  0  0  0  0  0  0  0  0
   22.5432  -10.2009  -13.7051 C   0  0  0  0  0  0  0  0  0  0  0  0
   21.3845   -9.5624  -14.4411 C   0  0  1  0  0  0  0  0  0  0  0  0
   21.8356   -8.2053  -14.8559 C   0  0  0  0  0  0  0  0  0  0  0  0
   22.6043   -8.0045  -15.8304 O   0  0  0  0  0  0  0  0  0  0  0  0
   20.4484   -3.6105  -15.2573 C   0  0  0  0  0  0  0  0  0  0  0  0
   20.1926   -5.0000  -14.6904 C   0  0  1  0  0  0  0  0  0  0  0  0
   19.2956   -5.7023  -15.4920 O   0  0  0  0  0  0  0  0  0  0  0  0
   21.5087   -5.7506  -14.7168 C   0  0  2  0  0  0  0  0  0  0  0  0
   21.3917   -7.0646  -14.1340 N   0  0  0  0  0  0  0  0  0  0  0  0
   22.4945   -4.9319  -13.9606 C   0  0  0  0  0  0  0  0  0  0  0  0
   23.4069   -4.1000  -14.5897 O   0  0  0  0  0  0  0  0  0  0  0  0
   22.5263   -4.9745  -12.7017 O   0  0  0  0  0  0  0  0  0  0  0  0
  2  1  1  0
  2  3  2  0
  4  2  1  0
  5  4  1  0
  6  7  1  6
  6  5  1  0
  8  6  1  0
  9  8  2  0
 10  8  1  0
 11 10  1  0
 12 11  1  0
 13 12  1  0
 13 14  1  0
 14 10  1  0
 14 15  1  6
 15 21  1  0
 16 15  2  0
 18 17  1  6
 18 19  1  0
 18 20  1  0
 20 21  1  1
 20 22  1  0
 22 23  1  0
 24 22  2  0
M  END
$$$$
