QPT.pdb
     RDKit          3D

 24 24  0  0  1  0  0  0  0  0999 V2000
   21.2774  -10.2653  -20.3513 N   0  0  0  0  0  0  0  0  0  0  0  0
   20.4153  -11.3580  -20.6197 C   0  0  0  0  0  0  0  0  0  0  0  0
   20.4932  -12.0143  -21.6948 O   0  0  0  0  0  0  0  0  0  0  0  0
   19.3955  -11.7510  -19.6272 C   0  0  0  0  0  0  0  0  0  0  0  0
   19.4211  -10.8159  -18.4156 C   0  0  0  0  0  0  0  0  0  0  0  0
   19.4785  -11.6321  -17.1373 C   0  0  2  0  0  0  0  0  0  0  0  0
   18.2024  -12.2478  -16.9729 N   0  0  0  0  0  0  0  0  0  0  0  0
   19.8912  -10.8177  -15.9963 C   0  0  0  0  0  0  0  0  0  0  0  0
   18.9782  -10.3914  -15.2135 O   0  0  0  0  0  0  0  0  0  0  0  0
   21.2253  -10.4662  -15.6958 N   0  0  0  0  0  0  0  0  0  0  0  0
   22.4126  -10.8777  -16.3698 C   0  0  0  0  0  0  0  0  0  0  0  0
   23.5253  -10.6826  -15.3730 C   0  0  0  0  0  0  0  0  0  0  0  0
   22.8385  -10.3180  -14.0633 C   0  0  0  0  0  0  0  0  0  0  0  0
   21.6505   -9.5589  -14.6150 C   0  0  1  0  0  0  0  0  0  0  0  0
   22.1807   -8.2920  -15.1902 C   0  0  0  0  0  0  0  0  0  0  0  0
   22.5041   -8.1682  -16.3989 O   0  0  0  0  0  0  0  0  0  0  0  0
   20.1823   -4.2865  -15.4459 C   0  0  0  0  0  0  0  0  0  0  0  0
   20.4882   -5.7444  -15.1325 C   0  0  1  0  0  0  0  0  0  0  0  0
   20.2231   -6.5522  -16.2359 O   0  0  0  0  0  0  0  0  0  0  0  0
   21.9721   -5.8450  -14.8425 C   0  0  2  0  0  0  0  0  0  0  0  0
   22.3391   -7.1523  -14.3563 N   0  0  0  0  0  0  0  0  0  0  0  0
   22.2912   -4.8042  -13.8283 C   0  0  0  0  0  0  0  0  0  0  0  0
   22.8844   -3.5976  -14.1638 O   0  0  0  0  0  0  0  0  0  0  0  0
   22.0248   -4.9967  -12.6118 O   0  0  0  0  0  0  0  0  0  0  0  0
  2  1  1  0
  2  3  2  0
  4  2  1  0
  5  4  1  0
  6  7  1  1
  6  5  1  0
  8  6  1  0
  9  8  2  0
 10  8  1  0
 11 10  1  0
 12 11  1  0
 13 12  1  0
 13 14  1  0
 14 10  1  0
 14 15  1  6
 15 21  1  0
 16 15  2  0
 18 17  1  6
 18 19  1  0
 18 20  1  0
 20 21  1  1
 20 22  1  0
 22 23  1  0
 24 22  2  0
M  END
$$$$
