QPT.pdb
     RDKit          3D

 24 24  0  0  1  0  0  0  0  0999 V2000
   17.9917  -22.7791  -12.4088 N   0  0  0  0  0  0  0  0  0  0  0  0
   18.5183  -22.0110  -13.4774 C   0  0  0  0  0  0  0  0  0  0  0  0
   17.7698  -21.4843  -14.3462 O   0  0  0  0  0  0  0  0  0  0  0  0
   19.9769  -21.8127  -13.5912 C   0  0  0  0  0  0  0  0  0  0  0  0
   20.7202  -22.5655  -12.4849 C   0  0  0  0  0  0  0  0  0  0  0  0
   21.4187  -21.5766  -11.5699 C   0  0  2  0  0  0  0  0  0  0  0  0
   20.4033  -20.8688  -10.8608 N   0  0  0  0  0  0  0  0  0  0  0  0
   22.3330  -20.7101  -12.3108 C   0  0  0  0  0  0  0  0  0  0  0  0
   21.9604  -19.5102  -12.5329 O   0  0  0  0  0  0  0  0  0  0  0  0
   23.5980  -21.1021  -12.8004 N   0  0  0  0  0  0  0  0  0  0  0  0
   24.2031  -22.3914  -12.7308 C   0  0  0  0  0  0  0  0  0  0  0  0
   25.6812  -22.1476  -12.8908 C   0  0  0  0  0  0  0  0  0  0  0  0
   25.8489  -20.6340  -12.8639 C   0  0  0  0  0  0  0  0  0  0  0  0
   24.5454  -20.2334  -13.5214 C   0  0  1  0  0  0  0  0  0  0  0  0
   24.6383  -20.6513  -14.9476 C   0  0  0  0  0  0  0  0  0  0  0  0
   24.1368  -21.7180  -15.3854 O   0  0  0  0  0  0  0  0  0  0  0  0
   22.9838  -17.9073  -18.0953 C   0  0  0  0  0  0  0  0  0  0  0  0
   23.4724  -18.4844  -16.7741 C   0  0  1  0  0  0  0  0  0  0  0  0
   22.4865  -19.2734  -16.1859 O   0  0  0  0  0  0  0  0  0  0  0  0
   24.6517  -19.3853  -17.0804 C   0  0  2  0  0  0  0  0  0  0  0  0
   25.3206  -19.8246  -15.8805 N   0  0  0  0  0  0  0  0  0  0  0  0
   25.5840  -18.6080  -17.9408 C   0  0  0  0  0  0  0  0  0  0  0  0
   25.8578  -18.9657  -19.2514 O   0  0  0  0  0  0  0  0  0  0  0  0
   26.1614  -17.5823  -17.4909 O   0  0  0  0  0  0  0  0  0  0  0  0
  2  1  1  0
  2  3  2  0
  4  2  1  0
  5  4  1  0
  6  7  1  6
  6  5  1  0
  8  6  1  0
  9  8  2  0
 10  8  1  0
 11 10  1  0
 12 11  1  0
 13 12  1  0
 13 14  1  0
 14 10  1  0
 14 15  1  6
 15 21  1  0
 16 15  2  0
 18 17  1  6
 18 19  1  0
 18 20  1  0
 20 21  1  1
 20 22  1  0
 22 23  1  0
 24 22  2  0
M  END
$$$$
