QPT.pdb
     RDKit          3D

 24 24  0  0  1  0  0  0  0  0999 V2000
   12.8363  -14.6654    3.4827 N   0  0  0  0  0  0  0  0  0  0  0  0
   13.1529  -15.9464    4.0004 C   0  0  0  0  0  0  0  0  0  0  0  0
   12.3101  -16.6249    4.6500 O   0  0  0  0  0  0  0  0  0  0  0  0
   14.4977  -16.5154    3.7830 C   0  0  0  0  0  0  0  0  0  0  0  0
   15.3785  -15.5506    2.9854 C   0  0  0  0  0  0  0  0  0  0  0  0
   16.7486  -16.1661    2.7671 C   0  0  2  0  0  0  0  0  0  0  0  0
   16.5494  -17.5524    2.4964 N   0  0  0  0  0  0  0  0  0  0  0  0
   17.6408  -15.9084    3.8954 C   0  0  0  0  0  0  0  0  0  0  0  0
   18.3150  -16.8906    4.3520 O   0  0  0  0  0  0  0  0  0  0  0  0
   17.8119  -14.6532    4.5190 N   0  0  0  0  0  0  0  0  0  0  0  0
   17.0806  -13.4517    4.2844 C   0  0  0  0  0  0  0  0  0  0  0  0
   17.9723  -12.3400    4.7730 C   0  0  0  0  0  0  0  0  0  0  0  0
   19.3008  -13.0036    5.1119 C   0  0  0  0  0  0  0  0  0  0  0  0
   18.7880  -14.3487    5.5804 C   0  0  1  0  0  0  0  0  0  0  0  0
   18.0831  -14.1132    6.8707 C   0  0  0  0  0  0  0  0  0  0  0  0
   17.0172  -13.4524    6.9611 O   0  0  0  0  0  0  0  0  0  0  0  0
   16.6601  -16.8684    8.6921 C   0  0  0  0  0  0  0  0  0  0  0  0
   17.6139  -16.2073    9.6774 C   0  0  1  0  0  0  0  0  0  0  0  0
   18.8689  -16.8097    9.6286 O   0  0  0  0  0  0  0  0  0  0  0  0
   17.7857  -14.7652    9.2452 C   0  0  2  0  0  0  0  0  0  0  0  0
   18.6181  -14.6490    8.0732 N   0  0  0  0  0  0  0  0  0  0  0  0
   18.3942  -14.0350   10.3899 C   0  0  0  0  0  0  0  0  0  0  0  0
   17.6799  -13.7229   11.5357 O   0  0  0  0  0  0  0  0  0  0  0  0
   19.6005  -13.6736   10.3467 O   0  0  0  0  0  0  0  0  0  0  0  0
  2  1  1  0
  2  3  2  0
  4  2  1  0
  5  4  1  0
  6  7  1  1
  6  5  1  0
  8  6  1  0
  9  8  2  0
 10  8  1  0
 11 10  1  0
 12 11  1  0
 13 12  1  0
 13 14  1  0
 14 10  1  0
 14 15  1  1
 15 21  1  0
 16 15  2  0
 18 17  1  6
 18 19  1  0
 18 20  1  0
 20 21  1  6
 20 22  1  0
 22 23  1  0
 24 22  2  0
M  END
$$$$
