QPT.pdb
     RDKit          3D

 24 24  0  0  1  0  0  0  0  0999 V2000
   18.2232  -18.1063  -12.0358 N   0  0  0  0  0  0  0  0  0  0  0  0
   18.5736  -18.7920  -13.2258 C   0  0  0  0  0  0  0  0  0  0  0  0
   17.9994  -18.5500  -14.3231 O   0  0  0  0  0  0  0  0  0  0  0  0
   19.6349  -19.8180  -13.1978 C   0  0  0  0  0  0  0  0  0  0  0  0
   20.9513  -19.2306  -12.6828 C   0  0  0  0  0  0  0  0  0  0  0  0
   22.0084  -20.3177  -12.6168 C   0  0  2  0  0  0  0  0  0  0  0  0
   22.1528  -20.8454  -13.9342 N   0  0  0  0  0  0  0  0  0  0  0  0
   21.6821  -21.3260  -11.6107 C   0  0  0  0  0  0  0  0  0  0  0  0
   21.3306  -22.4809  -12.0238 O   0  0  0  0  0  0  0  0  0  0  0  0
   21.7258  -21.1174  -10.2150 N   0  0  0  0  0  0  0  0  0  0  0  0
   21.8213  -19.8775   -9.5172 C   0  0  0  0  0  0  0  0  0  0  0  0
   22.3607  -20.2269   -8.1546 C   0  0  0  0  0  0  0  0  0  0  0  0
   22.7238  -21.7042   -8.2277 C   0  0  0  0  0  0  0  0  0  0  0  0
   21.6502  -22.1712   -9.1874 C   0  0  1  0  0  0  0  0  0  0  0  0
   20.3550  -22.0820   -8.4583 C   0  0  0  0  0  0  0  0  0  0  0  0
   19.6888  -21.0195   -8.3679 O   0  0  0  0  0  0  0  0  0  0  0  0
   17.7127  -23.4190   -9.8746 C   0  0  0  0  0  0  0  0  0  0  0  0
   17.6677  -24.1584   -8.5447 C   0  0  1  0  0  0  0  0  0  0  0  0
   18.3294  -25.3806   -8.6373 O   0  0  0  0  0  0  0  0  0  0  0  0
   18.4129  -23.3146   -7.5304 C   0  0  2  0  0  0  0  0  0  0  0  0
   19.8226  -23.2373   -7.8249 N   0  0  0  0  0  0  0  0  0  0  0  0
   18.1932  -23.9376   -6.1972 C   0  0  0  0  0  0  0  0  0  0  0  0
   16.9692  -23.8926   -5.5491 O   0  0  0  0  0  0  0  0  0  0  0  0
   19.1344  -24.5352   -5.6100 O   0  0  0  0  0  0  0  0  0  0  0  0
  2  1  1  0
  2  3  2  0
  4  2  1  0
  5  4  1  0
  6  7  1  6
  6  5  1  0
  8  6  1  0
  9  8  2  0
 10  8  1  0
 11 10  1  0
 12 11  1  0
 13 12  1  0
 13 14  1  0
 14 10  1  0
 14 15  1  1
 15 21  1  0
 16 15  2  0
 18 17  1  6
 18 19  1  0
 18 20  1  0
 20 21  1  6
 20 22  1  0
 22 23  1  0
 24 22  2  0
M  END
$$$$
