QPT.pdb
     RDKit          3D

 24 24  0  0  1  0  0  0  0  0999 V2000
   26.4106  -22.7364  -15.8114 N   0  0  0  0  0  0  0  0  0  0  0  0
   25.8448  -23.8902  -15.2132 C   0  0  0  0  0  0  0  0  0  0  0  0
   26.5150  -24.9466  -15.0476 O   0  0  0  0  0  0  0  0  0  0  0  0
   24.4375  -23.8720  -14.7671 C   0  0  0  0  0  0  0  0  0  0  0  0
   23.8556  -22.4585  -14.8471 C   0  0  0  0  0  0  0  0  0  0  0  0
   24.0946  -21.7293  -13.5376 C   0  0  2  0  0  0  0  0  0  0  0  0
   23.0107  -22.0557  -12.6696 N   0  0  0  0  0  0  0  0  0  0  0  0
   24.2715  -20.2937  -13.7451 C   0  0  0  0  0  0  0  0  0  0  0  0
   23.2841  -19.5316  -13.4764 O   0  0  0  0  0  0  0  0  0  0  0  0
   25.4537  -19.6865  -14.2220 N   0  0  0  0  0  0  0  0  0  0  0  0
   26.6812  -20.3191  -14.5777 C   0  0  0  0  0  0  0  0  0  0  0  0
   27.7264  -19.2372  -14.4942 C   0  0  0  0  0  0  0  0  0  0  0  0
   27.0164  -18.0315  -13.8924 C   0  0  0  0  0  0  0  0  0  0  0  0
   25.6360  -18.2462  -14.4758 C   0  0  1  0  0  0  0  0  0  0  0  0
   25.7453  -17.9950  -15.9394 C   0  0  0  0  0  0  0  0  0  0  0  0
   26.0965  -18.8769  -16.7639 O   0  0  0  0  0  0  0  0  0  0  0  0
   23.5046  -18.6107  -17.3856 C   0  0  0  0  0  0  0  0  0  0  0  0
   23.4093  -17.1368  -17.7544 C   0  0  1  0  0  0  0  0  0  0  0  0
   22.6766  -16.4358  -16.7994 O   0  0  0  0  0  0  0  0  0  0  0  0
   24.8167  -16.5752  -17.7488 C   0  0  2  0  0  0  0  0  0  0  0  0
   25.4443  -16.7062  -16.4569 N   0  0  0  0  0  0  0  0  0  0  0  0
   24.7173  -15.1421  -18.1361 C   0  0  0  0  0  0  0  0  0  0  0  0
   24.4599  -14.7406  -19.4372 O   0  0  0  0  0  0  0  0  0  0  0  0
   24.8678  -14.2366  -17.2728 O   0  0  0  0  0  0  0  0  0  0  0  0
  2  1  1  0
  2  3  2  0
  4  2  1  0
  5  4  1  0
  6  7  1  1
  6  5  1  0
  8  6  1  0
  9  8  2  0
 10  8  1  0
 11 10  1  0
 12 11  1  0
 13 12  1  0
 13 14  1  0
 14 10  1  0
 14 15  1  6
 15 21  1  0
 16 15  2  0
 18 17  1  1
 18 19  1  0
 18 20  1  0
 20 21  1  1
 20 22  1  0
 22 23  1  0
 24 22  2  0
M  END
$$$$
