LTF.pdb
     RDKit          3D

 27 27  0  0  1  0  0  0  0  0999 V2000
    7.3619  -12.0172   19.2171 C   0  0  0  0  0  0  0  0  0  0  0  0
    8.2775  -13.2133   19.1629 C   0  0  1  0  0  0  0  0  0  0  0  0
    9.7051  -12.7315   19.2238 C   0  0  0  0  0  0  0  0  0  0  0  0
    7.9570  -14.2995   20.1103 C   0  0  0  0  0  0  0  0  0  0  0  0
    8.8410  -15.4823   20.1540 C   0  0  2  0  0  0  0  0  0  0  0  0
    8.8547  -16.3349   19.0162 N   0  0  0  0  0  0  0  0  0  0  0  0
    8.7042  -16.2667   21.4234 C   0  0  0  0  0  0  0  0  0  0  0  0
    7.6431  -16.9213   21.5954 O   0  0  0  0  0  0  0  0  0  0  0  0
    9.8579  -19.2207   22.4147 C   0  0  0  0  0  0  0  0  0  0  0  0
   10.4295  -18.2899   23.4757 C   0  0  1  0  0  0  0  0  0  0  0  0
   11.7627  -18.0160   23.2520 O   0  0  0  0  0  0  0  0  0  0  0  0
    9.5757  -17.0540   23.5942 C   0  0  2  0  0  0  0  0  0  0  0  0
    9.7235  -16.2741   22.3952 N   0  0  0  0  0  0  0  0  0  0  0  0
    9.9533  -16.2577   24.8048 C   0  0  0  0  0  0  0  0  0  0  0  0
   10.7848  -15.3206   24.7058 O   0  0  0  0  0  0  0  0  0  0  0  0
    9.3855  -16.5388   26.0892 N   0  0  0  0  0  0  0  0  0  0  0  0
    9.8083  -15.8621   27.2874 C   0  0  1  0  0  0  0  0  0  0  0  0
    8.6624  -15.2110   28.0174 C   0  0  0  0  0  0  0  0  0  0  0  0
    8.0675  -14.0856   27.2929 C   0  0  0  0  0  0  0  0  0  0  0  0
    6.8419  -14.1999   26.6771 C   0  0  0  0  0  0  0  0  0  0  0  0
    6.3446  -13.0986   26.0141 C   0  0  0  0  0  0  0  0  0  0  0  0
    7.0441  -11.9134   25.9624 C   0  0  0  0  0  0  0  0  0  0  0  0
    8.2787  -11.7822   26.5768 C   0  0  0  0  0  0  0  0  0  0  0  0
    8.7491  -12.8942   27.2293 C   0  0  0  0  0  0  0  0  0  0  0  0
   10.5955  -16.7638   28.1810 C   0  0  0  0  0  0  0  0  0  0  0  0
   10.6308  -18.0063   27.9858 O   0  0  0  0  0  0  0  0  0  0  0  0
   11.3173  -16.2721   29.2584 O   0  0  0  0  0  0  0  0  0  0  0  0
  2  1  1  1
  2  3  1  0
  4  2  1  0
  5  4  1  0
  5  6  1  6
  7  8  2  0
  7  5  1  0
 10  9  1  6
 10 12  1  0
 11 10  1  0
 12 13  1  6
 13  7  1  0
 14 15  2  0
 14 12  1  0
 16 14  1  0
 17 16  1  0
 17 18  1  1
 19 18  1  0
 19 20  2  0
 21 20  1  0
 22 21  2  0
 23 24  2  0
 23 22  1  0
 24 19  1  0
 25 17  1  0
 26 25  2  0
 27 25  1  0
M  END
$$$$
