LTF.pdb
     RDKit          3D

 27 27  0  0  1  0  0  0  0  0999 V2000
    6.6252  -12.6507   18.1277 C   0  0  0  0  0  0  0  0  0  0  0  0
    7.8359  -13.1821   18.8513 C   0  0  1  0  0  0  0  0  0  0  0  0
    8.7524  -12.0280   19.1706 C   0  0  0  0  0  0  0  0  0  0  0  0
    7.5505  -14.0717   19.9947 C   0  0  0  0  0  0  0  0  0  0  0  0
    8.6835  -14.5762   20.7970 C   0  0  2  0  0  0  0  0  0  0  0  0
    9.7500  -15.2100   20.1024 N   0  0  0  0  0  0  0  0  0  0  0  0
    8.2465  -15.3834   21.9814 C   0  0  0  0  0  0  0  0  0  0  0  0
    7.0978  -15.1649   22.4469 O   0  0  0  0  0  0  0  0  0  0  0  0
    8.0309  -19.1055   22.5042 C   0  0  0  0  0  0  0  0  0  0  0  0
    8.9592  -18.5234   23.5617 C   0  0  1  0  0  0  0  0  0  0  0  0
   10.2829  -18.7976   23.2879 O   0  0  0  0  0  0  0  0  0  0  0  0
    8.6774  -17.0546   23.7458 C   0  0  2  0  0  0  0  0  0  0  0  0
    9.0881  -16.3534   22.5595 N   0  0  0  0  0  0  0  0  0  0  0  0
    9.3806  -16.5232   24.9564 C   0  0  0  0  0  0  0  0  0  0  0  0
   10.4372  -15.8553   24.8263 O   0  0  0  0  0  0  0  0  0  0  0  0
    8.8754  -16.7586   26.2756 N   0  0  0  0  0  0  0  0  0  0  0  0
    9.5420  -16.2771   27.4572 C   0  0  1  0  0  0  0  0  0  0  0  0
    8.6808  -15.3411   28.2648 C   0  0  0  0  0  0  0  0  0  0  0  0
    8.1835  -14.1941   27.5016 C   0  0  0  0  0  0  0  0  0  0  0  0
    8.9825  -13.1019   27.2509 C   0  0  0  0  0  0  0  0  0  0  0  0
    8.4465  -12.0597   26.5254 C   0  0  0  0  0  0  0  0  0  0  0  0
    7.1509  -12.0985   26.0599 C   0  0  0  0  0  0  0  0  0  0  0  0
    6.3340  -13.1903   26.3036 C   0  0  0  0  0  0  0  0  0  0  0  0
    6.8937  -14.2129   27.0280 C   0  0  0  0  0  0  0  0  0  0  0  0
   10.0716  -17.4002   28.2876 C   0  0  0  0  0  0  0  0  0  0  0  0
    9.7952  -18.5975   28.0171 O   0  0  0  0  0  0  0  0  0  0  0  0
   10.8865  -17.1718   29.3864 O   0  0  0  0  0  0  0  0  0  0  0  0
  2  1  1  1
  2  3  1  0
  4  2  1  0
  5  4  1  0
  5  6  1  6
  7  8  2  0
  7  5  1  0
 10  9  1  6
 10 12  1  0
 11 10  1  0
 12 13  1  6
 13  7  1  0
 14 15  2  0
 14 12  1  0
 16 14  1  0
 17 16  1  0
 17 18  1  1
 19 18  1  0
 19 20  2  0
 21 20  1  0
 22 21  2  0
 23 24  2  0
 23 22  1  0
 24 19  1  0
 25 17  1  0
 26 25  2  0
 27 25  1  0
M  END
$$$$
