LTF.pdb
     RDKit          3D

 27 27  0  0  1  0  0  0  0  0999 V2000
    6.7611  -12.7039   18.2305 C   0  0  0  0  0  0  0  0  0  0  0  0
    8.0107  -13.4173   18.6793 C   0  0  1  0  0  0  0  0  0  0  0  0
    9.1469  -12.4264   18.7116 C   0  0  0  0  0  0  0  0  0  0  0  0
    7.8711  -14.2287   19.9050 C   0  0  0  0  0  0  0  0  0  0  0  0
    9.0794  -14.8560   20.4782 C   0  0  2  0  0  0  0  0  0  0  0  0
    9.8506  -15.6951   19.6279 N   0  0  0  0  0  0  0  0  0  0  0  0
    8.8265  -15.5061   21.8044 C   0  0  0  0  0  0  0  0  0  0  0  0
    8.0595  -14.9157   22.6088 O   0  0  0  0  0  0  0  0  0  0  0  0
    8.4878  -19.4584   22.4270 C   0  0  0  0  0  0  0  0  0  0  0  0
    9.4794  -18.7906   23.3701 C   0  0  1  0  0  0  0  0  0  0  0  0
   10.7839  -19.0913   23.0383 O   0  0  0  0  0  0  0  0  0  0  0  0
    9.2063  -17.3106   23.4449 C   0  0  2  0  0  0  0  0  0  0  0  0
    9.4247  -16.7346   22.1456 N   0  0  0  0  0  0  0  0  0  0  0  0
   10.0742  -16.6585   24.4763 C   0  0  0  0  0  0  0  0  0  0  0  0
   11.2416  -16.3002   24.1790 O   0  0  0  0  0  0  0  0  0  0  0  0
    9.6043  -16.4291   25.8095 N   0  0  0  0  0  0  0  0  0  0  0  0
   10.4239  -15.8222   26.8256 C   0  0  1  0  0  0  0  0  0  0  0  0
   10.3738  -14.3170   26.7846 C   0  0  0  0  0  0  0  0  0  0  0  0
    9.0147  -13.7727   26.8265 C   0  0  0  0  0  0  0  0  0  0  0  0
    8.5480  -13.1001   27.9328 C   0  0  0  0  0  0  0  0  0  0  0  0
    7.2582  -12.6152   27.9002 C   0  0  0  0  0  0  0  0  0  0  0  0
    6.4506  -12.7925   26.7988 C   0  0  0  0  0  0  0  0  0  0  0  0
    6.9052  -13.4671   25.6776 C   0  0  0  0  0  0  0  0  0  0  0  0
    8.1927  -13.9387   25.7379 C   0  0  0  0  0  0  0  0  0  0  0  0
   10.0999  -16.3520   28.1842 C   0  0  0  0  0  0  0  0  0  0  0  0
   10.7051  -15.9380   29.2066 O   0  0  0  0  0  0  0  0  0  0  0  0
    9.1229  -17.3178   28.3751 O   0  0  0  0  0  0  0  0  0  0  0  0
  2  1  1  1
  2  3  1  0
  4  2  1  0
  5  4  1  0
  5  6  1  6
  7  8  2  0
  7  5  1  0
 10  9  1  6
 10 12  1  0
 11 10  1  0
 12 13  1  6
 13  7  1  0
 14 15  2  0
 14 12  1  0
 16 14  1  0
 17 16  1  0
 17 18  1  1
 19 18  1  0
 19 20  2  0
 21 20  1  0
 22 21  2  0
 23 24  2  0
 23 22  1  0
 24 19  1  0
 25 17  1  0
 26 25  2  0
 27 25  1  0
M  END
$$$$
