LTF.pdb
     RDKit          3D

 27 27  0  0  1  0  0  0  0  0999 V2000
    8.1772  -11.8559   18.6625 C   0  0  0  0  0  0  0  0  0  0  0  0
    8.5981  -13.3028   18.6942 C   0  0  1  0  0  0  0  0  0  0  0  0
   10.1046  -13.3677   18.6779 C   0  0  0  0  0  0  0  0  0  0  0  0
    7.9614  -14.1247   19.7426 C   0  0  0  0  0  0  0  0  0  0  0  0
    8.3300  -15.5517   19.8426 C   0  0  2  0  0  0  0  0  0  0  0  0
    7.9738  -16.4000   18.7586 N   0  0  0  0  0  0  0  0  0  0  0  0
    7.9550  -16.1606   21.1594 C   0  0  0  0  0  0  0  0  0  0  0  0
    6.7307  -16.2432   21.4385 O   0  0  0  0  0  0  0  0  0  0  0  0
    8.1711  -19.4378   22.0113 C   0  0  0  0  0  0  0  0  0  0  0  0
    8.9580  -18.7661   23.1286 C   0  0  1  0  0  0  0  0  0  0  0  0
   10.3176  -18.9373   22.9717 O   0  0  0  0  0  0  0  0  0  0  0  0
    8.5468  -17.3219   23.2553 C   0  0  2  0  0  0  0  0  0  0  0  0
    8.9344  -16.6249   22.0589 N   0  0  0  0  0  0  0  0  0  0  0  0
    9.1632  -16.6953   24.4676 C   0  0  0  0  0  0  0  0  0  0  0  0
   10.1791  -15.9649   24.3492 O   0  0  0  0  0  0  0  0  0  0  0  0
    8.6196  -16.9084   25.7753 N   0  0  0  0  0  0  0  0  0  0  0  0
    9.2023  -16.3327   26.9592 C   0  0  1  0  0  0  0  0  0  0  0  0
    8.1777  -15.6705   27.8433 C   0  0  0  0  0  0  0  0  0  0  0  0
    7.5445  -14.4990   27.2336 C   0  0  0  0  0  0  0  0  0  0  0  0
    6.3355  -14.5975   26.5832 C   0  0  0  0  0  0  0  0  0  0  0  0
    5.7999  -13.4523   26.0341 C   0  0  0  0  0  0  0  0  0  0  0  0
    6.4460  -12.2396   26.1269 C   0  0  0  0  0  0  0  0  0  0  0  0
    7.6632  -12.1238   26.7779 C   0  0  0  0  0  0  0  0  0  0  0  0
    8.1726  -13.2796   27.3149 C   0  0  0  0  0  0  0  0  0  0  0  0
   10.0229  -17.3296   27.7103 C   0  0  0  0  0  0  0  0  0  0  0  0
    9.9215  -18.5626   27.4809 O   0  0  0  0  0  0  0  0  0  0  0  0
   10.9268  -16.9403   28.6875 O   0  0  0  0  0  0  0  0  0  0  0  0
  2  1  1  1
  2  3  1  0
  4  2  1  0
  5  4  1  0
  5  6  1  6
  7  8  2  0
  7  5  1  0
 10  9  1  6
 10 12  1  0
 11 10  1  0
 12 13  1  6
 13  7  1  0
 14 15  2  0
 14 12  1  0
 16 14  1  0
 17 16  1  0
 17 18  1  1
 19 18  1  0
 19 20  2  0
 21 20  1  0
 22 21  2  0
 23 24  2  0
 23 22  1  0
 24 19  1  0
 25 17  1  0
 26 25  2  0
 27 25  1  0
M  END
$$$$
