LTF.pdb
     RDKit          3D

 27 27  0  0  1  0  0  0  0  0999 V2000
    6.7420  -12.5292   18.2350 C   0  0  0  0  0  0  0  0  0  0  0  0
    7.9788  -13.2748   18.6666 C   0  0  1  0  0  0  0  0  0  0  0  0
    9.1516  -12.3278   18.6270 C   0  0  0  0  0  0  0  0  0  0  0  0
    7.8512  -14.0389   19.9236 C   0  0  0  0  0  0  0  0  0  0  0  0
    9.0511  -14.7051   20.4701 C   0  0  2  0  0  0  0  0  0  0  0  0
    9.8217  -15.5035   19.5811 N   0  0  0  0  0  0  0  0  0  0  0  0
    8.7846  -15.4229   21.7581 C   0  0  0  0  0  0  0  0  0  0  0  0
    8.0350  -14.8599   22.5977 O   0  0  0  0  0  0  0  0  0  0  0  0
    8.4407  -19.4160   22.2073 C   0  0  0  0  0  0  0  0  0  0  0  0
    9.4332  -18.7833   23.1734 C   0  0  1  0  0  0  0  0  0  0  0  0
   10.7376  -19.0672   22.8265 O   0  0  0  0  0  0  0  0  0  0  0  0
    9.1566  -17.3080   23.3072 C   0  0  2  0  0  0  0  0  0  0  0  0
    9.3519  -16.6837   22.0267 N   0  0  0  0  0  0  0  0  0  0  0  0
   10.0392  -16.6911   24.3477 C   0  0  0  0  0  0  0  0  0  0  0  0
   11.1830  -16.2752   24.0345 O   0  0  0  0  0  0  0  0  0  0  0  0
    9.6098  -16.5604   25.7077 N   0  0  0  0  0  0  0  0  0  0  0  0
   10.4288  -15.9515   26.7230 C   0  0  1  0  0  0  0  0  0  0  0  0
   10.3732  -14.4464   26.6835 C   0  0  0  0  0  0  0  0  0  0  0  0
    9.0175  -13.9050   26.8032 C   0  0  0  0  0  0  0  0  0  0  0  0
    8.6746  -13.0578   27.8323 C   0  0  0  0  0  0  0  0  0  0  0  0
    7.3799  -12.5874   27.8803 C   0  0  0  0  0  0  0  0  0  0  0  0
    6.4479  -12.9474   26.9323 C   0  0  0  0  0  0  0  0  0  0  0  0
    6.7771  -13.7991   25.8906 C   0  0  0  0  0  0  0  0  0  0  0  0
    8.0726  -14.2518   25.8678 C   0  0  0  0  0  0  0  0  0  0  0  0
   10.1090  -16.4836   28.0816 C   0  0  0  0  0  0  0  0  0  0  0  0
   10.7184  -16.0725   29.1028 O   0  0  0  0  0  0  0  0  0  0  0  0
    9.1317  -17.4487   28.2740 O   0  0  0  0  0  0  0  0  0  0  0  0
  2  1  1  1
  2  3  1  0
  4  2  1  0
  5  4  1  0
  5  6  1  6
  7  8  2  0
  7  5  1  0
 10  9  1  6
 10 12  1  0
 11 10  1  0
 12 13  1  6
 13  7  1  0
 14 15  2  0
 14 12  1  0
 16 14  1  0
 17 16  1  0
 17 18  1  1
 19 18  1  0
 19 20  2  0
 21 20  1  0
 22 21  2  0
 23 24  2  0
 23 22  1  0
 24 19  1  0
 25 17  1  0
 26 25  2  0
 27 25  1  0
M  END
$$$$
