LTF.pdb
     RDKit          3D

 27 27  0  0  1  0  0  0  0  0999 V2000
    6.9476  -11.9297   19.8367 C   0  0  0  0  0  0  0  0  0  0  0  0
    7.9252  -13.0569   19.6232 C   0  0  1  0  0  0  0  0  0  0  0  0
    9.3239  -12.4942   19.6490 C   0  0  0  0  0  0  0  0  0  0  0  0
    7.7253  -14.2400   20.4838 C   0  0  0  0  0  0  0  0  0  0  0  0
    8.6688  -15.3700   20.3612 C   0  0  2  0  0  0  0  0  0  0  0  0
    8.6343  -16.1273   19.1582 N   0  0  0  0  0  0  0  0  0  0  0  0
    8.6741  -16.2595   21.5670 C   0  0  0  0  0  0  0  0  0  0  0  0
    7.6768  -17.0053   21.7486 O   0  0  0  0  0  0  0  0  0  0  0  0
   10.0541  -19.2036   22.4776 C   0  0  0  0  0  0  0  0  0  0  0  0
   10.6118  -18.2395   23.5159 C   0  0  1  0  0  0  0  0  0  0  0  0
   11.9166  -17.8880   23.2397 O   0  0  0  0  0  0  0  0  0  0  0  0
    9.6922  -17.0557   23.6697 C   0  0  2  0  0  0  0  0  0  0  0  0
    9.7543  -16.2642   22.4708 N   0  0  0  0  0  0  0  0  0  0  0  0
   10.0635  -16.2433   24.8715 C   0  0  0  0  0  0  0  0  0  0  0  0
   10.9257  -15.3343   24.7732 O   0  0  0  0  0  0  0  0  0  0  0  0
    9.4549  -16.4771   26.1467 N   0  0  0  0  0  0  0  0  0  0  0  0
    9.8869  -15.8068   27.3452 C   0  0  1  0  0  0  0  0  0  0  0  0
    8.7675  -15.0629   28.0259 C   0  0  0  0  0  0  0  0  0  0  0  0
    8.2394  -13.9466   27.2383 C   0  0  0  0  0  0  0  0  0  0  0  0
    7.0453  -14.0512   26.5618 C   0  0  0  0  0  0  0  0  0  0  0  0
    6.6108  -12.9593   25.8415 C   0  0  0  0  0  0  0  0  0  0  0  0
    7.3412  -11.7928   25.7926 C   0  0  0  0  0  0  0  0  0  0  0  0
    8.5446  -11.6715   26.4677 C   0  0  0  0  0  0  0  0  0  0  0  0
    8.9526  -12.7738   27.1764 C   0  0  0  0  0  0  0  0  0  0  0  0
   10.5812  -16.7423   28.2801 C   0  0  0  0  0  0  0  0  0  0  0  0
   11.0741  -16.3346   29.3636 O   0  0  0  0  0  0  0  0  0  0  0  0
   10.7114  -18.0934   27.9948 O   0  0  0  0  0  0  0  0  0  0  0  0
  2  1  1  1
  2  3  1  0
  4  2  1  0
  5  4  1  0
  5  6  1  6
  7  8  2  0
  7  5  1  0
 10  9  1  6
 10 12  1  0
 11 10  1  0
 12 13  1  6
 13  7  1  0
 14 15  2  0
 14 12  1  0
 16 14  1  0
 17 16  1  0
 17 18  1  1
 19 18  1  0
 19 20  2  0
 21 20  1  0
 22 21  2  0
 23 24  2  0
 23 22  1  0
 24 19  1  0
 25 17  1  0
 26 25  2  0
 27 25  1  0
M  END
$$$$
