LTF.pdb
     RDKit          3D

 27 27  0  0  1  0  0  0  0  0999 V2000
    7.6095  -11.6653   19.2333 C   0  0  0  0  0  0  0  0  0  0  0  0
    8.2642  -12.9790   18.8906 C   0  0  1  0  0  0  0  0  0  0  0  0
    9.7249  -12.7314   18.6092 C   0  0  0  0  0  0  0  0  0  0  0  0
    8.0014  -14.0829   19.8353 C   0  0  0  0  0  0  0  0  0  0  0  0
    8.6660  -15.3821   19.6060 C   0  0  2  0  0  0  0  0  0  0  0  0
    8.4011  -16.0481   18.3780 N   0  0  0  0  0  0  0  0  0  0  0  0
    8.5418  -16.3152   20.7718 C   0  0  0  0  0  0  0  0  0  0  0  0
    7.5471  -17.0855   20.8016 O   0  0  0  0  0  0  0  0  0  0  0  0
    9.6372  -19.2258   21.7162 C   0  0  0  0  0  0  0  0  0  0  0  0
   10.1062  -18.3777   22.8908 C   0  0  1  0  0  0  0  0  0  0  0  0
   11.4635  -18.1381   22.8397 O   0  0  0  0  0  0  0  0  0  0  0  0
    9.2793  -17.1215   22.9849 C   0  0  2  0  0  0  0  0  0  0  0  0
    9.5010  -16.3332   21.8030 N   0  0  0  0  0  0  0  0  0  0  0  0
    9.6214  -16.3479   24.2206 C   0  0  0  0  0  0  0  0  0  0  0  0
    9.6852  -15.0935   24.1786 O   0  0  0  0  0  0  0  0  0  0  0  0
    9.8815  -17.0072   25.4650 N   0  0  0  0  0  0  0  0  0  0  0  0
    9.4000  -16.5020   26.7241 C   0  0  1  0  0  0  0  0  0  0  0  0
    7.9164  -16.2401   26.7116 C   0  0  0  0  0  0  0  0  0  0  0  0
    7.5710  -14.8170   26.6857 C   0  0  0  0  0  0  0  0  0  0  0  0
    8.4080  -13.8685   27.2280 C   0  0  0  0  0  0  0  0  0  0  0  0
    8.0171  -12.5482   27.1666 C   0  0  0  0  0  0  0  0  0  0  0  0
    6.8266  -12.1767   26.5825 C   0  0  0  0  0  0  0  0  0  0  0  0
    5.9732  -13.1190   26.0322 C   0  0  0  0  0  0  0  0  0  0  0  0
    6.3877  -14.4252   26.1075 C   0  0  0  0  0  0  0  0  0  0  0  0
    9.7985  -17.3853   27.8610 C   0  0  0  0  0  0  0  0  0  0  0  0
    9.7377  -18.6384   27.7652 O   0  0  0  0  0  0  0  0  0  0  0  0
   10.2501  -16.8641   29.0644 O   0  0  0  0  0  0  0  0  0  0  0  0
  2  1  1  1
  2  3  1  0
  4  2  1  0
  5  4  1  0
  5  6  1  6
  7  8  2  0
  7  5  1  0
 10  9  1  6
 10 12  1  0
 11 10  1  0
 12 13  1  6
 13  7  1  0
 14 15  2  0
 14 12  1  0
 16 14  1  0
 17 16  1  0
 17 18  1  6
 19 18  1  0
 19 20  2  0
 21 20  1  0
 22 21  2  0
 23 24  2  0
 23 22  1  0
 24 19  1  0
 25 17  1  0
 26 25  2  0
 27 25  1  0
M  END
$$$$
