LTF.pdb
     RDKit          3D

 27 27  0  0  1  0  0  0  0  0999 V2000
    7.3337  -13.2834   18.1269 C   0  0  0  0  0  0  0  0  0  0  0  0
    8.3538  -13.2090   19.2341 C   0  0  1  0  0  0  0  0  0  0  0  0
    8.6711  -11.7592   19.5013 C   0  0  0  0  0  0  0  0  0  0  0  0
    8.0373  -13.9989   20.4408 C   0  0  0  0  0  0  0  0  0  0  0  0
    8.2673  -15.4577   20.4104 C   0  0  2  0  0  0  0  0  0  0  0  0
    7.5623  -16.2139   19.4342 N   0  0  0  0  0  0  0  0  0  0  0  0
    8.1742  -16.0918   21.7649 C   0  0  0  0  0  0  0  0  0  0  0  0
    7.0272  -16.3574   22.2092 O   0  0  0  0  0  0  0  0  0  0  0  0
    9.1906  -19.3016   22.7768 C   0  0  0  0  0  0  0  0  0  0  0  0
    9.9255  -18.3623   23.7235 C   0  0  1  0  0  0  0  0  0  0  0  0
   11.2610  -18.2491   23.3980 O   0  0  0  0  0  0  0  0  0  0  0  0
    9.2119  -17.0370   23.7950 C   0  0  2  0  0  0  0  0  0  0  0  0
    9.3270  -16.3814   22.5205 N   0  0  0  0  0  0  0  0  0  0  0  0
    9.7740  -16.1860   24.8914 C   0  0  0  0  0  0  0  0  0  0  0  0
   10.6768  -15.3495   24.6370 O   0  0  0  0  0  0  0  0  0  0  0  0
    9.3048  -16.3008   26.2396 N   0  0  0  0  0  0  0  0  0  0  0  0
    9.8850  -15.5573   27.3272 C   0  0  1  0  0  0  0  0  0  0  0  0
    8.8533  -14.8067   28.1285 C   0  0  0  0  0  0  0  0  0  0  0  0
    8.1876  -13.7401   27.3772 C   0  0  0  0  0  0  0  0  0  0  0  0
    8.8404  -12.5683   27.0690 C   0  0  0  0  0  0  0  0  0  0  0  0
    8.1504  -11.6095   26.3589 C   0  0  0  0  0  0  0  0  0  0  0  0
    6.8458  -11.8066   25.9639 C   0  0  0  0  0  0  0  0  0  0  0  0
    6.1748  -12.9801   26.2661 C   0  0  0  0  0  0  0  0  0  0  0  0
    6.8860  -13.9168   26.9736 C   0  0  0  0  0  0  0  0  0  0  0  0
   10.7385  -16.4243   28.1940 C   0  0  0  0  0  0  0  0  0  0  0  0
   11.4106  -15.9393   29.1407 O   0  0  0  0  0  0  0  0  0  0  0  0
   10.8258  -17.7939   27.9930 O   0  0  0  0  0  0  0  0  0  0  0  0
  2  1  1  6
  2  3  1  0
  4  2  1  0
  5  4  1  0
  5  6  1  6
  7  8  2  0
  7  5  1  0
 10  9  1  6
 10 12  1  0
 11 10  1  0
 12 13  1  6
 13  7  1  0
 14 15  2  0
 14 12  1  0
 16 14  1  0
 17 16  1  0
 17 18  1  1
 19 18  1  0
 19 20  2  0
 21 20  1  0
 22 21  2  0
 23 24  2  0
 23 22  1  0
 24 19  1  0
 25 17  1  0
 26 25  2  0
 27 25  1  0
M  END
$$$$
