LTF.pdb
     RDKit          3D

 27 27  0  0  1  0  0  0  0  0999 V2000
    0.4726  -19.0768   22.9896 C   0  0  0  0  0  0  0  0  0  0  0  0
    1.5039  -19.3374   21.9218 C   0  0  1  0  0  0  0  0  0  0  0  0
    1.0330  -18.7118   20.6330 C   0  0  0  0  0  0  0  0  0  0  0  0
    2.8948  -19.0062   22.2905 C   0  0  0  0  0  0  0  0  0  0  0  0
    3.9501  -19.1493   21.2668 C   0  0  2  0  0  0  0  0  0  0  0  0
    3.8337  -20.2296   20.3496 N   0  0  0  0  0  0  0  0  0  0  0  0
    5.3328  -19.0635   21.8377 C   0  0  0  0  0  0  0  0  0  0  0  0
    5.7893  -20.0808   22.4213 O   0  0  0  0  0  0  0  0  0  0  0  0
    8.4185  -18.4667   20.0620 C   0  0  0  0  0  0  0  0  0  0  0  0
    8.3750  -17.4113   21.1587 C   0  0  1  0  0  0  0  0  0  0  0  0
    8.0888  -16.1600   20.6541 O   0  0  0  0  0  0  0  0  0  0  0  0
    7.4372  -17.8435   22.2561 C   0  0  2  0  0  0  0  0  0  0  0  0
    6.0997  -17.8871   21.7298 N   0  0  0  0  0  0  0  0  0  0  0  0
    7.5246  -16.9172   23.4294 C   0  0  0  0  0  0  0  0  0  0  0  0
    6.8113  -15.8831   23.4676 O   0  0  0  0  0  0  0  0  0  0  0  0
    8.4104  -17.1809   24.5234 N   0  0  0  0  0  0  0  0  0  0  0  0
    8.5640  -16.2741   25.6309 C   0  0  1  0  0  0  0  0  0  0  0  0
    7.2468  -15.9077   26.2638 C   0  0  0  0  0  0  0  0  0  0  0  0
    7.0027  -14.4645   26.3193 C   0  0  0  0  0  0  0  0  0  0  0  0
    5.7420  -13.9612   26.5465 C   0  0  0  0  0  0  0  0  0  0  0  0
    5.5882  -12.5921   26.5858 C   0  0  0  0  0  0  0  0  0  0  0  0
    6.6569  -11.7425   26.4045 C   0  0  0  0  0  0  0  0  0  0  0  0
    7.9318  -12.2332   26.1748 C   0  0  0  0  0  0  0  0  0  0  0  0
    8.0554  -13.5996   26.1409 C   0  0  0  0  0  0  0  0  0  0  0  0
    9.5384  -16.7933   26.6371 C   0  0  0  0  0  0  0  0  0  0  0  0
    9.7201  -16.2031   27.7334 O   0  0  0  0  0  0  0  0  0  0  0  0
   10.2803  -17.9423   26.4068 O   0  0  0  0  0  0  0  0  0  0  0  0
  2  1  1  1
  2  3  1  0
  4  2  1  0
  5  4  1  0
  5  6  1  1
  7  8  2  0
  7  5  1  0
 10  9  1  6
 10 12  1  0
 11 10  1  0
 12 13  1  6
 13  7  1  0
 14 15  2  0
 14 12  1  0
 16 14  1  0
 17 16  1  0
 17 18  1  1
 19 18  1  0
 19 20  2  0
 21 20  1  0
 22 21  2  0
 23 24  2  0
 23 22  1  0
 24 19  1  0
 25 17  1  0
 26 25  2  0
 27 25  1  0
M  END
$$$$
