LTF.pdb
     RDKit          3D

 27 27  0  0  1  0  0  0  0  0999 V2000
    7.7160  -11.9068   18.8894 C   0  0  0  0  0  0  0  0  0  0  0  0
    8.2117  -13.3287   18.9564 C   0  0  1  0  0  0  0  0  0  0  0  0
    9.7195  -13.3139   18.9740 C   0  0  0  0  0  0  0  0  0  0  0  0
    7.5954  -14.1652   20.0055 C   0  0  0  0  0  0  0  0  0  0  0  0
    7.9906  -15.5856   20.0990 C   0  0  2  0  0  0  0  0  0  0  0  0
    7.6182  -16.4432   19.0277 N   0  0  0  0  0  0  0  0  0  0  0  0
    7.6630  -16.1964   21.4275 C   0  0  0  0  0  0  0  0  0  0  0  0
    6.4481  -16.3127   21.7346 O   0  0  0  0  0  0  0  0  0  0  0  0
    7.8498  -19.4236   22.5046 C   0  0  0  0  0  0  0  0  0  0  0  0
    8.7126  -18.6886   23.5216 C   0  0  1  0  0  0  0  0  0  0  0  0
   10.0575  -18.8977   23.2985 O   0  0  0  0  0  0  0  0  0  0  0  0
    8.3322  -17.2312   23.5659 C   0  0  2  0  0  0  0  0  0  0  0  0
    8.6752  -16.6261   22.3074 N   0  0  0  0  0  0  0  0  0  0  0  0
    9.0151  -16.5351   24.7024 C   0  0  0  0  0  0  0  0  0  0  0  0
   10.0856  -15.9079   24.5024 O   0  0  0  0  0  0  0  0  0  0  0  0
    8.4744  -16.5651   26.0282 N   0  0  0  0  0  0  0  0  0  0  0  0
    9.1896  -16.0524   27.1676 C   0  0  1  0  0  0  0  0  0  0  0  0
    8.3274  -15.1852   28.0477 C   0  0  0  0  0  0  0  0  0  0  0  0
    7.7845  -14.0095   27.3636 C   0  0  0  0  0  0  0  0  0  0  0  0
    6.5681  -14.0547   26.7213 C   0  0  0  0  0  0  0  0  0  0  0  0
    6.1207  -12.9089   26.0993 C   0  0  0  0  0  0  0  0  0  0  0  0
    6.8601  -11.7471   26.1132 C   0  0  0  0  0  0  0  0  0  0  0  0
    8.0861  -11.6852   26.7551 C   0  0  0  0  0  0  0  0  0  0  0  0
    8.5065  -12.8403   27.3657 C   0  0  0  0  0  0  0  0  0  0  0  0
    9.8501  -17.1461   27.9414 C   0  0  0  0  0  0  0  0  0  0  0  0
    9.5735  -18.3548   27.7276 O   0  0  0  0  0  0  0  0  0  0  0  0
   10.7917  -16.8769   28.9236 O   0  0  0  0  0  0  0  0  0  0  0  0
  2  1  1  1
  2  3  1  0
  4  2  1  0
  5  4  1  0
  5  6  1  6
  7  8  2  0
  7  5  1  0
 10  9  1  6
 10 12  1  0
 11 10  1  0
 12 13  1  6
 13  7  1  0
 14 15  2  0
 14 12  1  0
 16 14  1  0
 17 16  1  0
 17 18  1  1
 19 18  1  0
 19 20  2  0
 21 20  1  0
 22 21  2  0
 23 24  2  0
 23 22  1  0
 24 19  1  0
 25 17  1  0
 26 25  2  0
 27 25  1  0
M  END
$$$$
