LTF.pdb
     RDKit          3D

 27 27  0  0  1  0  0  0  0  0999 V2000
    6.6301  -12.7085   17.9959 C   0  0  0  0  0  0  0  0  0  0  0  0
    7.8428  -13.3025   18.6654 C   0  0  1  0  0  0  0  0  0  0  0  0
    8.8946  -12.2301   18.7984 C   0  0  0  0  0  0  0  0  0  0  0  0
    7.5756  -14.0551   19.9074 C   0  0  0  0  0  0  0  0  0  0  0  0
    8.7235  -14.5610   20.6875 C   0  0  2  0  0  0  0  0  0  0  0  0
    9.7160  -15.3031   19.9904 N   0  0  0  0  0  0  0  0  0  0  0  0
    8.3111  -15.2523   21.9514 C   0  0  0  0  0  0  0  0  0  0  0  0
    7.3241  -14.7866   22.5780 O   0  0  0  0  0  0  0  0  0  0  0  0
    7.1265  -18.5581   22.5717 C   0  0  0  0  0  0  0  0  0  0  0  0
    8.3278  -18.4168   23.4968 C   0  0  1  0  0  0  0  0  0  0  0  0
    9.4008  -19.1657   23.0606 O   0  0  0  0  0  0  0  0  0  0  0  0
    8.6566  -16.9603   23.6993 C   0  0  2  0  0  0  0  0  0  0  0  0
    9.0013  -16.3837   22.4279 N   0  0  0  0  0  0  0  0  0  0  0  0
    9.7716  -16.7963   24.6853 C   0  0  0  0  0  0  0  0  0  0  0  0
   10.7186  -17.6223   24.7055 O   0  0  0  0  0  0  0  0  0  0  0  0
    9.7884  -15.7097   25.6181 N   0  0  0  0  0  0  0  0  0  0  0  0
    9.6110  -15.9020   27.0337 C   0  0  1  0  0  0  0  0  0  0  0  0
    8.1850  -15.6892   27.4709 C   0  0  0  0  0  0  0  0  0  0  0  0
    7.6595  -14.3634   27.1371 C   0  0  0  0  0  0  0  0  0  0  0  0
    6.3392  -14.1840   26.7925 C   0  0  0  0  0  0  0  0  0  0  0  0
    5.9158  -12.9073   26.4914 C   0  0  0  0  0  0  0  0  0  0  0  0
    6.7791  -11.8349   26.5306 C   0  0  0  0  0  0  0  0  0  0  0  0
    8.1106  -11.9988   26.8755 C   0  0  0  0  0  0  0  0  0  0  0  0
    8.5043  -13.2802   27.1703 C   0  0  0  0  0  0  0  0  0  0  0  0
   10.1370  -17.2269   27.4802 C   0  0  0  0  0  0  0  0  0  0  0  0
    9.8526  -18.2839   26.8595 O   0  0  0  0  0  0  0  0  0  0  0  0
   10.9571  -17.3476   28.5922 O   0  0  0  0  0  0  0  0  0  0  0  0
  2  1  1  1
  2  3  1  0
  4  2  1  0
  5  4  1  0
  5  6  1  6
  7  8  2  0
  7  5  1  0
 10  9  1  6
 10 12  1  0
 11 10  1  0
 12 13  1  6
 13  7  1  0
 14 15  2  0
 14 12  1  0
 16 14  1  0
 17 16  1  0
 17 18  1  6
 19 18  1  0
 19 20  2  0
 21 20  1  0
 22 21  2  0
 23 24  2  0
 23 22  1  0
 24 19  1  0
 25 17  1  0
 26 25  2  0
 27 25  1  0
M  END
$$$$
