LTF.pdb
     RDKit          3D

 27 27  0  0  1  0  0  0  0  0999 V2000
    6.9737  -12.1259   18.4079 C   0  0  0  0  0  0  0  0  0  0  0  0
    8.0397  -13.1041   18.8306 C   0  0  1  0  0  0  0  0  0  0  0  0
    9.2739  -12.3325   19.2246 C   0  0  0  0  0  0  0  0  0  0  0  0
    7.6131  -14.1200   19.8135 C   0  0  0  0  0  0  0  0  0  0  0  0
    8.6316  -15.0306   20.3752 C   0  0  2  0  0  0  0  0  0  0  0  0
    9.0596  -16.1178   19.5649 N   0  0  0  0  0  0  0  0  0  0  0  0
    8.3081  -15.4807   21.7674 C   0  0  0  0  0  0  0  0  0  0  0  0
    7.8664  -14.6204   22.5728 O   0  0  0  0  0  0  0  0  0  0  0  0
    6.6681  -19.0212   22.7243 C   0  0  0  0  0  0  0  0  0  0  0  0
    7.9224  -18.7043   23.5275 C   0  0  1  0  0  0  0  0  0  0  0  0
    9.0010  -19.4558   23.1103 O   0  0  0  0  0  0  0  0  0  0  0  0
    8.1847  -17.2205   23.5136 C   0  0  2  0  0  0  0  0  0  0  0  0
    8.4914  -16.8185   22.1675 N   0  0  0  0  0  0  0  0  0  0  0  0
    9.2992  -16.8662   24.4489 C   0  0  0  0  0  0  0  0  0  0  0  0
   10.4665  -16.7186   24.0075 O   0  0  0  0  0  0  0  0  0  0  0  0
    9.0680  -16.6888   25.8511 N   0  0  0  0  0  0  0  0  0  0  0  0
   10.0941  -16.2362   26.7537 C   0  0  1  0  0  0  0  0  0  0  0  0
   10.2026  -14.7342   26.7978 C   0  0  0  0  0  0  0  0  0  0  0  0
    8.9071  -14.0523   26.8409 C   0  0  0  0  0  0  0  0  0  0  0  0
    8.0052  -14.1654   25.8074 C   0  0  0  0  0  0  0  0  0  0  0  0
    6.8057  -13.4956   25.9179 C   0  0  0  0  0  0  0  0  0  0  0  0
    6.5069  -12.7326   27.0248 C   0  0  0  0  0  0  0  0  0  0  0  0
    7.4036  -12.6087   28.0733 C   0  0  0  0  0  0  0  0  0  0  0  0
    8.5894  -13.2861   27.9364 C   0  0  0  0  0  0  0  0  0  0  0  0
    9.9254  -16.8212   28.1178 C   0  0  0  0  0  0  0  0  0  0  0  0
    8.9426  -17.5564   28.3948 O   0  0  0  0  0  0  0  0  0  0  0  0
   10.8405  -16.5799   29.1317 O   0  0  0  0  0  0  0  0  0  0  0  0
  2  1  1  1
  2  3  1  0
  4  2  1  0
  5  4  1  0
  5  6  1  6
  7  8  2  0
  7  5  1  0
 10  9  1  6
 10 12  1  0
 11 10  1  0
 12 13  1  6
 13  7  1  0
 14 15  2  0
 14 12  1  0
 16 14  1  0
 17 16  1  0
 17 18  1  1
 19 18  1  0
 19 20  2  0
 21 20  1  0
 22 21  2  0
 23 24  2  0
 23 22  1  0
 24 19  1  0
 25 17  1  0
 26 25  2  0
 27 25  1  0
M  END
$$$$
