LTF.pdb
     RDKit          3D

 27 27  0  0  1  0  0  0  0  0999 V2000
    7.7063  -11.9243   19.5730 C   0  0  0  0  0  0  0  0  0  0  0  0
    8.3579  -13.2805   19.4833 C   0  0  1  0  0  0  0  0  0  0  0  0
    9.8264  -13.0923   19.1971 C   0  0  0  0  0  0  0  0  0  0  0  0
    8.0649  -14.1989   20.6017 C   0  0  0  0  0  0  0  0  0  0  0  0
    8.6953  -15.5349   20.6021 C   0  0  2  0  0  0  0  0  0  0  0  0
    8.3790  -16.4110   19.5277 N   0  0  0  0  0  0  0  0  0  0  0  0
    8.5876  -16.2308   21.9247 C   0  0  0  0  0  0  0  0  0  0  0  0
    7.4779  -16.7400   22.2296 O   0  0  0  0  0  0  0  0  0  0  0  0
    9.5047  -19.2015   23.1276 C   0  0  0  0  0  0  0  0  0  0  0  0
   10.2154  -18.2604   24.0910 C   0  0  1  0  0  0  0  0  0  0  0  0
   11.5681  -18.1880   23.8317 O   0  0  0  0  0  0  0  0  0  0  0  0
    9.5341  -16.9163   24.0987 C   0  0  2  0  0  0  0  0  0  0  0  0
    9.6865  -16.3142   22.8018 N   0  0  0  0  0  0  0  0  0  0  0  0
   10.0993  -16.0369   25.1708 C   0  0  0  0  0  0  0  0  0  0  0  0
   11.1028  -15.3196   24.9305 O   0  0  0  0  0  0  0  0  0  0  0  0
    9.5200  -15.9906   26.4797 N   0  0  0  0  0  0  0  0  0  0  0  0
   10.0623  -15.1792   27.5380 C   0  0  1  0  0  0  0  0  0  0  0  0
    9.0103  -14.3473   28.2244 C   0  0  0  0  0  0  0  0  0  0  0  0
    8.1276  -13.6347   27.2980 C   0  0  0  0  0  0  0  0  0  0  0  0
    8.5061  -13.3871   25.9980 C   0  0  0  0  0  0  0  0  0  0  0  0
    7.6230  -12.7113   25.1836 C   0  0  0  0  0  0  0  0  0  0  0  0
    6.3955  -12.2911   25.6454 C   0  0  0  0  0  0  0  0  0  0  0  0
    5.9997  -12.5324   26.9508 C   0  0  0  0  0  0  0  0  0  0  0  0
    6.8985  -13.2070   27.7388 C   0  0  0  0  0  0  0  0  0  0  0  0
   10.8471  -15.9961   28.5118 C   0  0  0  0  0  0  0  0  0  0  0  0
   10.8237  -17.2536   28.4757 O   0  0  0  0  0  0  0  0  0  0  0  0
   11.6310  -15.4059   29.4920 O   0  0  0  0  0  0  0  0  0  0  0  0
  2  1  1  1
  2  3  1  0
  4  2  1  0
  5  4  1  0
  5  6  1  6
  7  8  2  0
  7  5  1  0
 10  9  1  6
 10 12  1  0
 11 10  1  0
 12 13  1  6
 13  7  1  0
 14 15  2  0
 14 12  1  0
 16 14  1  0
 17 16  1  0
 17 18  1  1
 19 18  1  0
 19 20  2  0
 21 20  1  0
 22 21  2  0
 23 24  2  0
 23 22  1  0
 24 19  1  0
 25 17  1  0
 26 25  2  0
 27 25  1  0
M  END
$$$$
