LTF.pdb
     RDKit          3D

 27 27  0  0  1  0  0  0  0  0999 V2000
    7.8183  -11.9236   18.6553 C   0  0  0  0  0  0  0  0  0  0  0  0
    8.5046  -13.2377   18.3830 C   0  0  1  0  0  0  0  0  0  0  0  0
    9.9411  -13.1337   18.8298 C   0  0  0  0  0  0  0  0  0  0  0  0
    7.7958  -14.4361   18.8748 C   0  0  0  0  0  0  0  0  0  0  0  0
    8.4892  -15.7392   18.8190 C   0  0  2  0  0  0  0  0  0  0  0  0
    8.1567  -16.6152   17.7494 N   0  0  0  0  0  0  0  0  0  0  0  0
    8.4889  -16.4575   20.1340 C   0  0  0  0  0  0  0  0  0  0  0  0
    7.3990  -16.9411   20.5365 O   0  0  0  0  0  0  0  0  0  0  0  0
   10.2601  -19.4117   21.0348 C   0  0  0  0  0  0  0  0  0  0  0  0
   10.6440  -18.4053   22.1112 C   0  0  1  0  0  0  0  0  0  0  0  0
   11.9434  -17.9674   21.9627 O   0  0  0  0  0  0  0  0  0  0  0  0
    9.6361  -17.2859   22.1562 C   0  0  2  0  0  0  0  0  0  0  0  0
    9.6642  -16.5887   20.8990 N   0  0  0  0  0  0  0  0  0  0  0  0
    9.9211  -16.3558   23.2946 C   0  0  0  0  0  0  0  0  0  0  0  0
   10.4129  -15.2212   23.0705 O   0  0  0  0  0  0  0  0  0  0  0  0
    9.6450  -16.7289   24.6495 N   0  0  0  0  0  0  0  0  0  0  0  0
    9.1734  -15.7873   25.6310 C   0  0  1  0  0  0  0  0  0  0  0  0
    7.9220  -15.0731   25.1909 C   0  0  0  0  0  0  0  0  0  0  0  0
    7.4387  -14.0845   26.1575 C   0  0  0  0  0  0  0  0  0  0  0  0
    6.0925  -13.8849   26.3632 C   0  0  0  0  0  0  0  0  0  0  0  0
    5.7119  -12.9376   27.2893 C   0  0  0  0  0  0  0  0  0  0  0  0
    6.6419  -12.2062   27.9942 C   0  0  0  0  0  0  0  0  0  0  0  0
    8.0002  -12.3950   27.7988 C   0  0  0  0  0  0  0  0  0  0  0  0
    8.3501  -13.3442   26.8712 C   0  0  0  0  0  0  0  0  0  0  0  0
    9.0066  -16.4254   26.9713 C   0  0  0  0  0  0  0  0  0  0  0  0
    8.2695  -17.4332   27.1262 O   0  0  0  0  0  0  0  0  0  0  0  0
    9.6540  -15.9362   28.0961 O   0  0  0  0  0  0  0  0  0  0  0  0
  2  1  1  1
  2  3  1  0
  4  2  1  0
  5  4  1  0
  5  6  1  6
  7  8  2  0
  7  5  1  0
 10  9  1  6
 10 12  1  0
 11 10  1  0
 12 13  1  6
 13  7  1  0
 14 15  2  0
 14 12  1  0
 16 14  1  0
 17 16  1  0
 17 18  1  6
 19 18  1  0
 19 20  2  0
 21 20  1  0
 22 21  2  0
 23 24  2  0
 23 22  1  0
 24 19  1  0
 25 17  1  0
 26 25  2  0
 27 25  1  0
M  END
$$$$
