NEY.pdb
     RDKit          3D

 30 30  0  0  1  0  0  0  0  0999 V2000
   29.9665  -10.2282  -19.1896 N   0  0  0  0  0  0  0  0  0  0  0  0
   29.8829   -9.1193  -18.3159 C   0  0  0  0  0  0  0  0  0  0  0  0
   30.8437   -8.7660  -17.5998 O   0  0  0  0  0  0  0  0  0  0  0  0
   28.6303   -8.3519  -18.2409 C   0  0  0  0  0  0  0  0  0  0  0  0
   27.6091   -8.8901  -19.2353 C   0  0  2  0  0  0  0  0  0  0  0  0
   27.9490   -8.4708  -20.5677 N   0  0  0  0  0  0  0  0  0  0  0  0
   26.2828   -8.3058  -18.8241 C   0  0  0  0  0  0  0  0  0  0  0  0
   26.0715   -7.0950  -19.1429 O   0  0  0  0  0  0  0  0  0  0  0  0
   25.3851   -9.1293  -18.1266 N   0  0  0  0  0  0  0  0  0  0  0  0
   24.1124   -8.6866  -17.6736 C   0  0  1  0  0  0  0  0  0  0  0  0
   23.0831   -9.7906  -17.4869 C   0  0  0  0  0  0  0  0  0  0  0  0
   21.7299   -9.2736  -17.0767 C   0  0  0  0  0  0  0  0  0  0  0  0
   20.8391  -10.4560  -16.8493 C   0  0  0  0  0  0  0  0  0  0  0  0
   21.2881  -11.6269  -16.9198 O   0  0  0  0  0  0  0  0  0  0  0  0
   24.1240   -7.8208  -16.5053 C   0  0  0  0  0  0  0  0  0  0  0  0
   24.8016   -8.0848  -15.4527 O   0  0  0  0  0  0  0  0  0  0  0  0
   19.4894  -10.2753  -16.5541 O   0  0  0  0  0  0  0  0  0  0  0  0
   22.5166   -0.9508  -19.3295 O   0  0  0  0  0  0  0  0  0  0  0  0
   23.0001   -1.8871  -18.4211 C   0  0  0  0  0  0  0  0  0  0  0  0
   22.6722   -1.7754  -17.0903 C   0  0  0  0  0  0  0  0  0  0  0  0
   23.1402   -2.6893  -16.1825 C   0  0  0  0  0  0  0  0  0  0  0  0
   23.9413   -3.7291  -16.5804 C   0  0  0  0  0  0  0  0  0  0  0  0
   24.4337   -4.6955  -15.6044 C   0  0  0  0  0  0  0  0  0  0  0  0
   23.3776   -5.7312  -15.3056 C   0  0  2  0  0  0  0  0  0  0  0  0
   23.3815   -6.6292  -16.4700 N   0  0  0  0  0  0  0  0  0  0  0  0
   22.0454   -5.2000  -15.0439 C   0  0  0  0  0  0  0  0  0  0  0  0
   21.7930   -4.4361  -13.9240 O   0  0  0  0  0  0  0  0  0  0  0  0
   24.3005   -3.8820  -17.9243 C   0  0  0  0  0  0  0  0  0  0  0  0
   23.8053   -2.9381  -18.7987 C   0  0  0  0  0  0  0  0  0  0  0  0
   21.1002   -5.4300  -15.8355 O   0  0  0  0  0  0  0  0  0  0  0  0
  2  1  1  0
  3  2  2  0
  4  5  1  0
  4  2  1  0
  5  6  1  6
  7  8  2  0
  7  5  1  0
  9  7  1  0
 10  9  1  0
 11 12  1  0
 10 11  1  1
 12 13  1  0
 13 14  2  0
 13 17  1  0
 15 16  2  0
 15 10  1  0
 18 19  1  0
 19 20  2  0
 20 21  1  0
 22 23  1  0
 22 21  2  0
 24 23  1  6
 24 25  1  0
 25 15  1  0
 26 24  1  0
 27 26  1  0
 28 22  1  0
 29 28  2  0
 29 19  1  0
 30 26  2  0
M  END
$$$$
