NEY.pdb
     RDKit          3D

 30 30  0  0  1  0  0  0  0  0999 V2000
   34.5180  -29.8718  -22.0325 N   0  0  0  0  0  0  0  0  0  0  0  0
   34.6976  -29.9714  -20.6333 C   0  0  0  0  0  0  0  0  0  0  0  0
   35.0325  -31.0416  -20.0827 O   0  0  0  0  0  0  0  0  0  0  0  0
   34.4859  -28.7837  -19.7918 C   0  0  0  0  0  0  0  0  0  0  0  0
   33.3171  -29.0007  -18.8389 C   0  0  2  0  0  0  0  0  0  0  0  0
   33.3914  -30.3134  -18.2574 N   0  0  0  0  0  0  0  0  0  0  0  0
   32.0708  -28.8675  -19.6748 C   0  0  0  0  0  0  0  0  0  0  0  0
   31.8648  -27.7354  -20.2118 O   0  0  0  0  0  0  0  0  0  0  0  0
   31.2356  -29.9886  -19.8002 N   0  0  0  0  0  0  0  0  0  0  0  0
   30.0059  -29.9685  -20.5133 C   0  0  1  0  0  0  0  0  0  0  0  0
   30.0007  -30.7826  -21.7979 C   0  0  0  0  0  0  0  0  0  0  0  0
   28.7586  -30.5764  -22.6233 C   0  0  0  0  0  0  0  0  0  0  0  0
   28.5908  -31.7765  -23.5034 C   0  0  0  0  0  0  0  0  0  0  0  0
   29.5859  -32.4352  -23.8951 O   0  0  0  0  0  0  0  0  0  0  0  0
   28.8178  -30.2729  -19.7319 C   0  0  0  0  0  0  0  0  0  0  0  0
   28.6225  -31.4110  -19.1811 O   0  0  0  0  0  0  0  0  0  0  0  0
   27.3203  -32.1844  -23.9046 O   0  0  0  0  0  0  0  0  0  0  0  0
   29.8567  -33.3573  -14.8653 O   0  0  0  0  0  0  0  0  0  0  0  0
   29.1245  -32.3403  -15.4697 C   0  0  0  0  0  0  0  0  0  0  0  0
   29.7827  -31.3213  -16.1174 C   0  0  0  0  0  0  0  0  0  0  0  0
   29.0763  -30.3119  -16.7178 C   0  0  0  0  0  0  0  0  0  0  0  0
   27.7052  -30.2971  -16.6853 C   0  0  0  0  0  0  0  0  0  0  0  0
   26.9643  -29.2167  -17.3279 C   0  0  0  0  0  0  0  0  0  0  0  0
   26.5991  -29.5937  -18.7428 C   0  0  2  0  0  0  0  0  0  0  0  0
   27.8061  -29.3186  -19.5362 N   0  0  0  0  0  0  0  0  0  0  0  0
   25.4336  -28.9064  -19.2858 C   0  0  0  0  0  0  0  0  0  0  0  0
   25.5345  -28.1205  -20.4142 O   0  0  0  0  0  0  0  0  0  0  0  0
   26.9937  -31.3134  -16.0376 C   0  0  0  0  0  0  0  0  0  0  0  0
   27.7483  -32.3058  -15.4491 C   0  0  0  0  0  0  0  0  0  0  0  0
   24.3131  -29.0170  -18.7332 O   0  0  0  0  0  0  0  0  0  0  0  0
  2  1  1  0
  3  2  2  0
  4  5  1  0
  4  2  1  0
  5  6  1  6
  7  8  2  0
  7  5  1  0
  9  7  1  0
 10  9  1  0
 11 12  1  0
 10 11  1  6
 12 13  1  0
 13 14  2  0
 13 17  1  0
 15 16  2  0
 15 10  1  0
 18 19  1  0
 19 20  2  0
 20 21  1  0
 22 23  1  0
 22 21  2  0
 24 23  1  1
 24 25  1  0
 25 15  1  0
 26 24  1  0
 27 26  1  0
 28 22  1  0
 29 28  2  0
 29 19  1  0
 30 26  2  0
M  END
$$$$
