NEY.pdb
     RDKit          3D

 30 30  0  0  1  0  0  0  0  0999 V2000
   12.5858  -14.3701  -14.8542 N   0  0  0  0  0  0  0  0  0  0  0  0
   13.7187  -13.5866  -15.1743 C   0  0  0  0  0  0  0  0  0  0  0  0
   14.1519  -13.4940  -16.3425 O   0  0  0  0  0  0  0  0  0  0  0  0
   14.4155  -12.8543  -14.1058 C   0  0  0  0  0  0  0  0  0  0  0  0
   15.9071  -12.7609  -14.4016 C   0  0  2  0  0  0  0  0  0  0  0  0
   16.5454  -14.0185  -14.1228 N   0  0  0  0  0  0  0  0  0  0  0  0
   16.4436  -11.6874  -13.4910 C   0  0  0  0  0  0  0  0  0  0  0  0
   16.3238  -11.8883  -12.2429 O   0  0  0  0  0  0  0  0  0  0  0  0
   17.0306  -10.5551  -14.0775 N   0  0  0  0  0  0  0  0  0  0  0  0
   17.5863   -9.4861  -13.3229 C   0  0  1  0  0  0  0  0  0  0  0  0
   18.5061   -8.5632  -14.1072 C   0  0  0  0  0  0  0  0  0  0  0  0
   19.1561   -7.5094  -13.2508 C   0  0  0  0  0  0  0  0  0  0  0  0
   20.0339   -6.6792  -14.1360 C   0  0  0  0  0  0  0  0  0  0  0  0
   21.2318   -6.9969  -14.3402 O   0  0  0  0  0  0  0  0  0  0  0  0
   16.6384   -8.6982  -12.5513 C   0  0  0  0  0  0  0  0  0  0  0  0
   15.3952   -8.6261  -12.8447 O   0  0  0  0  0  0  0  0  0  0  0  0
   19.5329   -5.5337  -14.7512 O   0  0  0  0  0  0  0  0  0  0  0  0
   11.5784   -6.0343   -6.3238 O   0  0  0  0  0  0  0  0  0  0  0  0
   12.5462   -6.5885   -7.1556 C   0  0  0  0  0  0  0  0  0  0  0  0
   12.1605   -7.3367   -8.2430 C   0  0  0  0  0  0  0  0  0  0  0  0
   13.1013   -7.8896   -9.0722 C   0  0  0  0  0  0  0  0  0  0  0  0
   14.4403   -7.7090   -8.8361 C   0  0  0  0  0  0  0  0  0  0  0  0
   15.4324   -8.3030   -9.7259 C   0  0  0  0  0  0  0  0  0  0  0  0
   16.0934   -7.2389  -10.5674 C   0  0  2  0  0  0  0  0  0  0  0  0
   17.0431   -7.9637  -11.4248 N   0  0  0  0  0  0  0  0  0  0  0  0
   16.7526   -6.1767   -9.8173 C   0  0  0  0  0  0  0  0  0  0  0  0
   16.1027   -4.9918   -9.5439 O   0  0  0  0  0  0  0  0  0  0  0  0
   14.8785   -6.9551   -7.7415 C   0  0  0  0  0  0  0  0  0  0  0  0
   13.8950   -6.4199   -6.9372 C   0  0  0  0  0  0  0  0  0  0  0  0
   17.9287   -6.3216   -9.4061 O   0  0  0  0  0  0  0  0  0  0  0  0
  2  1  1  0
  3  2  2  0
  4  5  1  0
  4  2  1  0
  5  6  1  1
  7  8  2  0
  7  5  1  0
  9  7  1  0
 10  9  1  0
 11 12  1  0
 10 11  1  6
 12 13  1  0
 13 14  2  0
 13 17  1  0
 15 16  2  0
 15 10  1  0
 18 19  1  0
 19 20  2  0
 20 21  1  0
 22 23  1  0
 22 21  2  0
 24 23  1  1
 24 25  1  0
 25 15  1  0
 26 24  1  0
 27 26  1  0
 28 22  1  0
 29 28  2  0
 29 19  1  0
 30 26  2  0
M  END
$$$$
