NEY.pdb
     RDKit          3D

 30 30  0  0  1  0  0  0  0  0999 V2000
   20.3242  -15.4326  -16.8655 N   0  0  0  0  0  0  0  0  0  0  0  0
   21.4214  -14.7445  -16.2974 C   0  0  0  0  0  0  0  0  0  0  0  0
   22.2482  -15.3144  -15.5542 O   0  0  0  0  0  0  0  0  0  0  0  0
   21.6032  -13.3134  -16.5846 C   0  0  0  0  0  0  0  0  0  0  0  0
   20.4020  -12.7594  -17.3404 C   0  0  2  0  0  0  0  0  0  0  0  0
   20.3534  -13.3147  -18.6655 N   0  0  0  0  0  0  0  0  0  0  0  0
   20.6045  -11.2679  -17.4040 C   0  0  0  0  0  0  0  0  0  0  0  0
   21.3607  -10.8357  -18.3280 O   0  0  0  0  0  0  0  0  0  0  0  0
   19.9522  -10.4706  -16.4505 N   0  0  0  0  0  0  0  0  0  0  0  0
   20.0181   -9.0505  -16.4455 C   0  0  1  0  0  0  0  0  0  0  0  0
   18.6796   -8.3511  -16.2665 C   0  0  0  0  0  0  0  0  0  0  0  0
   17.5884   -8.9347  -17.1240 C   0  0  0  0  0  0  0  0  0  0  0  0
   16.3032   -8.8287  -16.3624 C   0  0  0  0  0  0  0  0  0  0  0  0
   15.2980   -9.5052  -16.6930 O   0  0  0  0  0  0  0  0  0  0  0  0
   21.0030   -8.4672  -15.5487 C   0  0  0  0  0  0  0  0  0  0  0  0
   21.1335   -8.8325  -14.3295 O   0  0  0  0  0  0  0  0  0  0  0  0
   16.2010   -7.9725  -15.2679 O   0  0  0  0  0  0  0  0  0  0  0  0
   26.1401  -11.9671  -16.6915 O   0  0  0  0  0  0  0  0  0  0  0  0
   25.6379  -10.6826  -16.5085 C   0  0  0  0  0  0  0  0  0  0  0  0
   25.8721  -10.0233  -15.3246 C   0  0  0  0  0  0  0  0  0  0  0  0
   25.3844   -8.7576  -15.1285 C   0  0  0  0  0  0  0  0  0  0  0  0
   24.6563   -8.1253  -16.1038 C   0  0  0  0  0  0  0  0  0  0  0  0
   24.1420   -6.7779  -15.8830 C   0  0  0  0  0  0  0  0  0  0  0  0
   22.8605   -6.8241  -15.0873 C   0  0  2  0  0  0  0  0  0  0  0  0
   21.8780   -7.4568  -15.9799 N   0  0  0  0  0  0  0  0  0  0  0  0
   22.3874   -5.5343  -14.5993 C   0  0  0  0  0  0  0  0  0  0  0  0
   21.2152   -4.9829  -15.0716 O   0  0  0  0  0  0  0  0  0  0  0  0
   24.3935   -8.7581  -17.3241 C   0  0  0  0  0  0  0  0  0  0  0  0
   24.9049  -10.0296  -17.4738 C   0  0  0  0  0  0  0  0  0  0  0  0
   23.0417   -4.8994  -13.7379 O   0  0  0  0  0  0  0  0  0  0  0  0
  2  1  1  0
  3  2  2  0
  4  5  1  0
  4  2  1  0
  5  6  1  6
  7  8  2  0
  7  5  1  0
  9  7  1  0
 10  9  1  0
 11 12  1  0
 10 11  1  1
 12 13  1  0
 13 14  2  0
 13 17  1  0
 15 16  2  0
 15 10  1  0
 18 19  1  0
 19 20  2  0
 20 21  1  0
 22 23  1  0
 22 21  2  0
 24 23  1  6
 24 25  1  0
 25 15  1  0
 26 24  1  0
 27 26  1  0
 28 22  1  0
 29 28  2  0
 29 19  1  0
 30 26  2  0
M  END
$$$$
