NEY.pdb
     RDKit          3D

 30 30  0  0  1  0  0  0  0  0999 V2000
   18.5131  -15.1632  -17.5490 N   0  0  0  0  0  0  0  0  0  0  0  0
   19.9051  -14.9583  -17.6915 C   0  0  0  0  0  0  0  0  0  0  0  0
   20.7356  -15.8607  -17.4530 O   0  0  0  0  0  0  0  0  0  0  0  0
   20.4002  -13.6457  -18.1336 C   0  0  0  0  0  0  0  0  0  0  0  0
   19.2393  -12.7140  -18.4578 C   0  0  2  0  0  0  0  0  0  0  0  0
   18.6625  -13.0669  -19.7264 N   0  0  0  0  0  0  0  0  0  0  0  0
   19.8248  -11.3272  -18.5157 C   0  0  0  0  0  0  0  0  0  0  0  0
   20.6396  -11.0150  -17.5931 O   0  0  0  0  0  0  0  0  0  0  0  0
   19.4344  -10.4880  -19.5710 N   0  0  0  0  0  0  0  0  0  0  0  0
   19.9009   -9.1532  -19.7189 C   0  0  1  0  0  0  0  0  0  0  0  0
   19.7963   -8.5942  -21.1294 C   0  0  0  0  0  0  0  0  0  0  0  0
   20.5938   -9.3790  -22.1367 C   0  0  0  0  0  0  0  0  0  0  0  0
   19.7417   -9.5564  -23.3556 C   0  0  0  0  0  0  0  0  0  0  0  0
   19.5664   -8.6121  -24.1650 O   0  0  0  0  0  0  0  0  0  0  0  0
   19.3717   -8.1902  -18.7664 C   0  0  0  0  0  0  0  0  0  0  0  0
   18.1184   -7.9862  -18.6097 O   0  0  0  0  0  0  0  0  0  0  0  0
   19.1256  -10.7793  -23.6131 O   0  0  0  0  0  0  0  0  0  0  0  0
   22.3046   -9.2353  -11.9018 O   0  0  0  0  0  0  0  0  0  0  0  0
   21.4730   -8.7772  -12.9187 C   0  0  0  0  0  0  0  0  0  0  0  0
   20.9082   -7.5270  -12.8238 C   0  0  0  0  0  0  0  0  0  0  0  0
   20.0867   -7.0609  -13.8169 C   0  0  0  0  0  0  0  0  0  0  0  0
   19.8122   -7.8277  -14.9205 C   0  0  0  0  0  0  0  0  0  0  0  0
   18.9358   -7.3205  -15.9710 C   0  0  0  0  0  0  0  0  0  0  0  0
   19.7151   -6.4754  -16.9487 C   0  0  2  0  0  0  0  0  0  0  0  0
   20.2212   -7.4214  -17.9542 N   0  0  0  0  0  0  0  0  0  0  0  0
   20.7937   -5.6877  -16.3642 C   0  0  0  0  0  0  0  0  0  0  0  0
   20.5293   -4.6884  -15.4517 O   0  0  0  0  0  0  0  0  0  0  0  0
   20.3649   -9.1059  -15.0592 C   0  0  0  0  0  0  0  0  0  0  0  0
   21.1842   -9.5300  -14.0347 C   0  0  0  0  0  0  0  0  0  0  0  0
   21.9872   -5.9050  -16.6830 O   0  0  0  0  0  0  0  0  0  0  0  0
  2  1  1  0
  3  2  2  0
  4  5  1  0
  4  2  1  0
  5  6  1  6
  7  8  2  0
  7  5  1  0
  9  7  1  0
 10  9  1  0
 11 12  1  0
 10 11  1  6
 12 13  1  0
 13 14  2  0
 13 17  1  0
 15 16  2  0
 15 10  1  0
 18 19  1  0
 19 20  2  0
 20 21  1  0
 22 23  1  0
 22 21  2  0
 24 23  1  1
 24 25  1  0
 25 15  1  0
 26 24  1  0
 27 26  1  0
 28 22  1  0
 29 28  2  0
 29 19  1  0
 30 26  2  0
M  END
$$$$
