NEY.pdb
     RDKit          3D

 30 30  0  0  1  0  0  0  0  0999 V2000
   26.4243  -17.4101  -14.2583 N   0  0  0  0  0  0  0  0  0  0  0  0
   26.8608  -17.2337  -15.5918 C   0  0  0  0  0  0  0  0  0  0  0  0
   27.1186  -16.1048  -16.0609 O   0  0  0  0  0  0  0  0  0  0  0  0
   27.0194  -18.4095  -16.4612 C   0  0  0  0  0  0  0  0  0  0  0  0
   26.6291  -19.6826  -15.7210 C   0  0  2  0  0  0  0  0  0  0  0  0
   27.4924  -19.8795  -14.5884 N   0  0  0  0  0  0  0  0  0  0  0  0
   26.7984  -20.8057  -16.7107 C   0  0  0  0  0  0  0  0  0  0  0  0
   26.1656  -20.6982  -17.8064 O   0  0  0  0  0  0  0  0  0  0  0  0
   27.6324  -21.8782  -16.3578 N   0  0  0  0  0  0  0  0  0  0  0  0
   27.8603  -22.9989  -17.2022 C   0  0  1  0  0  0  0  0  0  0  0  0
   29.1664  -23.7347  -16.9459 C   0  0  0  0  0  0  0  0  0  0  0  0
   29.4172  -24.8516  -17.9238 C   0  0  0  0  0  0  0  0  0  0  0  0
   30.7237  -25.4891  -17.5636 C   0  0  0  0  0  0  0  0  0  0  0  0
   31.1224  -26.5241  -18.1530 O   0  0  0  0  0  0  0  0  0  0  0  0
   26.7667  -23.9530  -17.2941 C   0  0  0  0  0  0  0  0  0  0  0  0
   26.3043  -24.5784  -16.2782 O   0  0  0  0  0  0  0  0  0  0  0  0
   31.5231  -24.9411  -16.5625 O   0  0  0  0  0  0  0  0  0  0  0  0
   19.5462  -27.8517  -20.2388 O   0  0  0  0  0  0  0  0  0  0  0  0
   20.6569  -27.0320  -20.0650 C   0  0  0  0  0  0  0  0  0  0  0  0
   20.7165  -26.1889  -18.9803 C   0  0  0  0  0  0  0  0  0  0  0  0
   21.8034  -25.3750  -18.7945 C   0  0  0  0  0  0  0  0  0  0  0  0
   22.8491  -25.3845  -19.6821 C   0  0  0  0  0  0  0  0  0  0  0  0
   24.0007  -24.5131  -19.4737 C   0  0  0  0  0  0  0  0  0  0  0  0
   25.0522  -25.2135  -18.6484 C   0  0  2  0  0  0  0  0  0  0  0  0
   26.1493  -24.2427  -18.5218 N   0  0  0  0  0  0  0  0  0  0  0  0
   25.5210  -26.4832  -19.1904 C   0  0  0  0  0  0  0  0  0  0  0  0
   26.5770  -26.5307  -20.0757 O   0  0  0  0  0  0  0  0  0  0  0  0
   22.8313  -26.2263  -20.7999 C   0  0  0  0  0  0  0  0  0  0  0  0
   21.7171  -27.0255  -20.9432 C   0  0  0  0  0  0  0  0  0  0  0  0
   24.9690  -27.5601  -18.8606 O   0  0  0  0  0  0  0  0  0  0  0  0
  2  1  1  0
  3  2  2  0
  4  5  1  0
  4  2  1  0
  5  6  1  1
  7  8  2  0
  7  5  1  0
  9  7  1  0
 10  9  1  0
 11 12  1  0
 10 11  1  1
 12 13  1  0
 13 14  2  0
 13 17  1  0
 15 16  2  0
 15 10  1  0
 18 19  1  0
 19 20  2  0
 20 21  1  0
 22 23  1  0
 22 21  2  0
 24 23  1  6
 24 25  1  0
 25 15  1  0
 26 24  1  0
 27 26  1  0
 28 22  1  0
 29 28  2  0
 29 19  1  0
 30 26  2  0
M  END
$$$$
