NEY.pdb
     RDKit          3D

 30 30  0  0  1  0  0  0  0  0999 V2000
   16.8197  -11.2182  -17.8048 N   0  0  0  0  0  0  0  0  0  0  0  0
   15.8784  -11.2817  -16.7513 C   0  0  0  0  0  0  0  0  0  0  0  0
   14.6534  -11.4046  -16.9636 O   0  0  0  0  0  0  0  0  0  0  0  0
   16.3463  -11.2013  -15.3591 C   0  0  0  0  0  0  0  0  0  0  0  0
   17.8447  -10.9306  -15.3098 C   0  0  2  0  0  0  0  0  0  0  0  0
   18.5672  -12.1695  -15.2106 N   0  0  0  0  0  0  0  0  0  0  0  0
   18.0737  -10.0903  -14.0806 C   0  0  0  0  0  0  0  0  0  0  0  0
   17.7044  -10.5902  -12.9732 O   0  0  0  0  0  0  0  0  0  0  0  0
   18.6711   -8.8305  -14.2425 N   0  0  0  0  0  0  0  0  0  0  0  0
   19.0004   -7.9782  -13.1533 C   0  0  1  0  0  0  0  0  0  0  0  0
   20.0316   -6.9067  -13.4718 C   0  0  0  0  0  0  0  0  0  0  0  0
   20.3951   -6.0632  -12.2789 C   0  0  0  0  0  0  0  0  0  0  0  0
   21.4219   -5.0663  -12.7204 C   0  0  0  0  0  0  0  0  0  0  0  0
   22.5929   -5.1005  -12.2676 O   0  0  0  0  0  0  0  0  0  0  0  0
   17.8728   -7.3847  -12.4526 C   0  0  0  0  0  0  0  0  0  0  0  0
   16.7224   -7.2341  -12.9917 O   0  0  0  0  0  0  0  0  0  0  0  0
   21.0929   -4.0785  -13.6465 O   0  0  0  0  0  0  0  0  0  0  0  0
   11.3710   -6.9006   -7.1460 O   0  0  0  0  0  0  0  0  0  0  0  0
   12.5100   -7.1152   -7.9157 C   0  0  0  0  0  0  0  0  0  0  0  0
   13.4431   -8.0386   -7.5064 C   0  0  0  0  0  0  0  0  0  0  0  0
   14.5705   -8.2618   -8.2531 C   0  0  0  0  0  0  0  0  0  0  0  0
   14.7903   -7.5724   -9.4183 C   0  0  0  0  0  0  0  0  0  0  0  0
   15.9946   -7.8187  -10.2044 C   0  0  0  0  0  0  0  0  0  0  0  0
   16.8230   -6.5618  -10.3118 C   0  0  2  0  0  0  0  0  0  0  0  0
   17.9880   -6.9392  -11.1257 N   0  0  0  0  0  0  0  0  0  0  0  0
   17.2264   -5.9751   -9.0396 C   0  0  0  0  0  0  0  0  0  0  0  0
   16.5473   -4.9001   -8.5063 O   0  0  0  0  0  0  0  0  0  0  0  0
   13.8678   -6.6234   -9.8732 C   0  0  0  0  0  0  0  0  0  0  0  0
   12.7505   -6.4345   -9.0881 C   0  0  0  0  0  0  0  0  0  0  0  0
   18.2035   -6.4390   -8.4046 O   0  0  0  0  0  0  0  0  0  0  0  0
  2  1  1  0
  3  2  2  0
  4  5  1  0
  4  2  1  0
  5  6  1  1
  7  8  2  0
  7  5  1  0
  9  7  1  0
 10  9  1  0
 11 12  1  0
 10 11  1  6
 12 13  1  0
 13 14  2  0
 13 17  1  0
 15 16  2  0
 15 10  1  0
 18 19  1  0
 19 20  2  0
 20 21  1  0
 22 23  1  0
 22 21  2  0
 24 23  1  1
 24 25  1  0
 25 15  1  0
 26 24  1  0
 27 26  1  0
 28 22  1  0
 29 28  2  0
 29 19  1  0
 30 26  2  0
M  END
$$$$
