NEY.pdb
     RDKit          3D

 30 30  0  0  1  0  0  0  0  0999 V2000
   26.2425  -22.1873  -10.3141 N   0  0  0  0  0  0  0  0  0  0  0  0
   26.5762  -20.8136  -10.2738 C   0  0  0  0  0  0  0  0  0  0  0  0
   27.2418  -20.3206   -9.3385 O   0  0  0  0  0  0  0  0  0  0  0  0
   26.1304  -19.9300  -11.3619 C   0  0  0  0  0  0  0  0  0  0  0  0
   25.2860  -20.7005  -12.3691 C   0  0  2  0  0  0  0  0  0  0  0  0
   26.1033  -21.6494  -13.0750 N   0  0  0  0  0  0  0  0  0  0  0  0
   24.7359  -19.6713  -13.3218 C   0  0  0  0  0  0  0  0  0  0  0  0
   24.0358  -18.7422  -12.8130 O   0  0  0  0  0  0  0  0  0  0  0  0
   25.0314  -19.8091  -14.6871 N   0  0  0  0  0  0  0  0  0  0  0  0
   24.5293  -18.9307  -15.6858 C   0  0  1  0  0  0  0  0  0  0  0  0
   25.4924  -18.6479  -16.8284 C   0  0  0  0  0  0  0  0  0  0  0  0
   26.8314  -19.3128  -16.6509 C   0  0  0  0  0  0  0  0  0  0  0  0
   27.6058  -19.1256  -17.9192 C   0  0  0  0  0  0  0  0  0  0  0  0
   28.1042  -20.1074  -18.5234 O   0  0  0  0  0  0  0  0  0  0  0  0
   23.2174  -19.2634  -16.2177 C   0  0  0  0  0  0  0  0  0  0  0  0
   22.7509  -20.4547  -16.2187 O   0  0  0  0  0  0  0  0  0  0  0  0
   27.7871  -17.8512  -18.4528 O   0  0  0  0  0  0  0  0  0  0  0  0
   20.1447  -22.1404  -11.7094 O   0  0  0  0  0  0  0  0  0  0  0  0
   20.2539  -21.0643  -12.5845 C   0  0  0  0  0  0  0  0  0  0  0  0
   20.1080  -21.2697  -13.9363 C   0  0  0  0  0  0  0  0  0  0  0  0
   20.2126  -20.2204  -14.8117 C   0  0  0  0  0  0  0  0  0  0  0  0
   20.4637  -18.9499  -14.3600 C   0  0  0  0  0  0  0  0  0  0  0  0
   20.5734  -17.8409  -15.3018 C   0  0  0  0  0  0  0  0  0  0  0  0
   20.9125  -18.3496  -16.6815 C   0  0  2  0  0  0  0  0  0  0  0  0
   22.3788  -18.2792  -16.7660 N   0  0  0  0  0  0  0  0  0  0  0  0
   20.2781  -17.6311  -17.7800 C   0  0  0  0  0  0  0  0  0  0  0  0
   20.9401  -16.6196  -18.4431 O   0  0  0  0  0  0  0  0  0  0  0  0
   20.6193  -18.6942  -12.9929 C   0  0  0  0  0  0  0  0  0  0  0  0
   20.5055  -19.7814  -12.1527 C   0  0  0  0  0  0  0  0  0  0  0  0
   19.1128  -17.9205  -18.1428 O   0  0  0  0  0  0  0  0  0  0  0  0
  2  1  1  0
  3  2  2  0
  4  5  1  0
  4  2  1  0
  5  6  1  6
  7  8  2  0
  7  5  1  0
  9  7  1  0
 10  9  1  0
 11 12  1  0
 10 11  1  6
 12 13  1  0
 13 14  2  0
 13 17  1  0
 15 16  2  0
 15 10  1  0
 18 19  1  0
 19 20  2  0
 20 21  1  0
 22 23  1  0
 22 21  2  0
 24 23  1  1
 24 25  1  0
 25 15  1  0
 26 24  1  0
 27 26  1  0
 28 22  1  0
 29 28  2  0
 29 19  1  0
 30 26  2  0
M  END
$$$$
