NEY.pdb
     RDKit          3D

 30 30  0  0  1  0  0  0  0  0999 V2000
   30.1814  -24.4531  -18.6088 N   0  0  0  0  0  0  0  0  0  0  0  0
   30.5963  -23.1719  -18.1773 C   0  0  0  0  0  0  0  0  0  0  0  0
   31.7811  -22.7893  -18.2807 O   0  0  0  0  0  0  0  0  0  0  0  0
   29.6098  -22.2542  -17.5872 C   0  0  0  0  0  0  0  0  0  0  0  0
   28.3036  -22.9826  -17.2966 C   0  0  2  0  0  0  0  0  0  0  0  0
   27.7263  -23.4681  -18.5204 N   0  0  0  0  0  0  0  0  0  0  0  0
   27.3956  -21.9654  -16.6560 C   0  0  0  0  0  0  0  0  0  0  0  0
   27.7897  -21.4626  -15.5586 O   0  0  0  0  0  0  0  0  0  0  0  0
   26.1935  -21.6484  -17.3079 N   0  0  0  0  0  0  0  0  0  0  0  0
   25.2258  -20.7576  -16.7684 C   0  0  1  0  0  0  0  0  0  0  0  0
   24.1661  -20.2939  -17.7558 C   0  0  0  0  0  0  0  0  0  0  0  0
   23.2381  -21.3976  -18.1885 C   0  0  0  0  0  0  0  0  0  0  0  0
   22.2592  -20.8160  -19.1614 C   0  0  0  0  0  0  0  0  0  0  0  0
   22.3193  -19.6064  -19.4942 O   0  0  0  0  0  0  0  0  0  0  0  0
   24.5930  -21.1865  -15.5314 C   0  0  0  0  0  0  0  0  0  0  0  0
   24.2668  -22.4026  -15.3042 O   0  0  0  0  0  0  0  0  0  0  0  0
   21.2596  -21.6122  -19.7168 O   0  0  0  0  0  0  0  0  0  0  0  0
   22.2365  -20.9599   -7.0957 O   0  0  0  0  0  0  0  0  0  0  0  0
   22.7311  -20.6621   -8.3616 C   0  0  0  0  0  0  0  0  0  0  0  0
   24.0260  -20.9967   -8.6816 C   0  0  0  0  0  0  0  0  0  0  0  0
   24.5285  -20.7104   -9.9241 C   0  0  0  0  0  0  0  0  0  0  0  0
   23.7544  -20.0872  -10.8694 C   0  0  0  0  0  0  0  0  0  0  0  0
   24.3009  -19.7873  -12.1886 C   0  0  0  0  0  0  0  0  0  0  0  0
   23.6813  -20.6816  -13.2343 C   0  0  2  0  0  0  0  0  0  0  0  0
   24.3026  -20.2747  -14.5034 N   0  0  0  0  0  0  0  0  0  0  0  0
   22.2262  -20.6301  -13.3101 C   0  0  0  0  0  0  0  0  0  0  0  0
   21.4487  -21.5856  -12.6907 O   0  0  0  0  0  0  0  0  0  0  0  0
   22.4314  -19.7285  -10.5877 C   0  0  0  0  0  0  0  0  0  0  0  0
   21.9718  -20.0373   -9.3252 C   0  0  0  0  0  0  0  0  0  0  0  0
   21.6527  -19.7123  -13.9440 O   0  0  0  0  0  0  0  0  0  0  0  0
  2  1  1  0
  3  2  2  0
  4  5  1  0
  4  2  1  0
  5  6  1  6
  7  8  2  0
  7  5  1  0
  9  7  1  0
 10  9  1  0
 11 12  1  0
 10 11  1  6
 12 13  1  0
 13 14  2  0
 13 17  1  0
 15 16  2  0
 15 10  1  0
 18 19  1  0
 19 20  2  0
 20 21  1  0
 22 23  1  0
 22 21  2  0
 24 23  1  1
 24 25  1  0
 25 15  1  0
 26 24  1  0
 27 26  1  0
 28 22  1  0
 29 28  2  0
 29 19  1  0
 30 26  2  0
M  END
$$$$
