NEY.pdb
     RDKit          3D

 30 30  0  0  1  0  0  0  0  0999 V2000
   30.2574  -21.7959  -10.6058 N   0  0  0  0  0  0  0  0  0  0  0  0
   29.0825  -21.1402  -10.1704 C   0  0  0  0  0  0  0  0  0  0  0  0
   28.7800  -21.0560   -8.9612 O   0  0  0  0  0  0  0  0  0  0  0  0
   28.1825  -20.5356  -11.1643 C   0  0  0  0  0  0  0  0  0  0  0  0
   26.7681  -21.0809  -11.0117 C   0  0  2  0  0  0  0  0  0  0  0  0
   26.7702  -22.5098  -11.1691 N   0  0  0  0  0  0  0  0  0  0  0  0
   25.9549  -20.4344  -12.1026 C   0  0  0  0  0  0  0  0  0  0  0  0
   25.8988  -19.1658  -12.0943 O   0  0  0  0  0  0  0  0  0  0  0  0
   25.3242  -21.2678  -13.0397 N   0  0  0  0  0  0  0  0  0  0  0  0
   24.5275  -20.7752  -14.1091 C   0  0  1  0  0  0  0  0  0  0  0  0
   24.5826  -21.6077  -15.3807 C   0  0  0  0  0  0  0  0  0  0  0  0
   25.9166  -21.5384  -16.0752 C   0  0  0  0  0  0  0  0  0  0  0  0
   26.0263  -20.1909  -16.7197 C   0  0  0  0  0  0  0  0  0  0  0  0
   26.7873  -19.3093  -16.2495 O   0  0  0  0  0  0  0  0  0  0  0  0
   23.1445  -20.4714  -13.7783 C   0  0  0  0  0  0  0  0  0  0  0  0
   22.4329  -21.2161  -13.0193 O   0  0  0  0  0  0  0  0  0  0  0  0
   25.2814  -19.8915  -17.8586 O   0  0  0  0  0  0  0  0  0  0  0  0
   15.9100  -15.5429  -12.9532 O   0  0  0  0  0  0  0  0  0  0  0  0
   17.1692  -16.0295  -13.2896 C   0  0  0  0  0  0  0  0  0  0  0  0
   18.2106  -15.8920  -12.4020 C   0  0  0  0  0  0  0  0  0  0  0  0
   19.4572  -16.3659  -12.7180 C   0  0  0  0  0  0  0  0  0  0  0  0
   19.6909  -16.9839  -13.9200 C   0  0  0  0  0  0  0  0  0  0  0  0
   21.0226  -17.4838  -14.2451 C   0  0  0  0  0  0  0  0  0  0  0  0
   21.1376  -18.9481  -13.8988 C   0  0  2  0  0  0  0  0  0  0  0  0
   22.5063  -19.3258  -14.2811 N   0  0  0  0  0  0  0  0  0  0  0  0
   20.1478  -19.8133  -14.5291 C   0  0  0  0  0  0  0  0  0  0  0  0
   20.3027  -20.2380  -15.8317 O   0  0  0  0  0  0  0  0  0  0  0  0
   18.6610  -17.1457  -14.8536 C   0  0  0  0  0  0  0  0  0  0  0  0
   17.4259  -16.6528  -14.4900 C   0  0  0  0  0  0  0  0  0  0  0  0
   19.1323  -20.1880  -13.8953 O   0  0  0  0  0  0  0  0  0  0  0  0
  2  1  1  0
  3  2  2  0
  4  5  1  0
  4  2  1  0
  5  6  1  6
  7  8  2  0
  7  5  1  0
  9  7  1  0
 10  9  1  0
 11 12  1  0
 10 11  1  6
 12 13  1  0
 13 14  2  0
 13 17  1  0
 15 16  2  0
 15 10  1  0
 18 19  1  0
 19 20  2  0
 20 21  1  0
 22 23  1  0
 22 21  2  0
 24 23  1  6
 24 25  1  0
 25 15  1  0
 26 24  1  0
 27 26  1  0
 28 22  1  0
 29 28  2  0
 29 19  1  0
 30 26  2  0
M  END
$$$$
