NEY.pdb
     RDKit          3D

 30 30  0  0  1  0  0  0  0  0999 V2000
   22.7728  -11.3274  -14.7151 N   0  0  0  0  0  0  0  0  0  0  0  0
   23.0130  -10.0704  -14.1134 C   0  0  0  0  0  0  0  0  0  0  0  0
   23.7863   -9.9380  -13.1411 O   0  0  0  0  0  0  0  0  0  0  0  0
   22.3361   -8.8760  -14.6413 C   0  0  0  0  0  0  0  0  0  0  0  0
   21.2936   -9.2643  -15.6823 C   0  0  2  0  0  0  0  0  0  0  0  0
   21.9357   -9.8343  -16.8353 N   0  0  0  0  0  0  0  0  0  0  0  0
   20.5845   -7.9882  -16.0544 C   0  0  0  0  0  0  0  0  0  0  0  0
   21.1605   -7.2459  -16.9087 O   0  0  0  0  0  0  0  0  0  0  0  0
   19.3533   -7.7122  -15.4394 N   0  0  0  0  0  0  0  0  0  0  0  0
   18.5881   -6.5463  -15.7155 C   0  0  1  0  0  0  0  0  0  0  0  0
   17.1130   -6.6535  -15.3613 C   0  0  0  0  0  0  0  0  0  0  0  0
   16.4302   -7.8220  -16.0210 C   0  0  0  0  0  0  0  0  0  0  0  0
   15.0096   -7.8477  -15.5473 C   0  0  0  0  0  0  0  0  0  0  0  0
   14.0556   -7.8484  -16.3642 O   0  0  0  0  0  0  0  0  0  0  0  0
   19.1295   -5.2990  -15.2000 C   0  0  0  0  0  0  0  0  0  0  0  0
   19.6617   -5.2002  -14.0408 O   0  0  0  0  0  0  0  0  0  0  0  0
   14.7214   -7.8713  -14.1842 O   0  0  0  0  0  0  0  0  0  0  0  0
   23.9679    1.5218  -13.9965 O   0  0  0  0  0  0  0  0  0  0  0  0
   23.2712    0.3565  -14.3002 C   0  0  0  0  0  0  0  0  0  0  0  0
   22.3067   -0.1040  -13.4350 C   0  0  0  0  0  0  0  0  0  0  0  0
   21.6113   -1.2503  -13.7194 C   0  0  0  0  0  0  0  0  0  0  0  0
   21.8617   -1.9585  -14.8671 C   0  0  0  0  0  0  0  0  0  0  0  0
   21.1151   -3.1777  -15.1586 C   0  0  0  0  0  0  0  0  0  0  0  0
   19.6776   -2.8532  -15.4838 C   0  0  2  0  0  0  0  0  0  0  0  0
   19.0976   -4.1180  -15.9595 N   0  0  0  0  0  0  0  0  0  0  0  0
   19.4886   -1.7801  -16.4525 C   0  0  0  0  0  0  0  0  0  0  0  0
   19.1579   -0.5053  -16.0443 O   0  0  0  0  0  0  0  0  0  0  0  0
   22.8343   -1.5271  -15.7762 C   0  0  0  0  0  0  0  0  0  0  0  0
   23.5064   -0.3696  -15.4461 C   0  0  0  0  0  0  0  0  0  0  0  0
   19.6230   -1.9983  -17.6803 O   0  0  0  0  0  0  0  0  0  0  0  0
  2  1  1  0
  3  2  2  0
  4  5  1  0
  4  2  1  0
  5  6  1  6
  7  8  2  0
  7  5  1  0
  9  7  1  0
 10  9  1  0
 11 12  1  0
 10 11  1  1
 12 13  1  0
 13 14  2  0
 13 17  1  0
 15 16  2  0
 15 10  1  0
 18 19  1  0
 19 20  2  0
 20 21  1  0
 22 23  1  0
 22 21  2  0
 24 23  1  6
 24 25  1  0
 25 15  1  0
 26 24  1  0
 27 26  1  0
 28 22  1  0
 29 28  2  0
 29 19  1  0
 30 26  2  0
M  END
$$$$
