NEY.pdb
     RDKit          3D

 30 30  0  0  1  0  0  0  0  0999 V2000
   21.1202  -13.4199  -23.0436 N   0  0  0  0  0  0  0  0  0  0  0  0
   21.8910  -12.4688  -22.3356 C   0  0  0  0  0  0  0  0  0  0  0  0
   23.0916  -12.2546  -22.6067 O   0  0  0  0  0  0  0  0  0  0  0  0
   21.2688  -11.7032  -21.2447 C   0  0  0  0  0  0  0  0  0  0  0  0
   22.3096  -11.3024  -20.2067 C   0  0  2  0  0  0  0  0  0  0  0  0
   22.6200  -12.4226  -19.3609 N   0  0  0  0  0  0  0  0  0  0  0  0
   21.6850  -10.1938  -19.4004 C   0  0  0  0  0  0  0  0  0  0  0  0
   21.2891   -9.1746  -20.0460 O   0  0  0  0  0  0  0  0  0  0  0  0
   21.5855  -10.3621  -18.0104 N   0  0  0  0  0  0  0  0  0  0  0  0
   21.0914   -9.3554  -17.1367 C   0  0  1  0  0  0  0  0  0  0  0  0
   20.2886   -9.8756  -15.9544 C   0  0  0  0  0  0  0  0  0  0  0  0
   19.1099  -10.7176  -16.3649 C   0  0  0  0  0  0  0  0  0  0  0  0
   18.3705  -11.1052  -15.1215 C   0  0  0  0  0  0  0  0  0  0  0  0
   17.3933  -11.8928  -15.1693 O   0  0  0  0  0  0  0  0  0  0  0  0
   22.0692   -8.3814  -16.6784 C   0  0  0  0  0  0  0  0  0  0  0  0
   23.3302   -8.5455  -16.8188 O   0  0  0  0  0  0  0  0  0  0  0  0
   18.7570  -10.5953  -13.8836 O   0  0  0  0  0  0  0  0  0  0  0  0
   26.3652   -1.0946  -16.6017 O   0  0  0  0  0  0  0  0  0  0  0  0
   25.5655   -2.2263  -16.7257 C   0  0  0  0  0  0  0  0  0  0  0  0
   26.1326   -3.4745  -16.6199 C   0  0  0  0  0  0  0  0  0  0  0  0
   25.3589   -4.5994  -16.7397 C   0  0  0  0  0  0  0  0  0  0  0  0
   24.0095   -4.5040  -16.9664 C   0  0  0  0  0  0  0  0  0  0  0  0
   23.1963   -5.7089  -17.0926 C   0  0  0  0  0  0  0  0  0  0  0  0
   22.6169   -6.0990  -15.7548 C   0  0  2  0  0  0  0  0  0  0  0  0
   21.6753   -7.1895  -16.0486 N   0  0  0  0  0  0  0  0  0  0  0  0
   21.9712   -5.0178  -15.0203 C   0  0  0  0  0  0  0  0  0  0  0  0
   22.6441   -4.3290  -14.0333 O   0  0  0  0  0  0  0  0  0  0  0  0
   23.3897   -3.2545  -17.0811 C   0  0  0  0  0  0  0  0  0  0  0  0
   24.2096   -2.1535  -16.9534 C   0  0  0  0  0  0  0  0  0  0  0  0
   20.7862   -4.6937  -15.2732 O   0  0  0  0  0  0  0  0  0  0  0  0
  2  1  1  0
  3  2  2  0
  4  5  1  0
  4  2  1  0
  5  6  1  1
  7  8  2  0
  7  5  1  0
  9  7  1  0
 10  9  1  0
 11 12  1  0
 10 11  1  1
 12 13  1  0
 13 14  2  0
 13 17  1  0
 15 16  2  0
 15 10  1  0
 18 19  1  0
 19 20  2  0
 20 21  1  0
 22 23  1  0
 22 21  2  0
 24 23  1  6
 24 25  1  0
 25 15  1  0
 26 24  1  0
 27 26  1  0
 28 22  1  0
 29 28  2  0
 29 19  1  0
 30 26  2  0
M  END
$$$$
