WCE.pdb
     RDKit          3D

 30 31  0  0  1  0  0  0  0  0999 V2000
   26.9842  -21.7335  -14.5930 N   0  0  0  0  0  0  0  0  0  0  0  0
   26.1265  -20.6235  -14.2281 C   0  0  1  0  0  0  0  0  0  0  0  0
   26.9559  -19.5638  -13.5343 C   0  0  0  0  0  0  0  0  0  0  0  0
   27.3047  -19.9701  -12.1588 C   0  0  0  0  0  0  0  0  0  0  0  0
   28.5868  -20.2380  -11.7142 C   0  0  0  0  0  0  0  0  0  0  0  0
   28.4809  -20.5702  -10.4218 N   0  0  0  0  0  0  0  0  0  0  0  0
   27.1860  -20.5201  -10.0433 C   0  0  0  0  0  0  0  0  0  0  0  0
   26.5713  -20.7704   -8.8369 C   0  0  0  0  0  0  0  0  0  0  0  0
   25.1997  -20.6533   -8.6767 C   0  0  0  0  0  0  0  0  0  0  0  0
   24.4722  -20.2768   -9.7707 C   0  0  0  0  0  0  0  0  0  0  0  0
   25.0449  -20.0191  -10.9874 C   0  0  0  0  0  0  0  0  0  0  0  0
   26.4153  -20.1414  -11.1274 C   0  0  0  0  0  0  0  0  0  0  0  0
   25.6372  -20.0075  -15.5132 C   0  0  0  0  0  0  0  0  0  0  0  0
   26.2577  -20.1743  -16.5958 O   0  0  0  0  0  0  0  0  0  0  0  0
   24.4580  -19.2153  -15.5512 N   0  0  0  0  0  0  0  0  0  0  0  0
   23.8998  -18.8080  -16.8031 C   0  0  1  0  0  0  0  0  0  0  0  0
   23.4426  -20.0055  -17.5760 C   0  0  0  0  0  0  0  0  0  0  0  0
   22.5384  -19.4777  -19.0742 S   0  0  0  0  0  0  0  0  0  0  0  0
   22.6882  -17.9626  -16.4960 C   0  0  0  0  0  0  0  0  0  0  0  0
   21.6763  -18.4435  -15.9251 O   0  0  0  0  0  0  0  0  0  0  0  0
   22.6379  -16.5857  -16.8391 N   0  0  0  0  0  0  0  0  0  0  0  0
   21.5119  -15.7838  -16.4176 C   0  0  1  0  0  0  0  0  0  0  0  0
   21.9326  -14.3301  -16.5679 C   0  0  0  0  0  0  0  0  0  0  0  0
   21.7780  -13.8419  -17.9728 C   0  0  0  0  0  0  0  0  0  0  0  0
   20.9908  -12.5808  -17.9314 C   0  0  0  0  0  0  0  0  0  0  0  0
   20.6411  -11.9635  -18.9718 O   0  0  0  0  0  0  0  0  0  0  0  0
   20.3363  -16.0828  -17.2719 C   0  0  0  0  0  0  0  0  0  0  0  0
   19.0753  -15.8837  -16.7853 O   0  0  0  0  0  0  0  0  0  0  0  0
   20.6000  -12.0194  -16.7141 O   0  0  0  0  0  0  0  0  0  0  0  0
   20.5112  -16.5164  -18.4350 O   0  0  0  0  0  0  0  0  0  0  0  0
  2  1  1  6
  2 13  1  0
  2  3  1  0
  3  4  1  0
  4  5  2  0
  5  6  1  0
  7  6  1  0
  8  7  2  0
  9  8  1  0
 10 11  1  0
 10  9  2  0
 11 12  2  0
 12  4  1  0
 12  7  1  0
 13 14  2  0
 15 13  1  0
 15 16  1  0
 16 17  1  6
 17 18  1  0
 19 20  2  0
 19 16  1  0
 21 19  1  0
 22 21  1  0
 22 23  1  6
 24 25  1  0
 24 23  1  0
 25 26  2  0
 25 29  1  0
 27 22  1  0
 27 28  1  0
 30 27  2  0
M  END
$$$$
