WCE.pdb
     RDKit          3D

 30 31  0  0  1  0  0  0  0  0999 V2000
   21.1918   -9.7946  -17.6925 N   0  0  0  0  0  0  0  0  0  0  0  0
   21.4628   -8.4000  -17.9798 C   0  0  1  0  0  0  0  0  0  0  0  0
   20.9646   -8.0750  -19.3720 C   0  0  0  0  0  0  0  0  0  0  0  0
   20.6626   -9.3023  -20.1344 C   0  0  0  0  0  0  0  0  0  0  0  0
   21.3734  -10.4853  -20.0432 C   0  0  0  0  0  0  0  0  0  0  0  0
   20.7904  -11.3468  -20.8856 N   0  0  0  0  0  0  0  0  0  0  0  0
   19.7459  -10.7492  -21.4975 C   0  0  0  0  0  0  0  0  0  0  0  0
   18.8452  -11.2065  -22.4332 C   0  0  0  0  0  0  0  0  0  0  0  0
   17.8338  -10.3998  -22.9302 C   0  0  0  0  0  0  0  0  0  0  0  0
   17.7624   -9.1211  -22.4531 C   0  0  0  0  0  0  0  0  0  0  0  0
   18.6382   -8.6281  -21.5232 C   0  0  0  0  0  0  0  0  0  0  0  0
   19.6408   -9.4486  -21.0393 C   0  0  0  0  0  0  0  0  0  0  0  0
   20.6258   -7.5862  -17.0272 C   0  0  0  0  0  0  0  0  0  0  0  0
   19.4298   -7.8932  -16.7820 O   0  0  0  0  0  0  0  0  0  0  0  0
   21.1545   -6.4421  -16.3707 N   0  0  0  0  0  0  0  0  0  0  0  0
   20.3536   -5.7052  -15.4431 C   0  0  1  0  0  0  0  0  0  0  0  0
   21.0181   -5.6734  -14.1023 C   0  0  0  0  0  0  0  0  0  0  0  0
   22.7419   -5.0892  -14.2699 S   0  0  0  0  0  0  0  0  0  0  0  0
   20.2708   -4.2880  -15.9546 C   0  0  0  0  0  0  0  0  0  0  0  0
   21.1524   -3.8077  -16.7118 O   0  0  0  0  0  0  0  0  0  0  0  0
   19.1925   -3.4339  -15.6024 N   0  0  0  0  0  0  0  0  0  0  0  0
   19.1794   -2.0671  -16.0716 C   0  0  1  0  0  0  0  0  0  0  0  0
   17.7951   -1.5159  -15.7672 C   0  0  0  0  0  0  0  0  0  0  0  0
   17.6368   -0.1037  -16.2325 C   0  0  0  0  0  0  0  0  0  0  0  0
   16.2752    0.3522  -15.8453 C   0  0  0  0  0  0  0  0  0  0  0  0
   15.8829    1.5374  -16.0104 O   0  0  0  0  0  0  0  0  0  0  0  0
   20.2243   -1.2853  -15.3657 C   0  0  0  0  0  0  0  0  0  0  0  0
   20.8028   -0.2126  -15.9832 O   0  0  0  0  0  0  0  0  0  0  0  0
   15.3591   -0.5321  -15.2722 O   0  0  0  0  0  0  0  0  0  0  0  0
   20.5677   -1.6169  -14.2066 O   0  0  0  0  0  0  0  0  0  0  0  0
  2  1  1  1
  2 13  1  0
  2  3  1  0
  3  4  1  0
  4  5  2  0
  5  6  1  0
  7  6  1  0
  8  7  2  0
  9  8  1  0
 10 11  1  0
 10  9  2  0
 11 12  2  0
 12  4  1  0
 12  7  1  0
 13 14  2  0
 15 13  1  0
 15 16  1  0
 16 17  1  1
 17 18  1  0
 19 20  2  0
 19 16  1  0
 21 19  1  0
 22 21  1  0
 22 23  1  1
 24 25  1  0
 24 23  1  0
 25 26  2  0
 25 29  1  0
 27 22  1  0
 27 28  1  0
 30 27  2  0
M  END
$$$$
