WCE.pdb
     RDKit          3D

 30 31  0  0  1  0  0  0  0  0999 V2000
   28.7359  -21.1483  -10.6239 N   0  0  0  0  0  0  0  0  0  0  0  0
   27.3758  -21.3984  -10.1898 C   0  0  1  0  0  0  0  0  0  0  0  0
   27.1029  -20.6021   -8.9314 C   0  0  0  0  0  0  0  0  0  0  0  0
   28.2109  -20.7295   -7.9645 C   0  0  0  0  0  0  0  0  0  0  0  0
   29.3665  -21.4592   -8.1772 C   0  0  0  0  0  0  0  0  0  0  0  0
   30.1117  -21.3244   -7.0733 N   0  0  0  0  0  0  0  0  0  0  0  0
   29.4679  -20.5408   -6.1822 C   0  0  0  0  0  0  0  0  0  0  0  0
   29.8115  -20.1115   -4.9200 C   0  0  0  0  0  0  0  0  0  0  0  0
   28.9774  -19.2951   -4.1726 C   0  0  0  0  0  0  0  0  0  0  0  0
   27.7894  -18.9281   -4.7400 C   0  0  0  0  0  0  0  0  0  0  0  0
   27.4105  -19.3334   -5.9917 C   0  0  0  0  0  0  0  0  0  0  0  0
   28.2566  -20.1480   -6.7219 C   0  0  0  0  0  0  0  0  0  0  0  0
   26.4670  -20.8386  -11.2533 C   0  0  0  0  0  0  0  0  0  0  0  0
   26.5499  -19.6363  -11.6173 O   0  0  0  0  0  0  0  0  0  0  0  0
   25.4827  -21.6461  -11.8846 N   0  0  0  0  0  0  0  0  0  0  0  0
   24.7506  -21.1491  -13.0079 C   0  0  1  0  0  0  0  0  0  0  0  0
   24.9976  -22.0127  -14.2052 C   0  0  0  0  0  0  0  0  0  0  0  0
   26.7797  -22.3931  -14.3477 S   0  0  0  0  0  0  0  0  0  0  0  0
   23.2850  -21.2437  -12.6610 C   0  0  0  0  0  0  0  0  0  0  0  0
   22.8833  -21.9066  -11.6708 O   0  0  0  0  0  0  0  0  0  0  0  0
   22.2947  -20.5877  -13.4388 N   0  0  0  0  0  0  0  0  0  0  0  0
   20.9116  -20.6325  -13.0220 C   0  0  1  0  0  0  0  0  0  0  0  0
   20.4180  -19.1942  -12.9971 C   0  0  0  0  0  0  0  0  0  0  0  0
   18.9519  -19.1072  -12.7160 C   0  0  0  0  0  0  0  0  0  0  0  0
   18.5579  -17.6755  -12.7978 C   0  0  0  0  0  0  0  0  0  0  0  0
   19.3430  -16.7765  -13.1992 O   0  0  0  0  0  0  0  0  0  0  0  0
   20.1246  -21.4427  -13.9839 C   0  0  0  0  0  0  0  0  0  0  0  0
   20.5708  -21.5975  -15.2659 O   0  0  0  0  0  0  0  0  0  0  0  0
   17.2772  -17.2622  -12.4258 O   0  0  0  0  0  0  0  0  0  0  0  0
   19.0548  -21.9791  -13.6108 O   0  0  0  0  0  0  0  0  0  0  0  0
  2  1  1  6
  2 13  1  0
  2  3  1  0
  3  4  1  0
  4  5  2  0
  5  6  1  0
  7  6  1  0
  8  7  2  0
  9  8  1  0
 10 11  1  0
 10  9  2  0
 11 12  2  0
 12  4  1  0
 12  7  1  0
 13 14  2  0
 15 13  1  0
 15 16  1  0
 16 17  1  6
 17 18  1  0
 19 20  2  0
 19 16  1  0
 21 19  1  0
 22 21  1  0
 22 23  1  6
 24 25  1  0
 24 23  1  0
 25 26  2  0
 25 29  1  0
 27 22  1  0
 27 28  1  0
 30 27  2  0
M  END
$$$$
