WCE.pdb
     RDKit          3D

 30 31  0  0  1  0  0  0  0  0999 V2000
   26.4713  -22.6967  -12.3341 N   0  0  0  0  0  0  0  0  0  0  0  0
   25.7245  -21.6060  -11.7396 C   0  0  1  0  0  0  0  0  0  0  0  0
   26.5836  -20.3593  -11.7396 C   0  0  0  0  0  0  0  0  0  0  0  0
   27.6968  -20.4743  -10.7771 C   0  0  0  0  0  0  0  0  0  0  0  0
   29.0072  -20.7619  -11.1136 C   0  0  0  0  0  0  0  0  0  0  0  0
   29.7005  -20.7780   -9.9687 N   0  0  0  0  0  0  0  0  0  0  0  0
   28.8761  -20.5121   -8.9333 C   0  0  0  0  0  0  0  0  0  0  0  0
   29.1041  -20.4170   -7.5787 C   0  0  0  0  0  0  0  0  0  0  0  0
   28.0857  -20.1282   -6.6841 C   0  0  0  0  0  0  0  0  0  0  0  0
   26.8344  -19.9397   -7.2006 C   0  0  0  0  0  0  0  0  0  0  0  0
   26.5662  -20.0257   -8.5406 C   0  0  0  0  0  0  0  0  0  0  0  0
   27.5958  -20.3148   -9.4174 C   0  0  0  0  0  0  0  0  0  0  0  0
   24.5617  -21.3217  -12.6546 C   0  0  0  0  0  0  0  0  0  0  0  0
   24.6511  -21.4948  -13.8984 O   0  0  0  0  0  0  0  0  0  0  0  0
   23.3214  -20.8474  -12.1484 N   0  0  0  0  0  0  0  0  0  0  0  0
   22.1067  -21.0948  -12.8611 C   0  0  1  0  0  0  0  0  0  0  0  0
   21.1433  -21.8405  -11.9914 C   0  0  0  0  0  0  0  0  0  0  0  0
   21.4452  -21.4403  -10.2337 S   0  0  0  0  0  0  0  0  0  0  0  0
   21.4985  -19.7519  -13.1833 C   0  0  0  0  0  0  0  0  0  0  0  0
   21.3174  -18.8800  -12.2955 O   0  0  0  0  0  0  0  0  0  0  0  0
   21.1035  -19.4142  -14.5047 N   0  0  0  0  0  0  0  0  0  0  0  0
   20.5229  -18.1173  -14.7687 C   0  0  1  0  0  0  0  0  0  0  0  0
   20.5506  -17.9273  -16.2774 C   0  0  0  0  0  0  0  0  0  0  0  0
   20.7447  -16.4951  -16.6607 C   0  0  0  0  0  0  0  0  0  0  0  0
   22.0894  -16.3697  -17.2834 C   0  0  0  0  0  0  0  0  0  0  0  0
   22.4473  -17.0616  -18.2728 O   0  0  0  0  0  0  0  0  0  0  0  0
   19.1302  -18.0788  -14.2586 C   0  0  0  0  0  0  0  0  0  0  0  0
   18.4562  -19.2461  -14.0359 O   0  0  0  0  0  0  0  0  0  0  0  0
   23.0274  -15.4624  -16.7869 O   0  0  0  0  0  0  0  0  0  0  0  0
   18.5833  -16.9729  -14.0363 O   0  0  0  0  0  0  0  0  0  0  0  0
  2  1  1  6
  2 13  1  0
  2  3  1  0
  3  4  1  0
  4  5  2  0
  5  6  1  0
  7  6  1  0
  8  7  2  0
  9  8  1  0
 10 11  1  0
 10  9  2  0
 11 12  2  0
 12  4  1  0
 12  7  1  0
 13 14  2  0
 15 13  1  0
 15 16  1  0
 16 17  1  1
 17 18  1  0
 19 20  2  0
 19 16  1  0
 21 19  1  0
 22 21  1  0
 22 23  1  6
 24 25  1  0
 24 23  1  0
 25 26  2  0
 25 29  1  0
 27 22  1  0
 27 28  1  0
 30 27  2  0
M  END
$$$$
