WCE.pdb
     RDKit          3D

 30 31  0  0  1  0  0  0  0  0999 V2000
   25.0062  -20.6371  -11.1242 N   0  0  0  0  0  0  0  0  0  0  0  0
   24.7694  -21.6491  -12.1344 C   0  0  1  0  0  0  0  0  0  0  0  0
   23.2844  -21.9334  -12.2125 C   0  0  0  0  0  0  0  0  0  0  0  0
   22.5179  -21.0317  -11.3303 C   0  0  0  0  0  0  0  0  0  0  0  0
   22.3661  -21.2005   -9.9659 C   0  0  0  0  0  0  0  0  0  0  0  0
   21.6094  -20.1830   -9.5372 N   0  0  0  0  0  0  0  0  0  0  0  0
   21.2838  -19.3875  -10.5782 C   0  0  0  0  0  0  0  0  0  0  0  0
   20.5348  -18.2347  -10.6541 C   0  0  0  0  0  0  0  0  0  0  0  0
   20.3291  -17.5737  -11.8548 C   0  0  0  0  0  0  0  0  0  0  0  0
   20.9026  -18.1134  -12.9718 C   0  0  0  0  0  0  0  0  0  0  0  0
   21.6540  -19.2575  -12.9389 C   0  0  0  0  0  0  0  0  0  0  0  0
   21.8478  -19.9027  -11.7311 C   0  0  0  0  0  0  0  0  0  0  0  0
   25.1573  -21.0446  -13.4589 C   0  0  0  0  0  0  0  0  0  0  0  0
   25.0721  -19.8050  -13.6618 O   0  0  0  0  0  0  0  0  0  0  0  0
   25.6333  -21.8505  -14.5283 N   0  0  0  0  0  0  0  0  0  0  0  0
   26.1312  -21.2455  -15.7244 C   0  0  1  0  0  0  0  0  0  0  0  0
   27.2405  -22.0725  -16.2953 C   0  0  0  0  0  0  0  0  0  0  0  0
   28.6473  -22.1261  -15.1296 S   0  0  0  0  0  0  0  0  0  0  0  0
   24.9990  -21.2343  -16.7220 C   0  0  0  0  0  0  0  0  0  0  0  0
   24.4227  -22.2940  -17.0772 O   0  0  0  0  0  0  0  0  0  0  0  0
   24.5349  -20.0252  -17.3039 N   0  0  0  0  0  0  0  0  0  0  0  0
   23.4005  -20.0509  -18.1989 C   0  0  1  0  0  0  0  0  0  0  0  0
   22.3668  -19.0982  -17.6187 C   0  0  0  0  0  0  0  0  0  0  0  0
   21.2077  -19.8249  -17.0153 C   0  0  0  0  0  0  0  0  0  0  0  0
   20.2778  -18.8096  -16.4529 C   0  0  0  0  0  0  0  0  0  0  0  0
   20.1835  -17.6431  -16.9179 O   0  0  0  0  0  0  0  0  0  0  0  0
   23.8203  -19.6116  -19.5524 C   0  0  0  0  0  0  0  0  0  0  0  0
   22.9397  -19.6869  -20.5942 O   0  0  0  0  0  0  0  0  0  0  0  0
   19.4559  -19.1144  -15.3661 O   0  0  0  0  0  0  0  0  0  0  0  0
   24.9820  -19.1745  -19.7282 O   0  0  0  0  0  0  0  0  0  0  0  0
  2  1  1  1
  2 13  1  0
  2  3  1  0
  3  4  1  0
  4  5  2  0
  5  6  1  0
  7  6  1  0
  8  7  2  0
  9  8  1  0
 10 11  1  0
 10  9  2  0
 11 12  2  0
 12  4  1  0
 12  7  1  0
 13 14  2  0
 15 13  1  0
 15 16  1  0
 16 17  1  6
 17 18  1  0
 19 20  2  0
 19 16  1  0
 21 19  1  0
 22 21  1  0
 22 23  1  1
 24 25  1  0
 24 23  1  0
 25 26  2  0
 25 29  1  0
 27 22  1  0
 27 28  1  0
 30 27  2  0
M  END
$$$$
