WCE.pdb
     RDKit          3D

 30 31  0  0  1  0  0  0  0  0999 V2000
   19.7299  -10.9977    5.8524 N   0  0  0  0  0  0  0  0  0  0  0  0
   18.8762  -12.1690    5.8479 C   0  0  1  0  0  0  0  0  0  0  0  0
   19.3856  -13.1493    4.8126 C   0  0  0  0  0  0  0  0  0  0  0  0
   18.2949  -13.6201    3.9365 C   0  0  0  0  0  0  0  0  0  0  0  0
   17.2856  -12.8210    3.4306 C   0  0  0  0  0  0  0  0  0  0  0  0
   16.5036  -13.6164    2.6906 N   0  0  0  0  0  0  0  0  0  0  0  0
   16.9842  -14.8778    2.7148 C   0  0  0  0  0  0  0  0  0  0  0  0
   16.5436  -16.0400    2.1226 C   0  0  0  0  0  0  0  0  0  0  0  0
   17.2093  -17.2441    2.2898 C   0  0  0  0  0  0  0  0  0  0  0  0
   18.3302  -17.2356    3.0718 C   0  0  0  0  0  0  0  0  0  0  0  0
   18.8009  -16.1018    3.6782 C   0  0  0  0  0  0  0  0  0  0  0  0
   18.1227  -14.9099    3.4994 C   0  0  0  0  0  0  0  0  0  0  0  0
   19.0446  -12.8386    7.1872 C   0  0  0  0  0  0  0  0  0  0  0  0
   20.1553  -12.8452    7.7796 O   0  0  0  0  0  0  0  0  0  0  0  0
   17.9566  -13.4875    7.8312 N   0  0  0  0  0  0  0  0  0  0  0  0
   18.1407  -14.1232    9.0987 C   0  0  1  0  0  0  0  0  0  0  0  0
   17.3847  -13.3848   10.1587 C   0  0  0  0  0  0  0  0  0  0  0  0
   17.6426  -14.1812   11.7836 S   0  0  0  0  0  0  0  0  0  0  0  0
   17.5549  -15.5097    8.9904 C   0  0  0  0  0  0  0  0  0  0  0  0
   16.5747  -15.7546    8.2418 O   0  0  0  0  0  0  0  0  0  0  0  0
   18.0856  -16.5992    9.7302 N   0  0  0  0  0  0  0  0  0  0  0  0
   17.4066  -17.8748    9.7124 C   0  0  1  0  0  0  0  0  0  0  0  0
   18.2754  -18.8413   10.5023 C   0  0  0  0  0  0  0  0  0  0  0  0
   17.6869  -20.2149   10.5524 C   0  0  0  0  0  0  0  0  0  0  0  0
   18.3427  -21.0290    9.4946 C   0  0  0  0  0  0  0  0  0  0  0  0
   18.3590  -20.6838    8.2837 O   0  0  0  0  0  0  0  0  0  0  0  0
   16.0680  -17.7384   10.3377 C   0  0  0  0  0  0  0  0  0  0  0  0
   15.1138  -18.6901   10.1134 O   0  0  0  0  0  0  0  0  0  0  0  0
   18.9792  -22.2318    9.8072 O   0  0  0  0  0  0  0  0  0  0  0  0
   15.8243  -16.7490   11.0677 O   0  0  0  0  0  0  0  0  0  0  0  0
  2  1  1  1
  2 13  1  0
  2  3  1  0
  3  4  1  0
  4  5  2  0
  5  6  1  0
  7  6  1  0
  8  7  2  0
  9  8  1  0
 10 11  1  0
 10  9  2  0
 11 12  2  0
 12  4  1  0
 12  7  1  0
 13 14  2  0
 15 13  1  0
 15 16  1  0
 16 17  1  1
 17 18  1  0
 19 20  2  0
 19 16  1  0
 21 19  1  0
 22 21  1  0
 22 23  1  1
 24 25  1  0
 24 23  1  0
 25 26  2  0
 25 29  1  0
 27 22  1  0
 27 28  1  0
 30 27  2  0
M  END
$$$$
