WCE.pdb
     RDKit          3D

 30 31  0  0  1  0  0  0  0  0999 V2000
   19.3805  -26.6286  -11.1112 N   0  0  0  0  0  0  0  0  0  0  0  0
   18.1691  -26.4708  -10.3311 C   0  0  1  0  0  0  0  0  0  0  0  0
   17.2659  -27.6617  -10.5721 C   0  0  0  0  0  0  0  0  0  0  0  0
   16.6212  -27.5871  -11.8979 C   0  0  0  0  0  0  0  0  0  0  0  0
   16.9437  -28.3852  -12.9805 C   0  0  0  0  0  0  0  0  0  0  0  0
   16.1415  -28.0095  -13.9841 N   0  0  0  0  0  0  0  0  0  0  0  0
   15.3328  -27.0106  -13.5711 C   0  0  0  0  0  0  0  0  0  0  0  0
   14.3500  -26.2969  -14.2196 C   0  0  0  0  0  0  0  0  0  0  0  0
   13.6338  -25.2948  -13.5843 C   0  0  0  0  0  0  0  0  0  0  0  0
   13.9418  -25.0382  -12.2777 C   0  0  0  0  0  0  0  0  0  0  0  0
   14.9117  -25.7246  -11.5973 C   0  0  0  0  0  0  0  0  0  0  0  0
   15.6155  -26.7212  -12.2486 C   0  0  0  0  0  0  0  0  0  0  0  0
   18.5720  -26.5287   -8.8804 C   0  0  0  0  0  0  0  0  0  0  0  0
   19.5970  -27.1596   -8.5113 O   0  0  0  0  0  0  0  0  0  0  0  0
   17.8103  -25.8742   -7.8750 N   0  0  0  0  0  0  0  0  0  0  0  0
   18.3617  -25.6611   -6.5729 C   0  0  1  0  0  0  0  0  0  0  0  0
   18.6629  -24.2085   -6.3738 C   0  0  0  0  0  0  0  0  0  0  0  0
   17.1925  -23.2014   -6.7793 S   0  0  0  0  0  0  0  0  0  0  0  0
   17.3049  -26.0582   -5.5717 C   0  0  0  0  0  0  0  0  0  0  0  0
   16.0788  -25.9622   -5.8341 O   0  0  0  0  0  0  0  0  0  0  0  0
   17.6494  -26.5578   -4.2880 N   0  0  0  0  0  0  0  0  0  0  0  0
   16.6076  -26.8444   -3.3283 C   0  0  1  0  0  0  0  0  0  0  0  0
   17.2682  -27.5888   -2.1784 C   0  0  0  0  0  0  0  0  0  0  0  0
   16.2762  -28.0322   -1.1513 C   0  0  0  0  0  0  0  0  0  0  0  0
   17.0184  -28.7589   -0.0868 C   0  0  0  0  0  0  0  0  0  0  0  0
   17.3516  -29.9684   -0.1955 O   0  0  0  0  0  0  0  0  0  0  0  0
   16.0002  -25.5763   -2.8548 C   0  0  0  0  0  0  0  0  0  0  0  0
   14.7286  -25.5776   -2.3553 O   0  0  0  0  0  0  0  0  0  0  0  0
   17.3828  -28.1173    1.0985 O   0  0  0  0  0  0  0  0  0  0  0  0
   16.6607  -24.5127   -2.9176 O   0  0  0  0  0  0  0  0  0  0  0  0
  2  1  1  6
  2 13  1  0
  2  3  1  0
  3  4  1  0
  4  5  2  0
  5  6  1  0
  7  6  1  0
  8  7  2  0
  9  8  1  0
 10 11  1  0
 10  9  2  0
 11 12  2  0
 12  4  1  0
 12  7  1  0
 13 14  2  0
 15 13  1  0
 15 16  1  0
 16 17  1  6
 17 18  1  0
 19 20  2  0
 19 16  1  0
 21 19  1  0
 22 21  1  0
 22 23  1  1
 24 25  1  0
 24 23  1  0
 25 26  2  0
 25 29  1  0
 27 22  1  0
 27 28  1  0
 30 27  2  0
M  END
$$$$
