WCE.pdb
     RDKit          3D

 30 31  0  0  1  0  0  0  0  0999 V2000
   16.1997  -18.1532    3.9716 N   0  0  0  0  0  0  0  0  0  0  0  0
   16.7323  -19.2137    3.1395 C   0  0  1  0  0  0  0  0  0  0  0  0
   17.2185  -18.6220    1.8335 C   0  0  0  0  0  0  0  0  0  0  0  0
   17.8789  -17.3194    2.0471 C   0  0  0  0  0  0  0  0  0  0  0  0
   17.2809  -16.2146    2.6259 C   0  0  0  0  0  0  0  0  0  0  0  0
   18.2022  -15.2436    2.6367 N   0  0  0  0  0  0  0  0  0  0  0  0
   19.3492  -15.6980    2.0886 C   0  0  0  0  0  0  0  0  0  0  0  0
   20.5671  -15.0930    1.8734 C   0  0  0  0  0  0  0  0  0  0  0  0
   21.6242  -15.7666    1.2822 C   0  0  0  0  0  0  0  0  0  0  0  0
   21.4114  -17.0663    0.9167 C   0  0  0  0  0  0  0  0  0  0  0  0
   20.2158  -17.7040    1.1130 C   0  0  0  0  0  0  0  0  0  0  0  0
   19.1729  -17.0149    1.7046 C   0  0  0  0  0  0  0  0  0  0  0  0
   17.9512  -19.7519    3.8430 C   0  0  0  0  0  0  0  0  0  0  0  0
   18.7466  -20.5374    3.2640 O   0  0  0  0  0  0  0  0  0  0  0  0
   18.2483  -19.3935    5.1857 N   0  0  0  0  0  0  0  0  0  0  0  0
   19.3799  -19.9591    5.8523 C   0  0  1  0  0  0  0  0  0  0  0  0
   20.4052  -18.9001    6.1128 C   0  0  0  0  0  0  0  0  0  0  0  0
   21.9632  -19.6632    6.6884 S   0  0  0  0  0  0  0  0  0  0  0  0
   18.8981  -20.4774    7.1850 C   0  0  0  0  0  0  0  0  0  0  0  0
   18.0115  -19.8771    7.8445 O   0  0  0  0  0  0  0  0  0  0  0  0
   19.4257  -21.6669    7.7532 N   0  0  0  0  0  0  0  0  0  0  0  0
   19.0298  -22.0600    9.0864 C   0  0  1  0  0  0  0  0  0  0  0  0
   19.5553  -23.4713    9.2978 C   0  0  0  0  0  0  0  0  0  0  0  0
   19.1507  -24.0296   10.6247 C   0  0  0  0  0  0  0  0  0  0  0  0
   19.1076  -25.5110   10.5002 C   0  0  0  0  0  0  0  0  0  0  0  0
   19.4732  -26.1162    9.4582 O   0  0  0  0  0  0  0  0  0  0  0  0
   19.6159  -21.1257   10.0788 C   0  0  0  0  0  0  0  0  0  0  0  0
   20.8979  -20.6815    9.9186 O   0  0  0  0  0  0  0  0  0  0  0  0
   18.6516  -26.3058   11.5536 O   0  0  0  0  0  0  0  0  0  0  0  0
   18.9278  -20.7516   11.0576 O   0  0  0  0  0  0  0  0  0  0  0  0
  2  1  1  1
  2 13  1  0
  2  3  1  0
  3  4  1  0
  4  5  2  0
  5  6  1  0
  7  6  1  0
  8  7  2  0
  9  8  1  0
 10 11  1  0
 10  9  2  0
 11 12  2  0
 12  4  1  0
 12  7  1  0
 13 14  2  0
 15 13  1  0
 15 16  1  0
 16 17  1  1
 17 18  1  0
 19 20  2  0
 19 16  1  0
 21 19  1  0
 22 21  1  0
 22 23  1  1
 24 25  1  0
 24 23  1  0
 25 26  2  0
 25 29  1  0
 27 22  1  0
 27 28  1  0
 30 27  2  0
M  END
$$$$
