WCE.pdb
     RDKit          3D

 30 31  0  0  1  0  0  0  0  0999 V2000
   28.9470  -22.1688  -10.6293 N   0  0  0  0  0  0  0  0  0  0  0  0
   27.8218  -21.4134  -10.1156 C   0  0  1  0  0  0  0  0  0  0  0  0
   28.3286  -20.1269   -9.4990 C   0  0  0  0  0  0  0  0  0  0  0  0
   29.0338  -20.3821   -8.2276 C   0  0  0  0  0  0  0  0  0  0  0  0
   30.2802  -20.9720   -8.1189 C   0  0  0  0  0  0  0  0  0  0  0  0
   30.5649  -21.0246   -6.8120 N   0  0  0  0  0  0  0  0  0  0  0  0
   29.5474  -20.4918   -6.1025 C   0  0  0  0  0  0  0  0  0  0  0  0
   29.3638  -20.3175   -4.7491 C   0  0  0  0  0  0  0  0  0  0  0  0
   28.2158  -19.7349   -4.2357 C   0  0  0  0  0  0  0  0  0  0  0  0
   27.2631  -19.3359   -5.1308 C   0  0  0  0  0  0  0  0  0  0  0  0
   27.4071  -19.4914   -6.4835 C   0  0  0  0  0  0  0  0  0  0  0  0
   28.5599  -20.0750   -6.9765 C   0  0  0  0  0  0  0  0  0  0  0  0
   26.9834  -21.0152  -11.3025 C   0  0  0  0  0  0  0  0  0  0  0  0
   27.4537  -20.2975  -12.2237 O   0  0  0  0  0  0  0  0  0  0  0  0
   25.6311  -21.4343  -11.4264 N   0  0  0  0  0  0  0  0  0  0  0  0
   24.8747  -21.1026  -12.5937 C   0  0  1  0  0  0  0  0  0  0  0  0
   24.7951  -22.2853  -13.5077 C   0  0  0  0  0  0  0  0  0  0  0  0
   24.9512  -23.8325  -12.5471 S   0  0  0  0  0  0  0  0  0  0  0  0
   23.4746  -20.7726  -12.1377 C   0  0  0  0  0  0  0  0  0  0  0  0
   23.0133  -21.2126  -11.0538 O   0  0  0  0  0  0  0  0  0  0  0  0
   22.6160  -19.9501  -12.9139 N   0  0  0  0  0  0  0  0  0  0  0  0
   21.2722  -19.6834  -12.4541 C   0  0  1  0  0  0  0  0  0  0  0  0
   20.7466  -18.5286  -13.2926 C   0  0  0  0  0  0  0  0  0  0  0  0
   19.3541  -18.1423  -12.9085 C   0  0  0  0  0  0  0  0  0  0  0  0
   18.9498  -16.9930  -13.7615 C   0  0  0  0  0  0  0  0  0  0  0  0
   19.6842  -16.5338  -14.6755 O   0  0  0  0  0  0  0  0  0  0  0  0
   20.4312  -20.8920  -12.6365 C   0  0  0  0  0  0  0  0  0  0  0  0
   19.3682  -21.1110  -11.8068 O   0  0  0  0  0  0  0  0  0  0  0  0
   17.7162  -16.3648  -13.5800 O   0  0  0  0  0  0  0  0  0  0  0  0
   20.7045  -21.7033  -13.5523 O   0  0  0  0  0  0  0  0  0  0  0  0
  2  1  1  6
  2 13  1  0
  2  3  1  0
  3  4  1  0
  4  5  2  0
  5  6  1  0
  7  6  1  0
  8  7  2  0
  9  8  1  0
 10 11  1  0
 10  9  2  0
 11 12  2  0
 12  4  1  0
 12  7  1  0
 13 14  2  0
 15 13  1  0
 15 16  1  0
 16 17  1  6
 17 18  1  0
 19 20  2  0
 19 16  1  0
 21 19  1  0
 22 21  1  0
 22 23  1  6
 24 25  1  0
 24 23  1  0
 25 26  2  0
 25 29  1  0
 27 22  1  0
 27 28  1  0
 30 27  2  0
M  END
$$$$
