WCE.pdb
     RDKit          3D

 30 31  0  0  1  0  0  0  0  0999 V2000
   27.8579  -21.7588  -14.3082 N   0  0  0  0  0  0  0  0  0  0  0  0
   26.8625  -21.7947  -13.2552 C   0  0  1  0  0  0  0  0  0  0  0  0
   26.8885  -20.4807  -12.5037 C   0  0  0  0  0  0  0  0  0  0  0  0
   27.8036  -20.5415  -11.3471 C   0  0  0  0  0  0  0  0  0  0  0  0
   29.1801  -20.6479  -11.4321 C   0  0  0  0  0  0  0  0  0  0  0  0
   29.6392  -20.6739  -10.1750 N   0  0  0  0  0  0  0  0  0  0  0  0
   28.6056  -20.5881   -9.3108 C   0  0  0  0  0  0  0  0  0  0  0  0
   28.5576  -20.5745   -7.9348 C   0  0  0  0  0  0  0  0  0  0  0  0
   27.3590  -20.4774   -7.2457 C   0  0  0  0  0  0  0  0  0  0  0  0
   26.2152  -20.3949   -7.9891 C   0  0  0  0  0  0  0  0  0  0  0  0
   26.2200  -20.4052   -9.3583 C   0  0  0  0  0  0  0  0  0  0  0  0
   27.4262  -20.5028  -10.0279 C   0  0  0  0  0  0  0  0  0  0  0  0
   25.5165  -21.8740  -13.9277 C   0  0  0  0  0  0  0  0  0  0  0  0
   25.2638  -21.2067  -14.9650 O   0  0  0  0  0  0  0  0  0  0  0  0
   24.4824  -22.7039  -13.4165 N   0  0  0  0  0  0  0  0  0  0  0  0
   23.2363  -22.8169  -14.1088 C   0  0  1  0  0  0  0  0  0  0  0  0
   22.6860  -24.2002  -13.9542 C   0  0  0  0  0  0  0  0  0  0  0  0
   21.0122  -24.2947  -14.6824 S   0  0  0  0  0  0  0  0  0  0  0  0
   22.2740  -21.8578  -13.4520 C   0  0  0  0  0  0  0  0  0  0  0  0
   22.2067  -21.7442  -12.2015 O   0  0  0  0  0  0  0  0  0  0  0  0
   21.4014  -21.0411  -14.2186 N   0  0  0  0  0  0  0  0  0  0  0  0
   20.5339  -20.0973  -13.5513 C   0  0  1  0  0  0  0  0  0  0  0  0
   20.3647  -18.9182  -14.4967 C   0  0  0  0  0  0  0  0  0  0  0  0
   19.5247  -17.8345  -13.9001 C   0  0  0  0  0  0  0  0  0  0  0  0
   19.4209  -16.7380  -14.8995 C   0  0  0  0  0  0  0  0  0  0  0  0
   19.9988  -16.7805  -16.0175 O   0  0  0  0  0  0  0  0  0  0  0  0
   19.2253  -20.7352  -13.2655 C   0  0  0  0  0  0  0  0  0  0  0  0
   18.4899  -20.3238  -12.1902 O   0  0  0  0  0  0  0  0  0  0  0  0
   18.6639  -15.5952  -14.6337 O   0  0  0  0  0  0  0  0  0  0  0  0
   18.8053  -21.6480  -14.0151 O   0  0  0  0  0  0  0  0  0  0  0  0
  2  1  1  6
  2 13  1  0
  2  3  1  0
  3  4  1  0
  4  5  2  0
  5  6  1  0
  7  6  1  0
  8  7  2  0
  9  8  1  0
 10 11  1  0
 10  9  2  0
 11 12  2  0
 12  4  1  0
 12  7  1  0
 13 14  2  0
 15 13  1  0
 15 16  1  0
 16 17  1  1
 17 18  1  0
 19 20  2  0
 19 16  1  0
 21 19  1  0
 22 21  1  0
 22 23  1  6
 24 25  1  0
 24 23  1  0
 25 26  2  0
 25 29  1  0
 27 22  1  0
 27 28  1  0
 30 27  2  0
M  END
$$$$
