WCE.pdb
     RDKit          3D

 30 31  0  0  1  0  0  0  0  0999 V2000
   28.3472  -21.0019  -10.8126 N   0  0  0  0  0  0  0  0  0  0  0  0
   26.9987  -21.3259  -10.3916 C   0  0  1  0  0  0  0  0  0  0  0  0
   26.6830  -20.5723   -9.1170 C   0  0  0  0  0  0  0  0  0  0  0  0
   27.8201  -20.6078   -8.1765 C   0  0  0  0  0  0  0  0  0  0  0  0
   29.0492  -21.1835   -8.4427 C   0  0  0  0  0  0  0  0  0  0  0  0
   29.7980  -21.0085   -7.3471 N   0  0  0  0  0  0  0  0  0  0  0  0
   29.0860  -20.3476   -6.4096 C   0  0  0  0  0  0  0  0  0  0  0  0
   29.4048  -19.9357   -5.1351 C   0  0  0  0  0  0  0  0  0  0  0  0
   28.4966  -19.2588   -4.3365 C   0  0  0  0  0  0  0  0  0  0  0  0
   27.2607  -19.0127   -4.8654 C   0  0  0  0  0  0  0  0  0  0  0  0
   26.9043  -19.4055   -6.1278 C   0  0  0  0  0  0  0  0  0  0  0  0
   27.8245  -20.0799   -6.9094 C   0  0  0  0  0  0  0  0  0  0  0  0
   26.0689  -20.7855  -11.4470 C   0  0  0  0  0  0  0  0  0  0  0  0
   26.2003  -19.6176  -11.8980 O   0  0  0  0  0  0  0  0  0  0  0  0
   25.0093  -21.5734  -11.9723 N   0  0  0  0  0  0  0  0  0  0  0  0
   24.4044  -21.2321  -13.2222 C   0  0  1  0  0  0  0  0  0  0  0  0
   24.7028  -22.2859  -14.2424 C   0  0  0  0  0  0  0  0  0  0  0  0
   25.0077  -23.8886  -13.4184 S   0  0  0  0  0  0  0  0  0  0  0  0
   22.9117  -21.2076  -13.0022 C   0  0  0  0  0  0  0  0  0  0  0  0
   22.3582  -21.9515  -12.1529 O   0  0  0  0  0  0  0  0  0  0  0  0
   22.0663  -20.3424  -13.7458 N   0  0  0  0  0  0  0  0  0  0  0  0
   20.6473  -20.3197  -13.4727 C   0  0  1  0  0  0  0  0  0  0  0  0
   20.0873  -19.0968  -14.1824 C   0  0  0  0  0  0  0  0  0  0  0  0
   18.6047  -18.9839  -14.0238 C   0  0  0  0  0  0  0  0  0  0  0  0
   18.3380  -18.0353  -12.9098 C   0  0  0  0  0  0  0  0  0  0  0  0
   19.0610  -17.0287  -12.6866 O   0  0  0  0  0  0  0  0  0  0  0  0
   20.0183  -21.5611  -13.9871 C   0  0  0  0  0  0  0  0  0  0  0  0
   20.4572  -22.1093  -15.1590 O   0  0  0  0  0  0  0  0  0  0  0  0
   17.2544  -18.2258  -12.0501 O   0  0  0  0  0  0  0  0  0  0  0  0
   19.0877  -22.0968  -13.3403 O   0  0  0  0  0  0  0  0  0  0  0  0
  2  1  1  6
  2 13  1  0
  2  3  1  0
  3  4  1  0
  4  5  2  0
  5  6  1  0
  7  6  1  0
  8  7  2  0
  9  8  1  0
 10 11  1  0
 10  9  2  0
 11 12  2  0
 12  4  1  0
 12  7  1  0
 13 14  2  0
 15 13  1  0
 15 16  1  0
 16 17  1  6
 17 18  1  0
 19 20  2  0
 19 16  1  0
 21 19  1  0
 22 21  1  0
 22 23  1  6
 24 25  1  0
 24 23  1  0
 25 26  2  0
 25 29  1  0
 27 22  1  0
 27 28  1  0
 30 27  2  0
M  END
$$$$
