WCE.pdb
     RDKit          3D

 30 31  0  0  1  0  0  0  0  0999 V2000
   23.5748  -20.9078  -15.1982 N   0  0  0  0  0  0  0  0  0  0  0  0
   23.6358  -19.9207  -14.1386 C   0  0  1  0  0  0  0  0  0  0  0  0
   22.3176  -19.1787  -14.0760 C   0  0  0  0  0  0  0  0  0  0  0  0
   22.1264  -18.3225  -15.2631 C   0  0  0  0  0  0  0  0  0  0  0  0
   21.3015  -18.6241  -16.3316 C   0  0  0  0  0  0  0  0  0  0  0  0
   21.4056  -17.6054  -17.1936 N   0  0  0  0  0  0  0  0  0  0  0  0
   22.2611  -16.6818  -16.7061 C   0  0  0  0  0  0  0  0  0  0  0  0
   22.6951  -15.4758  -17.2089 C   0  0  0  0  0  0  0  0  0  0  0  0
   23.5949  -14.6775  -16.5204 C   0  0  0  0  0  0  0  0  0  0  0  0
   24.0401  -15.1357  -15.3122 C   0  0  0  0  0  0  0  0  0  0  0  0
   23.6333  -16.3287  -14.7775 C   0  0  0  0  0  0  0  0  0  0  0  0
   22.7349  -17.1113  -15.4797 C   0  0  0  0  0  0  0  0  0  0  0  0
   23.7603  -20.6777  -12.8418 C   0  0  0  0  0  0  0  0  0  0  0  0
   23.1627  -21.7712  -12.6633 O   0  0  0  0  0  0  0  0  0  0  0  0
   24.5560  -20.1857  -11.7721 N   0  0  0  0  0  0  0  0  0  0  0  0
   24.6382  -20.9069  -10.5400 C   0  0  1  0  0  0  0  0  0  0  0  0
   25.6733  -20.2905   -9.6517 C   0  0  0  0  0  0  0  0  0  0  0  0
   25.6711  -21.1144   -8.0201 S   0  0  0  0  0  0  0  0  0  0  0  0
   23.2997  -20.7733   -9.8562 C   0  0  0  0  0  0  0  0  0  0  0  0
   22.6916  -19.6737   -9.8062 O   0  0  0  0  0  0  0  0  0  0  0  0
   22.6680  -21.8848   -9.2384 N   0  0  0  0  0  0  0  0  0  0  0  0
   21.4552  -21.6870   -8.4777 C   0  0  1  0  0  0  0  0  0  0  0  0
   20.3280  -22.3102   -9.2862 C   0  0  0  0  0  0  0  0  0  0  0  0
   19.0090  -22.2003   -8.5905 C   0  0  0  0  0  0  0  0  0  0  0  0
   17.9869  -22.8575   -9.4480 C   0  0  0  0  0  0  0  0  0  0  0  0
   18.1254  -22.9861  -10.6930 O   0  0  0  0  0  0  0  0  0  0  0  0
   21.5809  -22.3461   -7.1544 C   0  0  0  0  0  0  0  0  0  0  0  0
   20.6306  -22.1324   -6.1965 O   0  0  0  0  0  0  0  0  0  0  0  0
   16.8101  -23.3684   -8.8970 O   0  0  0  0  0  0  0  0  0  0  0  0
   22.5603  -23.0948   -6.9269 O   0  0  0  0  0  0  0  0  0  0  0  0
  2  1  1  6
  2 13  1  0
  2  3  1  0
  3  4  1  0
  4  5  2  0
  5  6  1  0
  7  6  1  0
  8  7  2  0
  9  8  1  0
 10 11  1  0
 10  9  2  0
 11 12  2  0
 12  4  1  0
 12  7  1  0
 13 14  2  0
 15 13  1  0
 15 16  1  0
 16 17  1  1
 17 18  1  0
 19 20  2  0
 19 16  1  0
 21 19  1  0
 22 21  1  0
 22 23  1  6
 24 25  1  0
 24 23  1  0
 25 26  2  0
 25 29  1  0
 27 22  1  0
 27 28  1  0
 30 27  2  0
M  END
$$$$
