WCE.pdb
     RDKit          3D

 30 31  0  0  1  0  0  0  0  0999 V2000
   27.6634  -22.6194  -12.7528 N   0  0  0  0  0  0  0  0  0  0  0  0
   26.6693  -21.7788  -12.1157 C   0  0  1  0  0  0  0  0  0  0  0  0
   27.3092  -20.4634  -11.7255 C   0  0  0  0  0  0  0  0  0  0  0  0
   28.2188  -20.6292  -10.5749 C   0  0  0  0  0  0  0  0  0  0  0  0
   29.5673  -20.9225  -10.6684 C   0  0  0  0  0  0  0  0  0  0  0  0
   30.0309  -20.9903   -9.4144 N   0  0  0  0  0  0  0  0  0  0  0  0
   29.0270  -20.7513   -8.5441 C   0  0  0  0  0  0  0  0  0  0  0  0
   28.9946  -20.7092   -7.1683 C   0  0  0  0  0  0  0  0  0  0  0  0
   27.8270  -20.4394   -6.4720 C   0  0  0  0  0  0  0  0  0  0  0  0
   26.6977  -20.2145   -7.2082 C   0  0  0  0  0  0  0  0  0  0  0  0
   26.6877  -20.2475   -8.5770 C   0  0  0  0  0  0  0  0  0  0  0  0
   27.8630  -20.5184   -9.2538 C   0  0  0  0  0  0  0  0  0  0  0  0
   25.6344  -21.4550  -13.1620 C   0  0  0  0  0  0  0  0  0  0  0  0
   25.9592  -20.9489  -14.2680 O   0  0  0  0  0  0  0  0  0  0  0  0
   24.2539  -21.7083  -12.9394 N   0  0  0  0  0  0  0  0  0  0  0  0
   23.2991  -21.4775  -13.9786 C   0  0  1  0  0  0  0  0  0  0  0  0
   23.1587  -22.7014  -14.8287 C   0  0  0  0  0  0  0  0  0  0  0  0
   21.7255  -22.5262  -15.9494 S   0  0  0  0  0  0  0  0  0  0  0  0
   21.9699  -21.2195  -13.3123 C   0  0  0  0  0  0  0  0  0  0  0  0
   21.5321  -21.9689  -12.4023 O   0  0  0  0  0  0  0  0  0  0  0  0
   21.1547  -20.1182  -13.6846 N   0  0  0  0  0  0  0  0  0  0  0  0
   19.8723  -19.9288  -13.0458 C   0  0  1  0  0  0  0  0  0  0  0  0
   19.2820  -18.6525  -13.6250 C   0  0  0  0  0  0  0  0  0  0  0  0
   18.0188  -18.2519  -12.9325 C   0  0  0  0  0  0  0  0  0  0  0  0
   17.5346  -16.9946  -13.5622 C   0  0  0  0  0  0  0  0  0  0  0  0
   18.2991  -16.2028  -14.1741 O   0  0  0  0  0  0  0  0  0  0  0  0
   18.9948  -21.0910  -13.3298 C   0  0  0  0  0  0  0  0  0  0  0  0
   19.0410  -21.6931  -14.5552 O   0  0  0  0  0  0  0  0  0  0  0  0
   16.1871  -16.6342  -13.4994 O   0  0  0  0  0  0  0  0  0  0  0  0
   18.2170  -21.5106  -12.4407 O   0  0  0  0  0  0  0  0  0  0  0  0
  2  1  1  6
  2 13  1  0
  2  3  1  0
  3  4  1  0
  4  5  2  0
  5  6  1  0
  7  6  1  0
  8  7  2  0
  9  8  1  0
 10 11  1  0
 10  9  2  0
 11 12  2  0
 12  4  1  0
 12  7  1  0
 13 14  2  0
 15 13  1  0
 15 16  1  0
 16 17  1  6
 17 18  1  0
 19 20  2  0
 19 16  1  0
 21 19  1  0
 22 21  1  0
 22 23  1  6
 24 25  1  0
 24 23  1  0
 25 26  2  0
 25 29  1  0
 27 22  1  0
 27 28  1  0
 30 27  2  0
M  END
$$$$
