QVT.pdb
     RDKit          3D

 24 23  0  0  1  0  0  0  0  0999 V2000
    8.1316  -18.9932   20.8148 N   0  0  0  0  0  0  0  0  0  0  0  0
    7.0918  -18.4171   20.0069 C   0  0  0  0  0  0  0  0  0  0  0  0
    6.7189  -19.0977   19.0237 O   0  0  0  0  0  0  0  0  0  0  0  0
    6.5338  -17.0993   20.3634 C   0  0  0  0  0  0  0  0  0  0  0  0
    7.0233  -16.5338   21.6507 C   0  0  0  0  0  0  0  0  0  0  0  0
    7.2708  -15.0620   21.6343 C   0  0  2  0  0  0  0  0  0  0  0  0
    7.9782  -14.6347   20.4324 N   0  0  0  0  0  0  0  0  0  0  0  0
    8.0166  -14.6139   22.8426 C   0  0  0  0  0  0  0  0  0  0  0  0
    9.2696  -14.7180   22.8913 O   0  0  0  0  0  0  0  0  0  0  0  0
    6.1717  -12.9653   26.4165 C   0  0  0  0  0  0  0  0  0  0  0  0
    7.5406  -12.5187   25.9074 C   0  0  1  0  0  0  0  0  0  0  0  0
    8.3549  -12.1689   27.1362 C   0  0  0  0  0  0  0  0  0  0  0  0
    8.1237  -13.7075   25.1686 C   0  0  2  0  0  0  0  0  0  0  0  0
    7.3863  -14.0542   23.9911 N   0  0  0  0  0  0  0  0  0  0  0  0
    8.2743  -14.8815   26.0930 C   0  0  0  0  0  0  0  0  0  0  0  0
    7.2738  -15.5195   26.5082 O   0  0  0  0  0  0  0  0  0  0  0  0
   10.0165  -17.8655   25.3415 C   0  0  0  0  0  0  0  0  0  0  0  0
   10.6585  -17.4424   26.6456 C   0  0  1  0  0  0  0  0  0  0  0  0
   11.8629  -16.8208   26.3183 O   0  0  0  0  0  0  0  0  0  0  0  0
    9.7636  -16.4338   27.3313 C   0  0  2  0  0  0  0  0  0  0  0  0
    9.6008  -15.2552   26.4901 N   0  0  0  0  0  0  0  0  0  0  0  0
   10.3772  -16.0856   28.6317 C   0  0  0  0  0  0  0  0  0  0  0  0
   10.7995  -14.9167   28.8049 O   0  0  0  0  0  0  0  0  0  0  0  0
   10.5063  -16.9929   29.6667 O   0  0  0  0  0  0  0  0  0  0  0  0
  2  1  1  0
  3  2  2  0
  4  2  1  0
  5  4  1  0
  6  5  1  0
  6  7  1  6
  8 14  1  0
  8  6  1  0
  9  8  2  0
 11 10  1  1
 11 13  1  0
 12 11  1  0
 13 14  1  6
 15 21  1  0
 15 13  1  0
 16 15  2  0
 18 20  1  0
 18 17  1  6
 19 18  1  0
 20 22  1  0
 20 21  1  6
 22 24  1  0
 23 22  2  0
M  END
$$$$
