QVT.pdb
     RDKit          3D

 24 23  0  0  1  0  0  0  0  0999 V2000
    4.3955  -18.4398   21.5620 N   0  0  0  0  0  0  0  0  0  0  0  0
    5.7948  -18.5880   21.2691 C   0  0  0  0  0  0  0  0  0  0  0  0
    6.1928  -19.7581   21.0653 O   0  0  0  0  0  0  0  0  0  0  0  0
    6.6628  -17.3965   21.2236 C   0  0  0  0  0  0  0  0  0  0  0  0
    5.9856  -16.1096   21.5423 C   0  0  0  0  0  0  0  0  0  0  0  0
    6.8546  -14.9009   21.4340 C   0  0  2  0  0  0  0  0  0  0  0  0
    7.7632  -14.9748   20.2955 N   0  0  0  0  0  0  0  0  0  0  0  0
    7.6310  -14.6653   22.6824 C   0  0  0  0  0  0  0  0  0  0  0  0
    8.8234  -15.0569   22.7730 O   0  0  0  0  0  0  0  0  0  0  0  0
    5.9116  -13.2746   26.3512 C   0  0  0  0  0  0  0  0  0  0  0  0
    7.2771  -12.7373   25.9277 C   0  0  1  0  0  0  0  0  0  0  0  0
    8.0843  -12.5843   27.2007 C   0  0  0  0  0  0  0  0  0  0  0  0
    7.8747  -13.7840   25.0077 C   0  0  2  0  0  0  0  0  0  0  0  0
    7.0976  -14.0021   23.8249 N   0  0  0  0  0  0  0  0  0  0  0  0
    8.1193  -15.0645   25.7533 C   0  0  0  0  0  0  0  0  0  0  0  0
    7.1672  -15.7927   26.1322 O   0  0  0  0  0  0  0  0  0  0  0  0
   11.2014  -18.7130   26.6562 C   0  0  0  0  0  0  0  0  0  0  0  0
   10.9545  -17.3702   26.0024 C   0  0  1  0  0  0  0  0  0  0  0  0
   10.6856  -17.6208   24.6574 O   0  0  0  0  0  0  0  0  0  0  0  0
    9.7343  -16.7332   26.6298 C   0  0  2  0  0  0  0  0  0  0  0  0
    9.4789  -15.4340   26.0215 N   0  0  0  0  0  0  0  0  0  0  0  0
    9.9789  -16.6075   28.0834 C   0  0  0  0  0  0  0  0  0  0  0  0
    9.7929  -17.6103   28.8146 O   0  0  0  0  0  0  0  0  0  0  0  0
   10.4041  -15.4318   28.6733 O   0  0  0  0  0  0  0  0  0  0  0  0
  2  1  1  0
  3  2  2  0
  4  2  1  0
  5  4  1  0
  6  5  1  0
  6  7  1  6
  8 14  1  0
  8  6  1  0
  9  8  2  0
 11 10  1  1
 11 13  1  0
 12 11  1  0
 13 14  1  6
 15 21  1  0
 15 13  1  0
 16 15  2  0
 18 20  1  0
 18 17  1  1
 19 18  1  0
 20 22  1  0
 20 21  1  6
 22 24  1  0
 23 22  2  0
M  END
$$$$
