QVT.pdb
     RDKit          3D

 24 23  0  0  1  0  0  0  0  0999 V2000
    5.0138  -18.6931   18.6320 N   0  0  0  0  0  0  0  0  0  0  0  0
    6.2346  -17.9350   18.6023 C   0  0  0  0  0  0  0  0  0  0  0  0
    6.3175  -17.0615   17.7083 O   0  0  0  0  0  0  0  0  0  0  0  0
    7.2924  -18.2126   19.5918 C   0  0  0  0  0  0  0  0  0  0  0  0
    7.1716  -17.4625   20.8721 C   0  0  0  0  0  0  0  0  0  0  0  0
    7.6492  -16.0494   20.8175 C   0  0  2  0  0  0  0  0  0  0  0  0
    8.5288  -15.8078   19.6793 N   0  0  0  0  0  0  0  0  0  0  0  0
    8.3354  -15.6493   22.0769 C   0  0  0  0  0  0  0  0  0  0  0  0
    9.5873  -15.7325   22.1729 O   0  0  0  0  0  0  0  0  0  0  0  0
    7.5278  -12.5353   24.3398 C   0  0  0  0  0  0  0  0  0  0  0  0
    7.6259  -13.7598   25.2471 C   0  0  1  0  0  0  0  0  0  0  0  0
    6.2013  -14.1571   25.5762 C   0  0  0  0  0  0  0  0  0  0  0  0
    8.3328  -14.8289   24.4370 C   0  0  2  0  0  0  0  0  0  0  0  0
    7.6471  -15.1603   23.2244 N   0  0  0  0  0  0  0  0  0  0  0  0
    8.5888  -16.0462   25.2785 C   0  0  0  0  0  0  0  0  0  0  0  0
    7.7157  -16.9399   25.4185 O   0  0  0  0  0  0  0  0  0  0  0  0
   11.8732  -19.2577   26.6217 C   0  0  0  0  0  0  0  0  0  0  0  0
   11.5006  -17.9634   25.9304 C   0  0  1  0  0  0  0  0  0  0  0  0
   11.2667  -18.2750   24.5917 O   0  0  0  0  0  0  0  0  0  0  0  0
   10.2196  -17.4327   26.5351 C   0  0  2  0  0  0  0  0  0  0  0  0
    9.8658  -16.1594   25.9213 N   0  0  0  0  0  0  0  0  0  0  0  0
   10.4262  -17.2878   27.9929 C   0  0  0  0  0  0  0  0  0  0  0  0
   10.6380  -16.1427   28.4605 O   0  0  0  0  0  0  0  0  0  0  0  0
   10.3963  -18.3603   28.8646 O   0  0  0  0  0  0  0  0  0  0  0  0
  2  1  1  0
  3  2  2  0
  4  2  1  0
  5  4  1  0
  6  5  1  0
  6  7  1  6
  8 14  1  0
  8  6  1  0
  9  8  2  0
 11 10  1  6
 11 13  1  0
 12 11  1  0
 13 14  1  6
 15 21  1  0
 15 13  1  0
 16 15  2  0
 18 20  1  0
 18 17  1  1
 19 18  1  0
 20 22  1  0
 20 21  1  6
 22 24  1  0
 23 22  2  0
M  END
$$$$
