QVT.pdb
     RDKit          3D

 24 23  0  0  1  0  0  0  0  0999 V2000
   10.6288  -17.5470   19.0238 N   0  0  0  0  0  0  0  0  0  0  0  0
    9.3163  -17.2100   18.5448 C   0  0  0  0  0  0  0  0  0  0  0  0
    8.9388  -17.8068   17.5102 O   0  0  0  0  0  0  0  0  0  0  0  0
    8.5064  -16.2135   19.2700 C   0  0  0  0  0  0  0  0  0  0  0  0
    9.0748  -15.7639   20.5706 C   0  0  0  0  0  0  0  0  0  0  0  0
    8.1984  -16.0061   21.7543 C   0  0  2  0  0  0  0  0  0  0  0  0
    6.8166  -15.6095   21.5082 N   0  0  0  0  0  0  0  0  0  0  0  0
    8.7103  -15.3168   22.9707 C   0  0  0  0  0  0  0  0  0  0  0  0
    9.9385  -15.3374   23.2438 O   0  0  0  0  0  0  0  0  0  0  0  0
    6.1703  -13.4403   25.9251 C   0  0  0  0  0  0  0  0  0  0  0  0
    7.5679  -12.9015   25.6268 C   0  0  1  0  0  0  0  0  0  0  0  0
    8.1101  -12.3815   26.9425 C   0  0  0  0  0  0  0  0  0  0  0  0
    8.3734  -14.0800   25.1154 C   0  0  2  0  0  0  0  0  0  0  0  0
    7.8747  -14.6084   23.8815 N   0  0  0  0  0  0  0  0  0  0  0  0
    8.4804  -15.1438   26.1701 C   0  0  0  0  0  0  0  0  0  0  0  0
    7.4607  -15.7312   26.6123 O   0  0  0  0  0  0  0  0  0  0  0  0
   10.1390  -18.2118   25.7408 C   0  0  0  0  0  0  0  0  0  0  0  0
   10.8047  -17.6596   26.9832 C   0  0  1  0  0  0  0  0  0  0  0  0
   11.9990  -17.0696   26.5715 O   0  0  0  0  0  0  0  0  0  0  0  0
    9.9184  -16.5910   27.5838 C   0  0  2  0  0  0  0  0  0  0  0  0
    9.7877  -15.4714   26.6605 N   0  0  0  0  0  0  0  0  0  0  0  0
   10.5204  -16.1631   28.8658 C   0  0  0  0  0  0  0  0  0  0  0  0
   10.9809  -14.9993   28.9565 O   0  0  0  0  0  0  0  0  0  0  0  0
   10.5981  -16.9904   29.9706 O   0  0  0  0  0  0  0  0  0  0  0  0
  2  1  1  0
  3  2  2  0
  4  2  1  0
  5  4  1  0
  6  5  1  0
  6  7  1  6
  8 14  1  0
  8  6  1  0
  9  8  2  0
 11 10  1  1
 11 13  1  0
 12 11  1  0
 13 14  1  6
 15 21  1  0
 15 13  1  0
 16 15  2  0
 18 20  1  0
 18 17  1  6
 19 18  1  0
 20 22  1  0
 20 21  1  6
 22 24  1  0
 23 22  2  0
M  END
$$$$
