QVT.pdb
     RDKit          3D

 24 23  0  0  1  0  0  0  0  0999 V2000
    5.3833  -18.9123   21.0540 N   0  0  0  0  0  0  0  0  0  0  0  0
    6.2838  -18.1453   20.2374 C   0  0  0  0  0  0  0  0  0  0  0  0
    6.9273  -18.7879   19.3760 O   0  0  0  0  0  0  0  0  0  0  0  0
    6.4013  -16.6901   20.4462 C   0  0  0  0  0  0  0  0  0  0  0  0
    7.2745  -16.2837   21.5814 C   0  0  0  0  0  0  0  0  0  0  0  0
    7.4489  -14.8099   21.7410 C   0  0  2  0  0  0  0  0  0  0  0  0
    8.1620  -14.2137   20.6170 N   0  0  0  0  0  0  0  0  0  0  0  0
    8.1431  -14.4706   23.0138 C   0  0  0  0  0  0  0  0  0  0  0  0
    9.3961  -14.3591   23.0444 O   0  0  0  0  0  0  0  0  0  0  0  0
    7.6995  -11.7022   25.5316 C   0  0  0  0  0  0  0  0  0  0  0  0
    7.5894  -12.9866   26.3505 C   0  0  1  0  0  0  0  0  0  0  0  0
    6.1120  -13.1940   26.6146 C   0  0  0  0  0  0  0  0  0  0  0  0
    8.1638  -14.0897   25.4831 C   0  0  2  0  0  0  0  0  0  0  0  0
    7.4616  -14.2551   24.2462 N   0  0  0  0  0  0  0  0  0  0  0  0
    8.2431  -15.3780   26.2510 C   0  0  0  0  0  0  0  0  0  0  0  0
    7.2063  -15.9660   26.6506 O   0  0  0  0  0  0  0  0  0  0  0  0
    9.5957  -18.4886   25.1424 C   0  0  0  0  0  0  0  0  0  0  0  0
   10.3827  -18.2030   26.4037 C   0  0  1  0  0  0  0  0  0  0  0  0
   11.5958  -17.6444   26.0033 O   0  0  0  0  0  0  0  0  0  0  0  0
    9.6316  -17.1855   27.2337 C   0  0  2  0  0  0  0  0  0  0  0  0
    9.5440  -15.9202   26.5164 N   0  0  0  0  0  0  0  0  0  0  0  0
   10.3452  -17.0262   28.5199 C   0  0  0  0  0  0  0  0  0  0  0  0
   10.8707  -15.9177   28.7840 O   0  0  0  0  0  0  0  0  0  0  0  0
   10.4589  -18.0465   29.4456 O   0  0  0  0  0  0  0  0  0  0  0  0
  2  1  1  0
  3  2  2  0
  4  2  1  0
  5  4  1  0
  6  5  1  0
  6  7  1  6
  8 14  1  0
  8  6  1  0
  9  8  2  0
 11 10  1  6
 11 13  1  0
 12 11  1  0
 13 14  1  6
 15 21  1  0
 15 13  1  0
 16 15  2  0
 18 20  1  0
 18 17  1  6
 19 18  1  0
 20 22  1  0
 20 21  1  6
 22 24  1  0
 23 22  2  0
M  END
$$$$
