QVT.pdb
     RDKit          3D

 24 23  0  0  1  0  0  0  0  0999 V2000
    8.6694  -13.8574   13.7996 N   0  0  0  0  0  0  0  0  0  0  0  0
    8.3076  -15.2028   13.4465 C   0  0  0  0  0  0  0  0  0  0  0  0
    7.6308  -15.3335   12.4006 O   0  0  0  0  0  0  0  0  0  0  0  0
    8.7367  -16.3244   14.3027 C   0  0  0  0  0  0  0  0  0  0  0  0
    9.5063  -15.9338   15.5158 C   0  0  0  0  0  0  0  0  0  0  0  0
    9.2376  -16.7685   16.7237 C   0  0  2  0  0  0  0  0  0  0  0  0
    7.8864  -17.3176   16.7255 N   0  0  0  0  0  0  0  0  0  0  0  0
    9.4737  -16.0099   17.9829 C   0  0  0  0  0  0  0  0  0  0  0  0
   10.6331  -15.6256   18.2858 O   0  0  0  0  0  0  0  0  0  0  0  0
    8.1058  -13.2603   21.7440 C   0  0  0  0  0  0  0  0  0  0  0  0
    7.6624  -13.9167   20.4382 C   0  0  1  0  0  0  0  0  0  0  0  0
    7.6446  -12.8162   19.3970 C   0  0  0  0  0  0  0  0  0  0  0  0
    8.7051  -14.9710   20.1214 C   0  0  2  0  0  0  0  0  0  0  0  0
    8.4392  -15.6761   18.9038 N   0  0  0  0  0  0  0  0  0  0  0  0
    8.8741  -15.9114   21.2800 C   0  0  0  0  0  0  0  0  0  0  0  0
    7.8958  -16.5353   21.7640 O   0  0  0  0  0  0  0  0  0  0  0  0
   10.7307  -18.8954   21.3700 C   0  0  0  0  0  0  0  0  0  0  0  0
   11.3326  -18.1124   22.5173 C   0  0  1  0  0  0  0  0  0  0  0  0
   12.5029  -17.5275   22.0353 O   0  0  0  0  0  0  0  0  0  0  0  0
   10.3735  -17.0147   22.9218 C   0  0  2  0  0  0  0  0  0  0  0  0
   10.1919  -16.0775   21.8209 N   0  0  0  0  0  0  0  0  0  0  0  0
   10.9264  -16.3399   24.1166 C   0  0  0  0  0  0  0  0  0  0  0  0
   11.4136  -15.1907   23.9882 O   0  0  0  0  0  0  0  0  0  0  0  0
   10.9301  -16.9207   25.3712 O   0  0  0  0  0  0  0  0  0  0  0  0
  2  1  1  0
  3  2  2  0
  4  2  1  0
  5  4  1  0
  6  5  1  0
  6  7  1  6
  8 14  1  0
  8  6  1  0
  9  8  2  0
 11 10  1  1
 11 13  1  0
 12 11  1  0
 13 14  1  6
 15 21  1  0
 15 13  1  0
 16 15  2  0
 18 20  1  0
 18 17  1  6
 19 18  1  0
 20 22  1  0
 20 21  1  6
 22 24  1  0
 23 22  2  0
M  END
$$$$
