QVT.pdb
     RDKit          3D

 24 23  0  0  1  0  0  0  0  0999 V2000
    5.3430  -19.7266   23.4151 N   0  0  0  0  0  0  0  0  0  0  0  0
    5.2930  -19.3738   22.0227 C   0  0  0  0  0  0  0  0  0  0  0  0
    4.7714  -20.2195   21.2598 O   0  0  0  0  0  0  0  0  0  0  0  0
    5.8385  -18.0784   21.5762 C   0  0  0  0  0  0  0  0  0  0  0  0
    6.4740  -17.2592   22.6446 C   0  0  0  0  0  0  0  0  0  0  0  0
    6.9342  -15.9082   22.2077 C   0  0  2  0  0  0  0  0  0  0  0  0
    7.6696  -15.9560   20.9490 N   0  0  0  0  0  0  0  0  0  0  0  0
    7.7642  -15.2436   23.2500 C   0  0  0  0  0  0  0  0  0  0  0  0
    9.0058  -15.4427   23.2963 O   0  0  0  0  0  0  0  0  0  0  0  0
    6.1117  -13.1325   26.6096 C   0  0  0  0  0  0  0  0  0  0  0  0
    7.4063  -12.6313   25.9731 C   0  0  1  0  0  0  0  0  0  0  0  0
    8.2655  -12.1181   27.1106 C   0  0  0  0  0  0  0  0  0  0  0  0
    8.0347  -13.8328   25.2943 C   0  0  2  0  0  0  0  0  0  0  0  0
    7.2302  -14.3648   24.2359 N   0  0  0  0  0  0  0  0  0  0  0  0
    8.3865  -14.8862   26.3053 C   0  0  0  0  0  0  0  0  0  0  0  0
    7.5182  -15.6756   26.7563 O   0  0  0  0  0  0  0  0  0  0  0  0
   11.7314  -17.9540   27.8666 C   0  0  0  0  0  0  0  0  0  0  0  0
   11.3656  -16.7683   26.9995 C   0  0  1  0  0  0  0  0  0  0  0  0
   11.0420  -17.2743   25.7413 O   0  0  0  0  0  0  0  0  0  0  0  0
   10.1425  -16.0925   27.5789 C   0  0  2  0  0  0  0  0  0  0  0  0
    9.7499  -14.9653   26.7432 N   0  0  0  0  0  0  0  0  0  0  0  0
   10.4688  -15.6543   28.9538 C   0  0  0  0  0  0  0  0  0  0  0  0
   10.6415  -14.4306   29.1712 O   0  0  0  0  0  0  0  0  0  0  0  0
   10.5921  -16.5353   30.0120 O   0  0  0  0  0  0  0  0  0  0  0  0
  2  1  1  0
  3  2  2  0
  4  2  1  0
  5  4  1  0
  6  5  1  0
  6  7  1  6
  8 14  1  0
  8  6  1  0
  9  8  2  0
 11 10  1  1
 11 13  1  0
 12 11  1  0
 13 14  1  6
 15 21  1  0
 15 13  1  0
 16 15  2  0
 18 20  1  0
 18 17  1  1
 19 18  1  0
 20 22  1  0
 20 21  1  6
 22 24  1  0
 23 22  2  0
M  END
$$$$
