QVT.pdb
     RDKit          3D

 24 23  0  0  1  0  0  0  0  0999 V2000
    9.7032  -18.2068   13.8721 N   0  0  0  0  0  0  0  0  0  0  0  0
   10.8750  -18.3866   14.6847 C   0  0  0  0  0  0  0  0  0  0  0  0
   11.7919  -19.0764   14.1822 O   0  0  0  0  0  0  0  0  0  0  0  0
   10.9383  -17.7708   16.0233 C   0  0  0  0  0  0  0  0  0  0  0  0
    9.7517  -16.9539   16.3992 C   0  0  0  0  0  0  0  0  0  0  0  0
    9.0816  -17.3691   17.6666 C   0  0  2  0  0  0  0  0  0  0  0  0
    7.6307  -17.4285   17.5298 N   0  0  0  0  0  0  0  0  0  0  0  0
    9.4434  -16.4753   18.8011 C   0  0  0  0  0  0  0  0  0  0  0  0
   10.6373  -16.3933   19.1901 O   0  0  0  0  0  0  0  0  0  0  0  0
    7.9828  -12.9187   19.5612 C   0  0  0  0  0  0  0  0  0  0  0  0
    7.9632  -13.7021   20.8720 C   0  0  1  0  0  0  0  0  0  0  0  0
    6.5216  -14.1088   21.0998 C   0  0  0  0  0  0  0  0  0  0  0  0
    8.8579  -14.9071   20.6560 C   0  0  2  0  0  0  0  0  0  0  0  0
    8.4962  -15.6761   19.5036 N   0  0  0  0  0  0  0  0  0  0  0  0
    8.9087  -15.7556   21.8941 C   0  0  0  0  0  0  0  0  0  0  0  0
    7.8737  -16.2970   22.3588 O   0  0  0  0  0  0  0  0  0  0  0  0
   10.5354  -18.8046   22.2389 C   0  0  0  0  0  0  0  0  0  0  0  0
   11.1549  -18.0021   23.3631 C   0  0  1  0  0  0  0  0  0  0  0  0
   12.3737  -17.5190   22.8887 O   0  0  0  0  0  0  0  0  0  0  0  0
   10.2584  -16.8258   23.6812 C   0  0  2  0  0  0  0  0  0  0  0  0
   10.1802  -15.9310   22.5339 N   0  0  0  0  0  0  0  0  0  0  0  0
   10.8126  -16.1341   24.8658 C   0  0  0  0  0  0  0  0  0  0  0  0
   10.7760  -16.7175   25.9762 O   0  0  0  0  0  0  0  0  0  0  0  0
   11.3701  -14.8706   24.8035 O   0  0  0  0  0  0  0  0  0  0  0  0
  2  1  1  0
  3  2  2  0
  4  2  1  0
  5  4  1  0
  6  5  1  0
  6  7  1  6
  8 14  1  0
  8  6  1  0
  9  8  2  0
 11 10  1  6
 11 13  1  0
 12 11  1  0
 13 14  1  6
 15 21  1  0
 15 13  1  0
 16 15  2  0
 18 20  1  0
 18 17  1  6
 19 18  1  0
 20 22  1  0
 20 21  1  6
 22 24  1  0
 23 22  2  0
M  END
$$$$
