QVT.pdb
     RDKit          3D

 24 23  0  0  1  0  0  0  0  0999 V2000
    9.0202  -21.0134   16.5155 N   0  0  0  0  0  0  0  0  0  0  0  0
    7.6270  -20.8339   16.2112 C   0  0  0  0  0  0  0  0  0  0  0  0
    7.1301  -21.6543   15.4056 O   0  0  0  0  0  0  0  0  0  0  0  0
    6.8768  -19.7314   16.8412 C   0  0  0  0  0  0  0  0  0  0  0  0
    7.6436  -18.9351   17.8384 C   0  0  0  0  0  0  0  0  0  0  0  0
    8.0292  -17.5666   17.3842 C   0  0  2  0  0  0  0  0  0  0  0  0
    8.9617  -17.5996   16.2631 N   0  0  0  0  0  0  0  0  0  0  0  0
    8.6057  -16.7583   18.4939 C   0  0  0  0  0  0  0  0  0  0  0  0
    9.8340  -16.8263   18.7584 O   0  0  0  0  0  0  0  0  0  0  0  0
    8.3682  -13.1011   21.7587 C   0  0  0  0  0  0  0  0  0  0  0  0
    7.5818  -13.8629   20.6940 C   0  0  1  0  0  0  0  0  0  0  0  0
    7.4150  -12.9091   19.5286 C   0  0  0  0  0  0  0  0  0  0  0  0
    8.4315  -15.0616   20.3197 C   0  0  2  0  0  0  0  0  0  0  0  0
    7.8341  -15.8800   19.3080 N   0  0  0  0  0  0  0  0  0  0  0  0
    8.7842  -15.8609   21.5414 C   0  0  0  0  0  0  0  0  0  0  0  0
    7.9225  -16.5514   22.1422 O   0  0  0  0  0  0  0  0  0  0  0  0
   12.3597  -17.5934   24.4593 C   0  0  0  0  0  0  0  0  0  0  0  0
   12.0079  -16.7718   23.2375 C   0  0  1  0  0  0  0  0  0  0  0  0
   12.4410  -17.4957   22.1273 O   0  0  0  0  0  0  0  0  0  0  0  0
   10.5047  -16.6210   23.1609 C   0  0  2  0  0  0  0  0  0  0  0  0
   10.1406  -15.8126   22.0046 N   0  0  0  0  0  0  0  0  0  0  0  0
   10.0416  -15.9975   24.4201 C   0  0  0  0  0  0  0  0  0  0  0  0
   10.0712  -14.7469   24.5197 O   0  0  0  0  0  0  0  0  0  0  0  0
    9.5767  -16.7331   25.4942 O   0  0  0  0  0  0  0  0  0  0  0  0
  2  1  1  0
  3  2  2  0
  4  2  1  0
  5  4  1  0
  6  5  1  0
  6  7  1  6
  8 14  1  0
  8  6  1  0
  9  8  2  0
 11 10  1  1
 11 13  1  0
 12 11  1  0
 13 14  1  6
 15 21  1  0
 15 13  1  0
 16 15  2  0
 18 20  1  0
 18 17  1  1
 19 18  1  0
 20 22  1  0
 20 21  1  6
 22 24  1  0
 23 22  2  0
M  END
$$$$
