QVT.pdb
     RDKit          3D

 24 23  0  0  1  0  0  0  0  0999 V2000
    6.7118  -18.8691   22.0613 N   0  0  0  0  0  0  0  0  0  0  0  0
    6.8189  -18.4753   20.6831 C   0  0  0  0  0  0  0  0  0  0  0  0
    7.0080  -19.4005   19.8601 O   0  0  0  0  0  0  0  0  0  0  0  0
    6.7042  -17.0509   20.3184 C   0  0  0  0  0  0  0  0  0  0  0  0
    6.3043  -16.1449   21.4300 C   0  0  0  0  0  0  0  0  0  0  0  0
    7.0125  -14.8312   21.4529 C   0  0  2  0  0  0  0  0  0  0  0  0
    8.0380  -14.7390   20.4198 N   0  0  0  0  0  0  0  0  0  0  0  0
    7.6149  -14.5518   22.7856 C   0  0  0  0  0  0  0  0  0  0  0  0
    8.8593  -14.6382   22.9516 O   0  0  0  0  0  0  0  0  0  0  0  0
    7.5658  -12.9344   27.3825 C   0  0  0  0  0  0  0  0  0  0  0  0
    6.7127  -13.0749   26.1236 C   0  0  1  0  0  0  0  0  0  0  0  0
    6.6473  -11.6950   25.5012 C   0  0  0  0  0  0  0  0  0  0  0  0
    7.4407  -14.0591   25.2289 C   0  0  2  0  0  0  0  0  0  0  0  0
    6.8516  -14.1792   23.9294 N   0  0  0  0  0  0  0  0  0  0  0  0
    7.5666  -15.3941   25.9052 C   0  0  0  0  0  0  0  0  0  0  0  0
    6.5900  -15.9238   26.4936 O   0  0  0  0  0  0  0  0  0  0  0  0
    8.7261  -18.5295   24.3136 C   0  0  0  0  0  0  0  0  0  0  0  0
    9.6271  -18.3283   25.5135 C   0  0  1  0  0  0  0  0  0  0  0  0
   10.8028  -17.7467   25.0409 O   0  0  0  0  0  0  0  0  0  0  0  0
    8.9625  -17.3663   26.4732 C   0  0  2  0  0  0  0  0  0  0  0  0
    8.8410  -16.0503   25.8595 N   0  0  0  0  0  0  0  0  0  0  0  0
    9.7787  -17.3113   27.7060 C   0  0  0  0  0  0  0  0  0  0  0  0
   10.3838  -16.2469   27.9810 O   0  0  0  0  0  0  0  0  0  0  0  0
    9.9045  -18.3829   28.5702 O   0  0  0  0  0  0  0  0  0  0  0  0
  2  1  1  0
  3  2  2  0
  4  2  1  0
  5  4  1  0
  6  5  1  0
  6  7  1  6
  8 14  1  0
  8  6  1  0
  9  8  2  0
 11 10  1  1
 11 13  1  0
 12 11  1  0
 13 14  1  6
 15 21  1  0
 15 13  1  0
 16 15  2  0
 18 20  1  0
 18 17  1  6
 19 18  1  0
 20 22  1  0
 20 21  1  6
 22 24  1  0
 23 22  2  0
M  END
$$$$
