QVT.pdb
     RDKit          3D

 24 23  0  0  1  0  0  0  0  0999 V2000
   16.6110  -14.8138   17.5278 N   0  0  0  0  0  0  0  0  0  0  0  0
   15.5469  -14.4485   16.6333 C   0  0  0  0  0  0  0  0  0  0  0  0
   15.8911  -14.1211   15.4742 O   0  0  0  0  0  0  0  0  0  0  0  0
   14.1506  -14.4770   17.1073 C   0  0  0  0  0  0  0  0  0  0  0  0
   13.9644  -14.9911   18.4920 C   0  0  0  0  0  0  0  0  0  0  0  0
   12.7487  -15.8344   18.6889 C   0  0  2  0  0  0  0  0  0  0  0  0
   12.0837  -16.1465   17.4288 N   0  0  0  0  0  0  0  0  0  0  0  0
   11.7806  -15.1979   19.6241 C   0  0  0  0  0  0  0  0  0  0  0  0
   12.1607  -14.7899   20.7521 O   0  0  0  0  0  0  0  0  0  0  0  0
    7.4041  -13.3394   20.8134 C   0  0  0  0  0  0  0  0  0  0  0  0
    8.2664  -13.8359   19.6548 C   0  0  1  0  0  0  0  0  0  0  0  0
    8.6595  -12.6053   18.8631 C   0  0  0  0  0  0  0  0  0  0  0  0
    9.4723  -14.5059   20.2841 C   0  0  2  0  0  0  0  0  0  0  0  0
   10.4016  -15.0115   19.3191 N   0  0  0  0  0  0  0  0  0  0  0  0
    9.0399  -15.5732   21.2482 C   0  0  0  0  0  0  0  0  0  0  0  0
    8.3611  -16.5611   20.8689 O   0  0  0  0  0  0  0  0  0  0  0  0
   11.3079  -17.1631   23.9993 C   0  0  0  0  0  0  0  0  0  0  0  0
   10.0392  -16.6441   24.6419 C   0  0  1  0  0  0  0  0  0  0  0  0
   10.3482  -15.4035   25.1983 O   0  0  0  0  0  0  0  0  0  0  0  0
    8.9892  -16.4466   23.5710 C   0  0  2  0  0  0  0  0  0  0  0  0
    9.4266  -15.4312   22.6219 N   0  0  0  0  0  0  0  0  0  0  0  0
    7.7261  -16.0545   24.2339 C   0  0  0  0  0  0  0  0  0  0  0  0
    7.3076  -14.8806   24.0867 O   0  0  0  0  0  0  0  0  0  0  0  0
    6.9849  -16.9257   25.0102 O   0  0  0  0  0  0  0  0  0  0  0  0
  2  1  1  0
  3  2  2  0
  4  2  1  0
  5  4  1  0
  6  5  1  0
  6  7  1  6
  8 14  1  0
  8  6  1  0
  9  8  2  0
 11 10  1  1
 11 13  1  0
 12 11  1  0
 13 14  1  6
 15 21  1  0
 15 13  1  0
 16 15  2  0
 18 20  1  0
 18 17  1  6
 19 18  1  0
 20 22  1  0
 20 21  1  6
 22 24  1  0
 23 22  2  0
M  END
$$$$
