QVT.pdb
     RDKit          3D

 24 23  0  0  1  0  0  0  0  0999 V2000
    7.6727  -12.4958   18.4606 N   0  0  0  0  0  0  0  0  0  0  0  0
    8.1306  -13.5160   17.5575 C   0  0  0  0  0  0  0  0  0  0  0  0
    8.1841  -13.1955   16.3478 O   0  0  0  0  0  0  0  0  0  0  0  0
    8.5028  -14.8434   18.0815 C   0  0  0  0  0  0  0  0  0  0  0  0
    8.3121  -15.0195   19.5475 C   0  0  0  0  0  0  0  0  0  0  0  0
    8.6827  -16.3677   20.0698 C   0  0  2  0  0  0  0  0  0  0  0  0
    8.0703  -17.4450   19.3005 N   0  0  0  0  0  0  0  0  0  0  0  0
    8.3341  -16.5171   21.5097 C   0  0  0  0  0  0  0  0  0  0  0  0
    7.1532  -16.7829   21.8536 O   0  0  0  0  0  0  0  0  0  0  0  0
    9.2853  -18.8828   23.9060 C   0  0  0  0  0  0  0  0  0  0  0  0
    9.6169  -17.6029   24.6703 C   0  0  1  0  0  0  0  0  0  0  0  0
   11.1223  -17.4470   24.6004 C   0  0  0  0  0  0  0  0  0  0  0  0
    8.9030  -16.4806   23.9424 C   0  0  2  0  0  0  0  0  0  0  0  0
    9.2803  -16.3747   22.5651 N   0  0  0  0  0  0  0  0  0  0  0  0
    9.0875  -15.1790   24.6685 C   0  0  0  0  0  0  0  0  0  0  0  0
   10.0761  -14.4369   24.4395 O   0  0  0  0  0  0  0  0  0  0  0  0
    6.6522  -12.2294   25.1103 C   0  0  0  0  0  0  0  0  0  0  0  0
    6.9832  -12.8078   26.4696 C   0  0  1  0  0  0  0  0  0  0  0  0
    5.9651  -13.7076   26.7828 O   0  0  0  0  0  0  0  0  0  0  0  0
    8.2887  -13.5664   26.3779 C   0  0  2  0  0  0  0  0  0  0  0  0
    8.0969  -14.8057   25.6360 N   0  0  0  0  0  0  0  0  0  0  0  0
    8.7627  -13.8314   27.7541 C   0  0  0  0  0  0  0  0  0  0  0  0
    8.8387  -15.0209   28.1465 O   0  0  0  0  0  0  0  0  0  0  0  0
    9.1262  -12.8245   28.6288 O   0  0  0  0  0  0  0  0  0  0  0  0
  2  1  1  0
  3  2  2  0
  4  2  1  0
  5  4  1  0
  6  5  1  0
  6  7  1  6
  8 14  1  0
  8  6  1  0
  9  8  2  0
 11 10  1  6
 11 13  1  0
 12 11  1  0
 13 14  1  6
 15 21  1  0
 15 13  1  0
 16 15  2  0
 18 20  1  0
 18 17  1  6
 19 18  1  0
 20 22  1  0
 20 21  1  1
 22 24  1  0
 23 22  2  0
M  END
$$$$
