WDP.pdb
     RDKit          3D

 30 32  0  0  1  0  0  0  0  0999 V2000
   28.3595  -20.5622  -10.2132 N   0  0  0  0  0  0  0  0  0  0  0  0
   27.0302  -20.9852   -9.9434 C   0  0  1  0  0  0  0  0  0  0  0  0
   26.3580  -20.3891   -8.7552 C   0  0  0  0  0  0  0  0  0  0  0  0
   27.2807  -19.8086   -7.7497 C   0  0  0  0  0  0  0  0  0  0  0  0
   28.1121  -18.7288   -7.8884 C   0  0  0  0  0  0  0  0  0  0  0  0
   28.7855  -18.5551   -6.7646 N   0  0  0  0  0  0  0  0  0  0  0  0
   28.4035  -19.5036   -5.9011 C   0  0  0  0  0  0  0  0  0  0  0  0
   28.7953  -19.7674   -4.5833 C   0  0  0  0  0  0  0  0  0  0  0  0
   28.2178  -20.8264   -3.9188 C   0  0  0  0  0  0  0  0  0  0  0  0
   27.2736  -21.6290   -4.5044 C   0  0  0  0  0  0  0  0  0  0  0  0
   26.8881  -21.3740   -5.7935 C   0  0  0  0  0  0  0  0  0  0  0  0
   27.4571  -20.3189   -6.4718 C   0  0  0  0  0  0  0  0  0  0  0  0
   26.2266  -20.8525  -11.2075 C   0  0  0  0  0  0  0  0  0  0  0  0
   26.4315  -19.8298  -11.9149 O   0  0  0  0  0  0  0  0  0  0  0  0
   25.2943  -21.8146  -11.5843 N   0  0  0  0  0  0  0  0  0  0  0  0
   24.4625  -21.7493  -12.8151 C   0  0  1  0  0  0  0  0  0  0  0  0
   23.9557  -23.1447  -13.0957 C   0  0  0  0  0  0  0  0  0  0  0  0
   24.8926  -24.1380  -13.5428 C   0  0  0  0  0  0  0  0  0  0  0  0
   25.6397  -23.9518  -14.5659 O   0  0  0  0  0  0  0  0  0  0  0  0
   23.4372  -20.7295  -12.6008 C   0  0  0  0  0  0  0  0  0  0  0  0
   23.2099  -20.4010  -11.3781 O   0  0  0  0  0  0  0  0  0  0  0  0
   25.0878  -25.3863  -12.9251 O   0  0  0  0  0  0  0  0  0  0  0  0
   22.6654  -20.0538  -13.5695 N   0  0  0  0  0  0  0  0  0  0  0  0
   22.7601  -20.3630  -15.0154 C   0  0  0  0  0  0  0  0  0  0  0  0
   23.0250  -18.9637  -15.5402 C   0  0  0  0  0  0  0  0  0  0  0  0
   22.0709  -18.1167  -14.6917 C   0  0  0  0  0  0  0  0  0  0  0  0
   21.6952  -19.0007  -13.5285 C   0  0  1  0  0  0  0  0  0  0  0  0
   20.2948  -19.5482  -13.7160 C   0  0  0  0  0  0  0  0  0  0  0  0
   20.1234  -20.7615  -14.3455 O   0  0  0  0  0  0  0  0  0  0  0  0
   19.3216  -18.9012  -13.3025 O   0  0  0  0  0  0  0  0  0  0  0  0
  2  1  1  6
  2 13  1  0
  2  3  1  0
  3  4  1  0
  4 12  1  0
  4  5  2  0
  5  6  1  0
  7  8  2  0
  7  6  1  0
  9  8  1  0
 10  9  2  0
 11 10  1  0
 11 12  2  0
 12  7  1  0
 13 14  2  0
 15 13  1  0
 15 16  1  0
 16 17  1  1
 17 18  1  0
 18 22  1  0
 19 18  2  0
 20 16  1  0
 21 20  2  0
 23 20  1  0
 23 27  1  0
 24 23  1  0
 25 24  1  0
 25 26  1  0
 26 27  1  0
 27 28  1  6
 28 29  1  0
 30 28  2  0
M  END
$$$$
