WDP.pdb
     RDKit          3D

 30 32  0  0  1  0  0  0  0  0999 V2000
   26.4580  -18.8222  -11.6528 N   0  0  0  0  0  0  0  0  0  0  0  0
   26.4275  -20.2142  -11.9363 C   0  0  1  0  0  0  0  0  0  0  0  0
   25.8786  -21.1087  -10.8791 C   0  0  0  0  0  0  0  0  0  0  0  0
   26.2531  -20.7312   -9.4946 C   0  0  0  0  0  0  0  0  0  0  0  0
   25.4413  -20.2576   -8.4981 C   0  0  0  0  0  0  0  0  0  0  0  0
   26.1718  -20.0194   -7.4228 N   0  0  0  0  0  0  0  0  0  0  0  0
   27.4420  -20.3313   -7.7065 C   0  0  0  0  0  0  0  0  0  0  0  0
   28.6047  -20.2743   -6.9290 C   0  0  0  0  0  0  0  0  0  0  0  0
   29.7977  -20.6739   -7.4890 C   0  0  0  0  0  0  0  0  0  0  0  0
   29.8837  -21.1251   -8.7804 C   0  0  0  0  0  0  0  0  0  0  0  0
   28.7482  -21.1820   -9.5440 C   0  0  0  0  0  0  0  0  0  0  0  0
   27.5475  -20.7850   -8.9985 C   0  0  0  0  0  0  0  0  0  0  0  0
   25.7729  -20.4090  -13.2761 C   0  0  0  0  0  0  0  0  0  0  0  0
   24.8962  -19.5698  -13.6156 O   0  0  0  0  0  0  0  0  0  0  0  0
   26.1162  -21.4699  -14.1089 N   0  0  0  0  0  0  0  0  0  0  0  0
   25.5882  -21.6698  -15.4845 C   0  0  1  0  0  0  0  0  0  0  0  0
   26.5619  -22.5606  -16.2201 C   0  0  0  0  0  0  0  0  0  0  0  0
   27.9422  -22.1658  -16.2806 C   0  0  0  0  0  0  0  0  0  0  0  0
   28.3367  -21.1944  -17.0156 O   0  0  0  0  0  0  0  0  0  0  0  0
   24.2235  -22.1798  -15.3633 C   0  0  0  0  0  0  0  0  0  0  0  0
   23.9706  -22.8814  -14.3153 O   0  0  0  0  0  0  0  0  0  0  0  0
   28.9809  -22.7828  -15.5608 O   0  0  0  0  0  0  0  0  0  0  0  0
   23.1430  -21.9955  -16.2517 N   0  0  0  0  0  0  0  0  0  0  0  0
   23.2855  -21.2643  -17.5324 C   0  0  0  0  0  0  0  0  0  0  0  0
   22.1584  -20.2626  -17.3601 C   0  0  0  0  0  0  0  0  0  0  0  0
   21.0531  -21.1260  -16.7430 C   0  0  0  0  0  0  0  0  0  0  0  0
   21.7583  -22.3622  -16.2427 C   0  0  1  0  0  0  0  0  0  0  0  0
   21.5016  -23.5272  -17.1769 C   0  0  0  0  0  0  0  0  0  0  0  0
   22.4938  -23.9278  -18.0445 O   0  0  0  0  0  0  0  0  0  0  0  0
   20.4055  -24.1059  -17.1507 O   0  0  0  0  0  0  0  0  0  0  0  0
  2  1  1  1
  2 13  1  0
  2  3  1  0
  3  4  1  0
  4 12  1  0
  4  5  2  0
  5  6  1  0
  7  8  2  0
  7  6  1  0
  9  8  1  0
 10  9  2  0
 11 10  1  0
 11 12  2  0
 12  7  1  0
 13 14  2  0
 15 13  1  0
 15 16  1  0
 16 17  1  1
 17 18  1  0
 18 22  1  0
 19 18  2  0
 20 16  1  0
 21 20  2  0
 23 20  1  0
 23 27  1  0
 24 23  1  0
 25 24  1  0
 25 26  1  0
 26 27  1  0
 27 28  1  6
 28 29  1  0
 30 28  2  0
M  END
$$$$
