WDP.pdb
     RDKit          3D

 30 32  0  0  1  0  0  0  0  0999 V2000
   28.4371  -20.1973   -9.6914 N   0  0  0  0  0  0  0  0  0  0  0  0
   27.2196  -20.9294   -9.7164 C   0  0  1  0  0  0  0  0  0  0  0  0
   26.3829  -20.8942   -8.4844 C   0  0  0  0  0  0  0  0  0  0  0  0
   26.8679  -19.9659   -7.4344 C   0  0  0  0  0  0  0  0  0  0  0  0
   26.4404  -18.6919   -7.1686 C   0  0  0  0  0  0  0  0  0  0  0  0
   27.1481  -18.1992   -6.1671 N   0  0  0  0  0  0  0  0  0  0  0  0
   28.0256  -19.1327   -5.7802 C   0  0  0  0  0  0  0  0  0  0  0  0
   28.9949  -19.1297   -4.7702 C   0  0  0  0  0  0  0  0  0  0  0  0
   29.7665  -20.2557   -4.5877 C   0  0  0  0  0  0  0  0  0  0  0  0
   29.6167  -21.3773   -5.3612 C   0  0  0  0  0  0  0  0  0  0  0  0
   28.6696  -21.3836   -6.3504 C   0  0  0  0  0  0  0  0  0  0  0  0
   27.8905  -20.2648   -6.5459 C   0  0  0  0  0  0  0  0  0  0  0  0
   26.4630  -20.5452  -10.9579 C   0  0  0  0  0  0  0  0  0  0  0  0
   26.3543  -19.3148  -11.2078 O   0  0  0  0  0  0  0  0  0  0  0  0
   25.9037  -21.5037  -11.7978 N   0  0  0  0  0  0  0  0  0  0  0  0
   25.0468  -21.1998  -12.9744 C   0  0  1  0  0  0  0  0  0  0  0  0
   25.4307  -22.1597  -14.0762 C   0  0  0  0  0  0  0  0  0  0  0  0
   26.7045  -21.9918  -14.7195 C   0  0  0  0  0  0  0  0  0  0  0  0
   26.8906  -21.1148  -15.6337 O   0  0  0  0  0  0  0  0  0  0  0  0
   23.6543  -21.2596  -12.5331 C   0  0  0  0  0  0  0  0  0  0  0  0
   23.4403  -21.8418  -11.4062 O   0  0  0  0  0  0  0  0  0  0  0  0
   27.8530  -22.7480  -14.4251 O   0  0  0  0  0  0  0  0  0  0  0  0
   22.5112  -20.7534  -13.1870 N   0  0  0  0  0  0  0  0  0  0  0  0
   22.5889  -20.0495  -14.4884 C   0  0  0  0  0  0  0  0  0  0  0  0
   21.8450  -18.7800  -14.1161 C   0  0  0  0  0  0  0  0  0  0  0  0
   20.6921  -19.3215  -13.2644 C   0  0  0  0  0  0  0  0  0  0  0  0
   21.1110  -20.7206  -12.8865 C   0  0  1  0  0  0  0  0  0  0  0  0
   20.3557  -21.7374  -13.7181 C   0  0  0  0  0  0  0  0  0  0  0  0
   19.1268  -22.1845  -13.2849 O   0  0  0  0  0  0  0  0  0  0  0  0
   20.8496  -22.1548  -14.7758 O   0  0  0  0  0  0  0  0  0  0  0  0
  2  1  1  1
  2 13  1  0
  2  3  1  0
  3  4  1  0
  4 12  1  0
  4  5  2  0
  5  6  1  0
  7  8  2  0
  7  6  1  0
  9  8  1  0
 10  9  2  0
 11 10  1  0
 11 12  2  0
 12  7  1  0
 13 14  2  0
 15 13  1  0
 15 16  1  0
 16 17  1  6
 17 18  1  0
 18 22  1  0
 19 18  2  0
 20 16  1  0
 21 20  2  0
 23 20  1  0
 23 27  1  0
 24 23  1  0
 25 24  1  0
 25 26  1  0
 26 27  1  0
 27 28  1  6
 28 29  1  0
 30 28  2  0
M  END
$$$$
