WDP.pdb
     RDKit          3D

 30 32  0  0  1  0  0  0  0  0999 V2000
   24.5826  -19.0021   -8.8351 N   0  0  0  0  0  0  0  0  0  0  0  0
   25.7155  -19.7280   -9.2919 C   0  0  1  0  0  0  0  0  0  0  0  0
   26.0691  -20.9694   -8.5484 C   0  0  0  0  0  0  0  0  0  0  0  0
   26.2805  -20.7789   -7.0928 C   0  0  0  0  0  0  0  0  0  0  0  0
   25.4060  -21.0359   -6.0703 C   0  0  0  0  0  0  0  0  0  0  0  0
   25.9735  -20.7054   -4.9234 N   0  0  0  0  0  0  0  0  0  0  0  0
   27.2002  -20.2395   -5.1865 C   0  0  0  0  0  0  0  0  0  0  0  0
   28.2113  -19.7665   -4.3418 C   0  0  0  0  0  0  0  0  0  0  0  0
   29.4002  -19.3502   -4.8984 C   0  0  0  0  0  0  0  0  0  0  0  0
   29.6256  -19.3839   -6.2500 C   0  0  0  0  0  0  0  0  0  0  0  0
   28.6385  -19.8458   -7.0793 C   0  0  0  0  0  0  0  0  0  0  0  0
   27.4435  -20.2650   -6.5380 C   0  0  0  0  0  0  0  0  0  0  0  0
   25.5715  -19.9449  -10.7730 C   0  0  0  0  0  0  0  0  0  0  0  0
   24.4268  -19.7727  -11.2712 O   0  0  0  0  0  0  0  0  0  0  0  0
   26.6530  -20.3210  -11.5642 N   0  0  0  0  0  0  0  0  0  0  0  0
   26.6196  -20.4252  -13.0471 C   0  0  1  0  0  0  0  0  0  0  0  0
   28.0065  -20.8094  -13.5070 C   0  0  0  0  0  0  0  0  0  0  0  0
   28.2669  -20.8781  -14.9185 C   0  0  0  0  0  0  0  0  0  0  0  0
   29.4269  -21.1628  -15.3796 O   0  0  0  0  0  0  0  0  0  0  0  0
   25.5498  -21.3571  -13.3997 C   0  0  0  0  0  0  0  0  0  0  0  0
   25.4939  -22.4434  -12.7132 O   0  0  0  0  0  0  0  0  0  0  0  0
   27.3060  -20.6483  -15.9193 O   0  0  0  0  0  0  0  0  0  0  0  0
   24.5640  -21.2132  -14.3988 N   0  0  0  0  0  0  0  0  0  0  0  0
   24.4966  -20.0247  -15.2808 C   0  0  0  0  0  0  0  0  0  0  0  0
   23.0480  -19.6372  -15.0462 C   0  0  0  0  0  0  0  0  0  0  0  0
   22.3482  -21.0003  -15.0392 C   0  0  0  0  0  0  0  0  0  0  0  0
   23.4555  -22.0055  -14.8410 C   0  0  1  0  0  0  0  0  0  0  0  0
   23.7750  -22.6994  -16.1496 C   0  0  0  0  0  0  0  0  0  0  0  0
   22.9401  -23.6952  -16.6067 O   0  0  0  0  0  0  0  0  0  0  0  0
   24.7806  -22.3649  -16.7929 O   0  0  0  0  0  0  0  0  0  0  0  0
  2  1  1  1
  2 13  1  0
  2  3  1  0
  3  4  1  0
  4 12  1  0
  4  5  2  0
  5  6  1  0
  7  8  2  0
  7  6  1  0
  9  8  1  0
 10  9  2  0
 11 10  1  0
 11 12  2  0
 12  7  1  0
 13 14  2  0
 15 13  1  0
 15 16  1  0
 16 17  1  1
 17 18  1  0
 18 22  1  0
 19 18  2  0
 20 16  1  0
 21 20  2  0
 23 20  1  0
 23 27  1  0
 24 23  1  0
 25 24  1  0
 25 26  1  0
 26 27  1  0
 27 28  1  6
 28 29  1  0
 30 28  2  0
M  END
$$$$
