WDP.pdb
     RDKit          3D

 30 32  0  0  1  0  0  0  0  0999 V2000
   27.0257  -22.6957  -11.6910 N   0  0  0  0  0  0  0  0  0  0  0  0
   26.0886  -21.6948  -11.3182 C   0  0  1  0  0  0  0  0  0  0  0  0
   26.6366  -20.3648  -10.9308 C   0  0  0  0  0  0  0  0  0  0  0  0
   26.6801  -20.1163   -9.4693 C   0  0  0  0  0  0  0  0  0  0  0  0
   25.6653  -19.6920   -8.6529 C   0  0  0  0  0  0  0  0  0  0  0  0
   26.1249  -19.5718   -7.4197 N   0  0  0  0  0  0  0  0  0  0  0  0
   27.4194  -19.9115   -7.4243 C   0  0  0  0  0  0  0  0  0  0  0  0
   28.3657  -19.9653   -6.3941 C   0  0  0  0  0  0  0  0  0  0  0  0
   29.6488  -20.3670   -6.6920 C   0  0  0  0  0  0  0  0  0  0  0  0
   30.0290  -20.7153   -7.9620 C   0  0  0  0  0  0  0  0  0  0  0  0
   29.1059  -20.6636   -8.9723 C   0  0  0  0  0  0  0  0  0  0  0  0
   27.8186  -20.2631   -8.6905 C   0  0  0  0  0  0  0  0  0  0  0  0
   25.0347  -21.6128  -12.3878 C   0  0  0  0  0  0  0  0  0  0  0  0
   25.4306  -21.5636  -13.5832 O   0  0  0  0  0  0  0  0  0  0  0  0
   23.6785  -21.5906  -12.0760 N   0  0  0  0  0  0  0  0  0  0  0  0
   22.5829  -21.4864  -13.0760 C   0  0  1  0  0  0  0  0  0  0  0  0
   21.2781  -21.6981  -12.3443 C   0  0  0  0  0  0  0  0  0  0  0  0
   20.0569  -21.6847  -13.1014 C   0  0  0  0  0  0  0  0  0  0  0  0
   20.0312  -21.3559  -14.3386 O   0  0  0  0  0  0  0  0  0  0  0  0
   22.7300  -20.2023  -13.7591 C   0  0  0  0  0  0  0  0  0  0  0  0
   23.0436  -19.1981  -13.0190 O   0  0  0  0  0  0  0  0  0  0  0  0
   18.7934  -22.0216  -12.5838 O   0  0  0  0  0  0  0  0  0  0  0  0
   22.5753  -19.9245  -15.1337 N   0  0  0  0  0  0  0  0  0  0  0  0
   22.3584  -20.9915  -16.1386 C   0  0  0  0  0  0  0  0  0  0  0  0
   23.4770  -20.6403  -17.1024 C   0  0  0  0  0  0  0  0  0  0  0  0
   23.4009  -19.1104  -17.1389 C   0  0  0  0  0  0  0  0  0  0  0  0
   22.5855  -18.7321  -15.9274 C   0  0  1  0  0  0  0  0  0  0  0  0
   21.1798  -18.3458  -16.3405 C   0  0  0  0  0  0  0  0  0  0  0  0
   20.1600  -19.2616  -16.2020 O   0  0  0  0  0  0  0  0  0  0  0  0
   20.9627  -17.2137  -16.7969 O   0  0  0  0  0  0  0  0  0  0  0  0
  2  1  1  6
  2 13  1  0
  2  3  1  0
  3  4  1  0
  4 12  1  0
  4  5  2  0
  5  6  1  0
  7  8  2  0
  7  6  1  0
  9  8  1  0
 10  9  2  0
 11 10  1  0
 11 12  2  0
 12  7  1  0
 13 14  2  0
 15 13  1  0
 15 16  1  0
 16 17  1  1
 17 18  1  0
 18 22  1  0
 19 18  2  0
 20 16  1  0
 21 20  2  0
 23 20  1  0
 23 27  1  0
 24 23  1  0
 25 24  1  0
 25 26  1  0
 26 27  1  0
 27 28  1  6
 28 29  1  0
 30 28  2  0
M  END
$$$$
