WDP.pdb
     RDKit          3D

 30 32  0  0  1  0  0  0  0  0999 V2000
   28.6233  -21.2703  -10.8867 N   0  0  0  0  0  0  0  0  0  0  0  0
   27.3618  -21.0666  -10.2653 C   0  0  1  0  0  0  0  0  0  0  0  0
   27.3488  -20.2762   -9.0027 C   0  0  0  0  0  0  0  0  0  0  0  0
   28.3614  -20.6928   -8.0023 C   0  0  0  0  0  0  0  0  0  0  0  0
   29.4194  -21.5457   -8.1744 C   0  0  0  0  0  0  0  0  0  0  0  0
   30.0649  -21.6697   -7.0278 N   0  0  0  0  0  0  0  0  0  0  0  0
   29.4429  -20.9114   -6.1173 C   0  0  0  0  0  0  0  0  0  0  0  0
   29.7155  -20.6796   -4.7639 C   0  0  0  0  0  0  0  0  0  0  0  0
   28.8955  -19.8274   -4.0583 C   0  0  0  0  0  0  0  0  0  0  0  0
   27.8231  -19.1996   -4.6367 C   0  0  0  0  0  0  0  0  0  0  0  0
   27.5534  -19.4242   -5.9605 C   0  0  0  0  0  0  0  0  0  0  0  0
   28.3637  -20.2746   -6.6796 C   0  0  0  0  0  0  0  0  0  0  0  0
   26.4040  -20.5453  -11.3007 C   0  0  0  0  0  0  0  0  0  0  0  0
   26.8301  -19.6518  -12.0807 O   0  0  0  0  0  0  0  0  0  0  0  0
   25.1011  -21.0249  -11.3970 N   0  0  0  0  0  0  0  0  0  0  0  0
   24.1157  -20.5945  -12.4242 C   0  0  1  0  0  0  0  0  0  0  0  0
   24.7044  -20.9103  -13.7793 C   0  0  0  0  0  0  0  0  0  0  0  0
   24.0290  -20.4247  -14.9509 C   0  0  0  0  0  0  0  0  0  0  0  0
   24.0278  -19.1837  -15.2658 O   0  0  0  0  0  0  0  0  0  0  0  0
   22.8434  -21.2445  -12.1144 C   0  0  0  0  0  0  0  0  0  0  0  0
   22.9125  -22.4623  -11.7060 O   0  0  0  0  0  0  0  0  0  0  0  0
   23.3169  -21.2337  -15.8543 O   0  0  0  0  0  0  0  0  0  0  0  0
   21.5441  -20.7016  -12.2025 N   0  0  0  0  0  0  0  0  0  0  0  0
   21.2707  -19.4022  -12.8598 C   0  0  0  0  0  0  0  0  0  0  0  0
   20.5177  -18.7200  -11.7324 C   0  0  0  0  0  0  0  0  0  0  0  0
   19.6331  -19.8544  -11.2046 C   0  0  0  0  0  0  0  0  0  0  0  0
   20.2472  -21.1165  -11.7578 C   0  0  1  0  0  0  0  0  0  0  0  0
   19.4204  -21.6389  -12.9152 C   0  0  0  0  0  0  0  0  0  0  0  0
   18.3006  -22.3982  -12.6560 O   0  0  0  0  0  0  0  0  0  0  0  0
   19.7590  -21.3785  -14.0790 O   0  0  0  0  0  0  0  0  0  0  0  0
  2  1  1  6
  2 13  1  0
  2  3  1  0
  3  4  1  0
  4 12  1  0
  4  5  2  0
  5  6  1  0
  7  8  2  0
  7  6  1  0
  9  8  1  0
 10  9  2  0
 11 10  1  0
 11 12  2  0
 12  7  1  0
 13 14  2  0
 15 13  1  0
 15 16  1  0
 16 17  1  6
 17 18  1  0
 18 22  1  0
 19 18  2  0
 20 16  1  0
 21 20  2  0
 23 20  1  0
 23 27  1  0
 24 23  1  0
 25 24  1  0
 25 26  1  0
 26 27  1  0
 27 28  1  6
 28 29  1  0
 30 28  2  0
M  END
$$$$
