WDP.pdb
     RDKit          3D

 30 32  0  0  1  0  0  0  0  0999 V2000
   26.8167  -22.2404   -9.6743 N   0  0  0  0  0  0  0  0  0  0  0  0
   26.5079  -20.8539   -9.6397 C   0  0  1  0  0  0  0  0  0  0  0  0
   27.6424  -19.9127   -9.4250 C   0  0  0  0  0  0  0  0  0  0  0  0
   28.5459  -20.2787   -8.3072 C   0  0  0  0  0  0  0  0  0  0  0  0
   29.6397  -21.1027   -8.3388 C   0  0  0  0  0  0  0  0  0  0  0  0
   30.1539  -21.1843   -7.1241 N   0  0  0  0  0  0  0  0  0  0  0  0
   29.4118  -20.4269   -6.3075 C   0  0  0  0  0  0  0  0  0  0  0  0
   29.5225  -20.1601   -4.9378 C   0  0  0  0  0  0  0  0  0  0  0  0
   28.6045  -19.3189   -4.3493 C   0  0  0  0  0  0  0  0  0  0  0  0
   27.5879  -18.7353   -5.0597 C   0  0  0  0  0  0  0  0  0  0  0  0
   27.4765  -18.9943   -6.3999 C   0  0  0  0  0  0  0  0  0  0  0  0
   28.3864  -19.8342   -7.0028 C   0  0  0  0  0  0  0  0  0  0  0  0
   25.6851  -20.5230  -10.8542 C   0  0  0  0  0  0  0  0  0  0  0  0
   25.4438  -19.3053  -11.0714 O   0  0  0  0  0  0  0  0  0  0  0  0
   25.2070  -21.5156  -11.7046 N   0  0  0  0  0  0  0  0  0  0  0  0
   24.3825  -21.2653  -12.9165 C   0  0  1  0  0  0  0  0  0  0  0  0
   24.6608  -22.3829  -13.8943 C   0  0  0  0  0  0  0  0  0  0  0  0
   24.3781  -22.1634  -15.2859 C   0  0  0  0  0  0  0  0  0  0  0  0
   23.6600  -22.9757  -15.9670 O   0  0  0  0  0  0  0  0  0  0  0  0
   22.9928  -21.1278  -12.4838 C   0  0  0  0  0  0  0  0  0  0  0  0
   22.6880  -21.6877  -11.3666 O   0  0  0  0  0  0  0  0  0  0  0  0
   24.8437  -21.0654  -16.0312 O   0  0  0  0  0  0  0  0  0  0  0  0
   21.9404  -20.4521  -13.1368 N   0  0  0  0  0  0  0  0  0  0  0  0
   22.1052  -19.8294  -14.4711 C   0  0  0  0  0  0  0  0  0  0  0  0
   21.6117  -18.4321  -14.1431 C   0  0  0  0  0  0  0  0  0  0  0  0
   20.4056  -18.7205  -13.2432 C   0  0  0  0  0  0  0  0  0  0  0  0
   20.5780  -20.1549  -12.8089 C   0  0  1  0  0  0  0  0  0  0  0  0
   19.6291  -21.0533  -13.5761 C   0  0  0  0  0  0  0  0  0  0  0  0
   20.0621  -21.6589  -14.7352 O   0  0  0  0  0  0  0  0  0  0  0  0
   18.4774  -21.2335  -13.1542 O   0  0  0  0  0  0  0  0  0  0  0  0
  2  1  1  6
  2 13  1  0
  2  3  1  0
  3  4  1  0
  4 12  1  0
  4  5  2  0
  5  6  1  0
  7  8  2  0
  7  6  1  0
  9  8  1  0
 10  9  2  0
 11 10  1  0
 11 12  2  0
 12  7  1  0
 13 14  2  0
 15 13  1  0
 15 16  1  0
 16 17  1  6
 17 18  1  0
 18 22  1  0
 19 18  2  0
 20 16  1  0
 21 20  2  0
 23 20  1  0
 23 27  1  0
 24 23  1  0
 25 24  1  0
 25 26  1  0
 26 27  1  0
 27 28  1  6
 28 29  1  0
 30 28  2  0
M  END
$$$$
