ITE.pdb
     RDKit          3D

 25 24  0  0  1  0  0  0  0  0999 V2000
    6.4136  -11.1547   27.1595 C   0  0  0  0  0  0  0  0  0  0  0  0
    5.7613  -12.2735   26.3794 C   0  0  0  0  0  0  0  0  0  0  0  0
    6.8008  -13.1903   25.8109 C   0  0  2  0  0  0  0  0  0  0  0  0
    7.7729  -12.3659   24.9971 C   0  0  0  0  0  0  0  0  0  0  0  0
    6.1860  -14.3185   25.0056 C   0  0  2  0  0  0  0  0  0  0  0  0
    5.2668  -14.9986   25.9315 N   0  0  0  0  0  0  0  0  0  0  0  0
    7.1995  -15.2506   24.4910 C   0  0  0  0  0  0  0  0  0  0  0  0
    7.6980  -16.0689   25.3062 O   0  0  0  0  0  0  0  0  0  0  0  0
    7.2730  -16.2565   20.5319 C   0  0  0  0  0  0  0  0  0  0  0  0
    8.6322  -16.1502   21.1453 C   0  0  1  0  0  0  0  0  0  0  0  0
    9.3016  -15.0202   20.7272 O   0  0  0  0  0  0  0  0  0  0  0  0
    8.5878  -16.2871   22.6571 C   0  0  2  0  0  0  0  0  0  0  0  0
    7.6552  -15.2976   23.1547 N   0  0  0  0  0  0  0  0  0  0  0  0
    9.9405  -16.0348   23.2178 C   0  0  0  0  0  0  0  0  0  0  0  0
   10.2791  -14.8451   23.5107 O   0  0  0  0  0  0  0  0  0  0  0  0
   10.8747  -17.0548   23.4432 N   0  0  0  0  0  0  0  0  0  0  0  0
   12.2192  -16.8217   24.0325 C   0  0  1  0  0  0  0  0  0  0  0  0
   12.3539  -17.8667   25.0708 C   0  0  0  0  0  0  0  0  0  0  0  0
   11.6034  -17.7779   26.3295 C   0  0  0  0  0  0  0  0  0  0  0  0
   11.7523  -18.8231   27.3291 C   0  0  0  0  0  0  0  0  0  0  0  0
   12.4627  -19.8333   27.0940 O   0  0  0  0  0  0  0  0  0  0  0  0
   13.1366  -16.8630   22.8986 C   0  0  0  0  0  0  0  0  0  0  0  0
   12.7897  -17.3593   21.7991 O   0  0  0  0  0  0  0  0  0  0  0  0
   11.1384  -18.7742   28.5735 O   0  0  0  0  0  0  0  0  0  0  0  0
   14.4203  -16.3635   22.9621 O   0  0  0  0  0  0  0  0  0  0  0  0
  2  1  1  0
  2  3  1  0
  3  5  1  0
  3  4  1  6
  5  7  1  0
  5  6  1  1
  7 13  1  0
  7  8  2  0
 10  9  1  1
 10 12  1  0
 10 11  1  0
 12 14  1  0
 12 13  1  1
 14 16  1  0
 15 14  2  0
 16 17  1  0
 17 22  1  0
 17 18  1  1
 18 19  1  0
 19 20  1  0
 20 21  2  0
 20 24  1  0
 22 25  1  0
 23 22  2  0
M  END
$$$$
