ITE.pdb
     RDKit          3D

 25 24  0  0  1  0  0  0  0  0999 V2000
    8.1575  -12.3002   27.7781 C   0  0  0  0  0  0  0  0  0  0  0  0
    7.5542  -13.5428   27.1635 C   0  0  0  0  0  0  0  0  0  0  0  0
    6.7547  -13.1894   25.9468 C   0  0  2  0  0  0  0  0  0  0  0  0
    5.6931  -12.1889   26.3452 C   0  0  0  0  0  0  0  0  0  0  0  0
    6.1685  -14.4158   25.2747 C   0  0  2  0  0  0  0  0  0  0  0  0
    5.4681  -15.1452   26.3434 N   0  0  0  0  0  0  0  0  0  0  0  0
    7.2018  -15.2567   24.6535 C   0  0  0  0  0  0  0  0  0  0  0  0
    7.6938  -16.1785   25.3541 O   0  0  0  0  0  0  0  0  0  0  0  0
    7.2292  -15.7772   20.6627 C   0  0  0  0  0  0  0  0  0  0  0  0
    8.6145  -15.7415   21.2236 C   0  0  1  0  0  0  0  0  0  0  0  0
    9.2824  -14.5859   20.8796 O   0  0  0  0  0  0  0  0  0  0  0  0
    8.6318  -16.0133   22.7176 C   0  0  2  0  0  0  0  0  0  0  0  0
    7.6832  -15.1092   23.3337 N   0  0  0  0  0  0  0  0  0  0  0  0
    9.9945  -15.7583   23.2522 C   0  0  0  0  0  0  0  0  0  0  0  0
   10.2564  -14.6278   23.7710 O   0  0  0  0  0  0  0  0  0  0  0  0
   11.0197  -16.7131   23.2132 N   0  0  0  0  0  0  0  0  0  0  0  0
   12.3990  -16.4578   23.7047 C   0  0  1  0  0  0  0  0  0  0  0  0
   12.6076  -17.4701   24.7630 C   0  0  0  0  0  0  0  0  0  0  0  0
   13.0030  -18.8427   24.4238 C   0  0  0  0  0  0  0  0  0  0  0  0
   13.2286  -19.8081   25.4873 C   0  0  0  0  0  0  0  0  0  0  0  0
   13.2085  -21.0413   25.2435 O   0  0  0  0  0  0  0  0  0  0  0  0
   13.2394  -16.5309   22.5142 C   0  0  0  0  0  0  0  0  0  0  0  0
   12.7990  -16.9961   21.4347 O   0  0  0  0  0  0  0  0  0  0  0  0
   13.4756  -19.4414   26.8035 O   0  0  0  0  0  0  0  0  0  0  0  0
   14.5481  -16.0968   22.5000 O   0  0  0  0  0  0  0  0  0  0  0  0
  2  1  1  0
  2  3  1  0
  3  5  1  0
  3  4  1  1
  5  7  1  0
  5  6  1  1
  7 13  1  0
  7  8  2  0
 10  9  1  1
 10 12  1  0
 10 11  1  0
 12 14  1  0
 12 13  1  1
 14 16  1  0
 15 14  2  0
 16 17  1  0
 17 22  1  0
 17 18  1  1
 18 19  1  0
 19 20  1  0
 20 21  2  0
 20 24  1  0
 22 25  1  0
 23 22  2  0
M  END
$$$$
