ITE.pdb
     RDKit          3D

 25 24  0  0  1  0  0  0  0  0999 V2000
    6.9917  -11.7209   19.5697 C   0  0  0  0  0  0  0  0  0  0  0  0
    7.5606  -12.6405   18.5131 C   0  0  0  0  0  0  0  0  0  0  0  0
    8.8234  -13.2812   19.0022 C   0  0  2  0  0  0  0  0  0  0  0  0
    9.7964  -12.1895   19.3872 C   0  0  0  0  0  0  0  0  0  0  0  0
    9.4067  -14.2407   17.9831 C   0  0  2  0  0  0  0  0  0  0  0  0
    8.2738  -15.0660   17.5358 N   0  0  0  0  0  0  0  0  0  0  0  0
   10.4736  -15.0761   18.5530 C   0  0  0  0  0  0  0  0  0  0  0  0
   10.1310  -15.9798   19.3583 O   0  0  0  0  0  0  0  0  0  0  0  0
   13.2736  -16.8559   16.5972 C   0  0  0  0  0  0  0  0  0  0  0  0
   13.8807  -16.0832   17.7239 C   0  0  1  0  0  0  0  0  0  0  0  0
   14.5318  -14.9511   17.2833 O   0  0  0  0  0  0  0  0  0  0  0  0
   12.8756  -15.7975   18.8259 C   0  0  2  0  0  0  0  0  0  0  0  0
   11.8503  -14.9419   18.2663 N   0  0  0  0  0  0  0  0  0  0  0  0
   13.5561  -15.1035   19.9498 C   0  0  0  0  0  0  0  0  0  0  0  0
   13.8006  -13.8597   19.8545 O   0  0  0  0  0  0  0  0  0  0  0  0
   13.9475  -15.7586   21.1253 N   0  0  0  0  0  0  0  0  0  0  0  0
   14.4317  -15.0495   22.3385 C   0  0  1  0  0  0  0  0  0  0  0  0
   13.5583  -15.5405   23.4269 C   0  0  0  0  0  0  0  0  0  0  0  0
   13.4738  -16.9733   23.7355 C   0  0  0  0  0  0  0  0  0  0  0  0
   12.8017  -17.4076   24.9493 C   0  0  0  0  0  0  0  0  0  0  0  0
   13.0310  -16.8347   26.0446 O   0  0  0  0  0  0  0  0  0  0  0  0
   15.8550  -15.3623   22.4112 C   0  0  0  0  0  0  0  0  0  0  0  0
   16.5869  -14.8596   23.2985 O   0  0  0  0  0  0  0  0  0  0  0  0
   11.8878  -18.4525   24.9768 O   0  0  0  0  0  0  0  0  0  0  0  0
   16.4742  -16.2192   21.5260 O   0  0  0  0  0  0  0  0  0  0  0  0
  2  1  1  0
  2  3  1  0
  3  5  1  0
  3  4  1  6
  5  7  1  0
  5  6  1  1
  7 13  1  0
  7  8  2  0
 10  9  1  6
 10 12  1  0
 10 11  1  0
 12 14  1  0
 12 13  1  6
 14 16  1  0
 15 14  2  0
 16 17  1  0
 17 22  1  0
 17 18  1  1
 18 19  1  0
 19 20  1  0
 20 21  2  0
 20 24  1  0
 22 25  1  0
 23 22  2  0
M  END
$$$$
