ITE.pdb
     RDKit          3D

 25 24  0  0  1  0  0  0  0  0999 V2000
    7.4312  -11.6221   19.8497 C   0  0  0  0  0  0  0  0  0  0  0  0
    7.7667  -12.6543   18.7972 C   0  0  0  0  0  0  0  0  0  0  0  0
    8.6111  -13.7441   19.3836 C   0  0  2  0  0  0  0  0  0  0  0  0
    9.8212  -13.1140   20.0357 C   0  0  0  0  0  0  0  0  0  0  0  0
    8.9901  -14.7884   18.3515 C   0  0  2  0  0  0  0  0  0  0  0  0
    7.7125  -15.3074   17.8388 N   0  0  0  0  0  0  0  0  0  0  0  0
    9.8040  -15.8688   18.9269 C   0  0  0  0  0  0  0  0  0  0  0  0
    9.2090  -16.7319   19.6224 O   0  0  0  0  0  0  0  0  0  0  0  0
   14.0650  -18.3866   19.0951 C   0  0  0  0  0  0  0  0  0  0  0  0
   13.1296  -17.3957   18.4804 C   0  0  1  0  0  0  0  0  0  0  0  0
   12.6984  -17.7954   17.2338 O   0  0  0  0  0  0  0  0  0  0  0  0
   11.9880  -17.0339   19.4143 C   0  0  2  0  0  0  0  0  0  0  0  0
   11.1994  -16.0115   18.7591 N   0  0  0  0  0  0  0  0  0  0  0  0
   12.5388  -16.5081   20.6902 C   0  0  0  0  0  0  0  0  0  0  0  0
   13.0688  -15.3529   20.7083 O   0  0  0  0  0  0  0  0  0  0  0  0
   12.5036  -17.2302   21.8908 N   0  0  0  0  0  0  0  0  0  0  0  0
   13.1032  -16.7426   23.1604 C   0  0  1  0  0  0  0  0  0  0  0  0
   12.4948  -17.5928   24.2070 C   0  0  0  0  0  0  0  0  0  0  0  0
   12.9937  -17.5598   25.5874 C   0  0  0  0  0  0  0  0  0  0  0  0
   12.4003  -18.4339   26.5861 C   0  0  0  0  0  0  0  0  0  0  0  0
   12.0560  -19.6048   26.2845 O   0  0  0  0  0  0  0  0  0  0  0  0
   14.5444  -16.8390   22.9544 C   0  0  0  0  0  0  0  0  0  0  0  0
   15.3296  -15.9906   23.4437 O   0  0  0  0  0  0  0  0  0  0  0  0
   12.1828  -18.0442   27.9009 O   0  0  0  0  0  0  0  0  0  0  0  0
   15.1250  -17.8544   22.2241 O   0  0  0  0  0  0  0  0  0  0  0  0
  2  1  1  0
  2  3  1  0
  3  5  1  0
  3  4  1  6
  5  7  1  0
  5  6  1  1
  7 13  1  0
  7  8  2  0
 10  9  1  1
 10 12  1  0
 10 11  1  0
 12 14  1  0
 12 13  1  6
 14 16  1  0
 15 14  2  0
 16 17  1  0
 17 22  1  0
 17 18  1  1
 18 19  1  0
 19 20  1  0
 20 21  2  0
 20 24  1  0
 22 25  1  0
 23 22  2  0
M  END
$$$$
