ITE.pdb
     RDKit          3D

 25 24  0  0  1  0  0  0  0  0999 V2000
    6.7148  -11.3341   27.0348 C   0  0  0  0  0  0  0  0  0  0  0  0
    6.0473  -12.5338   26.4017 C   0  0  0  0  0  0  0  0  0  0  0  0
    7.0713  -13.4402   25.7901 C   0  0  2  0  0  0  0  0  0  0  0  0
    7.9038  -12.6351   24.8177 C   0  0  0  0  0  0  0  0  0  0  0  0
    6.4398  -14.6559   25.1399 C   0  0  2  0  0  0  0  0  0  0  0  0
    5.6618  -15.3050   26.2066 N   0  0  0  0  0  0  0  0  0  0  0  0
    7.4446  -15.5757   24.5873 C   0  0  0  0  0  0  0  0  0  0  0  0
    7.9372  -16.4296   25.3689 O   0  0  0  0  0  0  0  0  0  0  0  0
    7.3091  -16.8135   20.7470 C   0  0  0  0  0  0  0  0  0  0  0  0
    8.7010  -16.5110   21.2009 C   0  0  1  0  0  0  0  0  0  0  0  0
    9.1834  -15.3442   20.6480 O   0  0  0  0  0  0  0  0  0  0  0  0
    8.8276  -16.5463   22.7138 C   0  0  2  0  0  0  0  0  0  0  0  0
    7.8981  -15.5739   23.2494 N   0  0  0  0  0  0  0  0  0  0  0  0
   10.2159  -16.1876   23.1036 C   0  0  0  0  0  0  0  0  0  0  0  0
   10.5185  -14.9637   23.2661 O   0  0  0  0  0  0  0  0  0  0  0  0
   11.2223  -17.1421   23.3040 N   0  0  0  0  0  0  0  0  0  0  0  0
   12.5930  -16.8051   23.7694 C   0  0  1  0  0  0  0  0  0  0  0  0
   13.0296  -17.9979   24.5277 C   0  0  0  0  0  0  0  0  0  0  0  0
   12.4903  -18.2789   25.8640 C   0  0  0  0  0  0  0  0  0  0  0  0
   12.9206  -19.4716   26.5753 C   0  0  0  0  0  0  0  0  0  0  0  0
   13.7553  -20.2563   26.0574 O   0  0  0  0  0  0  0  0  0  0  0  0
   13.3260  -16.4614   22.5555 C   0  0  0  0  0  0  0  0  0  0  0  0
   12.8844  -16.7664   21.4207 O   0  0  0  0  0  0  0  0  0  0  0  0
   12.4524  -19.8113   27.8375 O   0  0  0  0  0  0  0  0  0  0  0  0
   14.5285  -15.7871   22.5787 O   0  0  0  0  0  0  0  0  0  0  0  0
  2  1  1  0
  2  3  1  0
  3  5  1  0
  3  4  1  6
  5  7  1  0
  5  6  1  1
  7 13  1  0
  7  8  2  0
 10  9  1  1
 10 12  1  0
 10 11  1  0
 12 14  1  0
 12 13  1  1
 14 16  1  0
 15 14  2  0
 16 17  1  0
 17 22  1  0
 17 18  1  6
 18 19  1  0
 19 20  1  0
 20 21  2  0
 20 24  1  0
 22 25  1  0
 23 22  2  0
M  END
$$$$
