ITE.pdb
     RDKit          3D

 25 24  0  0  1  0  0  0  0  0999 V2000
    7.6594  -12.8534   21.7342 C   0  0  0  0  0  0  0  0  0  0  0  0
    8.0144  -13.7716   20.5868 C   0  0  0  0  0  0  0  0  0  0  0  0
    8.7239  -13.0112   19.5084 C   0  0  2  0  0  0  0  0  0  0  0  0
    7.7872  -11.9510   18.9743 C   0  0  0  0  0  0  0  0  0  0  0  0
    9.2444  -13.9247   18.4157 C   0  0  2  0  0  0  0  0  0  0  0  0
    8.0490  -14.5632   17.8430 N   0  0  0  0  0  0  0  0  0  0  0  0
   10.1822  -14.9316   18.9327 C   0  0  0  0  0  0  0  0  0  0  0  0
    9.7073  -16.0512   19.2547 O   0  0  0  0  0  0  0  0  0  0  0  0
   12.8033  -16.4883   17.1121 C   0  0  0  0  0  0  0  0  0  0  0  0
   13.4728  -15.9844   18.3502 C   0  0  1  0  0  0  0  0  0  0  0  0
   14.2420  -14.8674   18.1045 O   0  0  0  0  0  0  0  0  0  0  0  0
   12.4891  -15.7873   19.4903 C   0  0  2  0  0  0  0  0  0  0  0  0
   11.5722  -14.7387   19.0952 N   0  0  0  0  0  0  0  0  0  0  0  0
   13.2251  -15.3809   20.7155 C   0  0  0  0  0  0  0  0  0  0  0  0
   13.5421  -14.1601   20.8731 O   0  0  0  0  0  0  0  0  0  0  0  0
   13.5927  -16.2868   21.7196 N   0  0  0  0  0  0  0  0  0  0  0  0
   14.2835  -15.8872   22.9736 C   0  0  1  0  0  0  0  0  0  0  0  0
   14.0516  -17.0172   23.8996 C   0  0  0  0  0  0  0  0  0  0  0  0
   12.7111  -17.2908   24.4321 C   0  0  0  0  0  0  0  0  0  0  0  0
   12.5276  -18.3605   25.3994 C   0  0  0  0  0  0  0  0  0  0  0  0
   11.9843  -19.4418   25.0586 O   0  0  0  0  0  0  0  0  0  0  0  0
   15.6571  -15.6053   22.5702 C   0  0  0  0  0  0  0  0  0  0  0  0
   16.1050  -16.0012   21.4664 O   0  0  0  0  0  0  0  0  0  0  0  0
   12.9305  -18.2611   26.7244 O   0  0  0  0  0  0  0  0  0  0  0  0
   16.5337  -14.8943   23.3622 O   0  0  0  0  0  0  0  0  0  0  0  0
  2  1  1  0
  2  3  1  0
  3  5  1  0
  3  4  1  6
  5  7  1  0
  5  6  1  1
  7 13  1  0
  7  8  2  0
 10  9  1  6
 10 12  1  0
 10 11  1  0
 12 14  1  0
 12 13  1  6
 14 16  1  0
 15 14  2  0
 16 17  1  0
 17 22  1  0
 17 18  1  1
 18 19  1  0
 19 20  1  0
 20 21  2  0
 20 24  1  0
 22 25  1  0
 23 22  2  0
M  END
$$$$
