ITE.pdb
     RDKit          3D

 25 24  0  0  1  0  0  0  0  0999 V2000
    8.0279  -11.9333   27.7801 C   0  0  0  0  0  0  0  0  0  0  0  0
    7.4110  -13.1871   27.2028 C   0  0  0  0  0  0  0  0  0  0  0  0
    6.6987  -12.8777   25.9218 C   0  0  2  0  0  0  0  0  0  0  0  0
    5.6628  -11.8106   26.1954 C   0  0  0  0  0  0  0  0  0  0  0  0
    6.0963  -14.1182   25.2913 C   0  0  2  0  0  0  0  0  0  0  0  0
    5.3660  -14.7891   26.3781 N   0  0  0  0  0  0  0  0  0  0  0  0
    7.1203  -15.0046   24.7198 C   0  0  0  0  0  0  0  0  0  0  0  0
    7.5949  -15.8966   25.4694 O   0  0  0  0  0  0  0  0  0  0  0  0
    7.1191  -15.5939   20.7252 C   0  0  0  0  0  0  0  0  0  0  0  0
    8.4948  -15.6779   21.3042 C   0  0  1  0  0  0  0  0  0  0  0  0
    9.2693  -14.5916   20.9577 O   0  0  0  0  0  0  0  0  0  0  0  0
    8.4689  -15.9338   22.8008 C   0  0  2  0  0  0  0  0  0  0  0  0
    7.6108  -14.9315   23.3971 N   0  0  0  0  0  0  0  0  0  0  0  0
    9.8449  -15.8126   23.3484 C   0  0  0  0  0  0  0  0  0  0  0  0
   10.2286  -14.6972   23.8221 O   0  0  0  0  0  0  0  0  0  0  0  0
   10.7536  -16.8794   23.3696 N   0  0  0  0  0  0  0  0  0  0  0  0
   12.1162  -16.7861   23.9561 C   0  0  1  0  0  0  0  0  0  0  0  0
   12.2967  -18.0652   24.6770 C   0  0  0  0  0  0  0  0  0  0  0  0
   13.5916  -18.4168   25.2729 C   0  0  0  0  0  0  0  0  0  0  0  0
   13.7525  -19.7020   25.9332 C   0  0  0  0  0  0  0  0  0  0  0  0
   13.2436  -19.9054   27.0647 O   0  0  0  0  0  0  0  0  0  0  0  0
   12.9929  -16.5111   22.8227 C   0  0  0  0  0  0  0  0  0  0  0  0
   14.1415  -16.0330   22.9898 O   0  0  0  0  0  0  0  0  0  0  0  0
   14.4570  -20.7589   25.3725 O   0  0  0  0  0  0  0  0  0  0  0  0
   12.6217  -16.7592   21.5181 O   0  0  0  0  0  0  0  0  0  0  0  0
  2  1  1  0
  2  3  1  0
  3  5  1  0
  3  4  1  1
  5  7  1  0
  5  6  1  1
  7 13  1  0
  7  8  2  0
 10  9  1  1
 10 12  1  0
 10 11  1  0
 12 14  1  0
 12 13  1  1
 14 16  1  0
 15 14  2  0
 16 17  1  0
 17 22  1  0
 17 18  1  6
 18 19  1  0
 19 20  1  0
 20 21  2  0
 20 24  1  0
 22 25  1  0
 23 22  2  0
M  END
$$$$
