ITE.pdb
     RDKit          3D

 25 24  0  0  1  0  0  0  0  0999 V2000
    8.6286  -11.8093   27.1302 C   0  0  0  0  0  0  0  0  0  0  0  0
    7.7968  -13.0201   26.7729 C   0  0  0  0  0  0  0  0  0  0  0  0
    6.8836  -12.7078   25.6270 C   0  0  2  0  0  0  0  0  0  0  0  0
    5.9810  -11.5640   26.0318 C   0  0  0  0  0  0  0  0  0  0  0  0
    6.1028  -13.9258   25.1730 C   0  0  2  0  0  0  0  0  0  0  0  0
    5.4367  -14.4319   26.3833 N   0  0  0  0  0  0  0  0  0  0  0  0
    6.9709  -14.9539   24.5813 C   0  0  0  0  0  0  0  0  0  0  0  0
    7.3863  -15.8661   25.3417 O   0  0  0  0  0  0  0  0  0  0  0  0
    6.9671  -15.5705   20.5950 C   0  0  0  0  0  0  0  0  0  0  0  0
    8.3245  -15.7891   21.1820 C   0  0  1  0  0  0  0  0  0  0  0  0
    9.2148  -14.8059   20.8072 O   0  0  0  0  0  0  0  0  0  0  0  0
    8.2688  -15.9961   22.6854 C   0  0  2  0  0  0  0  0  0  0  0  0
    7.3736  -14.9957   23.2278 N   0  0  0  0  0  0  0  0  0  0  0  0
    9.6282  -15.8237   23.2603 C   0  0  0  0  0  0  0  0  0  0  0  0
   10.0174  -14.6612   23.5961 O   0  0  0  0  0  0  0  0  0  0  0  0
   10.5151  -16.8915   23.4536 N   0  0  0  0  0  0  0  0  0  0  0  0
   11.8331  -16.7528   24.1266 C   0  0  1  0  0  0  0  0  0  0  0  0
   11.8110  -17.7740   25.1967 C   0  0  0  0  0  0  0  0  0  0  0  0
   11.9706  -19.1988   24.8805 C   0  0  0  0  0  0  0  0  0  0  0  0
   12.0527  -20.1688   25.9603 C   0  0  0  0  0  0  0  0  0  0  0  0
   12.1396  -19.7868   27.1550 O   0  0  0  0  0  0  0  0  0  0  0  0
   12.8158  -16.9036   23.0586 C   0  0  0  0  0  0  0  0  0  0  0  0
   12.4761  -17.2817   21.9109 O   0  0  0  0  0  0  0  0  0  0  0  0
   12.0394  -21.5410   25.7488 O   0  0  0  0  0  0  0  0  0  0  0  0
   14.1571  -16.6404   23.2397 O   0  0  0  0  0  0  0  0  0  0  0  0
  2  1  1  0
  2  3  1  0
  3  5  1  0
  3  4  1  1
  5  7  1  0
  5  6  1  1
  7 13  1  0
  7  8  2  0
 10  9  1  1
 10 12  1  0
 10 11  1  0
 12 14  1  0
 12 13  1  1
 14 16  1  0
 15 14  2  0
 16 17  1  0
 17 22  1  0
 17 18  1  1
 18 19  1  0
 19 20  1  0
 20 21  2  0
 20 24  1  0
 22 25  1  0
 23 22  2  0
M  END
$$$$
