ITE.pdb
     RDKit          3D

 25 24  0  0  1  0  0  0  0  0999 V2000
    8.0388  -11.5327   19.1236 C   0  0  0  0  0  0  0  0  0  0  0  0
    7.5279  -12.9493   19.2573 C   0  0  0  0  0  0  0  0  0  0  0  0
    8.3237  -13.6979   20.2823 C   0  0  2  0  0  0  0  0  0  0  0  0
    9.7910  -13.5612   19.9429 C   0  0  0  0  0  0  0  0  0  0  0  0
    7.8899  -15.1467   20.3932 C   0  0  2  0  0  0  0  0  0  0  0  0
    6.4231  -15.1043   20.5007 N   0  0  0  0  0  0  0  0  0  0  0  0
    8.4837  -15.8172   21.5588 C   0  0  0  0  0  0  0  0  0  0  0  0
    8.2242  -15.3399   22.6935 O   0  0  0  0  0  0  0  0  0  0  0  0
    7.9384  -19.0235   23.0806 C   0  0  0  0  0  0  0  0  0  0  0  0
    9.3978  -18.9868   22.7585 C   0  0  1  0  0  0  0  0  0  0  0  0
    9.7022  -19.7462   21.6493 O   0  0  0  0  0  0  0  0  0  0  0  0
    9.9258  -17.5658   22.6667 C   0  0  2  0  0  0  0  0  0  0  0  0
    9.3214  -16.9533   21.5022 N   0  0  0  0  0  0  0  0  0  0  0  0
   11.4035  -17.5949   22.5137 C   0  0  0  0  0  0  0  0  0  0  0  0
   11.9114  -17.4361   21.3593 O   0  0  0  0  0  0  0  0  0  0  0  0
   12.2777  -17.7911   23.5913 N   0  0  0  0  0  0  0  0  0  0  0  0
   13.7567  -17.6970   23.4768 C   0  0  1  0  0  0  0  0  0  0  0  0
   14.0023  -16.3261   22.9779 C   0  0  0  0  0  0  0  0  0  0  0  0
   15.3609  -15.7709   22.9414 C   0  0  0  0  0  0  0  0  0  0  0  0
   15.7673  -14.9419   21.8183 C   0  0  0  0  0  0  0  0  0  0  0  0
   16.4812  -13.9237   22.0031 O   0  0  0  0  0  0  0  0  0  0  0  0
   14.2569  -18.0409   24.8036 C   0  0  0  0  0  0  0  0  0  0  0  0
   13.5907  -17.7854   25.8363 O   0  0  0  0  0  0  0  0  0  0  0  0
   15.4053  -15.2139   20.5058 O   0  0  0  0  0  0  0  0  0  0  0  0
   15.4719  -18.6619   25.0023 O   0  0  0  0  0  0  0  0  0  0  0  0
  2  1  1  0
  2  3  1  0
  3  5  1  0
  3  4  1  6
  5  7  1  0
  5  6  1  1
  7 13  1  0
  7  8  2  0
 10  9  1  6
 10 12  1  0
 10 11  1  0
 12 14  1  0
 12 13  1  6
 14 16  1  0
 15 14  2  0
 16 17  1  0
 17 22  1  0
 17 18  1  1
 18 19  1  0
 19 20  1  0
 20 21  2  0
 20 24  1  0
 22 25  1  0
 23 22  2  0
M  END
$$$$
