ITE.pdb
     RDKit          3D

 25 24  0  0  1  0  0  0  0  0999 V2000
    8.5276  -12.3633   27.3223 C   0  0  0  0  0  0  0  0  0  0  0  0
    7.8136  -13.6047   26.8374 C   0  0  0  0  0  0  0  0  0  0  0  0
    6.8294  -13.2562   25.7631 C   0  0  2  0  0  0  0  0  0  0  0  0
    5.8279  -12.2758   26.3308 C   0  0  0  0  0  0  0  0  0  0  0  0
    6.1641  -14.4875   25.1793 C   0  0  2  0  0  0  0  0  0  0  0  0
    5.5869  -15.1983   26.3309 N   0  0  0  0  0  0  0  0  0  0  0  0
    7.1155  -15.3431   24.4557 C   0  0  0  0  0  0  0  0  0  0  0  0
    7.5674  -16.3471   25.0645 O   0  0  0  0  0  0  0  0  0  0  0  0
    7.0488  -15.5494   20.4551 C   0  0  0  0  0  0  0  0  0  0  0  0
    8.4497  -15.6286   20.9709 C   0  0  1  0  0  0  0  0  0  0  0  0
    9.1757  -14.4956   20.6728 O   0  0  0  0  0  0  0  0  0  0  0  0
    8.4949  -15.9905   22.4451 C   0  0  2  0  0  0  0  0  0  0  0  0
    7.5599  -15.1248   23.1327 N   0  0  0  0  0  0  0  0  0  0  0  0
    9.8681  -15.7693   22.9680 C   0  0  0  0  0  0  0  0  0  0  0  0
   10.0811  -14.8005   23.7629 O   0  0  0  0  0  0  0  0  0  0  0  0
   10.9550  -16.5848   22.6251 N   0  0  0  0  0  0  0  0  0  0  0  0
   12.1473  -16.7720   23.4926 C   0  0  1  0  0  0  0  0  0  0  0  0
   11.6445  -17.5434   24.6504 C   0  0  0  0  0  0  0  0  0  0  0  0
   12.5727  -18.1154   25.6337 C   0  0  0  0  0  0  0  0  0  0  0  0
   12.0485  -18.8637   26.7646 C   0  0  0  0  0  0  0  0  0  0  0  0
   11.1518  -18.3704   27.4948 O   0  0  0  0  0  0  0  0  0  0  0  0
   13.1412  -17.4032   22.6309 C   0  0  0  0  0  0  0  0  0  0  0  0
   12.7984  -18.1003   21.6448 O   0  0  0  0  0  0  0  0  0  0  0  0
   12.4904  -20.1362   27.1014 O   0  0  0  0  0  0  0  0  0  0  0  0
   14.4978  -17.2721   22.8403 O   0  0  0  0  0  0  0  0  0  0  0  0
  2  1  1  0
  2  3  1  0
  3  5  1  0
  3  4  1  1
  5  7  1  0
  5  6  1  1
  7 13  1  0
  7  8  2  0
 10  9  1  1
 10 12  1  0
 10 11  1  0
 12 14  1  0
 12 13  1  1
 14 16  1  0
 15 14  2  0
 16 17  1  0
 17 22  1  0
 17 18  1  1
 18 19  1  0
 19 20  1  0
 20 21  2  0
 20 24  1  0
 22 25  1  0
 23 22  2  0
M  END
$$$$
