ITE.pdb
     RDKit          3D

 25 24  0  0  1  0  0  0  0  0999 V2000
    6.2191  -11.6832   27.6291 C   0  0  0  0  0  0  0  0  0  0  0  0
    5.6475  -12.8770   26.8984 C   0  0  0  0  0  0  0  0  0  0  0  0
    6.6965  -13.5178   26.0421 C   0  0  2  0  0  0  0  0  0  0  0  0
    7.3184  -12.4518   25.1683 C   0  0  0  0  0  0  0  0  0  0  0  0
    6.1429  -14.6755   25.2342 C   0  0  2  0  0  0  0  0  0  0  0  0
    5.6319  -15.6319   26.2285 N   0  0  0  0  0  0  0  0  0  0  0  0
    7.1662  -15.2984   24.3823 C   0  0  0  0  0  0  0  0  0  0  0  0
    7.9647  -16.1003   24.9318 O   0  0  0  0  0  0  0  0  0  0  0  0
    8.3673  -13.7197   20.7494 C   0  0  0  0  0  0  0  0  0  0  0  0
    8.1611  -15.2003   20.7625 C   0  0  1  0  0  0  0  0  0  0  0  0
    8.9727  -15.8439   19.8532 O   0  0  0  0  0  0  0  0  0  0  0  0
    8.2659  -15.7781   22.1630 C   0  0  2  0  0  0  0  0  0  0  0  0
    7.3210  -15.0659   22.9975 N   0  0  0  0  0  0  0  0  0  0  0  0
    9.6454  -15.5812   22.6787 C   0  0  0  0  0  0  0  0  0  0  0  0
    9.8327  -14.8105   23.6720 O   0  0  0  0  0  0  0  0  0  0  0  0
   10.7657  -16.2098   22.1185 N   0  0  0  0  0  0  0  0  0  0  0  0
   12.0085  -16.5038   22.8789 C   0  0  1  0  0  0  0  0  0  0  0  0
   11.5852  -17.4635   23.9221 C   0  0  0  0  0  0  0  0  0  0  0  0
   12.0186  -17.3000   25.3153 C   0  0  0  0  0  0  0  0  0  0  0  0
   11.4048  -18.1071   26.3572 C   0  0  0  0  0  0  0  0  0  0  0  0
   11.3668  -19.3595   26.2540 O   0  0  0  0  0  0  0  0  0  0  0  0
   12.9616  -16.9632   21.8742 C   0  0  0  0  0  0  0  0  0  0  0  0
   14.1621  -17.1820   22.1686 O   0  0  0  0  0  0  0  0  0  0  0  0
   10.8382  -17.5630   27.5020 O   0  0  0  0  0  0  0  0  0  0  0  0
   12.6076  -17.1861   20.5603 O   0  0  0  0  0  0  0  0  0  0  0  0
  2  1  1  0
  2  3  1  0
  3  5  1  0
  3  4  1  6
  5  7  1  0
  5  6  1  1
  7 13  1  0
  7  8  2  0
 10  9  1  1
 10 12  1  0
 10 11  1  0
 12 14  1  0
 12 13  1  1
 14 16  1  0
 15 14  2  0
 16 17  1  0
 17 22  1  0
 17 18  1  1
 18 19  1  0
 19 20  1  0
 20 21  2  0
 20 24  1  0
 22 25  1  0
 23 22  2  0
M  END
$$$$
