ITE.pdb
     RDKit          3D

 25 24  0  0  1  0  0  0  0  0999 V2000
    6.2977  -11.6389   27.4313 C   0  0  0  0  0  0  0  0  0  0  0  0
    5.7560  -12.8554   26.7155 C   0  0  0  0  0  0  0  0  0  0  0  0
    6.8318  -13.5047   25.8999 C   0  0  2  0  0  0  0  0  0  0  0  0
    7.4253  -12.4655   24.9755 C   0  0  0  0  0  0  0  0  0  0  0  0
    6.3225  -14.7203   25.1499 C   0  0  2  0  0  0  0  0  0  0  0  0
    5.6956  -15.5717   26.1730 N   0  0  0  0  0  0  0  0  0  0  0  0
    7.4017  -15.4384   24.4568 C   0  0  0  0  0  0  0  0  0  0  0  0
    8.2038  -16.0989   25.1661 O   0  0  0  0  0  0  0  0  0  0  0  0
    7.0153  -16.2006   20.4450 C   0  0  0  0  0  0  0  0  0  0  0  0
    8.4320  -16.0503   20.8982 C   0  0  1  0  0  0  0  0  0  0  0  0
    8.9851  -14.8587   20.4811 O   0  0  0  0  0  0  0  0  0  0  0  0
    8.5803  -16.2817   22.3918 C   0  0  2  0  0  0  0  0  0  0  0  0
    7.6064  -15.4435   23.0591 N   0  0  0  0  0  0  0  0  0  0  0  0
    9.9520  -15.9019   22.8185 C   0  0  0  0  0  0  0  0  0  0  0  0
   10.2497  -14.6709   22.9277 O   0  0  0  0  0  0  0  0  0  0  0  0
   10.9478  -16.8438   23.1105 N   0  0  0  0  0  0  0  0  0  0  0  0
   12.2889  -16.4837   23.6406 C   0  0  1  0  0  0  0  0  0  0  0  0
   12.3079  -17.0438   25.0096 C   0  0  0  0  0  0  0  0  0  0  0  0
   12.1265  -18.4829   25.2364 C   0  0  0  0  0  0  0  0  0  0  0  0
   12.3747  -19.0382   26.5569 C   0  0  0  0  0  0  0  0  0  0  0  0
   13.2240  -19.9517   26.7149 O   0  0  0  0  0  0  0  0  0  0  0  0
   13.2328  -17.0245   22.6682 C   0  0  0  0  0  0  0  0  0  0  0  0
   14.4688  -16.8434   22.7912 O   0  0  0  0  0  0  0  0  0  0  0  0
   11.7102  -18.6072   27.6972 O   0  0  0  0  0  0  0  0  0  0  0  0
   12.8324  -17.7602   21.5728 O   0  0  0  0  0  0  0  0  0  0  0  0
  2  1  1  0
  2  3  1  0
  3  5  1  0
  3  4  1  6
  5  7  1  0
  5  6  1  1
  7 13  1  0
  7  8  2  0
 10  9  1  1
 10 12  1  0
 10 11  1  0
 12 14  1  0
 12 13  1  1
 14 16  1  0
 15 14  2  0
 16 17  1  0
 17 22  1  0
 17 18  1  1
 18 19  1  0
 19 20  1  0
 20 21  2  0
 20 24  1  0
 22 25  1  0
 23 22  2  0
M  END
$$$$
