ITE.pdb
     RDKit          3D

 25 24  0  0  1  0  0  0  0  0999 V2000
    6.9754  -11.6858   19.0657 C   0  0  0  0  0  0  0  0  0  0  0  0
    7.5094  -12.9308   18.3945 C   0  0  0  0  0  0  0  0  0  0  0  0
    8.2026  -13.8070   19.3926 C   0  0  2  0  0  0  0  0  0  0  0  0
    9.3046  -13.0062   20.0491 C   0  0  0  0  0  0  0  0  0  0  0  0
    8.7159  -15.0887   18.7656 C   0  0  2  0  0  0  0  0  0  0  0  0
    7.5426  -15.7030   18.1248 N   0  0  0  0  0  0  0  0  0  0  0  0
    9.3078  -15.9956   19.7595 C   0  0  0  0  0  0  0  0  0  0  0  0
    8.5234  -16.5612   20.5642 O   0  0  0  0  0  0  0  0  0  0  0  0
   11.0608  -19.1462   19.2644 C   0  0  0  0  0  0  0  0  0  0  0  0
   11.9836  -18.2806   20.0608 C   0  0  1  0  0  0  0  0  0  0  0  0
   13.0040  -17.7658   19.2904 O   0  0  0  0  0  0  0  0  0  0  0  0
   11.2342  -17.2145   20.8405 C   0  0  2  0  0  0  0  0  0  0  0  0
   10.6864  -16.2797   19.8800 N   0  0  0  0  0  0  0  0  0  0  0  0
   12.1756  -16.5118   21.7503 C   0  0  0  0  0  0  0  0  0  0  0  0
   12.8124  -15.4983   21.3226 O   0  0  0  0  0  0  0  0  0  0  0  0
   12.4007  -16.9147   23.0737 N   0  0  0  0  0  0  0  0  0  0  0  0
   13.3244  -16.2103   24.0009 C   0  0  1  0  0  0  0  0  0  0  0  0
   12.8087  -16.5299   25.3500 C   0  0  0  0  0  0  0  0  0  0  0  0
   12.7674  -17.9165   25.8308 C   0  0  0  0  0  0  0  0  0  0  0  0
   12.2631  -18.1988   27.1648 C   0  0  0  0  0  0  0  0  0  0  0  0
   11.8977  -17.2621   27.9196 O   0  0  0  0  0  0  0  0  0  0  0  0
   14.6535  -16.6959   23.6449 C   0  0  0  0  0  0  0  0  0  0  0  0
   15.6889  -16.1359   24.0807 O   0  0  0  0  0  0  0  0  0  0  0  0
   12.1537  -19.4847   27.6770 O   0  0  0  0  0  0  0  0  0  0  0  0
   14.8517  -17.7857   22.8236 O   0  0  0  0  0  0  0  0  0  0  0  0
  2  1  1  0
  2  3  1  0
  3  5  1  0
  3  4  1  6
  5  7  1  0
  5  6  1  1
  7 13  1  0
  7  8  2  0
 10  9  1  6
 10 12  1  0
 10 11  1  0
 12 14  1  0
 12 13  1  6
 14 16  1  0
 15 14  2  0
 16 17  1  0
 17 22  1  0
 17 18  1  1
 18 19  1  0
 19 20  1  0
 20 21  2  0
 20 24  1  0
 22 25  1  0
 23 22  2  0
M  END
$$$$
