NTC.pdb
     RDKit          3D

 22 21  0  0  1  0  0  0  0  0999 V2000
   21.0729  -17.4760  -19.1405 N   0  0  0  0  0  0  0  0  0  0  0  0
   21.7649  -17.2342  -17.9275 C   0  0  0  0  0  0  0  0  0  0  0  0
   21.4844  -17.8978  -16.9166 O   0  0  0  0  0  0  0  0  0  0  0  0
   22.8142  -16.1939  -17.8769 C   0  0  0  0  0  0  0  0  0  0  0  0
   22.8184  -15.4954  -19.2182 C   0  0  2  0  0  0  0  0  0  0  0  0
   23.2768  -16.3842  -20.2403 N   0  0  0  0  0  0  0  0  0  0  0  0
   23.6358  -14.2521  -19.1437 C   0  0  0  0  0  0  0  0  0  0  0  0
   24.8908  -14.4129  -19.2616 O   0  0  0  0  0  0  0  0  0  0  0  0
   23.8131  -11.4168  -21.3799 C   0  0  0  0  0  0  0  0  0  0  0  0
   23.4967  -10.8053  -20.0373 C   0  0  1  0  0  0  0  0  0  0  0  0
   22.1500  -10.5039  -19.9444 O   0  0  0  0  0  0  0  0  0  0  0  0
   23.8858  -11.7765  -18.9272 C   0  0  2  0  0  0  0  0  0  0  0  0
   23.0834  -12.9653  -18.9553 N   0  0  0  0  0  0  0  0  0  0  0  0
   23.8373  -11.0879  -17.6116 C   0  0  0  0  0  0  0  0  0  0  0  0
   22.8104  -11.1612  -16.9210 O   0  0  0  0  0  0  0  0  0  0  0  0
   24.9370  -10.3518  -17.1316 N   0  0  0  0  0  0  0  0  0  0  0  0
   24.9927   -9.6403  -15.9005 C   0  0  1  0  0  0  0  0  0  0  0  0
   26.3825   -9.2240  -15.4944 C   0  0  0  0  0  0  0  0  0  0  0  0
   27.3350  -10.7330  -15.1176 S   0  0  0  0  0  0  0  0  0  0  0  0
   24.1730   -8.4151  -16.0161 C   0  0  0  0  0  0  0  0  0  0  0  0
   23.7692   -7.9494  -17.1097 O   0  0  0  0  0  0  0  0  0  0  0  0
   23.8245   -7.7348  -14.8630 O   0  0  0  0  0  0  0  0  0  0  0  0
  1  2  1  0
  2  4  1  0
  2  3  2  0
  5  4  1  0
  5  6  1  6
  7  5  1  0
  7  8  2  0
 10  9  1  6
 10 12  1  0
 11 10  1  0
 12 13  1  1
 12 14  1  0
 13  7  1  0
 14 16  1  0
 15 14  2  0
 16 17  1  0
 17 20  1  0
 17 18  1  6
 18 19  1  0
 20 21  2  0
 20 22  1  0
M  END
$$$$
