NTC.pdb
     RDKit          3D

 22 21  0  0  1  0  0  0  0  0999 V2000
   12.7378  -12.8249  -12.3456 N   0  0  0  0  0  0  0  0  0  0  0  0
   12.6320  -12.3695  -11.0076 C   0  0  0  0  0  0  0  0  0  0  0  0
   11.6168  -12.6373  -10.3453 O   0  0  0  0  0  0  0  0  0  0  0  0
   13.7313  -11.5798  -10.4129 C   0  0  0  0  0  0  0  0  0  0  0  0
   14.8537  -11.5398  -11.4255 C   0  0  2  0  0  0  0  0  0  0  0  0
   15.5521  -12.7875  -11.4432 N   0  0  0  0  0  0  0  0  0  0  0  0
   15.7583  -10.3911  -11.1399 C   0  0  0  0  0  0  0  0  0  0  0  0
   16.5714  -10.5593  -10.1779 O   0  0  0  0  0  0  0  0  0  0  0  0
   18.3368   -8.8718  -13.2560 C   0  0  0  0  0  0  0  0  0  0  0  0
   17.4466   -7.7228  -12.8511 C   0  0  1  0  0  0  0  0  0  0  0  0
   16.5812   -7.3915  -13.8779 O   0  0  0  0  0  0  0  0  0  0  0  0
   16.6496   -8.1054  -11.6079 C   0  0  2  0  0  0  0  0  0  0  0  0
   15.7387   -9.1819  -11.8707 N   0  0  0  0  0  0  0  0  0  0  0  0
   15.9694   -6.9066  -11.0534 C   0  0  0  0  0  0  0  0  0  0  0  0
   14.8374   -6.6043  -11.4585 O   0  0  0  0  0  0  0  0  0  0  0  0
   16.5857   -6.1045  -10.0745 N   0  0  0  0  0  0  0  0  0  0  0  0
   16.0313   -4.9355   -9.4821 C   0  0  1  0  0  0  0  0  0  0  0  0
   16.4564   -4.7101   -8.0544 C   0  0  0  0  0  0  0  0  0  0  0  0
   15.8295   -6.1002   -7.0540 S   0  0  0  0  0  0  0  0  0  0  0  0
   16.4503   -3.7543  -10.2668 C   0  0  0  0  0  0  0  0  0  0  0  0
   16.0148   -2.5946  -10.0638 O   0  0  0  0  0  0  0  0  0  0  0  0
   17.3729   -3.9227  -11.2839 O   0  0  0  0  0  0  0  0  0  0  0  0
  1  2  1  0
  2  4  1  0
  2  3  2  0
  5  4  1  0
  5  6  1  1
  7  5  1  0
  7  8  2  0
 10  9  1  6
 10 12  1  0
 11 10  1  0
 12 13  1  6
 12 14  1  0
 13  7  1  0
 14 16  1  0
 15 14  2  0
 16 17  1  0
 17 20  1  0
 17 18  1  1
 18 19  1  0
 20 21  2  0
 20 22  1  0
M  END
$$$$
