NTC.pdb
     RDKit          3D

 22 21  0  0  1  0  0  0  0  0999 V2000
   16.7596  -14.0909  -15.9376 N   0  0  0  0  0  0  0  0  0  0  0  0
   16.9570  -13.2237  -14.8340 C   0  0  0  0  0  0  0  0  0  0  0  0
   16.3794  -13.4543  -13.7597 O   0  0  0  0  0  0  0  0  0  0  0  0
   17.8486  -12.0525  -14.9722 C   0  0  0  0  0  0  0  0  0  0  0  0
   18.2618  -11.9722  -16.4247 C   0  0  2  0  0  0  0  0  0  0  0  0
   19.0694  -13.0991  -16.7749 N   0  0  0  0  0  0  0  0  0  0  0  0
   18.9532  -10.6792  -16.6879 C   0  0  0  0  0  0  0  0  0  0  0  0
   20.2093  -10.7549  -16.8648 O   0  0  0  0  0  0  0  0  0  0  0  0
   17.8006   -7.9493  -19.1996 C   0  0  0  0  0  0  0  0  0  0  0  0
   18.1207   -7.2741  -17.8888 C   0  0  1  0  0  0  0  0  0  0  0  0
   16.9591   -6.9410  -17.2159 O   0  0  0  0  0  0  0  0  0  0  0  0
   18.9677   -8.2046  -17.0264 C   0  0  2  0  0  0  0  0  0  0  0  0
   18.2862   -9.4347  -16.7436 N   0  0  0  0  0  0  0  0  0  0  0  0
   19.4016   -7.4978  -15.7937 C   0  0  0  0  0  0  0  0  0  0  0  0
   18.8390   -7.7457  -14.7171 O   0  0  0  0  0  0  0  0  0  0  0  0
   20.4415   -6.5496  -15.8231 N   0  0  0  0  0  0  0  0  0  0  0  0
   20.9590   -5.8423  -14.7020 C   0  0  1  0  0  0  0  0  0  0  0  0
   22.4051   -6.1402  -14.4025 C   0  0  0  0  0  0  0  0  0  0  0  0
   22.9085   -5.1152  -12.9804 S   0  0  0  0  0  0  0  0  0  0  0  0
   20.8430   -4.3900  -14.9549 C   0  0  0  0  0  0  0  0  0  0  0  0
   20.8325   -3.8829  -16.1031 O   0  0  0  0  0  0  0  0  0  0  0  0
   20.7395   -3.5315  -13.8750 O   0  0  0  0  0  0  0  0  0  0  0  0
  1  2  1  0
  2  4  1  0
  2  3  2  0
  5  4  1  0
  5  6  1  1
  7  5  1  0
  7  8  2  0
 10  9  1  6
 10 12  1  0
 11 10  1  0
 12 13  1  1
 12 14  1  0
 13  7  1  0
 14 16  1  0
 15 14  2  0
 16 17  1  0
 17 20  1  0
 17 18  1  6
 18 19  1  0
 20 21  2  0
 20 22  1  0
M  END
$$$$
