NTC.pdb
     RDKit          3D

 22 21  0  0  1  0  0  0  0  0999 V2000
   16.0448  -13.3181  -14.6843 N   0  0  0  0  0  0  0  0  0  0  0  0
   17.4364  -13.4802  -14.8988 C   0  0  0  0  0  0  0  0  0  0  0  0
   18.0155  -14.4816  -14.4484 O   0  0  0  0  0  0  0  0  0  0  0  0
   18.1856  -12.4553  -15.6564 C   0  0  0  0  0  0  0  0  0  0  0  0
   17.2194  -11.3359  -15.9729 C   0  0  2  0  0  0  0  0  0  0  0  0
   16.3387  -11.7234  -17.0307 N   0  0  0  0  0  0  0  0  0  0  0  0
   17.9697  -10.0890  -16.2920 C   0  0  0  0  0  0  0  0  0  0  0  0
   18.6569  -10.1205  -17.3605 O   0  0  0  0  0  0  0  0  0  0  0  0
   16.7185   -6.8916  -17.2897 C   0  0  0  0  0  0  0  0  0  0  0  0
   17.5647   -6.5845  -16.0788 C   0  0  1  0  0  0  0  0  0  0  0  0
   16.7729   -6.4475  -14.9530 O   0  0  0  0  0  0  0  0  0  0  0  0
   18.5776   -7.7046  -15.8639 C   0  0  2  0  0  0  0  0  0  0  0  0
   17.9405   -8.9317  -15.4818 N   0  0  0  0  0  0  0  0  0  0  0  0
   19.6117   -7.2724  -14.8886 C   0  0  0  0  0  0  0  0  0  0  0  0
   19.4420   -7.4923  -13.6804 O   0  0  0  0  0  0  0  0  0  0  0  0
   20.7838   -6.6163  -15.3095 N   0  0  0  0  0  0  0  0  0  0  0  0
   21.8700   -6.2295  -14.4755 C   0  0  1  0  0  0  0  0  0  0  0  0
   23.2043   -6.2104  -15.1748 C   0  0  0  0  0  0  0  0  0  0  0  0
   23.6302   -7.9263  -15.6225 S   0  0  0  0  0  0  0  0  0  0  0  0
   21.6160   -4.8686  -13.9561 C   0  0  0  0  0  0  0  0  0  0  0  0
   22.3195   -4.3187  -13.0737 O   0  0  0  0  0  0  0  0  0  0  0  0
   20.5473   -4.1505  -14.4621 O   0  0  0  0  0  0  0  0  0  0  0  0
  1  2  1  0
  2  4  1  0
  2  3  2  0
  5  4  1  0
  5  6  1  6
  7  5  1  0
  7  8  2  0
 10  9  1  6
 10 12  1  0
 11 10  1  0
 12 13  1  1
 12 14  1  0
 13  7  1  0
 14 16  1  0
 15 14  2  0
 16 17  1  0
 17 20  1  0
 17 18  1  6
 18 19  1  0
 20 21  2  0
 20 22  1  0
M  END
$$$$
