NTC.pdb
     RDKit          3D

 22 21  0  0  1  0  0  0  0  0999 V2000
   15.7100  -12.6838  -17.2701 N   0  0  0  0  0  0  0  0  0  0  0  0
   15.8474  -11.9795  -16.0478 C   0  0  0  0  0  0  0  0  0  0  0  0
   14.8707  -11.8667  -15.2899 O   0  0  0  0  0  0  0  0  0  0  0  0
   17.1521  -11.3854  -15.6866 C   0  0  0  0  0  0  0  0  0  0  0  0
   18.1228  -11.7274  -16.7946 C   0  0  2  0  0  0  0  0  0  0  0  0
   18.5730  -13.0782  -16.6620 N   0  0  0  0  0  0  0  0  0  0  0  0
   19.2515  -10.7550  -16.8027 C   0  0  0  0  0  0  0  0  0  0  0  0
   20.3801  -11.2217  -16.4516 O   0  0  0  0  0  0  0  0  0  0  0  0
   20.7929   -8.9967  -19.5671 C   0  0  0  0  0  0  0  0  0  0  0  0
   20.4185   -7.8992  -18.6018 C   0  0  1  0  0  0  0  0  0  0  0  0
   19.2605   -7.2636  -19.0119 O   0  0  0  0  0  0  0  0  0  0  0  0
   20.2181   -8.4882  -17.2089 C   0  0  2  0  0  0  0  0  0  0  0  0
   19.1099   -9.3982  -17.1707 N   0  0  0  0  0  0  0  0  0  0  0  0
   20.0920   -7.3954  -16.2102 C   0  0  0  0  0  0  0  0  0  0  0  0
   18.9656   -6.9992  -15.8769 O   0  0  0  0  0  0  0  0  0  0  0  0
   21.2289   -6.7990  -15.6328 N   0  0  0  0  0  0  0  0  0  0  0  0
   21.2241   -5.7698  -14.6502 C   0  0  1  0  0  0  0  0  0  0  0  0
   22.3991   -5.8150  -13.7082 C   0  0  0  0  0  0  0  0  0  0  0  0
   22.2685   -7.3408  -12.7177 S   0  0  0  0  0  0  0  0  0  0  0  0
   21.2440   -4.4566  -15.3296 C   0  0  0  0  0  0  0  0  0  0  0  0
   21.4226   -4.3152  -16.5641 O   0  0  0  0  0  0  0  0  0  0  0  0
   21.0565   -3.3125  -14.5748 O   0  0  0  0  0  0  0  0  0  0  0  0
  1  2  1  0
  2  4  1  0
  2  3  2  0
  5  4  1  0
  5  6  1  1
  7  5  1  0
  7  8  2  0
 10  9  1  6
 10 12  1  0
 11 10  1  0
 12 13  1  6
 12 14  1  0
 13  7  1  0
 14 16  1  0
 15 14  2  0
 16 17  1  0
 17 20  1  0
 17 18  1  1
 18 19  1  0
 20 21  2  0
 20 22  1  0
M  END
$$$$
