NTC.pdb
     RDKit          3D

 22 21  0  0  1  0  0  0  0  0999 V2000
   15.1824  -13.1334  -16.1576 N   0  0  0  0  0  0  0  0  0  0  0  0
   16.1285  -12.2000  -16.6501 C   0  0  0  0  0  0  0  0  0  0  0  0
   16.0740  -11.8364  -17.8358 O   0  0  0  0  0  0  0  0  0  0  0  0
   17.1718  -11.6681  -15.7476 C   0  0  0  0  0  0  0  0  0  0  0  0
   18.5028  -11.8570  -16.4401 C   0  0  2  0  0  0  0  0  0  0  0  0
   18.8429  -13.2448  -16.4936 N   0  0  0  0  0  0  0  0  0  0  0  0
   19.5512  -11.0451  -15.7611 C   0  0  0  0  0  0  0  0  0  0  0  0
   19.7471  -11.3168  -14.5352 O   0  0  0  0  0  0  0  0  0  0  0  0
   23.1527  -10.9128  -16.3164 C   0  0  0  0  0  0  0  0  0  0  0  0
   22.6842   -9.4863  -16.4656 C   0  0  1  0  0  0  0  0  0  0  0  0
   22.5506   -9.1546  -17.8017 O   0  0  0  0  0  0  0  0  0  0  0  0
   21.3467   -9.3090  -15.7537 C   0  0  2  0  0  0  0  0  0  0  0  0
   20.2958  -10.0335  -16.4082 N   0  0  0  0  0  0  0  0  0  0  0  0
   21.0372   -7.8630  -15.6097 C   0  0  0  0  0  0  0  0  0  0  0  0
   20.1493   -7.3555  -16.3103 O   0  0  0  0  0  0  0  0  0  0  0  0
   21.7337   -7.0550  -14.6913 N   0  0  0  0  0  0  0  0  0  0  0  0
   21.5630   -5.6533  -14.5147 C   0  0  1  0  0  0  0  0  0  0  0  0
   21.4691   -5.2231  -13.0739 C   0  0  0  0  0  0  0  0  0  0  0  0
   21.3415   -3.4041  -13.0365 S   0  0  0  0  0  0  0  0  0  0  0  0
   22.7142   -4.9492  -15.1192 C   0  0  0  0  0  0  0  0  0  0  0  0
   23.8964   -5.3664  -15.0543 O   0  0  0  0  0  0  0  0  0  0  0  0
   22.4899   -3.7641  -15.7967 O   0  0  0  0  0  0  0  0  0  0  0  0
  1  2  1  0
  2  4  1  0
  2  3  2  0
  5  4  1  0
  5  6  1  1
  7  5  1  0
  7  8  2  0
 10  9  1  6
 10 12  1  0
 11 10  1  0
 12 13  1  6
 12 14  1  0
 13  7  1  0
 14 16  1  0
 15 14  2  0
 16 17  1  0
 17 20  1  0
 17 18  1  1
 18 19  1  0
 20 21  2  0
 20 22  1  0
M  END
$$$$
