NTC.pdb
     RDKit          3D

 22 21  0  0  1  0  0  0  0  0999 V2000
   18.7118  -15.5442  -16.8301 N   0  0  0  0  0  0  0  0  0  0  0  0
   18.4284  -14.1796  -16.5730 C   0  0  0  0  0  0  0  0  0  0  0  0
   17.3842  -13.6744  -17.0153 O   0  0  0  0  0  0  0  0  0  0  0  0
   19.3786  -13.3700  -15.7810 C   0  0  0  0  0  0  0  0  0  0  0  0
   19.5062  -12.0287  -16.4677 C   0  0  2  0  0  0  0  0  0  0  0  0
   20.0999  -12.1858  -17.7591 N   0  0  0  0  0  0  0  0  0  0  0  0
   20.2718  -11.0849  -15.6061 C   0  0  0  0  0  0  0  0  0  0  0  0
   19.8657  -10.9851  -14.4061 O   0  0  0  0  0  0  0  0  0  0  0  0
   24.0492  -10.8626  -15.0360 C   0  0  0  0  0  0  0  0  0  0  0  0
   23.5787   -9.4767  -15.4029 C   0  0  1  0  0  0  0  0  0  0  0  0
   23.9209   -9.1757  -16.7088 O   0  0  0  0  0  0  0  0  0  0  0  0
   22.0654   -9.3874  -15.2324 C   0  0  2  0  0  0  0  0  0  0  0  0
   21.3799  -10.3358  -16.0619 N   0  0  0  0  0  0  0  0  0  0  0  0
   21.6106   -7.9925  -15.4670 C   0  0  0  0  0  0  0  0  0  0  0  0
   21.0055   -7.7149  -16.5128 O   0  0  0  0  0  0  0  0  0  0  0  0
   21.8535   -6.9767  -14.5233 N   0  0  0  0  0  0  0  0  0  0  0  0
   21.5373   -5.5981  -14.6799 C   0  0  1  0  0  0  0  0  0  0  0  0
   20.0614   -5.2984  -14.6391 C   0  0  0  0  0  0  0  0  0  0  0  0
   19.8530   -3.4871  -14.6845 S   0  0  0  0  0  0  0  0  0  0  0  0
   22.1812   -4.8309  -13.5922 C   0  0  0  0  0  0  0  0  0  0  0  0
   22.5817   -5.3469  -12.5203 O   0  0  0  0  0  0  0  0  0  0  0  0
   22.3584   -3.4682  -13.7520 O   0  0  0  0  0  0  0  0  0  0  0  0
  1  2  1  0
  2  4  1  0
  2  3  2  0
  5  4  1  0
  5  6  1  6
  7  5  1  0
  7  8  2  0
 10  9  1  6
 10 12  1  0
 11 10  1  0
 12 13  1  6
 12 14  1  0
 13  7  1  0
 14 16  1  0
 15 14  2  0
 16 17  1  0
 17 20  1  0
 17 18  1  1
 18 19  1  0
 20 21  2  0
 20 22  1  0
M  END
$$$$
