NTC.pdb
     RDKit          3D

 22 21  0  0  1  0  0  0  0  0999 V2000
   24.5308  -20.8530   -9.5114 N   0  0  0  0  0  0  0  0  0  0  0  0
   25.8304  -20.2890   -9.4725 C   0  0  0  0  0  0  0  0  0  0  0  0
   26.2907  -19.8784   -8.3952 O   0  0  0  0  0  0  0  0  0  0  0  0
   26.6261  -20.1945  -10.7150 C   0  0  0  0  0  0  0  0  0  0  0  0
   25.7569  -20.7012  -11.8439 C   0  0  2  0  0  0  0  0  0  0  0  0
   25.3488  -22.0482  -11.5912 N   0  0  0  0  0  0  0  0  0  0  0  0
   26.4745  -20.5634  -13.1421 C   0  0  0  0  0  0  0  0  0  0  0  0
   27.2994  -21.4911  -13.4140 O   0  0  0  0  0  0  0  0  0  0  0  0
   26.1939  -21.9939  -15.4811 C   0  0  0  0  0  0  0  0  0  0  0  0
   25.8895  -20.6728  -16.1434 C   0  0  1  0  0  0  0  0  0  0  0  0
   24.5298  -20.4196  -16.1234 O   0  0  0  0  0  0  0  0  0  0  0  0
   26.6333  -19.5539  -15.4211 C   0  0  2  0  0  0  0  0  0  0  0  0
   26.2744  -19.4858  -14.0339 N   0  0  0  0  0  0  0  0  0  0  0  0
   26.4199  -18.2647  -16.1282 C   0  0  0  0  0  0  0  0  0  0  0  0
   25.4243  -17.5772  -15.8581 O   0  0  0  0  0  0  0  0  0  0  0  0
   27.3277  -17.8066  -17.1016 N   0  0  0  0  0  0  0  0  0  0  0  0
   27.2827  -16.5447  -17.7576 C   0  0  1  0  0  0  0  0  0  0  0  0
   28.6026  -16.1068  -18.3372 C   0  0  0  0  0  0  0  0  0  0  0  0
   29.8930  -16.3958  -17.0811 S   0  0  0  0  0  0  0  0  0  0  0  0
   26.3067  -16.6140  -18.8662 C   0  0  0  0  0  0  0  0  0  0  0  0
   25.7787  -17.6819  -19.2619 O   0  0  0  0  0  0  0  0  0  0  0  0
   25.9467  -15.4445  -19.5116 O   0  0  0  0  0  0  0  0  0  0  0  0
  1  2  1  0
  2  4  1  0
  2  3  2  0
  5  4  1  0
  5  6  1  1
  7  5  1  0
  7  8  2  0
 10  9  1  1
 10 12  1  0
 11 10  1  0
 12 13  1  1
 12 14  1  0
 13  7  1  0
 14 16  1  0
 15 14  2  0
 16 17  1  0
 17 20  1  0
 17 18  1  6
 18 19  1  0
 20 21  2  0
 20 22  1  0
M  END
$$$$
