NTC.pdb
     RDKit          3D

 22 21  0  0  1  0  0  0  0  0999 V2000
   17.0005  -14.1356  -15.5396 N   0  0  0  0  0  0  0  0  0  0  0  0
   17.6781  -14.1278  -16.7844 C   0  0  0  0  0  0  0  0  0  0  0  0
   17.6691  -15.1450  -17.4959 O   0  0  0  0  0  0  0  0  0  0  0  0
   18.3898  -12.9088  -17.2242 C   0  0  0  0  0  0  0  0  0  0  0  0
   18.6943  -12.0958  -15.9859 C   0  0  2  0  0  0  0  0  0  0  0  0
   17.6369  -12.2273  -15.0323 N   0  0  0  0  0  0  0  0  0  0  0  0
   18.9456  -10.6751  -16.3572 C   0  0  0  0  0  0  0  0  0  0  0  0
   19.8596  -10.4870  -17.2197 O   0  0  0  0  0  0  0  0  0  0  0  0
   16.5651   -8.1087  -17.7300 C   0  0  0  0  0  0  0  0  0  0  0  0
   17.2100   -7.4774  -16.5208 C   0  0  1  0  0  0  0  0  0  0  0  0
   16.3480   -7.5035  -15.4394 O   0  0  0  0  0  0  0  0  0  0  0  0
   18.4938   -8.2254  -16.1753 C   0  0  2  0  0  0  0  0  0  0  0  0
   18.2330   -9.5867  -15.8057 N   0  0  0  0  0  0  0  0  0  0  0  0
   19.2455   -7.4854  -15.1290 C   0  0  0  0  0  0  0  0  0  0  0  0
   19.3076   -7.9465  -13.9799 O   0  0  0  0  0  0  0  0  0  0  0  0
   19.8905   -6.2678  -15.4166 N   0  0  0  0  0  0  0  0  0  0  0  0
   20.6506   -5.4884  -14.5002 C   0  0  1  0  0  0  0  0  0  0  0  0
   22.0637   -5.9734  -14.3067 C   0  0  0  0  0  0  0  0  0  0  0  0
   22.9280   -4.7770  -13.2352 S   0  0  0  0  0  0  0  0  0  0  0  0
   20.7176   -4.0961  -14.9939 C   0  0  0  0  0  0  0  0  0  0  0  0
   20.7624   -3.7914  -16.2108 O   0  0  0  0  0  0  0  0  0  0  0  0
   20.7324   -3.0627  -14.0743 O   0  0  0  0  0  0  0  0  0  0  0  0
  1  2  1  0
  2  4  1  0
  2  3  2  0
  5  4  1  0
  5  6  1  1
  7  5  1  0
  7  8  2  0
 10  9  1  6
 10 12  1  0
 11 10  1  0
 12 13  1  1
 12 14  1  0
 13  7  1  0
 14 16  1  0
 15 14  2  0
 16 17  1  0
 17 20  1  0
 17 18  1  6
 18 19  1  0
 20 21  2  0
 20 22  1  0
M  END
$$$$
