NTC.pdb
     RDKit          3D

 22 21  0  0  1  0  0  0  0  0999 V2000
   32.0913  -35.7477  -15.9589 N   0  0  0  0  0  0  0  0  0  0  0  0
   33.1538  -34.8096  -15.9659 C   0  0  0  0  0  0  0  0  0  0  0  0
   34.2342  -35.1081  -16.4994 O   0  0  0  0  0  0  0  0  0  0  0  0
   32.9659  -33.4845  -15.3378 C   0  0  0  0  0  0  0  0  0  0  0  0
   34.3060  -32.7840  -15.3590 C   0  0  2  0  0  0  0  0  0  0  0  0
   34.7439  -32.5891  -16.7062 N   0  0  0  0  0  0  0  0  0  0  0  0
   35.2950  -33.5497  -14.5497 C   0  0  0  0  0  0  0  0  0  0  0  0
   36.4035  -33.7905  -15.1225 O   0  0  0  0  0  0  0  0  0  0  0  0
   36.1269  -32.5745  -10.9108 C   0  0  0  0  0  0  0  0  0  0  0  0
   35.9612  -34.0734  -10.9578 C   0  0  1  0  0  0  0  0  0  0  0  0
   34.7363  -34.4450  -10.4338 O   0  0  0  0  0  0  0  0  0  0  0  0
   36.0732  -34.5564  -12.4005 C   0  0  2  0  0  0  0  0  0  0  0  0
   35.0482  -33.9930  -13.2309 N   0  0  0  0  0  0  0  0  0  0  0  0
   36.0840  -36.0416  -12.4382 C   0  0  0  0  0  0  0  0  0  0  0  0
   35.1118  -36.6479  -12.9117 O   0  0  0  0  0  0  0  0  0  0  0  0
   37.1787  -36.7767  -11.9457 N   0  0  0  0  0  0  0  0  0  0  0  0
   37.2698  -38.1952  -11.8780 C   0  0  1  0  0  0  0  0  0  0  0  0
   38.2094  -38.7989  -12.8892 C   0  0  0  0  0  0  0  0  0  0  0  0
   38.2181  -40.6058  -12.6415 S   0  0  0  0  0  0  0  0  0  0  0  0
   37.7485  -38.5823  -10.5336 C   0  0  0  0  0  0  0  0  0  0  0  0
   38.7516  -38.0706   -9.9787 O   0  0  0  0  0  0  0  0  0  0  0  0
   37.0620  -39.5613   -9.8378 O   0  0  0  0  0  0  0  0  0  0  0  0
  1  2  1  0
  2  4  1  0
  2  3  2  0
  5  4  1  0
  5  6  1  6
  7  5  1  0
  7  8  2  0
 10  9  1  6
 10 12  1  0
 11 10  1  0
 12 13  1  6
 12 14  1  0
 13  7  1  0
 14 16  1  0
 15 14  2  0
 16 17  1  0
 17 20  1  0
 17 18  1  6
 18 19  1  0
 20 21  2  0
 20 22  1  0
M  END
$$$$
