NTC.pdb
     RDKit          3D

 22 21  0  0  1  0  0  0  0  0999 V2000
   14.2926  -11.6032   -8.9636 N   0  0  0  0  0  0  0  0  0  0  0  0
   13.8737  -11.3444  -10.2926 C   0  0  0  0  0  0  0  0  0  0  0  0
   13.3991  -12.2642  -10.9779 O   0  0  0  0  0  0  0  0  0  0  0  0
   14.0058   -9.9818  -10.8508 C   0  0  0  0  0  0  0  0  0  0  0  0
   14.5046   -9.0876   -9.7379 C   0  0  2  0  0  0  0  0  0  0  0  0
   13.4192   -8.6866   -8.8979 N   0  0  0  0  0  0  0  0  0  0  0  0
   15.2364   -7.9222  -10.3087 C   0  0  0  0  0  0  0  0  0  0  0  0
   14.5482   -7.1506  -11.0474 O   0  0  0  0  0  0  0  0  0  0  0  0
   16.1964   -4.8126   -9.3096 C   0  0  0  0  0  0  0  0  0  0  0  0
   17.5242   -5.4245   -9.6825 C   0  0  1  0  0  0  0  0  0  0  0  0
   18.1760   -5.8973   -8.5579 O   0  0  0  0  0  0  0  0  0  0  0  0
   17.3031   -6.5669  -10.6691 C   0  0  2  0  0  0  0  0  0  0  0  0
   16.6040   -7.6638  -10.0645 N   0  0  0  0  0  0  0  0  0  0  0  0
   18.5996   -6.9782  -11.2668 C   0  0  0  0  0  0  0  0  0  0  0  0
   19.1128   -8.0556  -10.9310 O   0  0  0  0  0  0  0  0  0  0  0  0
   19.2593   -6.1672  -12.2094 N   0  0  0  0  0  0  0  0  0  0  0  0
   20.5338   -6.4256  -12.7873 C   0  0  1  0  0  0  0  0  0  0  0  0
   20.4716   -7.0631  -14.1509 C   0  0  0  0  0  0  0  0  0  0  0  0
   22.1802   -7.2695  -14.7546 S   0  0  0  0  0  0  0  0  0  0  0  0
   21.2681   -5.1492  -12.9217 C   0  0  0  0  0  0  0  0  0  0  0  0
   20.7342   -4.0758  -13.2940 O   0  0  0  0  0  0  0  0  0  0  0  0
   22.6188   -5.1225  -12.6236 O   0  0  0  0  0  0  0  0  0  0  0  0
  1  2  1  0
  2  4  1  0
  2  3  2  0
  5  4  1  0
  5  6  1  6
  7  5  1  0
  7  8  2  0
 10  9  1  1
 10 12  1  0
 11 10  1  0
 12 13  1  1
 12 14  1  0
 13  7  1  0
 14 16  1  0
 15 14  2  0
 16 17  1  0
 17 20  1  0
 17 18  1  6
 18 19  1  0
 20 21  2  0
 20 22  1  0
M  END
$$$$
