NTC.pdb
     RDKit          3D

 22 21  0  0  1  0  0  0  0  0999 V2000
   15.4686  -11.0968  -17.3547 N   0  0  0  0  0  0  0  0  0  0  0  0
   16.1453  -10.0047  -16.7563 C   0  0  0  0  0  0  0  0  0  0  0  0
   16.5944   -9.0937  -17.4701 O   0  0  0  0  0  0  0  0  0  0  0  0
   16.3106   -9.9603  -15.2878 C   0  0  0  0  0  0  0  0  0  0  0  0
   17.7760   -9.7125  -15.0086 C   0  0  2  0  0  0  0  0  0  0  0  0
   18.5409  -10.8883  -15.2865 N   0  0  0  0  0  0  0  0  0  0  0  0
   17.9560   -9.2408  -13.6070 C   0  0  0  0  0  0  0  0  0  0  0  0
   18.1468  -10.1519  -12.7419 O   0  0  0  0  0  0  0  0  0  0  0  0
   20.6790   -7.7028  -12.2089 C   0  0  0  0  0  0  0  0  0  0  0  0
   19.5841   -6.7312  -11.8432 C   0  0  1  0  0  0  0  0  0  0  0  0
   19.5858   -5.6486  -12.7040 O   0  0  0  0  0  0  0  0  0  0  0  0
   18.2325   -7.4359  -11.9030 C   0  0  2  0  0  0  0  0  0  0  0  0
   17.9222   -7.8790  -13.2315 N   0  0  0  0  0  0  0  0  0  0  0  0
   17.1775   -6.5573  -11.3350 C   0  0  0  0  0  0  0  0  0  0  0  0
   16.4851   -5.8643  -12.0947 O   0  0  0  0  0  0  0  0  0  0  0  0
   16.9474   -6.4955   -9.9476 N   0  0  0  0  0  0  0  0  0  0  0  0
   15.9899   -5.6690   -9.2957 C   0  0  1  0  0  0  0  0  0  0  0  0
   15.7185   -6.0551   -7.8650 C   0  0  0  0  0  0  0  0  0  0  0  0
   15.1553   -7.7897   -7.8468 S   0  0  0  0  0  0  0  0  0  0  0  0
   16.4783   -4.2734   -9.2990 C   0  0  0  0  0  0  0  0  0  0  0  0
   15.7687   -3.2878   -8.9815 O   0  0  0  0  0  0  0  0  0  0  0  0
   17.7878   -4.0262   -9.6702 O   0  0  0  0  0  0  0  0  0  0  0  0
  1  2  1  0
  2  4  1  0
  2  3  2  0
  5  4  1  0
  5  6  1  1
  7  5  1  0
  7  8  2  0
 10  9  1  6
 10 12  1  0
 11 10  1  0
 12 13  1  6
 12 14  1  0
 13  7  1  0
 14 16  1  0
 15 14  2  0
 16 17  1  0
 17 20  1  0
 17 18  1  1
 18 19  1  0
 20 21  2  0
 20 22  1  0
M  END
$$$$
