NTC.pdb
     RDKit          3D

 22 21  0  0  1  0  0  0  0  0999 V2000
   15.1562  -13.1959  -14.0665 N   0  0  0  0  0  0  0  0  0  0  0  0
   16.4153  -13.5647  -14.6027 C   0  0  0  0  0  0  0  0  0  0  0  0
   16.7360  -14.7629  -14.6510 O   0  0  0  0  0  0  0  0  0  0  0  0
   17.3353  -12.5193  -15.0993 C   0  0  0  0  0  0  0  0  0  0  0  0
   16.5273  -11.5918  -15.9790 C   0  0  2  0  0  0  0  0  0  0  0  0
   15.9596  -12.3146  -17.0744 N   0  0  0  0  0  0  0  0  0  0  0  0
   17.3736  -10.4529  -16.4329 C   0  0  0  0  0  0  0  0  0  0  0  0
   17.9222  -10.5963  -17.5702 O   0  0  0  0  0  0  0  0  0  0  0  0
   16.4420   -6.6614  -15.8994 C   0  0  0  0  0  0  0  0  0  0  0  0
   17.5448   -7.1141  -16.8242 C   0  0  1  0  0  0  0  0  0  0  0  0
   18.3511   -6.0480  -17.1797 O   0  0  0  0  0  0  0  0  0  0  0  0
   18.3824   -8.1874  -16.1361 C   0  0  2  0  0  0  0  0  0  0  0  0
   17.5735   -9.2780  -15.6737 N   0  0  0  0  0  0  0  0  0  0  0  0
   19.1924   -7.5788  -15.0494 C   0  0  0  0  0  0  0  0  0  0  0  0
   18.6659   -7.3473  -13.9512 O   0  0  0  0  0  0  0  0  0  0  0  0
   20.5496   -7.2585  -15.2419 N   0  0  0  0  0  0  0  0  0  0  0  0
   21.4449   -6.7816  -14.2440 C   0  0  1  0  0  0  0  0  0  0  0  0
   22.8489   -7.3122  -14.3748 C   0  0  0  0  0  0  0  0  0  0  0  0
   22.8129   -9.0978  -14.0052 S   0  0  0  0  0  0  0  0  0  0  0  0
   21.5132   -5.3067  -14.3251 C   0  0  0  0  0  0  0  0  0  0  0  0
   21.0390   -4.6401  -15.2772 O   0  0  0  0  0  0  0  0  0  0  0  0
   22.1311   -4.6107  -13.3015 O   0  0  0  0  0  0  0  0  0  0  0  0
  1  2  1  0
  2  4  1  0
  2  3  2  0
  5  4  1  0
  5  6  1  6
  7  5  1  0
  7  8  2  0
 10  9  1  1
 10 12  1  0
 11 10  1  0
 12 13  1  1
 12 14  1  0
 13  7  1  0
 14 16  1  0
 15 14  2  0
 16 17  1  0
 17 20  1  0
 17 18  1  6
 18 19  1  0
 20 21  2  0
 20 22  1  0
M  END
$$$$
