NTC.pdb
     RDKit          3D

 22 21  0  0  1  0  0  0  0  0999 V2000
   23.8112  -14.2438  -15.6821 N   0  0  0  0  0  0  0  0  0  0  0  0
   23.5159  -14.0405  -17.0533 C   0  0  0  0  0  0  0  0  0  0  0  0
   23.8303  -14.9066  -17.8852 O   0  0  0  0  0  0  0  0  0  0  0  0
   22.8364  -12.7989  -17.4807 C   0  0  0  0  0  0  0  0  0  0  0  0
   22.5856  -11.9744  -16.2380 C   0  0  2  0  0  0  0  0  0  0  0  0
   21.4815  -12.5074  -15.5021 N   0  0  0  0  0  0  0  0  0  0  0  0
   22.3807  -10.5455  -16.6064 C   0  0  0  0  0  0  0  0  0  0  0  0
   23.3638   -9.9806  -17.1801 O   0  0  0  0  0  0  0  0  0  0  0  0
   19.6728   -8.8795  -18.7111 C   0  0  0  0  0  0  0  0  0  0  0  0
   19.6925   -8.1843  -17.3721 C   0  0  1  0  0  0  0  0  0  0  0  0
   18.6523   -8.6294  -16.5766 O   0  0  0  0  0  0  0  0  0  0  0  0
   21.0240   -8.4497  -16.6765 C   0  0  2  0  0  0  0  0  0  0  0  0
   21.1856   -9.8369  -16.3490 N   0  0  0  0  0  0  0  0  0  0  0  0
   21.1612   -7.5650  -15.4907 C   0  0  0  0  0  0  0  0  0  0  0  0
   21.1560   -8.0609  -14.3546 O   0  0  0  0  0  0  0  0  0  0  0  0
   21.2976   -6.1711  -15.6314 N   0  0  0  0  0  0  0  0  0  0  0  0
   21.4295   -5.2333  -14.5693 C   0  0  1  0  0  0  0  0  0  0  0  0
   22.6243   -4.3247  -14.6976 C   0  0  0  0  0  0  0  0  0  0  0  0
   22.5764   -3.1329  -13.3178 S   0  0  0  0  0  0  0  0  0  0  0  0
   20.2210   -4.3822  -14.5269 C   0  0  0  0  0  0  0  0  0  0  0  0
   19.4586   -4.2080  -15.5088 O   0  0  0  0  0  0  0  0  0  0  0  0
   19.9014   -3.7366  -13.3459 O   0  0  0  0  0  0  0  0  0  0  0  0
  1  2  1  0
  2  4  1  0
  2  3  2  0
  5  4  1  0
  5  6  1  6
  7  5  1  0
  7  8  2  0
 10  9  1  6
 10 12  1  0
 11 10  1  0
 12 13  1  1
 12 14  1  0
 13  7  1  0
 14 16  1  0
 15 14  2  0
 16 17  1  0
 17 20  1  0
 17 18  1  6
 18 19  1  0
 20 21  2  0
 20 22  1  0
M  END
$$$$
