NTC.pdb
     RDKit          3D

 22 21  0  0  1  0  0  0  0  0999 V2000
   17.4961  -15.1065  -16.8674 N   0  0  0  0  0  0  0  0  0  0  0  0
   18.7674  -14.9018  -17.4595 C   0  0  0  0  0  0  0  0  0  0  0  0
   19.0172  -15.4015  -18.5681 O   0  0  0  0  0  0  0  0  0  0  0  0
   19.7845  -14.0954  -16.7517 C   0  0  0  0  0  0  0  0  0  0  0  0
   19.5302  -12.6461  -17.1005 C   0  0  2  0  0  0  0  0  0  0  0  0
   19.8259  -12.4072  -18.4790 N   0  0  0  0  0  0  0  0  0  0  0  0
   20.3111  -11.7583  -16.1941 C   0  0  0  0  0  0  0  0  0  0  0  0
   20.2299  -12.0310  -14.9556 O   0  0  0  0  0  0  0  0  0  0  0  0
   23.9260  -11.0475  -15.8666 C   0  0  0  0  0  0  0  0  0  0  0  0
   23.2760   -9.7034  -16.0841 C   0  0  1  0  0  0  0  0  0  0  0  0
   23.4404   -9.2888  -17.3934 O   0  0  0  0  0  0  0  0  0  0  0  0
   21.7893   -9.7937  -15.7544 C   0  0  2  0  0  0  0  0  0  0  0  0
   21.0989  -10.6771  -16.6492 N   0  0  0  0  0  0  0  0  0  0  0  0
   21.1932   -8.4331  -15.7252 C   0  0  0  0  0  0  0  0  0  0  0  0
   20.6530   -7.9807  -16.7452 O   0  0  0  0  0  0  0  0  0  0  0  0
   21.2295   -7.6448  -14.5596 N   0  0  0  0  0  0  0  0  0  0  0  0
   20.7139   -6.3251  -14.4273 C   0  0  1  0  0  0  0  0  0  0  0  0
   19.9746   -6.0813  -13.1375 C   0  0  0  0  0  0  0  0  0  0  0  0
   18.5304   -7.1944  -13.0970 S   0  0  0  0  0  0  0  0  0  0  0  0
   21.8347   -5.3627  -14.4909 C   0  0  0  0  0  0  0  0  0  0  0  0
   23.0429   -5.7028  -14.5085 O   0  0  0  0  0  0  0  0  0  0  0  0
   21.5500   -4.0096  -14.5340 O   0  0  0  0  0  0  0  0  0  0  0  0
  1  2  1  0
  2  4  1  0
  2  3  2  0
  5  4  1  0
  5  6  1  6
  7  5  1  0
  7  8  2  0
 10  9  1  6
 10 12  1  0
 11 10  1  0
 12 13  1  6
 12 14  1  0
 13  7  1  0
 14 16  1  0
 15 14  2  0
 16 17  1  0
 17 20  1  0
 17 18  1  1
 18 19  1  0
 20 21  2  0
 20 22  1  0
M  END
$$$$
