RCG.pdb
     RDKit          3D

 22 21  0  0  1  0  0  0  0  0999 V2000
    6.7082  -13.1258   17.6395 N   0  0  0  0  0  0  0  0  0  0  0  0
    8.0910  -13.5227   17.6046 C   0  0  0  0  0  0  0  0  0  0  0  0
    9.0192  -12.6472   17.7619 N   0  0  0  0  0  0  0  0  0  0  0  0
    8.4634  -14.8786   17.3976 N   0  0  0  0  0  0  0  0  0  0  0  0
    8.2216  -15.9066   18.4356 C   0  0  0  0  0  0  0  0  0  0  0  0
    8.6301  -15.2756   19.7175 C   0  0  0  0  0  0  0  0  0  0  0  0
    8.5382  -16.0998   20.9568 C   0  0  0  0  0  0  0  0  0  0  0  0
    7.4735  -15.6284   21.8646 C   0  0  2  0  0  0  0  0  0  0  0  0
    6.9478  -14.3615   21.3901 N   0  0  0  0  0  0  0  0  0  0  0  0
    7.9762  -15.4486   23.2767 C   0  0  0  0  0  0  0  0  0  0  0  0
    9.1676  -15.6967   23.5891 O   0  0  0  0  0  0  0  0  0  0  0  0
   10.0318  -12.8680   17.6713 N   0  0  0  0  0  0  0  0  0  0  0  0
    7.1276  -14.9901   24.3229 C   0  0  1  0  0  0  0  0  0  0  0  0
    7.5426  -14.9330   25.7040 C   0  0  0  0  0  0  0  0  0  0  0  0
    6.7564  -13.8452   26.4001 S   0  0  0  0  0  0  0  0  0  0  0  0
    6.3824  -12.4529   25.3420 C   0  0  0  0  0  0  0  0  0  0  0  0
    7.2915  -16.2025   26.4198 O   0  0  0  0  0  0  0  0  0  0  0  0
    6.1643  -16.7372   26.3201 N   0  0  0  0  0  0  0  0  0  0  0  0
    8.2719  -16.8416   27.2150 C   0  0  0  0  0  0  0  0  0  0  0  0
    8.1460  -18.2140   27.6666 C   0  0  0  0  0  0  0  0  0  0  0  0
    9.3575  -18.6180   28.4636 O   0  0  0  0  0  0  0  0  0  0  0  0
    9.2706  -19.6273   29.4112 O   0  0  0  0  0  0  0  0  0  0  0  0
  1  2  1  0
  2  3  2  0
  2  4  1  0
  5  4  1  0
  6  5  1  0
  7  8  1  0
  7  6  1  0
  8 10  1  0
  8  9  1  6
 10 11  2  0
 10 12  1  0
 12 13  1  0
 13 14  1  1
 13 16  1  0
 15 14  1  0
 16 17  2  0
 18 16  1  0
 18 19  1  0
 20 21  1  0
 20 19  1  0
 22 20  2  0
M  END
$$$$
