RCG.pdb
     RDKit          3D

 22 21  0  0  1  0  0  0  0  0999 V2000
   12.3049  -19.8327   20.1848 N   0  0  0  0  0  0  0  0  0  0  0  0
   11.3072  -19.3692   19.2572 C   0  0  0  0  0  0  0  0  0  0  0  0
   11.1111  -19.9956   18.1518 N   0  0  0  0  0  0  0  0  0  0  0  0
   10.5204  -18.2186   19.5353 N   0  0  0  0  0  0  0  0  0  0  0  0
   10.7354  -17.4226   20.7653 C   0  0  0  0  0  0  0  0  0  0  0  0
    9.7813  -16.2871   20.6714 C   0  0  0  0  0  0  0  0  0  0  0  0
    9.8381  -15.2433   21.7348 C   0  0  0  0  0  0  0  0  0  0  0  0
    8.6125  -15.2155   22.5576 C   0  0  2  0  0  0  0  0  0  0  0  0
    7.4829  -14.8057   21.7435 N   0  0  0  0  0  0  0  0  0  0  0  0
    8.7399  -14.2677   23.7257 C   0  0  0  0  0  0  0  0  0  0  0  0
    9.2454  -13.1248   23.5956 O   0  0  0  0  0  0  0  0  0  0  0  0
   10.3834  -19.7192   17.4616 N   0  0  0  0  0  0  0  0  0  0  0  0
    8.2948  -14.6204   25.0305 C   0  0  1  0  0  0  0  0  0  0  0  0
    8.3507  -13.7139   26.1522 C   0  0  0  0  0  0  0  0  0  0  0  0
    7.3954  -12.5701   25.8969 S   0  0  0  0  0  0  0  0  0  0  0  0
    5.6791  -13.0140   26.1315 C   0  0  0  0  0  0  0  0  0  0  0  0
    7.9525  -14.3626   27.4201 O   0  0  0  0  0  0  0  0  0  0  0  0
    6.8846  -14.0082   27.9683 N   0  0  0  0  0  0  0  0  0  0  0  0
    8.7275  -15.3691   28.0431 C   0  0  0  0  0  0  0  0  0  0  0  0
   10.1729  -15.4260   27.9392 C   0  0  0  0  0  0  0  0  0  0  0  0
   10.7009  -16.6572   28.6260 O   0  0  0  0  0  0  0  0  0  0  0  0
   10.6227  -17.8956   28.0060 O   0  0  0  0  0  0  0  0  0  0  0  0
  1  2  1  0
  2  3  2  0
  2  4  1  0
  5  4  1  0
  6  5  1  0
  7  8  1  0
  7  6  1  0
  8 10  1  0
  8  9  1  6
 10 11  2  0
 10 12  1  0
 12 13  1  0
 13 14  1  6
 13 16  1  0
 15 14  1  0
 16 17  2  0
 18 16  1  0
 18 19  1  0
 20 21  1  0
 20 19  1  0
 22 20  2  0
M  END
$$$$
