RCG.pdb
     RDKit          3D

 22 21  0  0  1  0  0  0  0  0999 V2000
    9.7812  -14.5517   16.9107 N   0  0  0  0  0  0  0  0  0  0  0  0
    8.4494  -14.2118   16.4845 C   0  0  0  0  0  0  0  0  0  0  0  0
    8.0156  -14.6080   15.3410 N   0  0  0  0  0  0  0  0  0  0  0  0
    7.5875  -13.4373   17.3075 N   0  0  0  0  0  0  0  0  0  0  0  0
    8.0504  -12.8956   18.6055 C   0  0  0  0  0  0  0  0  0  0  0  0
    7.6479  -13.9046   19.6195 C   0  0  0  0  0  0  0  0  0  0  0  0
    8.6561  -14.2975   20.6456 C   0  0  0  0  0  0  0  0  0  0  0  0
    8.1109  -15.2561   21.6273 C   0  0  2  0  0  0  0  0  0  0  0  0
    6.6603  -15.2286   21.5882 N   0  0  0  0  0  0  0  0  0  0  0  0
    8.5660  -14.9434   23.0323 C   0  0  0  0  0  0  0  0  0  0  0  0
    9.7835  -14.9244   23.3423 O   0  0  0  0  0  0  0  0  0  0  0  0
    7.1251  -14.2711   14.9216 N   0  0  0  0  0  0  0  0  0  0  0  0
    7.6408  -14.6550   24.0744 C   0  0  1  0  0  0  0  0  0  0  0  0
    8.0316  -14.5160   25.4567 C   0  0  0  0  0  0  0  0  0  0  0  0
    7.1617  -13.4605   26.1009 S   0  0  0  0  0  0  0  0  0  0  0  0
    5.4351  -13.5959   25.6554 C   0  0  0  0  0  0  0  0  0  0  0  0
    7.8599  -15.7717   26.2188 O   0  0  0  0  0  0  0  0  0  0  0  0
    6.7005  -16.1874   26.4411 N   0  0  0  0  0  0  0  0  0  0  0  0
    8.9515  -16.5266   26.7093 C   0  0  0  0  0  0  0  0  0  0  0  0
    8.7901  -17.6367   27.6285 C   0  0  0  0  0  0  0  0  0  0  0  0
   10.1282  -18.2389   27.9649 O   0  0  0  0  0  0  0  0  0  0  0  0
   10.5354  -18.3525   29.2861 O   0  0  0  0  0  0  0  0  0  0  0  0
  1  2  1  0
  2  3  2  0
  2  4  1  0
  5  4  1  0
  6  5  1  0
  7  8  1  0
  7  6  1  0
  8 10  1  0
  8  9  1  1
 10 11  2  0
 10 12  1  0
 12 13  1  0
 13 14  1  1
 13 16  1  0
 15 14  1  0
 16 17  2  0
 18 16  1  0
 18 19  1  0
 20 21  1  0
 20 19  1  0
 22 20  2  0
M  END
$$$$
