RCG.pdb
     RDKit          3D

 22 21  0  0  1  0  0  0  0  0999 V2000
   -0.0304  -20.0454   22.5555 N   0  0  0  0  0  0  0  0  0  0  0  0
    1.0488  -20.9304   22.2045 C   0  0  0  0  0  0  0  0  0  0  0  0
    0.9233  -22.1994   22.3670 N   0  0  0  0  0  0  0  0  0  0  0  0
    2.2691  -20.4302   21.6747 N   0  0  0  0  0  0  0  0  0  0  0  0
    3.4061  -20.0893   22.5601 C   0  0  0  0  0  0  0  0  0  0  0  0
    3.2078  -18.6622   22.9239 C   0  0  0  0  0  0  0  0  0  0  0  0
    4.3080  -17.7064   22.6084 C   0  0  0  0  0  0  0  0  0  0  0  0
    5.5610  -18.0430   23.3132 C   0  0  2  0  0  0  0  0  0  0  0  0
    5.2623  -18.4877   24.6621 N   0  0  0  0  0  0  0  0  0  0  0  0
    6.5003  -16.8635   23.3863 C   0  0  0  0  0  0  0  0  0  0  0  0
    7.0120  -16.3629   22.3537 O   0  0  0  0  0  0  0  0  0  0  0  0
    1.6683  -22.8819   22.1192 N   0  0  0  0  0  0  0  0  0  0  0  0
    6.8529  -16.2604   24.6261 C   0  0  1  0  0  0  0  0  0  0  0  0
    7.7599  -15.1424   24.7268 C   0  0  0  0  0  0  0  0  0  0  0  0
    7.3582  -14.3001   25.9163 S   0  0  0  0  0  0  0  0  0  0  0  0
    5.6563  -13.7543   25.8564 C   0  0  0  0  0  0  0  0  0  0  0  0
    9.1610  -15.5709   24.9273 O   0  0  0  0  0  0  0  0  0  0  0  0
    9.4459  -16.2408   25.9455 N   0  0  0  0  0  0  0  0  0  0  0  0
   10.1971  -15.2565   24.0165 C   0  0  0  0  0  0  0  0  0  0  0  0
   11.5911  -15.5616   24.2753 C   0  0  0  0  0  0  0  0  0  0  0  0
   12.1350  -16.4765   23.2106 O   0  0  0  0  0  0  0  0  0  0  0  0
   13.2505  -16.1099   22.4720 O   0  0  0  0  0  0  0  0  0  0  0  0
  1  2  1  0
  2  3  2  0
  2  4  1  0
  5  4  1  0
  6  5  1  0
  7  8  1  0
  7  6  1  0
  8 10  1  0
  8  9  1  1
 10 11  2  0
 10 12  1  0
 12 13  1  0
 13 14  1  6
 13 16  1  0
 15 14  1  0
 16 17  2  0
 18 16  1  0
 18 19  1  0
 20 21  1  0
 20 19  1  0
 22 20  2  0
M  END
$$$$
