RCG.pdb
     RDKit          3D

 22 21  0  0  1  0  0  0  0  0999 V2000
    7.1222  -12.3397   16.7405 N   0  0  0  0  0  0  0  0  0  0  0  0
    7.7677  -13.5559   16.3221 C   0  0  0  0  0  0  0  0  0  0  0  0
    7.6968  -13.9370   15.0963 N   0  0  0  0  0  0  0  0  0  0  0  0
    8.4930  -14.3595   17.2431 N   0  0  0  0  0  0  0  0  0  0  0  0
    7.8734  -14.8294   18.5032 C   0  0  0  0  0  0  0  0  0  0  0  0
    8.0121  -13.6978   19.4563 C   0  0  0  0  0  0  0  0  0  0  0  0
    7.5269  -13.9021   20.8514 C   0  0  0  0  0  0  0  0  0  0  0  0
    8.2588  -14.9798   21.5463 C   0  0  2  0  0  0  0  0  0  0  0  0
    7.4193  -16.1596   21.6455 N   0  0  0  0  0  0  0  0  0  0  0  0
    8.6845  -14.5671   22.9345 C   0  0  0  0  0  0  0  0  0  0  0  0
    9.1085  -13.4096   23.1775 O   0  0  0  0  0  0  0  0  0  0  0  0
    8.1530  -14.8020   14.7414 N   0  0  0  0  0  0  0  0  0  0  0  0
    8.6273  -15.4666   24.0358 C   0  0  1  0  0  0  0  0  0  0  0  0
    8.9681  -15.0814   25.3842 C   0  0  0  0  0  0  0  0  0  0  0  0
    8.0473  -13.9619   25.8141 S   0  0  0  0  0  0  0  0  0  0  0  0
    8.3207  -13.4260   27.4982 C   0  0  0  0  0  0  0  0  0  0  0  0
    8.8076  -16.1943   26.3448 O   0  0  0  0  0  0  0  0  0  0  0  0
    7.6722  -16.4198   26.8208 N   0  0  0  0  0  0  0  0  0  0  0  0
    9.8838  -17.0180   26.7510 C   0  0  0  0  0  0  0  0  0  0  0  0
    9.7153  -18.1493   27.6428 C   0  0  0  0  0  0  0  0  0  0  0  0
   10.6628  -18.0454   28.8080 O   0  0  0  0  0  0  0  0  0  0  0  0
   11.7113  -18.9434   28.9432 O   0  0  0  0  0  0  0  0  0  0  0  0
  1  2  1  0
  2  3  2  0
  2  4  1  0
  5  4  1  0
  6  5  1  0
  7  8  1  0
  7  6  1  0
  8 10  1  0
  8  9  1  1
 10 11  2  0
 10 12  1  0
 12 13  1  0
 13 14  1  6
 13 16  1  0
 15 14  1  0
 16 17  2  0
 18 16  1  0
 18 19  1  0
 20 21  1  0
 20 19  1  0
 22 20  2  0
M  END
$$$$
