RCG.pdb
     RDKit          3D

 22 21  0  0  1  0  0  0  0  0999 V2000
   13.2322  -13.4341   11.7699 N   0  0  0  0  0  0  0  0  0  0  0  0
   13.1675  -14.8713   11.7345 C   0  0  0  0  0  0  0  0  0  0  0  0
   14.2163  -15.5590   11.4521 N   0  0  0  0  0  0  0  0  0  0  0  0
   11.9554  -15.5612   12.0078 N   0  0  0  0  0  0  0  0  0  0  0  0
   10.7433  -14.8347   12.4504 C   0  0  0  0  0  0  0  0  0  0  0  0
   10.2004  -15.6280   13.5836 C   0  0  0  0  0  0  0  0  0  0  0  0
    8.8999  -15.1968   14.1722 C   0  0  0  0  0  0  0  0  0  0  0  0
    8.4484  -16.0973   15.2517 C   0  0  2  0  0  0  0  0  0  0  0  0
    7.1717  -15.6416   15.7705 N   0  0  0  0  0  0  0  0  0  0  0  0
    9.4416  -16.1577   16.3870 C   0  0  0  0  0  0  0  0  0  0  0  0
    9.7564  -15.1334   17.0429 O   0  0  0  0  0  0  0  0  0  0  0  0
   14.2277  -16.5991   11.4340 N   0  0  0  0  0  0  0  0  0  0  0  0
   10.0701  -17.3755   16.7705 C   0  0  1  0  0  0  0  0  0  0  0  0
   11.1023  -17.4447   17.7769 C   0  0  0  0  0  0  0  0  0  0  0  0
   10.6720  -18.4261   18.8434 S   0  0  0  0  0  0  0  0  0  0  0  0
    9.5920  -17.7074   20.0743 C   0  0  0  0  0  0  0  0  0  0  0  0
   12.3938  -17.9102   17.2270 O   0  0  0  0  0  0  0  0  0  0  0  0
   12.3851  -18.7054   16.2605 N   0  0  0  0  0  0  0  0  0  0  0  0
   13.6427  -17.4953   17.7465 C   0  0  0  0  0  0  0  0  0  0  0  0
   14.9090  -17.9740   17.2262 C   0  0  0  0  0  0  0  0  0  0  0  0
   16.0533  -17.3976   18.0166 O   0  0  0  0  0  0  0  0  0  0  0  0
   16.6611  -16.2174   17.6142 O   0  0  0  0  0  0  0  0  0  0  0  0
  1  2  1  0
  2  3  2  0
  2  4  1  0
  5  4  1  0
  6  5  1  0
  7  8  1  0
  7  6  1  0
  8 10  1  0
  8  9  1  1
 10 11  2  0
 10 12  1  0
 12 13  1  0
 13 14  1  6
 13 16  1  0
 15 14  1  0
 16 17  2  0
 18 16  1  0
 18 19  1  0
 20 21  1  0
 20 19  1  0
 22 20  2  0
M  END
$$$$
