RCG.pdb
     RDKit          3D

 22 21  0  0  1  0  0  0  0  0999 V2000
    8.5489  -12.7577   19.2465 N   0  0  0  0  0  0  0  0  0  0  0  0
    8.5075  -13.8036   18.2589 C   0  0  0  0  0  0  0  0  0  0  0  0
    8.2387  -13.5252   17.0330 N   0  0  0  0  0  0  0  0  0  0  0  0
    8.7598  -15.1578   18.6090 N   0  0  0  0  0  0  0  0  0  0  0  0
    9.1958  -15.5276   19.9750 C   0  0  0  0  0  0  0  0  0  0  0  0
    7.9915  -16.0994   20.6315 C   0  0  0  0  0  0  0  0  0  0  0  0
    8.1420  -16.6283   22.0176 C   0  0  0  0  0  0  0  0  0  0  0  0
    7.2723  -15.9257   22.9821 C   0  0  2  0  0  0  0  0  0  0  0  0
    6.2335  -15.2028   22.2716 N   0  0  0  0  0  0  0  0  0  0  0  0
    8.0486  -14.9506   23.8338 C   0  0  0  0  0  0  0  0  0  0  0  0
    9.2910  -14.8103   23.7096 O   0  0  0  0  0  0  0  0  0  0  0  0
    8.1933  -14.2440   16.2823 N   0  0  0  0  0  0  0  0  0  0  0  0
    7.4135  -14.1429   24.8183 C   0  0  1  0  0  0  0  0  0  0  0  0
    8.1453  -13.3800   25.8009 C   0  0  0  0  0  0  0  0  0  0  0  0
    7.3228  -12.1705   26.1838 S   0  0  0  0  0  0  0  0  0  0  0  0
    5.6667  -12.5800   26.7201 C   0  0  0  0  0  0  0  0  0  0  0  0
    8.4107  -14.1556   27.0317 O   0  0  0  0  0  0  0  0  0  0  0  0
    7.5432  -14.9637   27.4331 N   0  0  0  0  0  0  0  0  0  0  0  0
    9.6055  -14.0245   27.7782 C   0  0  0  0  0  0  0  0  0  0  0  0
    9.8364  -14.7314   29.0233 C   0  0  0  0  0  0  0  0  0  0  0  0
   10.4021  -16.1001   28.7533 O   0  0  0  0  0  0  0  0  0  0  0  0
   11.6363  -16.2410   28.1359 O   0  0  0  0  0  0  0  0  0  0  0  0
  1  2  1  0
  2  3  2  0
  2  4  1  0
  5  4  1  0
  6  5  1  0
  7  8  1  0
  7  6  1  0
  8 10  1  0
  8  9  1  6
 10 11  2  0
 10 12  1  0
 12 13  1  0
 13 14  1  1
 13 16  1  0
 15 14  1  0
 16 17  2  0
 18 16  1  0
 18 19  1  0
 20 21  1  0
 20 19  1  0
 22 20  2  0
M  END
$$$$
