RCG.pdb
     RDKit          3D

 22 21  0  0  1  0  0  0  0  0999 V2000
    6.4564  -19.0873   19.0694 N   0  0  0  0  0  0  0  0  0  0  0  0
    6.8365  -18.3801   17.8751 C   0  0  0  0  0  0  0  0  0  0  0  0
    6.3754  -18.7463   16.7323 N   0  0  0  0  0  0  0  0  0  0  0  0
    7.7224  -17.2699   17.9267 N   0  0  0  0  0  0  0  0  0  0  0  0
    8.4675  -16.9411   19.1634 C   0  0  0  0  0  0  0  0  0  0  0  0
    7.4984  -16.2169   20.0264 C   0  0  0  0  0  0  0  0  0  0  0  0
    7.9384  -15.8424   21.4010 C   0  0  0  0  0  0  0  0  0  0  0  0
    7.3310  -14.5763   21.8574 C   0  0  2  0  0  0  0  0  0  0  0  0
    7.5213  -13.5485   20.8504 N   0  0  0  0  0  0  0  0  0  0  0  0
    7.9315  -14.1005   23.1582 C   0  0  0  0  0  0  0  0  0  0  0  0
    9.0869  -13.6096   23.2106 O   0  0  0  0  0  0  0  0  0  0  0  0
    6.6160  -18.2671   15.8408 N   0  0  0  0  0  0  0  0  0  0  0  0
    7.2205  -14.1839   24.3881 C   0  0  1  0  0  0  0  0  0  0  0  0
    7.8357  -13.9376   25.6702 C   0  0  0  0  0  0  0  0  0  0  0  0
    6.9153  -13.0590   26.4868 S   0  0  0  0  0  0  0  0  0  0  0  0
    6.6890  -11.4278   25.7896 C   0  0  0  0  0  0  0  0  0  0  0  0
    8.0666  -15.1838   26.4321 O   0  0  0  0  0  0  0  0  0  0  0  0
    7.0773  -15.8551   26.8026 N   0  0  0  0  0  0  0  0  0  0  0  0
    9.3602  -15.6526   26.7620 C   0  0  0  0  0  0  0  0  0  0  0  0
    9.5938  -16.9365   27.3946 C   0  0  0  0  0  0  0  0  0  0  0  0
   11.0706  -17.1933   27.5325 O   0  0  0  0  0  0  0  0  0  0  0  0
   11.5356  -18.1740   28.3964 O   0  0  0  0  0  0  0  0  0  0  0  0
  1  2  1  0
  2  3  2  0
  2  4  1  0
  5  4  1  0
  6  5  1  0
  7  8  1  0
  7  6  1  0
  8 10  1  0
  8  9  1  6
 10 11  2  0
 10 12  1  0
 12 13  1  0
 13 14  1  6
 13 16  1  0
 15 14  1  0
 16 17  2  0
 18 16  1  0
 18 19  1  0
 20 21  1  0
 20 19  1  0
 22 20  2  0
M  END
$$$$
