RCG.pdb
     RDKit          3D

 22 21  0  0  1  0  0  0  0  0999 V2000
    4.9225  -17.7677   19.4016 N   0  0  0  0  0  0  0  0  0  0  0  0
    5.9809  -18.3863   18.6480 C   0  0  0  0  0  0  0  0  0  0  0  0
    5.8739  -19.6094   18.2669 N   0  0  0  0  0  0  0  0  0  0  0  0
    7.1602  -17.6692   18.3087 N   0  0  0  0  0  0  0  0  0  0  0  0
    8.0359  -17.0953   19.3559 C   0  0  0  0  0  0  0  0  0  0  0  0
    7.2824  -15.9406   19.9101 C   0  0  0  0  0  0  0  0  0  0  0  0
    7.9550  -15.1065   20.9471 C   0  0  0  0  0  0  0  0  0  0  0  0
    7.2774  -15.1875   22.2564 C   0  0  2  0  0  0  0  0  0  0  0  0
    6.0502  -14.4132   22.2238 N   0  0  0  0  0  0  0  0  0  0  0  0
    8.1496  -14.6704   23.3748 C   0  0  0  0  0  0  0  0  0  0  0  0
    8.7979  -13.5998   23.2644 O   0  0  0  0  0  0  0  0  0  0  0  0
    6.6403  -20.1267   17.7901 N   0  0  0  0  0  0  0  0  0  0  0  0
    8.2813  -15.3682   24.6080 C   0  0  2  0  0  0  0  0  0  0  0  0
    9.1477  -14.9249   25.6737 C   0  0  0  0  0  0  0  0  0  0  0  0
    8.4133  -13.8883   26.4937 S   0  0  0  0  0  0  0  0  0  0  0  0
    9.3591  -13.2859   27.8867 C   0  0  0  0  0  0  0  0  0  0  0  0
    9.5352  -16.0278   26.5794 O   0  0  0  0  0  0  0  0  0  0  0  0
    8.6366  -16.7479   27.0701 N   0  0  0  0  0  0  0  0  0  0  0  0
   10.8807  -16.3063   26.9170 C   0  0  0  0  0  0  0  0  0  0  0  0
   11.2901  -17.5370   27.5659 C   0  0  0  0  0  0  0  0  0  0  0  0
   11.1447  -17.4170   29.0594 O   0  0  0  0  0  0  0  0  0  0  0  0
   10.6312  -16.2589   29.6246 O   0  0  0  0  0  0  0  0  0  0  0  0
  1  2  1  0
  2  3  2  0
  2  4  1  0
  5  4  1  0
  6  5  1  0
  7  8  1  0
  7  6  1  0
  8 10  1  0
  8  9  1  6
 10 11  2  0
 10 12  1  0
 12 13  1  0
 13 14  1  1
 13 16  1  0
 15 14  1  0
 16 17  2  0
 18 16  1  0
 18 19  1  0
 20 21  1  0
 20 19  1  0
 22 20  2  0
M  END
$$$$
