RCG.pdb
     RDKit          3D

 22 21  0  0  1  0  0  0  0  0999 V2000
   10.8143  -15.7951   14.4140 N   0  0  0  0  0  0  0  0  0  0  0  0
    9.6508  -16.6417   14.4290 C   0  0  0  0  0  0  0  0  0  0  0  0
    9.7384  -17.8680   14.0530 N   0  0  0  0  0  0  0  0  0  0  0  0
    8.3872  -16.1500   14.8554 N   0  0  0  0  0  0  0  0  0  0  0  0
    8.2379  -14.7725   15.3778 C   0  0  0  0  0  0  0  0  0  0  0  0
    8.7854  -14.8134   16.7587 C   0  0  0  0  0  0  0  0  0  0  0  0
    7.8540  -15.1806   17.8638 C   0  0  0  0  0  0  0  0  0  0  0  0
    7.7243  -14.1050   18.8669 C   0  0  2  0  0  0  0  0  0  0  0  0
    7.9917  -12.8200   18.2475 N   0  0  0  0  0  0  0  0  0  0  0  0
    8.6761  -14.2956   20.0231 C   0  0  0  0  0  0  0  0  0  0  0  0
    9.8904  -13.9853   19.9356 O   0  0  0  0  0  0  0  0  0  0  0  0
    8.9313  -18.5245   14.0582 N   0  0  0  0  0  0  0  0  0  0  0  0
    8.2466  -14.8353   21.2678 C   0  0  2  0  0  0  0  0  0  0  0  0
    9.1218  -14.9793   22.4063 C   0  0  0  0  0  0  0  0  0  0  0  0
    8.3020  -15.4386   23.5908 S   0  0  0  0  0  0  0  0  0  0  0  0
    7.1125  -14.2233   24.1439 C   0  0  0  0  0  0  0  0  0  0  0  0
   10.1851  -15.9808   22.1753 O   0  0  0  0  0  0  0  0  0  0  0  0
    9.9024  -17.0248   21.5456 N   0  0  0  0  0  0  0  0  0  0  0  0
   11.5121  -15.8108   22.6360 C   0  0  0  0  0  0  0  0  0  0  0  0
   12.5672  -16.7682   22.3656 C   0  0  0  0  0  0  0  0  0  0  0  0
   13.8565  -16.3231   23.0025 O   0  0  0  0  0  0  0  0  0  0  0  0
   14.9844  -17.1284   22.9430 O   0  0  0  0  0  0  0  0  0  0  0  0
  1  2  1  0
  2  3  2  0
  2  4  1  0
  5  4  1  0
  6  5  1  0
  7  8  1  0
  7  6  1  0
  8 10  1  0
  8  9  1  6
 10 11  2  0
 10 12  1  0
 12 13  1  0
 13 14  1  6
 13 16  1  0
 15 14  1  0
 16 17  2  0
 18 16  1  0
 18 19  1  0
 20 21  1  0
 20 19  1  0
 22 20  2  0
M  END
$$$$
