RCG.pdb
     RDKit          3D

 22 21  0  0  1  0  0  0  0  0999 V2000
    5.8499  -22.2804   25.6575 N   0  0  0  0  0  0  0  0  0  0  0  0
    4.8400  -22.3916   24.6385 C   0  0  0  0  0  0  0  0  0  0  0  0
    4.0703  -23.4206   24.6004 N   0  0  0  0  0  0  0  0  0  0  0  0
    4.6684  -21.3776   23.6574 N   0  0  0  0  0  0  0  0  0  0  0  0
    5.7730  -20.9973   22.7475 C   0  0  0  0  0  0  0  0  0  0  0  0
    6.5803  -20.0035   23.5018 C   0  0  0  0  0  0  0  0  0  0  0  0
    5.9793  -18.6601   23.7420 C   0  0  0  0  0  0  0  0  0  0  0  0
    6.7926  -17.5718   23.1640 C   0  0  2  0  0  0  0  0  0  0  0  0
    7.4935  -18.0531   21.9877 N   0  0  0  0  0  0  0  0  0  0  0  0
    7.8045  -17.0404   24.1502 C   0  0  0  0  0  0  0  0  0  0  0  0
    8.9500  -17.5455   24.2564 O   0  0  0  0  0  0  0  0  0  0  0  0
    3.3733  -23.5830   23.8453 N   0  0  0  0  0  0  0  0  0  0  0  0
    7.5125  -15.9427   25.0075 C   0  0  2  0  0  0  0  0  0  0  0  0
    8.4185  -15.4827   26.0323 C   0  0  0  0  0  0  0  0  0  0  0  0
    7.8975  -14.1761   26.5867 S   0  0  0  0  0  0  0  0  0  0  0  0
    8.9586  -13.4631   27.8372 C   0  0  0  0  0  0  0  0  0  0  0  0
    8.5302  -16.4389   27.1550 O   0  0  0  0  0  0  0  0  0  0  0  0
    7.4832  -16.9275   27.6362 N   0  0  0  0  0  0  0  0  0  0  0  0
    9.7720  -16.8272   27.7110 C   0  0  0  0  0  0  0  0  0  0  0  0
    9.8834  -17.7842   28.7950 C   0  0  0  0  0  0  0  0  0  0  0  0
   11.3208  -17.9374   29.2149 O   0  0  0  0  0  0  0  0  0  0  0  0
   11.7776  -17.3489   30.3850 O   0  0  0  0  0  0  0  0  0  0  0  0
  1  2  1  0
  2  3  2  0
  2  4  1  0
  5  4  1  0
  6  5  1  0
  7  8  1  0
  7  6  1  0
  8 10  1  0
  8  9  1  6
 10 11  2  0
 10 12  1  0
 12 13  1  0
 13 14  1  1
 13 16  1  0
 15 14  1  0
 16 17  2  0
 18 16  1  0
 18 19  1  0
 20 21  1  0
 20 19  1  0
 22 20  2  0
M  END
$$$$
