RTD.pdb
     RDKit          3D

 27 26  0  0  1  0  0  0  0  0999 V2000
    9.9730  -17.2847   13.2129 N   0  0  0  0  0  0  0  0  0  0  0  0
    8.5684  -17.5416   13.1470 C   0  0  0  0  0  0  0  0  0  0  0  0
    8.0930  -17.9986   12.0367 N   0  0  0  0  0  0  0  0  0  0  0  0
    7.7098  -17.3094   14.2516 N   0  0  0  0  0  0  0  0  0  0  0  0
    8.1528  -16.7934   15.5023 C   0  0  0  0  0  0  0  0  0  0  0  0
    8.6449  -15.3907   15.4733 C   0  0  0  0  0  0  0  0  0  0  0  0
    9.1898  -14.8338   16.7274 C   0  0  0  0  0  0  0  0  0  0  0  0
    8.1876  -14.2808   17.6905 C   0  0  2  0  0  0  0  0  0  0  0  0
    7.7087  -13.0153   17.2151 N   0  0  0  0  0  0  0  0  0  0  0  0
    8.7158  -14.1282   19.0625 C   0  0  0  0  0  0  0  0  0  0  0  0
    8.9076  -12.9706   19.5449 O   0  0  0  0  0  0  0  0  0  0  0  0
    7.1002  -18.2177   11.9169 C   0  0  0  0  0  0  0  0  0  0  0  0
    7.4417  -13.3363   21.1686 C   0  0  2  0  0  0  0  0  0  0  0  0
    7.9801  -14.5308   21.9229 O   0  0  0  0  0  0  0  0  0  0  0  0
    7.0642  -15.6050   21.8145 C   0  0  2  0  0  0  0  0  0  0  0  0
    9.2930  -15.0348   21.3527 N   0  0  0  0  0  0  0  0  0  0  0  0
    9.0403  -15.2124   19.9226 C   0  0  0  0  0  0  0  0  0  0  0  0
    9.7683  -16.2644   21.9890 O   0  0  0  0  0  0  0  0  0  0  0  0
    9.6361  -17.3686   21.4003 N   0  0  0  0  0  0  0  0  0  0  0  0
   10.3936  -16.2983   23.2755 C   0  0  1  0  0  0  0  0  0  0  0  0
   11.0782  -17.4573   23.8096 C   0  0  0  0  0  0  0  0  0  0  0  0
   12.1347  -17.9154   22.8355 C   0  0  0  0  0  0  0  0  0  0  0  0
   13.2679  -16.9976   22.7036 O   0  0  0  0  0  0  0  0  0  0  0  0
   13.2462  -15.9427   23.4180 C   0  0  0  0  0  0  0  0  0  0  0  0
   11.6349  -17.1960   25.1446 O   0  0  0  0  0  0  0  0  0  0  0  0
   11.5126  -15.9426   25.7049 O   0  0  0  0  0  0  0  0  0  0  0  0
   14.3623  -17.1448   21.8911 O   0  0  0  0  0  0  0  0  0  0  0  0
  2  1  1  0
  3  2  2  0
  4  2  1  0
  5  4  1  0
  6  5  1  0
  7  6  1  0
  8 10  1  0
  8  7  1  0
  8  9  1  6
 10 11  2  0
 13 12  1  1
 13 14  1  0
 15 13  1  0
 16 10  1  0
 15 16  1  1
 17 19  1  0
 17 15  1  0
 18 17  2  0
 20 21  1  1
 20 19  1  0
 21 22  1  0
 22 26  1  0
 22 23  2  0
 24 20  1  0
 24 25  1  0
 27 24  2  0
M  END
$$$$
