RTD.pdb
     RDKit          3D

 27 26  0  0  1  0  0  0  0  0999 V2000
    7.1088  -12.9640   16.5817 N   0  0  0  0  0  0  0  0  0  0  0  0
    8.2337  -13.7705   16.2246 C   0  0  0  0  0  0  0  0  0  0  0  0
    8.2383  -14.3086   15.0507 N   0  0  0  0  0  0  0  0  0  0  0  0
    9.3172  -13.9843   17.1143 N   0  0  0  0  0  0  0  0  0  0  0  0
    9.1806  -14.0245   18.5308 C   0  0  0  0  0  0  0  0  0  0  0  0
    7.8118  -13.7568   19.0457 C   0  0  0  0  0  0  0  0  0  0  0  0
    7.6054  -13.8361   20.5055 C   0  0  0  0  0  0  0  0  0  0  0  0
    7.8732  -15.1663   21.1354 C   0  0  2  0  0  0  0  0  0  0  0  0
    6.7406  -16.0260   20.9474 N   0  0  0  0  0  0  0  0  0  0  0  0
    8.1962  -15.0785   22.5750 C   0  0  0  0  0  0  0  0  0  0  0  0
    7.9205  -14.0247   23.2255 O   0  0  0  0  0  0  0  0  0  0  0  0
    9.0297  -14.8585   14.7052 C   0  0  0  0  0  0  0  0  0  0  0  0
    7.0583  -14.4585   24.7540 C   0  0  2  0  0  0  0  0  0  0  0  0
    7.6650  -15.7091   25.3486 O   0  0  0  0  0  0  0  0  0  0  0  0
    6.8402  -16.8193   25.0462 C   0  0  2  0  0  0  0  0  0  0  0  0
    9.0306  -16.0256   24.7675 N   0  0  0  0  0  0  0  0  0  0  0  0
    8.8146  -16.1168   23.3234 C   0  0  0  0  0  0  0  0  0  0  0  0
    9.6274  -17.2439   25.3173 O   0  0  0  0  0  0  0  0  0  0  0  0
    9.2437  -18.3709   24.9102 N   0  0  0  0  0  0  0  0  0  0  0  0
   10.6503  -17.2413   26.3177 C   0  0  1  0  0  0  0  0  0  0  0  0
   11.2620  -18.4416   26.8493 C   0  0  0  0  0  0  0  0  0  0  0  0
   12.7304  -18.1973   27.0922 C   0  0  0  0  0  0  0  0  0  0  0  0
   13.5250  -18.0535   25.8707 O   0  0  0  0  0  0  0  0  0  0  0  0
   12.9168  -18.2070   24.7616 C   0  0  0  0  0  0  0  0  0  0  0  0
   10.5743  -18.9157   28.0587 O   0  0  0  0  0  0  0  0  0  0  0  0
   10.8474  -20.1726   28.5543 O   0  0  0  0  0  0  0  0  0  0  0  0
   14.8631  -17.7687   25.7823 O   0  0  0  0  0  0  0  0  0  0  0  0
  2  1  1  0
  3  2  2  0
  4  2  1  0
  5  4  1  0
  6  5  1  0
  7  6  1  0
  8 10  1  0
  8  7  1  0
  8  9  1  1
 10 11  2  0
 13 12  1  1
 13 14  1  0
 15 13  1  0
 16 10  1  0
 15 16  1  1
 17 19  1  0
 17 15  1  0
 18 17  2  0
 20 21  1  1
 20 19  1  0
 21 22  1  0
 22 26  1  0
 22 23  2  0
 24 20  1  0
 24 25  1  0
 27 24  2  0
M  END
$$$$
