RTD.pdb
     RDKit          3D

 27 26  0  0  1  0  0  0  0  0999 V2000
    8.4415  -11.6464   17.4210 N   0  0  0  0  0  0  0  0  0  0  0  0
    7.6900  -12.8607   17.3586 C   0  0  0  0  0  0  0  0  0  0  0  0
    6.9020  -13.0280   16.3493 N   0  0  0  0  0  0  0  0  0  0  0  0
    7.7922  -13.8595   18.3602 N   0  0  0  0  0  0  0  0  0  0  0  0
    7.8904  -13.5761   19.7519 C   0  0  0  0  0  0  0  0  0  0  0  0
    6.9365  -14.3151   20.6204 C   0  0  0  0  0  0  0  0  0  0  0  0
    7.1250  -15.7734   20.7530 C   0  0  0  0  0  0  0  0  0  0  0  0
    8.4713  -16.2212   21.2275 C   0  0  2  0  0  0  0  0  0  0  0  0
    8.6123  -17.6328   21.0166 N   0  0  0  0  0  0  0  0  0  0  0  0
    8.7271  -15.9035   22.6482 C   0  0  0  0  0  0  0  0  0  0  0  0
    8.5631  -14.7200   23.0747 O   0  0  0  0  0  0  0  0  0  0  0  0
    6.3508  -13.8813   16.2225 C   0  0  0  0  0  0  0  0  0  0  0  0
    7.8019  -14.5719   24.5200 C   0  0  2  0  0  0  0  0  0  0  0  0
    8.0612  -15.7671   25.4089 O   0  0  0  0  0  0  0  0  0  0  0  0
    7.0020  -16.6956   25.2661 C   0  0  2  0  0  0  0  0  0  0  0  0
    9.3291  -16.5095   25.0295 N   0  0  0  0  0  0  0  0  0  0  0  0
    9.1590  -16.8500   23.6169 C   0  0  0  0  0  0  0  0  0  0  0  0
    9.5808  -17.6896   25.8582 O   0  0  0  0  0  0  0  0  0  0  0  0
    8.7534  -18.6374   25.8705 N   0  0  0  0  0  0  0  0  0  0  0  0
   10.7408  -17.8448   26.6814 C   0  0  1  0  0  0  0  0  0  0  0  0
   11.0253  -19.0330   27.4590 C   0  0  0  0  0  0  0  0  0  0  0  0
   12.5176  -19.2262   27.5619 C   0  0  0  0  0  0  0  0  0  0  0  0
   13.1737  -19.5230   26.2870 O   0  0  0  0  0  0  0  0  0  0  0  0
   12.4324  -19.5775   25.2520 C   0  0  0  0  0  0  0  0  0  0  0  0
   10.3825  -18.9882   28.7801 O   0  0  0  0  0  0  0  0  0  0  0  0
    9.7962  -17.8200   29.2178 O   0  0  0  0  0  0  0  0  0  0  0  0
   14.5091  -19.7507   26.0765 O   0  0  0  0  0  0  0  0  0  0  0  0
  2  1  1  0
  3  2  2  0
  4  2  1  0
  5  4  1  0
  6  5  1  0
  7  6  1  0
  8 10  1  0
  8  7  1  0
  8  9  1  1
 10 11  2  0
 13 12  1  1
 13 14  1  0
 15 13  1  0
 16 10  1  0
 15 16  1  1
 17 19  1  0
 17 15  1  0
 18 17  2  0
 20 21  1  1
 20 19  1  0
 21 22  1  0
 22 26  1  0
 22 23  2  0
 24 20  1  0
 24 25  1  0
 27 24  2  0
M  END
$$$$
