RTD.pdb
     RDKit          3D

 27 26  0  0  1  0  0  0  0  0999 V2000
    9.8266  -19.3993   11.8148 N   0  0  0  0  0  0  0  0  0  0  0  0
   11.2255  -19.4230   11.5218 C   0  0  0  0  0  0  0  0  0  0  0  0
   11.5785  -19.5956   10.2916 N   0  0  0  0  0  0  0  0  0  0  0  0
   12.2074  -19.2642   12.5327 N   0  0  0  0  0  0  0  0  0  0  0  0
   11.9190  -18.8074   13.8499 C   0  0  0  0  0  0  0  0  0  0  0  0
   10.9482  -17.6846   13.9354 C   0  0  0  0  0  0  0  0  0  0  0  0
   10.6535  -17.1394   15.2755 C   0  0  0  0  0  0  0  0  0  0  0  0
    9.6191  -16.0602   15.3326 C   0  0  2  0  0  0  0  0  0  0  0  0
    9.7012  -15.2502   14.1519 N   0  0  0  0  0  0  0  0  0  0  0  0
    9.7323  -15.2031   16.5315 C   0  0  0  0  0  0  0  0  0  0  0  0
   10.7183  -14.4151   16.6591 O   0  0  0  0  0  0  0  0  0  0  0  0
   12.5606  -19.6499   10.0079 C   0  0  0  0  0  0  0  0  0  0  0  0
    7.7569  -13.0837   20.5132 C   0  0  2  0  0  0  0  0  0  0  0  0
    7.6774  -13.9786   19.2972 O   0  0  0  0  0  0  0  0  0  0  0  0
    7.1548  -13.2420   18.2069 C   0  0  1  0  0  0  0  0  0  0  0  0
    9.0393  -14.4807   18.8549 N   0  0  0  0  0  0  0  0  0  0  0  0
    8.7917  -15.1858   17.5971 C   0  0  0  0  0  0  0  0  0  0  0  0
    9.6950  -15.3323   19.8486 O   0  0  0  0  0  0  0  0  0  0  0  0
    9.6691  -16.5836   19.7194 N   0  0  0  0  0  0  0  0  0  0  0  0
   10.3861  -14.8233   20.9934 C   0  0  1  0  0  0  0  0  0  0  0  0
   11.0247  -15.6599   21.9883 C   0  0  0  0  0  0  0  0  0  0  0  0
   12.4330  -15.1765   22.2287 C   0  0  0  0  0  0  0  0  0  0  0  0
   13.1690  -15.9474   23.2327 O   0  0  0  0  0  0  0  0  0  0  0  0
   12.5703  -16.9455   23.7512 C   0  0  0  0  0  0  0  0  0  0  0  0
   10.2434  -15.7234   23.2317 O   0  0  0  0  0  0  0  0  0  0  0  0
    9.1391  -14.9137   23.3894 O   0  0  0  0  0  0  0  0  0  0  0  0
   14.4430  -15.7164   23.6834 O   0  0  0  0  0  0  0  0  0  0  0  0
  2  1  1  0
  3  2  2  0
  4  2  1  0
  5  4  1  0
  6  5  1  0
  7  6  1  0
  8 10  1  0
  8  7  1  0
  8  9  1  6
 10 11  2  0
 13 12  1  1
 13 14  1  0
 15 13  1  0
 16 10  1  0
 15 16  1  1
 17 19  1  0
 17 15  1  0
 18 17  2  0
 20 21  1  1
 20 19  1  0
 21 22  1  0
 22 26  1  0
 22 23  2  0
 24 20  1  0
 24 25  1  0
 27 24  2  0
M  END
$$$$
