RTD.pdb
     RDKit          3D

 27 26  0  0  1  0  0  0  0  0999 V2000
    8.1004  -15.9106   22.7702 N   0  0  0  0  0  0  0  0  0  0  0  0
    8.0311  -14.4841   22.7085 C   0  0  0  0  0  0  0  0  0  0  0  0
    8.0355  -13.8339   23.8242 N   0  0  0  0  0  0  0  0  0  0  0  0
    7.9597  -13.7883   21.4748 N   0  0  0  0  0  0  0  0  0  0  0  0
    7.2566  -14.2709   20.3347 C   0  0  0  0  0  0  0  0  0  0  0  0
    7.3183  -13.3979   19.1329 C   0  0  0  0  0  0  0  0  0  0  0  0
    8.6443  -12.8928   18.7250 C   0  0  0  0  0  0  0  0  0  0  0  0
    9.2765  -13.5777   17.5548 C   0  0  2  0  0  0  0  0  0  0  0  0
    8.2567  -14.1154   16.7017 N   0  0  0  0  0  0  0  0  0  0  0  0
   10.2167  -14.6506   17.9416 C   0  0  0  0  0  0  0  0  0  0  0  0
    9.8683  -15.8667   17.8452 O   0  0  0  0  0  0  0  0  0  0  0  0
    7.9461  -12.8148   23.8626 C   0  0  0  0  0  0  0  0  0  0  0  0
   14.4355  -14.0266   18.7490 C   0  0  2  0  0  0  0  0  0  0  0  0
   13.7367  -15.2435   18.1864 O   0  0  0  0  0  0  0  0  0  0  0  0
   14.5373  -16.3893   18.4115 C   0  0  1  0  0  0  0  0  0  0  0  0
   12.4072  -15.5161   18.8652 N   0  0  0  0  0  0  0  0  0  0  0  0
   11.5318  -14.4266   18.4324 C   0  0  0  0  0  0  0  0  0  0  0  0
   12.5066  -15.6021   20.3231 O   0  0  0  0  0  0  0  0  0  0  0  0
   12.3864  -14.5640   21.0238 N   0  0  0  0  0  0  0  0  0  0  0  0
   12.7378  -16.8250   21.0290 C   0  0  1  0  0  0  0  0  0  0  0  0
   12.8081  -16.9226   22.4723 C   0  0  0  0  0  0  0  0  0  0  0  0
   12.1221  -18.1860   22.9287 C   0  0  0  0  0  0  0  0  0  0  0  0
   12.0874  -18.3585   24.3824 O   0  0  0  0  0  0  0  0  0  0  0  0
   11.6331  -17.3874   25.0710 C   0  0  0  0  0  0  0  0  0  0  0  0
   14.1926  -16.8400   22.9587 O   0  0  0  0  0  0  0  0  0  0  0  0
   14.4368  -16.6440   24.3011 O   0  0  0  0  0  0  0  0  0  0  0  0
   12.4914  -19.4574   25.0955 O   0  0  0  0  0  0  0  0  0  0  0  0
  2  1  1  0
  3  2  2  0
  4  2  1  0
  5  4  1  0
  6  5  1  0
  7  6  1  0
  8 10  1  0
  8  7  1  0
  8  9  1  6
 10 11  2  0
 13 12  1  6
 13 14  1  0
 15 13  1  0
 16 10  1  0
 15 16  1  6
 17 19  1  0
 17 15  1  0
 18 17  2  0
 20 21  1  1
 20 19  1  0
 21 22  1  0
 22 26  1  0
 22 23  2  0
 24 20  1  0
 24 25  1  0
 27 24  2  0
M  END
$$$$
