RTD.pdb
     RDKit          3D

 27 26  0  0  1  0  0  0  0  0999 V2000
    8.6233  -13.8788   15.7565 N   0  0  0  0  0  0  0  0  0  0  0  0
    7.8574  -13.3182   16.8254 C   0  0  0  0  0  0  0  0  0  0  0  0
    6.6691  -12.8921   16.5534 N   0  0  0  0  0  0  0  0  0  0  0  0
    8.3667  -13.2244   18.1456 N   0  0  0  0  0  0  0  0  0  0  0  0
    7.5501  -13.0332   19.2961 C   0  0  0  0  0  0  0  0  0  0  0  0
    6.8631  -14.2523   19.7981 C   0  0  0  0  0  0  0  0  0  0  0  0
    7.6985  -15.2957   20.4254 C   0  0  0  0  0  0  0  0  0  0  0  0
    8.3198  -16.2876   19.4938 C   0  0  2  0  0  0  0  0  0  0  0  0
    7.2918  -17.0279   18.8215 N   0  0  0  0  0  0  0  0  0  0  0  0
    9.2459  -17.2228   20.1665 C   0  0  0  0  0  0  0  0  0  0  0  0
    9.0007  -18.4676   20.1708 O   0  0  0  0  0  0  0  0  0  0  0  0
    6.0251  -12.5691   17.2807 C   0  0  0  0  0  0  0  0  0  0  0  0
   10.7604  -19.1769   19.2522 C   0  0  2  0  0  0  0  0  0  0  0  0
   11.8993  -18.4545   19.9355 O   0  0  0  0  0  0  0  0  0  0  0  0
   12.3692  -17.4182   19.0930 C   0  0  2  0  0  0  0  0  0  0  0  0
   11.4713  -17.7869   21.2293 N   0  0  0  0  0  0  0  0  0  0  0  0
   10.4366  -16.8302   20.8363 C   0  0  0  0  0  0  0  0  0  0  0  0
   12.5758  -17.1467   21.9453 O   0  0  0  0  0  0  0  0  0  0  0  0
   12.8599  -15.9426   21.7157 N   0  0  0  0  0  0  0  0  0  0  0  0
   13.3804  -17.8172   22.9201 C   0  0  1  0  0  0  0  0  0  0  0  0
   14.3457  -17.1484   23.7677 C   0  0  0  0  0  0  0  0  0  0  0  0
   14.6667  -18.0201   24.9560 C   0  0  0  0  0  0  0  0  0  0  0  0
   13.5561  -18.1870   25.8955 O   0  0  0  0  0  0  0  0  0  0  0  0
   12.5580  -17.4069   25.7581 C   0  0  0  0  0  0  0  0  0  0  0  0
   15.5533  -16.7644   23.0231 O   0  0  0  0  0  0  0  0  0  0  0  0
   16.4576  -15.8904   23.5874 O   0  0  0  0  0  0  0  0  0  0  0  0
   13.4655  -19.0968   26.9170 O   0  0  0  0  0  0  0  0  0  0  0  0
  2  1  1  0
  3  2  2  0
  4  2  1  0
  5  4  1  0
  6  5  1  0
  7  6  1  0
  8 10  1  0
  8  7  1  0
  8  9  1  1
 10 11  2  0
 13 12  1  6
 13 14  1  0
 15 13  1  0
 16 10  1  0
 15 16  1  1
 17 19  1  0
 17 15  1  0
 18 17  2  0
 20 21  1  1
 20 19  1  0
 21 22  1  0
 22 26  1  0
 22 23  2  0
 24 20  1  0
 24 25  1  0
 27 24  2  0
M  END
$$$$
