RTD.pdb
     RDKit          3D

 27 26  0  0  1  0  0  0  0  0999 V2000
    6.0854  -13.4434   18.9851 N   0  0  0  0  0  0  0  0  0  0  0  0
    7.3390  -12.7578   19.0278 C   0  0  0  0  0  0  0  0  0  0  0  0
    7.8461  -12.3632   17.9077 N   0  0  0  0  0  0  0  0  0  0  0  0
    8.0181  -12.5097   20.2479 N   0  0  0  0  0  0  0  0  0  0  0  0
    8.0268  -13.4157   21.3461 C   0  0  0  0  0  0  0  0  0  0  0  0
    8.1179  -14.8545   20.9829 C   0  0  0  0  0  0  0  0  0  0  0  0
    9.4428  -15.4989   21.0791 C   0  0  0  0  0  0  0  0  0  0  0  0
   10.1254  -15.7943   19.7811 C   0  0  2  0  0  0  0  0  0  0  0  0
    9.3648  -16.7626   19.0455 N   0  0  0  0  0  0  0  0  0  0  0  0
   11.5137  -16.2742   19.9452 C   0  0  0  0  0  0  0  0  0  0  0  0
   11.7437  -17.5107   20.1114 O   0  0  0  0  0  0  0  0  0  0  0  0
    8.7382  -11.8635   17.8581 C   0  0  0  0  0  0  0  0  0  0  0  0
   16.3785  -15.2014   19.6006 C   0  0  1  0  0  0  0  0  0  0  0  0
   14.9066  -14.9116   19.4125 O   0  0  0  0  0  0  0  0  0  0  0  0
   14.5962  -14.9407   18.0314 C   0  0  1  0  0  0  0  0  0  0  0  0
   14.0204  -15.9547   20.0676 N   0  0  0  0  0  0  0  0  0  0  0  0
   12.6600  -15.4337   19.9319 C   0  0  0  0  0  0  0  0  0  0  0  0
   14.3746  -16.2246   21.4620 O   0  0  0  0  0  0  0  0  0  0  0  0
   14.0575  -15.4037   22.3613 N   0  0  0  0  0  0  0  0  0  0  0  0
   15.0788  -17.3955   21.8865 C   0  0  1  0  0  0  0  0  0  0  0  0
   15.4705  -17.6488   23.2576 C   0  0  0  0  0  0  0  0  0  0  0  0
   15.0884  -19.0563   23.6421 C   0  0  0  0  0  0  0  0  0  0  0  0
   15.4843  -19.4361   24.9997 O   0  0  0  0  0  0  0  0  0  0  0  0
   16.1366  -18.5754   25.6759 C   0  0  0  0  0  0  0  0  0  0  0  0
   16.9004  -17.3867   23.4746 O   0  0  0  0  0  0  0  0  0  0  0  0
   17.3815  -17.2295   24.7568 O   0  0  0  0  0  0  0  0  0  0  0  0
   15.2302  -20.6245   25.6341 O   0  0  0  0  0  0  0  0  0  0  0  0
  2  1  1  0
  3  2  2  0
  4  2  1  0
  5  4  1  0
  6  5  1  0
  7  6  1  0
  8 10  1  0
  8  7  1  0
  8  9  1  1
 10 11  2  0
 13 12  1  6
 13 14  1  0
 15 13  1  0
 16 10  1  0
 15 16  1  1
 17 19  1  0
 17 15  1  0
 18 17  2  0
 20 21  1  6
 20 19  1  0
 21 22  1  0
 22 26  1  0
 22 23  2  0
 24 20  1  0
 24 25  1  0
 27 24  2  0
M  END
$$$$
