RTD.pdb
     RDKit          3D

 27 26  0  0  1  0  0  0  0  0999 V2000
    8.1605  -14.7703   15.8818 N   0  0  0  0  0  0  0  0  0  0  0  0
    7.9191  -13.7769   16.8809 C   0  0  0  0  0  0  0  0  0  0  0  0
    7.8484  -12.5454   16.4985 N   0  0  0  0  0  0  0  0  0  0  0  0
    7.7599  -14.1115   18.2498 N   0  0  0  0  0  0  0  0  0  0  0  0
    6.5204  -14.5074   18.8276 C   0  0  0  0  0  0  0  0  0  0  0  0
    6.5336  -14.6811   20.3041 C   0  0  0  0  0  0  0  0  0  0  0  0
    7.6652  -14.0943   21.0490 C   0  0  0  0  0  0  0  0  0  0  0  0
    8.6208  -15.0665   21.6652 C   0  0  2  0  0  0  0  0  0  0  0  0
    8.1094  -16.3993   21.5268 N   0  0  0  0  0  0  0  0  0  0  0  0
    8.9028  -14.7884   23.0892 C   0  0  0  0  0  0  0  0  0  0  0  0
    9.1400  -13.6019   23.4706 O   0  0  0  0  0  0  0  0  0  0  0  0
    7.9711  -11.7640   17.1484 C   0  0  0  0  0  0  0  0  0  0  0  0
    7.8527  -13.3617   24.8984 C   0  0  2  0  0  0  0  0  0  0  0  0
    7.9704  -14.5188   25.8644 O   0  0  0  0  0  0  0  0  0  0  0  0
    6.7952  -15.3055   25.7983 C   0  0  2  0  0  0  0  0  0  0  0  0
    9.1210  -15.4471   25.5221 N   0  0  0  0  0  0  0  0  0  0  0  0
    8.9320  -15.7778   24.1094 C   0  0  0  0  0  0  0  0  0  0  0  0
    9.1761  -16.6400   26.3685 O   0  0  0  0  0  0  0  0  0  0  0  0
    8.8772  -17.7648   25.8901 N   0  0  0  0  0  0  0  0  0  0  0  0
    9.5593  -16.6145   27.7468 C   0  0  1  0  0  0  0  0  0  0  0  0
   10.5308  -17.5158   28.3310 C   0  0  0  0  0  0  0  0  0  0  0  0
   11.7742  -17.5430   27.4777 C   0  0  0  0  0  0  0  0  0  0  0  0
   12.1134  -18.8674   26.9534 O   0  0  0  0  0  0  0  0  0  0  0  0
   11.3131  -19.8211   27.2247 C   0  0  0  0  0  0  0  0  0  0  0  0
   10.8280  -17.1680   29.7278 O   0  0  0  0  0  0  0  0  0  0  0  0
   11.2236  -15.8865   30.0458 O   0  0  0  0  0  0  0  0  0  0  0  0
   13.2051  -19.2028   26.1949 O   0  0  0  0  0  0  0  0  0  0  0  0
  2  1  1  0
  3  2  2  0
  4  2  1  0
  5  4  1  0
  6  5  1  0
  7  6  1  0
  8 10  1  0
  8  7  1  0
  8  9  1  1
 10 11  2  0
 13 12  1  1
 13 14  1  0
 15 13  1  0
 16 10  1  0
 15 16  1  1
 17 19  1  0
 17 15  1  0
 18 17  2  0
 20 21  1  1
 20 19  1  0
 21 22  1  0
 22 26  1  0
 22 23  2  0
 24 20  1  0
 24 25  1  0
 27 24  2  0
M  END
$$$$
