RTD.pdb
     RDKit          3D

 27 26  0  0  1  0  0  0  0  0999 V2000
    7.8697  -12.8076   16.3532 N   0  0  0  0  0  0  0  0  0  0  0  0
    8.1783  -14.1560   16.7136 C   0  0  0  0  0  0  0  0  0  0  0  0
    7.9440  -15.0792   15.8416 N   0  0  0  0  0  0  0  0  0  0  0  0
    8.7236  -14.4890   17.9797 N   0  0  0  0  0  0  0  0  0  0  0  0
    8.6434  -13.6432   19.1220 C   0  0  0  0  0  0  0  0  0  0  0  0
    7.2806  -13.4695   19.6904 C   0  0  0  0  0  0  0  0  0  0  0  0
    6.9649  -14.1947   20.9371 C   0  0  0  0  0  0  0  0  0  0  0  0
    8.0265  -15.1171   21.4472 C   0  0  2  0  0  0  0  0  0  0  0  0
    7.5640  -16.4727   21.3736 N   0  0  0  0  0  0  0  0  0  0  0  0
    8.4528  -14.8124   22.8292 C   0  0  0  0  0  0  0  0  0  0  0  0
    8.6392  -13.6094   23.1866 O   0  0  0  0  0  0  0  0  0  0  0  0
    8.1689  -16.0630   16.0141 C   0  0  0  0  0  0  0  0  0  0  0  0
    7.6851  -13.3340   24.7381 C   0  0  2  0  0  0  0  0  0  0  0  0
    7.8371  -14.5326   25.6470 O   0  0  0  0  0  0  0  0  0  0  0  0
    6.6603  -15.3174   25.5879 C   0  0  2  0  0  0  0  0  0  0  0  0
    8.9748  -15.4429   25.2231 N   0  0  0  0  0  0  0  0  0  0  0  0
    8.6808  -15.7926   23.8331 C   0  0  0  0  0  0  0  0  0  0  0  0
    9.1201  -16.6252   26.0737 O   0  0  0  0  0  0  0  0  0  0  0  0
    8.2000  -17.4822   26.1217 N   0  0  0  0  0  0  0  0  0  0  0  0
   10.2737  -16.8821   26.8802 C   0  0  1  0  0  0  0  0  0  0  0  0
   10.4345  -18.0607   27.7063 C   0  0  0  0  0  0  0  0  0  0  0  0
   11.7025  -18.7808   27.3206 C   0  0  0  0  0  0  0  0  0  0  0  0
   12.1575  -18.5059   25.9562 O   0  0  0  0  0  0  0  0  0  0  0  0
   11.4836  -17.6631   25.2787 C   0  0  0  0  0  0  0  0  0  0  0  0
   10.4003  -17.7328   29.1386 O   0  0  0  0  0  0  0  0  0  0  0  0
   10.2956  -16.4179   29.5385 O   0  0  0  0  0  0  0  0  0  0  0  0
   13.2379  -19.0570   25.3171 O   0  0  0  0  0  0  0  0  0  0  0  0
  2  1  1  0
  3  2  2  0
  4  2  1  0
  5  4  1  0
  6  5  1  0
  7  6  1  0
  8 10  1  0
  8  7  1  0
  8  9  1  1
 10 11  2  0
 13 12  1  1
 13 14  1  0
 15 13  1  0
 16 10  1  0
 15 16  1  1
 17 19  1  0
 17 15  1  0
 18 17  2  0
 20 21  1  1
 20 19  1  0
 21 22  1  0
 22 26  1  0
 22 23  2  0
 24 20  1  0
 24 25  1  0
 27 24  2  0
M  END
$$$$
