RTD.pdb
     RDKit          3D

 27 26  0  0  1  0  0  0  0  0999 V2000
    8.1933  -12.5273   20.1843 N   0  0  0  0  0  0  0  0  0  0  0  0
    8.0228  -13.2155   18.9431 C   0  0  0  0  0  0  0  0  0  0  0  0
    8.1052  -12.5229   17.8562 N   0  0  0  0  0  0  0  0  0  0  0  0
    7.7714  -14.6100   18.8859 N   0  0  0  0  0  0  0  0  0  0  0  0
    8.6056  -15.5359   18.1976 C   0  0  0  0  0  0  0  0  0  0  0  0
   10.0262  -15.5599   18.6358 C   0  0  0  0  0  0  0  0  0  0  0  0
   10.5516  -16.8301   19.1747 C   0  0  0  0  0  0  0  0  0  0  0  0
    9.8167  -17.4005   20.3462 C   0  0  2  0  0  0  0  0  0  0  0  0
    8.4075  -17.3983   20.0795 N   0  0  0  0  0  0  0  0  0  0  0  0
   10.0836  -16.6834   21.6109 C   0  0  0  0  0  0  0  0  0  0  0  0
   11.2723  -16.3728   21.9271 O   0  0  0  0  0  0  0  0  0  0  0  0
    7.9724  -12.9408   16.9311 C   0  0  0  0  0  0  0  0  0  0  0  0
    7.7527  -14.0457   23.5842 C   0  0  2  0  0  0  0  0  0  0  0  0
    8.1385  -15.2363   24.4324 O   0  0  0  0  0  0  0  0  0  0  0  0
    7.1027  -16.2004   24.3851 C   0  0  2  0  0  0  0  0  0  0  0  0
    9.3877  -15.9318   23.9241 N   0  0  0  0  0  0  0  0  0  0  0  0
    9.0806  -16.2964   22.5409 C   0  0  0  0  0  0  0  0  0  0  0  0
    9.7759  -17.0903   24.7302 O   0  0  0  0  0  0  0  0  0  0  0  0
    9.7480  -18.2436   24.2278 N   0  0  0  0  0  0  0  0  0  0  0  0
   10.1990  -16.9987   26.0939 C   0  0  1  0  0  0  0  0  0  0  0  0
   10.6473  -18.1312   26.8775 C   0  0  0  0  0  0  0  0  0  0  0  0
   11.7444  -18.8561   26.1387 C   0  0  0  0  0  0  0  0  0  0  0  0
   12.3578  -19.9487   26.8964 O   0  0  0  0  0  0  0  0  0  0  0  0
   11.5708  -20.7840   27.4500 C   0  0  0  0  0  0  0  0  0  0  0  0
   11.0639  -17.7301   28.2287 O   0  0  0  0  0  0  0  0  0  0  0  0
   11.2072  -18.6841   29.2133 O   0  0  0  0  0  0  0  0  0  0  0  0
   13.6967  -20.1792   27.0799 O   0  0  0  0  0  0  0  0  0  0  0  0
  2  1  1  0
  3  2  2  0
  4  2  1  0
  5  4  1  0
  6  5  1  0
  7  6  1  0
  8 10  1  0
  8  7  1  0
  8  9  1  6
 10 11  2  0
 13 12  1  1
 13 14  1  0
 15 13  1  0
 16 10  1  0
 15 16  1  1
 17 19  1  0
 17 15  1  0
 18 17  2  0
 20 21  1  1
 20 19  1  0
 21 22  1  0
 22 26  1  0
 22 23  2  0
 24 20  1  0
 24 25  1  0
 27 24  2  0
M  END
$$$$
