RTD.pdb
     RDKit          3D

 27 26  0  0  1  0  0  0  0  0999 V2000
    8.7124  -13.0181   17.3178 N   0  0  0  0  0  0  0  0  0  0  0  0
    8.5488  -12.5880   18.6711 C   0  0  0  0  0  0  0  0  0  0  0  0
    9.5948  -12.1600   19.2959 N   0  0  0  0  0  0  0  0  0  0  0  0
    7.2897  -12.6222   19.3231 N   0  0  0  0  0  0  0  0  0  0  0  0
    6.9878  -13.4854   20.4142 C   0  0  0  0  0  0  0  0  0  0  0  0
    6.9676  -14.9364   20.0906 C   0  0  0  0  0  0  0  0  0  0  0  0
    7.5688  -15.8616   21.0716 C   0  0  0  0  0  0  0  0  0  0  0  0
    9.0131  -15.6349   21.3887 C   0  0  2  0  0  0  0  0  0  0  0  0
    9.6637  -15.0247   20.2656 N   0  0  0  0  0  0  0  0  0  0  0  0
    9.7308  -16.8704   21.7670 C   0  0  0  0  0  0  0  0  0  0  0  0
    9.2497  -17.6389   22.6544 O   0  0  0  0  0  0  0  0  0  0  0  0
    9.5397  -11.7347   20.2254 C   0  0  0  0  0  0  0  0  0  0  0  0
   13.0539  -20.3413   20.6237 C   0  0  2  0  0  0  0  0  0  0  0  0
   12.2637  -19.0788   20.3642 O   0  0  0  0  0  0  0  0  0  0  0  0
   11.1745  -19.3753   19.5096 C   0  0  1  0  0  0  0  0  0  0  0  0
   11.6621  -18.4989   21.6309 N   0  0  0  0  0  0  0  0  0  0  0  0
   10.9646  -17.2880   21.1977 C   0  0  0  0  0  0  0  0  0  0  0  0
   12.6538  -18.2254   22.6722 O   0  0  0  0  0  0  0  0  0  0  0  0
   13.4778  -17.2860   22.5245 N   0  0  0  0  0  0  0  0  0  0  0  0
   12.7537  -18.9766   23.8858 C   0  0  2  0  0  0  0  0  0  0  0  0
   13.7883  -18.7724   24.8784 C   0  0  0  0  0  0  0  0  0  0  0  0
   13.5415  -19.6753   26.0611 C   0  0  0  0  0  0  0  0  0  0  0  0
   14.5726  -19.6016   27.0980 O   0  0  0  0  0  0  0  0  0  0  0  0
   15.7311  -20.0379   26.7960 C   0  0  0  0  0  0  0  0  0  0  0  0
   15.1322  -18.9588   24.3131 O   0  0  0  0  0  0  0  0  0  0  0  0
   15.3565  -19.9623   23.3950 O   0  0  0  0  0  0  0  0  0  0  0  0
   14.4334  -19.1110   28.3705 O   0  0  0  0  0  0  0  0  0  0  0  0
  2  1  1  0
  3  2  2  0
  4  2  1  0
  5  4  1  0
  6  5  1  0
  7  6  1  0
  8 10  1  0
  8  7  1  0
  8  9  1  6
 10 11  2  0
 13 12  1  6
 13 14  1  0
 15 13  1  0
 16 10  1  0
 15 16  1  6
 17 19  1  0
 17 15  1  0
 18 17  2  0
 20 21  1  6
 20 19  1  0
 21 22  1  0
 22 26  1  0
 22 23  2  0
 24 20  1  0
 24 25  1  0
 27 24  2  0
M  END
$$$$
