RTD.pdb
     RDKit          3D

 27 26  0  0  1  0  0  0  0  0999 V2000
    9.3612  -14.8391   14.4653 N   0  0  0  0  0  0  0  0  0  0  0  0
    8.1378  -14.1431   14.2163 C   0  0  0  0  0  0  0  0  0  0  0  0
    7.5292  -14.3783   13.1018 N   0  0  0  0  0  0  0  0  0  0  0  0
    7.5943  -13.2225   15.1482 N   0  0  0  0  0  0  0  0  0  0  0  0
    8.1219  -13.0156   16.4542 C   0  0  0  0  0  0  0  0  0  0  0  0
    8.2177  -14.2333   17.3018 C   0  0  0  0  0  0  0  0  0  0  0  0
    8.6090  -14.0515   18.7138 C   0  0  0  0  0  0  0  0  0  0  0  0
    8.9001  -15.3023   19.4810 C   0  0  2  0  0  0  0  0  0  0  0  0
    7.7280  -16.1279   19.5206 N   0  0  0  0  0  0  0  0  0  0  0  0
    9.3751  -15.0483   20.8574 C   0  0  0  0  0  0  0  0  0  0  0  0
   10.4172  -14.3514   21.0520 O   0  0  0  0  0  0  0  0  0  0  0  0
    6.6887  -13.8663   12.8200 C   0  0  0  0  0  0  0  0  0  0  0  0
    7.3458  -13.6126   23.6116 C   0  0  2  0  0  0  0  0  0  0  0  0
    8.0146  -14.8474   24.1719 O   0  0  0  0  0  0  0  0  0  0  0  0
    7.1153  -15.9388   24.1039 C   0  0  2  0  0  0  0  0  0  0  0  0
    9.2390  -15.2577   23.3749 N   0  0  0  0  0  0  0  0  0  0  0  0
    8.7374  -15.5383   22.0295 C   0  0  0  0  0  0  0  0  0  0  0  0
    9.9509  -16.3996   23.9510 O   0  0  0  0  0  0  0  0  0  0  0  0
    9.6200  -17.5715   23.6343 N   0  0  0  0  0  0  0  0  0  0  0  0
   11.0324  -16.2708   24.8790 C   0  0  1  0  0  0  0  0  0  0  0  0
   11.7863  -17.3922   25.4001 C   0  0  0  0  0  0  0  0  0  0  0  0
   13.2381  -17.0070   25.5372 C   0  0  0  0  0  0  0  0  0  0  0  0
   13.9078  -16.7283   24.2652 O   0  0  0  0  0  0  0  0  0  0  0  0
   13.2370  -16.9281   23.2005 C   0  0  0  0  0  0  0  0  0  0  0  0
   11.2251  -17.8872   26.6651 O   0  0  0  0  0  0  0  0  0  0  0  0
   11.7019  -19.0579   27.2149 O   0  0  0  0  0  0  0  0  0  0  0  0
   15.1879  -16.2712   24.0864 O   0  0  0  0  0  0  0  0  0  0  0  0
  2  1  1  0
  3  2  2  0
  4  2  1  0
  5  4  1  0
  6  5  1  0
  7  6  1  0
  8 10  1  0
  8  7  1  0
  8  9  1  1
 10 11  2  0
 13 12  1  1
 13 14  1  0
 15 13  1  0
 16 10  1  0
 15 16  1  1
 17 19  1  0
 17 15  1  0
 18 17  2  0
 20 21  1  1
 20 19  1  0
 21 22  1  0
 22 26  1  0
 22 23  2  0
 24 20  1  0
 24 25  1  0
 27 24  2  0
M  END
$$$$
