RTD.pdb
     RDKit          3D

 27 26  0  0  1  0  0  0  0  0999 V2000
    8.6394  -15.4036   16.0863 N   0  0  0  0  0  0  0  0  0  0  0  0
    8.3955  -14.0874   15.5847 C   0  0  0  0  0  0  0  0  0  0  0  0
    8.6918  -13.8508   14.3502 N   0  0  0  0  0  0  0  0  0  0  0  0
    7.8476  -13.0632   16.3983 N   0  0  0  0  0  0  0  0  0  0  0  0
    7.4128  -13.2662   17.7387 C   0  0  0  0  0  0  0  0  0  0  0  0
    8.4963  -13.4900   18.7319 C   0  0  0  0  0  0  0  0  0  0  0  0
    8.1023  -13.6475   20.1460 C   0  0  0  0  0  0  0  0  0  0  0  0
    8.6232  -14.8654   20.8412 C   0  0  2  0  0  0  0  0  0  0  0  0
    8.0202  -16.0380   20.2769 N   0  0  0  0  0  0  0  0  0  0  0  0
    8.4000  -14.8466   22.3022 C   0  0  0  0  0  0  0  0  0  0  0  0
    7.4460  -14.1680   22.7910 O   0  0  0  0  0  0  0  0  0  0  0  0
    8.5459  -12.9335   13.9198 C   0  0  0  0  0  0  0  0  0  0  0  0
    6.4243  -15.9147   23.6013 C   0  0  2  0  0  0  0  0  0  0  0  0
    7.4618  -16.6506   24.4186 O   0  0  0  0  0  0  0  0  0  0  0  0
    7.8376  -17.8355   23.7409 C   0  0  2  0  0  0  0  0  0  0  0  0
    8.7351  -15.8459   24.6020 N   0  0  0  0  0  0  0  0  0  0  0  0
    9.1958  -15.5531   23.2446 C   0  0  0  0  0  0  0  0  0  0  0  0
    9.7511  -16.5396   25.3952 O   0  0  0  0  0  0  0  0  0  0  0  0
   10.4664  -17.4274   24.8627 N   0  0  0  0  0  0  0  0  0  0  0  0
    9.9952  -16.2687   26.7787 C   0  0  1  0  0  0  0  0  0  0  0  0
   10.8329  -17.0915   27.6265 C   0  0  0  0  0  0  0  0  0  0  0  0
   10.6755  -16.6627   29.0640 C   0  0  0  0  0  0  0  0  0  0  0  0
   11.5522  -17.3688   30.0004 O   0  0  0  0  0  0  0  0  0  0  0  0
   12.3498  -18.2326   29.5092 C   0  0  0  0  0  0  0  0  0  0  0  0
   10.5552  -18.5233   27.4445 O   0  0  0  0  0  0  0  0  0  0  0  0
   11.5913  -19.3949   27.1858 O   0  0  0  0  0  0  0  0  0  0  0  0
   11.6145  -17.2048   31.3600 O   0  0  0  0  0  0  0  0  0  0  0  0
  2  1  1  0
  3  2  2  0
  4  2  1  0
  5  4  1  0
  6  5  1  0
  7  6  1  0
  8 10  1  0
  8  7  1  0
  8  9  1  6
 10 11  2  0
 13 12  1  1
 13 14  1  0
 15 13  1  0
 16 10  1  0
 15 16  1  1
 17 19  1  0
 17 15  1  0
 18 17  2  0
 20 21  1  1
 20 19  1  0
 21 22  1  0
 22 26  1  0
 22 23  2  0
 24 20  1  0
 24 25  1  0
 27 24  2  0
M  END
$$$$
