LGG.pdb
     RDKit          3D

 17 16  0  0  1  0  0  0  0  0999 V2000
    5.7316  -11.2250   26.0051 C   0  0  0  0  0  0  0  0  0  0  0  0
    6.7876  -12.2865   25.9096 C   0  0  1  0  0  0  0  0  0  0  0  0
    7.6352  -12.2135   27.1538 C   0  0  0  0  0  0  0  0  0  0  0  0
    6.2302  -13.6726   25.7229 C   0  0  0  0  0  0  0  0  0  0  0  0
    7.3496  -14.6837   25.6978 C   0  0  2  0  0  0  0  0  0  0  0  0
    8.2072  -14.3706   24.5694 N   0  0  0  0  0  0  0  0  0  0  0  0
    6.7618  -16.0462   25.4852 C   0  0  0  0  0  0  0  0  0  0  0  0
    5.8370  -16.4643   26.2277 O   0  0  0  0  0  0  0  0  0  0  0  0
    7.2162  -16.9068   24.4550 N   0  0  0  0  0  0  0  0  0  0  0  0
    6.6938  -18.2669   24.3046 C   0  0  0  0  0  0  0  0  0  0  0  0
    7.1563  -19.1317   25.4166 C   0  0  0  0  0  0  0  0  0  0  0  0
    6.7772  -20.3294   25.4751 O   0  0  0  0  0  0  0  0  0  0  0  0
    8.0226  -18.6656   26.4380 N   0  0  0  0  0  0  0  0  0  0  0  0
    8.4828  -19.5035   27.5276 C   0  0  0  0  0  0  0  0  0  0  0  0
    9.8820  -19.9094   27.3023 C   0  0  0  0  0  0  0  0  0  0  0  0
   10.3006  -20.0854   26.1284 O   0  0  0  0  0  0  0  0  0  0  0  0
   10.7311  -20.0954   28.3860 O   0  0  0  0  0  0  0  0  0  0  0  0
  2  1  1  1
  2  3  1  0
  4  5  1  0
  4  2  1  0
  5  6  1  6
  7  5  1  0
  7  8  2  0
  9  7  1  0
 10  9  1  0
 10 11  1  0
 11 13  1  0
 11 12  2  0
 13 14  1  0
 14 15  1  0
 15 16  2  0
 15 17  1  0
M  END
$$$$
