LGG.pdb
     RDKit          3D

 17 16  0  0  1  0  0  0  0  0999 V2000
    8.6055  -12.4096   19.6448 C   0  0  0  0  0  0  0  0  0  0  0  0
    8.2297  -13.3330   20.7659 C   0  0  1  0  0  0  0  0  0  0  0  0
    6.7305  -13.4889   20.7583 C   0  0  0  0  0  0  0  0  0  0  0  0
    8.9073  -14.6754   20.6905 C   0  0  0  0  0  0  0  0  0  0  0  0
    8.5051  -15.5273   21.8690 C   0  0  2  0  0  0  0  0  0  0  0  0
    8.4278  -14.6663   23.0349 N   0  0  0  0  0  0  0  0  0  0  0  0
    9.5711  -16.5543   22.1056 C   0  0  0  0  0  0  0  0  0  0  0  0
   10.0122  -17.2462   21.1526 O   0  0  0  0  0  0  0  0  0  0  0  0
   10.1180  -16.7851   23.3924 N   0  0  0  0  0  0  0  0  0  0  0  0
   11.1036  -17.8424   23.6294 C   0  0  0  0  0  0  0  0  0  0  0  0
   12.4228  -17.2610   23.9755 C   0  0  0  0  0  0  0  0  0  0  0  0
   13.1950  -17.8821   24.7497 O   0  0  0  0  0  0  0  0  0  0  0  0
   12.8658  -16.0139   23.4662 N   0  0  0  0  0  0  0  0  0  0  0  0
   14.1561  -15.4400   23.7928 C   0  0  0  0  0  0  0  0  0  0  0  0
   15.1633  -15.8512   22.7980 C   0  0  0  0  0  0  0  0  0  0  0  0
   15.0340  -16.9481   22.1942 O   0  0  0  0  0  0  0  0  0  0  0  0
   16.2494  -15.0268   22.5319 O   0  0  0  0  0  0  0  0  0  0  0  0
  2  1  1  6
  2  3  1  0
  4  5  1  0
  4  2  1  0
  5  6  1  1
  7  5  1  0
  7  8  2  0
  9  7  1  0
 10  9  1  0
 10 11  1  0
 11 13  1  0
 11 12  2  0
 13 14  1  0
 14 15  1  0
 15 16  2  0
 15 17  1  0
M  END
$$$$
