LGG.pdb
     RDKit          3D

 17 16  0  0  1  0  0  0  0  0999 V2000
    7.2011  -12.8498   20.0123 C   0  0  0  0  0  0  0  0  0  0  0  0
    7.6806  -13.9452   20.9184 C   0  0  1  0  0  0  0  0  0  0  0  0
    8.8254  -14.6477   20.2345 C   0  0  0  0  0  0  0  0  0  0  0  0
    8.0902  -13.4590   22.2832 C   0  0  0  0  0  0  0  0  0  0  0  0
    8.4102  -14.6310   23.1778 C   0  0  2  0  0  0  0  0  0  0  0  0
    7.1922  -15.3997   23.3574 N   0  0  0  0  0  0  0  0  0  0  0  0
    8.8460  -14.1105   24.5143 C   0  0  0  0  0  0  0  0  0  0  0  0
    9.9657  -13.5536   24.6471 O   0  0  0  0  0  0  0  0  0  0  0  0
    8.0277  -14.2222   25.6659 N   0  0  0  0  0  0  0  0  0  0  0  0
    8.2987  -13.4464   26.8785 C   0  0  0  0  0  0  0  0  0  0  0  0
    9.1709  -14.2085   27.8041 C   0  0  0  0  0  0  0  0  0  0  0  0
    9.4492  -13.7317   28.9340 O   0  0  0  0  0  0  0  0  0  0  0  0
    9.7177  -15.4738   27.4714 N   0  0  0  0  0  0  0  0  0  0  0  0
   10.4623  -16.2857   28.4136 C   0  0  0  0  0  0  0  0  0  0  0  0
   10.9071  -17.5348   27.7695 C   0  0  0  0  0  0  0  0  0  0  0  0
   11.4019  -18.4570   28.4690 O   0  0  0  0  0  0  0  0  0  0  0  0
   10.7782  -17.6882   26.3948 O   0  0  0  0  0  0  0  0  0  0  0  0
  2  1  1  6
  2  3  1  0
  4  5  1  0
  4  2  1  0
  5  6  1  1
  7  5  1  0
  7  8  2  0
  9  7  1  0
 10  9  1  0
 10 11  1  0
 11 13  1  0
 11 12  2  0
 13 14  1  0
 14 15  1  0
 15 16  2  0
 15 17  1  0
M  END
$$$$
