LGG.pdb
     RDKit          3D

 17 16  0  0  1  0  0  0  0  0999 V2000
    6.3240  -11.6402   27.5210 C   0  0  0  0  0  0  0  0  0  0  0  0
    6.2673  -12.5695   26.3445 C   0  0  1  0  0  0  0  0  0  0  0  0
    6.2683  -11.7336   25.0903 C   0  0  0  0  0  0  0  0  0  0  0  0
    7.3885  -13.5740   26.3185 C   0  0  0  0  0  0  0  0  0  0  0  0
    7.3462  -14.3668   25.0355 C   0  0  2  0  0  0  0  0  0  0  0  0
    6.1471  -15.1845   25.0568 N   0  0  0  0  0  0  0  0  0  0  0  0
    8.5395  -15.2729   24.9909 C   0  0  0  0  0  0  0  0  0  0  0  0
    9.7027  -14.7976   25.0397 O   0  0  0  0  0  0  0  0  0  0  0  0
    8.4092  -16.6807   24.8933 N   0  0  0  0  0  0  0  0  0  0  0  0
    9.5786  -17.5524   24.7590 C   0  0  0  0  0  0  0  0  0  0  0  0
   10.4363  -17.1089   23.6339 C   0  0  0  0  0  0  0  0  0  0  0  0
   10.1182  -17.4025   22.4532 O   0  0  0  0  0  0  0  0  0  0  0  0
   11.6215  -16.3548   23.8274 N   0  0  0  0  0  0  0  0  0  0  0  0
   12.5374  -16.0317   22.7515 C   0  0  0  0  0  0  0  0  0  0  0  0
   13.8698  -16.5980   23.0292 C   0  0  0  0  0  0  0  0  0  0  0  0
   13.9750  -17.7964   23.3994 O   0  0  0  0  0  0  0  0  0  0  0  0
   15.0021  -15.8068   22.8812 O   0  0  0  0  0  0  0  0  0  0  0  0
  2  1  1  1
  2  3  1  0
  4  5  1  0
  4  2  1  0
  5  6  1  1
  7  5  1  0
  7  8  2  0
  9  7  1  0
 10  9  1  0
 10 11  1  0
 11 13  1  0
 11 12  2  0
 13 14  1  0
 14 15  1  0
 15 16  2  0
 15 17  1  0
M  END
$$$$
