LGG.pdb
     RDKit          3D

 17 16  0  0  1  0  0  0  0  0999 V2000
    7.5324  -12.1935   19.3161 C   0  0  0  0  0  0  0  0  0  0  0  0
    8.3624  -13.2380   20.0025 C   0  0  1  0  0  0  0  0  0  0  0  0
    8.0866  -13.1539   21.4819 C   0  0  0  0  0  0  0  0  0  0  0  0
    8.1156  -14.6323   19.4909 C   0  0  0  0  0  0  0  0  0  0  0  0
    9.2231  -15.5537   19.9390 C   0  0  2  0  0  0  0  0  0  0  0  0
    9.3532  -15.4261   21.3790 N   0  0  0  0  0  0  0  0  0  0  0  0
   10.5056  -15.1079   19.3039 C   0  0  0  0  0  0  0  0  0  0  0  0
   10.6924  -15.2606   18.0697 O   0  0  0  0  0  0  0  0  0  0  0  0
   11.5450  -14.5052   20.0554 N   0  0  0  0  0  0  0  0  0  0  0  0
   12.7812  -14.0411   19.4213 C   0  0  0  0  0  0  0  0  0  0  0  0
   13.9425  -14.8302   19.8974 C   0  0  0  0  0  0  0  0  0  0  0  0
   15.0984  -14.5471   19.4909 O   0  0  0  0  0  0  0  0  0  0  0  0
   13.8116  -15.9102   20.8070 N   0  0  0  0  0  0  0  0  0  0  0  0
   14.9457  -16.6501   21.3241 C   0  0  0  0  0  0  0  0  0  0  0  0
   15.1991  -16.2789   22.7280 C   0  0  0  0  0  0  0  0  0  0  0  0
   14.5061  -15.3797   23.2717 O   0  0  0  0  0  0  0  0  0  0  0  0
   16.2007  -16.9228   23.4438 O   0  0  0  0  0  0  0  0  0  0  0  0
  2  1  1  6
  2  3  1  0
  4  5  1  0
  4  2  1  0
  5  6  1  1
  7  5  1  0
  7  8  2  0
  9  7  1  0
 10  9  1  0
 10 11  1  0
 11 13  1  0
 11 12  2  0
 13 14  1  0
 14 15  1  0
 15 16  2  0
 15 17  1  0
M  END
$$$$
