LGG.pdb
     RDKit          3D

 17 16  0  0  1  0  0  0  0  0999 V2000
    7.3257  -12.2280   20.5652 C   0  0  0  0  0  0  0  0  0  0  0  0
    7.4688  -13.7159   20.6934 C   0  0  1  0  0  0  0  0  0  0  0  0
    7.9539  -14.2527   19.3712 C   0  0  0  0  0  0  0  0  0  0  0  0
    8.3865  -14.1366   21.8104 C   0  0  0  0  0  0  0  0  0  0  0  0
    8.4108  -15.6408   21.9243 C   0  0  2  0  0  0  0  0  0  0  0  0
    7.0511  -16.0915   22.1585 N   0  0  0  0  0  0  0  0  0  0  0  0
    9.2484  -16.0197   23.1082 C   0  0  0  0  0  0  0  0  0  0  0  0
    8.7398  -16.0760   24.2570 O   0  0  0  0  0  0  0  0  0  0  0  0
   10.6267  -16.3255   22.9850 N   0  0  0  0  0  0  0  0  0  0  0  0
   11.4452  -16.6643   24.1515 C   0  0  0  0  0  0  0  0  0  0  0  0
   12.8473  -16.2248   23.9532 C   0  0  0  0  0  0  0  0  0  0  0  0
   13.2423  -15.1474   24.4677 O   0  0  0  0  0  0  0  0  0  0  0  0
   13.7837  -16.9745   23.1970 N   0  0  0  0  0  0  0  0  0  0  0  0
   15.1233  -16.5033   22.9062 C   0  0  0  0  0  0  0  0  0  0  0  0
   15.8956  -17.5548   22.2200 C   0  0  0  0  0  0  0  0  0  0  0  0
   16.4592  -18.4567   22.8934 O   0  0  0  0  0  0  0  0  0  0  0  0
   15.9977  -17.5453   20.8346 O   0  0  0  0  0  0  0  0  0  0  0  0
  2  1  1  6
  2  3  1  0
  4  5  1  0
  4  2  1  0
  5  6  1  1
  7  5  1  0
  7  8  2  0
  9  7  1  0
 10  9  1  0
 10 11  1  0
 11 13  1  0
 11 12  2  0
 13 14  1  0
 14 15  1  0
 15 16  2  0
 15 17  1  0
M  END
$$$$
