LGG.pdb
     RDKit          3D

 17 16  0  0  1  0  0  0  0  0999 V2000
    6.8148  -11.8346   27.3186 C   0  0  0  0  0  0  0  0  0  0  0  0
    6.3604  -12.9939   26.4817 C   0  0  1  0  0  0  0  0  0  0  0  0
    5.6963  -12.4438   25.2454 C   0  0  0  0  0  0  0  0  0  0  0  0
    7.4714  -13.9416   26.1152 C   0  0  0  0  0  0  0  0  0  0  0  0
    6.9289  -15.0857   25.2949 C   0  0  2  0  0  0  0  0  0  0  0  0
    6.0018  -15.8301   26.1274 N   0  0  0  0  0  0  0  0  0  0  0  0
    8.0645  -15.9900   24.9212 C   0  0  0  0  0  0  0  0  0  0  0  0
    8.5502  -16.7853   25.7655 O   0  0  0  0  0  0  0  0  0  0  0  0
    8.6296  -15.9867   23.6216 N   0  0  0  0  0  0  0  0  0  0  0  0
    9.7240  -16.8899   23.2580 C   0  0  0  0  0  0  0  0  0  0  0  0
   11.0188  -16.1677   23.2502 C   0  0  0  0  0  0  0  0  0  0  0  0
   11.3373  -15.4469   24.2303 O   0  0  0  0  0  0  0  0  0  0  0  0
   11.9343  -16.2515   22.1705 N   0  0  0  0  0  0  0  0  0  0  0  0
   13.1462  -15.4596   22.0985 C   0  0  0  0  0  0  0  0  0  0  0  0
   14.2929  -16.2357   22.6042 C   0  0  0  0  0  0  0  0  0  0  0  0
   14.0927  -17.2654   23.3000 O   0  0  0  0  0  0  0  0  0  0  0  0
   15.5879  -15.8274   22.3106 O   0  0  0  0  0  0  0  0  0  0  0  0
  2  1  1  6
  2  3  1  0
  4  5  1  0
  4  2  1  0
  5  6  1  1
  7  5  1  0
  7  8  2  0
  9  7  1  0
 10  9  1  0
 10 11  1  0
 11 13  1  0
 11 12  2  0
 13 14  1  0
 14 15  1  0
 15 16  2  0
 15 17  1  0
M  END
$$$$
