LGG.pdb
     RDKit          3D

 17 16  0  0  1  0  0  0  0  0999 V2000
    6.8183  -12.6392   19.0695 C   0  0  0  0  0  0  0  0  0  0  0  0
    8.0897  -13.3966   19.3154 C   0  0  1  0  0  0  0  0  0  0  0  0
    9.2453  -12.4714   19.0315 C   0  0  0  0  0  0  0  0  0  0  0  0
    8.1898  -13.9662   20.7055 C   0  0  0  0  0  0  0  0  0  0  0  0
    9.4485  -14.7869   20.8413 C   0  0  2  0  0  0  0  0  0  0  0  0
    9.3934  -15.8527   19.8575 N   0  0  0  0  0  0  0  0  0  0  0  0
    9.4762  -15.4017   22.2081 C   0  0  0  0  0  0  0  0  0  0  0  0
    8.8454  -16.4642   22.4419 O   0  0  0  0  0  0  0  0  0  0  0  0
   10.2027  -14.8209   23.2773 N   0  0  0  0  0  0  0  0  0  0  0  0
   10.2335  -15.4342   24.6071 C   0  0  0  0  0  0  0  0  0  0  0  0
   11.4466  -16.2708   24.7703 C   0  0  0  0  0  0  0  0  0  0  0  0
   11.7116  -16.7739   25.8920 O   0  0  0  0  0  0  0  0  0  0  0  0
   12.3408  -16.5371   23.7024 N   0  0  0  0  0  0  0  0  0  0  0  0
   13.5088  -17.3840   23.8419 C   0  0  0  0  0  0  0  0  0  0  0  0
   14.7355  -16.5666   23.8284 C   0  0  0  0  0  0  0  0  0  0  0  0
   15.6929  -16.8884   23.0772 O   0  0  0  0  0  0  0  0  0  0  0  0
   14.8289  -15.4460   24.6441 O   0  0  0  0  0  0  0  0  0  0  0  0
  2  1  1  1
  2  3  1  0
  4  5  1  0
  4  2  1  0
  5  6  1  6
  7  5  1  0
  7  8  2  0
  9  7  1  0
 10  9  1  0
 10 11  1  0
 11 13  1  0
 11 12  2  0
 13 14  1  0
 14 15  1  0
 15 16  2  0
 15 17  1  0
M  END
$$$$
