LGG.pdb
     RDKit          3D

 17 16  0  0  1  0  0  0  0  0999 V2000
    6.6322  -12.8503   19.8643 C   0  0  0  0  0  0  0  0  0  0  0  0
    7.6806  -13.9229   19.8989 C   0  0  1  0  0  0  0  0  0  0  0  0
    8.7104  -13.6018   18.8461 C   0  0  0  0  0  0  0  0  0  0  0  0
    8.3282  -14.0859   21.2483 C   0  0  0  0  0  0  0  0  0  0  0  0
    9.3115  -15.2297   21.2179 C   0  0  2  0  0  0  0  0  0  0  0  0
    8.5607  -16.4573   21.0277 N   0  0  0  0  0  0  0  0  0  0  0  0
   10.0093  -15.2990   22.5428 C   0  0  0  0  0  0  0  0  0  0  0  0
   10.8349  -14.4107   22.8754 O   0  0  0  0  0  0  0  0  0  0  0  0
    9.7717  -16.3514   23.4616 N   0  0  0  0  0  0  0  0  0  0  0  0
   10.4531  -16.4081   24.7570 C   0  0  0  0  0  0  0  0  0  0  0  0
   11.8371  -16.9160   24.5992 C   0  0  0  0  0  0  0  0  0  0  0  0
   12.5368  -17.1478   25.6181 O   0  0  0  0  0  0  0  0  0  0  0  0
   12.4225  -17.1582   23.3306 N   0  0  0  0  0  0  0  0  0  0  0  0
   13.7376  -17.7449   23.1658 C   0  0  0  0  0  0  0  0  0  0  0  0
   14.7693  -16.6919   23.1676 C   0  0  0  0  0  0  0  0  0  0  0  0
   15.1417  -16.1834   24.2571 O   0  0  0  0  0  0  0  0  0  0  0  0
   15.3251  -16.2663   21.9676 O   0  0  0  0  0  0  0  0  0  0  0  0
  2  1  1  1
  2  3  1  0
  4  5  1  0
  4  2  1  0
  5  6  1  1
  7  5  1  0
  7  8  2  0
  9  7  1  0
 10  9  1  0
 10 11  1  0
 11 13  1  0
 11 12  2  0
 13 14  1  0
 14 15  1  0
 15 16  2  0
 15 17  1  0
M  END
$$$$
