LGG.pdb
     RDKit          3D

 17 16  0  0  1  0  0  0  0  0999 V2000
    5.2000  -11.5487   27.1148 C   0  0  0  0  0  0  0  0  0  0  0  0
    6.1586  -11.9744   26.0421 C   0  0  1  0  0  0  0  0  0  0  0  0
    7.3388  -11.0374   26.0735 C   0  0  0  0  0  0  0  0  0  0  0  0
    6.6083  -13.4054   26.1725 C   0  0  0  0  0  0  0  0  0  0  0  0
    7.6759  -13.7096   25.1508 C   0  0  2  0  0  0  0  0  0  0  0  0
    7.1353  -13.4067   23.8382 N   0  0  0  0  0  0  0  0  0  0  0  0
    7.9933  -15.1735   25.2086 C   0  0  0  0  0  0  0  0  0  0  0  0
    8.3215  -15.7119   26.2966 O   0  0  0  0  0  0  0  0  0  0  0  0
    7.9377  -15.9991   24.0581 N   0  0  0  0  0  0  0  0  0  0  0  0
    8.3739  -17.3969   24.0945 C   0  0  0  0  0  0  0  0  0  0  0  0
    9.8507  -17.4876   23.9999 C   0  0  0  0  0  0  0  0  0  0  0  0
   10.5245  -17.7842   25.0195 O   0  0  0  0  0  0  0  0  0  0  0  0
   10.5552  -17.2517   22.7920 N   0  0  0  0  0  0  0  0  0  0  0  0
   11.5320  -16.1914   22.6407 C   0  0  0  0  0  0  0  0  0  0  0  0
   12.8192  -16.5960   23.2344 C   0  0  0  0  0  0  0  0  0  0  0  0
   12.9217  -16.7151   24.4833 O   0  0  0  0  0  0  0  0  0  0  0  0
   13.9121  -16.8437   22.4133 O   0  0  0  0  0  0  0  0  0  0  0  0
  2  1  1  1
  2  3  1  0
  4  5  1  0
  4  2  1  0
  5  6  1  6
  7  5  1  0
  7  8  2  0
  9  7  1  0
 10  9  1  0
 10 11  1  0
 11 13  1  0
 11 12  2  0
 13 14  1  0
 14 15  1  0
 15 16  2  0
 15 17  1  0
M  END
$$$$
