IEF.pdb
     RDKit          3D

 29 29  0  0  1  0  0  0  0  0999 V2000
    7.1662  -11.6091   19.4383 C   0  0  0  0  0  0  0  0  0  0  0  0
    7.4787  -13.0720   19.2346 C   0  0  0  0  0  0  0  0  0  0  0  0
    7.7784  -13.7961   20.5430 C   0  0  2  0  0  0  0  0  0  0  0  0
    8.9113  -13.0803   21.2240 C   0  0  0  0  0  0  0  0  0  0  0  0
    8.0906  -15.2340   20.1966 C   0  0  2  0  0  0  0  0  0  0  0  0
    6.9183  -15.7724   19.5227 N   0  0  0  0  0  0  0  0  0  0  0  0
    8.4560  -16.0467   21.3762 C   0  0  0  0  0  0  0  0  0  0  0  0
    7.5494  -16.3766   22.1852 O   0  0  0  0  0  0  0  0  0  0  0  0
    9.7864  -16.4843   21.6535 N   0  0  0  0  0  0  0  0  0  0  0  0
   10.1290  -17.3598   22.7377 C   0  0  1  0  0  0  0  0  0  0  0  0
   11.5664  -17.8541   22.6571 C   0  0  0  0  0  0  0  0  0  0  0  0
   11.9103  -18.8425   23.7469 C   0  0  0  0  0  0  0  0  0  0  0  0
   12.7730  -19.8744   23.1293 C   0  0  0  0  0  0  0  0  0  0  0  0
   12.2774  -20.9916   22.8158 O   0  0  0  0  0  0  0  0  0  0  0  0
    9.9932  -16.6220   24.0198 C   0  0  0  0  0  0  0  0  0  0  0  0
   10.5443  -15.4823   24.1628 O   0  0  0  0  0  0  0  0  0  0  0  0
   14.1379  -19.7012   22.8643 O   0  0  0  0  0  0  0  0  0  0  0  0
    9.2641  -17.1297   25.1223 N   0  0  0  0  0  0  0  0  0  0  0  0
    9.2317  -16.4843   26.4303 C   0  0  1  0  0  0  0  0  0  0  0  0
    7.8015  -16.2094   26.8026 C   0  0  0  0  0  0  0  0  0  0  0  0
    7.4036  -14.8141   26.5561 C   0  0  0  0  0  0  0  0  0  0  0  0
    6.2332  -14.5682   25.8541 C   0  0  0  0  0  0  0  0  0  0  0  0
    5.8586  -13.2629   25.6395 C   0  0  0  0  0  0  0  0  0  0  0  0
    6.5648  -12.1783   26.0738 C   0  0  0  0  0  0  0  0  0  0  0  0
    7.7380  -12.4131   26.7785 C   0  0  0  0  0  0  0  0  0  0  0  0
    8.1341  -13.7363   27.0047 C   0  0  0  0  0  0  0  0  0  0  0  0
    9.9320  -17.2679   27.4420 C   0  0  0  0  0  0  0  0  0  0  0  0
   10.0801  -16.9417   28.6223 O   0  0  0  0  0  0  0  0  0  0  0  0
   10.4920  -18.5042   27.0527 O   0  0  0  0  0  0  0  0  0  0  0  0
  2  1  1  0
  2  3  1  0
  3  4  1  6
  5  3  1  0
  5  6  1  1
  7  5  1  0
  7  8  2  0
  9  7  1  0
 10 15  1  0
 10  9  1  0
 10 11  1  6
 12 11  1  0
 12 13  1  0
 13 14  2  0
 15 18  1  0
 16 15  2  0
 17 13  1  0
 18 19  1  0
 19 27  1  0
 20 21  1  0
 19 20  1  1
 21 26  2  0
 22 23  2  0
 22 21  1  0
 23 24  1  0
 24 25  2  0
 26 25  1  0
 27 28  2  0
 27 29  1  0
M  END
$$$$
