IEF.pdb
     RDKit          3D

 29 29  0  0  1  0  0  0  0  0999 V2000
    7.2315  -11.7194   19.6911 C   0  0  0  0  0  0  0  0  0  0  0  0
    7.4884  -13.1868   19.4462 C   0  0  0  0  0  0  0  0  0  0  0  0
    7.7866  -13.9530   20.7307 C   0  0  2  0  0  0  0  0  0  0  0  0
    8.8864  -13.2325   21.4596 C   0  0  0  0  0  0  0  0  0  0  0  0
    8.1465  -15.3666   20.3345 C   0  0  2  0  0  0  0  0  0  0  0  0
    6.9776  -15.9345   19.6792 N   0  0  0  0  0  0  0  0  0  0  0  0
    8.5795  -16.1956   21.4794 C   0  0  0  0  0  0  0  0  0  0  0  0
    7.7007  -16.6738   22.2438 O   0  0  0  0  0  0  0  0  0  0  0  0
    9.9459  -16.4895   21.7709 N   0  0  0  0  0  0  0  0  0  0  0  0
   10.3674  -17.3405   22.8467 C   0  0  1  0  0  0  0  0  0  0  0  0
   11.8212  -17.7716   22.7149 C   0  0  0  0  0  0  0  0  0  0  0  0
   12.2470  -18.7415   23.7924 C   0  0  0  0  0  0  0  0  0  0  0  0
   12.8023  -19.9275   23.1028 C   0  0  0  0  0  0  0  0  0  0  0  0
   12.4002  -21.0788   23.4265 O   0  0  0  0  0  0  0  0  0  0  0  0
   10.2472  -16.5994   24.1285 C   0  0  0  0  0  0  0  0  0  0  0  0
   10.9870  -15.5868   24.3530 O   0  0  0  0  0  0  0  0  0  0  0  0
   13.7720  -19.8665   22.0933 O   0  0  0  0  0  0  0  0  0  0  0  0
    9.3296  -16.9664   25.1425 N   0  0  0  0  0  0  0  0  0  0  0  0
    9.2922  -16.3378   26.4585 C   0  0  1  0  0  0  0  0  0  0  0  0
    7.8797  -15.9206   26.7592 C   0  0  0  0  0  0  0  0  0  0  0  0
    7.6022  -14.5252   26.3828 C   0  0  0  0  0  0  0  0  0  0  0  0
    6.4296  -14.2389   25.7000 C   0  0  0  0  0  0  0  0  0  0  0  0
    6.1684  -12.9316   25.3640 C   0  0  0  0  0  0  0  0  0  0  0  0
    6.9907  -11.8823   25.6583 C   0  0  0  0  0  0  0  0  0  0  0  0
    8.1672  -12.1576   26.3425 C   0  0  0  0  0  0  0  0  0  0  0  0
    8.4486  -13.4835   26.6912 C   0  0  0  0  0  0  0  0  0  0  0  0
    9.8516  -17.2026   27.4915 C   0  0  0  0  0  0  0  0  0  0  0  0
   10.0134  -16.8906   28.6739 O   0  0  0  0  0  0  0  0  0  0  0  0
   10.2450  -18.5074   27.1224 O   0  0  0  0  0  0  0  0  0  0  0  0
  2  1  1  0
  2  3  1  0
  3  4  1  6
  5  3  1  0
  5  6  1  1
  7  5  1  0
  7  8  2  0
  9  7  1  0
 10 15  1  0
 10  9  1  0
 10 11  1  6
 12 11  1  0
 12 13  1  0
 13 14  2  0
 15 18  1  0
 16 15  2  0
 17 13  1  0
 18 19  1  0
 19 27  1  0
 20 21  1  0
 19 20  1  1
 21 26  2  0
 22 23  2  0
 22 21  1  0
 23 24  1  0
 24 25  2  0
 26 25  1  0
 27 28  2  0
 27 29  1  0
M  END
$$$$
