IEF.pdb
     RDKit          3D

 29 29  0  0  1  0  0  0  0  0999 V2000
    7.9947  -11.9845   21.0369 C   0  0  0  0  0  0  0  0  0  0  0  0
    8.4589  -13.4128   20.8829 C   0  0  0  0  0  0  0  0  0  0  0  0
    7.3159  -14.3703   20.5627 C   0  0  2  0  0  0  0  0  0  0  0  0
    6.2653  -14.2159   21.6267 C   0  0  0  0  0  0  0  0  0  0  0  0
    7.9048  -15.7606   20.4894 C   0  0  2  0  0  0  0  0  0  0  0  0
    6.8570  -16.6397   19.9918 N   0  0  0  0  0  0  0  0  0  0  0  0
    8.4354  -16.2329   21.7858 C   0  0  0  0  0  0  0  0  0  0  0  0
    7.6454  -16.7872   22.5945 O   0  0  0  0  0  0  0  0  0  0  0  0
    9.8016  -16.0979   22.1775 N   0  0  0  0  0  0  0  0  0  0  0  0
   10.4285  -16.9102   23.1807 C   0  0  1  0  0  0  0  0  0  0  0  0
   11.9029  -17.1573   22.8947 C   0  0  0  0  0  0  0  0  0  0  0  0
   12.5263  -18.1562   23.8416 C   0  0  0  0  0  0  0  0  0  0  0  0
   13.9388  -18.3114   23.4277 C   0  0  0  0  0  0  0  0  0  0  0  0
   14.2280  -19.1091   22.4939 O   0  0  0  0  0  0  0  0  0  0  0  0
   10.3495  -16.2129   24.4900 C   0  0  0  0  0  0  0  0  0  0  0  0
   10.9390  -15.0957   24.6556 O   0  0  0  0  0  0  0  0  0  0  0  0
   15.0093  -17.6242   24.0150 O   0  0  0  0  0  0  0  0  0  0  0  0
    9.6347  -16.7359   25.5947 N   0  0  0  0  0  0  0  0  0  0  0  0
    9.6682  -16.1430   26.9273 C   0  0  1  0  0  0  0  0  0  0  0  0
    8.2764  -15.7218   27.3082 C   0  0  0  0  0  0  0  0  0  0  0  0
    7.8499  -14.4823   26.6391 C   0  0  0  0  0  0  0  0  0  0  0  0
    8.4303  -13.2830   27.0236 C   0  0  0  0  0  0  0  0  0  0  0  0
    8.0390  -12.1300   26.3849 C   0  0  0  0  0  0  0  0  0  0  0  0
    7.1089  -12.0810   25.3869 C   0  0  0  0  0  0  0  0  0  0  0  0
    6.5220  -13.2763   24.9934 C   0  0  0  0  0  0  0  0  0  0  0  0
    6.9086  -14.4590   25.6342 C   0  0  0  0  0  0  0  0  0  0  0  0
   10.2687  -17.0406   27.9079 C   0  0  0  0  0  0  0  0  0  0  0  0
   10.4525  -16.7774   29.0989 O   0  0  0  0  0  0  0  0  0  0  0  0
   10.6787  -18.3196   27.4724 O   0  0  0  0  0  0  0  0  0  0  0  0
  2  1  1  0
  2  3  1  0
  3  4  1  1
  5  3  1  0
  5  6  1  1
  7  5  1  0
  7  8  2  0
  9  7  1  0
 10 15  1  0
 10  9  1  0
 10 11  1  6
 12 11  1  0
 12 13  1  0
 13 14  2  0
 15 18  1  0
 16 15  2  0
 17 13  1  0
 18 19  1  0
 19 27  1  0
 20 21  1  0
 19 20  1  1
 21 26  2  0
 22 23  2  0
 22 21  1  0
 23 24  1  0
 24 25  2  0
 26 25  1  0
 27 28  2  0
 27 29  1  0
M  END
$$$$
