IEF.pdb
     RDKit          3D

 29 29  0  0  1  0  0  0  0  0999 V2000
    7.3305  -11.7832   18.7096 C   0  0  0  0  0  0  0  0  0  0  0  0
    8.1311  -13.0410   18.9465 C   0  0  0  0  0  0  0  0  0  0  0  0
    7.7512  -13.7428   20.2461 C   0  0  2  0  0  0  0  0  0  0  0  0
    7.9027  -12.7570   21.3708 C   0  0  0  0  0  0  0  0  0  0  0  0
    8.6452  -14.9546   20.3775 C   0  0  2  0  0  0  0  0  0  0  0  0
    8.4966  -15.7266   19.1527 N   0  0  0  0  0  0  0  0  0  0  0  0
    8.3400  -15.7717   21.5711 C   0  0  0  0  0  0  0  0  0  0  0  0
    7.2022  -15.6652   22.0996 O   0  0  0  0  0  0  0  0  0  0  0  0
    9.2659  -16.6827   22.1635 N   0  0  0  0  0  0  0  0  0  0  0  0
    8.9646  -17.4970   23.3061 C   0  0  1  0  0  0  0  0  0  0  0  0
    9.5775  -18.8870   23.2105 C   0  0  0  0  0  0  0  0  0  0  0  0
   10.9516  -18.8819   22.5824 C   0  0  0  0  0  0  0  0  0  0  0  0
   11.4003  -20.2912   22.5277 C   0  0  0  0  0  0  0  0  0  0  0  0
   12.2834  -20.6933   23.3342 O   0  0  0  0  0  0  0  0  0  0  0  0
    9.5269  -16.8555   24.5222 C   0  0  0  0  0  0  0  0  0  0  0  0
   10.6431  -16.2441   24.4641 O   0  0  0  0  0  0  0  0  0  0  0  0
   10.9085  -21.2373   21.6187 O   0  0  0  0  0  0  0  0  0  0  0  0
    8.8721  -16.8866   25.7772 N   0  0  0  0  0  0  0  0  0  0  0  0
    9.4820  -16.4105   27.0140 C   0  0  1  0  0  0  0  0  0  0  0  0
    8.4698  -15.6023   27.7768 C   0  0  0  0  0  0  0  0  0  0  0  0
    8.0618  -14.3790   27.0676 C   0  0  0  0  0  0  0  0  0  0  0  0
    6.8485  -14.3704   26.3961 C   0  0  0  0  0  0  0  0  0  0  0  0
    6.4654  -13.2202   25.7477 C   0  0  0  0  0  0  0  0  0  0  0  0
    7.2028  -12.0717   25.7176 C   0  0  0  0  0  0  0  0  0  0  0  0
    8.4191  -12.0690   26.3875 C   0  0  0  0  0  0  0  0  0  0  0  0
    8.8243  -13.2324   27.0519 C   0  0  0  0  0  0  0  0  0  0  0  0
   10.0348  -17.5045   27.8051 C   0  0  0  0  0  0  0  0  0  0  0  0
    9.8965  -18.7052   27.5586 O   0  0  0  0  0  0  0  0  0  0  0  0
   10.7927  -17.1774   28.9505 O   0  0  0  0  0  0  0  0  0  0  0  0
  2  1  1  0
  2  3  1  0
  3  4  1  1
  5  3  1  0
  5  6  1  6
  7  5  1  0
  7  8  2  0
  9  7  1  0
 10 15  1  0
 10  9  1  0
 10 11  1  6
 12 11  1  0
 12 13  1  0
 13 14  2  0
 15 18  1  0
 16 15  2  0
 17 13  1  0
 18 19  1  0
 19 27  1  0
 20 21  1  0
 19 20  1  1
 21 26  2  0
 22 23  2  0
 22 21  1  0
 23 24  1  0
 24 25  2  0
 26 25  1  0
 27 28  2  0
 27 29  1  0
M  END
$$$$
