IEF.pdb
     RDKit          3D

 29 29  0  0  1  0  0  0  0  0999 V2000
    7.5618  -12.0407   22.4185 C   0  0  0  0  0  0  0  0  0  0  0  0
    7.3749  -13.4996   22.0782 C   0  0  0  0  0  0  0  0  0  0  0  0
    8.2010  -13.9315   20.8712 C   0  0  2  0  0  0  0  0  0  0  0  0
    7.7428  -13.1339   19.6822 C   0  0  0  0  0  0  0  0  0  0  0  0
    8.0115  -15.4225   20.7104 C   0  0  2  0  0  0  0  0  0  0  0  0
    6.5887  -15.6500   20.5053 N   0  0  0  0  0  0  0  0  0  0  0  0
    8.5218  -16.1976   21.8612 C   0  0  0  0  0  0  0  0  0  0  0  0
    7.6976  -16.6337   22.7073 O   0  0  0  0  0  0  0  0  0  0  0  0
    9.9046  -16.4845   22.0707 N   0  0  0  0  0  0  0  0  0  0  0  0
   10.3990  -17.2804   23.1576 C   0  0  1  0  0  0  0  0  0  0  0  0
   11.6592  -18.0512   22.7909 C   0  0  0  0  0  0  0  0  0  0  0  0
   11.4195  -19.0991   21.7291 C   0  0  0  0  0  0  0  0  0  0  0  0
   12.7376  -19.4097   21.1319 C   0  0  0  0  0  0  0  0  0  0  0  0
   13.4389  -20.3363   21.6233 O   0  0  0  0  0  0  0  0  0  0  0  0
   10.7486  -16.3888   24.2932 C   0  0  0  0  0  0  0  0  0  0  0  0
   11.7062  -15.5561   24.1807 O   0  0  0  0  0  0  0  0  0  0  0  0
   13.2827  -18.7296   20.0349 O   0  0  0  0  0  0  0  0  0  0  0  0
   10.0563  -16.4138   25.5281 N   0  0  0  0  0  0  0  0  0  0  0  0
   10.6303  -15.9352   26.7811 C   0  0  1  0  0  0  0  0  0  0  0  0
   10.5155  -14.4371   26.8287 C   0  0  0  0  0  0  0  0  0  0  0  0
    9.1430  -13.9603   26.5943 C   0  0  0  0  0  0  0  0  0  0  0  0
    8.7185  -12.8072   27.2372 C   0  0  0  0  0  0  0  0  0  0  0  0
    7.4404  -12.3580   27.0031 C   0  0  0  0  0  0  0  0  0  0  0  0
    6.5485  -12.9732   26.1725 C   0  0  0  0  0  0  0  0  0  0  0  0
    6.9635  -14.1282   25.5229 C   0  0  0  0  0  0  0  0  0  0  0  0
    8.2615  -14.5994   25.7511 C   0  0  0  0  0  0  0  0  0  0  0  0
   10.0223  -16.5795   27.9400 C   0  0  0  0  0  0  0  0  0  0  0  0
    9.0917  -17.3883   27.9014 O   0  0  0  0  0  0  0  0  0  0  0  0
   10.5302  -16.2608   29.2182 O   0  0  0  0  0  0  0  0  0  0  0  0
  2  1  1  0
  2  3  1  0
  3  4  1  6
  5  3  1  0
  5  6  1  1
  7  5  1  0
  7  8  2  0
  9  7  1  0
 10 15  1  0
 10  9  1  0
 10 11  1  6
 12 11  1  0
 12 13  1  0
 13 14  2  0
 15 18  1  0
 16 15  2  0
 17 13  1  0
 18 19  1  0
 19 27  1  0
 20 21  1  0
 19 20  1  1
 21 26  2  0
 22 23  2  0
 22 21  1  0
 23 24  1  0
 24 25  2  0
 26 25  1  0
 27 28  2  0
 27 29  1  0
M  END
$$$$
