IEF.pdb
     RDKit          3D

 29 29  0  0  1  0  0  0  0  0999 V2000
    6.7315  -11.6587   19.9118 C   0  0  0  0  0  0  0  0  0  0  0  0
    7.0489  -13.1070   19.6275 C   0  0  0  0  0  0  0  0  0  0  0  0
    7.3860  -13.8930   20.8902 C   0  0  2  0  0  0  0  0  0  0  0  0
    8.5165  -13.1911   21.5894 C   0  0  0  0  0  0  0  0  0  0  0  0
    7.7203  -15.3038   20.4624 C   0  0  2  0  0  0  0  0  0  0  0  0
    6.5071  -15.8743   19.8958 N   0  0  0  0  0  0  0  0  0  0  0  0
    8.2425  -16.1348   21.5679 C   0  0  0  0  0  0  0  0  0  0  0  0
    7.4213  -16.7167   22.3244 O   0  0  0  0  0  0  0  0  0  0  0  0
    9.6338  -16.3192   21.8294 N   0  0  0  0  0  0  0  0  0  0  0  0
   10.1465  -17.2053   22.8351 C   0  0  1  0  0  0  0  0  0  0  0  0
   11.6161  -17.5406   22.6238 C   0  0  0  0  0  0  0  0  0  0  0  0
   12.1770  -18.4335   23.7059 C   0  0  0  0  0  0  0  0  0  0  0  0
   13.5830  -18.7153   23.3393 C   0  0  0  0  0  0  0  0  0  0  0  0
   14.3243  -19.3339   24.1517 O   0  0  0  0  0  0  0  0  0  0  0  0
   10.0359  -16.5492   24.1632 C   0  0  0  0  0  0  0  0  0  0  0  0
   10.5449  -15.3965   24.3509 O   0  0  0  0  0  0  0  0  0  0  0  0
   14.1706  -18.3313   22.1268 O   0  0  0  0  0  0  0  0  0  0  0  0
    9.3770  -17.1510   25.2625 N   0  0  0  0  0  0  0  0  0  0  0  0
    9.4048  -16.6031   26.6144 C   0  0  1  0  0  0  0  0  0  0  0  0
    8.0176  -16.1625   26.9901 C   0  0  0  0  0  0  0  0  0  0  0  0
    7.7879  -14.7285   26.7516 C   0  0  0  0  0  0  0  0  0  0  0  0
    6.6259  -14.3379   26.1033 C   0  0  0  0  0  0  0  0  0  0  0  0
    6.4094  -12.9960   25.8963 C   0  0  0  0  0  0  0  0  0  0  0  0
    7.2667  -12.0087   26.2886 C   0  0  0  0  0  0  0  0  0  0  0  0
    8.4329  -12.3887   26.9394 C   0  0  0  0  0  0  0  0  0  0  0  0
    8.6690  -13.7510   27.1571 C   0  0  0  0  0  0  0  0  0  0  0  0
    9.9707  -17.5459   27.5728 C   0  0  0  0  0  0  0  0  0  0  0  0
   10.1278  -17.3324   28.7775 O   0  0  0  0  0  0  0  0  0  0  0  0
   10.3771  -18.8115   27.0969 O   0  0  0  0  0  0  0  0  0  0  0  0
  2  1  1  0
  2  3  1  0
  3  4  1  6
  5  3  1  0
  5  6  1  1
  7  5  1  0
  7  8  2  0
  9  7  1  0
 10 15  1  0
 10  9  1  0
 10 11  1  6
 12 11  1  0
 12 13  1  0
 13 14  2  0
 15 18  1  0
 16 15  2  0
 17 13  1  0
 18 19  1  0
 19 27  1  0
 20 21  1  0
 19 20  1  1
 21 26  2  0
 22 23  2  0
 22 21  1  0
 23 24  1  0
 24 25  2  0
 26 25  1  0
 27 28  2  0
 27 29  1  0
M  END
$$$$
