QYG.pdb
     RDKit          3D

 26 26  0  0  1  0  0  0  0  0999 V2000
    8.8520  -12.3533   18.7146 N   0  0  0  0  0  0  0  0  0  0  0  0
    7.7901  -13.2255   18.2538 C   0  0  0  0  0  0  0  0  0  0  0  0
    7.5232  -13.1837   17.0385 O   0  0  0  0  0  0  0  0  0  0  0  0
    7.0901  -14.1029   19.2136 C   0  0  0  0  0  0  0  0  0  0  0  0
    7.5817  -14.0594   20.6060 C   0  0  0  0  0  0  0  0  0  0  0  0
    8.2025  -15.2828   21.1640 C   0  0  2  0  0  0  0  0  0  0  0  0
    7.3935  -16.4502   21.2434 N   0  0  0  0  0  0  0  0  0  0  0  0
    8.9113  -15.0185   22.4612 C   0  0  0  0  0  0  0  0  0  0  0  0
    9.7322  -14.0683   22.5438 O   0  0  0  0  0  0  0  0  0  0  0  0
    5.8490  -10.5029   26.6969 O   0  0  0  0  0  0  0  0  0  0  0  0
    6.5232  -11.7137   26.5385 C   0  0  0  0  0  0  0  0  0  0  0  0
    5.8176  -12.8001   26.0813 C   0  0  0  0  0  0  0  0  0  0  0  0
    6.4477  -14.0331   25.9063 C   0  0  0  0  0  0  0  0  0  0  0  0
    7.7853  -14.2004   26.1839 C   0  0  0  0  0  0  0  0  0  0  0  0
    8.4725  -15.4978   26.0159 C   0  0  0  0  0  0  0  0  0  0  0  0
    9.4172  -15.5093   24.8395 C   0  0  2  0  0  0  0  0  0  0  0  0
    8.6784  -15.8178   23.6066 N   0  0  0  0  0  0  0  0  0  0  0  0
   10.4955  -16.5146   25.0030 C   0  0  0  0  0  0  0  0  0  0  0  0
   11.3205  -16.4697   25.9473 O   0  0  0  0  0  0  0  0  0  0  0  0
    8.4864  -13.0841   26.6477 C   0  0  0  0  0  0  0  0  0  0  0  0
    7.8537  -11.8712   26.8166 C   0  0  0  0  0  0  0  0  0  0  0  0
   10.6463  -17.6043   24.0699 N   0  0  0  0  0  0  0  0  0  0  0  0
   11.6465  -18.6316   24.2506 C   0  0  0  0  0  0  0  0  0  0  0  0
   11.4358  -19.4025   25.4962 C   0  0  0  0  0  0  0  0  0  0  0  0
   11.6489  -20.7692   25.5393 O   0  0  0  0  0  0  0  0  0  0  0  0
   11.0569  -18.8311   26.5473 O   0  0  0  0  0  0  0  0  0  0  0  0
  1  2  1  0
  2  3  2  0
  4  2  1  0
  5  4  1  0
  6  5  1  0
  6  8  1  0
  6  7  1  1
  8  9  2  0
 10 11  1  0
 11 12  2  0
 12 13  1  0
 14 13  2  0
 14 15  1  0
 16 15  1  1
 16 18  1  0
 17  8  1  0
 17 16  1  0
 18 22  1  0
 19 18  2  0
 20 14  1  0
 21 11  1  0
 21 20  2  0
 22 23  1  0
 24 25  1  0
 24 23  1  0
 26 24  2  0
M  END
$$$$
