QYG.pdb
     RDKit          3D

 26 26  0  0  1  0  0  0  0  0999 V2000
    9.8413  -14.2858   15.4184 N   0  0  0  0  0  0  0  0  0  0  0  0
    8.4023  -14.3182   15.2482 C   0  0  0  0  0  0  0  0  0  0  0  0
    7.9797  -14.7594   14.1635 O   0  0  0  0  0  0  0  0  0  0  0  0
    7.5221  -13.8433   16.3348 C   0  0  0  0  0  0  0  0  0  0  0  0
    8.1929  -13.4952   17.6042 C   0  0  0  0  0  0  0  0  0  0  0  0
    8.5163  -14.5925   18.5449 C   0  0  2  0  0  0  0  0  0  0  0  0
    7.8463  -15.8336   18.3588 N   0  0  0  0  0  0  0  0  0  0  0  0
    8.4570  -14.1476   19.9778 C   0  0  0  0  0  0  0  0  0  0  0  0
    8.9725  -13.0500   20.3145 O   0  0  0  0  0  0  0  0  0  0  0  0
    7.0747  -12.5151   28.3893 O   0  0  0  0  0  0  0  0  0  0  0  0
    6.9793  -12.9014   27.0524 C   0  0  0  0  0  0  0  0  0  0  0  0
    6.5812  -14.1854   26.7696 C   0  0  0  0  0  0  0  0  0  0  0  0
    6.4706  -14.6192   25.4477 C   0  0  0  0  0  0  0  0  0  0  0  0
    6.7545  -13.7825   24.3924 C   0  0  0  0  0  0  0  0  0  0  0  0
    6.6542  -14.2213   22.9849 C   0  0  0  0  0  0  0  0  0  0  0  0
    7.9961  -14.5547   22.3810 C   0  0  2  0  0  0  0  0  0  0  0  0
    7.8298  -14.9378   20.9715 N   0  0  0  0  0  0  0  0  0  0  0  0
    8.6641  -15.6708   23.0937 C   0  0  0  0  0  0  0  0  0  0  0  0
    8.0635  -16.7286   23.4015 O   0  0  0  0  0  0  0  0  0  0  0  0
    7.1577  -12.4803   24.6998 C   0  0  0  0  0  0  0  0  0  0  0  0
    7.2633  -12.0628   26.0092 C   0  0  0  0  0  0  0  0  0  0  0  0
   10.0542  -15.5888   23.4704 N   0  0  0  0  0  0  0  0  0  0  0  0
   10.7319  -16.6804   24.1319 C   0  0  0  0  0  0  0  0  0  0  0  0
   12.1469  -16.3620   24.4262 C   0  0  0  0  0  0  0  0  0  0  0  0
   12.9515  -17.2459   25.1236 O   0  0  0  0  0  0  0  0  0  0  0  0
   12.6519  -15.2772   24.0477 O   0  0  0  0  0  0  0  0  0  0  0  0
  1  2  1  0
  2  3  2  0
  4  2  1  0
  5  4  1  0
  6  5  1  0
  6  8  1  0
  6  7  1  1
  8  9  2  0
 10 11  1  0
 11 12  2  0
 12 13  1  0
 14 13  2  0
 14 15  1  0
 16 15  1  1
 16 18  1  0
 17  8  1  0
 17 16  1  0
 18 22  1  0
 19 18  2  0
 20 14  1  0
 21 11  1  0
 21 20  2  0
 22 23  1  0
 24 25  1  0
 24 23  1  0
 26 24  2  0
M  END
$$$$
