QYG.pdb
     RDKit          3D

 26 26  0  0  1  0  0  0  0  0999 V2000
   13.5921  -14.9359   15.5579 N   0  0  0  0  0  0  0  0  0  0  0  0
   13.2039  -16.2653   15.1306 C   0  0  0  0  0  0  0  0  0  0  0  0
   13.7306  -16.6903   14.0856 O   0  0  0  0  0  0  0  0  0  0  0  0
   12.2311  -17.0395   15.9276 C   0  0  0  0  0  0  0  0  0  0  0  0
   11.6843  -16.3583   17.1190 C   0  0  0  0  0  0  0  0  0  0  0  0
   11.6263  -17.1169   18.3898 C   0  0  2  0  0  0  0  0  0  0  0  0
   10.7234  -18.2141   18.4570 N   0  0  0  0  0  0  0  0  0  0  0  0
   11.4830  -16.2158   19.5825 C   0  0  0  0  0  0  0  0  0  0  0  0
   12.2994  -15.2743   19.7575 O   0  0  0  0  0  0  0  0  0  0  0  0
    7.0552  -12.1552   17.4635 O   0  0  0  0  0  0  0  0  0  0  0  0
    7.5232  -12.8826   18.5578 C   0  0  0  0  0  0  0  0  0  0  0  0
    8.3672  -12.2594   19.4446 C   0  0  0  0  0  0  0  0  0  0  0  0
    8.8622  -12.9451   20.5549 C   0  0  0  0  0  0  0  0  0  0  0  0
    8.5244  -14.2573   20.7962 C   0  0  0  0  0  0  0  0  0  0  0  0
    9.0429  -15.0074   21.9590 C   0  0  0  0  0  0  0  0  0  0  0  0
   10.4303  -15.5539   21.7289 C   0  0  2  0  0  0  0  0  0  0  0  0
   10.4428  -16.3986   20.5258 N   0  0  0  0  0  0  0  0  0  0  0  0
   10.9047  -16.3660   22.8758 C   0  0  0  0  0  0  0  0  0  0  0  0
   10.2364  -17.3159   23.3505 O   0  0  0  0  0  0  0  0  0  0  0  0
    7.6648  -14.8743   19.8834 C   0  0  0  0  0  0  0  0  0  0  0  0
    7.1820  -14.1871   18.7904 C   0  0  0  0  0  0  0  0  0  0  0  0
   12.1739  -16.0959   23.5061 N   0  0  0  0  0  0  0  0  0  0  0  0
   12.7916  -17.0361   24.4131 C   0  0  0  0  0  0  0  0  0  0  0  0
   14.1620  -16.6264   24.7931 C   0  0  0  0  0  0  0  0  0  0  0  0
   14.5570  -16.5844   26.1187 O   0  0  0  0  0  0  0  0  0  0  0  0
   15.0015  -16.3061   23.9169 O   0  0  0  0  0  0  0  0  0  0  0  0
  1  2  1  0
  2  3  2  0
  4  2  1  0
  5  4  1  0
  6  5  1  0
  6  8  1  0
  6  7  1  6
  8  9  2  0
 10 11  1  0
 11 12  2  0
 12 13  1  0
 14 13  2  0
 14 15  1  0
 16 15  1  1
 16 18  1  0
 17  8  1  0
 17 16  1  0
 18 22  1  0
 19 18  2  0
 20 14  1  0
 21 11  1  0
 21 20  2  0
 22 23  1  0
 24 25  1  0
 24 23  1  0
 26 24  2  0
M  END
$$$$
