QYG.pdb
     RDKit          3D

 26 26  0  0  1  0  0  0  0  0999 V2000
   10.8228  -20.8054   18.0285 N   0  0  0  0  0  0  0  0  0  0  0  0
   11.0944  -19.3850   17.9327 C   0  0  0  0  0  0  0  0  0  0  0  0
   12.2374  -19.0135   18.2575 O   0  0  0  0  0  0  0  0  0  0  0  0
   10.0384  -18.4637   17.4665 C   0  0  0  0  0  0  0  0  0  0  0  0
    9.7024  -17.3514   18.3788 C   0  0  0  0  0  0  0  0  0  0  0  0
    8.8303  -17.6423   19.5400 C   0  0  2  0  0  0  0  0  0  0  0  0
    7.4899  -18.0349   19.2705 N   0  0  0  0  0  0  0  0  0  0  0  0
    8.8853  -16.5573   20.5768 C   0  0  0  0  0  0  0  0  0  0  0  0
    9.6651  -15.5819   20.4215 O   0  0  0  0  0  0  0  0  0  0  0  0
    6.9991  -11.2163   27.3229 O   0  0  0  0  0  0  0  0  0  0  0  0
    6.9676  -12.1214   26.2619 C   0  0  0  0  0  0  0  0  0  0  0  0
    6.4769  -13.3834   26.4934 C   0  0  0  0  0  0  0  0  0  0  0  0
    6.4248  -14.3245   25.4640 C   0  0  0  0  0  0  0  0  0  0  0  0
    6.8598  -14.0223   24.1938 C   0  0  0  0  0  0  0  0  0  0  0  0
    6.8238  -15.0042   23.0901 C   0  0  0  0  0  0  0  0  0  0  0  0
    8.1942  -15.5150   22.7190 C   0  0  2  0  0  0  0  0  0  0  0  0
    8.0746  -16.6023   21.7369 N   0  0  0  0  0  0  0  0  0  0  0  0
    8.9336  -16.0283   23.8979 C   0  0  0  0  0  0  0  0  0  0  0  0
    8.5709  -17.0514   24.5271 O   0  0  0  0  0  0  0  0  0  0  0  0
    7.3554  -12.7337   23.9775 C   0  0  0  0  0  0  0  0  0  0  0  0
    7.4019  -11.8124   25.0017 C   0  0  0  0  0  0  0  0  0  0  0  0
   10.1198  -15.3645   24.3808 N   0  0  0  0  0  0  0  0  0  0  0  0
   10.8457  -15.8420   25.5355 C   0  0  0  0  0  0  0  0  0  0  0  0
   12.0681  -16.5858   25.1576 C   0  0  0  0  0  0  0  0  0  0  0  0
   12.0050  -17.7068   24.3487 O   0  0  0  0  0  0  0  0  0  0  0  0
   13.1958  -16.2146   25.5646 O   0  0  0  0  0  0  0  0  0  0  0  0
  1  2  1  0
  2  3  2  0
  4  2  1  0
  5  4  1  0
  6  5  1  0
  6  8  1  0
  6  7  1  6
  8  9  2  0
 10 11  1  0
 11 12  2  0
 12 13  1  0
 14 13  2  0
 14 15  1  0
 16 15  1  1
 16 18  1  0
 17  8  1  0
 17 16  1  0
 18 22  1  0
 19 18  2  0
 20 14  1  0
 21 11  1  0
 21 20  2  0
 22 23  1  0
 24 25  1  0
 24 23  1  0
 26 24  2  0
M  END
$$$$
