QYG.pdb
     RDKit          3D

 26 26  0  0  1  0  0  0  0  0999 V2000
    8.0915  -21.9821   24.2356 N   0  0  0  0  0  0  0  0  0  0  0  0
    7.6106  -22.7066   23.0761 C   0  0  0  0  0  0  0  0  0  0  0  0
    7.2597  -23.8864   23.2628 O   0  0  0  0  0  0  0  0  0  0  0  0
    7.5558  -22.0371   21.7608 C   0  0  0  0  0  0  0  0  0  0  0  0
    7.8679  -20.5931   21.7574 C   0  0  0  0  0  0  0  0  0  0  0  0
    6.7381  -19.6365   21.7145 C   0  0  2  0  0  0  0  0  0  0  0  0
    6.0098  -19.5371   20.4966 N   0  0  0  0  0  0  0  0  0  0  0  0
    7.1220  -18.2813   22.2352 C   0  0  0  0  0  0  0  0  0  0  0  0
    7.6761  -17.4503   21.4696 O   0  0  0  0  0  0  0  0  0  0  0  0
    7.8960  -10.8815   26.8949 O   0  0  0  0  0  0  0  0  0  0  0  0
    7.5379  -12.1616   26.4723 C   0  0  0  0  0  0  0  0  0  0  0  0
    8.3081  -13.2238   26.8790 C   0  0  0  0  0  0  0  0  0  0  0  0
    7.9905  -14.5238   26.4824 C   0  0  0  0  0  0  0  0  0  0  0  0
    6.9046  -14.7825   25.6774 C   0  0  0  0  0  0  0  0  0  0  0  0
    6.5536  -16.1486   25.2364 C   0  0  0  0  0  0  0  0  0  0  0  0
    7.3614  -16.6026   24.0457 C   0  0  2  0  0  0  0  0  0  0  0  0
    6.8747  -17.9088   23.5787 N   0  0  0  0  0  0  0  0  0  0  0  0
    8.8037  -16.7286   24.3684 C   0  0  0  0  0  0  0  0  0  0  0  0
    9.2460  -17.6124   25.1415 O   0  0  0  0  0  0  0  0  0  0  0  0
    6.1331  -13.6895   25.2740 C   0  0  0  0  0  0  0  0  0  0  0  0
    6.4562  -12.4100   25.6719 C   0  0  0  0  0  0  0  0  0  0  0  0
    9.7762  -15.8277   23.7997 N   0  0  0  0  0  0  0  0  0  0  0  0
   11.1888  -16.1325   23.7952 C   0  0  0  0  0  0  0  0  0  0  0  0
   11.8593  -15.6881   25.0374 C   0  0  0  0  0  0  0  0  0  0  0  0
   12.5226  -14.4752   25.1006 O   0  0  0  0  0  0  0  0  0  0  0  0
   11.8414  -16.4051   26.0672 O   0  0  0  0  0  0  0  0  0  0  0  0
  1  2  1  0
  2  3  2  0
  4  2  1  0
  5  4  1  0
  6  5  1  0
  6  8  1  0
  6  7  1  6
  8  9  2  0
 10 11  1  0
 11 12  2  0
 12 13  1  0
 14 13  2  0
 14 15  1  0
 16 15  1  1
 16 18  1  0
 17  8  1  0
 17 16  1  0
 18 22  1  0
 19 18  2  0
 20 14  1  0
 21 11  1  0
 21 20  2  0
 22 23  1  0
 24 25  1  0
 24 23  1  0
 26 24  2  0
M  END
$$$$
