QYG.pdb
     RDKit          3D

 26 26  0  0  1  0  0  0  0  0999 V2000
    6.2263  -17.3241   18.3601 N   0  0  0  0  0  0  0  0  0  0  0  0
    7.5404  -16.8008   18.0440 C   0  0  0  0  0  0  0  0  0  0  0  0
    8.2206  -17.4565   17.2333 O   0  0  0  0  0  0  0  0  0  0  0  0
    8.0051  -15.5489   18.6748 C   0  0  0  0  0  0  0  0  0  0  0  0
    7.0732  -14.9254   19.6367 C   0  0  0  0  0  0  0  0  0  0  0  0
    7.4896  -13.6646   20.2928 C   0  0  2  0  0  0  0  0  0  0  0  0
    8.1813  -12.7096   19.4971 N   0  0  0  0  0  0  0  0  0  0  0  0
    8.1980  -13.9091   21.5941 C   0  0  0  0  0  0  0  0  0  0  0  0
    9.4530  -13.8331   21.6478 O   0  0  0  0  0  0  0  0  0  0  0  0
   10.4336  -14.9728   30.0078 O   0  0  0  0  0  0  0  0  0  0  0  0
    9.7037  -14.8034   28.8313 C   0  0  0  0  0  0  0  0  0  0  0  0
    9.7384  -13.5782   28.2109 C   0  0  0  0  0  0  0  0  0  0  0  0
    9.0249  -13.3594   27.0316 C   0  0  0  0  0  0  0  0  0  0  0  0
    8.2690  -14.3550   26.4558 C   0  0  0  0  0  0  0  0  0  0  0  0
    7.4973  -14.1449   25.2132 C   0  0  0  0  0  0  0  0  0  0  0  0
    8.2464  -14.5863   23.9800 C   0  0  2  0  0  0  0  0  0  0  0  0
    7.4845  -14.2263   22.7754 N   0  0  0  0  0  0  0  0  0  0  0  0
    8.4794  -16.0510   23.9661 C   0  0  0  0  0  0  0  0  0  0  0  0
    7.5501  -16.8820   24.1082 O   0  0  0  0  0  0  0  0  0  0  0  0
    8.2460  -15.5943   27.1010 C   0  0  0  0  0  0  0  0  0  0  0  0
    8.9549  -15.7990   28.2654 C   0  0  0  0  0  0  0  0  0  0  0  0
    9.8039  -16.5934   23.7862 N   0  0  0  0  0  0  0  0  0  0  0  0
   10.8696  -16.3341   24.7271 C   0  0  0  0  0  0  0  0  0  0  0  0
   12.1757  -16.8335   24.2421 C   0  0  0  0  0  0  0  0  0  0  0  0
   12.8614  -17.8260   24.9201 O   0  0  0  0  0  0  0  0  0  0  0  0
   12.6937  -16.3654   23.1992 O   0  0  0  0  0  0  0  0  0  0  0  0
  1  2  1  0
  2  3  2  0
  4  2  1  0
  5  4  1  0
  6  5  1  0
  6  8  1  0
  6  7  1  6
  8  9  2  0
 10 11  1  0
 11 12  2  0
 12 13  1  0
 14 13  2  0
 14 15  1  0
 16 15  1  1
 16 18  1  0
 17  8  1  0
 17 16  1  0
 18 22  1  0
 19 18  2  0
 20 14  1  0
 21 11  1  0
 21 20  2  0
 22 23  1  0
 24 25  1  0
 24 23  1  0
 26 24  2  0
M  END
$$$$
