QYG.pdb
     RDKit          3D

 26 26  0  0  1  0  0  0  0  0999 V2000
    7.8414  -18.1844   19.5700 N   0  0  0  0  0  0  0  0  0  0  0  0
    7.2034  -17.4500   18.4956 C   0  0  0  0  0  0  0  0  0  0  0  0
    6.5148  -18.1143   17.6992 O   0  0  0  0  0  0  0  0  0  0  0  0
    7.3879  -15.9883   18.3927 C   0  0  0  0  0  0  0  0  0  0  0  0
    8.2093  -15.3647   19.4506 C   0  0  0  0  0  0  0  0  0  0  0  0
    7.6149  -14.2547   20.2304 C   0  0  2  0  0  0  0  0  0  0  0  0
    7.4273  -13.0124   19.5632 N   0  0  0  0  0  0  0  0  0  0  0  0
    8.2926  -14.0669   21.5572 C   0  0  0  0  0  0  0  0  0  0  0  0
    9.4096  -13.4900   21.6137 O   0  0  0  0  0  0  0  0  0  0  0  0
   10.5983  -14.8322   30.0390 O   0  0  0  0  0  0  0  0  0  0  0  0
    9.8785  -14.6993   28.8517 C   0  0  0  0  0  0  0  0  0  0  0  0
    9.3387  -15.8279   28.2844 C   0  0  0  0  0  0  0  0  0  0  0  0
    8.6103  -15.7463   27.0967 C   0  0  0  0  0  0  0  0  0  0  0  0
    8.4103  -14.5429   26.4595 C   0  0  0  0  0  0  0  0  0  0  0  0
    7.6512  -14.4323   25.1966 C   0  0  0  0  0  0  0  0  0  0  0  0
    8.5277  -14.5658   23.9757 C   0  0  2  0  0  0  0  0  0  0  0  0
    7.7025  -14.5260   22.7597 N   0  0  0  0  0  0  0  0  0  0  0  0
    9.2952  -15.8350   23.9791 C   0  0  0  0  0  0  0  0  0  0  0  0
    8.7378  -16.9589   23.9956 O   0  0  0  0  0  0  0  0  0  0  0  0
    8.9667  -13.4060   27.0517 C   0  0  0  0  0  0  0  0  0  0  0  0
    9.6842  -13.4985   28.2250 C   0  0  0  0  0  0  0  0  0  0  0  0
   10.7377  -15.8338   23.9635 N   0  0  0  0  0  0  0  0  0  0  0  0
   11.5054  -17.0276   24.2349 C   0  0  0  0  0  0  0  0  0  0  0  0
   12.9581  -16.8094   24.0555 C   0  0  0  0  0  0  0  0  0  0  0  0
   13.7185  -17.6531   23.2649 O   0  0  0  0  0  0  0  0  0  0  0  0
   13.5365  -15.8490   24.6195 O   0  0  0  0  0  0  0  0  0  0  0  0
  1  2  1  0
  2  3  2  0
  4  2  1  0
  5  4  1  0
  6  5  1  0
  6  8  1  0
  6  7  1  6
  8  9  2  0
 10 11  1  0
 11 12  2  0
 12 13  1  0
 14 13  2  0
 14 15  1  0
 16 15  1  1
 16 18  1  0
 17  8  1  0
 17 16  1  0
 18 22  1  0
 19 18  2  0
 20 14  1  0
 21 11  1  0
 21 20  2  0
 22 23  1  0
 24 25  1  0
 24 23  1  0
 26 24  2  0
M  END
$$$$
