QYG.pdb
     RDKit          3D

 26 26  0  0  1  0  0  0  0  0999 V2000
    9.8069  -17.8301   20.0914 N   0  0  0  0  0  0  0  0  0  0  0  0
    8.3889  -18.0108   19.8516 C   0  0  0  0  0  0  0  0  0  0  0  0
    7.9841  -19.1848   19.7644 O   0  0  0  0  0  0  0  0  0  0  0  0
    7.5078  -16.8322   19.7261 C   0  0  0  0  0  0  0  0  0  0  0  0
    8.1532  -15.5187   19.9281 C   0  0  0  0  0  0  0  0  0  0  0  0
    7.5493  -14.5897   20.9109 C   0  0  2  0  0  0  0  0  0  0  0  0
    7.0967  -13.3301   20.4293 N   0  0  0  0  0  0  0  0  0  0  0  0
    8.3981  -14.4333   22.1397 C   0  0  0  0  0  0  0  0  0  0  0  0
    9.2824  -13.5388   22.1802 O   0  0  0  0  0  0  0  0  0  0  0  0
    6.0631  -10.1352   27.1230 O   0  0  0  0  0  0  0  0  0  0  0  0
    6.6501  -11.3507   26.7710 C   0  0  0  0  0  0  0  0  0  0  0  0
    5.8386  -12.4484   26.6172 C   0  0  0  0  0  0  0  0  0  0  0  0
    6.3786  -13.6864   26.2658 C   0  0  0  0  0  0  0  0  0  0  0  0
    7.7304  -13.8476   26.0637 C   0  0  0  0  0  0  0  0  0  0  0  0
    8.3269  -15.1499   25.7006 C   0  0  0  0  0  0  0  0  0  0  0  0
    9.1220  -15.0903   24.4196 C   0  0  2  0  0  0  0  0  0  0  0  0
    8.2288  -15.2740   23.2665 N   0  0  0  0  0  0  0  0  0  0  0  0
   10.1728  -16.1358   24.3689 C   0  0  0  0  0  0  0  0  0  0  0  0
   11.1094  -16.1901   25.2021 O   0  0  0  0  0  0  0  0  0  0  0  0
    8.5397  -12.7198   26.2245 C   0  0  0  0  0  0  0  0  0  0  0  0
    7.9953  -11.5020   26.5717 C   0  0  0  0  0  0  0  0  0  0  0  0
   10.1649  -17.1515   23.3446 N   0  0  0  0  0  0  0  0  0  0  0  0
   11.1596  -18.1988   23.2998 C   0  0  0  0  0  0  0  0  0  0  0  0
   11.1040  -19.0723   24.4932 C   0  0  0  0  0  0  0  0  0  0  0  0
   11.9810  -20.1313   24.6493 O   0  0  0  0  0  0  0  0  0  0  0  0
   10.2554  -18.8712   25.3957 O   0  0  0  0  0  0  0  0  0  0  0  0
  1  2  1  0
  2  3  2  0
  4  2  1  0
  5  4  1  0
  6  5  1  0
  6  8  1  0
  6  7  1  6
  8  9  2  0
 10 11  1  0
 11 12  2  0
 12 13  1  0
 14 13  2  0
 14 15  1  0
 16 15  1  1
 16 18  1  0
 17  8  1  0
 17 16  1  0
 18 22  1  0
 19 18  2  0
 20 14  1  0
 21 11  1  0
 21 20  2  0
 22 23  1  0
 24 25  1  0
 24 23  1  0
 26 24  2  0
M  END
$$$$
