QYG.pdb
     RDKit          3D

 26 26  0  0  1  0  0  0  0  0999 V2000
    9.1304  -19.0897   16.7078 N   0  0  0  0  0  0  0  0  0  0  0  0
    9.0172  -17.7209   17.1705 C   0  0  0  0  0  0  0  0  0  0  0  0
    7.8996  -17.1846   17.0550 O   0  0  0  0  0  0  0  0  0  0  0  0
   10.1946  -17.0384   17.7443 C   0  0  0  0  0  0  0  0  0  0  0  0
    9.9444  -16.2228   18.9504 C   0  0  0  0  0  0  0  0  0  0  0  0
    9.8870  -16.9140   20.2590 C   0  0  2  0  0  0  0  0  0  0  0  0
    9.0659  -18.0718   20.3529 N   0  0  0  0  0  0  0  0  0  0  0  0
    9.6250  -15.9636   21.3918 C   0  0  0  0  0  0  0  0  0  0  0  0
   10.2967  -14.9037   21.4878 O   0  0  0  0  0  0  0  0  0  0  0  0
    6.5626  -11.1952   28.0055 O   0  0  0  0  0  0  0  0  0  0  0  0
    6.7693  -11.9728   26.8661 C   0  0  0  0  0  0  0  0  0  0  0  0
    6.0906  -13.1619   26.7541 C   0  0  0  0  0  0  0  0  0  0  0  0
    6.2638  -13.9749   25.6330 C   0  0  0  0  0  0  0  0  0  0  0  0
    7.1132  -13.6159   24.6113 C   0  0  0  0  0  0  0  0  0  0  0  0
    7.3206  -14.4641   23.4192 C   0  0  0  0  0  0  0  0  0  0  0  0
    8.5404  -15.3447   23.5351 C   0  0  2  0  0  0  0  0  0  0  0  0
    8.6319  -16.2302   22.3653 N   0  0  0  0  0  0  0  0  0  0  0  0
    8.5048  -16.1851   24.7567 C   0  0  0  0  0  0  0  0  0  0  0  0
    7.6146  -17.0466   24.9556 O   0  0  0  0  0  0  0  0  0  0  0  0
    7.7946  -12.4031   24.7431 C   0  0  0  0  0  0  0  0  0  0  0  0
    7.6156  -11.6080   25.8547 C   0  0  0  0  0  0  0  0  0  0  0  0
    9.5063  -16.0473   25.7857 N   0  0  0  0  0  0  0  0  0  0  0  0
   10.9193  -16.0635   25.4831 C   0  0  0  0  0  0  0  0  0  0  0  0
   11.5056  -17.4146   25.6287 C   0  0  0  0  0  0  0  0  0  0  0  0
   10.8924  -18.5263   25.0783 O   0  0  0  0  0  0  0  0  0  0  0  0
   12.5781  -17.5834   26.2583 O   0  0  0  0  0  0  0  0  0  0  0  0
  1  2  1  0
  2  3  2  0
  4  2  1  0
  5  4  1  0
  6  5  1  0
  6  8  1  0
  6  7  1  6
  8  9  2  0
 10 11  1  0
 11 12  2  0
 12 13  1  0
 14 13  2  0
 14 15  1  0
 16 15  1  6
 16 18  1  0
 17  8  1  0
 17 16  1  0
 18 22  1  0
 19 18  2  0
 20 14  1  0
 21 11  1  0
 21 20  2  0
 22 23  1  0
 24 25  1  0
 24 23  1  0
 26 24  2  0
M  END
$$$$
