QYG.pdb
     RDKit          3D

 26 26  0  0  1  0  0  0  0  0999 V2000
    8.6125  -13.0349   14.4640 N   0  0  0  0  0  0  0  0  0  0  0  0
    8.4105  -14.2353   15.2507 C   0  0  0  0  0  0  0  0  0  0  0  0
    9.0143  -15.2565   14.8733 O   0  0  0  0  0  0  0  0  0  0  0  0
    7.5258  -14.2002   16.4327 C   0  0  0  0  0  0  0  0  0  0  0  0
    8.1858  -13.9261   17.7258 C   0  0  0  0  0  0  0  0  0  0  0  0
    8.4216  -15.0651   18.6426 C   0  0  2  0  0  0  0  0  0  0  0  0
    7.5444  -16.1803   18.5410 N   0  0  0  0  0  0  0  0  0  0  0  0
    8.5813  -14.6221   20.0685 C   0  0  0  0  0  0  0  0  0  0  0  0
    9.4928  -13.8096   20.3734 O   0  0  0  0  0  0  0  0  0  0  0  0
    7.3275  -12.4685   28.4773 O   0  0  0  0  0  0  0  0  0  0  0  0
    7.1616  -12.9212   27.1685 C   0  0  0  0  0  0  0  0  0  0  0  0
    7.4409  -12.0575   26.1374 C   0  0  0  0  0  0  0  0  0  0  0  0
    7.2904  -12.4638   24.8107 C   0  0  0  0  0  0  0  0  0  0  0  0
    6.8606  -13.7323   24.4938 C   0  0  0  0  0  0  0  0  0  0  0  0
    6.6843  -14.1827   23.0975 C   0  0  0  0  0  0  0  0  0  0  0  0
    7.9713  -14.6622   22.4726 C   0  0  2  0  0  0  0  0  0  0  0  0
    7.7249  -15.0986   21.0905 N   0  0  0  0  0  0  0  0  0  0  0  0
    8.5643  -15.7960   23.2227 C   0  0  0  0  0  0  0  0  0  0  0  0
    7.9417  -16.8654   23.4301 O   0  0  0  0  0  0  0  0  0  0  0  0
    6.5816  -14.5966   25.5558 C   0  0  0  0  0  0  0  0  0  0  0  0
    6.7340  -14.1844   26.8623 C   0  0  0  0  0  0  0  0  0  0  0  0
    9.9027  -15.7186   23.7553 N   0  0  0  0  0  0  0  0  0  0  0  0
   10.4888  -16.8037   24.5086 C   0  0  0  0  0  0  0  0  0  0  0  0
   11.8646  -16.4924   24.9566 C   0  0  0  0  0  0  0  0  0  0  0  0
   12.5607  -17.3523   25.7879 O   0  0  0  0  0  0  0  0  0  0  0  0
   12.4341  -15.4356   24.5908 O   0  0  0  0  0  0  0  0  0  0  0  0
  1  2  1  0
  2  3  2  0
  4  2  1  0
  5  4  1  0
  6  5  1  0
  6  8  1  0
  6  7  1  1
  8  9  2  0
 10 11  1  0
 11 12  2  0
 12 13  1  0
 14 13  2  0
 14 15  1  0
 16 15  1  1
 16 18  1  0
 17  8  1  0
 17 16  1  0
 18 22  1  0
 19 18  2  0
 20 14  1  0
 21 11  1  0
 21 20  2  0
 22 23  1  0
 24 25  1  0
 24 23  1  0
 26 24  2  0
M  END
$$$$
