QYG.pdb
     RDKit          3D

 26 26  0  0  1  0  0  0  0  0999 V2000
    9.3189  -18.6383   17.3649 N   0  0  0  0  0  0  0  0  0  0  0  0
    7.8767  -18.7512   17.2765 C   0  0  0  0  0  0  0  0  0  0  0  0
    7.4327  -19.6965   16.5987 O   0  0  0  0  0  0  0  0  0  0  0  0
    7.0179  -17.7726   17.9734 C   0  0  0  0  0  0  0  0  0  0  0  0
    7.7220  -16.7495   18.7735 C   0  0  0  0  0  0  0  0  0  0  0  0
    8.3728  -17.1768   20.0333 C   0  0  2  0  0  0  0  0  0  0  0  0
    7.9159  -18.3848   20.6297 N   0  0  0  0  0  0  0  0  0  0  0  0
    8.4483  -16.0641   21.0389 C   0  0  0  0  0  0  0  0  0  0  0  0
    8.8479  -14.9250   20.6833 O   0  0  0  0  0  0  0  0  0  0  0  0
    6.7750  -10.6466   27.6967 O   0  0  0  0  0  0  0  0  0  0  0  0
    6.8222  -11.7592   26.8567 C   0  0  0  0  0  0  0  0  0  0  0  0
    7.6251  -12.8149   27.2142 C   0  0  0  0  0  0  0  0  0  0  0  0
    7.7060  -13.9504   26.4067 C   0  0  0  0  0  0  0  0  0  0  0  0
    6.9905  -14.0494   25.2352 C   0  0  0  0  0  0  0  0  0  0  0  0
    7.0668  -15.2368   24.3589 C   0  0  0  0  0  0  0  0  0  0  0  0
    8.1491  -15.1217   23.3139 C   0  0  2  0  0  0  0  0  0  0  0  0
    8.0778  -16.2637   22.3909 N   0  0  0  0  0  0  0  0  0  0  0  0
    9.5035  -15.0918   23.9178 C   0  0  0  0  0  0  0  0  0  0  0  0
    9.7993  -14.3305   24.8703 O   0  0  0  0  0  0  0  0  0  0  0  0
    6.1793  -12.9658   24.8882 C   0  0  0  0  0  0  0  0  0  0  0  0
    6.1072  -11.8495   25.6936 C   0  0  0  0  0  0  0  0  0  0  0  0
   10.5562  -15.9489   23.4300 N   0  0  0  0  0  0  0  0  0  0  0  0
   11.8748  -15.9513   24.0213 C   0  0  0  0  0  0  0  0  0  0  0  0
   12.7769  -16.9264   23.3690 C   0  0  0  0  0  0  0  0  0  0  0  0
   14.0113  -16.5432   22.8746 O   0  0  0  0  0  0  0  0  0  0  0  0
   12.4409  -18.1296   23.2488 O   0  0  0  0  0  0  0  0  0  0  0  0
  1  2  1  0
  2  3  2  0
  4  2  1  0
  5  4  1  0
  6  5  1  0
  6  8  1  0
  6  7  1  1
  8  9  2  0
 10 11  1  0
 11 12  2  0
 12 13  1  0
 14 13  2  0
 14 15  1  0
 16 15  1  1
 16 18  1  0
 17  8  1  0
 17 16  1  0
 18 22  1  0
 19 18  2  0
 20 14  1  0
 21 11  1  0
 21 20  2  0
 22 23  1  0
 24 25  1  0
 24 23  1  0
 26 24  2  0
M  END
$$$$
