QYG.pdb
     RDKit          3D

 26 26  0  0  1  0  0  0  0  0999 V2000
    6.5994  -12.7960   18.8636 N   0  0  0  0  0  0  0  0  0  0  0  0
    7.9482  -13.3122   18.9867 C   0  0  0  0  0  0  0  0  0  0  0  0
    8.8588  -12.6103   18.5091 O   0  0  0  0  0  0  0  0  0  0  0  0
    8.1818  -14.6085   19.6546 C   0  0  0  0  0  0  0  0  0  0  0  0
    8.3146  -14.5629   21.1253 C   0  0  0  0  0  0  0  0  0  0  0  0
    8.6328  -15.8231   21.8353 C   0  0  2  0  0  0  0  0  0  0  0  0
    7.6124  -16.8119   21.9041 N   0  0  0  0  0  0  0  0  0  0  0  0
    9.2473  -15.5756   23.1829 C   0  0  0  0  0  0  0  0  0  0  0  0
   10.1707  -14.7292   23.3040 O   0  0  0  0  0  0  0  0  0  0  0  0
    5.9630  -10.5100   26.4242 O   0  0  0  0  0  0  0  0  0  0  0  0
    6.5567  -11.7708   26.4837 C   0  0  0  0  0  0  0  0  0  0  0  0
    5.7864  -12.8706   26.1933 C   0  0  0  0  0  0  0  0  0  0  0  0
    6.3348  -14.1532   26.2392 C   0  0  0  0  0  0  0  0  0  0  0  0
    7.6540  -14.3573   26.5743 C   0  0  0  0  0  0  0  0  0  0  0  0
    8.2549  -15.7058   26.6390 C   0  0  0  0  0  0  0  0  0  0  0  0
    9.3691  -15.8963   25.6396 C   0  0  2  0  0  0  0  0  0  0  0  0
    8.8113  -16.2761   24.3336 N   0  0  0  0  0  0  0  0  0  0  0  0
   10.3230  -16.9493   26.0653 C   0  0  0  0  0  0  0  0  0  0  0  0
   11.0166  -16.8488   27.1060 O   0  0  0  0  0  0  0  0  0  0  0  0
    8.4216  -13.2267   26.8662 C   0  0  0  0  0  0  0  0  0  0  0  0
    7.8694  -11.9647   26.8176 C   0  0  0  0  0  0  0  0  0  0  0  0
   10.4985  -18.1534   25.2905 N   0  0  0  0  0  0  0  0  0  0  0  0
   11.3680  -19.2222   25.7265 C   0  0  0  0  0  0  0  0  0  0  0  0
   10.9044  -19.8381   26.9899 C   0  0  0  0  0  0  0  0  0  0  0  0
   10.6592  -21.1972   27.0782 O   0  0  0  0  0  0  0  0  0  0  0  0
   10.7223  -19.1379   28.0153 O   0  0  0  0  0  0  0  0  0  0  0  0
  1  2  1  0
  2  3  2  0
  4  2  1  0
  5  4  1  0
  6  5  1  0
  6  8  1  0
  6  7  1  1
  8  9  2  0
 10 11  1  0
 11 12  2  0
 12 13  1  0
 14 13  2  0
 14 15  1  0
 16 15  1  1
 16 18  1  0
 17  8  1  0
 17 16  1  0
 18 22  1  0
 19 18  2  0
 20 14  1  0
 21 11  1  0
 21 20  2  0
 22 23  1  0
 24 25  1  0
 24 23  1  0
 26 24  2  0
M  END
$$$$
