NEF.pdb
     RDKit          3D

 29 29  0  0  1  0  0  0  0  0999 V2000
    8.1761  -12.2456   18.4108 N   0  0  0  0  0  0  0  0  0  0  0  0
    7.5541  -13.5049   18.1841 C   0  0  0  0  0  0  0  0  0  0  0  0
    7.0093  -13.7182   17.0547 O   0  0  0  0  0  0  0  0  0  0  0  0
    7.5299  -14.5636   19.2315 C   0  0  0  0  0  0  0  0  0  0  0  0
    8.1459  -13.9887   20.4859 C   0  0  2  0  0  0  0  0  0  0  0  0
    9.2577  -13.1618   20.0716 N   0  0  0  0  0  0  0  0  0  0  0  0
    8.5543  -15.0418   21.4427 C   0  0  0  0  0  0  0  0  0  0  0  0
    7.6680  -15.8213   21.8705 O   0  0  0  0  0  0  0  0  0  0  0  0
    9.8851  -15.2235   21.9052 N   0  0  0  0  0  0  0  0  0  0  0  0
   10.2909  -16.2493   22.8416 C   0  0  1  0  0  0  0  0  0  0  0  0
   11.7576  -16.5638   22.7626 C   0  0  0  0  0  0  0  0  0  0  0  0
   12.5710  -15.4378   22.2079 C   0  0  0  0  0  0  0  0  0  0  0  0
   14.0122  -15.7973   22.1811 C   0  0  0  0  0  0  0  0  0  0  0  0
   14.5877  -16.3335   23.1619 O   0  0  0  0  0  0  0  0  0  0  0  0
   10.0140  -15.7453   24.2215 C   0  0  0  0  0  0  0  0  0  0  0  0
   10.4766  -14.6395   24.5860 O   0  0  0  0  0  0  0  0  0  0  0  0
   14.7692  -15.5425   21.0465 O   0  0  0  0  0  0  0  0  0  0  0  0
    9.2347  -16.4801   25.1540 N   0  0  0  0  0  0  0  0  0  0  0  0
    9.0672  -16.0832   26.5513 C   0  0  1  0  0  0  0  0  0  0  0  0
    7.6484  -15.7339   26.8480 C   0  0  0  0  0  0  0  0  0  0  0  0
    7.2457  -14.4316   26.2902 C   0  0  0  0  0  0  0  0  0  0  0  0
    7.6608  -13.2817   26.9216 C   0  0  0  0  0  0  0  0  0  0  0  0
    7.3162  -12.0201   26.4430 C   0  0  0  0  0  0  0  0  0  0  0  0
    6.5374  -11.9477   25.3044 C   0  0  0  0  0  0  0  0  0  0  0  0
    6.1150  -13.0734   24.6629 C   0  0  0  0  0  0  0  0  0  0  0  0
    6.4699  -14.3212   25.1567 C   0  0  0  0  0  0  0  0  0  0  0  0
    9.5866  -17.1509   27.4315 C   0  0  0  0  0  0  0  0  0  0  0  0
   10.1067  -18.3554   26.9912 O   0  0  0  0  0  0  0  0  0  0  0  0
    9.5754  -17.0002   28.7043 O   0  0  0  0  0  0  0  0  0  0  0  0
  1  2  1  0
  2  4  1  0
  2  3  2  0
  4  5  1  0
  5  7  1  0
  5  6  1  6
  7  8  2  0
  9  7  1  0
  9 10  1  0
 10 11  1  1
 11 12  1  0
 12 13  1  0
 13 14  2  0
 13 17  1  0
 15 18  1  0
 15 10  1  0
 16 15  2  0
 19 27  1  0
 19 20  1  1
 19 18  1  0
 20 21  1  0
 21 26  2  0
 21 22  1  0
 22 23  2  0
 23 24  1  0
 25 24  2  0
 26 25  1  0
 27 28  1  0
 29 27  2  0
M  END
$$$$
