NEF.pdb
     RDKit          3D

 29 29  0  0  1  0  0  0  0  0999 V2000
    9.2593  -12.9723   17.4025 N   0  0  0  0  0  0  0  0  0  0  0  0
    7.9099  -13.2866   17.7256 C   0  0  0  0  0  0  0  0  0  0  0  0
    6.9972  -12.9632   16.9009 O   0  0  0  0  0  0  0  0  0  0  0  0
    7.5519  -13.9783   18.9953 C   0  0  0  0  0  0  0  0  0  0  0  0
    8.8239  -14.1872   19.7839 C   0  0  2  0  0  0  0  0  0  0  0  0
    9.7980  -14.7510   18.8757 N   0  0  0  0  0  0  0  0  0  0  0  0
    8.6100  -15.0367   20.9771 C   0  0  0  0  0  0  0  0  0  0  0  0
    7.7617  -14.6585   21.8219 O   0  0  0  0  0  0  0  0  0  0  0  0
    9.3046  -16.2509   21.2239 N   0  0  0  0  0  0  0  0  0  0  0  0
    9.1763  -17.0332   22.4345 C   0  0  1  0  0  0  0  0  0  0  0  0
    9.6986  -18.4333   22.2821 C   0  0  0  0  0  0  0  0  0  0  0  0
    9.6878  -19.2073   23.5619 C   0  0  0  0  0  0  0  0  0  0  0  0
   10.1443  -20.6024   23.3334 C   0  0  0  0  0  0  0  0  0  0  0  0
   11.3337  -20.9592   23.5295 O   0  0  0  0  0  0  0  0  0  0  0  0
    9.9863  -16.3658   23.4991 C   0  0  0  0  0  0  0  0  0  0  0  0
   11.1644  -16.0143   23.2580 O   0  0  0  0  0  0  0  0  0  0  0  0
    9.2457  -21.5617   22.8887 O   0  0  0  0  0  0  0  0  0  0  0  0
    9.4677  -16.1086   24.7959 N   0  0  0  0  0  0  0  0  0  0  0  0
   10.2069  -15.3832   25.8281 C   0  0  1  0  0  0  0  0  0  0  0  0
    9.9922  -13.9121   25.7140 C   0  0  0  0  0  0  0  0  0  0  0  0
    8.5934  -13.5132   25.9451 C   0  0  0  0  0  0  0  0  0  0  0  0
    7.7227  -13.4971   24.8798 C   0  0  0  0  0  0  0  0  0  0  0  0
    6.3875  -13.1320   25.0328 C   0  0  0  0  0  0  0  0  0  0  0  0
    5.9505  -12.7814   26.2955 C   0  0  0  0  0  0  0  0  0  0  0  0
    6.7952  -12.7902   27.3647 C   0  0  0  0  0  0  0  0  0  0  0  0
    8.1225  -13.1574   27.1903 C   0  0  0  0  0  0  0  0  0  0  0  0
    9.8391  -15.9107   27.1588 C   0  0  0  0  0  0  0  0  0  0  0  0
   10.4661  -15.5711   28.3449 O   0  0  0  0  0  0  0  0  0  0  0  0
    8.8765  -16.7489   27.2772 O   0  0  0  0  0  0  0  0  0  0  0  0
  1  2  1  0
  2  4  1  0
  2  3  2  0
  4  5  1  0
  5  7  1  0
  5  6  1  6
  7  8  2  0
  9  7  1  0
  9 10  1  0
 10 11  1  6
 11 12  1  0
 12 13  1  0
 13 14  2  0
 13 17  1  0
 15 18  1  0
 15 10  1  0
 16 15  2  0
 19 27  1  0
 19 20  1  1
 19 18  1  0
 20 21  1  0
 21 26  2  0
 21 22  1  0
 22 23  2  0
 23 24  1  0
 25 24  2  0
 26 25  1  0
 27 28  1  0
 29 27  2  0
M  END
$$$$
