NEF.pdb
     RDKit          3D

 29 29  0  0  1  0  0  0  0  0999 V2000
    7.7544  -14.7943   15.8153 N   0  0  0  0  0  0  0  0  0  0  0  0
    8.0185  -13.9118   16.8995 C   0  0  0  0  0  0  0  0  0  0  0  0
    8.6672  -12.8426   16.6676 O   0  0  0  0  0  0  0  0  0  0  0  0
    7.5552  -14.2137   18.2826 C   0  0  0  0  0  0  0  0  0  0  0  0
    8.7642  -14.2035   19.1890 C   0  0  2  0  0  0  0  0  0  0  0  0
    9.9143  -14.5034   18.3651 N   0  0  0  0  0  0  0  0  0  0  0  0
    8.6229  -15.1460   20.3217 C   0  0  0  0  0  0  0  0  0  0  0  0
    7.5670  -15.0950   20.9989 O   0  0  0  0  0  0  0  0  0  0  0  0
    9.6073  -16.1024   20.6882 N   0  0  0  0  0  0  0  0  0  0  0  0
    9.4991  -16.9902   21.8257 C   0  0  1  0  0  0  0  0  0  0  0  0
   10.2581  -18.2728   21.6385 C   0  0  0  0  0  0  0  0  0  0  0  0
   11.6390  -18.0658   21.1023 C   0  0  0  0  0  0  0  0  0  0  0  0
   12.2997  -19.3704   20.8409 C   0  0  0  0  0  0  0  0  0  0  0  0
   13.1855  -19.8375   21.6009 O   0  0  0  0  0  0  0  0  0  0  0  0
   10.0854  -16.2910   23.0098 C   0  0  0  0  0  0  0  0  0  0  0  0
   11.0205  -15.4726   22.8508 O   0  0  0  0  0  0  0  0  0  0  0  0
   11.9436  -20.1168   19.7266 O   0  0  0  0  0  0  0  0  0  0  0  0
    9.6189  -16.5192   24.3316 N   0  0  0  0  0  0  0  0  0  0  0  0
    9.1160  -15.4568   25.2014 C   0  0  1  0  0  0  0  0  0  0  0  0
    8.0321  -14.6798   24.5347 C   0  0  0  0  0  0  0  0  0  0  0  0
    7.4842  -13.6081   25.3835 C   0  0  0  0  0  0  0  0  0  0  0  0
    6.1277  -13.5693   25.6112 C   0  0  0  0  0  0  0  0  0  0  0  0
    5.5482  -12.5835   26.4062 C   0  0  0  0  0  0  0  0  0  0  0  0
    6.3768  -11.6323   26.9688 C   0  0  0  0  0  0  0  0  0  0  0  0
    7.7228  -11.6514   26.7567 C   0  0  0  0  0  0  0  0  0  0  0  0
    8.2801  -12.6428   25.9609 C   0  0  0  0  0  0  0  0  0  0  0  0
    8.6889  -16.0382   26.4914 C   0  0  0  0  0  0  0  0  0  0  0  0
    9.1798  -15.6620   27.7294 O   0  0  0  0  0  0  0  0  0  0  0  0
    7.8023  -16.9635   26.5201 O   0  0  0  0  0  0  0  0  0  0  0  0
  1  2  1  0
  2  4  1  0
  2  3  2  0
  4  5  1  0
  5  7  1  0
  5  6  1  6
  7  8  2  0
  9  7  1  0
  9 10  1  0
 10 11  1  6
 11 12  1  0
 12 13  1  0
 13 14  2  0
 13 17  1  0
 15 18  1  0
 15 10  1  0
 16 15  2  0
 19 27  1  0
 19 20  1  6
 19 18  1  0
 20 21  1  0
 21 26  2  0
 21 22  1  0
 22 23  2  0
 23 24  1  0
 25 24  2  0
 26 25  1  0
 27 28  1  0
 29 27  2  0
M  END
$$$$
