NEF.pdb
     RDKit          3D

 29 29  0  0  1  0  0  0  0  0999 V2000
    8.7000  -13.2472   18.2549 N   0  0  0  0  0  0  0  0  0  0  0  0
    8.1168  -12.6094   19.3850 C   0  0  0  0  0  0  0  0  0  0  0  0
    7.8571  -11.3663   19.3135 O   0  0  0  0  0  0  0  0  0  0  0  0
    7.8091  -13.3613   20.6335 C   0  0  0  0  0  0  0  0  0  0  0  0
    8.2307  -14.7974   20.4255 C   0  0  2  0  0  0  0  0  0  0  0  0
    7.2968  -15.3820   19.4887 N   0  0  0  0  0  0  0  0  0  0  0  0
    8.2974  -15.5514   21.6976 C   0  0  0  0  0  0  0  0  0  0  0  0
    7.2396  -15.6748   22.3624 O   0  0  0  0  0  0  0  0  0  0  0  0
    9.4829  -16.1425   22.2107 N   0  0  0  0  0  0  0  0  0  0  0  0
    9.5133  -17.1075   23.2884 C   0  0  1  0  0  0  0  0  0  0  0  0
   10.5206  -18.1992   23.0653 C   0  0  0  0  0  0  0  0  0  0  0  0
   10.2711  -18.9829   21.8159 C   0  0  0  0  0  0  0  0  0  0  0  0
   11.3030  -20.0379   21.6453 C   0  0  0  0  0  0  0  0  0  0  0  0
   11.2099  -21.1626   22.1993 O   0  0  0  0  0  0  0  0  0  0  0  0
    9.9034  -16.3862   24.5383 C   0  0  0  0  0  0  0  0  0  0  0  0
   10.8560  -15.5728   24.5174 O   0  0  0  0  0  0  0  0  0  0  0  0
   12.4160  -19.7971   20.8524 O   0  0  0  0  0  0  0  0  0  0  0  0
    9.2275  -16.5873   25.7711 N   0  0  0  0  0  0  0  0  0  0  0  0
    9.6474  -15.9699   27.0283 C   0  0  1  0  0  0  0  0  0  0  0  0
    8.4965  -15.3290   27.7268 C   0  0  0  0  0  0  0  0  0  0  0  0
    7.9662  -14.1568   27.0100 C   0  0  0  0  0  0  0  0  0  0  0  0
    6.7329  -14.2493   26.4068 C   0  0  0  0  0  0  0  0  0  0  0  0
    6.1750  -13.1762   25.7162 C   0  0  0  0  0  0  0  0  0  0  0  0
    6.8972  -12.0007   25.6492 C   0  0  0  0  0  0  0  0  0  0  0  0
    8.1204  -11.8867   26.2391 C   0  0  0  0  0  0  0  0  0  0  0  0
    8.6583  -12.9685   26.9226 C   0  0  0  0  0  0  0  0  0  0  0  0
   10.3328  -16.9764   27.8657 C   0  0  0  0  0  0  0  0  0  0  0  0
   11.0482  -16.6932   29.0160 O   0  0  0  0  0  0  0  0  0  0  0  0
   10.2936  -18.2170   27.5455 O   0  0  0  0  0  0  0  0  0  0  0  0
  1  2  1  0
  2  4  1  0
  2  3  2  0
  4  5  1  0
  5  7  1  0
  5  6  1  6
  7  8  2  0
  9  7  1  0
  9 10  1  0
 10 11  1  6
 11 12  1  0
 12 13  1  0
 13 14  2  0
 13 17  1  0
 15 18  1  0
 15 10  1  0
 16 15  2  0
 19 27  1  0
 19 20  1  1
 19 18  1  0
 20 21  1  0
 21 26  2  0
 21 22  1  0
 22 23  2  0
 23 24  1  0
 25 24  2  0
 26 25  1  0
 27 28  1  0
 29 27  2  0
M  END
$$$$
