NEF.pdb
     RDKit          3D

 29 29  0  0  1  0  0  0  0  0999 V2000
    7.9868  -12.0554   17.7234 N   0  0  0  0  0  0  0  0  0  0  0  0
    7.9469  -13.4770   17.7629 C   0  0  0  0  0  0  0  0  0  0  0  0
    8.2324  -14.1218   16.7043 O   0  0  0  0  0  0  0  0  0  0  0  0
    7.5817  -14.2136   19.0049 C   0  0  0  0  0  0  0  0  0  0  0  0
    8.8304  -14.3553   19.8440 C   0  0  2  0  0  0  0  0  0  0  0  0
    9.8759  -14.8391   18.9697 N   0  0  0  0  0  0  0  0  0  0  0  0
    8.6221  -15.2384   21.0136 C   0  0  0  0  0  0  0  0  0  0  0  0
    7.6510  -14.9908   21.7699 O   0  0  0  0  0  0  0  0  0  0  0  0
    9.4522  -16.3464   21.3316 N   0  0  0  0  0  0  0  0  0  0  0  0
    9.3546  -17.1153   22.5535 C   0  0  1  0  0  0  0  0  0  0  0  0
    9.9919  -18.4709   22.4418 C   0  0  0  0  0  0  0  0  0  0  0  0
    9.9788  -19.2344   23.7279 C   0  0  0  0  0  0  0  0  0  0  0  0
   10.6702  -20.5396   23.5685 C   0  0  0  0  0  0  0  0  0  0  0  0
   11.9179  -20.6542   23.6716 O   0  0  0  0  0  0  0  0  0  0  0  0
   10.0792  -16.3661   23.6252 C   0  0  0  0  0  0  0  0  0  0  0  0
   11.0602  -15.6458   23.3283 O   0  0  0  0  0  0  0  0  0  0  0  0
    9.9353  -21.6847   23.2965 O   0  0  0  0  0  0  0  0  0  0  0  0
    9.6957  -16.4376   24.9908 N   0  0  0  0  0  0  0  0  0  0  0  0
   10.2747  -15.5922   26.0338 C   0  0  1  0  0  0  0  0  0  0  0  0
   10.0407  -14.1471   25.7505 C   0  0  0  0  0  0  0  0  0  0  0  0
    8.6642  -13.7160   26.0483 C   0  0  0  0  0  0  0  0  0  0  0  0
    7.6650  -14.0182   25.1517 C   0  0  0  0  0  0  0  0  0  0  0  0
    6.3433  -13.6412   25.3763 C   0  0  0  0  0  0  0  0  0  0  0  0
    6.0535  -12.9474   26.5351 C   0  0  0  0  0  0  0  0  0  0  0  0
    7.0271  -12.6374   27.4368 C   0  0  0  0  0  0  0  0  0  0  0  0
    8.3383  -13.0228   27.1937 C   0  0  0  0  0  0  0  0  0  0  0  0
    9.7485  -16.0065   27.3513 C   0  0  0  0  0  0  0  0  0  0  0  0
    8.8395  -17.0303   27.5533 O   0  0  0  0  0  0  0  0  0  0  0  0
   10.1291  -15.4039   28.4167 O   0  0  0  0  0  0  0  0  0  0  0  0
  1  2  1  0
  2  4  1  0
  2  3  2  0
  4  5  1  0
  5  7  1  0
  5  6  1  6
  7  8  2  0
  9  7  1  0
  9 10  1  0
 10 11  1  6
 11 12  1  0
 12 13  1  0
 13 14  2  0
 13 17  1  0
 15 18  1  0
 15 10  1  0
 16 15  2  0
 19 27  1  0
 19 20  1  6
 19 18  1  0
 20 21  1  0
 21 26  2  0
 21 22  1  0
 22 23  2  0
 23 24  1  0
 25 24  2  0
 26 25  1  0
 27 28  1  0
 29 27  2  0
M  END
$$$$
