NEF.pdb
     RDKit          3D

 29 29  0  0  1  0  0  0  0  0999 V2000
    8.5041  -12.3667   17.5259 N   0  0  0  0  0  0  0  0  0  0  0  0
    7.9159  -13.6543   17.3835 C   0  0  0  0  0  0  0  0  0  0  0  0
    7.7540  -14.1214   16.2116 O   0  0  0  0  0  0  0  0  0  0  0  0
    7.4921  -14.4542   18.5664 C   0  0  0  0  0  0  0  0  0  0  0  0
    8.7362  -15.0079   19.2214 C   0  0  2  0  0  0  0  0  0  0  0  0
    9.3533  -15.9045   18.2692 N   0  0  0  0  0  0  0  0  0  0  0  0
    8.4418  -15.6729   20.5107 C   0  0  0  0  0  0  0  0  0  0  0  0
    7.2376  -15.8097   20.8385 O   0  0  0  0  0  0  0  0  0  0  0  0
    9.4366  -16.1646   21.3975 N   0  0  0  0  0  0  0  0  0  0  0  0
    9.1626  -16.9852   22.5574 C   0  0  1  0  0  0  0  0  0  0  0  0
    9.6638  -18.3932   22.4071 C   0  0  0  0  0  0  0  0  0  0  0  0
   10.6752  -18.5437   21.3154 C   0  0  0  0  0  0  0  0  0  0  0  0
   11.1056  -19.9603   21.1928 C   0  0  0  0  0  0  0  0  0  0  0  0
   11.7453  -20.5477   22.1019 O   0  0  0  0  0  0  0  0  0  0  0  0
    9.8719  -16.3790   23.7253 C   0  0  0  0  0  0  0  0  0  0  0  0
   11.0953  -16.1207   23.6463 O   0  0  0  0  0  0  0  0  0  0  0  0
   10.8029  -20.6799   20.0457 O   0  0  0  0  0  0  0  0  0  0  0  0
    9.2059  -16.0779   24.9429 N   0  0  0  0  0  0  0  0  0  0  0  0
    9.9061  -15.7119   26.1732 C   0  0  1  0  0  0  0  0  0  0  0  0
    9.8763  -14.2377   26.3944 C   0  0  0  0  0  0  0  0  0  0  0  0
    8.5440  -13.6483   26.1779 C   0  0  0  0  0  0  0  0  0  0  0  0
    7.5760  -14.4047   25.5581 C   0  0  0  0  0  0  0  0  0  0  0  0
    6.2962  -13.9064   25.3266 C   0  0  0  0  0  0  0  0  0  0  0  0
    6.0163  -12.6180   25.7387 C   0  0  0  0  0  0  0  0  0  0  0  0
    6.9596  -11.8510   26.3544 C   0  0  0  0  0  0  0  0  0  0  0  0
    8.2291  -12.3671   26.5756 C   0  0  0  0  0  0  0  0  0  0  0  0
    9.3364  -16.4693   27.3073 C   0  0  0  0  0  0  0  0  0  0  0  0
    9.8343  -16.4535   28.5984 O   0  0  0  0  0  0  0  0  0  0  0  0
    8.3062  -17.2121   27.1345 O   0  0  0  0  0  0  0  0  0  0  0  0
  1  2  1  0
  2  4  1  0
  2  3  2  0
  4  5  1  0
  5  7  1  0
  5  6  1  6
  7  8  2  0
  9  7  1  0
  9 10  1  0
 10 11  1  6
 11 12  1  0
 12 13  1  0
 13 14  2  0
 13 17  1  0
 15 18  1  0
 15 10  1  0
 16 15  2  0
 19 27  1  0
 19 20  1  1
 19 18  1  0
 20 21  1  0
 21 26  2  0
 21 22  1  0
 22 23  2  0
 23 24  1  0
 25 24  2  0
 26 25  1  0
 27 28  1  0
 29 27  2  0
M  END
$$$$
