NEF.pdb
     RDKit          3D

 29 29  0  0  1  0  0  0  0  0999 V2000
    8.3713  -13.3079   18.2540 N   0  0  0  0  0  0  0  0  0  0  0  0
    8.2176  -12.5975   19.4770 C   0  0  0  0  0  0  0  0  0  0  0  0
    8.2241  -11.3260   19.4453 O   0  0  0  0  0  0  0  0  0  0  0  0
    8.0513  -13.3067   20.7762 C   0  0  0  0  0  0  0  0  0  0  0  0
    8.1266  -14.7917   20.5067 C   0  0  2  0  0  0  0  0  0  0  0  0
    6.9128  -15.1583   19.8112 N   0  0  0  0  0  0  0  0  0  0  0  0
    8.3234  -15.5767   21.7461 C   0  0  0  0  0  0  0  0  0  0  0  0
    7.3480  -15.6928   22.5280 O   0  0  0  0  0  0  0  0  0  0  0  0
    9.5461  -16.2052   22.1039 N   0  0  0  0  0  0  0  0  0  0  0  0
    9.6880  -17.1608   23.1812 C   0  0  1  0  0  0  0  0  0  0  0  0
   10.8519  -18.0901   22.9866 C   0  0  0  0  0  0  0  0  0  0  0  0
   10.6919  -18.9934   21.8052 C   0  0  0  0  0  0  0  0  0  0  0  0
   11.8943  -19.8488   21.6340 C   0  0  0  0  0  0  0  0  0  0  0  0
   12.3011  -20.6221   22.5379 O   0  0  0  0  0  0  0  0  0  0  0  0
    9.9306  -16.3962   24.4427 C   0  0  0  0  0  0  0  0  0  0  0  0
   10.7555  -15.4534   24.4515 O   0  0  0  0  0  0  0  0  0  0  0  0
   12.6088  -19.8102   20.4451 O   0  0  0  0  0  0  0  0  0  0  0  0
    9.2533  -16.6987   25.6537 N   0  0  0  0  0  0  0  0  0  0  0  0
    9.5559  -16.0489   26.9281 C   0  0  1  0  0  0  0  0  0  0  0  0
    8.3234  -15.4957   27.5591 C   0  0  0  0  0  0  0  0  0  0  0  0
    7.7910  -14.3188   26.8515 C   0  0  0  0  0  0  0  0  0  0  0  0
    6.6852  -14.4716   26.0470 C   0  0  0  0  0  0  0  0  0  0  0  0
    6.1322  -13.3979   25.3534 C   0  0  0  0  0  0  0  0  0  0  0  0
    6.7267  -12.1589   25.4930 C   0  0  0  0  0  0  0  0  0  0  0  0
    7.8224  -11.9845   26.2843 C   0  0  0  0  0  0  0  0  0  0  0  0
    8.3578  -13.0681   26.9670 C   0  0  0  0  0  0  0  0  0  0  0  0
   10.2684  -16.9991   27.8078 C   0  0  0  0  0  0  0  0  0  0  0  0
   10.8682  -16.6665   29.0097 O   0  0  0  0  0  0  0  0  0  0  0  0
   10.3679  -18.2337   27.4776 O   0  0  0  0  0  0  0  0  0  0  0  0
  1  2  1  0
  2  4  1  0
  2  3  2  0
  4  5  1  0
  5  7  1  0
  5  6  1  1
  7  8  2  0
  9  7  1  0
  9 10  1  0
 10 11  1  6
 11 12  1  0
 12 13  1  0
 13 14  2  0
 13 17  1  0
 15 18  1  0
 15 10  1  0
 16 15  2  0
 19 27  1  0
 19 20  1  1
 19 18  1  0
 20 21  1  0
 21 26  2  0
 21 22  1  0
 22 23  2  0
 23 24  1  0
 25 24  2  0
 26 25  1  0
 27 28  1  0
 29 27  2  0
M  END
$$$$
