NEF.pdb
     RDKit          3D

 29 29  0  0  1  0  0  0  0  0999 V2000
    8.4132  -13.9886   16.5572 N   0  0  0  0  0  0  0  0  0  0  0  0
    8.2575  -13.2309   17.7512 C   0  0  0  0  0  0  0  0  0  0  0  0
    8.2354  -11.9619   17.6663 O   0  0  0  0  0  0  0  0  0  0  0  0
    8.1219  -13.8882   19.0809 C   0  0  0  0  0  0  0  0  0  0  0  0
    8.3817  -15.3653   18.8964 C   0  0  2  0  0  0  0  0  0  0  0  0
    7.3308  -15.8775   18.0452 N   0  0  0  0  0  0  0  0  0  0  0  0
    8.4609  -16.0856   20.1872 C   0  0  0  0  0  0  0  0  0  0  0  0
    7.4277  -16.1287   20.8992 O   0  0  0  0  0  0  0  0  0  0  0  0
    9.6323  -16.7294   20.6682 N   0  0  0  0  0  0  0  0  0  0  0  0
    9.6845  -17.5414   21.8648 C   0  0  1  0  0  0  0  0  0  0  0  0
   10.8977  -18.4256   21.9169 C   0  0  0  0  0  0  0  0  0  0  0  0
   12.1789  -17.6604   22.0175 C   0  0  0  0  0  0  0  0  0  0  0  0
   13.3437  -18.5806   21.9611 C   0  0  0  0  0  0  0  0  0  0  0  0
   13.2100  -19.8241   21.8328 O   0  0  0  0  0  0  0  0  0  0  0  0
    9.7498  -16.6208   23.0407 C   0  0  0  0  0  0  0  0  0  0  0  0
   10.3821  -15.5427   22.9543 O   0  0  0  0  0  0  0  0  0  0  0  0
   14.6324  -18.0740   22.0508 O   0  0  0  0  0  0  0  0  0  0  0  0
    9.1137  -16.9216   24.2743 N   0  0  0  0  0  0  0  0  0  0  0  0
    8.7937  -15.9110   25.2814 C   0  0  1  0  0  0  0  0  0  0  0  0
    7.8116  -14.9185   24.7585 C   0  0  0  0  0  0  0  0  0  0  0  0
    7.4503  -13.8880   25.7468 C   0  0  0  0  0  0  0  0  0  0  0  0
    8.2828  -12.8048   25.9113 C   0  0  0  0  0  0  0  0  0  0  0  0
    7.9961  -11.7954   26.8271 C   0  0  0  0  0  0  0  0  0  0  0  0
    6.8416  -11.9075   27.5772 C   0  0  0  0  0  0  0  0  0  0  0  0
    6.0028  -12.9714   27.4308 C   0  0  0  0  0  0  0  0  0  0  0  0
    6.3072  -13.9665   26.5122 C   0  0  0  0  0  0  0  0  0  0  0  0
    8.3277  -16.5770   26.5158 C   0  0  0  0  0  0  0  0  0  0  0  0
    8.7749  -16.2804   27.7914 O   0  0  0  0  0  0  0  0  0  0  0  0
    7.4465  -17.5058   26.4545 O   0  0  0  0  0  0  0  0  0  0  0  0
  1  2  1  0
  2  4  1  0
  2  3  2  0
  4  5  1  0
  5  7  1  0
  5  6  1  6
  7  8  2  0
  9  7  1  0
  9 10  1  0
 10 11  1  6
 11 12  1  0
 12 13  1  0
 13 14  2  0
 13 17  1  0
 15 18  1  0
 15 10  1  0
 16 15  2  0
 19 27  1  0
 19 20  1  6
 19 18  1  0
 20 21  1  0
 21 26  2  0
 21 22  1  0
 22 23  2  0
 23 24  1  0
 25 24  2  0
 26 25  1  0
 27 28  1  0
 29 27  2  0
M  END
$$$$
