NEF.pdb
     RDKit          3D

 29 29  0  0  1  0  0  0  0  0999 V2000
    7.5667  -15.3512   17.1659 N   0  0  0  0  0  0  0  0  0  0  0  0
    7.9834  -14.1994   17.8897 C   0  0  0  0  0  0  0  0  0  0  0  0
    9.1950  -13.8253   17.7898 O   0  0  0  0  0  0  0  0  0  0  0  0
    7.0390  -13.4343   18.7507 C   0  0  0  0  0  0  0  0  0  0  0  0
    7.6657  -13.2981   20.1190 C   0  0  2  0  0  0  0  0  0  0  0  0
    8.9574  -12.6749   19.9335 N   0  0  0  0  0  0  0  0  0  0  0  0
    7.7639  -14.5972   20.8218 C   0  0  0  0  0  0  0  0  0  0  0  0
    6.7235  -15.2937   20.9152 O   0  0  0  0  0  0  0  0  0  0  0  0
    8.9611  -15.1025   21.3957 N   0  0  0  0  0  0  0  0  0  0  0  0
    9.0472  -16.3321   22.1537 C   0  0  1  0  0  0  0  0  0  0  0  0
   10.1845  -17.2094   21.7143 C   0  0  0  0  0  0  0  0  0  0  0  0
    9.9621  -17.8323   20.3728 C   0  0  0  0  0  0  0  0  0  0  0  0
   11.1025  -18.7121   20.0089 C   0  0  0  0  0  0  0  0  0  0  0  0
   12.0647  -18.3070   19.3084 O   0  0  0  0  0  0  0  0  0  0  0  0
    9.2856  -15.9722   23.5849 C   0  0  0  0  0  0  0  0  0  0  0  0
   10.2580  -15.2441   23.8912 O   0  0  0  0  0  0  0  0  0  0  0  0
   11.1289  -20.0290   20.4453 O   0  0  0  0  0  0  0  0  0  0  0  0
    8.4411  -16.4288   24.6314 N   0  0  0  0  0  0  0  0  0  0  0  0
    8.7338  -16.2219   26.0490 C   0  0  1  0  0  0  0  0  0  0  0  0
    7.5799  -15.5925   26.7531 C   0  0  0  0  0  0  0  0  0  0  0  0
    7.4587  -14.1490   26.4868 C   0  0  0  0  0  0  0  0  0  0  0  0
    8.4707  -13.3111   26.8955 C   0  0  0  0  0  0  0  0  0  0  0  0
    8.4174  -11.9376   26.6714 C   0  0  0  0  0  0  0  0  0  0  0  0
    7.3106  -11.4280   26.0208 C   0  0  0  0  0  0  0  0  0  0  0  0
    6.2966  -12.2392   25.6074 C   0  0  0  0  0  0  0  0  0  0  0  0
    6.3697  -13.6056   25.8407 C   0  0  0  0  0  0  0  0  0  0  0  0
    9.1422  -17.5044   26.6593 C   0  0  0  0  0  0  0  0  0  0  0  0
    9.1959  -18.7158   25.9924 O   0  0  0  0  0  0  0  0  0  0  0  0
    9.4794  -17.5526   27.8950 O   0  0  0  0  0  0  0  0  0  0  0  0
  1  2  1  0
  2  4  1  0
  2  3  2  0
  4  5  1  0
  5  7  1  0
  5  6  1  6
  7  8  2  0
  9  7  1  0
  9 10  1  0
 10 11  1  6
 11 12  1  0
 12 13  1  0
 13 14  2  0
 13 17  1  0
 15 18  1  0
 15 10  1  0
 16 15  2  0
 19 27  1  0
 19 20  1  1
 19 18  1  0
 20 21  1  0
 21 26  2  0
 21 22  1  0
 22 23  2  0
 23 24  1  0
 25 24  2  0
 26 25  1  0
 27 28  1  0
 29 27  2  0
M  END
$$$$
