NEF.pdb
     RDKit          3D

 29 29  0  0  1  0  0  0  0  0999 V2000
    6.8170  -16.2272   18.5478 N   0  0  0  0  0  0  0  0  0  0  0  0
    7.4214  -14.9546   18.7459 C   0  0  0  0  0  0  0  0  0  0  0  0
    8.4958  -14.6888   18.1190 O   0  0  0  0  0  0  0  0  0  0  0  0
    6.8265  -13.9418   19.6618 C   0  0  0  0  0  0  0  0  0  0  0  0
    7.7966  -13.7183   20.7986 C   0  0  2  0  0  0  0  0  0  0  0  0
    9.0637  -13.3481   20.2079 N   0  0  0  0  0  0  0  0  0  0  0  0
    7.9112  -14.9033   21.6783 C   0  0  0  0  0  0  0  0  0  0  0  0
    6.8534  -15.3886   22.1492 O   0  0  0  0  0  0  0  0  0  0  0  0
    9.1425  -15.5232   22.0212 N   0  0  0  0  0  0  0  0  0  0  0  0
    9.2615  -16.6827   22.8788 C   0  0  1  0  0  0  0  0  0  0  0  0
   10.3117  -17.6490   22.4102 C   0  0  0  0  0  0  0  0  0  0  0  0
   10.3597  -18.9043   23.2222 C   0  0  0  0  0  0  0  0  0  0  0  0
   11.4083  -19.8213   22.7062 C   0  0  0  0  0  0  0  0  0  0  0  0
   11.7182  -20.8862   23.2982 O   0  0  0  0  0  0  0  0  0  0  0  0
    9.6637  -16.2077   24.2380 C   0  0  0  0  0  0  0  0  0  0  0  0
   10.5874  -15.3700   24.3578 O   0  0  0  0  0  0  0  0  0  0  0  0
   12.0822  -19.5134   21.5329 O   0  0  0  0  0  0  0  0  0  0  0  0
    9.0315  -16.6744   25.4210 N   0  0  0  0  0  0  0  0  0  0  0  0
    9.3509  -16.1701   26.7558 C   0  0  1  0  0  0  0  0  0  0  0  0
    8.1503  -15.5769   27.4114 C   0  0  0  0  0  0  0  0  0  0  0  0
    7.7279  -14.3053   26.8001 C   0  0  0  0  0  0  0  0  0  0  0  0
    8.4800  -13.1761   27.0294 C   0  0  0  0  0  0  0  0  0  0  0  0
    8.1355  -11.9443   26.4784 C   0  0  0  0  0  0  0  0  0  0  0  0
    7.0061  -11.8804   25.6855 C   0  0  0  0  0  0  0  0  0  0  0  0
    6.2465  -12.9859   25.4451 C   0  0  0  0  0  0  0  0  0  0  0  0
    6.6077  -14.2041   26.0040 C   0  0  0  0  0  0  0  0  0  0  0  0
    9.9611  -17.2517   27.5572 C   0  0  0  0  0  0  0  0  0  0  0  0
   10.5917  -17.0734   28.7761 O   0  0  0  0  0  0  0  0  0  0  0  0
    9.9325  -18.4619   27.1355 O   0  0  0  0  0  0  0  0  0  0  0  0
  1  2  1  0
  2  4  1  0
  2  3  2  0
  4  5  1  0
  5  7  1  0
  5  6  1  6
  7  8  2  0
  9  7  1  0
  9 10  1  0
 10 11  1  6
 11 12  1  0
 12 13  1  0
 13 14  2  0
 13 17  1  0
 15 18  1  0
 15 10  1  0
 16 15  2  0
 19 27  1  0
 19 20  1  1
 19 18  1  0
 20 21  1  0
 21 26  2  0
 21 22  1  0
 22 23  2  0
 23 24  1  0
 25 24  2  0
 26 25  1  0
 27 28  1  0
 29 27  2  0
M  END
$$$$
