NEF.pdb
     RDKit          3D

 29 29  0  0  1  0  0  0  0  0999 V2000
    8.2607  -12.1845   17.8113 N   0  0  0  0  0  0  0  0  0  0  0  0
    7.7608  -13.5152   17.8695 C   0  0  0  0  0  0  0  0  0  0  0  0
    7.9570  -14.2814   16.8733 O   0  0  0  0  0  0  0  0  0  0  0  0
    7.0218  -14.0202   19.0601 C   0  0  0  0  0  0  0  0  0  0  0  0
    7.8541  -13.7184   20.2846 C   0  0  2  0  0  0  0  0  0  0  0  0
    9.1228  -13.2040   19.8186 N   0  0  0  0  0  0  0  0  0  0  0  0
    8.0143  -14.9023   21.1587 C   0  0  0  0  0  0  0  0  0  0  0  0
    6.9744  -15.4585   21.5893 O   0  0  0  0  0  0  0  0  0  0  0  0
    9.2704  -15.4462   21.5389 N   0  0  0  0  0  0  0  0  0  0  0  0
    9.4350  -16.5790   22.4240 C   0  0  1  0  0  0  0  0  0  0  0  0
   10.6738  -17.3751   22.1277 C   0  0  0  0  0  0  0  0  0  0  0  0
   10.7853  -18.6178   22.9526 C   0  0  0  0  0  0  0  0  0  0  0  0
   12.0404  -19.3460   22.6346 C   0  0  0  0  0  0  0  0  0  0  0  0
   12.8841  -18.9016   21.8153 O   0  0  0  0  0  0  0  0  0  0  0  0
    9.5610  -16.0560   23.8187 C   0  0  0  0  0  0  0  0  0  0  0  0
   10.3335  -15.0992   24.0585 O   0  0  0  0  0  0  0  0  0  0  0  0
   12.3128  -20.5594   23.2501 O   0  0  0  0  0  0  0  0  0  0  0  0
    8.8290  -16.6076   24.9035 N   0  0  0  0  0  0  0  0  0  0  0  0
    9.0752  -16.2560   26.3012 C   0  0  1  0  0  0  0  0  0  0  0  0
    7.8486  -15.7028   26.9437 C   0  0  0  0  0  0  0  0  0  0  0  0
    7.6745  -14.2593   26.7085 C   0  0  0  0  0  0  0  0  0  0  0  0
    8.6855  -13.4003   27.0737 C   0  0  0  0  0  0  0  0  0  0  0  0
    8.5834  -12.0255   26.8757 C   0  0  0  0  0  0  0  0  0  0  0  0
    7.4286  -11.5367   26.2964 C   0  0  0  0  0  0  0  0  0  0  0  0
    6.4147  -12.3690   25.9269 C   0  0  0  0  0  0  0  0  0  0  0  0
    6.5369  -13.7362   26.1332 C   0  0  0  0  0  0  0  0  0  0  0  0
    9.6118  -17.4323   27.0172 C   0  0  0  0  0  0  0  0  0  0  0  0
   10.3028  -17.3813   28.2151 O   0  0  0  0  0  0  0  0  0  0  0  0
    9.4539  -18.6090   26.5341 O   0  0  0  0  0  0  0  0  0  0  0  0
  1  2  1  0
  2  4  1  0
  2  3  2  0
  4  5  1  0
  5  7  1  0
  5  6  1  6
  7  8  2  0
  9  7  1  0
  9 10  1  0
 10 11  1  6
 11 12  1  0
 12 13  1  0
 13 14  2  0
 13 17  1  0
 15 18  1  0
 15 10  1  0
 16 15  2  0
 19 27  1  0
 19 20  1  1
 19 18  1  0
 20 21  1  0
 21 26  2  0
 21 22  1  0
 22 23  2  0
 23 24  1  0
 25 24  2  0
 26 25  1  0
 27 28  1  0
 29 27  2  0
M  END
$$$$
