NEF.pdb
     RDKit          3D

 29 29  0  0  1  0  0  0  0  0999 V2000
    8.2983  -12.1895   18.2140 N   0  0  0  0  0  0  0  0  0  0  0  0
    7.5751  -13.4147   18.2208 C   0  0  0  0  0  0  0  0  0  0  0  0
    7.1297  -13.8626   17.1168 O   0  0  0  0  0  0  0  0  0  0  0  0
    7.3337  -14.1718   19.4806 C   0  0  0  0  0  0  0  0  0  0  0  0
    8.5957  -14.9337   19.8126 C   0  0  2  0  0  0  0  0  0  0  0  0
    8.7593  -15.9472   18.7940 N   0  0  0  0  0  0  0  0  0  0  0  0
    8.5609  -15.5079   21.1765 C   0  0  0  0  0  0  0  0  0  0  0  0
    7.4746  -15.9886   21.5830 O   0  0  0  0  0  0  0  0  0  0  0  0
    9.6793  -15.5479   22.0515 N   0  0  0  0  0  0  0  0  0  0  0  0
    9.9645  -16.6355   22.9623 C   0  0  1  0  0  0  0  0  0  0  0  0
   11.3253  -17.2342   22.7474 C   0  0  0  0  0  0  0  0  0  0  0  0
   11.6449  -18.3297   23.7144 C   0  0  0  0  0  0  0  0  0  0  0  0
   12.9929  -18.8913   23.4418 C   0  0  0  0  0  0  0  0  0  0  0  0
   13.5061  -19.7833   24.1639 O   0  0  0  0  0  0  0  0  0  0  0  0
    9.9296  -16.0892   24.3533 C   0  0  0  0  0  0  0  0  0  0  0  0
   10.6808  -15.1375   24.6686 O   0  0  0  0  0  0  0  0  0  0  0  0
   13.7293  -18.4318   22.3592 O   0  0  0  0  0  0  0  0  0  0  0  0
    9.0651  -16.6127   25.3511 N   0  0  0  0  0  0  0  0  0  0  0  0
    8.9969  -16.0854   26.7131 C   0  0  1  0  0  0  0  0  0  0  0  0
    7.6019  -15.7042   27.0762 C   0  0  0  0  0  0  0  0  0  0  0  0
    7.1861  -14.4155   26.4970 C   0  0  0  0  0  0  0  0  0  0  0  0
    6.0431  -14.3689   25.7324 C   0  0  0  0  0  0  0  0  0  0  0  0
    5.5953  -13.1813   25.1592 C   0  0  0  0  0  0  0  0  0  0  0  0
    6.3345  -12.0351   25.3782 C   0  0  0  0  0  0  0  0  0  0  0  0
    7.4696  -12.0580   26.1319 C   0  0  0  0  0  0  0  0  0  0  0  0
    7.8984  -13.2525   26.6943 C   0  0  0  0  0  0  0  0  0  0  0  0
    9.5811  -17.0674   27.6505 C   0  0  0  0  0  0  0  0  0  0  0  0
    9.9887  -18.3441   27.3057 O   0  0  0  0  0  0  0  0  0  0  0  0
    9.7415  -16.7641   28.8856 O   0  0  0  0  0  0  0  0  0  0  0  0
  1  2  1  0
  2  4  1  0
  2  3  2  0
  4  5  1  0
  5  7  1  0
  5  6  1  6
  7  8  2  0
  9  7  1  0
  9 10  1  0
 10 11  1  6
 11 12  1  0
 12 13  1  0
 13 14  2  0
 13 17  1  0
 15 18  1  0
 15 10  1  0
 16 15  2  0
 19 27  1  0
 19 20  1  1
 19 18  1  0
 20 21  1  0
 21 26  2  0
 21 22  1  0
 22 23  2  0
 23 24  1  0
 25 24  2  0
 26 25  1  0
 27 28  1  0
 29 27  2  0
M  END
$$$$
