NEF.pdb
     RDKit          3D

 29 29  0  0  1  0  0  0  0  0999 V2000
    7.6860  -11.8429   17.6852 N   0  0  0  0  0  0  0  0  0  0  0  0
    7.8620  -13.2513   17.5881 C   0  0  0  0  0  0  0  0  0  0  0  0
    8.3623  -13.7283   16.5203 O   0  0  0  0  0  0  0  0  0  0  0  0
    7.4763  -14.1648   18.6996 C   0  0  0  0  0  0  0  0  0  0  0  0
    8.5536  -14.0895   19.7566 C   0  0  2  0  0  0  0  0  0  0  0  0
    9.8254  -14.1438   19.0702 N   0  0  0  0  0  0  0  0  0  0  0  0
    8.4170  -15.1572   20.7727 C   0  0  0  0  0  0  0  0  0  0  0  0
    7.3242  -15.2487   21.3840 O   0  0  0  0  0  0  0  0  0  0  0  0
    9.4448  -16.0825   21.0973 N   0  0  0  0  0  0  0  0  0  0  0  0
    9.3827  -17.0177   22.1997 C   0  0  1  0  0  0  0  0  0  0  0  0
   10.4933  -18.0287   22.1698 C   0  0  0  0  0  0  0  0  0  0  0  0
   11.7997  -17.4538   21.7227 C   0  0  0  0  0  0  0  0  0  0  0  0
   12.8327  -18.5169   21.6240 C   0  0  0  0  0  0  0  0  0  0  0  0
   12.9819  -19.2125   20.5874 O   0  0  0  0  0  0  0  0  0  0  0  0
    9.5189  -16.2396   23.4688 C   0  0  0  0  0  0  0  0  0  0  0  0
    9.6222  -14.9917   23.4271 O   0  0  0  0  0  0  0  0  0  0  0  0
   13.6731  -18.7688   22.6990 O   0  0  0  0  0  0  0  0  0  0  0  0
    9.5363  -16.8661   24.7432 N   0  0  0  0  0  0  0  0  0  0  0  0
    9.0238  -16.2331   25.9575 C   0  0  1  0  0  0  0  0  0  0  0  0
    7.5843  -15.8721   25.8128 C   0  0  0  0  0  0  0  0  0  0  0  0
    7.3238  -14.4389   26.0305 C   0  0  0  0  0  0  0  0  0  0  0  0
    6.0461  -13.9612   25.8495 C   0  0  0  0  0  0  0  0  0  0  0  0
    5.7344  -12.6176   26.0420 C   0  0  0  0  0  0  0  0  0  0  0  0
    6.7503  -11.7632   26.4238 C   0  0  0  0  0  0  0  0  0  0  0  0
    8.0228  -12.2145   26.6088 C   0  0  0  0  0  0  0  0  0  0  0  0
    8.3121  -13.5577   26.4117 C   0  0  0  0  0  0  0  0  0  0  0  0
    9.2757  -17.1154   27.1160 C   0  0  0  0  0  0  0  0  0  0  0  0
    9.8066  -16.7008   28.3249 O   0  0  0  0  0  0  0  0  0  0  0  0
    9.0013  -18.3656   27.0467 O   0  0  0  0  0  0  0  0  0  0  0  0
  1  2  1  0
  2  4  1  0
  2  3  2  0
  4  5  1  0
  5  7  1  0
  5  6  1  6
  7  8  2  0
  9  7  1  0
  9 10  1  0
 10 11  1  6
 11 12  1  0
 12 13  1  0
 13 14  2  0
 13 17  1  0
 15 18  1  0
 15 10  1  0
 16 15  2  0
 19 27  1  0
 19 20  1  6
 19 18  1  0
 20 21  1  0
 21 26  2  0
 21 22  1  0
 22 23  2  0
 23 24  1  0
 25 24  2  0
 26 25  1  0
 27 28  1  0
 29 27  2  0
M  END
$$$$
