NEF.pdb
     RDKit          3D

 29 29  0  0  1  0  0  0  0  0999 V2000
    6.9647  -16.8315   18.1993 N   0  0  0  0  0  0  0  0  0  0  0  0
    6.3665  -17.8780   18.9551 C   0  0  0  0  0  0  0  0  0  0  0  0
    5.7786  -18.8177   18.3311 O   0  0  0  0  0  0  0  0  0  0  0  0
    6.4158  -17.8925   20.4437 C   0  0  0  0  0  0  0  0  0  0  0  0
    7.0895  -16.6183   20.8976 C   0  0  2  0  0  0  0  0  0  0  0  0
    7.7135  -16.0306   19.7329 N   0  0  0  0  0  0  0  0  0  0  0  0
    8.0556  -16.8554   21.9937 C   0  0  0  0  0  0  0  0  0  0  0  0
    7.6657  -17.5182   22.9862 O   0  0  0  0  0  0  0  0  0  0  0  0
    9.3942  -16.3798   21.9909 N   0  0  0  0  0  0  0  0  0  0  0  0
   10.3870  -16.7303   22.9835 C   0  0  1  0  0  0  0  0  0  0  0  0
   11.7689  -16.2730   22.6127 C   0  0  0  0  0  0  0  0  0  0  0  0
   12.8126  -16.6985   23.5960 C   0  0  0  0  0  0  0  0  0  0  0  0
   14.1680  -16.3294   23.1128 C   0  0  0  0  0  0  0  0  0  0  0  0
   14.6292  -16.7523   22.0224 O   0  0  0  0  0  0  0  0  0  0  0  0
   10.0172  -16.0491   24.2618 C   0  0  0  0  0  0  0  0  0  0  0  0
   10.1625  -14.8097   24.3726 O   0  0  0  0  0  0  0  0  0  0  0  0
   14.9705  -15.4909   23.8733 O   0  0  0  0  0  0  0  0  0  0  0  0
    9.4987  -16.7603   25.3764 N   0  0  0  0  0  0  0  0  0  0  0  0
    9.3070  -16.1589   26.6953 C   0  0  1  0  0  0  0  0  0  0  0  0
    7.8919  -15.7338   26.8953 C   0  0  0  0  0  0  0  0  0  0  0  0
    7.6549  -14.3265   26.5310 C   0  0  0  0  0  0  0  0  0  0  0  0
    8.0530  -13.3389   27.4025 C   0  0  0  0  0  0  0  0  0  0  0  0
    7.8598  -11.9898   27.1155 C   0  0  0  0  0  0  0  0  0  0  0  0
    7.2512  -11.6606   25.9200 C   0  0  0  0  0  0  0  0  0  0  0  0
    6.8488  -12.6222   25.0421 C   0  0  0  0  0  0  0  0  0  0  0  0
    7.0509  -13.9611   25.3476 C   0  0  0  0  0  0  0  0  0  0  0  0
    9.7715  -17.0990   27.7368 C   0  0  0  0  0  0  0  0  0  0  0  0
    9.9258  -16.7831   29.0753 O   0  0  0  0  0  0  0  0  0  0  0  0
   10.0682  -18.3075   27.4292 O   0  0  0  0  0  0  0  0  0  0  0  0
  1  2  1  0
  2  4  1  0
  2  3  2  0
  4  5  1  0
  5  7  1  0
  5  6  1  6
  7  8  2  0
  9  7  1  0
  9 10  1  0
 10 11  1  6
 11 12  1  0
 12 13  1  0
 13 14  2  0
 13 17  1  0
 15 18  1  0
 15 10  1  0
 16 15  2  0
 19 27  1  0
 19 20  1  1
 19 18  1  0
 20 21  1  0
 21 26  2  0
 21 22  1  0
 22 23  2  0
 23 24  1  0
 25 24  2  0
 26 25  1  0
 27 28  1  0
 29 27  2  0
M  END
$$$$
