NEF.pdb
     RDKit          3D

 29 29  0  0  1  0  0  0  0  0999 V2000
    8.8167  -12.9324   17.9162 N   0  0  0  0  0  0  0  0  0  0  0  0
    7.6142  -13.6730   18.0883 C   0  0  0  0  0  0  0  0  0  0  0  0
    6.5896  -13.3312   17.4166 O   0  0  0  0  0  0  0  0  0  0  0  0
    7.5349  -14.8257   19.0283 C   0  0  0  0  0  0  0  0  0  0  0  0
    7.9665  -14.3413   20.3931 C   0  0  2  0  0  0  0  0  0  0  0  0
    9.0279  -13.3812   20.1861 N   0  0  0  0  0  0  0  0  0  0  0  0
    8.3795  -15.4541   21.2775 C   0  0  0  0  0  0  0  0  0  0  0  0
    7.4957  -16.2614   21.6562 O   0  0  0  0  0  0  0  0  0  0  0  0
    9.7121  -15.6636   21.7228 N   0  0  0  0  0  0  0  0  0  0  0  0
   10.1141  -16.7195   22.6268 C   0  0  1  0  0  0  0  0  0  0  0  0
   11.5363  -17.1557   22.4182 C   0  0  0  0  0  0  0  0  0  0  0  0
   11.9704  -18.2216   23.3735 C   0  0  0  0  0  0  0  0  0  0  0  0
   13.3854  -18.6008   23.1264 C   0  0  0  0  0  0  0  0  0  0  0  0
   14.2289  -18.6845   24.0548 O   0  0  0  0  0  0  0  0  0  0  0  0
   10.0064  -16.1937   24.0221 C   0  0  0  0  0  0  0  0  0  0  0  0
   10.6530  -15.1739   24.3558 O   0  0  0  0  0  0  0  0  0  0  0  0
   13.8138  -18.8767   21.8357 O   0  0  0  0  0  0  0  0  0  0  0  0
    9.1873  -16.8125   25.0034 N   0  0  0  0  0  0  0  0  0  0  0  0
    9.1168  -16.3614   26.3925 C   0  0  1  0  0  0  0  0  0  0  0  0
    7.7540  -15.8592   26.7295 C   0  0  0  0  0  0  0  0  0  0  0  0
    7.5534  -14.4459   26.3667 C   0  0  0  0  0  0  0  0  0  0  0  0
    8.1706  -13.4731   27.1191 C   0  0  0  0  0  0  0  0  0  0  0  0
    8.0230  -12.1196   26.8263 C   0  0  0  0  0  0  0  0  0  0  0  0
    7.2322  -11.7704   25.7489 C   0  0  0  0  0  0  0  0  0  0  0  0
    6.6116  -12.7170   24.9901 C   0  0  0  0  0  0  0  0  0  0  0  0
    6.7720  -14.0607   25.2991 C   0  0  0  0  0  0  0  0  0  0  0  0
    9.5589  -17.4519   27.2868 C   0  0  0  0  0  0  0  0  0  0  0  0
    9.9238  -18.7193   26.8677 O   0  0  0  0  0  0  0  0  0  0  0  0
    9.6249  -17.2615   28.5527 O   0  0  0  0  0  0  0  0  0  0  0  0
  1  2  1  0
  2  4  1  0
  2  3  2  0
  4  5  1  0
  5  7  1  0
  5  6  1  6
  7  8  2  0
  9  7  1  0
  9 10  1  0
 10 11  1  6
 11 12  1  0
 12 13  1  0
 13 14  2  0
 13 17  1  0
 15 18  1  0
 15 10  1  0
 16 15  2  0
 19 27  1  0
 19 20  1  1
 19 18  1  0
 20 21  1  0
 21 26  2  0
 21 22  1  0
 22 23  2  0
 23 24  1  0
 25 24  2  0
 26 25  1  0
 27 28  1  0
 29 27  2  0
M  END
$$$$
