TVD.pdb
     RDKit          3D

 23 22  0  0  1  0  0  0  0  0999 V2000
   21.2045  -10.4911  -20.1365 C   0  0  0  0  0  0  0  0  0  0  0  0
   20.5438  -11.8217  -19.8317 C   0  0  1  0  0  0  0  0  0  0  0  0
   20.8846  -12.7139  -20.8550 O   0  0  0  0  0  0  0  0  0  0  0  0
   21.1526  -12.3578  -18.5431 C   0  0  2  0  0  0  0  0  0  0  0  0
   20.5319  -13.6578  -18.2885 N   0  0  0  0  0  0  0  0  0  0  0  0
   20.8365  -11.4774  -17.3974 C   0  0  0  0  0  0  0  0  0  0  0  0
   19.6469  -11.3458  -16.9651 O   0  0  0  0  0  0  0  0  0  0  0  0
   22.2467   -9.0993  -13.4286 C   0  0  0  0  0  0  0  0  0  0  0  0
   22.5569  -10.0869  -14.5059 C   0  0  2  0  0  0  0  0  0  0  0  0
   23.9653   -9.8741  -15.0577 C   0  0  0  0  0  0  0  0  0  0  0  0
   21.6074   -9.8906  -15.6719 C   0  0  2  0  0  0  0  0  0  0  0  0
   21.8885  -10.7641  -16.7688 N   0  0  0  0  0  0  0  0  0  0  0  0
   21.6607   -8.4868  -16.1743 C   0  0  0  0  0  0  0  0  0  0  0  0
   22.3804   -8.1912  -17.1913 O   0  0  0  0  0  0  0  0  0  0  0  0
   20.9559   -7.4099  -15.6007 N   0  0  0  0  0  0  0  0  0  0  0  0
   20.9194   -6.0671  -16.2187 C   0  0  1  0  0  0  0  0  0  0  0  0
   20.3848   -6.1822  -17.6175 C   0  0  0  0  0  0  0  0  0  0  0  0
   20.2474   -4.8747  -18.2376 C   0  0  0  0  0  0  0  0  0  0  0  0
   20.5929   -3.8256  -17.6872 O   0  0  0  0  0  0  0  0  0  0  0  0
   20.0033   -5.2146  -15.4311 C   0  0  0  0  0  0  0  0  0  0  0  0
   19.9585   -3.8481  -15.7296 O   0  0  0  0  0  0  0  0  0  0  0  0
   19.6942   -4.7735  -19.5316 O   0  0  0  0  0  0  0  0  0  0  0  0
   19.2859   -5.6353  -14.5372 O   0  0  0  0  0  0  0  0  0  0  0  0
  2  1  1  6
  2  3  1  0
  4  5  1  1
  4  2  1  0
  6  7  2  0
  6  4  1  0
  9  8  1  1
  9 11  1  0
 10  9  1  0
 11 12  1  6
 11 13  1  0
 12  6  1  0
 13 14  2  0
 13 15  1  0
 15 16  1  0
 16 20  1  0
 16 17  1  6
 18 17  1  0
 18 22  1  0
 19 18  2  0
 20 23  2  0
 20 21  1  0
M  END
$$$$
