TVD.pdb
     RDKit          3D

 23 22  0  0  1  0  0  0  0  0999 V2000
   17.0581   -9.8273  -13.0150 C   0  0  0  0  0  0  0  0  0  0  0  0
   15.8715  -10.7718  -13.0287 C   0  0  1  0  0  0  0  0  0  0  0  0
   16.3284  -12.0280  -13.4441 O   0  0  0  0  0  0  0  0  0  0  0  0
   15.3804  -10.9208  -11.5951 C   0  0  2  0  0  0  0  0  0  0  0  0
   14.2619  -11.8633  -11.6249 N   0  0  0  0  0  0  0  0  0  0  0  0
   14.8705   -9.6356  -11.0699 C   0  0  0  0  0  0  0  0  0  0  0  0
   13.7881   -9.1217  -11.4986 O   0  0  0  0  0  0  0  0  0  0  0  0
   14.0508   -8.1060   -7.5545 C   0  0  0  0  0  0  0  0  0  0  0  0
   15.2546   -7.4582   -8.1574 C   0  0  2  0  0  0  0  0  0  0  0  0
   15.2508   -5.9512   -7.9082 C   0  0  0  0  0  0  0  0  0  0  0  0
   15.2374   -7.6420   -9.6626 C   0  0  2  0  0  0  0  0  0  0  0  0
   15.6099   -8.9630  -10.0641 N   0  0  0  0  0  0  0  0  0  0  0  0
   16.1615   -6.6789  -10.3294 C   0  0  0  0  0  0  0  0  0  0  0  0
   17.4249   -6.8875  -10.3255 O   0  0  0  0  0  0  0  0  0  0  0  0
   15.7457   -5.5074  -10.9926 N   0  0  0  0  0  0  0  0  0  0  0  0
   16.6785   -4.6611  -11.7672 C   0  0  1  0  0  0  0  0  0  0  0  0
   17.0519   -5.3724  -13.0362 C   0  0  0  0  0  0  0  0  0  0  0  0
   17.8601   -4.5242  -13.8966 C   0  0  0  0  0  0  0  0  0  0  0  0
   18.8965   -3.9706  -13.5197 O   0  0  0  0  0  0  0  0  0  0  0  0
   15.9868   -3.4019  -12.1171 C   0  0  0  0  0  0  0  0  0  0  0  0
   14.6037   -3.3347  -11.9154 O   0  0  0  0  0  0  0  0  0  0  0  0
   17.4609   -4.3073  -15.2324 O   0  0  0  0  0  0  0  0  0  0  0  0
   16.5537   -2.4205  -12.5710 O   0  0  0  0  0  0  0  0  0  0  0  0
  2  1  1  1
  2  3  1  0
  4  5  1  6
  4  2  1  0
  6  7  2  0
  6  4  1  0
  9  8  1  1
  9 11  1  0
 10  9  1  0
 11 12  1  1
 11 13  1  0
 12  6  1  0
 13 14  2  0
 13 15  1  0
 15 16  1  0
 16 20  1  0
 16 17  1  6
 18 17  1  0
 18 22  1  0
 19 18  2  0
 20 23  2  0
 20 21  1  0
M  END
$$$$
