TVD.pdb
     RDKit          3D

 23 22  0  0  1  0  0  0  0  0999 V2000
   18.2151   -9.0409  -17.8932 C   0  0  0  0  0  0  0  0  0  0  0  0
   17.4528  -10.3077  -17.5549 C   0  0  1  0  0  0  0  0  0  0  0  0
   16.6738  -10.6489  -18.6665 O   0  0  0  0  0  0  0  0  0  0  0  0
   18.4705  -11.4228  -17.3566 C   0  0  2  0  0  0  0  0  0  0  0  0
   17.7157  -12.6362  -17.0436 N   0  0  0  0  0  0  0  0  0  0  0  0
   19.3575  -11.1371  -16.2078 C   0  0  0  0  0  0  0  0  0  0  0  0
   18.9668  -11.2964  -15.0072 O   0  0  0  0  0  0  0  0  0  0  0  0
   22.7720  -12.3263  -15.0386 C   0  0  0  0  0  0  0  0  0  0  0  0
   22.8767  -10.8780  -15.3903 C   0  0  2  0  0  0  0  0  0  0  0  0
   23.7140  -10.1215  -14.3608 C   0  0  0  0  0  0  0  0  0  0  0  0
   21.4996  -10.2434  -15.3700 C   0  0  2  0  0  0  0  0  0  0  0  0
   20.6745  -10.6742  -16.4558 N   0  0  0  0  0  0  0  0  0  0  0  0
   21.5957   -8.7555  -15.4252 C   0  0  0  0  0  0  0  0  0  0  0  0
   21.6951   -8.1558  -16.5522 O   0  0  0  0  0  0  0  0  0  0  0  0
   21.5862   -7.9157  -14.2939 N   0  0  0  0  0  0  0  0  0  0  0  0
   21.6133   -6.4412  -14.4007 C   0  0  1  0  0  0  0  0  0  0  0  0
   22.7254   -6.0339  -15.3243 C   0  0  0  0  0  0  0  0  0  0  0  0
   22.7877   -4.5887  -15.4678 C   0  0  0  0  0  0  0  0  0  0  0  0
   22.4906   -3.8058  -14.5613 O   0  0  0  0  0  0  0  0  0  0  0  0
   20.3294   -5.9905  -14.9793 C   0  0  0  0  0  0  0  0  0  0  0  0
   19.2602   -5.7613  -14.1060 O   0  0  0  0  0  0  0  0  0  0  0  0
   23.2047   -4.0290  -16.6940 O   0  0  0  0  0  0  0  0  0  0  0  0
   20.1506   -5.8080  -16.1732 O   0  0  0  0  0  0  0  0  0  0  0  0
  2  1  1  6
  2  3  1  0
  4  5  1  1
  4  2  1  0
  6  7  2  0
  6  4  1  0
  9  8  1  1
  9 11  1  0
 10  9  1  0
 11 12  1  6
 11 13  1  0
 12  6  1  0
 13 14  2  0
 13 15  1  0
 15 16  1  0
 16 20  1  0
 16 17  1  6
 18 17  1  0
 18 22  1  0
 19 18  2  0
 20 23  2  0
 20 21  1  0
M  END
$$$$
