TVD.pdb
     RDKit          3D

 23 22  0  0  1  0  0  0  0  0999 V2000
   25.2913  -13.8423  -15.0661 C   0  0  0  0  0  0  0  0  0  0  0  0
   25.2230  -14.8497  -16.1977 C   0  0  1  0  0  0  0  0  0  0  0  0
   25.8092  -16.0389  -15.7487 O   0  0  0  0  0  0  0  0  0  0  0  0
   23.7539  -15.1442  -16.4689 C   0  0  2  0  0  0  0  0  0  0  0  0
   23.7117  -16.2525  -17.4227 N   0  0  0  0  0  0  0  0  0  0  0  0
   23.0851  -13.9847  -17.0982 C   0  0  0  0  0  0  0  0  0  0  0  0
   23.4388  -13.5492  -18.2404 O   0  0  0  0  0  0  0  0  0  0  0  0
   19.1403  -13.2125  -16.5061 C   0  0  0  0  0  0  0  0  0  0  0  0
   19.9936  -12.6121  -17.5755 C   0  0  2  0  0  0  0  0  0  0  0  0
   20.2643  -13.6183  -18.6925 C   0  0  0  0  0  0  0  0  0  0  0  0
   21.3465  -12.2361  -17.0027 C   0  0  2  0  0  0  0  0  0  0  0  0
   22.0244  -13.3457  -16.4074 N   0  0  0  0  0  0  0  0  0  0  0  0
   21.2113  -11.1690  -15.9687 C   0  0  0  0  0  0  0  0  0  0  0  0
   21.0955  -11.4787  -14.7317 O   0  0  0  0  0  0  0  0  0  0  0  0
   21.1996   -9.7880  -16.2483 N   0  0  0  0  0  0  0  0  0  0  0  0
   21.0479   -8.7661  -15.1905 C   0  0  1  0  0  0  0  0  0  0  0  0
   21.7765   -7.5187  -15.6016 C   0  0  0  0  0  0  0  0  0  0  0  0
   21.7321   -6.5135  -14.5525 C   0  0  0  0  0  0  0  0  0  0  0  0
   21.2624   -6.7264  -13.4314 O   0  0  0  0  0  0  0  0  0  0  0  0
   19.6105   -8.4491  -15.0493 C   0  0  0  0  0  0  0  0  0  0  0  0
   19.0970   -8.2904  -13.7572 O   0  0  0  0  0  0  0  0  0  0  0  0
   22.2446   -5.2231  -14.8038 O   0  0  0  0  0  0  0  0  0  0  0  0
   18.8489   -8.3187  -15.9946 O   0  0  0  0  0  0  0  0  0  0  0  0
  2  1  1  1
  2  3  1  0
  4  5  1  6
  4  2  1  0
  6  7  2  0
  6  4  1  0
  9  8  1  1
  9 11  1  0
 10  9  1  0
 11 12  1  1
 11 13  1  0
 12  6  1  0
 13 14  2  0
 13 15  1  0
 15 16  1  0
 16 20  1  0
 16 17  1  6
 18 17  1  0
 18 22  1  0
 19 18  2  0
 20 23  2  0
 20 21  1  0
M  END
$$$$
