TVD.pdb
     RDKit          3D

 23 22  0  0  1  0  0  0  0  0999 V2000
   25.4836  -12.7357  -15.4162 C   0  0  0  0  0  0  0  0  0  0  0  0
   24.5743  -11.6631  -15.9842 C   0  0  1  0  0  0  0  0  0  0  0  0
   24.9244  -11.4705  -17.3257 O   0  0  0  0  0  0  0  0  0  0  0  0
   23.1504  -12.2019  -15.9615 C   0  0  2  0  0  0  0  0  0  0  0  0
   23.0771  -13.2520  -16.9774 N   0  0  0  0  0  0  0  0  0  0  0  0
   22.1768  -11.1514  -16.3308 C   0  0  0  0  0  0  0  0  0  0  0  0
   21.8642  -10.9279  -17.5439 O   0  0  0  0  0  0  0  0  0  0  0  0
   18.6743  -10.8340  -16.1361 C   0  0  0  0  0  0  0  0  0  0  0  0
   19.1995   -9.7844  -15.2115 C   0  0  2  0  0  0  0  0  0  0  0  0
   18.3525   -8.5152  -15.2828 C   0  0  0  0  0  0  0  0  0  0  0  0
   20.6016   -9.3860  -15.6299 C   0  0  2  0  0  0  0  0  0  0  0  0
   21.5800  -10.3768  -15.3040 N   0  0  0  0  0  0  0  0  0  0  0  0
   21.0088   -8.1047  -14.9828 C   0  0  0  0  0  0  0  0  0  0  0  0
   21.2945   -8.0731  -13.7350 O   0  0  0  0  0  0  0  0  0  0  0  0
   21.1107   -6.8712  -15.6562 N   0  0  0  0  0  0  0  0  0  0  0  0
   21.5684   -5.6363  -14.9841 C   0  0  1  0  0  0  0  0  0  0  0  0
   21.9011   -4.6037  -16.0228 C   0  0  0  0  0  0  0  0  0  0  0  0
   22.4390   -3.3986  -15.4134 C   0  0  0  0  0  0  0  0  0  0  0  0
   22.7249   -3.3162  -14.2158 O   0  0  0  0  0  0  0  0  0  0  0  0
   20.4641   -5.1238  -14.1449 C   0  0  0  0  0  0  0  0  0  0  0  0
   20.7427   -4.8186  -12.8079 O   0  0  0  0  0  0  0  0  0  0  0  0
   22.6534   -2.2533  -16.2090 O   0  0  0  0  0  0  0  0  0  0  0  0
   19.3259   -4.9530  -14.5523 O   0  0  0  0  0  0  0  0  0  0  0  0
  2  1  1  6
  2  3  1  0
  4  5  1  6
  4  2  1  0
  6  7  2  0
  6  4  1  0
  9  8  1  6
  9 11  1  0
 10  9  1  0
 11 12  1  1
 11 13  1  0
 12  6  1  0
 13 14  2  0
 13 15  1  0
 15 16  1  0
 16 20  1  0
 16 17  1  6
 18 17  1  0
 18 22  1  0
 19 18  2  0
 20 23  2  0
 20 21  1  0
M  END
$$$$
