TVD.pdb
     RDKit          3D

 23 22  0  0  1  0  0  0  0  0999 V2000
   19.8711  -10.4063  -18.1934 C   0  0  0  0  0  0  0  0  0  0  0  0
   19.6389  -11.7033  -17.4425 C   0  0  1  0  0  0  0  0  0  0  0  0
   18.9203  -12.5621  -18.2823 O   0  0  0  0  0  0  0  0  0  0  0  0
   20.9969  -12.3456  -17.1944 C   0  0  2  0  0  0  0  0  0  0  0  0
   20.7452  -13.6438  -16.5687 N   0  0  0  0  0  0  0  0  0  0  0  0
   21.8028  -11.5411  -16.2503 C   0  0  0  0  0  0  0  0  0  0  0  0
   21.5087  -11.4700  -15.0142 O   0  0  0  0  0  0  0  0  0  0  0  0
   25.5441  -11.5302  -15.5971 C   0  0  0  0  0  0  0  0  0  0  0  0
   25.1639  -10.1411  -15.9946 C   0  0  2  0  0  0  0  0  0  0  0  0
   25.7959   -9.1099  -15.0616 C   0  0  0  0  0  0  0  0  0  0  0  0
   23.6628   -9.9642  -15.8721 C   0  0  2  0  0  0  0  0  0  0  0  0
   22.9296  -10.8331  -16.7397 N   0  0  0  0  0  0  0  0  0  0  0  0
   23.2632   -8.5600  -16.1797 C   0  0  0  0  0  0  0  0  0  0  0  0
   23.5511   -8.0398  -17.3137 O   0  0  0  0  0  0  0  0  0  0  0  0
   22.5650   -7.7192  -15.2903 N   0  0  0  0  0  0  0  0  0  0  0  0
   22.1789   -6.3365  -15.6443 C   0  0  1  0  0  0  0  0  0  0  0  0
   20.6852   -6.2044  -15.5596 C   0  0  0  0  0  0  0  0  0  0  0  0
   20.0384   -6.7879  -16.7232 C   0  0  0  0  0  0  0  0  0  0  0  0
   20.6354   -7.0396  -17.7735 O   0  0  0  0  0  0  0  0  0  0  0  0
   22.7914   -5.4144  -14.6639 C   0  0  0  0  0  0  0  0  0  0  0  0
   22.7520   -4.0429  -14.9390 O   0  0  0  0  0  0  0  0  0  0  0  0
   18.6611   -7.0902  -16.6746 O   0  0  0  0  0  0  0  0  0  0  0  0
   23.3283   -5.7821  -13.6309 O   0  0  0  0  0  0  0  0  0  0  0  0
  2  1  1  6
  2  3  1  0
  4  5  1  1
  4  2  1  0
  6  7  2  0
  6  4  1  0
  9  8  1  1
  9 11  1  0
 10  9  1  0
 11 12  1  6
 11 13  1  0
 12  6  1  0
 13 14  2  0
 13 15  1  0
 15 16  1  0
 16 20  1  0
 16 17  1  1
 18 17  1  0
 18 22  1  0
 19 18  2  0
 20 23  2  0
 20 21  1  0
M  END
$$$$
