TVD.pdb
     RDKit          3D

 23 22  0  0  1  0  0  0  0  0999 V2000
   27.6606  -11.2216  -15.1531 C   0  0  0  0  0  0  0  0  0  0  0  0
   26.4370  -10.4863  -15.6651 C   0  0  1  0  0  0  0  0  0  0  0  0
   26.7226  -10.0253  -16.9554 O   0  0  0  0  0  0  0  0  0  0  0  0
   25.3049  -11.4973  -15.7865 C   0  0  2  0  0  0  0  0  0  0  0  0
   25.7111  -12.4703  -16.8006 N   0  0  0  0  0  0  0  0  0  0  0  0
   24.0608  -10.8507  -16.2576 C   0  0  0  0  0  0  0  0  0  0  0  0
   23.7176  -10.8771  -17.4828 O   0  0  0  0  0  0  0  0  0  0  0  0
   20.6253  -11.5933  -16.0690 C   0  0  0  0  0  0  0  0  0  0  0  0
   20.7843  -10.3421  -15.2681 C   0  0  2  0  0  0  0  0  0  0  0  0
   19.5936   -9.4064  -15.4680 C   0  0  0  0  0  0  0  0  0  0  0  0
   22.0086   -9.5819  -15.7404 C   0  0  2  0  0  0  0  0  0  0  0  0
   23.2337  -10.1861  -15.3171 N   0  0  0  0  0  0  0  0  0  0  0  0
   21.9904   -8.1760  -15.2410 C   0  0  0  0  0  0  0  0  0  0  0  0
   22.1343   -7.9319  -13.9922 O   0  0  0  0  0  0  0  0  0  0  0  0
   21.8211   -7.0431  -16.0613 N   0  0  0  0  0  0  0  0  0  0  0  0
   21.7385   -5.6723  -15.5132 C   0  0  1  0  0  0  0  0  0  0  0  0
   21.9351   -4.6833  -16.6262 C   0  0  0  0  0  0  0  0  0  0  0  0
   21.8188   -3.3173  -16.1430 C   0  0  0  0  0  0  0  0  0  0  0  0
   21.5981   -3.0342  -14.9623 O   0  0  0  0  0  0  0  0  0  0  0  0
   20.3888   -5.4780  -14.9411 C   0  0  0  0  0  0  0  0  0  0  0  0
   20.2932   -4.9445  -13.6509 O   0  0  0  0  0  0  0  0  0  0  0  0
   21.9606   -2.2448  -17.0488 O   0  0  0  0  0  0  0  0  0  0  0  0
   19.3563   -5.7566  -15.5300 O   0  0  0  0  0  0  0  0  0  0  0  0
  2  1  1  6
  2  3  1  0
  4  5  1  6
  4  2  1  0
  6  7  2  0
  6  4  1  0
  9  8  1  6
  9 11  1  0
 10  9  1  0
 11 12  1  1
 11 13  1  0
 12  6  1  0
 13 14  2  0
 13 15  1  0
 15 16  1  0
 16 20  1  0
 16 17  1  6
 18 17  1  0
 18 22  1  0
 19 18  2  0
 20 23  2  0
 20 21  1  0
M  END
$$$$
