TVD.pdb
     RDKit          3D

 23 22  0  0  1  0  0  0  0  0999 V2000
   19.0318   -9.1334  -18.6310 C   0  0  0  0  0  0  0  0  0  0  0  0
   18.2956  -10.3628  -18.1343 C   0  0  1  0  0  0  0  0  0  0  0  0
   17.7476  -11.0127  -19.2464 O   0  0  0  0  0  0  0  0  0  0  0  0
   19.3241  -11.3040  -17.5221 C   0  0  2  0  0  0  0  0  0  0  0  0
   18.6127  -12.5269  -17.1501 N   0  0  0  0  0  0  0  0  0  0  0  0
   19.9049  -10.7297  -16.2890 C   0  0  0  0  0  0  0  0  0  0  0  0
   19.2244  -10.6194  -15.2193 O   0  0  0  0  0  0  0  0  0  0  0  0
   24.1248  -10.1566  -15.9163 C   0  0  0  0  0  0  0  0  0  0  0  0
   23.1742  -10.3213  -14.7755 C   0  0  2  0  0  0  0  0  0  0  0  0
   22.9121  -11.7982  -14.4872 C   0  0  0  0  0  0  0  0  0  0  0  0
   21.8325   -9.7114  -15.1327 C   0  0  2  0  0  0  0  0  0  0  0  0
   21.2536  -10.2924  -16.3042 N   0  0  0  0  0  0  0  0  0  0  0  0
   21.9564   -8.2419  -15.3591 C   0  0  0  0  0  0  0  0  0  0  0  0
   21.9843   -7.7716  -16.5497 O   0  0  0  0  0  0  0  0  0  0  0  0
   22.0495   -7.2840  -14.3299 N   0  0  0  0  0  0  0  0  0  0  0  0
   22.1592   -5.8350  -14.6029 C   0  0  1  0  0  0  0  0  0  0  0  0
   20.9178   -5.3708  -15.3094 C   0  0  0  0  0  0  0  0  0  0  0  0
   20.9653   -3.9421  -15.5729 C   0  0  0  0  0  0  0  0  0  0  0  0
   22.0162   -3.2963  -15.6120 O   0  0  0  0  0  0  0  0  0  0  0  0
   22.2626   -5.1223  -13.3114 C   0  0  0  0  0  0  0  0  0  0  0  0
   22.1126   -5.8675  -12.1365 O   0  0  0  0  0  0  0  0  0  0  0  0
   19.7645   -3.2361  -15.7978 O   0  0  0  0  0  0  0  0  0  0  0  0
   22.4707   -3.9233  -13.2135 O   0  0  0  0  0  0  0  0  0  0  0  0
  2  1  1  6
  2  3  1  0
  4  5  1  1
  4  2  1  0
  6  7  2  0
  6  4  1  0
  9  8  1  6
  9 11  1  0
 10  9  1  0
 11 12  1  6
 11 13  1  0
 12  6  1  0
 13 14  2  0
 13 15  1  0
 15 16  1  0
 16 20  1  0
 16 17  1  1
 18 17  1  0
 18 22  1  0
 19 18  2  0
 20 23  2  0
 20 21  1  0
M  END
$$$$
