TVD.pdb
     RDKit          3D

 23 22  0  0  1  0  0  0  0  0999 V2000
   26.7272  -10.5963  -15.0988 C   0  0  0  0  0  0  0  0  0  0  0  0
   27.1546  -11.1049  -16.4622 C   0  0  1  0  0  0  0  0  0  0  0  0
   28.3525  -11.8106  -16.3003 O   0  0  0  0  0  0  0  0  0  0  0  0
   26.1042  -12.1000  -16.9365 C   0  0  2  0  0  0  0  0  0  0  0  0
   26.6074  -12.6901  -18.1770 N   0  0  0  0  0  0  0  0  0  0  0  0
   24.8280  -11.4204  -17.2481 C   0  0  0  0  0  0  0  0  0  0  0  0
   24.6616  -10.7782  -18.3341 O   0  0  0  0  0  0  0  0  0  0  0  0
   21.4484  -12.7240  -17.7485 C   0  0  0  0  0  0  0  0  0  0  0  0
   21.3465  -11.7939  -16.5838 C   0  0  2  0  0  0  0  0  0  0  0  0
   20.0905  -10.9297  -16.6786 C   0  0  0  0  0  0  0  0  0  0  0  0
   22.5236  -10.8377  -16.5852 C   0  0  2  0  0  0  0  0  0  0  0  0
   23.7669  -11.4886  -16.3101 N   0  0  0  0  0  0  0  0  0  0  0  0
   22.3351   -9.7562  -15.5747 C   0  0  0  0  0  0  0  0  0  0  0  0
   22.9998   -9.7713  -14.4804 O   0  0  0  0  0  0  0  0  0  0  0  0
   21.4493   -8.6712  -15.7274 N   0  0  0  0  0  0  0  0  0  0  0  0
   21.3716   -7.5670  -14.7472 C   0  0  1  0  0  0  0  0  0  0  0  0
   22.4900   -6.5984  -15.0056 C   0  0  0  0  0  0  0  0  0  0  0  0
   22.4261   -5.4660  -14.0965 C   0  0  0  0  0  0  0  0  0  0  0  0
   21.6140   -5.3871  -13.1707 O   0  0  0  0  0  0  0  0  0  0  0  0
   20.0845   -6.8640  -14.9356 C   0  0  0  0  0  0  0  0  0  0  0  0
   19.5080   -6.2404  -13.8233 O   0  0  0  0  0  0  0  0  0  0  0  0
   23.3257   -4.3913  -14.2599 O   0  0  0  0  0  0  0  0  0  0  0  0
   19.4982   -6.7977  -16.0045 O   0  0  0  0  0  0  0  0  0  0  0  0
  2  1  1  1
  2  3  1  0
  4  5  1  6
  4  2  1  0
  6  7  2  0
  6  4  1  0
  9  8  1  6
  9 11  1  0
 10  9  1  0
 11 12  1  1
 11 13  1  0
 12  6  1  0
 13 14  2  0
 13 15  1  0
 15 16  1  0
 16 20  1  0
 16 17  1  6
 18 17  1  0
 18 22  1  0
 19 18  2  0
 20 23  2  0
 20 21  1  0
M  END
$$$$
