TVD.pdb
     RDKit          3D

 23 22  0  0  1  0  0  0  0  0999 V2000
   20.8942   -9.2712  -19.8871 C   0  0  0  0  0  0  0  0  0  0  0  0
   20.3389  -10.6814  -19.8317 C   0  0  1  0  0  0  0  0  0  0  0  0
   20.5685  -11.2816  -21.0751 O   0  0  0  0  0  0  0  0  0  0  0  0
   21.1453  -11.4575  -18.7993 C   0  0  2  0  0  0  0  0  0  0  0  0
   20.6327  -12.8277  -18.8021 N   0  0  0  0  0  0  0  0  0  0  0  0
   20.9447  -10.9060  -17.4416 C   0  0  0  0  0  0  0  0  0  0  0  0
   19.8492  -11.0620  -16.8130 O   0  0  0  0  0  0  0  0  0  0  0  0
   22.7486  -11.2666  -14.1783 C   0  0  0  0  0  0  0  0  0  0  0  0
   22.8294   -9.8211  -14.5475 C   0  0  2  0  0  0  0  0  0  0  0  0
   22.5245   -8.9290  -13.3457 C   0  0  0  0  0  0  0  0  0  0  0  0
   21.7814   -9.4990  -15.5951 C   0  0  2  0  0  0  0  0  0  0  0  0
   22.0020  -10.1862  -16.8297 N   0  0  0  0  0  0  0  0  0  0  0  0
   21.7443   -8.0352  -15.8817 C   0  0  0  0  0  0  0  0  0  0  0  0
   22.6480   -7.4965  -16.6116 O   0  0  0  0  0  0  0  0  0  0  0  0
   20.7566   -7.1549  -15.3970 N   0  0  0  0  0  0  0  0  0  0  0  0
   20.6731   -5.7427  -15.8268 C   0  0  1  0  0  0  0  0  0  0  0  0
   20.4904   -5.6904  -17.3167 C   0  0  0  0  0  0  0  0  0  0  0  0
   20.4043   -4.3183  -17.7885 C   0  0  0  0  0  0  0  0  0  0  0  0
   20.5330   -3.3393  -17.0483 O   0  0  0  0  0  0  0  0  0  0  0  0
   19.4923   -5.1272  -15.1839 C   0  0  0  0  0  0  0  0  0  0  0  0
   19.4734   -3.7352  -15.0412 O   0  0  0  0  0  0  0  0  0  0  0  0
   20.1619   -4.0670  -19.1556 O   0  0  0  0  0  0  0  0  0  0  0  0
   18.5358   -5.7641  -14.7716 O   0  0  0  0  0  0  0  0  0  0  0  0
  2  1  1  6
  2  3  1  0
  4  5  1  1
  4  2  1  0
  6  7  2  0
  6  4  1  0
  9  8  1  1
  9 11  1  0
 10  9  1  0
 11 12  1  6
 11 13  1  0
 12  6  1  0
 13 14  2  0
 13 15  1  0
 15 16  1  0
 16 20  1  0
 16 17  1  6
 18 17  1  0
 18 22  1  0
 19 18  2  0
 20 23  2  0
 20 21  1  0
M  END
$$$$
