TVD.pdb
     RDKit          3D

 23 22  0  0  1  0  0  0  0  0999 V2000
   22.2758  -14.0940  -18.3215 C   0  0  0  0  0  0  0  0  0  0  0  0
   22.5070  -15.2289  -17.3424 C   0  0  1  0  0  0  0  0  0  0  0  0
   22.4046  -16.4325  -18.0496 O   0  0  0  0  0  0  0  0  0  0  0  0
   23.9394  -15.1217  -16.8374 C   0  0  2  0  0  0  0  0  0  0  0  0
   24.1810  -16.2918  -15.9932 N   0  0  0  0  0  0  0  0  0  0  0  0
   24.1201  -13.9174  -15.9979 C   0  0  0  0  0  0  0  0  0  0  0  0
   23.6686  -13.8584  -14.8095 O   0  0  0  0  0  0  0  0  0  0  0  0
   27.4147  -11.9833  -15.3836 C   0  0  0  0  0  0  0  0  0  0  0  0
   26.3886  -11.0297  -15.9032 C   0  0  2  0  0  0  0  0  0  0  0  0
   26.3903   -9.7296  -15.1012 C   0  0  0  0  0  0  0  0  0  0  0  0
   25.0041  -11.6276  -15.7440 C   0  0  2  0  0  0  0  0  0  0  0  0
   24.8138  -12.8036  -16.5352 N   0  0  0  0  0  0  0  0  0  0  0  0
   23.9495  -10.6418  -16.1212 C   0  0  0  0  0  0  0  0  0  0  0  0
   23.7968  -10.2951  -17.3443 O   0  0  0  0  0  0  0  0  0  0  0  0
   23.0676  -10.0322  -15.2069 N   0  0  0  0  0  0  0  0  0  0  0  0
   22.0447   -9.0504  -15.6262 C   0  0  1  0  0  0  0  0  0  0  0  0
   20.6890   -9.6939  -15.5649 C   0  0  0  0  0  0  0  0  0  0  0  0
   19.6416   -8.7489  -15.9156 C   0  0  0  0  0  0  0  0  0  0  0  0
   19.8600   -7.6822  -16.4963 O   0  0  0  0  0  0  0  0  0  0  0  0
   22.0717   -7.9140  -14.6804 C   0  0  0  0  0  0  0  0  0  0  0  0
   21.3368   -6.7692  -15.0085 O   0  0  0  0  0  0  0  0  0  0  0  0
   18.3014   -9.0425  -15.5861 O   0  0  0  0  0  0  0  0  0  0  0  0
   22.6979   -7.9189  -13.6323 O   0  0  0  0  0  0  0  0  0  0  0  0
  2  1  1  6
  2  3  1  0
  4  5  1  1
  4  2  1  0
  6  7  2  0
  6  4  1  0
  9  8  1  1
  9 11  1  0
 10  9  1  0
 11 12  1  6
 11 13  1  0
 12  6  1  0
 13 14  2  0
 13 15  1  0
 15 16  1  0
 16 20  1  0
 16 17  1  1
 18 17  1  0
 18 22  1  0
 19 18  2  0
 20 23  2  0
 20 21  1  0
M  END
$$$$
