TVD.pdb
     RDKit          3D

 23 22  0  0  1  0  0  0  0  0999 V2000
   24.3315  -12.0078  -15.5478 C   0  0  0  0  0  0  0  0  0  0  0  0
   25.4227  -12.1467  -16.5919 C   0  0  1  0  0  0  0  0  0  0  0  0
   26.0906  -13.3539  -16.3558 O   0  0  0  0  0  0  0  0  0  0  0  0
   24.7505  -12.2607  -17.9534 C   0  0  2  0  0  0  0  0  0  0  0  0
   25.8059  -12.5435  -18.9261 N   0  0  0  0  0  0  0  0  0  0  0  0
   24.1125  -10.9840  -18.3416 C   0  0  0  0  0  0  0  0  0  0  0  0
   24.7868  -10.0236  -18.8341 O   0  0  0  0  0  0  0  0  0  0  0  0
   21.4291  -10.4430  -20.8371 C   0  0  0  0  0  0  0  0  0  0  0  0
   20.9067   -9.9128  -19.5416 C   0  0  2  0  0  0  0  0  0  0  0  0
   20.1883   -8.5800  -19.7428 C   0  0  0  0  0  0  0  0  0  0  0  0
   22.0604   -9.6375  -18.5966 C   0  0  2  0  0  0  0  0  0  0  0  0
   22.7148  -10.8311  -18.1582 N   0  0  0  0  0  0  0  0  0  0  0  0
   21.5962   -8.8951  -17.3885 C   0  0  0  0  0  0  0  0  0  0  0  0
   20.8320   -9.4652  -16.5337 O   0  0  0  0  0  0  0  0  0  0  0  0
   21.9417   -7.5613  -17.0936 N   0  0  0  0  0  0  0  0  0  0  0  0
   21.4497   -6.8631  -15.8867 C   0  0  1  0  0  0  0  0  0  0  0  0
   22.5857   -6.1115  -15.2541 C   0  0  0  0  0  0  0  0  0  0  0  0
   22.1480   -5.3990  -14.0651 C   0  0  0  0  0  0  0  0  0  0  0  0
   21.0174   -5.5160  -13.5846 O   0  0  0  0  0  0  0  0  0  0  0  0
   20.4121   -5.8931  -16.2979 C   0  0  0  0  0  0  0  0  0  0  0  0
   19.1986   -5.8949  -15.6011 O   0  0  0  0  0  0  0  0  0  0  0  0
   23.0409   -4.5245  -13.4103 O   0  0  0  0  0  0  0  0  0  0  0  0
   20.5548   -5.0932  -17.2092 O   0  0  0  0  0  0  0  0  0  0  0  0
  2  1  1  1
  2  3  1  0
  4  5  1  6
  4  2  1  0
  6  7  2  0
  6  4  1  0
  9  8  1  6
  9 11  1  0
 10  9  1  0
 11 12  1  1
 11 13  1  0
 12  6  1  0
 13 14  2  0
 13 15  1  0
 15 16  1  0
 16 20  1  0
 16 17  1  6
 18 17  1  0
 18 22  1  0
 19 18  2  0
 20 23  2  0
 20 21  1  0
M  END
$$$$
