TVD.pdb
     RDKit          3D

 23 22  0  0  1  0  0  0  0  0999 V2000
   18.9533  -11.5198  -14.6474 C   0  0  0  0  0  0  0  0  0  0  0  0
   18.2174  -12.5180  -15.5203 C   0  0  1  0  0  0  0  0  0  0  0  0
   19.1021  -13.5609  -15.8183 O   0  0  0  0  0  0  0  0  0  0  0  0
   17.0833  -13.1095  -14.6941 C   0  0  2  0  0  0  0  0  0  0  0  0
   16.4373  -14.1255  -15.5251 N   0  0  0  0  0  0  0  0  0  0  0  0
   16.0686  -12.0833  -14.3697 C   0  0  0  0  0  0  0  0  0  0  0  0
   15.2498  -11.6544  -15.2444 O   0  0  0  0  0  0  0  0  0  0  0  0
   13.5435  -12.1317  -11.5466 C   0  0  0  0  0  0  0  0  0  0  0  0
   14.3219  -10.8633  -11.4139 C   0  0  2  0  0  0  0  0  0  0  0  0
   13.3970   -9.6751  -11.1569 C   0  0  0  0  0  0  0  0  0  0  0  0
   15.0467  -10.5670  -12.7126 C   0  0  2  0  0  0  0  0  0  0  0  0
   16.0110  -11.5677  -13.0501 N   0  0  0  0  0  0  0  0  0  0  0  0
   15.7496   -9.2527  -12.6446 C   0  0  0  0  0  0  0  0  0  0  0  0
   16.8237   -9.1291  -11.9585 O   0  0  0  0  0  0  0  0  0  0  0  0
   15.3144   -8.0836  -13.2996 N   0  0  0  0  0  0  0  0  0  0  0  0
   16.0765   -6.8174  -13.2518 C   0  0  1  0  0  0  0  0  0  0  0  0
   17.0730   -6.7988  -14.3753 C   0  0  0  0  0  0  0  0  0  0  0  0
   17.8367   -5.5619  -14.3809 C   0  0  0  0  0  0  0  0  0  0  0  0
   17.4436   -4.5270  -14.9261 O   0  0  0  0  0  0  0  0  0  0  0  0
   15.1317   -5.6955  -13.4392 C   0  0  0  0  0  0  0  0  0  0  0  0
   15.4574   -4.4604  -12.8676 O   0  0  0  0  0  0  0  0  0  0  0  0
   19.0922   -5.5170  -13.7387 O   0  0  0  0  0  0  0  0  0  0  0  0
   14.0861   -5.7867  -14.0630 O   0  0  0  0  0  0  0  0  0  0  0  0
  2  1  1  1
  2  3  1  0
  4  5  1  6
  4  2  1  0
  6  7  2  0
  6  4  1  0
  9  8  1  6
  9 11  1  0
 10  9  1  0
 11 12  1  1
 11 13  1  0
 12  6  1  0
 13 14  2  0
 13 15  1  0
 15 16  1  0
 16 20  1  0
 16 17  1  6
 18 17  1  0
 18 22  1  0
 19 18  2  0
 20 23  2  0
 20 21  1  0
M  END
$$$$
