STP.pdb
     RDKit          3D

 21 21  0  0  1  0  0  0  0  0999 V2000
    7.2491  -17.4199   16.3820 O   0  0  0  0  0  0  0  0  0  0  0  0
    8.5909  -17.1311   16.5215 C   0  0  0  0  0  0  0  0  0  0  0  0
    9.3638  -18.3487   16.9803 C   0  0  2  0  0  0  0  0  0  0  0  0
    9.0005  -19.4544   16.1145 N   0  0  0  0  0  0  0  0  0  0  0  0
    9.1739  -18.6438   18.3989 C   0  0  0  0  0  0  0  0  0  0  0  0
    8.1054  -19.1595   18.8111 O   0  0  0  0  0  0  0  0  0  0  0  0
   10.7554  -20.9955   20.2602 C   0  0  0  0  0  0  0  0  0  0  0  0
   11.1965  -19.7004   20.9573 C   0  0  1  0  0  0  0  0  0  0  0  0
   12.2966  -19.2505   20.2326 O   0  0  0  0  0  0  0  0  0  0  0  0
   10.0850  -18.6491   20.7669 C   0  0  2  0  0  0  0  0  0  0  0  0
   10.1792  -18.3571   19.3255 N   0  0  0  0  0  0  0  0  0  0  0  0
   10.4074  -17.4245   21.5392 C   0  0  0  0  0  0  0  0  0  0  0  0
   11.5862  -16.9743   21.4378 O   0  0  0  0  0  0  0  0  0  0  0  0
    9.4539  -16.7474   22.3757 N   0  0  0  0  0  0  0  0  0  0  0  0
    8.0592  -17.0542   22.5530 C   0  0  0  0  0  0  0  0  0  0  0  0
    7.8567  -16.7796   24.0469 C   0  0  0  0  0  0  0  0  0  0  0  0
    8.5611  -15.4109   24.1170 C   0  0  0  0  0  0  0  0  0  0  0  0
    9.7732  -15.6066   23.1975 C   0  0  1  0  0  0  0  0  0  0  0  0
   10.9928  -15.8022   24.0287 C   0  0  0  0  0  0  0  0  0  0  0  0
   11.5156  -17.0591   24.2452 O   0  0  0  0  0  0  0  0  0  0  0  0
   11.5421  -14.8026   24.5329 O   0  0  0  0  0  0  0  0  0  0  0  0
  1  2  1  0
  2  3  1  0
  3  4  1  6
  5  3  1  0
  6  5  2  0
  8  7  1  6
  8 10  1  0
  9  8  1  0
 10 12  1  0
 10 11  1  6
 11  5  1  0
 12 14  1  0
 13 12  2  0
 14 15  1  0
 14 18  1  0
 15 16  1  0
 16 17  1  0
 18 19  1  1
 18 17  1  0
 19 20  1  0
 21 19  2  0
M  END
$$$$
