STP.pdb
     RDKit          3D

 21 21  0  0  1  0  0  0  0  0999 V2000
   12.5677  -17.0997   22.8761 O   0  0  0  0  0  0  0  0  0  0  0  0
   11.7638  -17.4944   21.8267 C   0  0  0  0  0  0  0  0  0  0  0  0
   11.5207  -16.3489   20.8679 C   0  0  2  0  0  0  0  0  0  0  0  0
   12.8076  -15.9280   20.3475 N   0  0  0  0  0  0  0  0  0  0  0  0
   10.7581  -15.2556   21.4670 C   0  0  0  0  0  0  0  0  0  0  0  0
   11.3312  -14.2048   21.8479 O   0  0  0  0  0  0  0  0  0  0  0  0
    7.5883  -13.4174   20.2680 C   0  0  0  0  0  0  0  0  0  0  0  0
    7.2827  -14.3072   21.4816 C   0  0  1  0  0  0  0  0  0  0  0  0
    7.0877  -15.5833   20.9607 O   0  0  0  0  0  0  0  0  0  0  0  0
    8.5498  -14.3786   22.3568 C   0  0  2  0  0  0  0  0  0  0  0  0
    9.3744  -15.3586   21.6277 N   0  0  0  0  0  0  0  0  0  0  0  0
    8.2116  -14.9194   23.6959 C   0  0  0  0  0  0  0  0  0  0  0  0
    8.4125  -16.1548   23.8848 O   0  0  0  0  0  0  0  0  0  0  0  0
    7.6789  -14.1118   24.7596 N   0  0  0  0  0  0  0  0  0  0  0  0
    7.4205  -12.6962   24.7498 C   0  0  0  0  0  0  0  0  0  0  0  0
    6.1223  -12.6005   25.5583 C   0  0  0  0  0  0  0  0  0  0  0  0
    6.5323  -13.4993   26.7409 C   0  0  0  0  0  0  0  0  0  0  0  0
    7.3096  -14.6292   26.0538 C   0  0  1  0  0  0  0  0  0  0  0  0
    6.4492  -15.8418   25.9796 C   0  0  0  0  0  0  0  0  0  0  0  0
    6.2002  -16.6104   27.0965 O   0  0  0  0  0  0  0  0  0  0  0  0
    5.9504  -16.1576   24.8811 O   0  0  0  0  0  0  0  0  0  0  0  0
  1  2  1  0
  2  3  1  0
  3  4  1  1
  5  3  1  0
  6  5  2  0
  8  7  1  6
  8 10  1  0
  9  8  1  0
 10 12  1  0
 10 11  1  6
 11  5  1  0
 12 14  1  0
 13 12  2  0
 14 15  1  0
 14 18  1  0
 15 16  1  0
 16 17  1  0
 18 19  1  6
 18 17  1  0
 19 20  1  0
 21 19  2  0
M  END
$$$$
