STP.pdb
     RDKit          3D

 21 21  0  0  1  0  0  0  0  0999 V2000
   12.1983  -16.1447   21.8375 O   0  0  0  0  0  0  0  0  0  0  0  0
   11.3383  -15.9915   20.7697 C   0  0  0  0  0  0  0  0  0  0  0  0
    9.9914  -16.6164   21.0631 C   0  0  2  0  0  0  0  0  0  0  0  0
    9.2247  -16.6113   19.8318 N   0  0  0  0  0  0  0  0  0  0  0  0
    9.2950  -15.9745   22.1759 C   0  0  0  0  0  0  0  0  0  0  0  0
    8.6684  -14.8989   22.0079 O   0  0  0  0  0  0  0  0  0  0  0  0
    6.5698  -17.1009   23.7339 C   0  0  0  0  0  0  0  0  0  0  0  0
    7.5533  -17.0641   24.9125 C   0  0  1  0  0  0  0  0  0  0  0  0
    8.2137  -18.2890   24.8772 O   0  0  0  0  0  0  0  0  0  0  0  0
    8.6142  -15.9843   24.6201 C   0  0  2  0  0  0  0  0  0  0  0  0
    9.3128  -16.5460   23.4503 N   0  0  0  0  0  0  0  0  0  0  0  0
    9.5613  -15.8827   25.7570 C   0  0  0  0  0  0  0  0  0  0  0  0
   10.4224  -16.8033   25.8723 O   0  0  0  0  0  0  0  0  0  0  0  0
    9.5379  -14.8038   26.7072 N   0  0  0  0  0  0  0  0  0  0  0  0
    8.6810  -13.6477   26.7105 C   0  0  0  0  0  0  0  0  0  0  0  0
    8.3990  -13.4603   28.2050 C   0  0  0  0  0  0  0  0  0  0  0  0
    9.8452  -13.5922   28.7204 C   0  0  0  0  0  0  0  0  0  0  0  0
   10.4134  -14.7200   27.8497 C   0  0  1  0  0  0  0  0  0  0  0  0
   10.4640  -15.9766   28.6464 C   0  0  0  0  0  0  0  0  0  0  0  0
    9.5830  -17.0096   28.4080 O   0  0  0  0  0  0  0  0  0  0  0  0
   11.3239  -16.0845   29.5432 O   0  0  0  0  0  0  0  0  0  0  0  0
  1  2  1  0
  2  3  1  0
  3  4  1  6
  5  3  1  0
  6  5  2  0
  8  7  1  6
  8 10  1  0
  9  8  1  0
 10 12  1  0
 10 11  1  6
 11  5  1  0
 12 14  1  0
 13 12  2  0
 14 15  1  0
 14 18  1  0
 15 16  1  0
 16 17  1  0
 18 19  1  1
 18 17  1  0
 19 20  1  0
 21 19  2  0
M  END
$$$$
