STP.pdb
     RDKit          3D

 21 21  0  0  1  0  0  0  0  0999 V2000
   11.7363  -17.3286   22.7585 O   0  0  0  0  0  0  0  0  0  0  0  0
   12.4812  -16.7181   21.7707 C   0  0  0  0  0  0  0  0  0  0  0  0
   11.5861  -16.0323   20.7611 C   0  0  2  0  0  0  0  0  0  0  0  0
   12.4309  -15.5158   19.7011 N   0  0  0  0  0  0  0  0  0  0  0  0
   10.7277  -15.0124   21.3597 C   0  0  0  0  0  0  0  0  0  0  0  0
   11.1932  -13.8941   21.6921 O   0  0  0  0  0  0  0  0  0  0  0  0
    7.3055  -13.6399   20.2011 C   0  0  0  0  0  0  0  0  0  0  0  0
    7.1604  -14.4814   21.4773 C   0  0  1  0  0  0  0  0  0  0  0  0
    7.0980  -15.8017   21.0408 O   0  0  0  0  0  0  0  0  0  0  0  0
    8.4629  -14.3488   22.2915 C   0  0  2  0  0  0  0  0  0  0  0  0
    9.3702  -15.2622   21.5742 N   0  0  0  0  0  0  0  0  0  0  0  0
    8.2514  -14.8487   23.6718 C   0  0  0  0  0  0  0  0  0  0  0  0
    8.5349  -16.0622   23.8937 O   0  0  0  0  0  0  0  0  0  0  0  0
    7.7503  -14.0257   24.7391 N   0  0  0  0  0  0  0  0  0  0  0  0
    7.5116  -12.6067   24.7232 C   0  0  0  0  0  0  0  0  0  0  0  0
    6.2304  -12.4866   25.5552 C   0  0  0  0  0  0  0  0  0  0  0  0
    6.6501  -13.3823   26.7368 C   0  0  0  0  0  0  0  0  0  0  0  0
    7.3984  -14.5282   26.0439 C   0  0  1  0  0  0  0  0  0  0  0  0
    6.5198  -15.7291   25.9953 C   0  0  0  0  0  0  0  0  0  0  0  0
    6.3155  -16.5103   27.1124 O   0  0  0  0  0  0  0  0  0  0  0  0
    5.9642  -16.0230   24.9182 O   0  0  0  0  0  0  0  0  0  0  0  0
  1  2  1  0
  2  3  1  0
  3  4  1  6
  5  3  1  0
  6  5  2  0
  8  7  1  6
  8 10  1  0
  9  8  1  0
 10 12  1  0
 10 11  1  6
 11  5  1  0
 12 14  1  0
 13 12  2  0
 14 15  1  0
 14 18  1  0
 15 16  1  0
 16 17  1  0
 18 19  1  6
 18 17  1  0
 19 20  1  0
 21 19  2  0
M  END
$$$$
