STP.pdb
     RDKit          3D

 21 21  0  0  1  0  0  0  0  0999 V2000
   11.8323  -13.0651   20.1830 O   0  0  0  0  0  0  0  0  0  0  0  0
   11.1770  -14.2762   20.0980 C   0  0  0  0  0  0  0  0  0  0  0  0
    9.7483  -14.0893   19.6347 C   0  0  2  0  0  0  0  0  0  0  0  0
    9.7617  -13.1494   18.5300 N   0  0  0  0  0  0  0  0  0  0  0  0
    8.8457  -13.6942   20.7140 C   0  0  0  0  0  0  0  0  0  0  0  0
    8.4255  -12.5137   20.8013 O   0  0  0  0  0  0  0  0  0  0  0  0
    5.7858  -15.4580   21.3337 C   0  0  0  0  0  0  0  0  0  0  0  0
    6.5157  -15.5209   22.6832 C   0  0  1  0  0  0  0  0  0  0  0  0
    7.3024  -16.6676   22.6213 O   0  0  0  0  0  0  0  0  0  0  0  0
    7.4863  -14.3256   22.7611 C   0  0  2  0  0  0  0  0  0  0  0  0
    8.4321  -14.6238   21.6710 N   0  0  0  0  0  0  0  0  0  0  0  0
    8.2077  -14.3417   24.0569 C   0  0  0  0  0  0  0  0  0  0  0  0
    9.1094  -15.2182   24.2023 O   0  0  0  0  0  0  0  0  0  0  0  0
    7.9280  -13.4210   25.1253 N   0  0  0  0  0  0  0  0  0  0  0  0
    7.0985  -12.2459   25.0846 C   0  0  0  0  0  0  0  0  0  0  0  0
    6.4263  -12.2785   26.4613 C   0  0  0  0  0  0  0  0  0  0  0  0
    7.6822  -12.5451   27.3135 C   0  0  0  0  0  0  0  0  0  0  0  0
    8.4657  -13.5481   26.4571 C   0  0  1  0  0  0  0  0  0  0  0  0
    8.3046  -14.9129   27.0296 C   0  0  0  0  0  0  0  0  0  0  0  0
    8.9527  -15.2824   28.1886 O   0  0  0  0  0  0  0  0  0  0  0  0
    7.5670  -15.7277   26.4403 O   0  0  0  0  0  0  0  0  0  0  0  0
  1  2  1  0
  2  3  1  0
  3  4  1  6
  5  3  1  0
  6  5  2  0
  8  7  1  6
  8 10  1  0
  9  8  1  0
 10 12  1  0
 10 11  1  6
 11  5  1  0
 12 14  1  0
 13 12  2  0
 14 15  1  0
 14 18  1  0
 15 16  1  0
 16 17  1  0
 18 19  1  1
 18 17  1  0
 19 20  1  0
 21 19  2  0
M  END
$$$$
