STP.pdb
     RDKit          3D

 21 21  0  0  1  0  0  0  0  0999 V2000
   11.9577  -17.9821   23.5286 O   0  0  0  0  0  0  0  0  0  0  0  0
   11.2657  -18.2082   22.3567 C   0  0  0  0  0  0  0  0  0  0  0  0
   11.2362  -16.9645   21.4947 C   0  0  2  0  0  0  0  0  0  0  0  0
   12.5945  -16.6938   21.0636 N   0  0  0  0  0  0  0  0  0  0  0  0
   10.6066  -15.8250   22.1586 C   0  0  0  0  0  0  0  0  0  0  0  0
   11.3029  -14.9124   22.6684 O   0  0  0  0  0  0  0  0  0  0  0  0
    7.4416  -13.9822   20.7209 C   0  0  0  0  0  0  0  0  0  0  0  0
    7.1697  -14.5890   22.1050 C   0  0  1  0  0  0  0  0  0  0  0  0
    6.8244  -15.9155   21.8623 O   0  0  0  0  0  0  0  0  0  0  0  0
    8.4979  -14.6167   22.8873 C   0  0  2  0  0  0  0  0  0  0  0  0
    9.2154  -15.7289   22.2392 N   0  0  0  0  0  0  0  0  0  0  0  0
    8.2427  -14.9571   24.3081 C   0  0  0  0  0  0  0  0  0  0  0  0
    8.3638  -16.1729   24.6390 O   0  0  0  0  0  0  0  0  0  0  0  0
    7.8738  -13.9812   25.2976 N   0  0  0  0  0  0  0  0  0  0  0  0
    7.7469  -12.5576   25.1302 C   0  0  0  0  0  0  0  0  0  0  0  0
    6.5320  -12.2375   26.0076 C   0  0  0  0  0  0  0  0  0  0  0  0
    6.9511  -13.0290   27.2616 C   0  0  0  0  0  0  0  0  0  0  0  0
    7.5634  -14.3041   26.6681 C   0  0  1  0  0  0  0  0  0  0  0  0
    6.5917  -15.4239   26.8039 C   0  0  0  0  0  0  0  0  0  0  0  0
    6.4200  -16.0789   28.0045 O   0  0  0  0  0  0  0  0  0  0  0  0
    5.9271  -15.7661   25.8058 O   0  0  0  0  0  0  0  0  0  0  0  0
  1  2  1  0
  2  3  1  0
  3  4  1  1
  5  3  1  0
  6  5  2  0
  8  7  1  6
  8 10  1  0
  9  8  1  0
 10 12  1  0
 10 11  1  6
 11  5  1  0
 12 14  1  0
 13 12  2  0
 14 15  1  0
 14 18  1  0
 15 16  1  0
 16 17  1  0
 18 19  1  6
 18 17  1  0
 19 20  1  0
 21 19  2  0
M  END
$$$$
