STP.pdb
     RDKit          3D

 21 21  0  0  1  0  0  0  0  0999 V2000
   12.7936  -13.8371   20.2212 O   0  0  0  0  0  0  0  0  0  0  0  0
   11.7605  -14.5596   20.7817 C   0  0  0  0  0  0  0  0  0  0  0  0
   10.4704  -14.3425   20.0207 C   0  0  2  0  0  0  0  0  0  0  0  0
   10.7746  -13.5289   18.8590 N   0  0  0  0  0  0  0  0  0  0  0  0
    9.4058  -13.7829   20.8508 C   0  0  0  0  0  0  0  0  0  0  0  0
    9.0025  -12.6068   20.6731 O   0  0  0  0  0  0  0  0  0  0  0  0
    6.0531  -14.6851   21.0459 C   0  0  0  0  0  0  0  0  0  0  0  0
    6.5934  -15.0229   22.4430 C   0  0  1  0  0  0  0  0  0  0  0  0
    7.1549  -16.2909   22.3222 O   0  0  0  0  0  0  0  0  0  0  0  0
    7.7533  -14.0568   22.7565 C   0  0  2  0  0  0  0  0  0  0  0  0
    8.8151  -14.5471   21.8599 N   0  0  0  0  0  0  0  0  0  0  0  0
    8.1841  -14.2221   24.1661 C   0  0  0  0  0  0  0  0  0  0  0  0
    8.9267  -15.2132   24.4281 O   0  0  0  0  0  0  0  0  0  0  0  0
    7.7999  -13.3200   25.2178 N   0  0  0  0  0  0  0  0  0  0  0  0
    7.0046  -12.1255   25.1108 C   0  0  0  0  0  0  0  0  0  0  0  0
    6.1754  -12.1744   26.3984 C   0  0  0  0  0  0  0  0  0  0  0  0
    7.3173  -12.4893   27.3841 C   0  0  0  0  0  0  0  0  0  0  0  0
    8.1753  -13.4900   26.5995 C   0  0  1  0  0  0  0  0  0  0  0  0
    7.9209  -14.8636   27.1143 C   0  0  0  0  0  0  0  0  0  0  0  0
    8.5120  -15.3119   28.2760 O   0  0  0  0  0  0  0  0  0  0  0  0
    7.1570  -15.6127   26.4736 O   0  0  0  0  0  0  0  0  0  0  0  0
  1  2  1  0
  2  3  1  0
  3  4  1  6
  5  3  1  0
  6  5  2  0
  8  7  1  6
  8 10  1  0
  9  8  1  0
 10 12  1  0
 10 11  1  6
 11  5  1  0
 12 14  1  0
 13 12  2  0
 14 15  1  0
 14 18  1  0
 15 16  1  0
 16 17  1  0
 18 19  1  1
 18 17  1  0
 19 20  1  0
 21 19  2  0
M  END
$$$$
