STP.pdb
     RDKit          3D

 21 21  0  0  1  0  0  0  0  0999 V2000
   11.9720  -13.6820   19.1861 O   0  0  0  0  0  0  0  0  0  0  0  0
   11.0319  -13.5171   20.1822 C   0  0  0  0  0  0  0  0  0  0  0  0
    9.6744  -14.0158   19.7358 C   0  0  2  0  0  0  0  0  0  0  0  0
    9.3785  -13.4033   18.4546 N   0  0  0  0  0  0  0  0  0  0  0  0
    8.6293  -13.7948   20.7330 C   0  0  0  0  0  0  0  0  0  0  0  0
    7.7775  -12.8843   20.5811 O   0  0  0  0  0  0  0  0  0  0  0  0
    5.9960  -15.6697   21.4297 C   0  0  0  0  0  0  0  0  0  0  0  0
    6.7122  -15.7196   22.7871 C   0  0  1  0  0  0  0  0  0  0  0  0
    7.6185  -16.7713   22.6849 O   0  0  0  0  0  0  0  0  0  0  0  0
    7.5475  -14.4326   22.9377 C   0  0  2  0  0  0  0  0  0  0  0  0
    8.5576  -14.5936   21.8767 N   0  0  0  0  0  0  0  0  0  0  0  0
    8.2204  -14.4164   24.2594 C   0  0  0  0  0  0  0  0  0  0  0  0
    9.1209  -15.2838   24.4570 O   0  0  0  0  0  0  0  0  0  0  0  0
    7.8961  -13.4748   25.2965 N   0  0  0  0  0  0  0  0  0  0  0  0
    7.0725  -12.2990   25.1965 C   0  0  0  0  0  0  0  0  0  0  0  0
    6.3398  -12.3039   26.5423 C   0  0  0  0  0  0  0  0  0  0  0  0
    7.5558  -12.5566   27.4544 C   0  0  0  0  0  0  0  0  0  0  0  0
    8.3737  -13.5773   26.6531 C   0  0  1  0  0  0  0  0  0  0  0  0
    8.1835  -14.9306   27.2438 C   0  0  0  0  0  0  0  0  0  0  0  0
    8.7892  -15.2834   28.4307 O   0  0  0  0  0  0  0  0  0  0  0  0
    7.4607  -15.7510   26.6441 O   0  0  0  0  0  0  0  0  0  0  0  0
  1  2  1  0
  2  3  1  0
  3  4  1  6
  5  3  1  0
  6  5  2  0
  8  7  1  6
  8 10  1  0
  9  8  1  0
 10 12  1  0
 10 11  1  6
 11  5  1  0
 12 14  1  0
 13 12  2  0
 14 15  1  0
 14 18  1  0
 15 16  1  0
 16 17  1  0
 18 19  1  1
 18 17  1  0
 19 20  1  0
 21 19  2  0
M  END
$$$$
