STP.pdb
     RDKit          3D

 21 21  0  0  1  0  0  0  0  0999 V2000
   10.3057  -19.1137   20.9836 O   0  0  0  0  0  0  0  0  0  0  0  0
   11.2959  -18.6633   20.1351 C   0  0  0  0  0  0  0  0  0  0  0  0
   10.8192  -17.4767   19.3256 C   0  0  2  0  0  0  0  0  0  0  0  0
   11.8918  -17.0962   18.4263 N   0  0  0  0  0  0  0  0  0  0  0  0
   10.3477  -16.3713   20.1571 C   0  0  0  0  0  0  0  0  0  0  0  0
   11.1600  -15.5740   20.6883 O   0  0  0  0  0  0  0  0  0  0  0  0
    7.3931  -13.8165   19.5549 C   0  0  0  0  0  0  0  0  0  0  0  0
    7.0916  -14.8230   20.6747 C   0  0  1  0  0  0  0  0  0  0  0  0
    6.6226  -15.9624   20.0270 O   0  0  0  0  0  0  0  0  0  0  0  0
    8.4253  -15.2142   21.3417 C   0  0  2  0  0  0  0  0  0  0  0  0
    8.9817  -16.1800   20.3775 N   0  0  0  0  0  0  0  0  0  0  0  0
    8.1658  -15.8998   22.6310 C   0  0  0  0  0  0  0  0  0  0  0  0
    7.9810  -17.1514   22.5899 O   0  0  0  0  0  0  0  0  0  0  0  0
    8.1191  -15.2122   23.8930 N   0  0  0  0  0  0  0  0  0  0  0  0
    8.1993  -13.7953   24.1307 C   0  0  0  0  0  0  0  0  0  0  0  0
    7.2049  -13.6051   25.2810 C   0  0  0  0  0  0  0  0  0  0  0  0
    7.6817  -14.7635   26.1784 C   0  0  0  0  0  0  0  0  0  0  0  0
    7.9792  -15.8762   25.1652 C   0  0  1  0  0  0  0  0  0  0  0  0
    6.8728  -16.8720   25.1914 C   0  0  0  0  0  0  0  0  0  0  0  0
    6.7257  -17.7489   26.2446 O   0  0  0  0  0  0  0  0  0  0  0  0
    6.0709  -16.9034   24.2368 O   0  0  0  0  0  0  0  0  0  0  0  0
  1  2  1  0
  2  3  1  0
  3  4  1  1
  5  3  1  0
  6  5  2  0
  8  7  1  6
  8 10  1  0
  9  8  1  0
 10 12  1  0
 10 11  1  6
 11  5  1  0
 12 14  1  0
 13 12  2  0
 14 15  1  0
 14 18  1  0
 15 16  1  0
 16 17  1  0
 18 19  1  6
 18 17  1  0
 19 20  1  0
 21 19  2  0
M  END
$$$$
