STP.pdb
     RDKit          3D

 21 21  0  0  1  0  0  0  0  0999 V2000
   11.8780  -18.3629   22.7592 O   0  0  0  0  0  0  0  0  0  0  0  0
   11.1638  -18.3872   21.5791 C   0  0  0  0  0  0  0  0  0  0  0  0
   11.2647  -17.0616   20.8558 C   0  0  2  0  0  0  0  0  0  0  0  0
   12.6682  -16.8088   20.5908 N   0  0  0  0  0  0  0  0  0  0  0  0
   10.6098  -15.9693   21.5726 C   0  0  0  0  0  0  0  0  0  0  0  0
   11.2832  -15.1316   22.2225 O   0  0  0  0  0  0  0  0  0  0  0  0
    7.5379  -13.9608   20.1058 C   0  0  0  0  0  0  0  0  0  0  0  0
    7.1886  -14.6691   21.4226 C   0  0  1  0  0  0  0  0  0  0  0  0
    6.8357  -15.9657   21.0590 O   0  0  0  0  0  0  0  0  0  0  0  0
    8.4758  -14.7834   22.2633 C   0  0  2  0  0  0  0  0  0  0  0  0
    9.2196  -15.8359   21.5485 N   0  0  0  0  0  0  0  0  0  0  0  0
    8.1482  -15.2546   23.6310 C   0  0  0  0  0  0  0  0  0  0  0  0
    8.1983  -16.5026   23.8368 O   0  0  0  0  0  0  0  0  0  0  0  0
    7.7866  -14.3680   24.7037 N   0  0  0  0  0  0  0  0  0  0  0  0
    7.6499  -12.9363   24.6587 C   0  0  0  0  0  0  0  0  0  0  0  0
    6.4446  -12.6991   25.5747 C   0  0  0  0  0  0  0  0  0  0  0  0
    6.8838  -13.5908   26.7522 C   0  0  0  0  0  0  0  0  0  0  0  0
    7.4954  -14.8074   26.0458 C   0  0  1  0  0  0  0  0  0  0  0  0
    6.5316  -15.9408   26.0984 C   0  0  0  0  0  0  0  0  0  0  0  0
    6.3464  -16.6679   27.2548 O   0  0  0  0  0  0  0  0  0  0  0  0
    5.8861  -16.2279   25.0708 O   0  0  0  0  0  0  0  0  0  0  0  0
  1  2  1  0
  2  3  1  0
  3  4  1  1
  5  3  1  0
  6  5  2  0
  8  7  1  6
  8 10  1  0
  9  8  1  0
 10 12  1  0
 10 11  1  6
 11  5  1  0
 12 14  1  0
 13 12  2  0
 14 15  1  0
 14 18  1  0
 15 16  1  0
 16 17  1  0
 18 19  1  6
 18 17  1  0
 19 20  1  0
 21 19  2  0
M  END
$$$$
