STP.pdb
     RDKit          3D

 21 21  0  0  1  0  0  0  0  0999 V2000
   12.0908  -17.9432   23.5751 O   0  0  0  0  0  0  0  0  0  0  0  0
   11.2833  -18.1478   22.4754 C   0  0  0  0  0  0  0  0  0  0  0  0
   11.2678  -16.9287   21.5786 C   0  0  2  0  0  0  0  0  0  0  0  0
   12.6338  -16.6650   21.1682 N   0  0  0  0  0  0  0  0  0  0  0  0
   10.6209  -15.7736   22.1973 C   0  0  0  0  0  0  0  0  0  0  0  0
   11.3001  -14.8026   22.6138 O   0  0  0  0  0  0  0  0  0  0  0  0
    7.4601  -13.9907   20.7930 C   0  0  0  0  0  0  0  0  0  0  0  0
    7.1800  -14.6025   22.1733 C   0  0  1  0  0  0  0  0  0  0  0  0
    6.8530  -15.9326   21.9252 O   0  0  0  0  0  0  0  0  0  0  0  0
    8.4997  -14.6157   22.9702 C   0  0  2  0  0  0  0  0  0  0  0  0
    9.2319  -15.7272   22.3376 N   0  0  0  0  0  0  0  0  0  0  0  0
    8.2313  -14.9483   24.3905 C   0  0  0  0  0  0  0  0  0  0  0  0
    8.3204  -16.1665   24.7227 O   0  0  0  0  0  0  0  0  0  0  0  0
    7.8839  -13.9625   25.3780 N   0  0  0  0  0  0  0  0  0  0  0  0
    7.8352  -12.5330   25.2204 C   0  0  0  0  0  0  0  0  0  0  0  0
    6.6130  -12.1576   26.0651 C   0  0  0  0  0  0  0  0  0  0  0  0
    6.9537  -12.9795   27.3232 C   0  0  0  0  0  0  0  0  0  0  0  0
    7.5170  -14.2798   26.7358 C   0  0  1  0  0  0  0  0  0  0  0  0
    6.4856  -15.3490   26.8327 C   0  0  0  0  0  0  0  0  0  0  0  0
    6.3146  -16.0735   27.9928 O   0  0  0  0  0  0  0  0  0  0  0  0
    5.7695  -15.5840   25.8392 O   0  0  0  0  0  0  0  0  0  0  0  0
  1  2  1  0
  2  3  1  0
  3  4  1  1
  5  3  1  0
  6  5  2  0
  8  7  1  6
  8 10  1  0
  9  8  1  0
 10 12  1  0
 10 11  1  6
 11  5  1  0
 12 14  1  0
 13 12  2  0
 14 15  1  0
 14 18  1  0
 15 16  1  0
 16 17  1  0
 18 19  1  6
 18 17  1  0
 19 20  1  0
 21 19  2  0
M  END
$$$$
