STP.pdb
     RDKit          3D

 21 21  0  0  1  0  0  0  0  0999 V2000
   13.3801  -14.5320   20.7971 O   0  0  0  0  0  0  0  0  0  0  0  0
   12.3100  -15.3159   21.1762 C   0  0  0  0  0  0  0  0  0  0  0  0
   11.1009  -15.0410   20.3083 C   0  0  2  0  0  0  0  0  0  0  0  0
   11.5698  -14.4334   19.0775 N   0  0  0  0  0  0  0  0  0  0  0  0
   10.0795  -14.2471   20.9880 C   0  0  0  0  0  0  0  0  0  0  0  0
    9.9587  -13.0188   20.7545 O   0  0  0  0  0  0  0  0  0  0  0  0
    6.5828  -14.3431   20.7818 C   0  0  0  0  0  0  0  0  0  0  0  0
    6.8905  -14.8027   22.2143 C   0  0  1  0  0  0  0  0  0  0  0  0
    7.1822  -16.1598   22.1091 O   0  0  0  0  0  0  0  0  0  0  0  0
    8.1882  -14.1087   22.6737 C   0  0  2  0  0  0  0  0  0  0  0  0
    9.2164  -14.8402   21.9123 N   0  0  0  0  0  0  0  0  0  0  0  0
    8.3974  -14.3334   24.1248 C   0  0  0  0  0  0  0  0  0  0  0  0
    8.9576  -15.4166   24.4641 O   0  0  0  0  0  0  0  0  0  0  0  0
    7.9983  -13.3894   25.1333 N   0  0  0  0  0  0  0  0  0  0  0  0
    7.4206  -12.0853   24.9437 C   0  0  0  0  0  0  0  0  0  0  0  0
    6.4058  -12.0131   26.0896 C   0  0  0  0  0  0  0  0  0  0  0  0
    7.3212  -12.5080   27.2262 C   0  0  0  0  0  0  0  0  0  0  0  0
    8.1267  -13.6247   26.5500 C   0  0  1  0  0  0  0  0  0  0  0  0
    7.5898  -14.9454   26.9788 C   0  0  0  0  0  0  0  0  0  0  0  0
    7.9003  -15.4763   28.2124 O   0  0  0  0  0  0  0  0  0  0  0  0
    6.8466  -15.5731   26.1986 O   0  0  0  0  0  0  0  0  0  0  0  0
  1  2  1  0
  2  3  1  0
  3  4  1  6
  5  3  1  0
  6  5  2  0
  8  7  1  6
  8 10  1  0
  9  8  1  0
 10 12  1  0
 10 11  1  6
 11  5  1  0
 12 14  1  0
 13 12  2  0
 14 15  1  0
 14 18  1  0
 15 16  1  0
 16 17  1  0
 18 19  1  6
 18 17  1  0
 19 20  1  0
 21 19  2  0
M  END
$$$$
