STP.pdb
     RDKit          3D

 21 21  0  0  1  0  0  0  0  0999 V2000
   12.8346  -14.6850   19.8001 O   0  0  0  0  0  0  0  0  0  0  0  0
   11.7902  -13.8879   20.2209 C   0  0  0  0  0  0  0  0  0  0  0  0
   10.4560  -14.5180   19.8839 C   0  0  2  0  0  0  0  0  0  0  0  0
   10.1794  -14.2453   18.4863 N   0  0  0  0  0  0  0  0  0  0  0  0
    9.3810  -14.0893   20.7763 C   0  0  0  0  0  0  0  0  0  0  0  0
    8.6747  -13.0886   20.4981 O   0  0  0  0  0  0  0  0  0  0  0  0
    6.5075  -15.7393   21.2922 C   0  0  0  0  0  0  0  0  0  0  0  0
    7.1136  -15.7501   22.7031 C   0  0  1  0  0  0  0  0  0  0  0  0
    7.9785  -16.8407   22.7221 O   0  0  0  0  0  0  0  0  0  0  0  0
    7.9899  -14.4915   22.8597 C   0  0  2  0  0  0  0  0  0  0  0  0
    9.1179  -14.7859   21.9581 N   0  0  0  0  0  0  0  0  0  0  0  0
    8.4874  -14.3899   24.2533 C   0  0  0  0  0  0  0  0  0  0  0  0
    9.3939  -15.2021   24.6010 O   0  0  0  0  0  0  0  0  0  0  0  0
    7.9909  -13.4266   25.1984 N   0  0  0  0  0  0  0  0  0  0  0  0
    7.1088  -12.3175   24.9487 C   0  0  0  0  0  0  0  0  0  0  0  0
    6.2346  -12.3118   26.2073 C   0  0  0  0  0  0  0  0  0  0  0  0
    7.3570  -12.4362   27.2557 C   0  0  0  0  0  0  0  0  0  0  0  0
    8.3224  -13.4328   26.6015 C   0  0  1  0  0  0  0  0  0  0  0  0
    8.1566  -14.7674   27.2401 C   0  0  0  0  0  0  0  0  0  0  0  0
    8.6698  -15.0288   28.4924 O   0  0  0  0  0  0  0  0  0  0  0  0
    7.5403  -15.6569   26.6203 O   0  0  0  0  0  0  0  0  0  0  0  0
  1  2  1  0
  2  3  1  0
  3  4  1  6
  5  3  1  0
  6  5  2  0
  8  7  1  6
  8 10  1  0
  9  8  1  0
 10 12  1  0
 10 11  1  6
 11  5  1  0
 12 14  1  0
 13 12  2  0
 14 15  1  0
 14 18  1  0
 15 16  1  0
 16 17  1  0
 18 19  1  1
 18 17  1  0
 19 20  1  0
 21 19  2  0
M  END
$$$$
