EMM.pdb
     RDKit          3D

 26 25  0  0  1  0  0  0  0  0999 V2000
   28.0536  -21.2473  -14.8876 N   0  0  0  0  0  0  0  0  0  0  0  0
   27.6689  -20.2605  -13.9135 C   0  0  1  0  0  0  0  0  0  0  0  0
   27.1496  -19.0114  -14.5657 C   0  0  0  0  0  0  0  0  0  0  0  0
   28.2578  -18.3211  -15.3025 C   0  0  0  0  0  0  0  0  0  0  0  0
   27.9222  -18.1997  -16.7317 C   0  0  0  0  0  0  0  0  0  0  0  0
   26.9225  -17.5397  -17.1659 O   0  0  0  0  0  0  0  0  0  0  0  0
   26.5975  -20.8061  -13.0155 C   0  0  0  0  0  0  0  0  0  0  0  0
   25.7908  -21.6006  -13.4939 O   0  0  0  0  0  0  0  0  0  0  0  0
   28.7023  -18.8166  -17.7033 O   0  0  0  0  0  0  0  0  0  0  0  0
   26.7941  -19.0003   -6.7366 C   0  0  0  0  0  0  0  0  0  0  0  0
   26.9508  -20.7613   -7.0362 S   0  0  0  0  0  0  0  0  0  0  0  0
   26.8131  -21.1967   -8.7942 C   0  0  0  0  0  0  0  0  0  0  0  0
   25.5470  -20.6181   -9.3620 C   0  0  0  0  0  0  0  0  0  0  0  0
   25.3693  -20.8314  -10.8193 C   0  0  2  0  0  0  0  0  0  0  0  0
   26.4858  -20.4383  -11.6450 N   0  0  0  0  0  0  0  0  0  0  0  0
   24.0713  -20.3284  -11.3596 C   0  0  0  0  0  0  0  0  0  0  0  0
   23.7198  -19.1224  -11.3372 O   0  0  0  0  0  0  0  0  0  0  0  0
   21.7880  -20.8545  -17.0731 C   0  0  0  0  0  0  0  0  0  0  0  0
   20.2288  -21.2311  -16.2124 S   0  0  0  0  0  0  0  0  0  0  0  0
   20.3463  -20.7573  -14.4714 C   0  0  0  0  0  0  0  0  0  0  0  0
   21.6955  -21.1643  -13.9227 C   0  0  0  0  0  0  0  0  0  0  0  0
   21.8371  -20.8022  -12.4607 C   0  0  2  0  0  0  0  0  0  0  0  0
   23.1418  -21.2333  -11.9484 N   0  0  0  0  0  0  0  0  0  0  0  0
   20.7232  -21.2540  -11.6324 C   0  0  0  0  0  0  0  0  0  0  0  0
   19.5525  -20.5244  -11.5748 O   0  0  0  0  0  0  0  0  0  0  0  0
   20.8017  -22.3050  -10.9596 O   0  0  0  0  0  0  0  0  0  0  0  0
  2  1  1  6
  2  7  1  0
  3  2  1  0
  4  3  1  0
  4  5  1  0
  5  9  1  0
  5  6  2  0
  7  8  2  0
  7 15  1  0
 10 11  1  0
 11 12  1  0
 13 12  1  0
 14 13  1  1
 15 14  1  0
 16 14  1  0
 16 17  2  0
 18 19  1  0
 19 20  1  0
 20 21  1  0
 22 21  1  6
 22 23  1  0
 23 16  1  0
 24 22  1  0
 25 24  1  0
 26 24  2  0
M  END
$$$$
