EMM.pdb
     RDKit          3D

 26 25  0  0  1  0  0  0  0  0999 V2000
   17.9493  -12.8399  -16.5115 N   0  0  0  0  0  0  0  0  0  0  0  0
   17.1842  -11.6643  -16.1902 C   0  0  1  0  0  0  0  0  0  0  0  0
   16.7809  -11.6441  -14.7438 C   0  0  0  0  0  0  0  0  0  0  0  0
   15.8341  -12.7717  -14.4615 C   0  0  0  0  0  0  0  0  0  0  0  0
   14.4458  -12.3469  -14.7108 C   0  0  0  0  0  0  0  0  0  0  0  0
   14.1067  -11.1357  -14.9145 O   0  0  0  0  0  0  0  0  0  0  0  0
   17.9856  -10.4280  -16.4754 C   0  0  0  0  0  0  0  0  0  0  0  0
   19.2108  -10.5066  -16.4171 O   0  0  0  0  0  0  0  0  0  0  0  0
   13.4093  -13.2732  -14.7368 O   0  0  0  0  0  0  0  0  0  0  0  0
   15.4949   -6.7615  -21.7810 C   0  0  0  0  0  0  0  0  0  0  0  0
   16.0889   -6.2258  -20.1761 S   0  0  0  0  0  0  0  0  0  0  0  0
   17.0241   -7.5132  -19.3001 C   0  0  0  0  0  0  0  0  0  0  0  0
   17.4674   -6.9946  -17.9605 C   0  0  0  0  0  0  0  0  0  0  0  0
   18.1482   -7.9969  -17.1044 C   0  0  2  0  0  0  0  0  0  0  0  0
   17.3812   -9.1827  -16.8069 N   0  0  0  0  0  0  0  0  0  0  0  0
   18.7897   -7.4263  -15.8827 C   0  0  0  0  0  0  0  0  0  0  0  0
   18.3196   -7.5389  -14.7231 O   0  0  0  0  0  0  0  0  0  0  0  0
   23.9817  -10.7635  -14.8973 C   0  0  0  0  0  0  0  0  0  0  0  0
   22.8691   -9.7263  -13.8971 S   0  0  0  0  0  0  0  0  0  0  0  0
   22.2262   -8.3604  -14.8921 C   0  0  0  0  0  0  0  0  0  0  0  0
   21.2780   -7.5263  -14.0599 C   0  0  0  0  0  0  0  0  0  0  0  0
   20.7976   -6.3059  -14.8140 C   0  0  2  0  0  0  0  0  0  0  0  0
   20.0126   -6.7030  -15.9874 N   0  0  0  0  0  0  0  0  0  0  0  0
   21.8595   -5.3569  -15.1345 C   0  0  0  0  0  0  0  0  0  0  0  0
   22.7010   -4.8878  -14.1456 O   0  0  0  0  0  0  0  0  0  0  0  0
   22.0313   -4.9486  -16.3037 O   0  0  0  0  0  0  0  0  0  0  0  0
  2  1  1  1
  2  7  1  0
  3  2  1  0
  4  3  1  0
  4  5  1  0
  5  9  1  0
  5  6  2  0
  7  8  2  0
  7 15  1  0
 10 11  1  0
 11 12  1  0
 13 12  1  0
 14 13  1  1
 15 14  1  0
 16 14  1  0
 16 17  2  0
 18 19  1  0
 19 20  1  0
 20 21  1  0
 22 21  1  6
 22 23  1  0
 23 16  1  0
 24 22  1  0
 25 24  1  0
 26 24  2  0
M  END
$$$$
