EMM.pdb
     RDKit          3D

 26 25  0  0  1  0  0  0  0  0999 V2000
   15.7028  -10.0537  -15.5152 N   0  0  0  0  0  0  0  0  0  0  0  0
   16.6538   -9.6245  -16.5062 C   0  0  1  0  0  0  0  0  0  0  0  0
   16.0590   -8.6129  -17.4432 C   0  0  0  0  0  0  0  0  0  0  0  0
   15.1341   -9.2920  -18.4080 C   0  0  0  0  0  0  0  0  0  0  0  0
   15.8405   -9.5951  -19.6646 C   0  0  0  0  0  0  0  0  0  0  0  0
   16.4326   -8.7137  -20.3690 O   0  0  0  0  0  0  0  0  0  0  0  0
   17.8525   -9.0097  -15.8449 C   0  0  0  0  0  0  0  0  0  0  0  0
   17.6979   -8.4752  -14.7488 O   0  0  0  0  0  0  0  0  0  0  0  0
   15.8972  -10.8944  -20.1565 O   0  0  0  0  0  0  0  0  0  0  0  0
   23.4723  -11.4304  -13.8113 C   0  0  0  0  0  0  0  0  0  0  0  0
   23.9687  -10.0382  -14.8265 S   0  0  0  0  0  0  0  0  0  0  0  0
   22.6697   -8.7787  -14.9872 C   0  0  0  0  0  0  0  0  0  0  0  0
   21.4934   -9.3551  -15.7248 C   0  0  0  0  0  0  0  0  0  0  0  0
   20.3086   -8.4647  -15.7906 C   0  0  2  0  0  0  0  0  0  0  0  0
   19.1465   -9.0246  -16.4377 N   0  0  0  0  0  0  0  0  0  0  0  0
   20.6049   -7.0832  -16.2737 C   0  0  0  0  0  0  0  0  0  0  0  0
   20.4333   -6.6998  -17.4577 O   0  0  0  0  0  0  0  0  0  0  0  0
   18.1871   -2.8101  -18.9248 C   0  0  0  0  0  0  0  0  0  0  0  0
   18.3688   -2.1467  -17.2393 S   0  0  0  0  0  0  0  0  0  0  0  0
   19.9399   -2.6832  -16.5231 C   0  0  0  0  0  0  0  0  0  0  0  0
   19.8927   -4.1694  -16.2472 C   0  0  0  0  0  0  0  0  0  0  0  0
   21.2171   -4.6841  -15.7276 C   0  0  2  0  0  0  0  0  0  0  0  0
   21.1135   -6.1034  -15.3732 N   0  0  0  0  0  0  0  0  0  0  0  0
   21.7851   -3.8704  -14.6570 C   0  0  0  0  0  0  0  0  0  0  0  0
   21.7877   -4.3294  -13.3550 O   0  0  0  0  0  0  0  0  0  0  0  0
   22.2792   -2.7460  -14.8915 O   0  0  0  0  0  0  0  0  0  0  0  0
  2  1  1  1
  2  7  1  0
  3  2  1  0
  4  3  1  0
  4  5  1  0
  5  9  1  0
  5  6  2  0
  7  8  2  0
  7 15  1  0
 10 11  1  0
 11 12  1  0
 13 12  1  0
 14 13  1  6
 15 14  1  0
 16 14  1  0
 16 17  2  0
 18 19  1  0
 19 20  1  0
 20 21  1  0
 22 21  1  1
 22 23  1  0
 23 16  1  0
 24 22  1  0
 25 24  1  0
 26 24  2  0
M  END
$$$$
