EMM.pdb
     RDKit          3D

 26 25  0  0  1  0  0  0  0  0999 V2000
   29.0557  -21.9624  -13.0270 N   0  0  0  0  0  0  0  0  0  0  0  0
   28.7353  -20.7291  -12.3584 C   0  0  1  0  0  0  0  0  0  0  0  0
   28.3218  -19.6627  -13.3315 C   0  0  0  0  0  0  0  0  0  0  0  0
   27.8466  -20.2913  -14.6069 C   0  0  0  0  0  0  0  0  0  0  0  0
   27.5235  -19.2512  -15.5989 C   0  0  0  0  0  0  0  0  0  0  0  0
   28.0135  -18.0754  -15.5703 O   0  0  0  0  0  0  0  0  0  0  0  0
   27.6136  -20.9417  -11.3843 C   0  0  0  0  0  0  0  0  0  0  0  0
   26.7715  -21.7969  -11.6494 O   0  0  0  0  0  0  0  0  0  0  0  0
   26.6435  -19.5098  -16.6439 O   0  0  0  0  0  0  0  0  0  0  0  0
   27.0267  -18.9313   -5.0153 C   0  0  0  0  0  0  0  0  0  0  0  0
   28.3467  -19.9434   -5.6850 S   0  0  0  0  0  0  0  0  0  0  0  0
   27.9259  -20.6884   -7.2873 C   0  0  0  0  0  0  0  0  0  0  0  0
   26.6923  -20.0328   -7.8426 C   0  0  0  0  0  0  0  0  0  0  0  0
   26.3972  -20.3693   -9.2571 C   0  0  2  0  0  0  0  0  0  0  0  0
   27.4941  -20.1947  -10.1786 N   0  0  0  0  0  0  0  0  0  0  0  0
   25.1305  -19.7747   -9.7782 C   0  0  0  0  0  0  0  0  0  0  0  0
   25.0618  -18.6625  -10.3586 O   0  0  0  0  0  0  0  0  0  0  0  0
   24.3127  -22.6236  -14.2550 C   0  0  0  0  0  0  0  0  0  0  0  0
   22.8426  -21.5951  -14.5633 S   0  0  0  0  0  0  0  0  0  0  0  0
   22.2169  -20.9179  -13.0080 C   0  0  0  0  0  0  0  0  0  0  0  0
   23.3031  -20.9684  -11.9569 C   0  0  0  0  0  0  0  0  0  0  0  0
   22.8291  -20.4052  -10.6352 C   0  0  2  0  0  0  0  0  0  0  0  0
   23.8982  -20.4748   -9.6338 N   0  0  0  0  0  0  0  0  0  0  0  0
   21.5726  -20.9822  -10.1669 C   0  0  0  0  0  0  0  0  0  0  0  0
   20.3870  -20.6969  -10.8143 O   0  0  0  0  0  0  0  0  0  0  0  0
   21.5397  -21.7429   -9.1751 O   0  0  0  0  0  0  0  0  0  0  0  0
  2  1  1  6
  2  7  1  0
  3  2  1  0
  4  3  1  0
  4  5  1  0
  5  9  1  0
  5  6  2  0
  7  8  2  0
  7 15  1  0
 10 11  1  0
 11 12  1  0
 13 12  1  0
 14 13  1  1
 15 14  1  0
 16 14  1  0
 16 17  2  0
 18 19  1  0
 19 20  1  0
 20 21  1  0
 22 21  1  6
 22 23  1  0
 23 16  1  0
 24 22  1  0
 25 24  1  0
 26 24  2  0
M  END
$$$$
