EMM.pdb
     RDKit          3D

 26 25  0  0  1  0  0  0  0  0999 V2000
   29.3799   -9.2375  -19.8460 N   0  0  0  0  0  0  0  0  0  0  0  0
   29.4263  -10.3695  -18.9589 C   0  0  1  0  0  0  0  0  0  0  0  0
   29.6488  -11.6517  -19.7083 C   0  0  0  0  0  0  0  0  0  0  0  0
   30.7586  -11.4774  -20.7010 C   0  0  0  0  0  0  0  0  0  0  0  0
   30.9992  -12.7380  -21.4241 C   0  0  0  0  0  0  0  0  0  0  0  0
   30.7374  -12.9008  -22.6604 O   0  0  0  0  0  0  0  0  0  0  0  0
   30.5366  -10.2047  -17.9628 C   0  0  0  0  0  0  0  0  0  0  0  0
   30.7513  -11.1262  -17.1782 O   0  0  0  0  0  0  0  0  0  0  0  0
   31.5390  -13.8423  -20.7741 O   0  0  0  0  0  0  0  0  0  0  0  0
   37.2259  -10.9574  -15.1932 C   0  0  0  0  0  0  0  0  0  0  0  0
   35.7814  -11.1390  -16.2400 S   0  0  0  0  0  0  0  0  0  0  0  0
   34.5746   -9.7991  -16.0219 C   0  0  0  0  0  0  0  0  0  0  0  0
   33.4894   -9.9214  -17.0550 C   0  0  0  0  0  0  0  0  0  0  0  0
   32.4329   -8.8836  -16.9673 C   0  0  2  0  0  0  0  0  0  0  0  0
   31.3391   -9.0310  -17.8973 N   0  0  0  0  0  0  0  0  0  0  0  0
   32.9496   -7.4830  -16.9311 C   0  0  0  0  0  0  0  0  0  0  0  0
   33.3195   -6.8429  -17.9469 O   0  0  0  0  0  0  0  0  0  0  0  0
   32.0153   -0.5600  -13.3899 C   0  0  0  0  0  0  0  0  0  0  0  0
   31.7051   -2.3538  -13.4090 S   0  0  0  0  0  0  0  0  0  0  0  0
   32.8391   -3.1714  -14.5557 C   0  0  0  0  0  0  0  0  0  0  0  0
   32.5113   -4.6458  -14.6316 C   0  0  0  0  0  0  0  0  0  0  0  0
   33.4111   -5.3692  -15.6092 C   0  0  2  0  0  0  0  0  0  0  0  0
   33.0457   -6.7871  -15.6917 N   0  0  0  0  0  0  0  0  0  0  0  0
   34.8349   -5.1621  -15.3620 C   0  0  0  0  0  0  0  0  0  0  0  0
   35.4953   -4.0905  -15.9290 O   0  0  0  0  0  0  0  0  0  0  0  0
   35.4862   -5.9447  -14.6362 O   0  0  0  0  0  0  0  0  0  0  0  0
  2  1  1  6
  2  7  1  0
  3  2  1  0
  4  3  1  0
  4  5  1  0
  5  9  1  0
  5  6  2  0
  7  8  2  0
  7 15  1  0
 10 11  1  0
 11 12  1  0
 13 12  1  0
 14 13  1  6
 15 14  1  0
 16 14  1  0
 16 17  2  0
 18 19  1  0
 19 20  1  0
 20 21  1  0
 22 21  1  1
 22 23  1  0
 23 16  1  0
 24 22  1  0
 25 24  1  0
 26 24  2  0
M  END
$$$$
