EMM.pdb
     RDKit          3D

 26 25  0  0  1  0  0  0  0  0999 V2000
   15.9062   -9.8808  -15.5217 N   0  0  0  0  0  0  0  0  0  0  0  0
   16.8303   -9.1308  -16.3307 C   0  0  1  0  0  0  0  0  0  0  0  0
   16.1832   -7.9138  -16.9268 C   0  0  0  0  0  0  0  0  0  0  0  0
   15.2733   -8.3164  -18.0482 C   0  0  0  0  0  0  0  0  0  0  0  0
   15.5590   -7.5141  -19.2502 C   0  0  0  0  0  0  0  0  0  0  0  0
   14.7899   -6.5941  -19.6810 O   0  0  0  0  0  0  0  0  0  0  0  0
   18.0028   -8.6874  -15.5056 C   0  0  0  0  0  0  0  0  0  0  0  0
   17.8344   -8.5312  -14.2981 O   0  0  0  0  0  0  0  0  0  0  0  0
   16.7144   -7.7280  -19.9934 O   0  0  0  0  0  0  0  0  0  0  0  0
   23.5633  -11.0625  -13.2357 C   0  0  0  0  0  0  0  0  0  0  0  0
   22.8526   -9.4210  -13.1104 S   0  0  0  0  0  0  0  0  0  0  0  0
   22.8481   -8.5275  -14.6918 C   0  0  0  0  0  0  0  0  0  0  0  0
   21.6462   -8.9321  -15.4991 C   0  0  0  0  0  0  0  0  0  0  0  0
   20.4386   -8.1020  -15.2680 C   0  0  2  0  0  0  0  0  0  0  0  0
   19.2874   -8.4444  -16.0683 N   0  0  0  0  0  0  0  0  0  0  0  0
   20.6965   -6.6312  -15.2622 C   0  0  0  0  0  0  0  0  0  0  0  0
   21.5444   -6.0684  -14.5254 O   0  0  0  0  0  0  0  0  0  0  0  0
   17.5516    0.5012  -15.9939 C   0  0  0  0  0  0  0  0  0  0  0  0
   17.3652   -1.3094  -16.0227 S   0  0  0  0  0  0  0  0  0  0  0  0
   18.9890   -2.1039  -16.0573 C   0  0  0  0  0  0  0  0  0  0  0  0
   18.8204   -3.6066  -16.0821 C   0  0  0  0  0  0  0  0  0  0  0  0
   20.1539   -4.3181  -16.1474 C   0  0  2  0  0  0  0  0  0  0  0  0
   19.9622   -5.7719  -16.1293 N   0  0  0  0  0  0  0  0  0  0  0  0
   21.1150   -3.8586  -15.1493 C   0  0  0  0  0  0  0  0  0  0  0  0
   20.9345   -4.1577  -13.8137 O   0  0  0  0  0  0  0  0  0  0  0  0
   22.1178   -3.1876  -15.4774 O   0  0  0  0  0  0  0  0  0  0  0  0
  2  1  1  1
  2  7  1  0
  3  2  1  0
  4  3  1  0
  4  5  1  0
  5  9  1  0
  5  6  2  0
  7  8  2  0
  7 15  1  0
 10 11  1  0
 11 12  1  0
 13 12  1  0
 14 13  1  6
 15 14  1  0
 16 14  1  0
 16 17  2  0
 18 19  1  0
 19 20  1  0
 20 21  1  0
 22 21  1  1
 22 23  1  0
 23 16  1  0
 24 22  1  0
 25 24  1  0
 26 24  2  0
M  END
$$$$
