EMM.pdb
     RDKit          3D

 26 25  0  0  1  0  0  0  0  0999 V2000
   18.4058  -10.4845  -19.1859 N   0  0  0  0  0  0  0  0  0  0  0  0
   17.8940   -9.9466  -17.9533 C   0  0  1  0  0  0  0  0  0  0  0  0
   17.0971  -10.9669  -17.1923 C   0  0  0  0  0  0  0  0  0  0  0  0
   16.0651  -11.5819  -18.0891 C   0  0  0  0  0  0  0  0  0  0  0  0
   16.1857  -13.0500  -18.0741 C   0  0  0  0  0  0  0  0  0  0  0  0
   15.7559  -13.8006  -19.0098 O   0  0  0  0  0  0  0  0  0  0  0  0
   19.0225   -9.4806  -17.0807 C   0  0  0  0  0  0  0  0  0  0  0  0
   18.7429   -8.9421  -16.0117 O   0  0  0  0  0  0  0  0  0  0  0  0
   16.7915  -13.7059  -17.0083 O   0  0  0  0  0  0  0  0  0  0  0  0
   26.6031  -10.4207  -14.9059 C   0  0  0  0  0  0  0  0  0  0  0  0
   25.2475  -10.7721  -16.0257 S   0  0  0  0  0  0  0  0  0  0  0  0
   23.8415   -9.6417  -15.8141 C   0  0  0  0  0  0  0  0  0  0  0  0
   22.7308  -10.0340  -16.7481 C   0  0  0  0  0  0  0  0  0  0  0  0
   21.4784   -9.2567  -16.5797 C   0  0  2  0  0  0  0  0  0  0  0  0
   20.3891   -9.6394  -17.4457 N   0  0  0  0  0  0  0  0  0  0  0  0
   21.6738   -7.7766  -16.5496 C   0  0  0  0  0  0  0  0  0  0  0  0
   22.0584   -7.0973  -17.5340 O   0  0  0  0  0  0  0  0  0  0  0  0
   19.3595   -0.7197  -16.3031 C   0  0  0  0  0  0  0  0  0  0  0  0
   19.1015   -2.5214  -16.2661 S   0  0  0  0  0  0  0  0  0  0  0  0
   20.5938   -3.3539  -15.6753 C   0  0  0  0  0  0  0  0  0  0  0  0
   20.4145   -4.8523  -15.7750 C   0  0  0  0  0  0  0  0  0  0  0  0
   21.6254   -5.5963  -15.2564 C   0  0  2  0  0  0  0  0  0  0  0  0
   21.4192   -7.0449  -15.3540 N   0  0  0  0  0  0  0  0  0  0  0  0
   22.0522   -5.1706  -13.9269 C   0  0  0  0  0  0  0  0  0  0  0  0
   22.6589   -3.9438  -13.7456 O   0  0  0  0  0  0  0  0  0  0  0  0
   21.8802   -5.9016  -12.9271 O   0  0  0  0  0  0  0  0  0  0  0  0
  2  1  1  6
  2  7  1  0
  3  2  1  0
  4  3  1  0
  4  5  1  0
  5  9  1  0
  5  6  2  0
  7  8  2  0
  7 15  1  0
 10 11  1  0
 11 12  1  0
 13 12  1  0
 14 13  1  6
 15 14  1  0
 16 14  1  0
 16 17  2  0
 18 19  1  0
 19 20  1  0
 20 21  1  0
 22 21  1  1
 22 23  1  0
 23 16  1  0
 24 22  1  0
 25 24  1  0
 26 24  2  0
M  END
$$$$
