EMM.pdb
     RDKit          3D

 26 25  0  0  1  0  0  0  0  0999 V2000
   20.3934  -12.1061  -16.9048 N   0  0  0  0  0  0  0  0  0  0  0  0
   19.7287  -10.8444  -17.0974 C   0  0  1  0  0  0  0  0  0  0  0  0
   18.3282  -10.8678  -16.5559 C   0  0  0  0  0  0  0  0  0  0  0  0
   18.2845  -11.6637  -15.2862 C   0  0  0  0  0  0  0  0  0  0  0  0
   17.0039  -12.3839  -15.1792 C   0  0  0  0  0  0  0  0  0  0  0  0
   16.7924  -13.3222  -14.3435 O   0  0  0  0  0  0  0  0  0  0  0  0
   20.4848   -9.7474  -16.4068 C   0  0  0  0  0  0  0  0  0  0  0  0
   20.3307   -9.6128  -15.1948 O   0  0  0  0  0  0  0  0  0  0  0  0
   15.9341  -12.0654  -16.0081 O   0  0  0  0  0  0  0  0  0  0  0  0
   26.2049   -6.7264  -18.5693 C   0  0  0  0  0  0  0  0  0  0  0  0
   25.2697   -5.4982  -17.6571 S   0  0  0  0  0  0  0  0  0  0  0  0
   24.0620   -6.2306  -16.5150 C   0  0  0  0  0  0  0  0  0  0  0  0
   23.2412   -7.2617  -17.2382 C   0  0  0  0  0  0  0  0  0  0  0  0
   22.1518   -7.8624  -16.4299 C   0  0  2  0  0  0  0  0  0  0  0  0
   21.3635   -8.8682  -17.1005 N   0  0  0  0  0  0  0  0  0  0  0  0
   21.2970   -6.8678  -15.7159 C   0  0  0  0  0  0  0  0  0  0  0  0
   20.3116   -6.2859  -16.2344 O   0  0  0  0  0  0  0  0  0  0  0  0
   17.3413   -5.2899   -9.2895 C   0  0  0  0  0  0  0  0  0  0  0  0
   18.4740   -6.3559  -10.2355 S   0  0  0  0  0  0  0  0  0  0  0  0
   19.1743   -5.4414  -11.6291 C   0  0  0  0  0  0  0  0  0  0  0  0
   20.1059   -6.3399  -12.4114 C   0  0  0  0  0  0  0  0  0  0  0  0
   20.7256   -5.6159  -13.5864 C   0  0  2  0  0  0  0  0  0  0  0  0
   21.5751   -6.5263  -14.3610 N   0  0  0  0  0  0  0  0  0  0  0  0
   21.4047   -4.3763  -13.2215 C   0  0  0  0  0  0  0  0  0  0  0  0
   20.6942   -3.1989  -13.0981 O   0  0  0  0  0  0  0  0  0  0  0  0
   22.6374   -4.3506  -13.0138 O   0  0  0  0  0  0  0  0  0  0  0  0
  2  1  1  1
  2  7  1  0
  3  2  1  0
  4  3  1  0
  4  5  1  0
  5  9  1  0
  5  6  2  0
  7  8  2  0
  7 15  1  0
 10 11  1  0
 11 12  1  0
 13 12  1  0
 14 13  1  6
 15 14  1  0
 16 14  1  0
 16 17  2  0
 18 19  1  0
 19 20  1  0
 20 21  1  0
 22 21  1  1
 22 23  1  0
 23 16  1  0
 24 22  1  0
 25 24  1  0
 26 24  2  0
M  END
$$$$
