EMM.pdb
     RDKit          3D

 26 25  0  0  1  0  0  0  0  0999 V2000
   20.2757  -10.7258  -18.6239 N   0  0  0  0  0  0  0  0  0  0  0  0
   20.3374  -10.7663  -17.1868 C   0  0  1  0  0  0  0  0  0  0  0  0
   20.9088  -12.0645  -16.6934 C   0  0  0  0  0  0  0  0  0  0  0  0
   20.0484  -13.2060  -17.1453 C   0  0  0  0  0  0  0  0  0  0  0  0
   18.7989  -13.2429  -16.3659 C   0  0  0  0  0  0  0  0  0  0  0  0
   17.7771  -12.5332  -16.6411 O   0  0  0  0  0  0  0  0  0  0  0  0
   21.1927   -9.6463  -16.6710 C   0  0  0  0  0  0  0  0  0  0  0  0
   21.4651   -9.6311  -15.4725 O   0  0  0  0  0  0  0  0  0  0  0  0
   18.6706  -14.0777  -15.2614 O   0  0  0  0  0  0  0  0  0  0  0  0
   26.6174   -5.8672  -19.0379 C   0  0  0  0  0  0  0  0  0  0  0  0
   25.3665   -6.8768  -19.8325 S   0  0  0  0  0  0  0  0  0  0  0  0
   24.3373   -7.7928  -18.6489 C   0  0  0  0  0  0  0  0  0  0  0  0
   23.3669   -6.8537  -17.9883 C   0  0  0  0  0  0  0  0  0  0  0  0
   22.4541   -7.4955  -17.0106 C   0  0  2  0  0  0  0  0  0  0  0  0
   21.6926   -8.6135  -17.5134 N   0  0  0  0  0  0  0  0  0  0  0  0
   21.6007   -6.5373  -16.2468 C   0  0  0  0  0  0  0  0  0  0  0  0
   20.3445   -6.5423  -16.2685 O   0  0  0  0  0  0  0  0  0  0  0  0
   18.6002   -4.9425   -9.7868 C   0  0  0  0  0  0  0  0  0  0  0  0
   19.4479   -5.9074  -11.0769 S   0  0  0  0  0  0  0  0  0  0  0  0
   20.1220   -4.8038  -12.3405 C   0  0  0  0  0  0  0  0  0  0  0  0
   20.8235   -5.6170  -13.4053 C   0  0  0  0  0  0  0  0  0  0  0  0
   21.4333   -4.7344  -14.4720 C   0  0  2  0  0  0  0  0  0  0  0  0
   22.2018   -5.5390  -15.4273 N   0  0  0  0  0  0  0  0  0  0  0  0
   22.1911   -3.6062  -13.9394 C   0  0  0  0  0  0  0  0  0  0  0  0
   21.5378   -2.5177  -13.3967 O   0  0  0  0  0  0  0  0  0  0  0  0
   23.4412   -3.5980  -13.9616 O   0  0  0  0  0  0  0  0  0  0  0  0
  2  1  1  6
  2  7  1  0
  3  2  1  0
  4  3  1  0
  4  5  1  0
  5  9  1  0
  5  6  2  0
  7  8  2  0
  7 15  1  0
 10 11  1  0
 11 12  1  0
 13 12  1  0
 14 13  1  6
 15 14  1  0
 16 14  1  0
 16 17  2  0
 18 19  1  0
 19 20  1  0
 20 21  1  0
 22 21  1  1
 22 23  1  0
 23 16  1  0
 24 22  1  0
 25 24  1  0
 26 24  2  0
M  END
$$$$
