EMM.pdb
     RDKit          3D

 26 25  0  0  1  0  0  0  0  0999 V2000
   16.3257  -10.9473  -15.1119 N   0  0  0  0  0  0  0  0  0  0  0  0
   16.5476   -9.5270  -15.0481 C   0  0  1  0  0  0  0  0  0  0  0  0
   15.3059   -8.7563  -15.3936 C   0  0  0  0  0  0  0  0  0  0  0  0
   14.9930   -8.9180  -16.8508 C   0  0  0  0  0  0  0  0  0  0  0  0
   13.7426   -9.6776  -17.0229 C   0  0  0  0  0  0  0  0  0  0  0  0
   13.0505  -10.1227  -16.0501 O   0  0  0  0  0  0  0  0  0  0  0  0
   16.9825   -9.1299  -13.6678 C   0  0  0  0  0  0  0  0  0  0  0  0
   16.5134   -9.7466  -12.7137 O   0  0  0  0  0  0  0  0  0  0  0  0
   13.2431   -9.9530  -18.2909 O   0  0  0  0  0  0  0  0  0  0  0  0
   23.5146   -9.5434  -12.5348 C   0  0  0  0  0  0  0  0  0  0  0  0
   22.4015   -8.2167  -12.0698 S   0  0  0  0  0  0  0  0  0  0  0  0
   20.6532   -8.6322  -12.3346 C   0  0  0  0  0  0  0  0  0  0  0  0
   19.7900   -7.4658  -11.9418 C   0  0  0  0  0  0  0  0  0  0  0  0
   18.3330   -7.6927  -12.1047 C   0  0  2  0  0  0  0  0  0  0  0  0
   17.9087   -8.0755  -13.4299 N   0  0  0  0  0  0  0  0  0  0  0  0
   17.4756   -6.6110  -11.5350 C   0  0  0  0  0  0  0  0  0  0  0  0
   17.0857   -5.6076  -12.1827 O   0  0  0  0  0  0  0  0  0  0  0  0
   12.7752   -4.6038   -5.4225 C   0  0  0  0  0  0  0  0  0  0  0  0
   13.7544   -5.8745   -6.2829 S   0  0  0  0  0  0  0  0  0  0  0  0
   14.6514   -5.1389   -7.6698 C   0  0  0  0  0  0  0  0  0  0  0  0
   15.4336   -6.2102   -8.3961 C   0  0  0  0  0  0  0  0  0  0  0  0
   16.2093   -5.6415   -9.5640 C   0  0  2  0  0  0  0  0  0  0  0  0
   17.0461   -6.6774  -10.1783 N   0  0  0  0  0  0  0  0  0  0  0  0
   16.9525   -4.4274   -9.2409 C   0  0  0  0  0  0  0  0  0  0  0  0
   16.3209   -3.1997   -9.2381 O   0  0  0  0  0  0  0  0  0  0  0  0
   18.1705   -4.4693   -8.9611 O   0  0  0  0  0  0  0  0  0  0  0  0
  2  1  1  1
  2  7  1  0
  3  2  1  0
  4  3  1  0
  4  5  1  0
  5  9  1  0
  5  6  2  0
  7  8  2  0
  7 15  1  0
 10 11  1  0
 11 12  1  0
 13 12  1  0
 14 13  1  6
 15 14  1  0
 16 14  1  0
 16 17  2  0
 18 19  1  0
 19 20  1  0
 20 21  1  0
 22 21  1  1
 22 23  1  0
 23 16  1  0
 24 22  1  0
 25 24  1  0
 26 24  2  0
M  END
$$$$
