EMM.pdb
     RDKit          3D

 26 25  0  0  1  0  0  0  0  0999 V2000
   16.3883  -11.1486  -15.2723 N   0  0  0  0  0  0  0  0  0  0  0  0
   16.5257   -9.7263  -15.1025 C   0  0  1  0  0  0  0  0  0  0  0  0
   15.2081   -9.0211  -15.2499 C   0  0  0  0  0  0  0  0  0  0  0  0
   14.7174   -9.1447  -16.6610 C   0  0  0  0  0  0  0  0  0  0  0  0
   13.5236  -10.0062  -16.7125 C   0  0  0  0  0  0  0  0  0  0  0  0
   12.4072   -9.6934  -16.1838 O   0  0  0  0  0  0  0  0  0  0  0  0
   17.0792   -9.4158  -13.7426 C   0  0  0  0  0  0  0  0  0  0  0  0
   16.7944  -10.1714  -12.8158 O   0  0  0  0  0  0  0  0  0  0  0  0
   13.5582  -11.2367  -17.3588 O   0  0  0  0  0  0  0  0  0  0  0  0
   23.5678   -9.6690  -12.6628 C   0  0  0  0  0  0  0  0  0  0  0  0
   22.4354   -8.3460  -12.2352 S   0  0  0  0  0  0  0  0  0  0  0  0
   20.6914   -8.8136  -12.4330 C   0  0  0  0  0  0  0  0  0  0  0  0
   19.8099   -7.6636  -12.0325 C   0  0  0  0  0  0  0  0  0  0  0  0
   18.3556   -7.9227  -12.1698 C   0  0  2  0  0  0  0  0  0  0  0  0
   17.9126   -8.2891  -13.4935 N   0  0  0  0  0  0  0  0  0  0  0  0
   17.4849   -6.8739  -11.5603 C   0  0  0  0  0  0  0  0  0  0  0  0
   17.0357   -5.8813  -12.1860 O   0  0  0  0  0  0  0  0  0  0  0  0
   11.9401   -5.2298   -6.2633 C   0  0  0  0  0  0  0  0  0  0  0  0
   13.0688   -6.4413   -7.0199 S   0  0  0  0  0  0  0  0  0  0  0  0
   14.3361   -5.5925   -7.9908 C   0  0  0  0  0  0  0  0  0  0  0  0
   15.2414   -6.6105   -8.6476 C   0  0  0  0  0  0  0  0  0  0  0  0
   16.2767   -5.9504   -9.5314 C   0  0  2  0  0  0  0  0  0  0  0  0
   17.1116   -6.9615  -10.1882 N   0  0  0  0  0  0  0  0  0  0  0  0
   17.0581   -4.9205   -8.8536 C   0  0  0  0  0  0  0  0  0  0  0  0
   16.5173   -3.6720   -8.6194 O   0  0  0  0  0  0  0  0  0  0  0  0
   18.2279   -5.1422   -8.4715 O   0  0  0  0  0  0  0  0  0  0  0  0
  2  1  1  1
  2  7  1  0
  3  2  1  0
  4  3  1  0
  4  5  1  0
  5  9  1  0
  5  6  2  0
  7  8  2  0
  7 15  1  0
 10 11  1  0
 11 12  1  0
 13 12  1  0
 14 13  1  6
 15 14  1  0
 16 14  1  0
 16 17  2  0
 18 19  1  0
 19 20  1  0
 20 21  1  0
 22 21  1  1
 22 23  1  0
 23 16  1  0
 24 22  1  0
 25 24  1  0
 26 24  2  0
M  END
$$$$
