EMM.pdb
     RDKit          3D

 26 25  0  0  1  0  0  0  0  0999 V2000
   27.2847  -17.6943  -14.4485 N   0  0  0  0  0  0  0  0  0  0  0  0
   26.9787  -18.8002  -15.3167 C   0  0  1  0  0  0  0  0  0  0  0  0
   27.5811  -18.6173  -16.6801 C   0  0  0  0  0  0  0  0  0  0  0  0
   27.1941  -17.2792  -17.2344 C   0  0  0  0  0  0  0  0  0  0  0  0
   27.7779  -17.0936  -18.5740 C   0  0  0  0  0  0  0  0  0  0  0  0
   27.2799  -17.5955  -19.6340 O   0  0  0  0  0  0  0  0  0  0  0  0
   27.5046  -20.0796  -14.7347 C   0  0  0  0  0  0  0  0  0  0  0  0
   28.4595  -20.6184  -15.2903 O   0  0  0  0  0  0  0  0  0  0  0  0
   28.9331  -16.3404  -18.7515 O   0  0  0  0  0  0  0  0  0  0  0  0
   31.5357  -21.8019   -8.8404 C   0  0  0  0  0  0  0  0  0  0  0  0
   30.5228  -20.7826   -9.9129 S   0  0  0  0  0  0  0  0  0  0  0  0
   29.8557  -21.6944  -11.3352 C   0  0  0  0  0  0  0  0  0  0  0  0
   28.9475  -20.7987  -12.1307 C   0  0  0  0  0  0  0  0  0  0  0  0
   27.7206  -21.4585  -12.6407 C   0  0  2  0  0  0  0  0  0  0  0  0
   26.9409  -20.6824  -13.5749 N   0  0  0  0  0  0  0  0  0  0  0  0
   26.8690  -22.0751  -11.5804 C   0  0  0  0  0  0  0  0  0  0  0  0
   27.2901  -22.8989  -10.7303 O   0  0  0  0  0  0  0  0  0  0  0  0
   27.5993  -20.2384   -6.1284 C   0  0  0  0  0  0  0  0  0  0  0  0
   26.7271  -19.0833   -7.2325 S   0  0  0  0  0  0  0  0  0  0  0  0
   25.4254  -19.9497   -8.1403 C   0  0  0  0  0  0  0  0  0  0  0  0
   25.9754  -20.4650   -9.4515 C   0  0  0  0  0  0  0  0  0  0  0  0
   24.9039  -21.1361  -10.2823 C   0  0  2  0  0  0  0  0  0  0  0  0
   25.4880  -21.7384  -11.4851 N   0  0  0  0  0  0  0  0  0  0  0  0
   23.7613  -20.2757  -10.5745 C   0  0  0  0  0  0  0  0  0  0  0  0
   22.7740  -20.0782   -9.6299 O   0  0  0  0  0  0  0  0  0  0  0  0
   23.6498  -19.7010  -11.6794 O   0  0  0  0  0  0  0  0  0  0  0  0
  2  1  1  1
  2  7  1  0
  3  2  1  0
  4  3  1  0
  4  5  1  0
  5  9  1  0
  5  6  2  0
  7  8  2  0
  7 15  1  0
 10 11  1  0
 11 12  1  0
 13 12  1  0
 14 13  1  1
 15 14  1  0
 16 14  1  0
 16 17  2  0
 18 19  1  0
 19 20  1  0
 20 21  1  0
 22 21  1  6
 22 23  1  0
 23 16  1  0
 24 22  1  0
 25 24  1  0
 26 24  2  0
M  END
$$$$
