EMM.pdb
     RDKit          3D

 26 25  0  0  1  0  0  0  0  0999 V2000
   17.6659  -11.5805  -14.1244 N   0  0  0  0  0  0  0  0  0  0  0  0
   18.0821  -10.7782  -15.2441 C   0  0  1  0  0  0  0  0  0  0  0  0
   16.9326  -10.0143  -15.8360 C   0  0  0  0  0  0  0  0  0  0  0  0
   15.8517  -10.9634  -16.2581 C   0  0  0  0  0  0  0  0  0  0  0  0
   14.6923  -10.2179  -16.7778 C   0  0  0  0  0  0  0  0  0  0  0  0
   13.5953  -10.0912  -16.1422 O   0  0  0  0  0  0  0  0  0  0  0  0
   19.1338   -9.7960  -14.8180 C   0  0  0  0  0  0  0  0  0  0  0  0
   18.9877   -9.2234  -13.7402 O   0  0  0  0  0  0  0  0  0  0  0  0
   14.7406   -9.5989  -18.0218 O   0  0  0  0  0  0  0  0  0  0  0  0
   25.8847   -9.6344  -14.8684 C   0  0  0  0  0  0  0  0  0  0  0  0
   24.6736  -10.9564  -14.8388 S   0  0  0  0  0  0  0  0  0  0  0  0
   22.9899  -10.3682  -14.4945 C   0  0  0  0  0  0  0  0  0  0  0  0
   22.7080   -9.1349  -15.3066 C   0  0  0  0  0  0  0  0  0  0  0  0
   21.3254   -8.6128  -15.1776 C   0  0  2  0  0  0  0  0  0  0  0  0
   20.2804   -9.5090  -15.6110 N   0  0  0  0  0  0  0  0  0  0  0  0
   21.1371   -7.2335  -15.7178 C   0  0  0  0  0  0  0  0  0  0  0  0
   20.9377   -6.9739  -16.9307 O   0  0  0  0  0  0  0  0  0  0  0  0
   17.9550   -0.2227  -14.6089 C   0  0  0  0  0  0  0  0  0  0  0  0
   18.3472   -1.8820  -13.9711 S   0  0  0  0  0  0  0  0  0  0  0  0
   19.6939   -2.6166  -14.9281 C   0  0  0  0  0  0  0  0  0  0  0  0
   19.9465   -4.0292  -14.4506 C   0  0  0  0  0  0  0  0  0  0  0  0
   20.9695   -4.7363  -15.3122 C   0  0  2  0  0  0  0  0  0  0  0  0
   21.1755   -6.1102  -14.8424 N   0  0  0  0  0  0  0  0  0  0  0  0
   22.2176   -3.9960  -15.4703 C   0  0  0  0  0  0  0  0  0  0  0  0
   22.3656   -3.0842  -16.4964 O   0  0  0  0  0  0  0  0  0  0  0  0
   23.1762   -4.1685  -14.6862 O   0  0  0  0  0  0  0  0  0  0  0  0
  2  1  1  1
  2  7  1  0
  3  2  1  0
  4  3  1  0
  4  5  1  0
  5  9  1  0
  5  6  2  0
  7  8  2  0
  7 15  1  0
 10 11  1  0
 11 12  1  0
 13 12  1  0
 14 13  1  6
 15 14  1  0
 16 14  1  0
 16 17  2  0
 18 19  1  0
 19 20  1  0
 20 21  1  0
 22 21  1  1
 22 23  1  0
 23 16  1  0
 24 22  1  0
 25 24  1  0
 26 24  2  0
M  END
$$$$
