EMM.pdb
     RDKit          3D

 26 25  0  0  1  0  0  0  0  0999 V2000
   16.4466  -10.9624  -18.1748 N   0  0  0  0  0  0  0  0  0  0  0  0
   16.0470  -10.1446  -17.0603 C   0  0  1  0  0  0  0  0  0  0  0  0
   16.0479  -10.9212  -15.7749 C   0  0  0  0  0  0  0  0  0  0  0  0
   16.6614  -12.2714  -15.9942 C   0  0  0  0  0  0  0  0  0  0  0  0
   16.6867  -13.0313  -14.7326 C   0  0  0  0  0  0  0  0  0  0  0  0
   17.3754  -12.6865  -13.7175 O   0  0  0  0  0  0  0  0  0  0  0  0
   16.9798   -8.9787  -16.9096 C   0  0  0  0  0  0  0  0  0  0  0  0
   18.1008   -9.0669  -17.4060 O   0  0  0  0  0  0  0  0  0  0  0  0
   15.9392  -14.1942  -14.5842 O   0  0  0  0  0  0  0  0  0  0  0  0
   15.0396   -2.9097  -15.5962 C   0  0  0  0  0  0  0  0  0  0  0  0
   16.8095   -2.6317  -15.6707 S   0  0  0  0  0  0  0  0  0  0  0  0
   17.7556   -4.1564  -15.9529 C   0  0  0  0  0  0  0  0  0  0  0  0
   16.8240   -5.3362  -15.9638 C   0  0  0  0  0  0  0  0  0  0  0  0
   17.4950   -6.6521  -16.1009 C   0  0  2  0  0  0  0  0  0  0  0  0
   16.6139   -7.7890  -16.2191 N   0  0  0  0  0  0  0  0  0  0  0  0
   18.5851   -6.8918  -15.1089 C   0  0  0  0  0  0  0  0  0  0  0  0
   18.6251   -7.8783  -14.3319 O   0  0  0  0  0  0  0  0  0  0  0  0
   25.1358   -9.8352  -14.3821 C   0  0  0  0  0  0  0  0  0  0  0  0
   23.5339   -9.3968  -15.1276 S   0  0  0  0  0  0  0  0  0  0  0  0
   22.8469   -7.9343  -14.3161 C   0  0  0  0  0  0  0  0  0  0  0  0
   21.5316   -7.5632  -14.9638 C   0  0  0  0  0  0  0  0  0  0  0  0
   20.9334   -6.3202  -14.3425 C   0  0  2  0  0  0  0  0  0  0  0  0
   19.6693   -5.9741  -15.0006 N   0  0  0  0  0  0  0  0  0  0  0  0
   21.8614   -5.1960  -14.2660 C   0  0  0  0  0  0  0  0  0  0  0  0
   22.7165   -5.0659  -13.1899 O   0  0  0  0  0  0  0  0  0  0  0  0
   21.9040   -4.3296  -15.1666 O   0  0  0  0  0  0  0  0  0  0  0  0
  2  1  1  6
  2  7  1  0
  3  2  1  0
  4  3  1  0
  4  5  1  0
  5  9  1  0
  5  6  2  0
  7  8  2  0
  7 15  1  0
 10 11  1  0
 11 12  1  0
 13 12  1  0
 14 13  1  1
 15 14  1  0
 16 14  1  0
 16 17  2  0
 18 19  1  0
 19 20  1  0
 20 21  1  0
 22 21  1  6
 22 23  1  0
 23 16  1  0
 24 22  1  0
 25 24  1  0
 26 24  2  0
M  END
$$$$
