EMM.pdb
     RDKit          3D

 26 25  0  0  1  0  0  0  0  0999 V2000
   28.4121  -20.6665  -15.3130 N   0  0  0  0  0  0  0  0  0  0  0  0
   28.3069  -19.3403  -14.7646 C   0  0  1  0  0  0  0  0  0  0  0  0
   28.0559  -18.3168  -15.8345 C   0  0  0  0  0  0  0  0  0  0  0  0
   27.4992  -18.9819  -17.0573 C   0  0  0  0  0  0  0  0  0  0  0  0
   26.1060  -18.5581  -17.2792 C   0  0  0  0  0  0  0  0  0  0  0  0
   25.0963  -19.2740  -16.9766 O   0  0  0  0  0  0  0  0  0  0  0  0
   27.1817  -19.2748  -13.7738 C   0  0  0  0  0  0  0  0  0  0  0  0
   26.9624  -18.2008  -13.2177 O   0  0  0  0  0  0  0  0  0  0  0  0
   25.8173  -17.3214  -17.8453 O   0  0  0  0  0  0  0  0  0  0  0  0
   21.2253  -21.0883  -14.4194 C   0  0  0  0  0  0  0  0  0  0  0  0
   21.3343  -21.3453  -12.6481 S   0  0  0  0  0  0  0  0  0  0  0  0
   22.8843  -20.7217  -11.9352 C   0  0  0  0  0  0  0  0  0  0  0  0
   23.9678  -20.7478  -12.9769 C   0  0  0  0  0  0  0  0  0  0  0  0
   25.3097  -20.3526  -12.4828 C   0  0  2  0  0  0  0  0  0  0  0  0
   26.3704  -20.4016  -13.4603 N   0  0  0  0  0  0  0  0  0  0  0  0
   25.7056  -21.0000  -11.1968 C   0  0  0  0  0  0  0  0  0  0  0  0
   25.9888  -22.2184  -11.0803 O   0  0  0  0  0  0  0  0  0  0  0  0
   28.9430  -18.5043   -6.3647 C   0  0  0  0  0  0  0  0  0  0  0  0
   27.8554  -19.5276   -5.3236 S   0  0  0  0  0  0  0  0  0  0  0  0
   26.7930  -20.5620   -6.3582 C   0  0  0  0  0  0  0  0  0  0  0  0
   26.7418  -19.9973   -7.7603 C   0  0  0  0  0  0  0  0  0  0  0  0
   25.8795  -20.8420   -8.6723 C   0  0  2  0  0  0  0  0  0  0  0  0
   25.7832  -20.2293  -10.0012 N   0  0  0  0  0  0  0  0  0  0  0  0
   24.5771  -21.1780   -8.1051 C   0  0  0  0  0  0  0  0  0  0  0  0
   24.4798  -22.0672   -7.0534 O   0  0  0  0  0  0  0  0  0  0  0  0
   23.5255  -20.6726   -8.5547 O   0  0  0  0  0  0  0  0  0  0  0  0
  2  1  1  6
  2  7  1  0
  3  2  1  0
  4  3  1  0
  4  5  1  0
  5  9  1  0
  5  6  2  0
  7  8  2  0
  7 15  1  0
 10 11  1  0
 11 12  1  0
 13 12  1  0
 14 13  1  6
 15 14  1  0
 16 14  1  0
 16 17  2  0
 18 19  1  0
 19 20  1  0
 20 21  1  0
 22 21  1  1
 22 23  1  0
 23 16  1  0
 24 22  1  0
 25 24  1  0
 26 24  2  0
M  END
$$$$
