EMM.pdb
     RDKit          3D

 26 25  0  0  1  0  0  0  0  0999 V2000
   17.8361  -11.3509  -15.6502 N   0  0  0  0  0  0  0  0  0  0  0  0
   18.6952  -10.6887  -16.5957 C   0  0  1  0  0  0  0  0  0  0  0  0
   17.9536   -9.6467  -17.3827 C   0  0  0  0  0  0  0  0  0  0  0  0
   17.0085  -10.3068  -18.3410 C   0  0  0  0  0  0  0  0  0  0  0  0
   17.7305  -10.7497  -19.5463 C   0  0  0  0  0  0  0  0  0  0  0  0
   18.1409   -9.9537  -20.4526 O   0  0  0  0  0  0  0  0  0  0  0  0
   19.8356  -10.0217  -15.8839 C   0  0  0  0  0  0  0  0  0  0  0  0
   19.5780   -9.3244  -14.9050 O   0  0  0  0  0  0  0  0  0  0  0  0
   18.0069  -12.0956  -19.7589 O   0  0  0  0  0  0  0  0  0  0  0  0
   27.2459  -10.0444  -16.3188 C   0  0  0  0  0  0  0  0  0  0  0  0
   26.1860  -10.4114  -14.9198 S   0  0  0  0  0  0  0  0  0  0  0  0
   24.6635   -9.4208  -14.9044 C   0  0  0  0  0  0  0  0  0  0  0  0
   23.5629  -10.1724  -15.5999 C   0  0  0  0  0  0  0  0  0  0  0  0
   22.2762   -9.4396  -15.6912 C   0  0  2  0  0  0  0  0  0  0  0  0
   21.1890  -10.1677  -16.3000 N   0  0  0  0  0  0  0  0  0  0  0  0
   22.3956   -8.0551  -16.2376 C   0  0  0  0  0  0  0  0  0  0  0  0
   22.7124   -7.7919  -17.4246 O   0  0  0  0  0  0  0  0  0  0  0  0
   18.8020   -2.2870  -14.9516 C   0  0  0  0  0  0  0  0  0  0  0  0
   19.4097   -2.7206  -16.6119 S   0  0  0  0  0  0  0  0  0  0  0  0
   21.0537   -3.4647  -16.5006 C   0  0  0  0  0  0  0  0  0  0  0  0
   20.9330   -4.9000  -16.0395 C   0  0  0  0  0  0  0  0  0  0  0  0
   22.2891   -5.5488  -15.8695 C   0  0  2  0  0  0  0  0  0  0  0  0
   22.1426   -6.9305  -15.4004 N   0  0  0  0  0  0  0  0  0  0  0  0
   23.2170   -4.7676  -15.0571 C   0  0  0  0  0  0  0  0  0  0  0  0
   24.1271   -3.9188  -15.6548 O   0  0  0  0  0  0  0  0  0  0  0  0
   23.2103   -4.8479  -13.8093 O   0  0  0  0  0  0  0  0  0  0  0  0
  2  1  1  1
  2  7  1  0
  3  2  1  0
  4  3  1  0
  4  5  1  0
  5  9  1  0
  5  6  2  0
  7  8  2  0
  7 15  1  0
 10 11  1  0
 11 12  1  0
 13 12  1  0
 14 13  1  6
 15 14  1  0
 16 14  1  0
 16 17  2  0
 18 19  1  0
 19 20  1  0
 20 21  1  0
 22 21  1  1
 22 23  1  0
 23 16  1  0
 24 22  1  0
 25 24  1  0
 26 24  2  0
M  END
$$$$
