EMM.pdb
     RDKit          3D

 26 25  0  0  1  0  0  0  0  0999 V2000
   25.6380  -19.8905  -19.8713 N   0  0  0  0  0  0  0  0  0  0  0  0
   26.1103  -19.2311  -18.6827 C   0  0  1  0  0  0  0  0  0  0  0  0
   25.2482  -18.0557  -18.3216 C   0  0  0  0  0  0  0  0  0  0  0  0
   23.8530  -18.5172  -18.0254 C   0  0  0  0  0  0  0  0  0  0  0  0
   22.9548  -17.3600  -17.8704 C   0  0  0  0  0  0  0  0  0  0  0  0
   23.2771  -16.1710  -18.1959 O   0  0  0  0  0  0  0  0  0  0  0  0
   26.1168  -20.1866  -17.5254 C   0  0  0  0  0  0  0  0  0  0  0  0
   25.3968  -21.1805  -17.5919 O   0  0  0  0  0  0  0  0  0  0  0  0
   21.6759  -17.5136  -17.3470 O   0  0  0  0  0  0  0  0  0  0  0  0
   29.7378  -19.3549  -12.0906 C   0  0  0  0  0  0  0  0  0  0  0  0
   29.1222  -21.0109  -11.7843 S   0  0  0  0  0  0  0  0  0  0  0  0
   27.9982  -21.6013  -13.0833 C   0  0  0  0  0  0  0  0  0  0  0  0
   27.8644  -20.5530  -14.1525 C   0  0  0  0  0  0  0  0  0  0  0  0
   26.9841  -20.9337  -15.2844 C   0  0  2  0  0  0  0  0  0  0  0  0
   26.9191  -19.9822  -16.3676 N   0  0  0  0  0  0  0  0  0  0  0  0
   25.6282  -21.4070  -14.8754 C   0  0  0  0  0  0  0  0  0  0  0  0
   25.2936  -22.6164  -14.8150 O   0  0  0  0  0  0  0  0  0  0  0  0
   25.9907  -21.6138   -9.5158 C   0  0  0  0  0  0  0  0  0  0  0  0
   24.4095  -20.7241   -9.3672 S   0  0  0  0  0  0  0  0  0  0  0  0
   23.4842  -20.8321  -10.9168 C   0  0  0  0  0  0  0  0  0  0  0  0
   24.4189  -20.6095  -12.0847 C   0  0  0  0  0  0  0  0  0  0  0  0
   23.6895  -20.6886  -13.4078 C   0  0  2  0  0  0  0  0  0  0  0  0
   24.6183  -20.4668  -14.5208 N   0  0  0  0  0  0  0  0  0  0  0  0
   22.5045  -19.8390  -13.4777 C   0  0  0  0  0  0  0  0  0  0  0  0
   21.4268  -20.0706  -12.6465 O   0  0  0  0  0  0  0  0  0  0  0  0
   22.4371  -18.8877  -14.2865 O   0  0  0  0  0  0  0  0  0  0  0  0
  2  1  1  6
  2  7  1  0
  3  2  1  0
  4  3  1  0
  4  5  1  0
  5  9  1  0
  5  6  2  0
  7  8  2  0
  7 15  1  0
 10 11  1  0
 11 12  1  0
 13 12  1  0
 14 13  1  1
 15 14  1  0
 16 14  1  0
 16 17  2  0
 18 19  1  0
 19 20  1  0
 20 21  1  0
 22 21  1  1
 22 23  1  0
 23 16  1  0
 24 22  1  0
 25 24  1  0
 26 24  2  0
M  END
$$$$
