EMM.pdb
     RDKit          3D

 26 25  0  0  1  0  0  0  0  0999 V2000
   25.4776  -23.6637  -17.2522 N   0  0  0  0  0  0  0  0  0  0  0  0
   24.5516  -23.5874  -16.1535 C   0  0  1  0  0  0  0  0  0  0  0  0
   24.9579  -24.4886  -15.0230 C   0  0  0  0  0  0  0  0  0  0  0  0
   25.6063  -25.7270  -15.5645 C   0  0  0  0  0  0  0  0  0  0  0  0
   24.5950  -26.7728  -15.7963 C   0  0  0  0  0  0  0  0  0  0  0  0
   23.3738  -26.6592  -15.4508 O   0  0  0  0  0  0  0  0  0  0  0  0
   24.4754  -22.1815  -15.6341 C   0  0  0  0  0  0  0  0  0  0  0  0
   23.7821  -21.9682  -14.6417 O   0  0  0  0  0  0  0  0  0  0  0  0
   24.9337  -27.9678  -16.4211 O   0  0  0  0  0  0  0  0  0  0  0  0
   27.2688  -14.6799  -15.9847 C   0  0  0  0  0  0  0  0  0  0  0  0
   27.3724  -16.4062  -16.4588 S   0  0  0  0  0  0  0  0  0  0  0  0
   26.0623  -17.4245  -15.7198 C   0  0  0  0  0  0  0  0  0  0  0  0
   26.1596  -18.8314  -16.2405 C   0  0  0  0  0  0  0  0  0  0  0  0
   25.1003  -19.7466  -15.7495 C   0  0  2  0  0  0  0  0  0  0  0  0
   25.1705  -21.1001  -16.2453 N   0  0  0  0  0  0  0  0  0  0  0  0
   23.7176  -19.1901  -15.8402 C   0  0  0  0  0  0  0  0  0  0  0  0
   23.0098  -19.2296  -16.8774 O   0  0  0  0  0  0  0  0  0  0  0  0
   17.0288  -17.7467  -11.9889 C   0  0  0  0  0  0  0  0  0  0  0  0
   18.7509  -18.3366  -11.9655 S   0  0  0  0  0  0  0  0  0  0  0  0
   19.5984  -17.8500  -13.4867 C   0  0  0  0  0  0  0  0  0  0  0  0
   20.9900  -18.4418  -13.5061 C   0  0  0  0  0  0  0  0  0  0  0  0
   21.7628  -18.0136  -14.7342 C   0  0  2  0  0  0  0  0  0  0  0  0
   23.1203  -18.5679  -14.7063 N   0  0  0  0  0  0  0  0  0  0  0  0
   21.7412  -16.5732  -14.9700 C   0  0  0  0  0  0  0  0  0  0  0  0
   20.6453  -15.9768  -15.5611 O   0  0  0  0  0  0  0  0  0  0  0  0
   22.7078  -15.8497  -14.6449 O   0  0  0  0  0  0  0  0  0  0  0  0
  2  1  1  6
  2  7  1  0
  3  2  1  0
  4  3  1  0
  4  5  1  0
  5  9  1  0
  5  6  2  0
  7  8  2  0
  7 15  1  0
 10 11  1  0
 11 12  1  0
 13 12  1  0
 14 13  1  6
 15 14  1  0
 16 14  1  0
 16 17  2  0
 18 19  1  0
 19 20  1  0
 20 21  1  0
 22 21  1  1
 22 23  1  0
 23 16  1  0
 24 22  1  0
 25 24  1  0
 26 24  2  0
M  END
$$$$
