EMM.pdb
     RDKit          3D

 26 25  0  0  1  0  0  0  0  0999 V2000
   18.1840  -13.1866  -15.8142 N   0  0  0  0  0  0  0  0  0  0  0  0
   19.0088  -12.7936  -16.9259 C   0  0  1  0  0  0  0  0  0  0  0  0
   18.5092  -13.3728  -18.2182 C   0  0  0  0  0  0  0  0  0  0  0  0
   17.0447  -13.0916  -18.3719 C   0  0  0  0  0  0  0  0  0  0  0  0
   16.5651  -13.5815  -19.6757 C   0  0  0  0  0  0  0  0  0  0  0  0
   16.6276  -12.8990  -20.7498 O   0  0  0  0  0  0  0  0  0  0  0  0
   19.0309  -11.2986  -17.0544 C   0  0  0  0  0  0  0  0  0  0  0  0
   19.7842  -10.8008  -17.8883 O   0  0  0  0  0  0  0  0  0  0  0  0
   16.0054  -14.8481  -19.8007 O   0  0  0  0  0  0  0  0  0  0  0  0
   15.6250   -4.2068  -16.4644 C   0  0  0  0  0  0  0  0  0  0  0  0
   15.5564   -5.9941  -16.3367 S   0  0  0  0  0  0  0  0  0  0  0  0
   17.1949   -6.7742  -16.4154 C   0  0  0  0  0  0  0  0  0  0  0  0
   17.0511   -8.2669  -16.3100 C   0  0  0  0  0  0  0  0  0  0  0  0
   18.3345   -9.0102  -16.2730 C   0  0  2  0  0  0  0  0  0  0  0  0
   18.2184  -10.4486  -16.2523 N   0  0  0  0  0  0  0  0  0  0  0  0
   19.3023   -8.5138  -15.2499 C   0  0  0  0  0  0  0  0  0  0  0  0
   19.7416   -9.2097  -14.3007 O   0  0  0  0  0  0  0  0  0  0  0  0
   24.2039  -11.1761  -13.7771 C   0  0  0  0  0  0  0  0  0  0  0  0
   23.8105   -9.8519  -14.9627 S   0  0  0  0  0  0  0  0  0  0  0  0
   22.5955   -8.7174  -14.2512 C   0  0  0  0  0  0  0  0  0  0  0  0
   22.1793   -7.7000  -15.2899 C   0  0  0  0  0  0  0  0  0  0  0  0
   21.0929   -6.7837  -14.7714 C   0  0  2  0  0  0  0  0  0  0  0  0
   19.7878   -7.1759  -15.3132 N   0  0  0  0  0  0  0  0  0  0  0  0
   21.3825   -5.3649  -14.9562 C   0  0  0  0  0  0  0  0  0  0  0  0
   22.2692   -4.7166  -14.1198 O   0  0  0  0  0  0  0  0  0  0  0  0
   20.8382   -4.7070  -15.8696 O   0  0  0  0  0  0  0  0  0  0  0  0
  2  1  1  1
  2  7  1  0
  3  2  1  0
  4  3  1  0
  4  5  1  0
  5  9  1  0
  5  6  2  0
  7  8  2  0
  7 15  1  0
 10 11  1  0
 11 12  1  0
 13 12  1  0
 14 13  1  1
 15 14  1  0
 16 14  1  0
 16 17  2  0
 18 19  1  0
 19 20  1  0
 20 21  1  0
 22 21  1  6
 22 23  1  0
 23 16  1  0
 24 22  1  0
 25 24  1  0
 26 24  2  0
M  END
$$$$
