YTM.pdb
     RDKit          3D

 28 28  0  0  1  0  0  0  0  0999 V2000
   24.0625  -18.9287  -20.6112 O   0  0  0  0  0  0  0  0  0  0  0  0
   24.1045  -17.8167  -19.7656 C   0  0  0  0  0  0  0  0  0  0  0  0
   23.5841  -16.6009  -20.1500 C   0  0  0  0  0  0  0  0  0  0  0  0
   23.6191  -15.5003  -19.3288 C   0  0  0  0  0  0  0  0  0  0  0  0
   24.1834  -15.5928  -18.0871 C   0  0  0  0  0  0  0  0  0  0  0  0
   24.2063  -14.3883  -17.2230 C   0  0  0  0  0  0  0  0  0  0  0  0
   25.1894  -13.3507  -17.7470 C   0  0  2  0  0  0  0  0  0  0  0  0
   26.4728  -13.9532  -17.8171 N   0  0  0  0  0  0  0  0  0  0  0  0
   25.1019  -12.1823  -16.8620 C   0  0  0  0  0  0  0  0  0  0  0  0
   25.9137  -12.0992  -15.9052 O   0  0  0  0  0  0  0  0  0  0  0  0
   24.7151  -16.7871  -17.6621 C   0  0  0  0  0  0  0  0  0  0  0  0
   24.6652  -17.8670  -18.5041 C   0  0  0  0  0  0  0  0  0  0  0  0
   26.6784  -10.2466  -16.0429 C   0  0  0  0  0  0  0  0  0  0  0  0
   25.5424   -9.2935  -16.3419 C   0  0  1  0  0  0  0  0  0  0  0  0
   25.5814   -8.8916  -17.6932 O   0  0  0  0  0  0  0  0  0  0  0  0
   24.1989   -9.9603  -16.1469 C   0  0  2  0  0  0  0  0  0  0  0  0
   24.1625  -11.1288  -17.0048 N   0  0  0  0  0  0  0  0  0  0  0  0
   23.1490   -8.9940  -16.5605 C   0  0  0  0  0  0  0  0  0  0  0  0
   22.4817   -9.1484  -17.6186 O   0  0  0  0  0  0  0  0  0  0  0  0
   16.4623   -6.3443  -16.3957 C   0  0  0  0  0  0  0  0  0  0  0  0
   17.7465   -7.5348  -15.8923 S   0  0  0  0  0  0  0  0  0  0  0  0
   19.3572   -6.7852  -16.1824 C   0  0  0  0  0  0  0  0  0  0  0  0
   20.5038   -7.7512  -15.8879 C   0  0  0  0  0  0  0  0  0  0  0  0
   21.7780   -6.9408  -16.0456 C   0  0  2  0  0  0  0  0  0  0  0  0
   22.8737   -7.8613  -15.7584 N   0  0  0  0  0  0  0  0  0  0  0  0
   21.8454   -5.8169  -15.0759 C   0  0  0  0  0  0  0  0  0  0  0  0
   22.3830   -6.0018  -13.9649 O   0  0  0  0  0  0  0  0  0  0  0  0
   21.3316   -4.5573  -15.3540 O   0  0  0  0  0  0  0  0  0  0  0  0
  2  1  1  0
  3  2  2  0
  4  3  1  0
  5  4  2  0
  5 11  1  0
  6  5  1  0
  7  6  1  0
  7  9  1  0
  7  8  1  1
  9 10  2  0
 11 12  2  0
 12  2  1  0
 14 13  1  6
 14 16  1  0
 15 14  1  0
 16 17  1  6
 17  9  1  0
 18 16  1  0
 18 19  2  0
 20 21  1  0
 22 21  1  0
 22 23  1  0
 24 23  1  1
 24 25  1  0
 24 26  1  0
 25 18  1  0
 26 28  1  0
 27 26  2  0
M  END
$$$$
