YTM.pdb
     RDKit          3D

 28 28  0  0  1  0  0  0  0  0999 V2000
   28.7808  -20.1094   -3.6775 O   0  0  0  0  0  0  0  0  0  0  0  0
   28.3986  -20.0114   -5.0182 C   0  0  0  0  0  0  0  0  0  0  0  0
   27.0755  -20.0746   -5.3951 C   0  0  0  0  0  0  0  0  0  0  0  0
   26.6863  -19.9798   -6.7092 C   0  0  0  0  0  0  0  0  0  0  0  0
   27.6254  -19.8172   -7.6891 C   0  0  0  0  0  0  0  0  0  0  0  0
   27.1754  -19.7176   -9.0982 C   0  0  0  0  0  0  0  0  0  0  0  0
   27.0521  -21.0936   -9.7377 C   0  0  2  0  0  0  0  0  0  0  0  0
   28.3373  -21.6962   -9.7418 N   0  0  0  0  0  0  0  0  0  0  0  0
   26.4531  -20.9047  -11.0649 C   0  0  0  0  0  0  0  0  0  0  0  0
   27.2138  -20.9079  -12.0663 O   0  0  0  0  0  0  0  0  0  0  0  0
   28.9579  -19.7488   -7.3582 C   0  0  0  0  0  0  0  0  0  0  0  0
   29.3148  -19.8466   -6.0389 C   0  0  0  0  0  0  0  0  0  0  0  0
   26.2939  -22.1541  -13.5051 C   0  0  0  0  0  0  0  0  0  0  0  0
   24.8103  -21.8890  -13.3741 C   0  0  1  0  0  0  0  0  0  0  0  0
   24.1992  -22.8926  -12.5940 O   0  0  0  0  0  0  0  0  0  0  0  0
   24.5456  -20.5858  -12.6537 C   0  0  2  0  0  0  0  0  0  0  0  0
   25.0679  -20.7171  -11.3073 N   0  0  0  0  0  0  0  0  0  0  0  0
   23.0746  -20.3827  -12.6099 C   0  0  0  0  0  0  0  0  0  0  0  0
   22.3841  -20.7284  -11.6136 O   0  0  0  0  0  0  0  0  0  0  0  0
   17.1545  -16.4735  -15.9919 C   0  0  0  0  0  0  0  0  0  0  0  0
   18.8354  -17.1205  -16.2676 S   0  0  0  0  0  0  0  0  0  0  0  0
   19.3554  -17.9944  -14.7823 C   0  0  0  0  0  0  0  0  0  0  0  0
   20.7776  -18.5398  -14.9028 C   0  0  0  0  0  0  0  0  0  0  0  0
   21.0180  -19.3498  -13.6413 C   0  0  2  0  0  0  0  0  0  0  0  0
   22.4093  -19.7859  -13.7070 N   0  0  0  0  0  0  0  0  0  0  0  0
   20.1524  -20.5561  -13.5820 C   0  0  0  0  0  0  0  0  0  0  0  0
   20.4452  -21.5511  -14.2762 O   0  0  0  0  0  0  0  0  0  0  0  0
   19.0208  -20.6261  -12.7804 O   0  0  0  0  0  0  0  0  0  0  0  0
  2  1  1  0
  3  2  2  0
  4  3  1  0
  5  4  2  0
  5 11  1  0
  6  5  1  0
  7  6  1  0
  7  9  1  0
  7  8  1  6
  9 10  2  0
 11 12  2  0
 12  2  1  0
 14 13  1  1
 14 16  1  0
 15 14  1  0
 16 17  1  1
 17  9  1  0
 18 16  1  0
 18 19  2  0
 20 21  1  0
 22 21  1  0
 22 23  1  0
 24 23  1  6
 24 25  1  0
 24 26  1  0
 25 18  1  0
 26 28  1  0
 27 26  2  0
M  END
$$$$
