YTM.pdb
     RDKit          3D

 28 28  0  0  1  0  0  0  0  0999 V2000
   25.6016  -19.5443  -27.2943 O   0  0  0  0  0  0  0  0  0  0  0  0
   25.4262  -20.1072  -26.0272 C   0  0  0  0  0  0  0  0  0  0  0  0
   24.1801  -20.4732  -25.5692 C   0  0  0  0  0  0  0  0  0  0  0  0
   23.9939  -21.0273  -24.3260 C   0  0  0  0  0  0  0  0  0  0  0  0
   25.0654  -21.2304  -23.5018 C   0  0  0  0  0  0  0  0  0  0  0  0
   24.8336  -21.8305  -22.1660 C   0  0  0  0  0  0  0  0  0  0  0  0
   24.5266  -20.7621  -21.1259 C   0  0  2  0  0  0  0  0  0  0  0  0
   25.6998  -19.9881  -20.9271 N   0  0  0  0  0  0  0  0  0  0  0  0
   24.0295  -21.4509  -19.9282 C   0  0  0  0  0  0  0  0  0  0  0  0
   24.8693  -21.9710  -19.1499 O   0  0  0  0  0  0  0  0  0  0  0  0
   26.3277  -20.8799  -23.9181 C   0  0  0  0  0  0  0  0  0  0  0  0
   26.4813  -20.3294  -25.1635 C   0  0  0  0  0  0  0  0  0  0  0  0
   20.5432  -22.2987  -16.5722 C   0  0  0  0  0  0  0  0  0  0  0  0
   21.1000  -21.5569  -17.7673 C   0  0  1  0  0  0  0  0  0  0  0  0
   21.6345  -20.3142  -17.3684 O   0  0  0  0  0  0  0  0  0  0  0  0
   22.2446  -22.3155  -18.4014 C   0  0  2  0  0  0  0  0  0  0  0  0
   22.6605  -21.5759  -19.5774 N   0  0  0  0  0  0  0  0  0  0  0  0
   21.7369  -23.6544  -18.7971 C   0  0  0  0  0  0  0  0  0  0  0  0
   20.9330  -23.8049  -19.7562 O   0  0  0  0  0  0  0  0  0  0  0  0
   25.1919  -29.2441  -18.4038 C   0  0  0  0  0  0  0  0  0  0  0  0
   23.5492  -29.7423  -17.7929 S   0  0  0  0  0  0  0  0  0  0  0  0
   22.3544  -28.4967  -18.3039 C   0  0  0  0  0  0  0  0  0  0  0  0
   22.7560  -27.0934  -17.8521 C   0  0  0  0  0  0  0  0  0  0  0  0
   21.7303  -26.1538  -18.4604 C   0  0  2  0  0  0  0  0  0  0  0  0
   22.1549  -24.8071  -18.0909 N   0  0  0  0  0  0  0  0  0  0  0  0
   20.3700  -26.3830  -17.9080 C   0  0  0  0  0  0  0  0  0  0  0  0
   20.0906  -25.9431  -16.7740 O   0  0  0  0  0  0  0  0  0  0  0  0
   19.3861  -27.0719  -18.6046 O   0  0  0  0  0  0  0  0  0  0  0  0
  2  1  1  0
  3  2  2  0
  4  3  1  0
  5  4  2  0
  5 11  1  0
  6  5  1  0
  7  6  1  0
  7  9  1  0
  7  8  1  1
  9 10  2  0
 11 12  2  0
 12  2  1  0
 14 13  1  1
 14 16  1  0
 15 14  1  0
 16 17  1  6
 17  9  1  0
 18 16  1  0
 18 19  2  0
 20 21  1  0
 22 21  1  0
 22 23  1  0
 24 23  1  1
 24 25  1  0
 24 26  1  0
 25 18  1  0
 26 28  1  0
 27 26  2  0
M  END
$$$$
