YTM.pdb
     RDKit          3D

 28 28  0  0  1  0  0  0  0  0999 V2000
   18.0535  -21.2643  -16.7635 O   0  0  0  0  0  0  0  0  0  0  0  0
   19.2844  -21.4781  -16.1371 C   0  0  0  0  0  0  0  0  0  0  0  0
   19.8196  -22.7412  -16.0155 C   0  0  0  0  0  0  0  0  0  0  0  0
   21.0282  -22.9651  -15.4020 C   0  0  0  0  0  0  0  0  0  0  0  0
   21.7382  -21.9156  -14.8894 C   0  0  0  0  0  0  0  0  0  0  0  0
   23.0396  -22.1880  -14.2333 C   0  0  0  0  0  0  0  0  0  0  0  0
   24.2028  -21.7250  -15.0993 C   0  0  2  0  0  0  0  0  0  0  0  0
   24.3144  -22.6126  -16.2015 N   0  0  0  0  0  0  0  0  0  0  0  0
   25.3887  -21.6585  -14.2360 C   0  0  0  0  0  0  0  0  0  0  0  0
   26.5222  -21.7132  -14.7778 O   0  0  0  0  0  0  0  0  0  0  0  0
   21.2419  -20.6375  -14.9884 C   0  0  0  0  0  0  0  0  0  0  0  0
   20.0337  -20.4462  -15.6059 C   0  0  0  0  0  0  0  0  0  0  0  0
   27.4333  -19.9160  -13.9492 C   0  0  0  0  0  0  0  0  0  0  0  0
   27.0988  -19.9403  -12.4741 C   0  0  1  0  0  0  0  0  0  0  0  0
   26.0790  -19.0095  -12.1865 O   0  0  0  0  0  0  0  0  0  0  0  0
   26.5586  -21.2892  -12.0544 C   0  0  2  0  0  0  0  0  0  0  0  0
   25.3539  -21.5357  -12.8230 N   0  0  0  0  0  0  0  0  0  0  0  0
   26.2312  -21.2161  -10.6072 C   0  0  0  0  0  0  0  0  0  0  0  0
   25.0529  -21.0315  -10.1996 O   0  0  0  0  0  0  0  0  0  0  0  0
   28.8266  -19.6032   -3.4578 C   0  0  0  0  0  0  0  0  0  0  0  0
   29.2918  -19.7192   -5.2157 S   0  0  0  0  0  0  0  0  0  0  0  0
   27.9679  -20.5629   -6.0963 C   0  0  0  0  0  0  0  0  0  0  0  0
   28.2473  -20.6664   -7.5950 C   0  0  0  0  0  0  0  0  0  0  0  0
   27.0010  -21.2812   -8.2064 C   0  0  2  0  0  0  0  0  0  0  0  0
   27.2562  -21.3553   -9.6416 N   0  0  0  0  0  0  0  0  0  0  0  0
   25.7994  -20.4346   -7.9885 C   0  0  0  0  0  0  0  0  0  0  0  0
   25.7551  -19.2964   -8.4985 O   0  0  0  0  0  0  0  0  0  0  0  0
   24.7126  -20.8580   -7.2351 O   0  0  0  0  0  0  0  0  0  0  0  0
  2  1  1  0
  3  2  2  0
  4  3  1  0
  5  4  2  0
  5 11  1  0
  6  5  1  0
  7  6  1  0
  7  9  1  0
  7  8  1  6
  9 10  2  0
 11 12  2  0
 12  2  1  0
 14 13  1  6
 14 16  1  0
 15 14  1  0
 16 17  1  6
 17  9  1  0
 18 16  1  0
 18 19  2  0
 20 21  1  0
 22 21  1  0
 22 23  1  0
 24 23  1  1
 24 25  1  0
 24 26  1  0
 25 18  1  0
 26 28  1  0
 27 26  2  0
M  END
$$$$
