YTM.pdb
     RDKit          3D

 28 28  0  0  1  0  0  0  0  0999 V2000
   13.8530  -21.6859   -9.8307 O   0  0  0  0  0  0  0  0  0  0  0  0
   15.1506  -21.8934  -10.3067 C   0  0  0  0  0  0  0  0  0  0  0  0
   15.6049  -23.1525  -10.6308 C   0  0  0  0  0  0  0  0  0  0  0  0
   16.8777  -23.3702  -11.0994 C   0  0  0  0  0  0  0  0  0  0  0  0
   17.7364  -22.3182  -11.2566 C   0  0  0  0  0  0  0  0  0  0  0  0
   19.1037  -22.5839  -11.7647 C   0  0  0  0  0  0  0  0  0  0  0  0
   19.2353  -22.1902  -13.2293 C   0  0  2  0  0  0  0  0  0  0  0  0
   18.3043  -22.9561  -13.9787 N   0  0  0  0  0  0  0  0  0  0  0  0
   20.6411  -22.3826  -13.6071 C   0  0  0  0  0  0  0  0  0  0  0  0
   20.9133  -23.2757  -14.4496 O   0  0  0  0  0  0  0  0  0  0  0  0
   17.3251  -21.0440  -10.9455 C   0  0  0  0  0  0  0  0  0  0  0  0
   16.0496  -20.8589  -10.4802 C   0  0  0  0  0  0  0  0  0  0  0  0
   21.9178  -21.7386  -15.8949 C   0  0  0  0  0  0  0  0  0  0  0  0
   22.9910  -21.0937  -15.0458 C   0  0  1  0  0  0  0  0  0  0  0  0
   22.6989  -19.7297  -14.8377 O   0  0  0  0  0  0  0  0  0  0  0  0
   23.0534  -21.7184  -13.6698 C   0  0  2  0  0  0  0  0  0  0  0  0
   21.7273  -21.6308  -13.0897 N   0  0  0  0  0  0  0  0  0  0  0  0
   24.0159  -20.9304  -12.8575 C   0  0  0  0  0  0  0  0  0  0  0  0
   23.6508  -19.9413  -12.1668 O   0  0  0  0  0  0  0  0  0  0  0  0
   27.5033  -20.2602   -6.7053 C   0  0  0  0  0  0  0  0  0  0  0  0
   26.3859  -21.1549   -7.8327 S   0  0  0  0  0  0  0  0  0  0  0  0
   26.9679  -20.9091   -9.5182 C   0  0  0  0  0  0  0  0  0  0  0  0
   25.9877  -21.4606  -10.5524 C   0  0  0  0  0  0  0  0  0  0  0  0
   26.3242  -20.7593  -11.8563 C   0  0  2  0  0  0  0  0  0  0  0  0
   25.3862  -21.2831  -12.8442 N   0  0  0  0  0  0  0  0  0  0  0  0
   27.7043  -21.0673  -12.3129 C   0  0  0  0  0  0  0  0  0  0  0  0
   27.8736  -21.9158  -13.2124 O   0  0  0  0  0  0  0  0  0  0  0  0
   28.8252  -20.4467  -11.7779 O   0  0  0  0  0  0  0  0  0  0  0  0
  2  1  1  0
  3  2  2  0
  4  3  1  0
  5  4  2  0
  5 11  1  0
  6  5  1  0
  7  6  1  0
  7  9  1  0
  7  8  1  6
  9 10  2  0
 11 12  2  0
 12  2  1  0
 14 13  1  6
 14 16  1  0
 15 14  1  0
 16 17  1  1
 17  9  1  0
 18 16  1  0
 18 19  2  0
 20 21  1  0
 22 21  1  0
 22 23  1  0
 24 23  1  1
 24 25  1  0
 24 26  1  0
 25 18  1  0
 26 28  1  0
 27 26  2  0
M  END
$$$$
