YTM.pdb
     RDKit          3D

 28 28  0  0  1  0  0  0  0  0999 V2000
   31.7662  -24.6074  -18.9889 O   0  0  0  0  0  0  0  0  0  0  0  0
   31.0187  -23.7050  -18.2273 C   0  0  0  0  0  0  0  0  0  0  0  0
   30.7483  -22.4329  -18.6805 C   0  0  0  0  0  0  0  0  0  0  0  0
   30.0151  -21.5362  -17.9420 C   0  0  0  0  0  0  0  0  0  0  0  0
   29.5292  -21.8973  -16.7164 C   0  0  0  0  0  0  0  0  0  0  0  0
   28.7409  -20.9084  -15.9425 C   0  0  0  0  0  0  0  0  0  0  0  0
   27.2605  -21.2631  -15.9383 C   0  0  2  0  0  0  0  0  0  0  0  0
   26.7425  -21.0153  -17.2364 N   0  0  0  0  0  0  0  0  0  0  0  0
   26.6302  -20.4878  -14.8623 C   0  0  0  0  0  0  0  0  0  0  0  0
   26.2985  -19.2987  -15.1022 O   0  0  0  0  0  0  0  0  0  0  0  0
   29.7749  -23.1572  -16.2247 C   0  0  0  0  0  0  0  0  0  0  0  0
   30.5094  -24.0292  -16.9848 C   0  0  0  0  0  0  0  0  0  0  0  0
   24.1501  -19.4212  -14.4148 C   0  0  0  0  0  0  0  0  0  0  0  0
   24.2265  -20.0469  -13.0396 C   0  0  1  0  0  0  0  0  0  0  0  0
   23.7038  -21.3566  -13.0663 O   0  0  0  0  0  0  0  0  0  0  0  0
   25.6596  -20.1825  -12.5756 C   0  0  2  0  0  0  0  0  0  0  0  0
   26.3636  -20.9820  -13.5594 N   0  0  0  0  0  0  0  0  0  0  0  0
   25.6476  -20.8839  -11.2660 C   0  0  0  0  0  0  0  0  0  0  0  0
   25.4975  -22.1325  -11.1808 O   0  0  0  0  0  0  0  0  0  0  0  0
   30.1626  -19.7001   -5.9864 C   0  0  0  0  0  0  0  0  0  0  0  0
   28.4644  -19.0962   -6.2537 S   0  0  0  0  0  0  0  0  0  0  0  0
   27.6291  -20.2341   -7.3707 C   0  0  0  0  0  0  0  0  0  0  0  0
   26.2403  -19.7361   -7.7680 C   0  0  0  0  0  0  0  0  0  0  0  0
   25.6979  -20.7615   -8.7475 C   0  0  2  0  0  0  0  0  0  0  0  0
   25.8078  -20.1487  -10.0676 N   0  0  0  0  0  0  0  0  0  0  0  0
   24.2668  -21.0703   -8.4933 C   0  0  0  0  0  0  0  0  0  0  0  0
   23.3883  -20.3178   -8.9620 O   0  0  0  0  0  0  0  0  0  0  0  0
   23.8595  -22.1700   -7.7499 O   0  0  0  0  0  0  0  0  0  0  0  0
  2  1  1  0
  3  2  2  0
  4  3  1  0
  5  4  2  0
  5 11  1  0
  6  5  1  0
  7  6  1  0
  7  9  1  0
  7  8  1  6
  9 10  2  0
 11 12  2  0
 12  2  1  0
 14 13  1  6
 14 16  1  0
 15 14  1  0
 16 17  1  6
 17  9  1  0
 18 16  1  0
 18 19  2  0
 20 21  1  0
 22 21  1  0
 22 23  1  0
 24 23  1  1
 24 25  1  0
 24 26  1  0
 25 18  1  0
 26 28  1  0
 27 26  2  0
M  END
$$$$
