YTM.pdb
     RDKit          3D

 28 28  0  0  1  0  0  0  0  0999 V2000
   21.3409  -15.9199  -19.4877 O   0  0  0  0  0  0  0  0  0  0  0  0
   20.9670  -14.6578  -19.0182 C   0  0  0  0  0  0  0  0  0  0  0  0
   21.6609  -14.0324  -18.0062 C   0  0  0  0  0  0  0  0  0  0  0  0
   21.3039  -12.7923  -17.5355 C   0  0  0  0  0  0  0  0  0  0  0  0
   20.2295  -12.1410  -18.0742 C   0  0  0  0  0  0  0  0  0  0  0  0
   19.8683  -10.8037  -17.5459 C   0  0  0  0  0  0  0  0  0  0  0  0
   19.1253  -10.9147  -16.2218 C   0  0  2  0  0  0  0  0  0  0  0  0
   17.9385  -11.6617  -16.4419 N   0  0  0  0  0  0  0  0  0  0  0  0
   18.9136   -9.5490  -15.7257 C   0  0  0  0  0  0  0  0  0  0  0  0
   18.1903   -8.7755  -16.4040 O   0  0  0  0  0  0  0  0  0  0  0  0
   19.5079  -12.7280  -19.0863 C   0  0  0  0  0  0  0  0  0  0  0  0
   19.8887  -13.9656  -19.5345 C   0  0  0  0  0  0  0  0  0  0  0  0
   17.0974   -8.4523  -12.9852 C   0  0  0  0  0  0  0  0  0  0  0  0
   18.4264   -7.7553  -12.7942 C   0  0  1  0  0  0  0  0  0  0  0  0
   19.2425   -8.4886  -11.9080 O   0  0  0  0  0  0  0  0  0  0  0  0
   19.1961   -7.6727  -14.0935 C   0  0  2  0  0  0  0  0  0  0  0  0
   19.4677   -9.0294  -14.5274 N   0  0  0  0  0  0  0  0  0  0  0  0
   20.4719   -6.9622  -13.8202 C   0  0  0  0  0  0  0  0  0  0  0  0
   21.5698   -7.5751  -13.7327 O   0  0  0  0  0  0  0  0  0  0  0  0
   25.5756   -3.4766  -17.3248 C   0  0  0  0  0  0  0  0  0  0  0  0
   24.0994   -4.5306  -17.1520 S   0  0  0  0  0  0  0  0  0  0  0  0
   23.3905   -4.2477  -15.5217 C   0  0  0  0  0  0  0  0  0  0  0  0
   22.1498   -5.1050  -15.2762 C   0  0  0  0  0  0  0  0  0  0  0  0
   21.6644   -4.7409  -13.8844 C   0  0  2  0  0  0  0  0  0  0  0  0
   20.4775   -5.5574  -13.6500 N   0  0  0  0  0  0  0  0  0  0  0  0
   21.2739   -3.3104  -13.7885 C   0  0  0  0  0  0  0  0  0  0  0  0
   22.1626   -2.4432  -13.6630 O   0  0  0  0  0  0  0  0  0  0  0  0
   19.9509   -2.8916  -13.8329 O   0  0  0  0  0  0  0  0  0  0  0  0
  2  1  1  0
  3  2  2  0
  4  3  1  0
  5  4  2  0
  5 11  1  0
  6  5  1  0
  7  6  1  0
  7  9  1  0
  7  8  1  6
  9 10  2  0
 11 12  2  0
 12  2  1  0
 14 13  1  6
 14 16  1  0
 15 14  1  0
 16 17  1  1
 17  9  1  0
 18 16  1  0
 18 19  2  0
 20 21  1  0
 22 21  1  0
 22 23  1  0
 24 23  1  6
 24 25  1  0
 24 26  1  0
 25 18  1  0
 26 28  1  0
 27 26  2  0
M  END
$$$$
