YTM.pdb
     RDKit          3D

 28 28  0  0  1  0  0  0  0  0999 V2000
   28.9176  -20.4863   -3.7575 O   0  0  0  0  0  0  0  0  0  0  0  0
   28.4800  -20.2979   -5.0714 C   0  0  0  0  0  0  0  0  0  0  0  0
   29.3649  -20.0352   -6.0934 C   0  0  0  0  0  0  0  0  0  0  0  0
   28.9479  -19.8480   -7.3889 C   0  0  0  0  0  0  0  0  0  0  0  0
   27.6176  -19.9206   -7.6950 C   0  0  0  0  0  0  0  0  0  0  0  0
   27.1976  -19.7145   -9.1018 C   0  0  0  0  0  0  0  0  0  0  0  0
   26.9639  -21.0423   -9.8090 C   0  0  2  0  0  0  0  0  0  0  0  0
   28.2227  -21.6705   -9.9978 N   0  0  0  0  0  0  0  0  0  0  0  0
   26.2252  -20.7531  -11.0447 C   0  0  0  0  0  0  0  0  0  0  0  0
   26.8822  -20.5756  -12.1022 O   0  0  0  0  0  0  0  0  0  0  0  0
   26.6990  -20.1808   -6.7060 C   0  0  0  0  0  0  0  0  0  0  0  0
   27.1457  -20.3629   -5.4235 C   0  0  0  0  0  0  0  0  0  0  0  0
   25.8320  -21.9806  -13.4686 C   0  0  0  0  0  0  0  0  0  0  0  0
   24.3610  -21.7188  -13.2319 C   0  0  1  0  0  0  0  0  0  0  0  0
   23.7896  -22.7687  -12.4833 O   0  0  0  0  0  0  0  0  0  0  0  0
   24.1500  -20.4644  -12.4137 C   0  0  2  0  0  0  0  0  0  0  0  0
   24.8128  -20.6579  -11.1386 N   0  0  0  0  0  0  0  0  0  0  0  0
   22.6882  -20.2993  -12.2060 C   0  0  0  0  0  0  0  0  0  0  0  0
   22.1203  -20.6723  -11.1443 O   0  0  0  0  0  0  0  0  0  0  0  0
   20.1474  -15.3579  -15.1510 C   0  0  0  0  0  0  0  0  0  0  0  0
   18.6494  -15.8618  -14.2444 S   0  0  0  0  0  0  0  0  0  0  0  0
   18.9797  -17.4371  -13.4384 C   0  0  0  0  0  0  0  0  0  0  0  0
   20.4383  -17.8665  -13.5884 C   0  0  0  0  0  0  0  0  0  0  0  0
   20.5265  -19.2526  -12.9752 C   0  0  2  0  0  0  0  0  0  0  0  0
   21.8920  -19.7087  -13.2156 N   0  0  0  0  0  0  0  0  0  0  0  0
   19.5931  -20.2085  -13.6257 C   0  0  0  0  0  0  0  0  0  0  0  0
   19.9729  -20.8424  -14.6314 O   0  0  0  0  0  0  0  0  0  0  0  0
   18.3041  -20.4299  -13.1594 O   0  0  0  0  0  0  0  0  0  0  0  0
  2  1  1  0
  3  2  2  0
  4  3  1  0
  5  4  2  0
  5 11  1  0
  6  5  1  0
  7  6  1  0
  7  9  1  0
  7  8  1  6
  9 10  2  0
 11 12  2  0
 12  2  1  0
 14 13  1  1
 14 16  1  0
 15 14  1  0
 16 17  1  1
 17  9  1  0
 18 16  1  0
 18 19  2  0
 20 21  1  0
 22 21  1  0
 22 23  1  0
 24 23  1  6
 24 25  1  0
 24 26  1  0
 25 18  1  0
 26 28  1  0
 27 26  2  0
M  END
$$$$
