YTM.pdb
     RDKit          3D

 28 28  0  0  1  0  0  0  0  0999 V2000
   22.2072  -11.5057  -22.1670 O   0  0  0  0  0  0  0  0  0  0  0  0
   21.7757  -10.5441  -21.2492 C   0  0  0  0  0  0  0  0  0  0  0  0
   20.4426  -10.3950  -20.9371 C   0  0  0  0  0  0  0  0  0  0  0  0
   20.0053   -9.4539  -20.0370 C   0  0  0  0  0  0  0  0  0  0  0  0
   20.9046   -8.6296  -19.4203 C   0  0  0  0  0  0  0  0  0  0  0  0
   20.4031   -7.6238  -18.4533 C   0  0  0  0  0  0  0  0  0  0  0  0
   20.8352   -7.9595  -17.0327 C   0  0  2  0  0  0  0  0  0  0  0  0
   20.2373   -9.1943  -16.6685 N   0  0  0  0  0  0  0  0  0  0  0  0
   20.4658   -6.8193  -16.1844 C   0  0  0  0  0  0  0  0  0  0  0  0
   19.2489   -6.6458  -15.9186 O   0  0  0  0  0  0  0  0  0  0  0  0
   22.2453   -8.7434  -19.7017 C   0  0  0  0  0  0  0  0  0  0  0  0
   22.6506   -9.6917  -20.6040 C   0  0  0  0  0  0  0  0  0  0  0  0
   21.0993   -6.1501  -12.7592 C   0  0  0  0  0  0  0  0  0  0  0  0
   21.5756   -4.9012  -13.4677 C   0  0  1  0  0  0  0  0  0  0  0  0
   22.9661   -4.9655  -13.6946 O   0  0  0  0  0  0  0  0  0  0  0  0
   20.9390   -4.7665  -14.8330 C   0  0  2  0  0  0  0  0  0  0  0  0
   21.3853   -5.8886  -15.6358 N   0  0  0  0  0  0  0  0  0  0  0  0
   21.4154   -3.4929  -15.4316 C   0  0  0  0  0  0  0  0  0  0  0  0
   22.2597   -3.4718  -16.3673 O   0  0  0  0  0  0  0  0  0  0  0  0
   20.8104    2.0041  -20.0112 C   0  0  0  0  0  0  0  0  0  0  0  0
   20.5840    0.3033  -19.3980 S   0  0  0  0  0  0  0  0  0  0  0  0
   21.0577    0.2607  -17.6619 C   0  0  0  0  0  0  0  0  0  0  0  0
   20.7989   -1.1050  -17.0274 C   0  0  0  0  0  0  0  0  0  0  0  0
   21.2471   -0.9811  -15.5821 C   0  0  2  0  0  0  0  0  0  0  0  0
   20.9203   -2.2568  -14.9528 N   0  0  0  0  0  0  0  0  0  0  0  0
   20.5162    0.0951  -14.8639 C   0  0  0  0  0  0  0  0  0  0  0  0
   20.8516    1.2838  -15.0428 O   0  0  0  0  0  0  0  0  0  0  0  0
   19.4661   -0.1659  -13.9939 O   0  0  0  0  0  0  0  0  0  0  0  0
  2  1  1  0
  3  2  2  0
  4  3  1  0
  5  4  2  0
  5 11  1  0
  6  5  1  0
  7  6  1  0
  7  9  1  0
  7  8  1  1
  9 10  2  0
 11 12  2  0
 12  2  1  0
 14 13  1  6
 14 16  1  0
 15 14  1  0
 16 17  1  6
 17  9  1  0
 18 16  1  0
 18 19  2  0
 20 21  1  0
 22 21  1  0
 22 23  1  0
 24 23  1  6
 24 25  1  0
 24 26  1  0
 25 18  1  0
 26 28  1  0
 27 26  2  0
M  END
$$$$
