NHF.pdb
     RDKit          3D

 30 31  0  0  1  0  0  0  0  0999 V2000
    8.4175  -21.1282   19.3722 N   0  0  0  0  0  0  0  0  0  0  0  0
    8.4605  -19.9965   18.5567 C   0  0  0  0  0  0  0  0  0  0  0  0
    8.3587  -20.1267   17.3087 O   0  0  0  0  0  0  0  0  0  0  0  0
    8.6217  -18.6089   19.0526 C   0  0  0  0  0  0  0  0  0  0  0  0
    8.6991  -18.5283   20.5433 C   0  0  2  0  0  0  0  0  0  0  0  0
    7.3823  -18.6393   21.1523 N   0  0  0  0  0  0  0  0  0  0  0  0
    9.2946  -17.2366   20.9408 C   0  0  0  0  0  0  0  0  0  0  0  0
   10.4926  -16.9268   20.6184 O   0  0  0  0  0  0  0  0  0  0  0  0
    8.6117  -16.2545   21.6926 N   0  0  0  0  0  0  0  0  0  0  0  0
    9.1540  -14.9244   21.9830 C   0  0  1  0  0  0  0  0  0  0  0  0
    8.2253  -13.8522   21.5582 C   0  0  0  0  0  0  0  0  0  0  0  0
    7.9866  -13.8829   20.1080 C   0  0  0  0  0  0  0  0  0  0  0  0
    8.5473  -12.9525   19.1983 C   0  0  0  0  0  0  0  0  0  0  0  0
    8.1463  -13.2395   17.9510 N   0  0  0  0  0  0  0  0  0  0  0  0
    7.3544  -14.3123   18.0255 C   0  0  0  0  0  0  0  0  0  0  0  0
    7.2738  -14.6737   19.2977 N   0  0  0  0  0  0  0  0  0  0  0  0
    9.5264  -14.9085   23.4174 C   0  0  0  0  0  0  0  0  0  0  0  0
   10.2695  -14.0482   23.9328 O   0  0  0  0  0  0  0  0  0  0  0  0
    9.0100  -15.9355   24.2754 N   0  0  0  0  0  0  0  0  0  0  0  0
    9.5123  -16.1406   25.6248 C   0  0  1  0  0  0  0  0  0  0  0  0
    9.5580  -14.8227   26.3683 C   0  0  0  0  0  0  0  0  0  0  0  0
    8.2489  -14.1362   26.3682 C   0  0  0  0  0  0  0  0  0  0  0  0
    8.0382  -13.0128   27.1350 C   0  0  0  0  0  0  0  0  0  0  0  0
    6.8243  -12.3603   27.1447 C   0  0  0  0  0  0  0  0  0  0  0  0
    5.7816  -12.8209   26.3796 C   0  0  0  0  0  0  0  0  0  0  0  0
    5.9713  -13.9450   25.6038 C   0  0  0  0  0  0  0  0  0  0  0  0
    7.1989  -14.5941   25.6023 C   0  0  0  0  0  0  0  0  0  0  0  0
    8.6954  -17.1501   26.3036 C   0  0  0  0  0  0  0  0  0  0  0  0
    8.9857  -17.6006   27.5829 O   0  0  0  0  0  0  0  0  0  0  0  0
    7.6970  -17.6341   25.7244 O   0  0  0  0  0  0  0  0  0  0  0  0
  2  1  1  0
  3  2  2  0
  4  2  1  0
  4  5  1  0
  5  6  1  1
  7  5  1  0
  7  8  2  0
  9  7  1  0
 10  9  1  0
 10 11  1  1
 12 11  1  0
 12 13  2  0
 14 13  1  0
 15 16  2  0
 15 14  1  0
 16 12  1  0
 17 10  1  0
 18 17  2  0
 19 17  1  0
 20 19  1  0
 20 21  1  1
 22 21  1  0
 23 22  2  0
 24 23  1  0
 25 26  1  0
 25 24  2  0
 26 27  2  0
 27 22  1  0
 28 20  1  0
 29 28  1  0
 30 28  2  0
M  END
$$$$
