NHF.pdb
     RDKit          3D

 30 31  0  0  1  0  0  0  0  0999 V2000
    6.0172  -20.1898   19.0027 N   0  0  0  0  0  0  0  0  0  0  0  0
    7.1919  -20.5993   19.6352 C   0  0  0  0  0  0  0  0  0  0  0  0
    7.7288  -21.6881   19.3021 O   0  0  0  0  0  0  0  0  0  0  0  0
    7.8826  -19.8354   20.7013 C   0  0  0  0  0  0  0  0  0  0  0  0
    7.1581  -18.5854   21.0850 C   0  0  2  0  0  0  0  0  0  0  0  0
    6.2825  -18.1273   20.0169 N   0  0  0  0  0  0  0  0  0  0  0  0
    8.1336  -17.5179   21.3850 C   0  0  0  0  0  0  0  0  0  0  0  0
    9.3684  -17.6359   21.0746 O   0  0  0  0  0  0  0  0  0  0  0  0
    7.7979  -16.3036   22.0247 N   0  0  0  0  0  0  0  0  0  0  0  0
    8.7377  -15.1964   22.2203 C   0  0  1  0  0  0  0  0  0  0  0  0
    8.2298  -13.9386   21.6264 C   0  0  0  0  0  0  0  0  0  0  0  0
    8.0755  -14.0494   20.1686 C   0  0  0  0  0  0  0  0  0  0  0  0
    9.1455  -13.9071   19.2510 C   0  0  0  0  0  0  0  0  0  0  0  0
    8.6921  -14.0601   17.9980 N   0  0  0  0  0  0  0  0  0  0  0  0
    7.3795  -14.2937   18.0766 C   0  0  0  0  0  0  0  0  0  0  0  0
    7.0381  -14.2835   19.3568 N   0  0  0  0  0  0  0  0  0  0  0  0
    9.0438  -15.1344   23.6691 C   0  0  0  0  0  0  0  0  0  0  0  0
    9.7059  -14.2197   24.2009 O   0  0  0  0  0  0  0  0  0  0  0  0
    8.5572  -16.1800   24.5221 N   0  0  0  0  0  0  0  0  0  0  0  0
    8.7559  -16.1579   25.9626 C   0  0  1  0  0  0  0  0  0  0  0  0
    7.4762  -15.7443   26.6575 C   0  0  0  0  0  0  0  0  0  0  0  0
    7.3442  -14.2753   26.7559 C   0  0  0  0  0  0  0  0  0  0  0  0
    6.2158  -13.6334   26.2987 C   0  0  0  0  0  0  0  0  0  0  0  0
    6.0766  -12.2650   26.3847 C   0  0  0  0  0  0  0  0  0  0  0  0
    7.0731  -11.4983   26.9358 C   0  0  0  0  0  0  0  0  0  0  0  0
    8.2123  -12.1213   27.4002 C   0  0  0  0  0  0  0  0  0  0  0  0
    8.3413  -13.5010   27.3080 C   0  0  0  0  0  0  0  0  0  0  0  0
    9.2509  -17.4629   26.4091 C   0  0  0  0  0  0  0  0  0  0  0  0
    9.4154  -18.5305   25.5389 O   0  0  0  0  0  0  0  0  0  0  0  0
    9.5405  -17.6390   27.6140 O   0  0  0  0  0  0  0  0  0  0  0  0
  2  1  1  0
  3  2  2  0
  4  2  1  0
  4  5  1  0
  5  6  1  6
  7  5  1  0
  7  8  2  0
  9  7  1  0
 10  9  1  0
 10 11  1  1
 12 11  1  0
 12 13  2  0
 14 13  1  0
 15 16  2  0
 15 14  1  0
 16 12  1  0
 17 10  1  0
 18 17  2  0
 19 17  1  0
 20 19  1  0
 20 21  1  1
 22 21  1  0
 23 22  2  0
 24 23  1  0
 25 26  1  0
 25 24  2  0
 26 27  2  0
 27 22  1  0
 28 20  1  0
 29 28  1  0
 30 28  2  0
M  END
$$$$
