NHF.pdb
     RDKit          3D

 30 31  0  0  1  0  0  0  0  0999 V2000
    9.7362  -16.3047   16.5514 N   0  0  0  0  0  0  0  0  0  0  0  0
    8.4312  -16.6455   16.9096 C   0  0  0  0  0  0  0  0  0  0  0  0
    7.5693  -16.8306   16.0109 O   0  0  0  0  0  0  0  0  0  0  0  0
    7.9592  -16.8128   18.3048 C   0  0  0  0  0  0  0  0  0  0  0  0
    9.0558  -16.6755   19.3113 C   0  0  2  0  0  0  0  0  0  0  0  0
   10.0379  -17.7410   19.1785 N   0  0  0  0  0  0  0  0  0  0  0  0
    8.4886  -16.7247   20.6740 C   0  0  0  0  0  0  0  0  0  0  0  0
    7.3011  -16.3181   20.9175 O   0  0  0  0  0  0  0  0  0  0  0  0
    9.1893  -17.2126   21.7998 N   0  0  0  0  0  0  0  0  0  0  0  0
    8.5929  -17.3668   23.1294 C   0  0  1  0  0  0  0  0  0  0  0  0
    8.0170  -18.7183   23.3152 C   0  0  0  0  0  0  0  0  0  0  0  0
    7.5056  -18.9083   24.6803 C   0  0  0  0  0  0  0  0  0  0  0  0
    8.1315  -19.7331   25.6474 C   0  0  0  0  0  0  0  0  0  0  0  0
    7.4312  -19.7030   26.7910 N   0  0  0  0  0  0  0  0  0  0  0  0
    6.3861  -18.8949   26.5953 C   0  0  0  0  0  0  0  0  0  0  0  0
    6.4480  -18.4396   25.3526 N   0  0  0  0  0  0  0  0  0  0  0  0
    9.6249  -16.9765   24.1187 C   0  0  0  0  0  0  0  0  0  0  0  0
   10.5982  -17.6943   24.4276 O   0  0  0  0  0  0  0  0  0  0  0  0
    9.5115  -15.7019   24.7671 N   0  0  0  0  0  0  0  0  0  0  0  0
    9.4910  -15.5703   26.2153 C   0  0  1  0  0  0  0  0  0  0  0  0
    8.0637  -15.4571   26.7068 C   0  0  0  0  0  0  0  0  0  0  0  0
    7.4864  -14.1223   26.4418 C   0  0  0  0  0  0  0  0  0  0  0  0
    6.1506  -13.9747   26.1446 C   0  0  0  0  0  0  0  0  0  0  0  0
    5.5968  -12.7372   25.8968 C   0  0  0  0  0  0  0  0  0  0  0  0
    6.3741  -11.6065   25.9407 C   0  0  0  0  0  0  0  0  0  0  0  0
    7.7150  -11.7319   26.2367 C   0  0  0  0  0  0  0  0  0  0  0  0
    8.2619  -12.9841   26.4845 C   0  0  0  0  0  0  0  0  0  0  0  0
   10.2147  -16.6922   26.8196 C   0  0  0  0  0  0  0  0  0  0  0  0
    9.7188  -17.9875   26.8060 O   0  0  0  0  0  0  0  0  0  0  0  0
   11.3203  -16.4937   27.3718 O   0  0  0  0  0  0  0  0  0  0  0  0
  2  1  1  0
  3  2  2  0
  4  2  1  0
  4  5  1  0
  5  6  1  1
  7  5  1  0
  7  8  2  0
  9  7  1  0
 10  9  1  0
 10 11  1  1
 12 11  1  0
 12 13  2  0
 14 13  1  0
 15 16  2  0
 15 14  1  0
 16 12  1  0
 17 10  1  0
 18 17  2  0
 19 17  1  0
 20 19  1  0
 20 21  1  1
 22 21  1  0
 23 22  2  0
 24 23  1  0
 25 26  1  0
 25 24  2  0
 26 27  2  0
 27 22  1  0
 28 20  1  0
 29 28  1  0
 30 28  2  0
M  END
$$$$
