NHF.pdb
     RDKit          3D

 30 31  0  0  1  0  0  0  0  0999 V2000
    7.3462  -13.0724   16.7285 N   0  0  0  0  0  0  0  0  0  0  0  0
    8.4890  -13.5936   17.3369 C   0  0  0  0  0  0  0  0  0  0  0  0
    9.6113  -13.4333   16.7894 O   0  0  0  0  0  0  0  0  0  0  0  0
    8.4924  -14.3448   18.6147 C   0  0  0  0  0  0  0  0  0  0  0  0
    8.9726  -15.7522   18.4619 C   0  0  2  0  0  0  0  0  0  0  0  0
    8.1190  -16.5119   17.5611 N   0  0  0  0  0  0  0  0  0  0  0  0
    8.9804  -16.4203   19.7789 C   0  0  0  0  0  0  0  0  0  0  0  0
    7.8933  -16.7269   20.3781 O   0  0  0  0  0  0  0  0  0  0  0  0
   10.1588  -16.7707   20.4754 N   0  0  0  0  0  0  0  0  0  0  0  0
   10.1696  -17.3733   21.8111 C   0  0  1  0  0  0  0  0  0  0  0  0
   11.3158  -18.2947   21.9845 C   0  0  0  0  0  0  0  0  0  0  0  0
   11.0124  -19.6409   21.4780 C   0  0  0  0  0  0  0  0  0  0  0  0
   10.9701  -19.9728   20.1012 C   0  0  0  0  0  0  0  0  0  0  0  0
   10.6679  -21.2716   19.9566 N   0  0  0  0  0  0  0  0  0  0  0  0
   10.5158  -21.7824   21.1812 C   0  0  0  0  0  0  0  0  0  0  0  0
   10.7218  -20.8110   22.0583 N   0  0  0  0  0  0  0  0  0  0  0  0
   10.0947  -16.2640   22.7910 C   0  0  0  0  0  0  0  0  0  0  0  0
   10.8708  -15.2865   22.7947 O   0  0  0  0  0  0  0  0  0  0  0  0
    9.0756  -16.3027   23.7999 N   0  0  0  0  0  0  0  0  0  0  0  0
    8.8877  -15.2185   24.7509 C   0  0  1  0  0  0  0  0  0  0  0  0
    7.5626  -14.5309   24.5000 C   0  0  0  0  0  0  0  0  0  0  0  0
    7.2362  -13.5466   25.5535 C   0  0  0  0  0  0  0  0  0  0  0  0
    7.9088  -12.3486   25.6363 C   0  0  0  0  0  0  0  0  0  0  0  0
    7.6153  -11.4198   26.6113 C   0  0  0  0  0  0  0  0  0  0  0  0
    6.6321  -11.6700   27.5361 C   0  0  0  0  0  0  0  0  0  0  0  0
    5.9458  -12.8642   27.4711 C   0  0  0  0  0  0  0  0  0  0  0  0
    6.2504  -13.7925   26.4842 C   0  0  0  0  0  0  0  0  0  0  0  0
    9.0114  -15.7371   26.1159 C   0  0  0  0  0  0  0  0  0  0  0  0
    8.6602  -17.0368   26.4497 O   0  0  0  0  0  0  0  0  0  0  0  0
    9.4472  -14.9958   27.0254 O   0  0  0  0  0  0  0  0  0  0  0  0
  2  1  1  0
  3  2  2  0
  4  2  1  0
  4  5  1  0
  5  6  1  6
  7  5  1  0
  7  8  2  0
  9  7  1  0
 10  9  1  0
 10 11  1  1
 12 11  1  0
 12 13  2  0
 14 13  1  0
 15 16  2  0
 15 14  1  0
 16 12  1  0
 17 10  1  0
 18 17  2  0
 19 17  1  0
 20 19  1  0
 20 21  1  1
 22 21  1  0
 23 22  2  0
 24 23  1  0
 25 26  1  0
 25 24  2  0
 26 27  2  0
 27 22  1  0
 28 20  1  0
 29 28  1  0
 30 28  2  0
M  END
$$$$
