NHF.pdb
     RDKit          3D

 30 31  0  0  1  0  0  0  0  0999 V2000
    9.1230  -12.9971   16.8492 N   0  0  0  0  0  0  0  0  0  0  0  0
    7.8442  -13.4881   17.1160 C   0  0  0  0  0  0  0  0  0  0  0  0
    6.9616  -13.4400   16.2196 O   0  0  0  0  0  0  0  0  0  0  0  0
    7.4242  -14.0804   18.4083 C   0  0  0  0  0  0  0  0  0  0  0  0
    8.4255  -13.8707   19.4982 C   0  0  2  0  0  0  0  0  0  0  0  0
    9.7793  -14.1393   19.0373 N   0  0  0  0  0  0  0  0  0  0  0  0
    8.1253  -14.7720   20.6289 C   0  0  0  0  0  0  0  0  0  0  0  0
    6.9894  -14.7507   21.2157 O   0  0  0  0  0  0  0  0  0  0  0  0
    9.0422  -15.7128   21.1490 N   0  0  0  0  0  0  0  0  0  0  0  0
    8.6921  -16.7315   22.1426 C   0  0  1  0  0  0  0  0  0  0  0  0
    9.2357  -18.0594   21.7768 C   0  0  0  0  0  0  0  0  0  0  0  0
    8.5289  -18.6375   20.6247 C   0  0  0  0  0  0  0  0  0  0  0  0
    7.1491  -18.9595   20.6286 C   0  0  0  0  0  0  0  0  0  0  0  0
    6.7986  -19.4684   19.4382 N   0  0  0  0  0  0  0  0  0  0  0  0
    7.8947  -19.4850   18.6753 C   0  0  0  0  0  0  0  0  0  0  0  0
    8.8973  -18.9941   19.3889 N   0  0  0  0  0  0  0  0  0  0  0  0
    9.1171  -16.2155   23.4652 C   0  0  0  0  0  0  0  0  0  0  0  0
   10.2800  -15.8439   23.7252 O   0  0  0  0  0  0  0  0  0  0  0  0
    8.1459  -16.1325   24.5176 N   0  0  0  0  0  0  0  0  0  0  0  0
    8.5028  -15.7311   25.8691 C   0  0  1  0  0  0  0  0  0  0  0  0
    7.2853  -15.1928   26.5901 C   0  0  0  0  0  0  0  0  0  0  0  0
    7.0945  -13.7453   26.3591 C   0  0  0  0  0  0  0  0  0  0  0  0
    8.1006  -12.9753   25.8213 C   0  0  0  0  0  0  0  0  0  0  0  0
    7.9380  -11.6250   25.5982 C   0  0  0  0  0  0  0  0  0  0  0  0
    6.7530  -11.0067   25.9111 C   0  0  0  0  0  0  0  0  0  0  0  0
    5.7318  -11.7597   26.4510 C   0  0  0  0  0  0  0  0  0  0  0  0
    5.9073  -13.1195   26.6714 C   0  0  0  0  0  0  0  0  0  0  0  0
    9.1261  -16.8590   26.5668 C   0  0  0  0  0  0  0  0  0  0  0  0
    9.9613  -16.6839   27.6603 O   0  0  0  0  0  0  0  0  0  0  0  0
    8.9089  -18.0282   26.1766 O   0  0  0  0  0  0  0  0  0  0  0  0
  2  1  1  0
  3  2  2  0
  4  2  1  0
  4  5  1  0
  5  6  1  6
  7  5  1  0
  7  8  2  0
  9  7  1  0
 10  9  1  0
 10 11  1  6
 12 11  1  0
 12 13  2  0
 14 13  1  0
 15 16  2  0
 15 14  1  0
 16 12  1  0
 17 10  1  0
 18 17  2  0
 19 17  1  0
 20 19  1  0
 20 21  1  1
 22 21  1  0
 23 22  2  0
 24 23  1  0
 25 26  1  0
 25 24  2  0
 26 27  2  0
 27 22  1  0
 28 20  1  0
 29 28  1  0
 30 28  2  0
M  END
$$$$
