NHF.pdb
     RDKit          3D

 30 31  0  0  1  0  0  0  0  0999 V2000
   13.7003  -13.9316   18.2620 N   0  0  0  0  0  0  0  0  0  0  0  0
   12.5832  -14.6449   17.8248 C   0  0  0  0  0  0  0  0  0  0  0  0
   12.3967  -14.8106   16.5909 O   0  0  0  0  0  0  0  0  0  0  0  0
   11.5647  -15.2430   18.7204 C   0  0  0  0  0  0  0  0  0  0  0  0
   11.8409  -14.9903   20.1676 C   0  0  2  0  0  0  0  0  0  0  0  0
   13.1016  -15.5872   20.5819 N   0  0  0  0  0  0  0  0  0  0  0  0
   10.7556  -15.5645   20.9883 C   0  0  0  0  0  0  0  0  0  0  0  0
    9.5380  -15.2087   20.8277 O   0  0  0  0  0  0  0  0  0  0  0  0
   10.9610  -16.5323   21.9970 N   0  0  0  0  0  0  0  0  0  0  0  0
    9.8933  -17.0640   22.8484 C   0  0  1  0  0  0  0  0  0  0  0  0
    9.8231  -18.5414   22.7764 C   0  0  0  0  0  0  0  0  0  0  0  0
    9.3894  -19.0009   21.4491 C   0  0  0  0  0  0  0  0  0  0  0  0
    8.0506  -18.9308   20.9907 C   0  0  0  0  0  0  0  0  0  0  0  0
    7.9706  -19.4250   19.7463 N   0  0  0  0  0  0  0  0  0  0  0  0
    9.2000  -19.8072   19.3912 C   0  0  0  0  0  0  0  0  0  0  0  0
   10.0165  -19.5502   20.4026 N   0  0  0  0  0  0  0  0  0  0  0  0
   10.0980  -16.5049   24.2055 C   0  0  0  0  0  0  0  0  0  0  0  0
   11.1957  -16.0846   24.6256 O   0  0  0  0  0  0  0  0  0  0  0  0
    8.9782  -16.4366   25.0994 N   0  0  0  0  0  0  0  0  0  0  0  0
    9.1227  -16.0383   26.4907 C   0  0  1  0  0  0  0  0  0  0  0  0
    7.7980  -15.5418   27.0294 C   0  0  0  0  0  0  0  0  0  0  0  0
    7.4651  -14.1897   26.5332 C   0  0  0  0  0  0  0  0  0  0  0  0
    8.3186  -13.1298   26.7391 C   0  0  0  0  0  0  0  0  0  0  0  0
    8.0238  -11.8637   26.2813 C   0  0  0  0  0  0  0  0  0  0  0  0
    6.8562  -11.6255   25.5999 C   0  0  0  0  0  0  0  0  0  0  0  0
    5.9868  -12.6735   25.3827 C   0  0  0  0  0  0  0  0  0  0  0  0
    6.2946  -13.9450   25.8487 C   0  0  0  0  0  0  0  0  0  0  0  0
    9.6709  -17.1548   27.2656 C   0  0  0  0  0  0  0  0  0  0  0  0
   10.3499  -16.9651   28.4601 O   0  0  0  0  0  0  0  0  0  0  0  0
    9.5312  -18.3274   26.8507 O   0  0  0  0  0  0  0  0  0  0  0  0
  2  1  1  0
  3  2  2  0
  4  2  1  0
  4  5  1  0
  5  6  1  1
  7  5  1  0
  7  8  2  0
  9  7  1  0
 10  9  1  0
 10 11  1  1
 12 11  1  0
 12 13  2  0
 14 13  1  0
 15 16  2  0
 15 14  1  0
 16 12  1  0
 17 10  1  0
 18 17  2  0
 19 17  1  0
 20 19  1  0
 20 21  1  1
 22 21  1  0
 23 22  2  0
 24 23  1  0
 25 26  1  0
 25 24  2  0
 26 27  2  0
 27 22  1  0
 28 20  1  0
 29 28  1  0
 30 28  2  0
M  END
$$$$
