NHF.pdb
     RDKit          3D

 30 31  0  0  1  0  0  0  0  0999 V2000
    7.5068  -14.1318   16.2409 N   0  0  0  0  0  0  0  0  0  0  0  0
    8.2450  -13.5797   17.2887 C   0  0  0  0  0  0  0  0  0  0  0  0
    9.3320  -12.9949   17.0412 O   0  0  0  0  0  0  0  0  0  0  0  0
    7.8439  -13.6259   18.7149 C   0  0  0  0  0  0  0  0  0  0  0  0
    8.9589  -14.0395   19.6206 C   0  0  2  0  0  0  0  0  0  0  0  0
    9.9214  -14.8843   18.9300 N   0  0  0  0  0  0  0  0  0  0  0  0
    8.4132  -14.7893   20.7701 C   0  0  0  0  0  0  0  0  0  0  0  0
    7.3931  -14.3697   21.4169 O   0  0  0  0  0  0  0  0  0  0  0  0
    8.9557  -16.0046   21.2445 N   0  0  0  0  0  0  0  0  0  0  0  0
    8.3868  -16.7752   22.3536 C   0  0  1  0  0  0  0  0  0  0  0  0
    8.4838  -18.2328   22.1110 C   0  0  0  0  0  0  0  0  0  0  0  0
    7.6032  -18.6612   21.0147 C   0  0  0  0  0  0  0  0  0  0  0  0
    6.1911  -18.5507   21.0505 C   0  0  0  0  0  0  0  0  0  0  0  0
    5.6698  -19.0239   19.9088 N   0  0  0  0  0  0  0  0  0  0  0  0
    6.6879  -19.4313   19.1465 C   0  0  0  0  0  0  0  0  0  0  0  0
    7.8118  -19.2101   19.8125 N   0  0  0  0  0  0  0  0  0  0  0  0
    9.0354  -16.2953   23.5966 C   0  0  0  0  0  0  0  0  0  0  0  0
   10.2570  -16.0593   23.6965 O   0  0  0  0  0  0  0  0  0  0  0  0
    8.2243  -16.0851   24.7609 N   0  0  0  0  0  0  0  0  0  0  0  0
    8.7800  -15.5935   26.0118 C   0  0  1  0  0  0  0  0  0  0  0  0
    7.6735  -15.0669   26.9007 C   0  0  0  0  0  0  0  0  0  0  0  0
    7.1366  -13.7768   26.4186 C   0  0  0  0  0  0  0  0  0  0  0  0
    7.9433  -12.8744   25.7633 C   0  0  0  0  0  0  0  0  0  0  0  0
    7.4577  -11.6684   25.3061 C   0  0  0  0  0  0  0  0  0  0  0  0
    6.1401  -11.3329   25.4956 C   0  0  0  0  0  0  0  0  0  0  0  0
    5.3144  -12.2226   26.1498 C   0  0  0  0  0  0  0  0  0  0  0  0
    5.8151  -13.4349   26.6061 C   0  0  0  0  0  0  0  0  0  0  0  0
    9.5671  -16.6531   26.6484 C   0  0  0  0  0  0  0  0  0  0  0  0
   10.4977  -16.3896   27.6425 O   0  0  0  0  0  0  0  0  0  0  0  0
    9.4074  -17.8434   26.2956 O   0  0  0  0  0  0  0  0  0  0  0  0
  2  1  1  0
  3  2  2  0
  4  2  1  0
  4  5  1  0
  5  6  1  6
  7  5  1  0
  7  8  2  0
  9  7  1  0
 10  9  1  0
 10 11  1  6
 12 11  1  0
 12 13  2  0
 14 13  1  0
 15 16  2  0
 15 14  1  0
 16 12  1  0
 17 10  1  0
 18 17  2  0
 19 17  1  0
 20 19  1  0
 20 21  1  1
 22 21  1  0
 23 22  2  0
 24 23  1  0
 25 26  1  0
 25 24  2  0
 26 27  2  0
 27 22  1  0
 28 20  1  0
 29 28  1  0
 30 28  2  0
M  END
$$$$
