NHF.pdb
     RDKit          3D

 30 31  0  0  1  0  0  0  0  0999 V2000
    8.3335  -12.2340   17.3857 N   0  0  0  0  0  0  0  0  0  0  0  0
    7.8525  -13.5345   17.5440 C   0  0  0  0  0  0  0  0  0  0  0  0
    7.7897  -14.2986   16.5454 O   0  0  0  0  0  0  0  0  0  0  0  0
    7.3942  -14.1102   18.8307 C   0  0  0  0  0  0  0  0  0  0  0  0
    8.4266  -14.0238   19.9083 C   0  0  2  0  0  0  0  0  0  0  0  0
    9.7392  -14.4215   19.4222 N   0  0  0  0  0  0  0  0  0  0  0  0
    8.0509  -14.9097   21.0286 C   0  0  0  0  0  0  0  0  0  0  0  0
    6.9395  -14.7705   21.6454 O   0  0  0  0  0  0  0  0  0  0  0  0
    8.8645  -15.9617   21.5057 N   0  0  0  0  0  0  0  0  0  0  0  0
    8.4991  -16.8336   22.6254 C   0  0  1  0  0  0  0  0  0  0  0  0
    8.8557  -18.2454   22.3560 C   0  0  0  0  0  0  0  0  0  0  0  0
    7.9744  -18.8450   21.3437 C   0  0  0  0  0  0  0  0  0  0  0  0
    6.6352  -18.4371   21.1252 C   0  0  0  0  0  0  0  0  0  0  0  0
    6.0931  -19.1687   20.1403 N   0  0  0  0  0  0  0  0  0  0  0  0
    7.0281  -20.0253   19.7214 C   0  0  0  0  0  0  0  0  0  0  0  0
    8.1226  -19.8194   20.4390 N   0  0  0  0  0  0  0  0  0  0  0  0
    9.1012  -16.2503   23.8474 C   0  0  0  0  0  0  0  0  0  0  0  0
   10.2472  -15.7577   23.8903 O   0  0  0  0  0  0  0  0  0  0  0  0
    8.3335  -16.2444   25.0592 N   0  0  0  0  0  0  0  0  0  0  0  0
    8.8733  -15.7453   26.3140 C   0  0  1  0  0  0  0  0  0  0  0  0
    7.7803  -15.0774   27.1209 C   0  0  0  0  0  0  0  0  0  0  0  0
    7.3897  -13.7686   26.5557 C   0  0  0  0  0  0  0  0  0  0  0  0
    8.2798  -12.7195   26.5176 C   0  0  0  0  0  0  0  0  0  0  0  0
    7.9317  -11.4937   25.9924 C   0  0  0  0  0  0  0  0  0  0  0  0
    6.6720  -11.2863   25.4876 C   0  0  0  0  0  0  0  0  0  0  0  0
    5.7646  -12.3242   25.5159 C   0  0  0  0  0  0  0  0  0  0  0  0
    6.1268  -13.5548   26.0478 C   0  0  0  0  0  0  0  0  0  0  0  0
    9.5271  -16.8400   27.0361 C   0  0  0  0  0  0  0  0  0  0  0  0
    9.4934  -18.1508   26.5837 O   0  0  0  0  0  0  0  0  0  0  0  0
   10.1422  -16.6030   28.1002 O   0  0  0  0  0  0  0  0  0  0  0  0
  2  1  1  0
  3  2  2  0
  4  2  1  0
  4  5  1  0
  5  6  1  6
  7  5  1  0
  7  8  2  0
  9  7  1  0
 10  9  1  0
 10 11  1  6
 12 11  1  0
 12 13  2  0
 14 13  1  0
 15 16  2  0
 15 14  1  0
 16 12  1  0
 17 10  1  0
 18 17  2  0
 19 17  1  0
 20 19  1  0
 20 21  1  1
 22 21  1  0
 23 22  2  0
 24 23  1  0
 25 26  1  0
 25 24  2  0
 26 27  2  0
 27 22  1  0
 28 20  1  0
 29 28  1  0
 30 28  2  0
M  END
$$$$
