NHF.pdb
     RDKit          3D

 30 31  0  0  1  0  0  0  0  0999 V2000
    9.5089  -13.1100   16.6310 N   0  0  0  0  0  0  0  0  0  0  0  0
    8.2481  -13.7078   16.6602 C   0  0  0  0  0  0  0  0  0  0  0  0
    7.6351  -13.9161   15.5805 O   0  0  0  0  0  0  0  0  0  0  0  0
    7.5474  -14.1315   17.8957 C   0  0  0  0  0  0  0  0  0  0  0  0
    8.3397  -13.8658   19.1352 C   0  0  2  0  0  0  0  0  0  0  0  0
    9.7487  -14.1745   18.9437 N   0  0  0  0  0  0  0  0  0  0  0  0
    7.8222  -14.6943   20.2428 C   0  0  0  0  0  0  0  0  0  0  0  0
    6.5911  -14.6555   20.5864 O   0  0  0  0  0  0  0  0  0  0  0  0
    8.6202  -15.5798   21.0012 N   0  0  0  0  0  0  0  0  0  0  0  0
    8.0878  -16.4968   22.0127 C   0  0  1  0  0  0  0  0  0  0  0  0
    8.2714  -17.9118   21.6165 C   0  0  0  0  0  0  0  0  0  0  0  0
    7.8408  -18.8336   22.6777 C   0  0  0  0  0  0  0  0  0  0  0  0
    8.7355  -19.5092   23.5440 C   0  0  0  0  0  0  0  0  0  0  0  0
    8.0451  -20.2757   24.4012 N   0  0  0  0  0  0  0  0  0  0  0  0
    6.7492  -20.1183   24.1193 C   0  0  0  0  0  0  0  0  0  0  0  0
    6.6509  -19.2696   23.1067 N   0  0  0  0  0  0  0  0  0  0  0  0
    8.6970  -16.1179   23.3094 C   0  0  0  0  0  0  0  0  0  0  0  0
    9.8820  -15.7474   23.4386 O   0  0  0  0  0  0  0  0  0  0  0  0
    7.8896  -16.1752   24.4937 N   0  0  0  0  0  0  0  0  0  0  0  0
    8.4326  -15.8967   25.8138 C   0  0  1  0  0  0  0  0  0  0  0  0
    7.3568  -15.3155   26.7063 C   0  0  0  0  0  0  0  0  0  0  0  0
    7.1637  -13.8679   26.4776 C   0  0  0  0  0  0  0  0  0  0  0  0
    5.9127  -13.3510   26.2283 C   0  0  0  0  0  0  0  0  0  0  0  0
    5.7157  -12.0038   26.0148 C   0  0  0  0  0  0  0  0  0  0  0  0
    6.7763  -11.1328   26.0459 C   0  0  0  0  0  0  0  0  0  0  0  0
    8.0384  -11.6298   26.2940 C   0  0  0  0  0  0  0  0  0  0  0  0
    8.2246  -12.9893   26.5076 C   0  0  0  0  0  0  0  0  0  0  0  0
    9.0329  -17.1151   26.3638 C   0  0  0  0  0  0  0  0  0  0  0  0
   10.0139  -17.0808   27.3438 O   0  0  0  0  0  0  0  0  0  0  0  0
    8.6599  -18.2348   25.9470 O   0  0  0  0  0  0  0  0  0  0  0  0
  2  1  1  0
  3  2  2  0
  4  2  1  0
  4  5  1  0
  5  6  1  6
  7  5  1  0
  7  8  2  0
  9  7  1  0
 10  9  1  0
 10 11  1  6
 12 11  1  0
 12 13  2  0
 14 13  1  0
 15 16  2  0
 15 14  1  0
 16 12  1  0
 17 10  1  0
 18 17  2  0
 19 17  1  0
 20 19  1  0
 20 21  1  1
 22 21  1  0
 23 22  2  0
 24 23  1  0
 25 26  1  0
 25 24  2  0
 26 27  2  0
 27 22  1  0
 28 20  1  0
 29 28  1  0
 30 28  2  0
M  END
$$$$
