NHF.pdb
     RDKit          3D

 30 31  0  0  1  0  0  0  0  0999 V2000
    6.8884  -20.1450   17.4000 N   0  0  0  0  0  0  0  0  0  0  0  0
    7.5978  -20.1810   18.6013 C   0  0  0  0  0  0  0  0  0  0  0  0
    7.5176  -21.1981   19.3389 O   0  0  0  0  0  0  0  0  0  0  0  0
    8.4657  -19.0868   19.0980 C   0  0  0  0  0  0  0  0  0  0  0  0
    8.2900  -18.8212   20.5585 C   0  0  2  0  0  0  0  0  0  0  0  0
    6.8828  -18.7454   20.9211 N   0  0  0  0  0  0  0  0  0  0  0  0
    8.9373  -17.5417   20.9122 C   0  0  0  0  0  0  0  0  0  0  0  0
   10.1705  -17.3240   20.6537 O   0  0  0  0  0  0  0  0  0  0  0  0
    8.2691  -16.4731   21.5507 N   0  0  0  0  0  0  0  0  0  0  0  0
    8.8891  -15.1765   21.8372 C   0  0  1  0  0  0  0  0  0  0  0  0
    8.0618  -14.0543   21.3384 C   0  0  0  0  0  0  0  0  0  0  0  0
    8.2049  -13.8772   19.8861 C   0  0  0  0  0  0  0  0  0  0  0  0
    9.0775  -14.6505   19.0811 C   0  0  0  0  0  0  0  0  0  0  0  0
    8.9858  -14.2547   17.8029 N   0  0  0  0  0  0  0  0  0  0  0  0
    8.0927  -13.2628   17.7576 C   0  0  0  0  0  0  0  0  0  0  0  0
    7.6470  -13.0570   18.9882 N   0  0  0  0  0  0  0  0  0  0  0  0
    9.1883  -15.1469   23.2884 C   0  0  0  0  0  0  0  0  0  0  0  0
    9.9929  -14.3517   23.8159 O   0  0  0  0  0  0  0  0  0  0  0  0
    8.5216  -16.0807   24.1492 N   0  0  0  0  0  0  0  0  0  0  0  0
    8.6853  -16.0533   25.5941 C   0  0  1  0  0  0  0  0  0  0  0  0
    7.3645  -15.7330   26.2609 C   0  0  0  0  0  0  0  0  0  0  0  0
    7.1973  -14.2841   26.5009 C   0  0  0  0  0  0  0  0  0  0  0  0
    8.2819  -13.4815   26.7731 C   0  0  0  0  0  0  0  0  0  0  0  0
    8.1430  -12.1288   26.9974 C   0  0  0  0  0  0  0  0  0  0  0  0
    6.9033  -11.5408   26.9544 C   0  0  0  0  0  0  0  0  0  0  0  0
    5.8032  -12.3267   26.6833 C   0  0  0  0  0  0  0  0  0  0  0  0
    5.9554  -13.6887   26.4590 C   0  0  0  0  0  0  0  0  0  0  0  0
    9.2590  -17.3236   26.0464 C   0  0  0  0  0  0  0  0  0  0  0  0
    9.8548  -17.4664   27.2908 O   0  0  0  0  0  0  0  0  0  0  0  0
    9.2193  -18.3255   25.2972 O   0  0  0  0  0  0  0  0  0  0  0  0
  2  1  1  0
  3  2  2  0
  4  2  1  0
  4  5  1  0
  5  6  1  6
  7  5  1  0
  7  8  2  0
  9  7  1  0
 10  9  1  0
 10 11  1  1
 12 11  1  0
 12 13  2  0
 14 13  1  0
 15 16  2  0
 15 14  1  0
 16 12  1  0
 17 10  1  0
 18 17  2  0
 19 17  1  0
 20 19  1  0
 20 21  1  1
 22 21  1  0
 23 22  2  0
 24 23  1  0
 25 26  1  0
 25 24  2  0
 26 27  2  0
 27 22  1  0
 28 20  1  0
 29 28  1  0
 30 28  2  0
M  END
$$$$
