NHF.pdb
     RDKit          3D

 30 31  0  0  1  0  0  0  0  0999 V2000
    9.9174  -20.7144   18.7431 N   0  0  0  0  0  0  0  0  0  0  0  0
    9.0606  -19.6130   18.7649 C   0  0  0  0  0  0  0  0  0  0  0  0
    7.8942  -19.7250   18.3046 O   0  0  0  0  0  0  0  0  0  0  0  0
    9.4204  -18.2789   19.3016 C   0  0  0  0  0  0  0  0  0  0  0  0
    9.1825  -18.1592   20.7725 C   0  0  2  0  0  0  0  0  0  0  0  0
    7.8031  -18.4689   21.1165 N   0  0  0  0  0  0  0  0  0  0  0  0
    9.4801  -16.7815   21.2134 C   0  0  0  0  0  0  0  0  0  0  0  0
   10.6301  -16.2547   21.0263 O   0  0  0  0  0  0  0  0  0  0  0  0
    8.5454  -15.9453   21.8640 N   0  0  0  0  0  0  0  0  0  0  0  0
    8.8410  -14.5808   22.3092 C   0  0  1  0  0  0  0  0  0  0  0  0
    7.9406  -13.5924   21.6728 C   0  0  0  0  0  0  0  0  0  0  0  0
    8.0373  -13.6341   20.2065 C   0  0  0  0  0  0  0  0  0  0  0  0
    6.9426  -13.9189   19.3534 C   0  0  0  0  0  0  0  0  0  0  0  0
    7.3434  -13.8841   18.0739 N   0  0  0  0  0  0  0  0  0  0  0  0
    8.6461  -13.5895   18.0739 C   0  0  0  0  0  0  0  0  0  0  0  0
    9.0333  -13.4469   19.3329 N   0  0  0  0  0  0  0  0  0  0  0  0
    8.8236  -14.5917   23.7911 C   0  0  0  0  0  0  0  0  0  0  0  0
    8.5143  -13.6046   24.4896 O   0  0  0  0  0  0  0  0  0  0  0  0
    9.1806  -15.8004   24.4761 N   0  0  0  0  0  0  0  0  0  0  0  0
    8.9568  -15.9756   25.9024 C   0  0  1  0  0  0  0  0  0  0  0  0
    7.4794  -15.8670   26.2140 C   0  0  0  0  0  0  0  0  0  0  0  0
    7.0627  -14.4709   26.4636 C   0  0  0  0  0  0  0  0  0  0  0  0
    7.8701  -13.6057   27.1664 C   0  0  0  0  0  0  0  0  0  0  0  0
    7.4969  -12.3008   27.4059 C   0  0  0  0  0  0  0  0  0  0  0  0
    6.2950  -11.8256   26.9434 C   0  0  0  0  0  0  0  0  0  0  0  0
    5.4708  -12.6758   26.2368 C   0  0  0  0  0  0  0  0  0  0  0  0
    5.8574  -13.9887   26.0017 C   0  0  0  0  0  0  0  0  0  0  0  0
    9.5391  -17.2482   26.3371 C   0  0  0  0  0  0  0  0  0  0  0  0
   10.0629  -18.1681   25.4408 O   0  0  0  0  0  0  0  0  0  0  0  0
    9.5737  -17.5320   27.5556 O   0  0  0  0  0  0  0  0  0  0  0  0
  2  1  1  0
  3  2  2  0
  4  2  1  0
  4  5  1  0
  5  6  1  6
  7  5  1  0
  7  8  2  0
  9  7  1  0
 10  9  1  0
 10 11  1  6
 12 11  1  0
 12 13  2  0
 14 13  1  0
 15 16  2  0
 15 14  1  0
 16 12  1  0
 17 10  1  0
 18 17  2  0
 19 17  1  0
 20 19  1  0
 20 21  1  6
 22 21  1  0
 23 22  2  0
 24 23  1  0
 25 26  1  0
 25 24  2  0
 26 27  2  0
 27 22  1  0
 28 20  1  0
 29 28  1  0
 30 28  2  0
M  END
$$$$
