NHF.pdb
     RDKit          3D

 30 31  0  0  1  0  0  0  0  0999 V2000
   12.9299  -19.2684   17.3141 N   0  0  0  0  0  0  0  0  0  0  0  0
   12.9556  -17.8802   17.1727 C   0  0  0  0  0  0  0  0  0  0  0  0
   13.7231  -17.3571   16.3230 O   0  0  0  0  0  0  0  0  0  0  0  0
   12.1284  -16.9394   17.9650 C   0  0  0  0  0  0  0  0  0  0  0  0
   11.5736  -17.5563   19.2085 C   0  0  2  0  0  0  0  0  0  0  0  0
   10.5422  -18.5362   18.9031 N   0  0  0  0  0  0  0  0  0  0  0  0
   10.9870  -16.5061   20.0652 C   0  0  0  0  0  0  0  0  0  0  0  0
   11.7024  -15.5637   20.5500 O   0  0  0  0  0  0  0  0  0  0  0  0
    9.6194  -16.4510   20.4159 N   0  0  0  0  0  0  0  0  0  0  0  0
    9.0399  -15.4236   21.2854 C   0  0  1  0  0  0  0  0  0  0  0  0
    7.6358  -15.1279   20.9193 C   0  0  0  0  0  0  0  0  0  0  0  0
    7.5414  -14.4901   19.5982 C   0  0  0  0  0  0  0  0  0  0  0  0
    7.7146  -13.1008   19.3809 C   0  0  0  0  0  0  0  0  0  0  0  0
    7.5689  -12.8239   18.0766 N   0  0  0  0  0  0  0  0  0  0  0  0
    7.3103  -13.9761   17.4528 C   0  0  0  0  0  0  0  0  0  0  0  0
    7.2985  -14.9399   18.3618 N   0  0  0  0  0  0  0  0  0  0  0  0
    9.2501  -15.8661   22.6841 C   0  0  0  0  0  0  0  0  0  0  0  0
    9.2607  -17.0623   23.0404 O   0  0  0  0  0  0  0  0  0  0  0  0
    9.4548  -14.8725   23.6984 N   0  0  0  0  0  0  0  0  0  0  0  0
    9.5858  -15.2190   25.1047 C   0  0  1  0  0  0  0  0  0  0  0  0
   10.0020  -14.0021   25.9033 C   0  0  0  0  0  0  0  0  0  0  0  0
   10.1884  -14.3121   27.3365 C   0  0  0  0  0  0  0  0  0  0  0  0
   11.2012  -15.1448   27.7552 C   0  0  0  0  0  0  0  0  0  0  0  0
   11.3894  -15.4423   29.0876 C   0  0  0  0  0  0  0  0  0  0  0  0
   10.5604  -14.9083   30.0427 C   0  0  0  0  0  0  0  0  0  0  0  0
    9.5393  -14.0714   29.6450 C   0  0  0  0  0  0  0  0  0  0  0  0
    9.3593  -13.7790   28.2994 C   0  0  0  0  0  0  0  0  0  0  0  0
    8.3340  -15.8131   25.5817 C   0  0  0  0  0  0  0  0  0  0  0  0
    7.0941  -15.4054   25.1125 O   0  0  0  0  0  0  0  0  0  0  0  0
    8.3653  -16.7213   26.4424 O   0  0  0  0  0  0  0  0  0  0  0  0
  2  1  1  0
  3  2  2  0
  4  2  1  0
  4  5  1  0
  5  6  1  6
  7  5  1  0
  7  8  2  0
  9  7  1  0
 10  9  1  0
 10 11  1  6
 12 11  1  0
 12 13  2  0
 14 13  1  0
 15 16  2  0
 15 14  1  0
 16 12  1  0
 17 10  1  0
 18 17  2  0
 19 17  1  0
 20 19  1  0
 20 21  1  1
 22 21  1  0
 23 22  2  0
 24 23  1  0
 25 26  1  0
 25 24  2  0
 26 27  2  0
 27 22  1  0
 28 20  1  0
 29 28  1  0
 30 28  2  0
M  END
$$$$
