DIN.pdb
     RDKit          3D

 25 24  0  0  1  0  0  0  0  0999 V2000
   27.4792  -21.6638  -15.8649 N   0  0  0  0  0  0  0  0  0  0  0  0
   27.2593  -20.6639  -14.8347 C   0  0  1  0  0  0  0  0  0  0  0  0
   26.9746  -19.3068  -15.4410 C   0  0  0  0  0  0  0  0  0  0  0  0
   27.5595  -19.1852  -16.8008 C   0  0  0  0  0  0  0  0  0  0  0  0
   26.9252  -18.7942  -17.8128 O   0  0  0  0  0  0  0  0  0  0  0  0
   26.1620  -21.1311  -13.9725 C   0  0  0  0  0  0  0  0  0  0  0  0
   25.3770  -22.0766  -14.3172 O   0  0  0  0  0  0  0  0  0  0  0  0
   28.8974  -19.5290  -16.9533 O   0  0  0  0  0  0  0  0  0  0  0  0
   26.4123  -20.5019   -8.4763 C   0  0  0  0  0  0  0  0  0  0  0  0
   26.2474  -21.1681   -9.8397 C   0  0  0  0  0  0  0  0  0  0  0  0
   24.9934  -20.6451  -10.4430 C   0  0  2  0  0  0  0  0  0  0  0  0
   23.8154  -21.1689   -9.6097 C   0  0  0  0  0  0  0  0  0  0  0  0
   24.7649  -20.9753  -11.8847 C   0  0  2  0  0  0  0  0  0  0  0  0
   25.9009  -20.5610  -12.6961 N   0  0  0  0  0  0  0  0  0  0  0  0
   23.5012  -20.4118  -12.4125 C   0  0  0  0  0  0  0  0  0  0  0  0
   23.3761  -19.1425  -12.4161 O   0  0  0  0  0  0  0  0  0  0  0  0
   22.4958  -21.8109  -16.6003 N   0  0  0  0  0  0  0  0  0  0  0  0
   21.8111  -20.8062  -15.8201 C   0  0  0  0  0  0  0  0  0  0  0  0
   22.0663  -19.6288  -16.1389 O   0  0  0  0  0  0  0  0  0  0  0  0
   20.8942  -21.1884  -14.7438 C   0  0  0  0  0  0  0  0  0  0  0  0
   21.2016  -20.6344  -13.3855 C   0  0  2  0  0  0  0  0  0  0  0  0
   22.4507  -21.2075  -12.8954 N   0  0  0  0  0  0  0  0  0  0  0  0
   20.1079  -20.8514  -12.4249 C   0  0  0  0  0  0  0  0  0  0  0  0
   19.0016  -20.2956  -12.4695 O   0  0  0  0  0  0  0  0  0  0  0  0
   20.2583  -21.7475  -11.3408 O   0  0  0  0  0  0  0  0  0  0  0  0
  2  3  1  0
  2  1  1  6
  3  4  1  0
  4  5  2  0
  4  8  1  0
  6  2  1  0
  7  6  2  0
  9 10  1  0
 11 10  1  0
 11 13  1  0
 11 12  1  1
 13 15  1  0
 13 14  1  6
 14  6  1  0
 15 16  2  0
 18 17  1  0
 18 19  2  0
 21 20  1  6
 20 18  1  0
 22 21  1  0
 22 15  1  0
 23 21  1  0
 24 23  2  0
 25 23  1  0
M  END
$$$$
