DIN.pdb
     RDKit          3D

 25 24  0  0  1  0  0  0  0  0999 V2000
   24.0160  -12.9274  -20.1659 N   0  0  0  0  0  0  0  0  0  0  0  0
   22.7707  -13.0261  -19.4250 C   0  0  1  0  0  0  0  0  0  0  0  0
   22.4578  -14.4635  -19.0694 C   0  0  0  0  0  0  0  0  0  0  0  0
   22.2456  -15.2905  -20.2847 C   0  0  0  0  0  0  0  0  0  0  0  0
   21.1358  -15.4405  -20.8551 O   0  0  0  0  0  0  0  0  0  0  0  0
   22.8790  -12.1677  -18.2346 C   0  0  0  0  0  0  0  0  0  0  0  0
   22.0219  -12.1984  -17.2895 O   0  0  0  0  0  0  0  0  0  0  0  0
   23.3541  -15.9368  -20.8186 O   0  0  0  0  0  0  0  0  0  0  0  0
   27.6342  -11.0469  -15.7829 C   0  0  0  0  0  0  0  0  0  0  0  0
   26.2023  -11.4499  -16.1252 C   0  0  0  0  0  0  0  0  0  0  0  0
   25.4572  -10.2076  -16.4594 C   0  0  2  0  0  0  0  0  0  0  0  0
   25.5103   -9.2825  -15.2356 C   0  0  0  0  0  0  0  0  0  0  0  0
   24.0331  -10.3845  -16.8843 C   0  0  2  0  0  0  0  0  0  0  0  0
   23.9462  -11.2448  -18.0558 N   0  0  0  0  0  0  0  0  0  0  0  0
   23.3363   -9.0985  -17.1165 C   0  0  0  0  0  0  0  0  0  0  0  0
   23.8493   -8.2925  -17.9614 O   0  0  0  0  0  0  0  0  0  0  0  0
   17.9573   -6.3569  -17.2327 N   0  0  0  0  0  0  0  0  0  0  0  0
   19.3899   -6.3737  -17.4175 C   0  0  0  0  0  0  0  0  0  0  0  0
   19.8881   -5.2853  -17.7642 O   0  0  0  0  0  0  0  0  0  0  0  0
   20.1595   -7.6013  -17.2026 C   0  0  0  0  0  0  0  0  0  0  0  0
   21.5321   -7.4286  -16.6259 C   0  0  2  0  0  0  0  0  0  0  0  0
   22.1559   -8.7358  -16.4495 N   0  0  0  0  0  0  0  0  0  0  0  0
   21.5246   -6.6720  -15.3636 C   0  0  0  0  0  0  0  0  0  0  0  0
   21.3379   -7.1627  -14.2414 O   0  0  0  0  0  0  0  0  0  0  0  0
   21.7382   -5.2738  -15.3517 O   0  0  0  0  0  0  0  0  0  0  0  0
  2  3  1  0
  2  1  1  1
  3  4  1  0
  4  5  2  0
  4  8  1  0
  6  2  1  0
  7  6  2  0
  9 10  1  0
 11 10  1  0
 11 13  1  0
 11 12  1  1
 13 15  1  0
 13 14  1  6
 14  6  1  0
 15 16  2  0
 18 17  1  0
 18 19  2  0
 21 20  1  1
 20 18  1  0
 22 21  1  0
 22 15  1  0
 23 21  1  0
 24 23  2  0
 25 23  1  0
M  END
$$$$
