DIN.pdb
     RDKit          3D

 25 24  0  0  1  0  0  0  0  0999 V2000
   13.2213  -11.5130  -12.4434 N   0  0  0  0  0  0  0  0  0  0  0  0
   14.5715  -11.3799  -11.9252 C   0  0  1  0  0  0  0  0  0  0  0  0
   15.5684  -12.1064  -12.8021 C   0  0  0  0  0  0  0  0  0  0  0  0
   15.3086  -13.5685  -12.8247 C   0  0  0  0  0  0  0  0  0  0  0  0
   15.4077  -14.3215  -11.8234 O   0  0  0  0  0  0  0  0  0  0  0  0
   14.8749   -9.9448  -11.8061 C   0  0  0  0  0  0  0  0  0  0  0  0
   14.3405   -9.0680  -12.5641 O   0  0  0  0  0  0  0  0  0  0  0  0
   14.9315  -14.1312  -14.0382 O   0  0  0  0  0  0  0  0  0  0  0  0
   14.1490   -6.9381   -7.6493 C   0  0  0  0  0  0  0  0  0  0  0  0
   14.2881   -7.4521   -9.0798 C   0  0  0  0  0  0  0  0  0  0  0  0
   15.7381   -7.4725   -9.4073 C   0  0  2  0  0  0  0  0  0  0  0  0
   16.2702   -6.0382   -9.2800 C   0  0  0  0  0  0  0  0  0  0  0  0
   16.1050   -8.0187  -10.7514 C   0  0  2  0  0  0  0  0  0  0  0  0
   15.7846   -9.4365  -10.8383 N   0  0  0  0  0  0  0  0  0  0  0  0
   17.5209   -7.7712  -11.1080 C   0  0  0  0  0  0  0  0  0  0  0  0
   18.4091   -8.4771  -10.5255 O   0  0  0  0  0  0  0  0  0  0  0  0
   22.0897   -8.3478  -13.3067 N   0  0  0  0  0  0  0  0  0  0  0  0
   20.8533   -8.0904  -14.0080 C   0  0  0  0  0  0  0  0  0  0  0  0
   20.9710   -7.9243  -15.2375 O   0  0  0  0  0  0  0  0  0  0  0  0
   19.5793   -8.0371  -13.2873 C   0  0  0  0  0  0  0  0  0  0  0  0
   19.2707   -6.7499  -12.5844 C   0  0  2  0  0  0  0  0  0  0  0  0
   17.9170   -6.8016  -12.0423 N   0  0  0  0  0  0  0  0  0  0  0  0
   19.4479   -5.5745  -13.4521 C   0  0  0  0  0  0  0  0  0  0  0  0
   18.5782   -5.1041  -14.1986 O   0  0  0  0  0  0  0  0  0  0  0  0
   20.6781   -4.8774  -13.4912 O   0  0  0  0  0  0  0  0  0  0  0  0
  2  3  1  0
  2  1  1  6
  3  4  1  0
  4  5  2  0
  4  8  1  0
  6  2  1  0
  7  6  2  0
  9 10  1  0
 11 10  1  0
 11 13  1  0
 11 12  1  6
 13 15  1  0
 13 14  1  1
 14  6  1  0
 15 16  2  0
 18 17  1  0
 18 19  2  0
 21 20  1  6
 20 18  1  0
 22 21  1  0
 22 15  1  0
 23 21  1  0
 24 23  2  0
 25 23  1  0
M  END
$$$$
