DIN.pdb
     RDKit          3D

 25 24  0  0  1  0  0  0  0  0999 V2000
   20.8867  -20.8095  -11.7785 N   0  0  0  0  0  0  0  0  0  0  0  0
   21.4410  -21.2206  -13.0564 C   0  0  1  0  0  0  0  0  0  0  0  0
   20.4284  -21.0596  -14.1696 C   0  0  0  0  0  0  0  0  0  0  0  0
   19.2053  -21.8619  -13.9122 C   0  0  0  0  0  0  0  0  0  0  0  0
   18.0437  -21.3855  -13.8567 O   0  0  0  0  0  0  0  0  0  0  0  0
   22.6634  -20.4371  -13.2964 C   0  0  0  0  0  0  0  0  0  0  0  0
   22.6927  -19.1657  -13.1883 O   0  0  0  0  0  0  0  0  0  0  0  0
   19.3671  -23.2291  -13.7218 O   0  0  0  0  0  0  0  0  0  0  0  0
   27.2516  -21.7236  -10.9799 C   0  0  0  0  0  0  0  0  0  0  0  0
   26.0255  -21.0246  -11.5611 C   0  0  0  0  0  0  0  0  0  0  0  0
   26.2368  -20.8992  -13.0273 C   0  0  2  0  0  0  0  0  0  0  0  0
   27.5265  -20.0971  -13.2507 C   0  0  0  0  0  0  0  0  0  0  0  0
   25.1229  -20.2711  -13.8048 C   0  0  2  0  0  0  0  0  0  0  0  0
   23.8960  -21.0429  -13.6655 N   0  0  0  0  0  0  0  0  0  0  0  0
   25.4608  -20.0633  -15.2317 C   0  0  0  0  0  0  0  0  0  0  0  0
   25.6448  -21.0993  -15.9524 O   0  0  0  0  0  0  0  0  0  0  0  0
   26.0877  -15.9386  -19.5477 N   0  0  0  0  0  0  0  0  0  0  0  0
   25.3652  -17.1353  -19.1831 C   0  0  0  0  0  0  0  0  0  0  0  0
   24.9822  -17.8313  -20.1432 O   0  0  0  0  0  0  0  0  0  0  0  0
   25.1235  -17.4664  -17.7769 C   0  0  0  0  0  0  0  0  0  0  0  0
   25.9202  -18.6071  -17.2199 C   0  0  2  0  0  0  0  0  0  0  0  0
   25.5903  -18.7913  -15.8106 N   0  0  0  0  0  0  0  0  0  0  0  0
   27.3694  -18.4286  -17.4044 C   0  0  0  0  0  0  0  0  0  0  0  0
   28.0920  -17.7068  -16.7032 O   0  0  0  0  0  0  0  0  0  0  0  0
   28.0592  -19.0991  -18.4415 O   0  0  0  0  0  0  0  0  0  0  0  0
  2  3  1  0
  2  1  1  1
  3  4  1  0
  4  5  2  0
  4  8  1  0
  6  2  1  0
  7  6  2  0
  9 10  1  0
 11 10  1  0
 11 13  1  0
 11 12  1  1
 13 15  1  0
 13 14  1  6
 14  6  1  0
 15 16  2  0
 18 17  1  0
 18 19  2  0
 21 20  1  1
 20 18  1  0
 22 21  1  0
 22 15  1  0
 23 21  1  0
 24 23  2  0
 25 23  1  0
M  END
$$$$
