DIN.pdb
     RDKit          3D

 25 24  0  0  1  0  0  0  0  0999 V2000
   20.1665  -21.1246  -11.3122 N   0  0  0  0  0  0  0  0  0  0  0  0
   20.7279  -21.2287  -12.6476 C   0  0  1  0  0  0  0  0  0  0  0  0
   19.7916  -20.6425  -13.6822 C   0  0  0  0  0  0  0  0  0  0  0  0
   18.5457  -21.4419  -13.8030 C   0  0  0  0  0  0  0  0  0  0  0  0
   18.3849  -22.5837  -13.3030 O   0  0  0  0  0  0  0  0  0  0  0  0
   22.0410  -20.5643  -12.6433 C   0  0  0  0  0  0  0  0  0  0  0  0
   22.2623  -19.4918  -11.9877 O   0  0  0  0  0  0  0  0  0  0  0  0
   17.4942  -20.8810  -14.5180 O   0  0  0  0  0  0  0  0  0  0  0  0
   27.4035  -21.4585  -11.0663 C   0  0  0  0  0  0  0  0  0  0  0  0
   26.6831  -20.5696  -12.0766 C   0  0  0  0  0  0  0  0  0  0  0  0
   25.3459  -21.1698  -12.3249 C   0  0  2  0  0  0  0  0  0  0  0  0
   25.5585  -22.6127  -12.8039 C   0  0  0  0  0  0  0  0  0  0  0  0
   24.4682  -20.4494  -13.2998 C   0  0  2  0  0  0  0  0  0  0  0  0
   23.1535  -21.0717  -13.3696 N   0  0  0  0  0  0  0  0  0  0  0  0
   25.0739  -20.3347  -14.6463 C   0  0  0  0  0  0  0  0  0  0  0  0
   25.0388  -21.3632  -15.3996 O   0  0  0  0  0  0  0  0  0  0  0  0
   27.4806  -18.4461  -18.9731 N   0  0  0  0  0  0  0  0  0  0  0  0
   27.5624  -17.4751  -17.9065 C   0  0  0  0  0  0  0  0  0  0  0  0
   28.2062  -16.4444  -18.1822 O   0  0  0  0  0  0  0  0  0  0  0  0
   26.9213  -17.7254  -16.6136 C   0  0  0  0  0  0  0  0  0  0  0  0
   26.2731  -19.0663  -16.4456 C   0  0  2  0  0  0  0  0  0  0  0  0
   25.6804  -19.1592  -15.1155 N   0  0  0  0  0  0  0  0  0  0  0  0
   27.2045  -20.1796  -16.6881 C   0  0  0  0  0  0  0  0  0  0  0  0
   28.1938  -20.4439  -15.9906 O   0  0  0  0  0  0  0  0  0  0  0  0
   27.0215  -21.0566  -17.7827 O   0  0  0  0  0  0  0  0  0  0  0  0
  2  3  1  0
  2  1  1  1
  3  4  1  0
  4  5  2  0
  4  8  1  0
  6  2  1  0
  7  6  2  0
  9 10  1  0
 11 10  1  0
 11 13  1  0
 11 12  1  6
 13 15  1  0
 13 14  1  6
 14  6  1  0
 15 16  2  0
 18 17  1  0
 18 19  2  0
 21 20  1  1
 20 18  1  0
 22 21  1  0
 22 15  1  0
 23 21  1  0
 24 23  2  0
 25 23  1  0
M  END
$$$$
