DIN.pdb
     RDKit          3D

 25 24  0  0  1  0  0  0  0  0999 V2000
   12.6706  -10.9344  -11.6953 N   0  0  0  0  0  0  0  0  0  0  0  0
   14.0854  -10.8446  -11.3796 C   0  0  1  0  0  0  0  0  0  0  0  0
   14.9171  -11.6403  -12.3622 C   0  0  0  0  0  0  0  0  0  0  0  0
   14.6695  -13.0985  -12.2285 C   0  0  0  0  0  0  0  0  0  0  0  0
   13.8313  -13.6058  -11.4413 O   0  0  0  0  0  0  0  0  0  0  0  0
   14.4581   -9.4211  -11.3573 C   0  0  0  0  0  0  0  0  0  0  0  0
   14.0351   -8.5900  -12.2288 O   0  0  0  0  0  0  0  0  0  0  0  0
   15.4193  -13.9497  -13.0315 O   0  0  0  0  0  0  0  0  0  0  0  0
   14.4894   -4.5597   -9.4359 C   0  0  0  0  0  0  0  0  0  0  0  0
   15.6357   -5.3985   -8.8770 C   0  0  0  0  0  0  0  0  0  0  0  0
   15.2682   -6.8284   -9.0514 C   0  0  2  0  0  0  0  0  0  0  0  0
   15.8815   -7.6180   -7.8865 C   0  0  0  0  0  0  0  0  0  0  0  0
   15.6723   -7.4622  -10.3455 C   0  0  2  0  0  0  0  0  0  0  0  0
   15.3155   -8.8738  -10.3633 N   0  0  0  0  0  0  0  0  0  0  0  0
   17.1076   -7.2729  -10.6573 C   0  0  0  0  0  0  0  0  0  0  0  0
   17.9519   -7.9651   -9.9980 O   0  0  0  0  0  0  0  0  0  0  0  0
   21.6631   -6.4246  -12.9801 N   0  0  0  0  0  0  0  0  0  0  0  0
   20.8606   -7.6253  -12.9454 C   0  0  0  0  0  0  0  0  0  0  0  0
   21.4218   -8.6457  -13.3891 O   0  0  0  0  0  0  0  0  0  0  0  0
   19.4938   -7.5990  -12.4195 C   0  0  0  0  0  0  0  0  0  0  0  0
   18.9789   -6.2608  -11.9834 C   0  0  2  0  0  0  0  0  0  0  0  0
   17.5676   -6.3718  -11.6301 N   0  0  0  0  0  0  0  0  0  0  0  0
   19.1891   -5.2154  -12.9977 C   0  0  0  0  0  0  0  0  0  0  0  0
   18.3375   -4.8338  -13.8127 O   0  0  0  0  0  0  0  0  0  0  0  0
   20.4330   -4.5517  -13.1122 O   0  0  0  0  0  0  0  0  0  0  0  0
  2  3  1  0
  2  1  1  6
  3  4  1  0
  4  5  2  0
  4  8  1  0
  6  2  1  0
  7  6  2  0
  9 10  1  0
 11 10  1  0
 11 13  1  0
 11 12  1  1
 13 15  1  0
 13 14  1  1
 14  6  1  0
 15 16  2  0
 18 17  1  0
 18 19  2  0
 21 20  1  6
 20 18  1  0
 22 21  1  0
 22 15  1  0
 23 21  1  0
 24 23  2  0
 25 23  1  0
M  END
$$$$
