DIN.pdb
     RDKit          3D

 25 24  0  0  1  0  0  0  0  0999 V2000
   20.5670  -13.9016  -16.9448 N   0  0  0  0  0  0  0  0  0  0  0  0
   20.5601  -12.4944  -17.3042 C   0  0  1  0  0  0  0  0  0  0  0  0
   19.1575  -12.0139  -17.6079 C   0  0  0  0  0  0  0  0  0  0  0  0
   18.5648  -12.7538  -18.7511 C   0  0  0  0  0  0  0  0  0  0  0  0
   19.1074  -12.8686  -19.8789 O   0  0  0  0  0  0  0  0  0  0  0  0
   21.1826  -11.7399  -16.2047 C   0  0  0  0  0  0  0  0  0  0  0  0
   20.8091  -11.8673  -14.9909 O   0  0  0  0  0  0  0  0  0  0  0  0
   17.3283  -13.3556  -18.5500 O   0  0  0  0  0  0  0  0  0  0  0  0
   26.5591  -10.6029  -15.8665 C   0  0  0  0  0  0  0  0  0  0  0  0
   25.1561  -10.1772  -16.2908 C   0  0  0  0  0  0  0  0  0  0  0  0
   24.2555  -10.3856  -15.1265 C   0  0  2  0  0  0  0  0  0  0  0  0
   24.3633  -11.8578  -14.7050 C   0  0  0  0  0  0  0  0  0  0  0  0
   22.8154  -10.0344  -15.3328 C   0  0  2  0  0  0  0  0  0  0  0  0
   22.2430  -10.8169  -16.4193 N   0  0  0  0  0  0  0  0  0  0  0  0
   22.6004   -8.5855  -15.5509 C   0  0  0  0  0  0  0  0  0  0  0  0
   22.5769   -8.1662  -16.7551 O   0  0  0  0  0  0  0  0  0  0  0  0
   19.2596   -4.2491  -15.8176 N   0  0  0  0  0  0  0  0  0  0  0  0
   20.6440   -4.6573  -15.8771 C   0  0  0  0  0  0  0  0  0  0  0  0
   21.4480   -3.7494  -16.1639 O   0  0  0  0  0  0  0  0  0  0  0  0
   21.0286   -6.0458  -15.6131 C   0  0  0  0  0  0  0  0  0  0  0  0
   22.2276   -6.2443  -14.7358 C   0  0  2  0  0  0  0  0  0  0  0  0
   22.4302   -7.6700  -14.5007 N   0  0  0  0  0  0  0  0  0  0  0  0
   22.1274   -5.5082  -13.4654 C   0  0  0  0  0  0  0  0  0  0  0  0
   21.9336   -6.0261  -12.3568 O   0  0  0  0  0  0  0  0  0  0  0  0
   22.2503   -4.0995  -13.4286 O   0  0  0  0  0  0  0  0  0  0  0  0
  2  3  1  0
  2  1  1  1
  3  4  1  0
  4  5  2  0
  4  8  1  0
  6  2  1  0
  7  6  2  0
  9 10  1  0
 11 10  1  0
 11 13  1  0
 11 12  1  6
 13 15  1  0
 13 14  1  6
 14  6  1  0
 15 16  2  0
 18 17  1  0
 18 19  2  0
 21 20  1  1
 20 18  1  0
 22 21  1  0
 22 15  1  0
 23 21  1  0
 24 23  2  0
 25 23  1  0
M  END
$$$$
