DIN.pdb
     RDKit          3D

 25 24  0  0  1  0  0  0  0  0999 V2000
   28.6195   -9.0017  -20.5112 N   0  0  0  0  0  0  0  0  0  0  0  0
   28.2965   -8.2852  -19.2899 C   0  0  1  0  0  0  0  0  0  0  0  0
   28.2465   -6.7915  -19.5286 C   0  0  0  0  0  0  0  0  0  0  0  0
   29.5915   -6.2457  -19.8429 C   0  0  0  0  0  0  0  0  0  0  0  0
   30.5869   -6.3312  -19.0805 O   0  0  0  0  0  0  0  0  0  0  0  0
   27.0218   -8.8112  -18.7761 C   0  0  0  0  0  0  0  0  0  0  0  0
   26.0377   -9.0861  -19.5410 O   0  0  0  0  0  0  0  0  0  0  0  0
   29.7491   -5.5998  -21.0633 O   0  0  0  0  0  0  0  0  0  0  0  0
   24.7052  -12.7404  -15.0426 C   0  0  0  0  0  0  0  0  0  0  0  0
   24.3937  -11.3375  -15.5569 C   0  0  0  0  0  0  0  0  0  0  0  0
   25.6298  -10.8113  -16.1938 C   0  0  2  0  0  0  0  0  0  0  0  0
   26.7153  -10.7206  -15.1122 C   0  0  0  0  0  0  0  0  0  0  0  0
   25.5071   -9.4889  -16.8836 C   0  0  2  0  0  0  0  0  0  0  0  0
   26.7988   -9.0491  -17.3918 N   0  0  0  0  0  0  0  0  0  0  0  0
   24.8895   -8.4480  -16.0301 C   0  0  0  0  0  0  0  0  0  0  0  0
   25.6695   -7.6980  -15.3550 O   0  0  0  0  0  0  0  0  0  0  0  0
   21.8897   -4.8668  -13.8142 N   0  0  0  0  0  0  0  0  0  0  0  0
   22.9015   -4.7129  -14.8338 C   0  0  0  0  0  0  0  0  0  0  0  0
   23.2493   -3.5370  -15.0560 O   0  0  0  0  0  0  0  0  0  0  0  0
   23.4495   -5.8798  -15.5290 C   0  0  0  0  0  0  0  0  0  0  0  0
   22.9132   -7.2138  -15.1054 C   0  0  2  0  0  0  0  0  0  0  0  0
   23.5019   -8.2619  -15.9323 N   0  0  0  0  0  0  0  0  0  0  0  0
   21.4432   -7.2716  -15.1462 C   0  0  0  0  0  0  0  0  0  0  0  0
   20.6843   -6.5265  -14.5108 O   0  0  0  0  0  0  0  0  0  0  0  0
   20.7741   -8.2254  -15.9484 O   0  0  0  0  0  0  0  0  0  0  0  0
  2  3  1  0
  2  1  1  6
  3  4  1  0
  4  5  2  0
  4  8  1  0
  6  2  1  0
  7  6  2  0
  9 10  1  0
 11 10  1  0
 11 13  1  0
 11 12  1  1
 13 15  1  0
 13 14  1  1
 14  6  1  0
 15 16  2  0
 18 17  1  0
 18 19  2  0
 21 20  1  6
 20 18  1  0
 22 21  1  0
 22 15  1  0
 23 21  1  0
 24 23  2  0
 25 23  1  0
M  END
$$$$
