DIN.pdb
     RDKit          3D

 25 24  0  0  1  0  0  0  0  0999 V2000
   18.8083  -22.4229   -9.3123 N   0  0  0  0  0  0  0  0  0  0  0  0
   18.9130  -22.5462  -10.7556 C   0  0  1  0  0  0  0  0  0  0  0  0
   17.5630  -22.3777  -11.4187 C   0  0  0  0  0  0  0  0  0  0  0  0
   16.5982  -23.4083  -10.9574 C   0  0  0  0  0  0  0  0  0  0  0  0
   15.3491  -23.2977  -11.0408 O   0  0  0  0  0  0  0  0  0  0  0  0
   19.8941  -21.5562  -11.2279 C   0  0  0  0  0  0  0  0  0  0  0  0
   19.5569  -20.3815  -11.5958 O   0  0  0  0  0  0  0  0  0  0  0  0
   17.1217  -24.5680  -10.3983 O   0  0  0  0  0  0  0  0  0  0  0  0
   24.8330  -21.0559   -8.9377 C   0  0  0  0  0  0  0  0  0  0  0  0
   23.4507  -20.7710   -9.5190 C   0  0  0  0  0  0  0  0  0  0  0  0
   23.5342  -20.9755  -10.9891 C   0  0  2  0  0  0  0  0  0  0  0  0
   24.5580  -19.9765  -11.5465 C   0  0  0  0  0  0  0  0  0  0  0  0
   22.2516  -20.8451  -11.7491 C   0  0  2  0  0  0  0  0  0  0  0  0
   21.2853  -21.8406  -11.3069 N   0  0  0  0  0  0  0  0  0  0  0  0
   22.4418  -20.9043  -13.2166 C   0  0  0  0  0  0  0  0  0  0  0  0
   22.8599  -22.0015  -13.7145 O   0  0  0  0  0  0  0  0  0  0  0  0
   22.2517  -19.9199  -18.3797 N   0  0  0  0  0  0  0  0  0  0  0  0
   21.0731  -19.5167  -17.6480 C   0  0  0  0  0  0  0  0  0  0  0  0
   20.0995  -19.1941  -18.3559 O   0  0  0  0  0  0  0  0  0  0  0  0
   21.0677  -19.5031  -16.1834 C   0  0  0  0  0  0  0  0  0  0  0  0
   22.3469  -19.9051  -15.5138 C   0  0  2  0  0  0  0  0  0  0  0  0
   22.1896  -19.8158  -14.0660 N   0  0  0  0  0  0  0  0  0  0  0  0
   23.4986  -19.1107  -15.9702 C   0  0  0  0  0  0  0  0  0  0  0  0
   23.6352  -17.8916  -15.7968 O   0  0  0  0  0  0  0  0  0  0  0  0
   24.5698  -19.7159  -16.6681 O   0  0  0  0  0  0  0  0  0  0  0  0
  2  3  1  0
  2  1  1  1
  3  4  1  0
  4  5  2  0
  4  8  1  0
  6  2  1  0
  7  6  2  0
  9 10  1  0
 11 10  1  0
 11 13  1  0
 11 12  1  6
 13 15  1  0
 13 14  1  1
 14  6  1  0
 15 16  2  0
 18 17  1  0
 18 19  2  0
 21 20  1  6
 20 18  1  0
 22 21  1  0
 22 15  1  0
 23 21  1  0
 24 23  2  0
 25 23  1  0
M  END
$$$$
