DIN.pdb
     RDKit          3D

 25 24  0  0  1  0  0  0  0  0999 V2000
   26.3239  -11.2940  -20.8300 N   0  0  0  0  0  0  0  0  0  0  0  0
   24.9041  -11.5661  -20.6906 C   0  0  1  0  0  0  0  0  0  0  0  0
   24.6129  -13.0439  -20.8382 C   0  0  0  0  0  0  0  0  0  0  0  0
   24.9186  -13.5240  -22.2100 C   0  0  0  0  0  0  0  0  0  0  0  0
   25.3948  -12.8038  -23.1233 O   0  0  0  0  0  0  0  0  0  0  0  0
   24.4642  -11.0380  -19.3894 C   0  0  0  0  0  0  0  0  0  0  0  0
   23.2789  -11.2085  -18.9478 O   0  0  0  0  0  0  0  0  0  0  0  0
   24.6573  -14.8596  -22.4920 O   0  0  0  0  0  0  0  0  0  0  0  0
   27.7013  -11.6448  -15.2560 C   0  0  0  0  0  0  0  0  0  0  0  0
   26.4043  -11.6081  -16.0600 C   0  0  0  0  0  0  0  0  0  0  0  0
   26.0091  -10.1821  -16.2041 C   0  0  2  0  0  0  0  0  0  0  0  0
   25.5806   -9.6699  -14.8219 C   0  0  0  0  0  0  0  0  0  0  0  0
   24.9267   -9.8927  -17.1962 C   0  0  2  0  0  0  0  0  0  0  0  0
   25.3296  -10.3011  -18.5346 N   0  0  0  0  0  0  0  0  0  0  0  0
   24.4932   -8.4767  -17.1807 C   0  0  0  0  0  0  0  0  0  0  0  0
   25.3129   -7.6029  -17.6180 O   0  0  0  0  0  0  0  0  0  0  0  0
   22.0019   -4.4215  -19.7822 N   0  0  0  0  0  0  0  0  0  0  0  0
   22.4223   -4.8393  -18.4648 C   0  0  0  0  0  0  0  0  0  0  0  0
   22.3926   -3.9466  -17.5957 O   0  0  0  0  0  0  0  0  0  0  0  0
   22.8443   -6.2194  -18.2146 C   0  0  0  0  0  0  0  0  0  0  0  0
   22.7904   -6.6791  -16.7891 C   0  0  2  0  0  0  0  0  0  0  0  0
   23.2383   -8.0652  -16.7055 N   0  0  0  0  0  0  0  0  0  0  0  0
   21.4545   -6.5186  -16.1928 C   0  0  0  0  0  0  0  0  0  0  0  0
   20.5593   -7.3748  -16.2128 O   0  0  0  0  0  0  0  0  0  0  0  0
   21.0918   -5.3224  -15.5307 O   0  0  0  0  0  0  0  0  0  0  0  0
  2  3  1  0
  2  1  1  1
  3  4  1  0
  4  5  2  0
  4  8  1  0
  6  2  1  0
  7  6  2  0
  9 10  1  0
 11 10  1  0
 11 13  1  0
 11 12  1  1
 13 15  1  0
 13 14  1  6
 14  6  1  0
 15 16  2  0
 18 17  1  0
 18 19  2  0
 21 20  1  6
 20 18  1  0
 22 21  1  0
 22 15  1  0
 23 21  1  0
 24 23  2  0
 25 23  1  0
M  END
$$$$
