DIN.pdb
     RDKit          3D

 25 24  0  0  1  0  0  0  0  0999 V2000
   27.8934  -22.1332  -16.0326 N   0  0  0  0  0  0  0  0  0  0  0  0
   27.1579  -20.9406  -15.6502 C   0  0  1  0  0  0  0  0  0  0  0  0
   26.5840  -20.2394  -16.8624 C   0  0  0  0  0  0  0  0  0  0  0  0
   27.6513  -19.6171  -17.6867 C   0  0  0  0  0  0  0  0  0  0  0  0
   28.5486  -20.2602  -18.2873 O   0  0  0  0  0  0  0  0  0  0  0  0
   26.1161  -21.3359  -14.6890 C   0  0  0  0  0  0  0  0  0  0  0  0
   25.5003  -22.4510  -14.7685 O   0  0  0  0  0  0  0  0  0  0  0  0
   27.6485  -18.2315  -17.7946 O   0  0  0  0  0  0  0  0  0  0  0  0
   26.4273  -21.9804  -10.5342 C   0  0  0  0  0  0  0  0  0  0  0  0
   26.2421  -20.4754  -10.7084 C   0  0  0  0  0  0  0  0  0  0  0  0
   24.9085  -20.2590  -11.3288 C   0  0  2  0  0  0  0  0  0  0  0  0
   23.8433  -20.7592  -10.3430 C   0  0  0  0  0  0  0  0  0  0  0  0
   24.6877  -20.9002  -12.6629 C   0  0  2  0  0  0  0  0  0  0  0  0
   25.7239  -20.5024  -13.6055 N   0  0  0  0  0  0  0  0  0  0  0  0
   23.3386  -20.6362  -13.2138 C   0  0  0  0  0  0  0  0  0  0  0  0
   23.0299  -19.4247  -13.4661 O   0  0  0  0  0  0  0  0  0  0  0  0
   21.7801  -24.2172  -16.1999 N   0  0  0  0  0  0  0  0  0  0  0  0
   21.3237  -22.8675  -15.9616 C   0  0  0  0  0  0  0  0  0  0  0  0
   21.6288  -22.0453  -16.8471 O   0  0  0  0  0  0  0  0  0  0  0  0
   20.5622  -22.5351  -14.7554 C   0  0  0  0  0  0  0  0  0  0  0  0
   21.0595  -21.3656  -13.9609 C   0  0  2  0  0  0  0  0  0  0  0  0
   22.3998  -21.6502  -13.4594 N   0  0  0  0  0  0  0  0  0  0  0  0
   20.1508  -21.0001  -12.8624 C   0  0  0  0  0  0  0  0  0  0  0  0
   20.1537  -21.5153  -11.7357 O   0  0  0  0  0  0  0  0  0  0  0  0
   19.1719  -19.9932  -13.0320 O   0  0  0  0  0  0  0  0  0  0  0  0
  2  3  1  0
  2  1  1  6
  3  4  1  0
  4  5  2  0
  4  8  1  0
  6  2  1  0
  7  6  2  0
  9 10  1  0
 11 10  1  0
 11 13  1  0
 11 12  1  1
 13 15  1  0
 13 14  1  6
 14  6  1  0
 15 16  2  0
 18 17  1  0
 18 19  2  0
 21 20  1  1
 20 18  1  0
 22 21  1  0
 22 15  1  0
 23 21  1  0
 24 23  2  0
 25 23  1  0
M  END
$$$$
