DIN.pdb
     RDKit          3D

 25 24  0  0  1  0  0  0  0  0999 V2000
   17.6413  -12.2545  -14.7969 N   0  0  0  0  0  0  0  0  0  0  0  0
   17.8892  -11.3011  -15.8641 C   0  0  1  0  0  0  0  0  0  0  0  0
   16.6117  -10.9583  -16.5995 C   0  0  0  0  0  0  0  0  0  0  0  0
   16.0084  -12.1598  -17.2305 C   0  0  0  0  0  0  0  0  0  0  0  0
   14.7933  -12.4698  -17.1468 O   0  0  0  0  0  0  0  0  0  0  0  0
   18.5300  -10.1142  -15.2756 C   0  0  0  0  0  0  0  0  0  0  0  0
   18.0921   -9.5565  -14.2143 O   0  0  0  0  0  0  0  0  0  0  0  0
   16.8518  -12.9895  -17.9597 O   0  0  0  0  0  0  0  0  0  0  0  0
   22.7910  -10.8306  -15.1476 C   0  0  0  0  0  0  0  0  0  0  0  0
   22.3610   -9.6411  -14.2933 C   0  0  0  0  0  0  0  0  0  0  0  0
   21.8426   -8.5951  -15.2138 C   0  0  2  0  0  0  0  0  0  0  0  0
   22.5403   -7.2729  -14.8655 C   0  0  0  0  0  0  0  0  0  0  0  0
   20.3604   -8.3878  -15.2119 C   0  0  2  0  0  0  0  0  0  0  0  0
   19.6811   -9.5071  -15.8491 N   0  0  0  0  0  0  0  0  0  0  0  0
   19.9568   -7.1020  -15.8259 C   0  0  0  0  0  0  0  0  0  0  0  0
   20.1774   -6.9474  -17.0725 O   0  0  0  0  0  0  0  0  0  0  0  0
   18.0387   -2.1875  -16.4560 N   0  0  0  0  0  0  0  0  0  0  0  0
   17.1570   -3.0761  -15.7350 C   0  0  0  0  0  0  0  0  0  0  0  0
   16.0090   -2.6326  -15.5389 O   0  0  0  0  0  0  0  0  0  0  0  0
   17.6202   -4.3913  -15.2867 C   0  0  0  0  0  0  0  0  0  0  0  0
   19.0009   -4.7872  -15.7146 C   0  0  2  0  0  0  0  0  0  0  0  0
   19.3564   -6.0617  -15.0998 N   0  0  0  0  0  0  0  0  0  0  0  0
   20.0053   -3.7554  -15.4106 C   0  0  0  0  0  0  0  0  0  0  0  0
   20.7671   -3.7705  -14.4336 O   0  0  0  0  0  0  0  0  0  0  0  0
   20.1707   -2.6302  -16.2516 O   0  0  0  0  0  0  0  0  0  0  0  0
  2  3  1  0
  2  1  1  1
  3  4  1  0
  4  5  2  0
  4  8  1  0
  6  2  1  0
  7  6  2  0
  9 10  1  0
 11 10  1  0
 11 13  1  0
 11 12  1  1
 13 15  1  0
 13 14  1  6
 14  6  1  0
 15 16  2  0
 18 17  1  0
 18 19  2  0
 21 20  1  1
 20 18  1  0
 22 21  1  0
 22 15  1  0
 23 21  1  0
 24 23  2  0
 25 23  1  0
M  END
$$$$
