DIN.pdb
     RDKit          3D

 25 24  0  0  1  0  0  0  0  0999 V2000
   23.3453  -20.8129  -14.1261 N   0  0  0  0  0  0  0  0  0  0  0  0
   22.6196  -20.0998  -13.0896 C   0  0  1  0  0  0  0  0  0  0  0  0
   21.2305  -19.7209  -13.5559 C   0  0  0  0  0  0  0  0  0  0  0  0
   21.2793  -18.8445  -14.7539 C   0  0  0  0  0  0  0  0  0  0  0  0
   21.9100  -17.7590  -14.8128 O   0  0  0  0  0  0  0  0  0  0  0  0
   22.5927  -20.9469  -11.8866 C   0  0  0  0  0  0  0  0  0  0  0  0
   22.4377  -22.2125  -11.9450 O   0  0  0  0  0  0  0  0  0  0  0  0
   20.5779  -19.2615  -15.8790 O   0  0  0  0  0  0  0  0  0  0  0  0
   25.8776  -19.8251   -7.7790 C   0  0  0  0  0  0  0  0  0  0  0  0
   25.1335  -20.6672   -8.8120 C   0  0  0  0  0  0  0  0  0  0  0  0
   23.7145  -20.7550   -8.3772 C   0  0  2  0  0  0  0  0  0  0  0  0
   23.6582  -21.6481   -7.1299 C   0  0  0  0  0  0  0  0  0  0  0  0
   22.7414  -21.2637   -9.3940 C   0  0  2  0  0  0  0  0  0  0  0  0
   22.7372  -20.4135  -10.5762 N   0  0  0  0  0  0  0  0  0  0  0  0
   21.3728  -21.4268   -8.8520 C   0  0  0  0  0  0  0  0  0  0  0  0
   20.6833  -20.3710   -8.6605 O   0  0  0  0  0  0  0  0  0  0  0  0
   18.9862  -26.0608   -9.0390 N   0  0  0  0  0  0  0  0  0  0  0  0
   18.2200  -24.9183   -8.5979 C   0  0  0  0  0  0  0  0  0  0  0  0
   17.2329  -25.1899   -7.8873 O   0  0  0  0  0  0  0  0  0  0  0  0
   18.6107  -23.5598   -8.9815 C   0  0  0  0  0  0  0  0  0  0  0  0
   19.4677  -22.8168   -8.0019 C   0  0  2  0  0  0  0  0  0  0  0  0
   20.8165  -22.6771   -8.5404 N   0  0  0  0  0  0  0  0  0  0  0  0
   19.4918  -23.4526   -6.6748 C   0  0  0  0  0  0  0  0  0  0  0  0
   20.4362  -24.1127   -6.2195 O   0  0  0  0  0  0  0  0  0  0  0  0
   18.3879  -23.3465   -5.7966 O   0  0  0  0  0  0  0  0  0  0  0  0
  2  3  1  0
  2  1  1  6
  3  4  1  0
  4  5  2  0
  4  8  1  0
  6  2  1  0
  7  6  2  0
  9 10  1  0
 11 10  1  0
 11 13  1  0
 11 12  1  1
 13 15  1  0
 13 14  1  6
 14  6  1  0
 15 16  2  0
 18 17  1  0
 18 19  2  0
 21 20  1  6
 20 18  1  0
 22 21  1  0
 22 15  1  0
 23 21  1  0
 24 23  2  0
 25 23  1  0
M  END
$$$$
