QWP.pdb
     RDKit          3D

 31 33  0  0  1  0  0  0  0  0999 V2000
   23.2798  -15.5196  -19.4575 N   0  0  0  0  0  0  0  0  0  0  0  0
   24.4407  -14.7291  -19.7617 C   0  0  0  0  0  0  0  0  0  0  0  0
   24.3497  -14.0121  -20.7801 O   0  0  0  0  0  0  0  0  0  0  0  0
   25.6504  -14.7607  -18.9413 C   0  0  0  0  0  0  0  0  0  0  0  0
   25.5710  -15.5442  -17.6692 C   0  0  0  0  0  0  0  0  0  0  0  0
   26.7768  -16.3854  -17.4706 C   0  0  2  0  0  0  0  0  0  0  0  0
   27.5837  -16.6461  -18.6046 N   0  0  0  0  0  0  0  0  0  0  0  0
   26.4592  -17.6688  -16.7788 C   0  0  0  0  0  0  0  0  0  0  0  0
   26.1152  -18.6414  -17.4889 O   0  0  0  0  0  0  0  0  0  0  0  0
   26.5375  -17.8022  -15.3768 N   0  0  0  0  0  0  0  0  0  0  0  0
   26.2026  -19.1411  -14.7800 C   0  0  1  0  0  0  0  0  0  0  0  0
   26.9640  -19.2121  -13.4799 C   0  0  0  0  0  0  0  0  0  0  0  0
   26.6893  -20.3614  -12.6325 C   0  0  0  0  0  0  0  0  0  0  0  0
   26.8352  -21.7141  -12.9047 C   0  0  0  0  0  0  0  0  0  0  0  0
   26.4499  -22.4322  -11.8426 N   0  0  0  0  0  0  0  0  0  0  0  0
   26.0402  -21.6160  -10.8390 C   0  0  0  0  0  0  0  0  0  0  0  0
   25.5626  -21.8669   -9.5733 C   0  0  0  0  0  0  0  0  0  0  0  0
   25.2276  -20.7926   -8.7852 C   0  0  0  0  0  0  0  0  0  0  0  0
   25.3596  -19.4832   -9.2338 C   0  0  0  0  0  0  0  0  0  0  0  0
   25.8388  -19.2633  -10.5013 C   0  0  0  0  0  0  0  0  0  0  0  0
   26.1869  -20.3225  -11.3246 C   0  0  0  0  0  0  0  0  0  0  0  0
   24.7521  -19.1259  -14.5273 C   0  0  0  0  0  0  0  0  0  0  0  0
   24.2459  -18.0025  -14.1032 O   0  0  0  0  0  0  0  0  0  0  0  0
   23.8190  -20.1512  -14.6817 N   0  0  0  0  0  0  0  0  0  0  0  0
   24.1399  -21.5571  -14.9938 C   0  0  0  0  0  0  0  0  0  0  0  0
   22.8966  -22.1655  -15.5698 C   0  0  0  0  0  0  0  0  0  0  0  0
   21.8657  -21.0573  -15.6013 C   0  0  0  0  0  0  0  0  0  0  0  0
   22.4020  -20.1335  -14.5243 C   0  0  1  0  0  0  0  0  0  0  0  0
   21.9855  -20.7676  -13.2276 C   0  0  0  0  0  0  0  0  0  0  0  0
   20.8176  -20.7000  -12.7930 O   0  0  0  0  0  0  0  0  0  0  0  0
   22.9507  -21.4473  -12.5046 O   0  0  0  0  0  0  0  0  0  0  0  0
  2  1  1  0
  3  2  2  0
  4  2  1  0
  5  4  1  0
  6  5  1  0
  6  7  1  6
  8  6  1  0
  8  9  2  0
 10  8  1  0
 11 10  1  0
 11 12  1  1
 13 12  1  0
 13 14  2  0
 15 14  1  0
 16 21  2  0
 16 15  1  0
 17 16  1  0
 18 19  1  0
 18 17  2  0
 19 20  2  0
 20 21  1  0
 21 13  1  0
 22 11  1  0
 23 22  2  0
 24 22  1  0
 24 25  1  0
 26 25  1  0
 27 28  1  0
 27 26  1  0
 28 24  1  0
 28 29  1  1
 30 29  2  0
 31 29  1  0
M  END
$$$$
