QWP.pdb
     RDKit          3D

 31 33  0  0  1  0  0  0  0  0999 V2000
   23.5367  -25.7105  -13.9898 N   0  0  0  0  0  0  0  0  0  0  0  0
   22.9690  -25.3127  -15.2486 C   0  0  0  0  0  0  0  0  0  0  0  0
   23.5938  -25.6897  -16.2621 O   0  0  0  0  0  0  0  0  0  0  0  0
   21.7458  -24.5175  -15.3432 C   0  0  0  0  0  0  0  0  0  0  0  0
   21.1448  -24.0655  -14.0498 C   0  0  0  0  0  0  0  0  0  0  0  0
   20.9502  -22.5950  -14.0232 C   0  0  2  0  0  0  0  0  0  0  0  0
   19.8790  -22.0654  -14.7828 N   0  0  0  0  0  0  0  0  0  0  0  0
   22.2052  -21.8559  -14.3482 C   0  0  0  0  0  0  0  0  0  0  0  0
   22.3426  -21.4317  -15.5185 O   0  0  0  0  0  0  0  0  0  0  0  0
   23.2123  -21.6328  -13.3861 N   0  0  0  0  0  0  0  0  0  0  0  0
   24.3929  -20.7930  -13.7888 C   0  0  1  0  0  0  0  0  0  0  0  0
   25.1080  -20.4499  -12.5058 C   0  0  0  0  0  0  0  0  0  0  0  0
   26.4644  -19.9428  -12.6383 C   0  0  0  0  0  0  0  0  0  0  0  0
   26.9346  -18.8577  -13.3640 C   0  0  0  0  0  0  0  0  0  0  0  0
   28.2615  -18.7576  -13.2174 N   0  0  0  0  0  0  0  0  0  0  0  0
   28.7272  -19.7433  -12.4095 C   0  0  0  0  0  0  0  0  0  0  0  0
   29.9895  -20.0611  -11.9639 C   0  0  0  0  0  0  0  0  0  0  0  0
   30.1267  -21.1484  -11.1354 C   0  0  0  0  0  0  0  0  0  0  0  0
   29.0358  -21.9178  -10.7467 C   0  0  0  0  0  0  0  0  0  0  0  0
   27.7882  -21.5769  -11.2069 C   0  0  0  0  0  0  0  0  0  0  0  0
   27.6116  -20.4867  -12.0442 C   0  0  0  0  0  0  0  0  0  0  0  0
   25.2373  -21.6523  -14.6353 C   0  0  0  0  0  0  0  0  0  0  0  0
   25.2661  -22.9197  -14.3342 O   0  0  0  0  0  0  0  0  0  0  0  0
   26.0222  -21.3082  -15.7359 N   0  0  0  0  0  0  0  0  0  0  0  0
   26.2957  -19.9319  -16.1921 C   0  0  0  0  0  0  0  0  0  0  0  0
   26.7068  -20.0283  -17.6306 C   0  0  0  0  0  0  0  0  0  0  0  0
   26.6338  -21.4976  -17.9880 C   0  0  0  0  0  0  0  0  0  0  0  0
   26.7768  -22.1350  -16.6191 C   0  0  1  0  0  0  0  0  0  0  0  0
   28.2459  -22.0688  -16.3125 C   0  0  0  0  0  0  0  0  0  0  0  0
   28.7201  -21.2796  -15.4700 O   0  0  0  0  0  0  0  0  0  0  0  0
   29.0864  -22.9250  -17.0030 O   0  0  0  0  0  0  0  0  0  0  0  0
  2  1  1  0
  3  2  2  0
  4  2  1  0
  5  4  1  0
  6  5  1  0
  6  7  1  6
  8  6  1  0
  8  9  2  0
 10  8  1  0
 11 10  1  0
 11 12  1  1
 13 12  1  0
 13 14  2  0
 15 14  1  0
 16 21  2  0
 16 15  1  0
 17 16  1  0
 18 19  1  0
 18 17  2  0
 19 20  2  0
 20 21  1  0
 21 13  1  0
 22 11  1  0
 23 22  2  0
 24 22  1  0
 24 25  1  0
 26 25  1  0
 27 28  1  0
 27 26  1  0
 28 24  1  0
 28 29  1  1
 30 29  2  0
 31 29  1  0
M  END
$$$$
