QWP.pdb
     RDKit          3D

 31 33  0  0  1  0  0  0  0  0999 V2000
   27.8802  -22.1057  -18.4673 N   0  0  0  0  0  0  0  0  0  0  0  0
   28.7204  -20.9446  -18.3615 C   0  0  0  0  0  0  0  0  0  0  0  0
   29.4089  -20.6869  -19.3710 O   0  0  0  0  0  0  0  0  0  0  0  0
   28.7731  -20.1196  -17.1557 C   0  0  0  0  0  0  0  0  0  0  0  0
   27.9083  -20.5535  -16.0146 C   0  0  0  0  0  0  0  0  0  0  0  0
   28.7113  -20.8445  -14.8016 C   0  0  2  0  0  0  0  0  0  0  0  0
   29.7521  -21.7971  -14.9219 N   0  0  0  0  0  0  0  0  0  0  0  0
   27.8545  -21.1875  -13.6291 C   0  0  0  0  0  0  0  0  0  0  0  0
   26.8484  -21.9045  -13.8352 O   0  0  0  0  0  0  0  0  0  0  0  0
   28.1498  -20.7307  -12.3276 N   0  0  0  0  0  0  0  0  0  0  0  0
   27.1983  -21.0982  -11.2228 C   0  0  1  0  0  0  0  0  0  0  0  0
   27.8404  -20.6075   -9.9492 C   0  0  0  0  0  0  0  0  0  0  0  0
   27.0251  -20.6758   -8.7470 C   0  0  0  0  0  0  0  0  0  0  0  0
   25.7014  -21.0641   -8.5987 C   0  0  0  0  0  0  0  0  0  0  0  0
   25.3423  -20.9613   -7.3131 N   0  0  0  0  0  0  0  0  0  0  0  0
   26.3802  -20.5125   -6.5631 C   0  0  0  0  0  0  0  0  0  0  0  0
   26.5096  -20.2478   -5.2191 C   0  0  0  0  0  0  0  0  0  0  0  0
   27.7239  -19.7933   -4.7649 C   0  0  0  0  0  0  0  0  0  0  0  0
   28.8025  -19.5998   -5.6207 C   0  0  0  0  0  0  0  0  0  0  0  0
   28.6441  -19.8723   -6.9568 C   0  0  0  0  0  0  0  0  0  0  0  0
   27.4337  -20.3323   -7.4509 C   0  0  0  0  0  0  0  0  0  0  0  0
   25.9539  -20.3580  -11.4906 C   0  0  0  0  0  0  0  0  0  0  0  0
   26.0468  -19.0592  -11.5384 O   0  0  0  0  0  0  0  0  0  0  0  0
   24.6663  -20.8476  -11.7107 N   0  0  0  0  0  0  0  0  0  0  0  0
   24.2803  -22.2716  -11.6931 C   0  0  0  0  0  0  0  0  0  0  0  0
   22.9987  -22.3803  -12.4634 C   0  0  0  0  0  0  0  0  0  0  0  0
   22.6800  -20.9802  -12.9430 C   0  0  0  0  0  0  0  0  0  0  0  0
   23.4439  -20.1476  -11.9310 C   0  0  1  0  0  0  0  0  0  0  0  0
   22.5820  -20.1467  -10.7006 C   0  0  0  0  0  0  0  0  0  0  0  0
   22.8123  -20.8839   -9.7203 O   0  0  0  0  0  0  0  0  0  0  0  0
   21.4969  -19.2874  -10.6758 O   0  0  0  0  0  0  0  0  0  0  0  0
  2  1  1  0
  3  2  2  0
  4  2  1  0
  5  4  1  0
  6  5  1  0
  6  7  1  6
  8  6  1  0
  8  9  2  0
 10  8  1  0
 11 10  1  0
 11 12  1  1
 13 12  1  0
 13 14  2  0
 15 14  1  0
 16 21  2  0
 16 15  1  0
 17 16  1  0
 18 19  1  0
 18 17  2  0
 19 20  2  0
 20 21  1  0
 21 13  1  0
 22 11  1  0
 23 22  2  0
 24 22  1  0
 24 25  1  0
 26 25  1  0
 27 28  1  0
 27 26  1  0
 28 24  1  0
 28 29  1  1
 30 29  2  0
 31 29  1  0
M  END
$$$$
