QWP.pdb
     RDKit          3D

 31 33  0  0  1  0  0  0  0  0999 V2000
   29.4356  -22.0511  -19.6761 N   0  0  0  0  0  0  0  0  0  0  0  0
   28.7055  -20.9440  -19.1225 C   0  0  0  0  0  0  0  0  0  0  0  0
   27.8708  -20.4159  -19.8866 O   0  0  0  0  0  0  0  0  0  0  0  0
   28.9233  -20.4614  -17.7597 C   0  0  0  0  0  0  0  0  0  0  0  0
   27.8461  -20.7646  -16.7667 C   0  0  0  0  0  0  0  0  0  0  0  0
   28.4028  -21.3346  -15.5152 C   0  0  2  0  0  0  0  0  0  0  0  0
   29.1997  -22.4997  -15.6276 N   0  0  0  0  0  0  0  0  0  0  0  0
   27.3513  -21.5478  -14.4782 C   0  0  0  0  0  0  0  0  0  0  0  0
   26.6333  -22.5689  -14.5806 O   0  0  0  0  0  0  0  0  0  0  0  0
   27.1569  -20.6436  -13.4131 N   0  0  0  0  0  0  0  0  0  0  0  0
   26.1153  -20.9858  -12.3841 C   0  0  1  0  0  0  0  0  0  0  0  0
   26.4959  -20.2156  -11.1442 C   0  0  0  0  0  0  0  0  0  0  0  0
   27.6962  -20.6575  -10.4526 C   0  0  0  0  0  0  0  0  0  0  0  0
   28.7077  -21.5004  -10.8900 C   0  0  0  0  0  0  0  0  0  0  0  0
   29.6196  -21.6517   -9.9216 N   0  0  0  0  0  0  0  0  0  0  0  0
   29.2701  -20.9368   -8.8225 C   0  0  0  0  0  0  0  0  0  0  0  0
   29.8666  -20.7699   -7.5940 C   0  0  0  0  0  0  0  0  0  0  0  0
   29.2410  -19.9599   -6.6775 C   0  0  0  0  0  0  0  0  0  0  0  0
   28.0407  -19.3187   -6.9626 C   0  0  0  0  0  0  0  0  0  0  0  0
   27.4687  -19.5038   -8.1968 C   0  0  0  0  0  0  0  0  0  0  0  0
   28.0711  -20.3138   -9.1464 C   0  0  0  0  0  0  0  0  0  0  0  0
   24.8336  -20.4981  -12.9203 C   0  0  0  0  0  0  0  0  0  0  0  0
   24.8645  -19.3666  -13.5658 O   0  0  0  0  0  0  0  0  0  0  0  0
   23.5676  -21.0789  -12.8447 N   0  0  0  0  0  0  0  0  0  0  0  0
   23.2247  -22.2784  -12.0570 C   0  0  0  0  0  0  0  0  0  0  0  0
   21.9670  -22.8387  -12.6502 C   0  0  0  0  0  0  0  0  0  0  0  0
   21.6182  -21.9381  -13.8160 C   0  0  0  0  0  0  0  0  0  0  0  0
   22.3305  -20.6599  -13.4165 C   0  0  1  0  0  0  0  0  0  0  0  0
   21.4379  -20.0242  -12.3889 C   0  0  0  0  0  0  0  0  0  0  0  0
   21.7184  -20.0116  -11.1729 O   0  0  0  0  0  0  0  0  0  0  0  0
   20.2651  -19.4362  -12.8308 O   0  0  0  0  0  0  0  0  0  0  0  0
  2  1  1  0
  3  2  2  0
  4  2  1  0
  5  4  1  0
  6  5  1  0
  6  7  1  6
  8  6  1  0
  8  9  2  0
 10  8  1  0
 11 10  1  0
 11 12  1  1
 13 12  1  0
 13 14  2  0
 15 14  1  0
 16 21  2  0
 16 15  1  0
 17 16  1  0
 18 19  1  0
 18 17  2  0
 19 20  2  0
 20 21  1  0
 21 13  1  0
 22 11  1  0
 23 22  2  0
 24 22  1  0
 24 25  1  0
 26 25  1  0
 27 28  1  0
 27 26  1  0
 28 24  1  0
 28 29  1  1
 30 29  2  0
 31 29  1  0
M  END
$$$$
