QWP.pdb
     RDKit          3D

 31 33  0  0  1  0  0  0  0  0999 V2000
   25.9843  -14.4006  -18.0171 N   0  0  0  0  0  0  0  0  0  0  0  0
   24.8184  -15.2158  -18.2203 C   0  0  0  0  0  0  0  0  0  0  0  0
   23.7617  -14.7745  -17.7223 O   0  0  0  0  0  0  0  0  0  0  0  0
   24.8608  -16.4789  -18.9554 C   0  0  0  0  0  0  0  0  0  0  0  0
   24.9986  -17.7219  -18.1345 C   0  0  0  0  0  0  0  0  0  0  0  0
   26.4135  -17.9820  -17.7718 C   0  0  2  0  0  0  0  0  0  0  0  0
   27.3020  -18.3267  -18.8191 N   0  0  0  0  0  0  0  0  0  0  0  0
   26.5368  -18.9760  -16.6657 C   0  0  0  0  0  0  0  0  0  0  0  0
   26.3982  -20.1866  -16.9550 O   0  0  0  0  0  0  0  0  0  0  0  0
   26.7996  -18.5864  -15.3358 N   0  0  0  0  0  0  0  0  0  0  0  0
   26.8225  -19.6592  -14.2824 C   0  0  1  0  0  0  0  0  0  0  0  0
   27.7317  -19.1452  -13.1941 C   0  0  0  0  0  0  0  0  0  0  0  0
   27.9731  -20.0436  -12.0764 C   0  0  0  0  0  0  0  0  0  0  0  0
   28.8442  -21.1192  -11.9802 C   0  0  0  0  0  0  0  0  0  0  0  0
   28.7345  -21.6819  -10.7705 N   0  0  0  0  0  0  0  0  0  0  0  0
   27.8112  -21.0270  -10.0224 C   0  0  0  0  0  0  0  0  0  0  0  0
   27.3487  -21.2174   -8.7406 C   0  0  0  0  0  0  0  0  0  0  0  0
   26.3858  -20.3591   -8.2678 C   0  0  0  0  0  0  0  0  0  0  0  0
   25.8803  -19.3227   -9.0447 C   0  0  0  0  0  0  0  0  0  0  0  0
   26.3606  -19.1569  -10.3200 C   0  0  0  0  0  0  0  0  0  0  0  0
   27.3318  -20.0035  -10.8307 C   0  0  0  0  0  0  0  0  0  0  0  0
   25.4409  -19.7764  -13.7867 C   0  0  0  0  0  0  0  0  0  0  0  0
   24.7602  -18.6696  -13.6904 O   0  0  0  0  0  0  0  0  0  0  0  0
   24.7355  -20.9168  -13.4024 N   0  0  0  0  0  0  0  0  0  0  0  0
   25.3070  -22.2711  -13.2745 C   0  0  0  0  0  0  0  0  0  0  0  0
   24.1603  -23.2328  -13.3605 C   0  0  0  0  0  0  0  0  0  0  0  0
   22.9214  -22.3877  -13.5678 C   0  0  0  0  0  0  0  0  0  0  0  0
   23.3777  -21.0607  -12.9919 C   0  0  1  0  0  0  0  0  0  0  0  0
   23.2687  -21.2268  -11.5029 C   0  0  0  0  0  0  0  0  0  0  0  0
   24.2545  -21.4881  -10.7835 O   0  0  0  0  0  0  0  0  0  0  0  0
   22.0175  -21.0798  -10.9290 O   0  0  0  0  0  0  0  0  0  0  0  0
  2  1  1  0
  3  2  2  0
  4  2  1  0
  5  4  1  0
  6  5  1  0
  6  7  1  6
  8  6  1  0
  8  9  2  0
 10  8  1  0
 11 10  1  0
 11 12  1  1
 13 12  1  0
 13 14  2  0
 15 14  1  0
 16 21  2  0
 16 15  1  0
 17 16  1  0
 18 19  1  0
 18 17  2  0
 19 20  2  0
 20 21  1  0
 21 13  1  0
 22 11  1  0
 23 22  2  0
 24 22  1  0
 24 25  1  0
 26 25  1  0
 27 28  1  0
 27 26  1  0
 28 24  1  0
 28 29  1  1
 30 29  2  0
 31 29  1  0
M  END
$$$$
