QWP.pdb
     RDKit          3D

 31 33  0  0  1  0  0  0  0  0999 V2000
   24.8416  -16.1744  -17.3910 N   0  0  0  0  0  0  0  0  0  0  0  0
   25.0608  -16.6411  -18.7324 C   0  0  0  0  0  0  0  0  0  0  0  0
   24.0283  -16.8937  -19.3880 O   0  0  0  0  0  0  0  0  0  0  0  0
   26.3987  -16.8145  -19.2957 C   0  0  0  0  0  0  0  0  0  0  0  0
   27.5473  -16.5703  -18.3687 C   0  0  0  0  0  0  0  0  0  0  0  0
   28.3359  -17.8060  -18.1402 C   0  0  2  0  0  0  0  0  0  0  0  0
   28.8002  -18.5034  -19.2817 N   0  0  0  0  0  0  0  0  0  0  0  0
   27.6394  -18.7561  -17.2244 C   0  0  0  0  0  0  0  0  0  0  0  0
   27.0417  -19.7278  -17.7411 O   0  0  0  0  0  0  0  0  0  0  0  0
   27.6422  -18.5835  -15.8244 N   0  0  0  0  0  0  0  0  0  0  0  0
   27.0085  -19.6576  -14.9843 C   0  0  1  0  0  0  0  0  0  0  0  0
   27.6652  -19.5591  -13.6299 C   0  0  0  0  0  0  0  0  0  0  0  0
   27.1796  -20.4734  -12.6088 C   0  0  0  0  0  0  0  0  0  0  0  0
   27.1141  -21.8593  -12.6233 C   0  0  0  0  0  0  0  0  0  0  0  0
   26.5818  -22.2979  -11.4759 N   0  0  0  0  0  0  0  0  0  0  0  0
   26.2755  -21.2551  -10.6636 C   0  0  0  0  0  0  0  0  0  0  0  0
   25.7208  -21.1880   -9.4063 C   0  0  0  0  0  0  0  0  0  0  0  0
   25.5372  -19.9466   -8.8472 C   0  0  0  0  0  0  0  0  0  0  0  0
   25.8943  -18.7805   -9.5148 C   0  0  0  0  0  0  0  0  0  0  0  0
   26.4458  -18.8781  -10.7682 C   0  0  0  0  0  0  0  0  0  0  0  0
   26.6458  -20.1134  -11.3637 C   0  0  0  0  0  0  0  0  0  0  0  0
   25.5796  -19.3145  -14.8900 C   0  0  0  0  0  0  0  0  0  0  0  0
   25.2874  -18.0461  -14.8295 O   0  0  0  0  0  0  0  0  0  0  0  0
   24.4698  -20.1590  -14.8608 N   0  0  0  0  0  0  0  0  0  0  0  0
   24.5196  -21.6336  -14.8496 C   0  0  0  0  0  0  0  0  0  0  0  0
   23.1848  -22.1137  -15.3346 C   0  0  0  0  0  0  0  0  0  0  0  0
   22.3821  -20.8689  -15.6477 C   0  0  0  0  0  0  0  0  0  0  0  0
   23.0815  -19.8467  -14.7721 C   0  0  1  0  0  0  0  0  0  0  0  0
   22.5503  -20.0936  -13.3887 C   0  0  0  0  0  0  0  0  0  0  0  0
   23.2208  -20.6660  -12.5054 O   0  0  0  0  0  0  0  0  0  0  0  0
   21.2660  -19.6611  -13.1060 O   0  0  0  0  0  0  0  0  0  0  0  0
  2  1  1  0
  3  2  2  0
  4  2  1  0
  5  4  1  0
  6  5  1  0
  6  7  1  6
  8  6  1  0
  8  9  2  0
 10  8  1  0
 11 10  1  0
 11 12  1  1
 13 12  1  0
 13 14  2  0
 15 14  1  0
 16 21  2  0
 16 15  1  0
 17 16  1  0
 18 19  1  0
 18 17  2  0
 19 20  2  0
 20 21  1  0
 21 13  1  0
 22 11  1  0
 23 22  2  0
 24 22  1  0
 24 25  1  0
 26 25  1  0
 27 28  1  0
 27 26  1  0
 28 24  1  0
 28 29  1  1
 30 29  2  0
 31 29  1  0
M  END
$$$$
