QWP.pdb
     RDKit          3D

 31 33  0  0  1  0  0  0  0  0999 V2000
   25.0766  -13.2032  -14.2328 N   0  0  0  0  0  0  0  0  0  0  0  0
   24.3219  -12.8634  -15.4076 C   0  0  0  0  0  0  0  0  0  0  0  0
   23.3189  -12.1455  -15.2119 O   0  0  0  0  0  0  0  0  0  0  0  0
   24.6950  -13.3267  -16.7430 C   0  0  0  0  0  0  0  0  0  0  0  0
   25.9026  -14.2057  -16.8287 C   0  0  0  0  0  0  0  0  0  0  0  0
   25.5371  -15.6033  -17.1663 C   0  0  2  0  0  0  0  0  0  0  0  0
   24.1792  -15.8670  -17.4691 N   0  0  0  0  0  0  0  0  0  0  0  0
   26.0164  -16.5736  -16.1390 C   0  0  0  0  0  0  0  0  0  0  0  0
   27.1728  -16.4145  -15.6849 O   0  0  0  0  0  0  0  0  0  0  0  0
   25.2116  -17.6383  -15.6826 N   0  0  0  0  0  0  0  0  0  0  0  0
   25.8095  -18.5915  -14.6851 C   0  0  1  0  0  0  0  0  0  0  0  0
   24.7709  -18.7576  -13.6039 C   0  0  0  0  0  0  0  0  0  0  0  0
   25.0457  -19.7672  -12.5941 C   0  0  0  0  0  0  0  0  0  0  0  0
   24.7840  -21.1296  -12.6134 C   0  0  0  0  0  0  0  0  0  0  0  0
   25.1897  -21.6834  -11.4641 N   0  0  0  0  0  0  0  0  0  0  0  0
   25.7266  -20.7435  -10.6459 C   0  0  0  0  0  0  0  0  0  0  0  0
   26.2722  -20.8113   -9.3846 C   0  0  0  0  0  0  0  0  0  0  0  0
   26.7383  -19.6490   -8.8197 C   0  0  0  0  0  0  0  0  0  0  0  0
   26.6703  -18.4302   -9.4854 C   0  0  0  0  0  0  0  0  0  0  0  0
   26.1207  -18.3929  -10.7429 C   0  0  0  0  0  0  0  0  0  0  0  0
   25.6403  -19.5454  -11.3443 C   0  0  0  0  0  0  0  0  0  0  0  0
   26.0135  -19.8610  -15.4027 C   0  0  0  0  0  0  0  0  0  0  0  0
   25.1540  -20.1457  -16.3397 O   0  0  0  0  0  0  0  0  0  0  0  0
   27.0110  -20.8209  -15.2309 N   0  0  0  0  0  0  0  0  0  0  0  0
   27.8852  -20.9410  -14.0484 C   0  0  0  0  0  0  0  0  0  0  0  0
   29.0945  -21.7130  -14.4829 C   0  0  0  0  0  0  0  0  0  0  0  0
   28.8959  -22.0063  -15.9548 C   0  0  0  0  0  0  0  0  0  0  0  0
   27.3859  -21.9139  -16.0662 C   0  0  1  0  0  0  0  0  0  0  0  0
   26.8771  -23.2192  -15.5241 C   0  0  0  0  0  0  0  0  0  0  0  0
   27.0952  -24.3105  -16.0890 O   0  0  0  0  0  0  0  0  0  0  0  0
   26.1407  -23.1859  -14.3523 O   0  0  0  0  0  0  0  0  0  0  0  0
  2  1  1  0
  3  2  2  0
  4  2  1  0
  5  4  1  0
  6  5  1  0
  6  7  1  1
  8  6  1  0
  8  9  2  0
 10  8  1  0
 11 10  1  0
 11 12  1  1
 13 12  1  0
 13 14  2  0
 15 14  1  0
 16 21  2  0
 16 15  1  0
 17 16  1  0
 18 19  1  0
 18 17  2  0
 19 20  2  0
 20 21  1  0
 21 13  1  0
 22 11  1  0
 23 22  2  0
 24 22  1  0
 24 25  1  0
 26 25  1  0
 27 28  1  0
 27 26  1  0
 28 24  1  0
 28 29  1  1
 30 29  2  0
 31 29  1  0
M  END
$$$$
