QWP.pdb
     RDKit          3D

 31 33  0  0  1  0  0  0  0  0999 V2000
   28.1221  -14.4141  -15.1505 N   0  0  0  0  0  0  0  0  0  0  0  0
   27.1889  -14.8091  -16.1695 C   0  0  0  0  0  0  0  0  0  0  0  0
   27.0786  -14.0198  -17.1310 O   0  0  0  0  0  0  0  0  0  0  0  0
   26.4154  -16.0471  -16.0899 C   0  0  0  0  0  0  0  0  0  0  0  0
   26.6346  -16.8914  -14.8744 C   0  0  0  0  0  0  0  0  0  0  0  0
   27.6253  -17.9662  -15.1284 C   0  0  2  0  0  0  0  0  0  0  0  0
   28.2140  -18.0192  -16.4152 N   0  0  0  0  0  0  0  0  0  0  0  0
   27.0979  -19.3140  -14.7653 C   0  0  0  0  0  0  0  0  0  0  0  0
   26.7104  -20.0561  -15.6968 O   0  0  0  0  0  0  0  0  0  0  0  0
   27.0300  -19.7551  -13.4272 N   0  0  0  0  0  0  0  0  0  0  0  0
   26.4702  -21.1265  -13.1686 C   0  0  1  0  0  0  0  0  0  0  0  0
   27.0721  -21.5745  -11.8600 C   0  0  0  0  0  0  0  0  0  0  0  0
   26.4713  -21.0299  -10.6529 C   0  0  0  0  0  0  0  0  0  0  0  0
   25.1539  -20.6705  -10.4069 C   0  0  0  0  0  0  0  0  0  0  0  0
   25.0408  -20.1966   -9.1600 N   0  0  0  0  0  0  0  0  0  0  0  0
   26.2434  -20.2167   -8.5318 C   0  0  0  0  0  0  0  0  0  0  0  0
   26.6385  -19.8413   -7.2685 C   0  0  0  0  0  0  0  0  0  0  0  0
   27.9625  -19.9927   -6.9347 C   0  0  0  0  0  0  0  0  0  0  0  0
   28.8917  -20.5078   -7.8316 C   0  0  0  0  0  0  0  0  0  0  0  0
   28.4686  -20.8740   -9.0852 C   0  0  0  0  0  0  0  0  0  0  0  0
   27.1407  -20.7355   -9.4571 C   0  0  0  0  0  0  0  0  0  0  0  0
   25.0138  -20.9560  -13.0341 C   0  0  0  0  0  0  0  0  0  0  0  0
   24.6042  -19.8384  -12.5040 O   0  0  0  0  0  0  0  0  0  0  0  0
   23.9864  -21.8252  -13.4010 N   0  0  0  0  0  0  0  0  0  0  0  0
   24.1283  -23.2812  -13.5934 C   0  0  0  0  0  0  0  0  0  0  0  0
   22.9811  -23.7160  -14.4550 C   0  0  0  0  0  0  0  0  0  0  0  0
   22.1962  -22.4603  -14.7698 C   0  0  0  0  0  0  0  0  0  0  0  0
   22.5993  -21.5696  -13.6101 C   0  0  1  0  0  0  0  0  0  0  0  0
   21.7721  -22.0460  -12.4501 C   0  0  0  0  0  0  0  0  0  0  0  0
   20.5513  -21.8053  -12.3536 O   0  0  0  0  0  0  0  0  0  0  0  0
   22.4095  -22.7779  -11.4629 O   0  0  0  0  0  0  0  0  0  0  0  0
  2  1  1  0
  3  2  2  0
  4  2  1  0
  5  4  1  0
  6  5  1  0
  6  7  1  6
  8  6  1  0
  8  9  2  0
 10  8  1  0
 11 10  1  0
 11 12  1  1
 13 12  1  0
 13 14  2  0
 15 14  1  0
 16 21  2  0
 16 15  1  0
 17 16  1  0
 18 19  1  0
 18 17  2  0
 19 20  2  0
 20 21  1  0
 21 13  1  0
 22 11  1  0
 23 22  2  0
 24 22  1  0
 24 25  1  0
 26 25  1  0
 27 28  1  0
 27 26  1  0
 28 24  1  0
 28 29  1  1
 30 29  2  0
 31 29  1  0
M  END
$$$$
