QWP.pdb
     RDKit          3D

 31 33  0  0  1  0  0  0  0  0999 V2000
   43.1360   -9.3597   -3.4081 N   0  0  0  0  0  0  0  0  0  0  0  0
   44.4622   -9.8191   -3.0993 C   0  0  0  0  0  0  0  0  0  0  0  0
   44.6709  -10.0873   -1.8975 O   0  0  0  0  0  0  0  0  0  0  0  0
   45.5019   -9.9612   -4.1172 C   0  0  0  0  0  0  0  0  0  0  0  0
   45.0846   -9.7160   -5.5328 C   0  0  0  0  0  0  0  0  0  0  0  0
   44.4006  -10.8980   -6.1124 C   0  0  2  0  0  0  0  0  0  0  0  0
   45.2154  -11.9476   -6.6018 N   0  0  0  0  0  0  0  0  0  0  0  0
   43.4018  -10.5154   -7.1529 C   0  0  0  0  0  0  0  0  0  0  0  0
   43.8180  -10.3427   -8.3215 O   0  0  0  0  0  0  0  0  0  0  0  0
   42.0339  -10.3493   -6.8515 N   0  0  0  0  0  0  0  0  0  0  0  0
   41.1942   -9.5590   -7.8166 C   0  0  1  0  0  0  0  0  0  0  0  0
   39.7825  -10.0583   -7.6354 C   0  0  0  0  0  0  0  0  0  0  0  0
   38.7254   -9.2137   -8.1679 C   0  0  0  0  0  0  0  0  0  0  0  0
   38.4658   -8.8458   -9.4803 C   0  0  0  0  0  0  0  0  0  0  0  0
   37.3973   -8.0402   -9.5202 N   0  0  0  0  0  0  0  0  0  0  0  0
   36.9065   -7.8379   -8.2715 C   0  0  0  0  0  0  0  0  0  0  0  0
   35.8431   -7.1040   -7.7985 C   0  0  0  0  0  0  0  0  0  0  0  0
   35.6081   -7.1070   -6.4449 C   0  0  0  0  0  0  0  0  0  0  0  0
   36.4085   -7.8234   -5.5621 C   0  0  0  0  0  0  0  0  0  0  0  0
   37.4625   -8.5466   -6.0628 C   0  0  0  0  0  0  0  0  0  0  0  0
   37.7299   -8.5670   -7.4225 C   0  0  0  0  0  0  0  0  0  0  0  0
   41.3009   -8.1520   -7.3957 C   0  0  0  0  0  0  0  0  0  0  0  0
   41.2603   -7.9222   -6.1138 O   0  0  0  0  0  0  0  0  0  0  0  0
   41.4473   -7.0061   -8.1776 N   0  0  0  0  0  0  0  0  0  0  0  0
   41.3308   -6.9554   -9.6476 C   0  0  0  0  0  0  0  0  0  0  0  0
   42.0493   -5.7179  -10.0946 C   0  0  0  0  0  0  0  0  0  0  0  0
   42.6014   -5.0790   -8.8381 C   0  0  0  0  0  0  0  0  0  0  0  0
   41.6680   -5.6522   -7.7888 C   0  0  1  0  0  0  0  0  0  0  0  0
   40.4114   -4.8367   -7.9013 C   0  0  0  0  0  0  0  0  0  0  0  0
   40.2519   -3.7627   -7.2859 O   0  0  0  0  0  0  0  0  0  0  0  0
   39.4061   -5.3141   -8.7246 O   0  0  0  0  0  0  0  0  0  0  0  0
  2  1  1  0
  3  2  2  0
  4  2  1  0
  5  4  1  0
  6  5  1  0
  6  7  1  6
  8  6  1  0
  8  9  2  0
 10  8  1  0
 11 10  1  0
 11 12  1  1
 13 12  1  0
 13 14  2  0
 15 14  1  0
 16 21  2  0
 16 15  1  0
 17 16  1  0
 18 19  1  0
 18 17  2  0
 19 20  2  0
 20 21  1  0
 21 13  1  0
 22 11  1  0
 23 22  2  0
 24 22  1  0
 24 25  1  0
 26 25  1  0
 27 28  1  0
 27 26  1  0
 28 24  1  0
 28 29  1  6
 30 29  2  0
 31 29  1  0
M  END
$$$$
