QWP.pdb
     RDKit          3D

 31 33  0  0  1  0  0  0  0  0999 V2000
   19.6701  -21.0391  -11.8277 N   0  0  0  0  0  0  0  0  0  0  0  0
   20.3824  -22.2872  -11.8252 C   0  0  0  0  0  0  0  0  0  0  0  0
   20.1139  -23.0563  -10.8786 O   0  0  0  0  0  0  0  0  0  0  0  0
   21.3590  -22.6371  -12.8553 C   0  0  0  0  0  0  0  0  0  0  0  0
   21.5571  -21.6378  -13.9510 C   0  0  0  0  0  0  0  0  0  0  0  0
   22.0309  -20.3353  -13.4220 C   0  0  2  0  0  0  0  0  0  0  0  0
   21.1035  -19.2655  -13.3972 N   0  0  0  0  0  0  0  0  0  0  0  0
   23.2924  -19.8865  -14.0807 C   0  0  0  0  0  0  0  0  0  0  0  0
   23.1905  -19.1894  -15.1162 O   0  0  0  0  0  0  0  0  0  0  0  0
   24.5636  -20.2246  -13.5713 N   0  0  0  0  0  0  0  0  0  0  0  0
   25.7707  -19.6567  -14.2651 C   0  0  1  0  0  0  0  0  0  0  0  0
   26.6461  -19.0972  -13.1715 C   0  0  0  0  0  0  0  0  0  0  0  0
   26.6954  -19.8559  -11.9320 C   0  0  0  0  0  0  0  0  0  0  0  0
   25.6754  -20.1610  -11.0422 C   0  0  0  0  0  0  0  0  0  0  0  0
   26.1665  -20.8709  -10.0190 N   0  0  0  0  0  0  0  0  0  0  0  0
   27.5001  -21.0681  -10.1727 C   0  0  0  0  0  0  0  0  0  0  0  0
   28.4373  -21.7225   -9.4068 C   0  0  0  0  0  0  0  0  0  0  0  0
   29.7367  -21.7400   -9.8524 C   0  0  0  0  0  0  0  0  0  0  0  0
   30.1146  -21.1215  -11.0388 C   0  0  0  0  0  0  0  0  0  0  0  0
   29.1580  -20.4761  -11.7824 C   0  0  0  0  0  0  0  0  0  0  0  0
   27.8372  -20.4378  -11.3642 C   0  0  0  0  0  0  0  0  0  0  0  0
   26.4352  -20.7921  -14.9265 C   0  0  0  0  0  0  0  0  0  0  0  0
   26.1366  -21.9807  -14.4841 O   0  0  0  0  0  0  0  0  0  0  0  0
   27.3499  -20.7871  -15.9797 N   0  0  0  0  0  0  0  0  0  0  0  0
   28.2824  -19.6880  -16.2949 C   0  0  0  0  0  0  0  0  0  0  0  0
   28.6765  -19.8557  -17.7316 C   0  0  0  0  0  0  0  0  0  0  0  0
   27.9202  -21.0675  -18.2331 C   0  0  0  0  0  0  0  0  0  0  0  0
   27.6574  -21.8023  -16.9325 C   0  0  1  0  0  0  0  0  0  0  0  0
   28.9539  -22.4874  -16.6059 C   0  0  0  0  0  0  0  0  0  0  0  0
   29.7101  -22.0923  -15.6951 O   0  0  0  0  0  0  0  0  0  0  0  0
   29.3022  -23.5969  -17.3569 O   0  0  0  0  0  0  0  0  0  0  0  0
  2  1  1  0
  3  2  2  0
  4  2  1  0
  5  4  1  0
  6  5  1  0
  6  7  1  6
  8  6  1  0
  8  9  2  0
 10  8  1  0
 11 10  1  0
 11 12  1  1
 13 12  1  0
 13 14  2  0
 15 14  1  0
 16 21  2  0
 16 15  1  0
 17 16  1  0
 18 19  1  0
 18 17  2  0
 19 20  2  0
 20 21  1  0
 21 13  1  0
 22 11  1  0
 23 22  2  0
 24 22  1  0
 24 25  1  0
 26 25  1  0
 27 28  1  0
 27 26  1  0
 28 24  1  0
 28 29  1  1
 30 29  2  0
 31 29  1  0
M  END
$$$$
