QWP.pdb
     RDKit          3D

 31 33  0  0  1  0  0  0  0  0999 V2000
   23.3543  -22.3430  -15.9415 N   0  0  0  0  0  0  0  0  0  0  0  0
   22.2433  -21.4405  -16.0691 C   0  0  0  0  0  0  0  0  0  0  0  0
   22.1208  -20.8948  -17.1856 O   0  0  0  0  0  0  0  0  0  0  0  0
   21.3182  -21.1721  -14.9693 C   0  0  0  0  0  0  0  0  0  0  0  0
   21.5155  -21.9759  -13.7230 C   0  0  0  0  0  0  0  0  0  0  0  0
   21.8053  -21.1086  -12.5548 C   0  0  2  0  0  0  0  0  0  0  0  0
   20.9138  -20.0382  -12.3005 N   0  0  0  0  0  0  0  0  0  0  0  0
   23.2072  -20.5976  -12.5680 C   0  0  0  0  0  0  0  0  0  0  0  0
   23.3775  -19.3750  -12.7797 O   0  0  0  0  0  0  0  0  0  0  0  0
   24.3142  -21.4447  -12.3522 N   0  0  0  0  0  0  0  0  0  0  0  0
   25.6832  -20.8227  -12.3506 C   0  0  1  0  0  0  0  0  0  0  0  0
   26.4449  -21.5118  -11.2460 C   0  0  0  0  0  0  0  0  0  0  0  0
   26.3942  -20.8819   -9.9363 C   0  0  0  0  0  0  0  0  0  0  0  0
   25.3452  -20.2198   -9.3149 C   0  0  0  0  0  0  0  0  0  0  0  0
   25.7381  -19.7794   -8.1133 N   0  0  0  0  0  0  0  0  0  0  0  0
   27.0317  -20.1173   -7.8818 C   0  0  0  0  0  0  0  0  0  0  0  0
   27.8732  -19.8975   -6.8156 C   0  0  0  0  0  0  0  0  0  0  0  0
   29.1564  -20.3814   -6.8959 C   0  0  0  0  0  0  0  0  0  0  0  0
   29.6113  -21.0749   -8.0118 C   0  0  0  0  0  0  0  0  0  0  0  0
   28.7493  -21.2791   -9.0606 C   0  0  0  0  0  0  0  0  0  0  0  0
   27.4477  -20.8055   -9.0148 C   0  0  0  0  0  0  0  0  0  0  0  0
   26.2779  -21.1375  -13.6604 C   0  0  0  0  0  0  0  0  0  0  0  0
   25.8973  -22.2504  -14.2211 O   0  0  0  0  0  0  0  0  0  0  0  0
   27.2011  -20.4068  -14.4085 N   0  0  0  0  0  0  0  0  0  0  0  0
   28.1991  -19.4718  -13.8548 C   0  0  0  0  0  0  0  0  0  0  0  0
   28.5962  -18.5539  -14.9717 C   0  0  0  0  0  0  0  0  0  0  0  0
   27.7751  -18.9767  -16.1712 C   0  0  0  0  0  0  0  0  0  0  0  0
   27.4576  -20.4156  -15.8110 C   0  0  1  0  0  0  0  0  0  0  0  0
   28.7087  -21.1812  -16.1356 C   0  0  0  0  0  0  0  0  0  0  0  0
   29.1592  -21.2683  -17.2962 O   0  0  0  0  0  0  0  0  0  0  0  0
   29.3702  -21.8053  -15.0919 O   0  0  0  0  0  0  0  0  0  0  0  0
  2  1  1  0
  3  2  2  0
  4  2  1  0
  5  4  1  0
  6  5  1  0
  6  7  1  6
  8  6  1  0
  8  9  2  0
 10  8  1  0
 11 10  1  0
 11 12  1  1
 13 12  1  0
 13 14  2  0
 15 14  1  0
 16 21  2  0
 16 15  1  0
 17 16  1  0
 18 19  1  0
 18 17  2  0
 19 20  2  0
 20 21  1  0
 21 13  1  0
 22 11  1  0
 23 22  2  0
 24 22  1  0
 24 25  1  0
 26 25  1  0
 27 28  1  0
 27 26  1  0
 28 24  1  0
 28 29  1  1
 30 29  2  0
 31 29  1  0
M  END
$$$$
