QWP.pdb
     RDKit          3D

 31 33  0  0  1  0  0  0  0  0999 V2000
   24.8919  -17.8686  -15.7694 N   0  0  0  0  0  0  0  0  0  0  0  0
   26.0365  -18.3536  -16.4904 C   0  0  0  0  0  0  0  0  0  0  0  0
   25.8118  -19.2877  -17.2881 O   0  0  0  0  0  0  0  0  0  0  0  0
   27.3760  -17.7983  -16.3042 C   0  0  0  0  0  0  0  0  0  0  0  0
   27.9011  -17.7835  -14.9033 C   0  0  0  0  0  0  0  0  0  0  0  0
   28.5599  -19.0661  -14.5542 C   0  0  2  0  0  0  0  0  0  0  0  0
   28.8574  -19.9559  -15.6147 N   0  0  0  0  0  0  0  0  0  0  0  0
   27.8297  -19.7986  -13.4786 C   0  0  0  0  0  0  0  0  0  0  0  0
   27.3019  -20.8943  -13.7777 O   0  0  0  0  0  0  0  0  0  0  0  0
   27.7261  -19.2921  -12.1662 N   0  0  0  0  0  0  0  0  0  0  0  0
   27.0223  -20.1382  -11.1416 C   0  0  1  0  0  0  0  0  0  0  0  0
   27.3284  -19.5048   -9.8073 C   0  0  0  0  0  0  0  0  0  0  0  0
   26.7151  -20.1235   -8.6429 C   0  0  0  0  0  0  0  0  0  0  0  0
   25.5598  -20.8867   -8.5541 C   0  0  0  0  0  0  0  0  0  0  0  0
   25.3524  -21.2450   -7.2810 N   0  0  0  0  0  0  0  0  0  0  0  0
   26.3319  -20.7520   -6.4819 C   0  0  0  0  0  0  0  0  0  0  0  0
   26.5604  -20.8424   -5.1281 C   0  0  0  0  0  0  0  0  0  0  0  0
   27.6703  -20.2142   -4.6176 C   0  0  0  0  0  0  0  0  0  0  0  0
   28.5492  -19.5031   -5.4270 C   0  0  0  0  0  0  0  0  0  0  0  0
   28.2957  -19.4300   -6.7743 C   0  0  0  0  0  0  0  0  0  0  0  0
   27.1858  -20.0512   -7.3246 C   0  0  0  0  0  0  0  0  0  0  0  0
   25.5847  -20.0355  -11.4429 C   0  0  0  0  0  0  0  0  0  0  0  0
   25.0937  -18.8324  -11.5393 O   0  0  0  0  0  0  0  0  0  0  0  0
   24.6521  -21.0519  -11.6502 N   0  0  0  0  0  0  0  0  0  0  0  0
   24.8735  -22.4834  -11.3697 C   0  0  0  0  0  0  0  0  0  0  0  0
   23.8761  -23.2431  -12.1915 C   0  0  0  0  0  0  0  0  0  0  0  0
   23.0973  -22.2032  -12.9688 C   0  0  0  0  0  0  0  0  0  0  0  0
   23.2998  -20.9791  -12.0962 C   0  0  1  0  0  0  0  0  0  0  0  0
   22.3357  -21.1518  -10.9572 C   0  0  0  0  0  0  0  0  0  0  0  0
   22.6985  -21.5225   -9.8221 O   0  0  0  0  0  0  0  0  0  0  0  0
   20.9993  -20.8837  -11.1992 O   0  0  0  0  0  0  0  0  0  0  0  0
  2  1  1  0
  3  2  2  0
  4  2  1  0
  5  4  1  0
  6  5  1  0
  6  7  1  6
  8  6  1  0
  8  9  2  0
 10  8  1  0
 11 10  1  0
 11 12  1  1
 13 12  1  0
 13 14  2  0
 15 14  1  0
 16 21  2  0
 16 15  1  0
 17 16  1  0
 18 19  1  0
 18 17  2  0
 19 20  2  0
 20 21  1  0
 21 13  1  0
 22 11  1  0
 23 22  2  0
 24 22  1  0
 24 25  1  0
 26 25  1  0
 27 28  1  0
 27 26  1  0
 28 24  1  0
 28 29  1  1
 30 29  2  0
 31 29  1  0
M  END
$$$$
