QWP.pdb
     RDKit          3D

 31 33  0  0  1  0  0  0  0  0999 V2000
   25.2763  -21.1416  -18.1624 N   0  0  0  0  0  0  0  0  0  0  0  0
   26.6019  -20.7662  -18.5710 C   0  0  0  0  0  0  0  0  0  0  0  0
   26.6628  -19.9916  -19.5487 O   0  0  0  0  0  0  0  0  0  0  0  0
   27.8016  -21.2573  -17.8950 C   0  0  0  0  0  0  0  0  0  0  0  0
   27.5881  -22.2646  -16.8096 C   0  0  0  0  0  0  0  0  0  0  0  0
   28.1905  -21.8215  -15.5283 C   0  0  2  0  0  0  0  0  0  0  0  0
   29.4173  -22.4157  -15.1448 N   0  0  0  0  0  0  0  0  0  0  0  0
   27.2227  -21.9001  -14.3952 C   0  0  0  0  0  0  0  0  0  0  0  0
   26.4521  -22.8867  -14.3572 O   0  0  0  0  0  0  0  0  0  0  0  0
   27.1621  -20.9093  -13.3930 N   0  0  0  0  0  0  0  0  0  0  0  0
   26.1535  -21.0865  -12.2920 C   0  0  1  0  0  0  0  0  0  0  0  0
   26.6138  -20.1929  -11.1673 C   0  0  0  0  0  0  0  0  0  0  0  0
   27.7457  -20.6674  -10.3874 C   0  0  0  0  0  0  0  0  0  0  0  0
   28.7898  -21.5004  -10.7631 C   0  0  0  0  0  0  0  0  0  0  0  0
   29.6103  -21.6927   -9.7230 N   0  0  0  0  0  0  0  0  0  0  0  0
   29.1657  -21.0161   -8.6341 C   0  0  0  0  0  0  0  0  0  0  0  0
   29.6498  -20.8980   -7.3516 C   0  0  0  0  0  0  0  0  0  0  0  0
   28.9469  -20.1179   -6.4658 C   0  0  0  0  0  0  0  0  0  0  0  0
   27.7791  -19.4590   -6.8337 C   0  0  0  0  0  0  0  0  0  0  0  0
   27.3199  -19.5953   -8.1202 C   0  0  0  0  0  0  0  0  0  0  0  0
   28.0027  -20.3740   -9.0411 C   0  0  0  0  0  0  0  0  0  0  0  0
   24.8686  -20.6129  -12.8332 C   0  0  0  0  0  0  0  0  0  0  0  0
   24.9177  -19.5953  -13.6455 O   0  0  0  0  0  0  0  0  0  0  0  0
   23.5821  -21.1027  -12.6072 N   0  0  0  0  0  0  0  0  0  0  0  0
   23.2283  -22.1561  -11.6366 C   0  0  0  0  0  0  0  0  0  0  0  0
   21.9107  -22.7211  -12.0748 C   0  0  0  0  0  0  0  0  0  0  0  0
   21.5370  -21.9766  -13.3390 C   0  0  0  0  0  0  0  0  0  0  0  0
   22.3350  -20.6981  -13.1675 C   0  0  1  0  0  0  0  0  0  0  0  0
   21.5392  -19.8721  -12.1973 C   0  0  0  0  0  0  0  0  0  0  0  0
   21.8862  -19.7143  -11.0089 O   0  0  0  0  0  0  0  0  0  0  0  0
   20.3808  -19.2728  -12.6615 O   0  0  0  0  0  0  0  0  0  0  0  0
  2  1  1  0
  3  2  2  0
  4  2  1  0
  5  4  1  0
  6  5  1  0
  6  7  1  1
  8  6  1  0
  8  9  2  0
 10  8  1  0
 11 10  1  0
 11 12  1  1
 13 12  1  0
 13 14  2  0
 15 14  1  0
 16 21  2  0
 16 15  1  0
 17 16  1  0
 18 19  1  0
 18 17  2  0
 19 20  2  0
 20 21  1  0
 21 13  1  0
 22 11  1  0
 23 22  2  0
 24 22  1  0
 24 25  1  0
 26 25  1  0
 27 28  1  0
 27 26  1  0
 28 24  1  0
 28 29  1  1
 30 29  2  0
 31 29  1  0
M  END
$$$$
