QWP.pdb
     RDKit          3D

 31 33  0  0  1  0  0  0  0  0999 V2000
   28.0357  -18.1170  -17.9349 N   0  0  0  0  0  0  0  0  0  0  0  0
   29.2785  -17.7385  -17.3207 C   0  0  0  0  0  0  0  0  0  0  0  0
   29.9162  -16.8403  -17.9091 O   0  0  0  0  0  0  0  0  0  0  0  0
   29.7704  -18.3614  -16.0929 C   0  0  0  0  0  0  0  0  0  0  0  0
   28.9606  -19.4976  -15.5530 C   0  0  0  0  0  0  0  0  0  0  0  0
   27.8384  -19.0158  -14.7108 C   0  0  2  0  0  0  0  0  0  0  0  0
   27.7807  -17.6284  -14.4331 N   0  0  0  0  0  0  0  0  0  0  0  0
   27.7208  -19.7845  -13.4373 C   0  0  0  0  0  0  0  0  0  0  0  0
   27.9632  -21.0127  -13.4760 O   0  0  0  0  0  0  0  0  0  0  0  0
   27.3513  -19.1688  -12.2232 N   0  0  0  0  0  0  0  0  0  0  0  0
   26.7704  -20.0396  -11.1437 C   0  0  1  0  0  0  0  0  0  0  0  0
   26.9508  -19.2727   -9.8574 C   0  0  0  0  0  0  0  0  0  0  0  0
   26.4469  -19.9083   -8.6505 C   0  0  0  0  0  0  0  0  0  0  0  0
   25.2088  -20.4854   -8.4074 C   0  0  0  0  0  0  0  0  0  0  0  0
   25.1624  -20.9409   -7.1494 N   0  0  0  0  0  0  0  0  0  0  0  0
   26.3345  -20.6967   -6.5109 C   0  0  0  0  0  0  0  0  0  0  0  0
   26.7713  -20.9666   -5.2344 C   0  0  0  0  0  0  0  0  0  0  0  0
   28.0443  -20.5792   -4.8925 C   0  0  0  0  0  0  0  0  0  0  0  0
   28.8823  -19.9326   -5.7941 C   0  0  0  0  0  0  0  0  0  0  0  0
   28.4194  -19.6765   -7.0609 C   0  0  0  0  0  0  0  0  0  0  0  0
   27.1409  -20.0528   -7.4413 C   0  0  0  0  0  0  0  0  0  0  0  0
   25.3398  -20.1853  -11.4602 C   0  0  0  0  0  0  0  0  0  0  0  0
   24.6604  -19.0834  -11.6089 O   0  0  0  0  0  0  0  0  0  0  0  0
   24.5887  -21.3479  -11.6338 N   0  0  0  0  0  0  0  0  0  0  0  0
   25.0306  -22.7102  -11.2791 C   0  0  0  0  0  0  0  0  0  0  0  0
   24.1900  -23.6584  -12.0802 C   0  0  0  0  0  0  0  0  0  0  0  0
   23.2741  -22.7953  -12.9217 C   0  0  0  0  0  0  0  0  0  0  0  0
   23.2543  -21.5159  -12.1071 C   0  0  1  0  0  0  0  0  0  0  0  0
   22.3016  -21.7902  -10.9784 C   0  0  0  0  0  0  0  0  0  0  0  0
   21.0663  -21.8534  -11.1441 O   0  0  0  0  0  0  0  0  0  0  0  0
   22.8371  -21.9768   -9.7155 O   0  0  0  0  0  0  0  0  0  0  0  0
  2  1  1  0
  3  2  2  0
  4  2  1  0
  5  4  1  0
  6  5  1  0
  6  7  1  1
  8  6  1  0
  8  9  2  0
 10  8  1  0
 11 10  1  0
 11 12  1  1
 13 12  1  0
 13 14  2  0
 15 14  1  0
 16 21  2  0
 16 15  1  0
 17 16  1  0
 18 19  1  0
 18 17  2  0
 19 20  2  0
 20 21  1  0
 21 13  1  0
 22 11  1  0
 23 22  2  0
 24 22  1  0
 24 25  1  0
 26 25  1  0
 27 28  1  0
 27 26  1  0
 28 24  1  0
 28 29  1  1
 30 29  2  0
 31 29  1  0
M  END
$$$$
