QWP.pdb
     RDKit          3D

 31 33  0  0  1  0  0  0  0  0999 V2000
   23.2996  -21.1650  -17.2465 N   0  0  0  0  0  0  0  0  0  0  0  0
   24.6197  -20.9077  -16.7400 C   0  0  0  0  0  0  0  0  0  0  0  0
   25.4947  -20.6963  -17.6056 O   0  0  0  0  0  0  0  0  0  0  0  0
   24.9248  -20.8969  -15.3103 C   0  0  0  0  0  0  0  0  0  0  0  0
   23.7817  -21.1683  -14.3841 C   0  0  0  0  0  0  0  0  0  0  0  0
   23.7581  -20.2105  -13.2515 C   0  0  2  0  0  0  0  0  0  0  0  0
   24.1759  -18.8828  -13.5118 N   0  0  0  0  0  0  0  0  0  0  0  0
   24.4808  -20.7354  -12.0562 C   0  0  0  0  0  0  0  0  0  0  0  0
   24.6686  -21.9718  -11.9879 O   0  0  0  0  0  0  0  0  0  0  0  0
   24.9437  -19.8863  -11.0293 N   0  0  0  0  0  0  0  0  0  0  0  0
   25.5843  -20.5240   -9.8276 C   0  0  1  0  0  0  0  0  0  0  0  0
   26.8304  -19.7198   -9.5527 C   0  0  0  0  0  0  0  0  0  0  0  0
   27.7744  -20.2944   -8.6075 C   0  0  0  0  0  0  0  0  0  0  0  0
   28.5591  -21.4326   -8.7246 C   0  0  0  0  0  0  0  0  0  0  0  0
   29.2752  -21.6040   -7.6066 N   0  0  0  0  0  0  0  0  0  0  0  0
   29.0104  -20.6159   -6.7151 C   0  0  0  0  0  0  0  0  0  0  0  0
   29.4828  -20.3547   -5.4496 C   0  0  0  0  0  0  0  0  0  0  0  0
   29.0017  -19.2454   -4.7973 C   0  0  0  0  0  0  0  0  0  0  0  0
   28.0654  -18.3990   -5.3805 C   0  0  0  0  0  0  0  0  0  0  0  0
   27.6121  -18.6846   -6.6444 C   0  0  0  0  0  0  0  0  0  0  0  0
   28.0749  -19.7949   -7.3327 C   0  0  0  0  0  0  0  0  0  0  0  0
   24.6217  -20.3761   -8.7232 C   0  0  0  0  0  0  0  0  0  0  0  0
   23.8834  -19.3025   -8.7332 O   0  0  0  0  0  0  0  0  0  0  0  0
   24.3724  -21.2316   -7.6500 N   0  0  0  0  0  0  0  0  0  0  0  0
   25.1680  -22.4263   -7.3083 C   0  0  0  0  0  0  0  0  0  0  0  0
   24.2906  -23.3018   -6.4651 C   0  0  0  0  0  0  0  0  0  0  0  0
   22.9625  -22.5829   -6.3585 C   0  0  0  0  0  0  0  0  0  0  0  0
   23.3875  -21.1509   -6.6221 C   0  0  1  0  0  0  0  0  0  0  0  0
   23.9834  -20.6790   -5.3263 C   0  0  0  0  0  0  0  0  0  0  0  0
   25.2150  -20.5764   -5.1528 O   0  0  0  0  0  0  0  0  0  0  0  0
   23.1141  -20.3512   -4.3000 O   0  0  0  0  0  0  0  0  0  0  0  0
  2  1  1  0
  3  2  2  0
  4  2  1  0
  5  4  1  0
  6  5  1  0
  6  7  1  6
  8  6  1  0
  8  9  2  0
 10  8  1  0
 11 10  1  0
 11 12  1  1
 13 12  1  0
 13 14  2  0
 15 14  1  0
 16 21  2  0
 16 15  1  0
 17 16  1  0
 18 19  1  0
 18 17  2  0
 19 20  2  0
 20 21  1  0
 21 13  1  0
 22 11  1  0
 23 22  2  0
 24 22  1  0
 24 25  1  0
 26 25  1  0
 27 28  1  0
 27 26  1  0
 28 24  1  0
 28 29  1  1
 30 29  2  0
 31 29  1  0
M  END
$$$$
