QWP.pdb
     RDKit          3D

 31 33  0  0  1  0  0  0  0  0999 V2000
   18.4871  -21.1311  -13.6371 N   0  0  0  0  0  0  0  0  0  0  0  0
   19.1824  -22.3712  -13.8468 C   0  0  0  0  0  0  0  0  0  0  0  0
   18.4587  -23.3865  -13.9185 O   0  0  0  0  0  0  0  0  0  0  0  0
   20.6376  -22.4464  -13.9647 C   0  0  0  0  0  0  0  0  0  0  0  0
   21.3904  -21.1748  -13.7313 C   0  0  0  0  0  0  0  0  0  0  0  0
   22.1015  -21.1931  -12.4293 C   0  0  2  0  0  0  0  0  0  0  0  0
   21.4347  -20.6295  -11.3145 N   0  0  0  0  0  0  0  0  0  0  0  0
   23.4753  -20.6195  -12.5310 C   0  0  0  0  0  0  0  0  0  0  0  0
   23.5849  -19.4476  -12.9592 O   0  0  0  0  0  0  0  0  0  0  0  0
   24.6218  -21.3543  -12.1633 N   0  0  0  0  0  0  0  0  0  0  0  0
   25.9609  -20.6879  -12.3174 C   0  0  1  0  0  0  0  0  0  0  0  0
   26.8274  -21.2509  -11.2186 C   0  0  0  0  0  0  0  0  0  0  0  0
   26.6885  -20.6368   -9.9078 C   0  0  0  0  0  0  0  0  0  0  0  0
   25.5811  -20.0350   -9.3275 C   0  0  0  0  0  0  0  0  0  0  0  0
   25.8991  -19.5863   -8.1070 N   0  0  0  0  0  0  0  0  0  0  0  0
   27.1973  -19.8598   -7.8223 C   0  0  0  0  0  0  0  0  0  0  0  0
   27.9801  -19.6074   -6.7192 C   0  0  0  0  0  0  0  0  0  0  0  0
   29.2888  -20.0243   -6.7475 C   0  0  0  0  0  0  0  0  0  0  0  0
   29.8261  -20.6832   -7.8477 C   0  0  0  0  0  0  0  0  0  0  0  0
   29.0213  -20.9213   -8.9341 C   0  0  0  0  0  0  0  0  0  0  0  0
   27.6963  -20.5153   -8.9412 C   0  0  0  0  0  0  0  0  0  0  0  0
   26.4722  -21.0957  -13.6366 C   0  0  0  0  0  0  0  0  0  0  0  0
   26.0091  -22.2129  -14.1215 O   0  0  0  0  0  0  0  0  0  0  0  0
   27.3915  -20.4507  -14.4642 N   0  0  0  0  0  0  0  0  0  0  0  0
   28.4371  -19.5137  -14.0108 C   0  0  0  0  0  0  0  0  0  0  0  0
   28.8240  -18.6901  -15.2022 C   0  0  0  0  0  0  0  0  0  0  0  0
   27.9489  -19.1676  -16.3416 C   0  0  0  0  0  0  0  0  0  0  0  0
   27.5989  -20.5662  -15.8701 C   0  0  1  0  0  0  0  0  0  0  0  0
   28.8133  -21.3945  -16.1799 C   0  0  0  0  0  0  0  0  0  0  0  0
   29.5098  -21.9224  -15.2890 O   0  0  0  0  0  0  0  0  0  0  0  0
   29.1532  -21.5651  -17.5110 O   0  0  0  0  0  0  0  0  0  0  0  0
  2  1  1  0
  3  2  2  0
  4  2  1  0
  5  4  1  0
  6  5  1  0
  6  7  1  1
  8  6  1  0
  8  9  2  0
 10  8  1  0
 11 10  1  0
 11 12  1  1
 13 12  1  0
 13 14  2  0
 15 14  1  0
 16 21  2  0
 16 15  1  0
 17 16  1  0
 18 19  1  0
 18 17  2  0
 19 20  2  0
 20 21  1  0
 21 13  1  0
 22 11  1  0
 23 22  2  0
 24 22  1  0
 24 25  1  0
 26 25  1  0
 27 28  1  0
 27 26  1  0
 28 24  1  0
 28 29  1  1
 30 29  2  0
 31 29  1  0
M  END
$$$$
