LAC.pdb
     RDKit          3D

 20 19  0  0  1  0  0  0  0  0999 V2000
    7.1089  -13.0240   18.1381 C   0  0  0  0  0  0  0  0  0  0  0  0
    8.1015  -13.8683   18.8969 C   0  0  1  0  0  0  0  0  0  0  0  0
    9.4215  -13.1325   18.8987 C   0  0  0  0  0  0  0  0  0  0  0  0
    7.6779  -14.0896   20.3211 C   0  0  0  0  0  0  0  0  0  0  0  0
    8.6254  -14.9774   21.0951 C   0  0  2  0  0  0  0  0  0  0  0  0
    8.7330  -16.2630   20.4650 N   0  0  0  0  0  0  0  0  0  0  0  0
    8.1289  -15.0869   22.4933 C   0  0  0  0  0  0  0  0  0  0  0  0
    7.7166  -14.0691   23.1114 O   0  0  0  0  0  0  0  0  0  0  0  0
    7.4240  -17.8006   25.0442 C   0  0  0  0  0  0  0  0  0  0  0  0
    7.6970  -16.3814   24.5953 C   0  0  2  0  0  0  0  0  0  0  0  0
    8.0862  -16.3137   23.2099 N   0  0  0  0  0  0  0  0  0  0  0  0
    8.6162  -15.6737   25.4917 C   0  0  0  0  0  0  0  0  0  0  0  0
    9.8499  -15.7603   25.3098 O   0  0  0  0  0  0  0  0  0  0  0  0
    8.1205  -14.9008   26.5510 N   0  0  0  0  0  0  0  0  0  0  0  0
    8.9418  -14.1236   27.4507 C   0  0  1  0  0  0  0  0  0  0  0  0
    8.0696  -13.0366   28.0448 C   0  0  0  0  0  0  0  0  0  0  0  0
    7.2788  -12.1453   26.6957 S   0  0  0  0  0  0  0  0  0  0  0  0
    9.5832  -14.9345   28.4895 C   0  0  0  0  0  0  0  0  0  0  0  0
    9.2325  -16.1374   28.5998 O   0  0  0  0  0  0  0  0  0  0  0  0
   10.5551  -14.4762   29.3683 O   0  0  0  0  0  0  0  0  0  0  0  0
  2  4  1  0
  2  1  1  6
  3  2  1  0
  4  5  1  0
  5  7  1  0
  5  6  1  6
  7  8  2  0
 10  9  1  1
 10 12  1  0
 11 10  1  0
 11  7  1  0
 12 14  1  0
 13 12  2  0
 14 15  1  0
 15 16  1  1
 16 17  1  0
 18 20  1  0
 18 15  1  0
 19 18  2  0
M  END
$$$$
