LAC.pdb
     RDKit          3D

 20 19  0  0  1  0  0  0  0  0999 V2000
    6.0233  -11.8339   26.7847 C   0  0  0  0  0  0  0  0  0  0  0  0
    6.1200  -12.7898   25.6226 C   0  0  1  0  0  0  0  0  0  0  0  0
    6.7824  -12.0556   24.4797 C   0  0  0  0  0  0  0  0  0  0  0  0
    6.9486  -13.9976   25.9563 C   0  0  0  0  0  0  0  0  0  0  0  0
    6.9304  -15.0523   24.8735 C   0  0  2  0  0  0  0  0  0  0  0  0
    5.7193  -15.8200   24.9437 N   0  0  0  0  0  0  0  0  0  0  0  0
    8.1373  -15.9079   25.0319 C   0  0  0  0  0  0  0  0  0  0  0  0
    8.2827  -16.6331   26.0520 O   0  0  0  0  0  0  0  0  0  0  0  0
   11.2497  -16.8028   23.0515 C   0  0  0  0  0  0  0  0  0  0  0  0
   10.3977  -16.7035   24.2982 C   0  0  2  0  0  0  0  0  0  0  0  0
    9.1820  -15.9651   24.0697 N   0  0  0  0  0  0  0  0  0  0  0  0
   11.1541  -16.2307   25.4617 C   0  0  0  0  0  0  0  0  0  0  0  0
   12.0984  -15.4272   25.3030 O   0  0  0  0  0  0  0  0  0  0  0  0
   10.8250  -16.6739   26.7503 N   0  0  0  0  0  0  0  0  0  0  0  0
   11.6296  -16.4371   27.9270 C   0  0  1  0  0  0  0  0  0  0  0  0
   11.0102  -15.2780   28.6806 C   0  0  0  0  0  0  0  0  0  0  0  0
    9.8010  -14.4868   27.6074 S   0  0  0  0  0  0  0  0  0  0  0  0
   11.7711  -17.6238   28.7754 C   0  0  0  0  0  0  0  0  0  0  0  0
   12.4672  -17.5241   29.8184 O   0  0  0  0  0  0  0  0  0  0  0  0
   11.1931  -18.8591   28.5168 O   0  0  0  0  0  0  0  0  0  0  0  0
  2  4  1  0
  2  1  1  1
  3  2  1  0
  4  5  1  0
  5  7  1  0
  5  6  1  1
  7  8  2  0
 10  9  1  6
 10 12  1  0
 11 10  1  0
 11  7  1  0
 12 14  1  0
 13 12  2  0
 14 15  1  0
 15 16  1  1
 16 17  1  0
 18 20  1  0
 18 15  1  0
 19 18  2  0
M  END
$$$$
