LAC.pdb
     RDKit          3D

 20 19  0  0  1  0  0  0  0  0999 V2000
    7.2044  -12.7658   24.8256 C   0  0  0  0  0  0  0  0  0  0  0  0
    7.2902  -13.7069   26.0007 C   0  0  1  0  0  0  0  0  0  0  0  0
    6.9695  -12.9139   27.2466 C   0  0  0  0  0  0  0  0  0  0  0  0
    6.3061  -14.8363   25.8888 C   0  0  0  0  0  0  0  0  0  0  0  0
    6.5123  -15.6885   24.6574 C   0  0  2  0  0  0  0  0  0  0  0  0
    5.5359  -16.7399   24.6078 N   0  0  0  0  0  0  0  0  0  0  0  0
    7.9002  -16.2238   24.6846 C   0  0  0  0  0  0  0  0  0  0  0  0
    8.2687  -17.0111   25.5969 O   0  0  0  0  0  0  0  0  0  0  0  0
   10.8873  -16.3649   22.3814 C   0  0  0  0  0  0  0  0  0  0  0  0
   10.2048  -16.4608   23.7286 C   0  0  2  0  0  0  0  0  0  0  0  0
    8.8807  -15.8933   23.7100 N   0  0  0  0  0  0  0  0  0  0  0  0
   11.0394  -15.9512   24.8209 C   0  0  0  0  0  0  0  0  0  0  0  0
   12.1149  -15.3697   24.5605 O   0  0  0  0  0  0  0  0  0  0  0  0
   10.6391  -16.1120   26.1547 N   0  0  0  0  0  0  0  0  0  0  0  0
   11.4566  -15.7818   27.2995 C   0  0  1  0  0  0  0  0  0  0  0  0
   11.0535  -14.3985   27.7675 C   0  0  0  0  0  0  0  0  0  0  0  0
    9.3172  -14.4447   28.2400 S   0  0  0  0  0  0  0  0  0  0  0  0
   11.3621  -16.7697   28.3780 C   0  0  0  0  0  0  0  0  0  0  0  0
   10.5041  -17.6830   28.2683 O   0  0  0  0  0  0  0  0  0  0  0  0
   12.1508  -16.7772   29.5202 O   0  0  0  0  0  0  0  0  0  0  0  0
  2  4  1  0
  2  1  1  6
  3  2  1  0
  4  5  1  0
  5  7  1  0
  5  6  1  1
  7  8  2  0
 10  9  1  6
 10 12  1  0
 11 10  1  0
 11  7  1  0
 12 14  1  0
 13 12  2  0
 14 15  1  0
 15 16  1  1
 16 17  1  0
 18 20  1  0
 18 15  1  0
 19 18  2  0
M  END
$$$$
