LAC.pdb
     RDKit          3D

 20 19  0  0  1  0  0  0  0  0999 V2000
    6.0441  -12.2966   26.9217 C   0  0  0  0  0  0  0  0  0  0  0  0
    5.9671  -13.1875   25.7076 C   0  0  1  0  0  0  0  0  0  0  0  0
    6.1989  -12.3230   24.4899 C   0  0  0  0  0  0  0  0  0  0  0  0
    7.0147  -14.2639   25.7335 C   0  0  0  0  0  0  0  0  0  0  0  0
    6.9082  -15.2292   24.5750 C   0  0  2  0  0  0  0  0  0  0  0  0
    5.7403  -16.0523   24.7159 N   0  0  0  0  0  0  0  0  0  0  0  0
    8.1539  -16.0411   24.5249 C   0  0  0  0  0  0  0  0  0  0  0  0
    8.3084  -17.0307   25.2895 O   0  0  0  0  0  0  0  0  0  0  0  0
   11.3393  -16.1999   22.4672 C   0  0  0  0  0  0  0  0  0  0  0  0
   10.4531  -16.5215   23.6509 C   0  0  2  0  0  0  0  0  0  0  0  0
    9.2275  -15.7644   23.6354 N   0  0  0  0  0  0  0  0  0  0  0  0
   11.1681  -16.4425   24.9283 C   0  0  0  0  0  0  0  0  0  0  0  0
   12.3250  -16.9068   25.0215 O   0  0  0  0  0  0  0  0  0  0  0  0
   10.5629  -15.8498   26.0452 N   0  0  0  0  0  0  0  0  0  0  0  0
   11.2323  -15.5974   27.3006 C   0  0  1  0  0  0  0  0  0  0  0  0
   10.4653  -14.5057   28.0183 C   0  0  0  0  0  0  0  0  0  0  0  0
   11.2166  -14.2554   29.6348 S   0  0  0  0  0  0  0  0  0  0  0  0
   11.3726  -16.7981   28.1293 C   0  0  0  0  0  0  0  0  0  0  0  0
   10.4853  -17.6850   28.0382 O   0  0  0  0  0  0  0  0  0  0  0  0
   12.4157  -17.0359   29.0138 O   0  0  0  0  0  0  0  0  0  0  0  0
  2  4  1  0
  2  1  1  1
  3  2  1  0
  4  5  1  0
  5  7  1  0
  5  6  1  1
  7  8  2  0
 10  9  1  6
 10 12  1  0
 11 10  1  0
 11  7  1  0
 12 14  1  0
 13 12  2  0
 14 15  1  0
 15 16  1  1
 16 17  1  0
 18 20  1  0
 18 15  1  0
 19 18  2  0
M  END
$$$$
