LAC.pdb
     RDKit          3D

 20 19  0  0  1  0  0  0  0  0999 V2000
    6.3142  -11.7918   26.9973 C   0  0  0  0  0  0  0  0  0  0  0  0
    6.2008  -12.8538   25.9328 C   0  0  1  0  0  0  0  0  0  0  0  0
    6.2918  -12.1672   24.5896 C   0  0  0  0  0  0  0  0  0  0  0  0
    7.3086  -13.8640   26.0271 C   0  0  0  0  0  0  0  0  0  0  0  0
    7.1276  -15.0380   25.0922 C   0  0  2  0  0  0  0  0  0  0  0  0
    5.8784  -15.6961   25.3521 N   0  0  0  0  0  0  0  0  0  0  0  0
    8.2838  -15.9582   25.2655 C   0  0  0  0  0  0  0  0  0  0  0  0
    8.7970  -16.1399   26.4020 O   0  0  0  0  0  0  0  0  0  0  0  0
   10.6350  -15.5715   22.8899 C   0  0  0  0  0  0  0  0  0  0  0  0
   10.2878  -16.6270   23.9173 C   0  0  2  0  0  0  0  0  0  0  0  0
    8.8742  -16.6768   24.1906 N   0  0  0  0  0  0  0  0  0  0  0  0
   11.1098  -16.5280   25.1272 C   0  0  0  0  0  0  0  0  0  0  0  0
   12.3530  -16.4432   25.0274 O   0  0  0  0  0  0  0  0  0  0  0  0
   10.5107  -16.5279   26.3945 N   0  0  0  0  0  0  0  0  0  0  0  0
   11.2343  -16.4289   27.6413 C   0  0  1  0  0  0  0  0  0  0  0  0
   10.3654  -15.6613   28.6164 C   0  0  0  0  0  0  0  0  0  0  0  0
   10.1322  -13.9953   27.9762 S   0  0  0  0  0  0  0  0  0  0  0  0
   11.6346  -17.7322   28.1791 C   0  0  0  0  0  0  0  0  0  0  0  0
   12.2659  -17.7531   29.2670 O   0  0  0  0  0  0  0  0  0  0  0  0
   11.3701  -18.9551   27.5781 O   0  0  0  0  0  0  0  0  0  0  0  0
  2  4  1  0
  2  1  1  1
  3  2  1  0
  4  5  1  0
  5  7  1  0
  5  6  1  1
  7  8  2  0
 10  9  1  6
 10 12  1  0
 11 10  1  0
 11  7  1  0
 12 14  1  0
 13 12  2  0
 14 15  1  0
 15 16  1  1
 16 17  1  0
 18 20  1  0
 18 15  1  0
 19 18  2  0
M  END
$$$$
