LAC.pdb
     RDKit          3D

 20 19  0  0  1  0  0  0  0  0999 V2000
    8.0180  -12.1792   26.9449 C   0  0  0  0  0  0  0  0  0  0  0  0
    7.0799  -13.3447   26.7568 C   0  0  1  0  0  0  0  0  0  0  0  0
    5.8115  -12.8149   26.1289 C   0  0  0  0  0  0  0  0  0  0  0  0
    7.6596  -14.3914   25.8484 C   0  0  0  0  0  0  0  0  0  0  0  0
    6.7235  -15.5523   25.6008 C   0  0  2  0  0  0  0  0  0  0  0  0
    6.4239  -16.2246   26.8334 N   0  0  0  0  0  0  0  0  0  0  0  0
    7.3599  -16.4654   24.6135 C   0  0  0  0  0  0  0  0  0  0  0  0
    8.0759  -17.4291   24.9964 O   0  0  0  0  0  0  0  0  0  0  0  0
    6.9811  -17.1763   20.9217 C   0  0  0  0  0  0  0  0  0  0  0  0
    7.6316  -17.3351   22.2788 C   0  0  2  0  0  0  0  0  0  0  0  0
    7.2088  -16.3184   23.2078 N   0  0  0  0  0  0  0  0  0  0  0  0
    9.0886  -17.4732   22.1929 C   0  0  0  0  0  0  0  0  0  0  0  0
    9.5852  -18.3939   21.5085 O   0  0  0  0  0  0  0  0  0  0  0  0
    9.9278  -16.5798   22.8731 N   0  0  0  0  0  0  0  0  0  0  0  0
   11.3666  -16.6963   22.9367 C   0  0  1  0  0  0  0  0  0  0  0  0
   11.9554  -15.4062   22.4036 C   0  0  0  0  0  0  0  0  0  0  0  0
   11.5886  -15.3012   20.6446 S   0  0  0  0  0  0  0  0  0  0  0  0
   11.8599  -17.0041   24.2820 C   0  0  0  0  0  0  0  0  0  0  0  0
   13.1028  -17.1081   24.4455 O   0  0  0  0  0  0  0  0  0  0  0  0
   11.0575  -17.1915   25.3991 O   0  0  0  0  0  0  0  0  0  0  0  0
  2  4  1  0
  2  1  1  6
  3  2  1  0
  4  5  1  0
  5  7  1  0
  5  6  1  1
  7  8  2  0
 10  9  1  6
 10 12  1  0
 11 10  1  0
 11  7  1  0
 12 14  1  0
 13 12  2  0
 14 15  1  0
 15 16  1  1
 16 17  1  0
 18 20  1  0
 18 15  1  0
 19 18  2  0
M  END
$$$$
