LAC.pdb
     RDKit          3D

 20 19  0  0  1  0  0  0  0  0999 V2000
    9.2608  -13.5227   19.5469 C   0  0  0  0  0  0  0  0  0  0  0  0
    8.2681  -13.7386   20.6612 C   0  0  1  0  0  0  0  0  0  0  0  0
    7.3869  -12.5129   20.7332 C   0  0  0  0  0  0  0  0  0  0  0  0
    7.3971  -14.9371   20.4130 C   0  0  0  0  0  0  0  0  0  0  0  0
    8.1555  -16.2443   20.4482 C   0  0  2  0  0  0  0  0  0  0  0  0
    7.3235  -17.3176   19.9823 N   0  0  0  0  0  0  0  0  0  0  0  0
    8.6280  -16.4751   21.8399 C   0  0  0  0  0  0  0  0  0  0  0  0
    7.8141  -16.4898   22.8018 O   0  0  0  0  0  0  0  0  0  0  0  0
   11.7693  -17.6452   23.5675 C   0  0  0  0  0  0  0  0  0  0  0  0
   10.4230  -16.9556   23.5216 C   0  0  2  0  0  0  0  0  0  0  0  0
    9.9932  -16.6891   22.1726 N   0  0  0  0  0  0  0  0  0  0  0  0
   10.3627  -15.7783   24.3932 C   0  0  0  0  0  0  0  0  0  0  0  0
   10.6529  -14.6519   23.9354 O   0  0  0  0  0  0  0  0  0  0  0  0
    9.9819  -15.9079   25.7361 N   0  0  0  0  0  0  0  0  0  0  0  0
   10.0445  -14.8428   26.7105 C   0  0  1  0  0  0  0  0  0  0  0  0
    8.7179  -14.1119   26.6772 C   0  0  0  0  0  0  0  0  0  0  0  0
    8.7804  -12.7710   27.8763 S   0  0  0  0  0  0  0  0  0  0  0  0
   10.3714  -15.3151   28.0589 C   0  0  0  0  0  0  0  0  0  0  0  0
   10.1561  -16.5247   28.3288 O   0  0  0  0  0  0  0  0  0  0  0  0
   10.9039  -14.5269   29.0697 O   0  0  0  0  0  0  0  0  0  0  0  0
  2  4  1  0
  2  1  1  6
  3  2  1  0
  4  5  1  0
  5  7  1  0
  5  6  1  1
  7  8  2  0
 10  9  1  6
 10 12  1  0
 11 10  1  0
 11  7  1  0
 12 14  1  0
 13 12  2  0
 14 15  1  0
 15 16  1  1
 16 17  1  0
 18 20  1  0
 18 15  1  0
 19 18  2  0
M  END
$$$$
