LAC.pdb
     RDKit          3D

 20 19  0  0  1  0  0  0  0  0999 V2000
    7.4760  -12.2354   27.5010 C   0  0  0  0  0  0  0  0  0  0  0  0
    6.6414  -13.3558   26.9334 C   0  0  1  0  0  0  0  0  0  0  0  0
    5.4170  -12.7382   26.2984 C   0  0  0  0  0  0  0  0  0  0  0  0
    7.3829  -14.1314   25.8821 C   0  0  0  0  0  0  0  0  0  0  0  0
    6.5492  -15.2180   25.2421 C   0  0  2  0  0  0  0  0  0  0  0  0
    6.4251  -16.3404   26.1286 N   0  0  0  0  0  0  0  0  0  0  0  0
    7.1860  -15.5995   23.9527 C   0  0  0  0  0  0  0  0  0  0  0  0
    7.6793  -16.7481   23.7936 O   0  0  0  0  0  0  0  0  0  0  0  0
    7.5454  -14.1223   20.4771 C   0  0  0  0  0  0  0  0  0  0  0  0
    7.7943  -15.1450   21.5643 C   0  0  2  0  0  0  0  0  0  0  0  0
    7.2798  -14.7191   22.8408 N   0  0  0  0  0  0  0  0  0  0  0  0
    9.1929  -15.5813   21.6185 C   0  0  0  0  0  0  0  0  0  0  0  0
    9.8079  -15.8262   20.5581 O   0  0  0  0  0  0  0  0  0  0  0  0
    9.8444  -15.7256   22.8513 N   0  0  0  0  0  0  0  0  0  0  0  0
   11.1720  -16.2717   23.0158 C   0  0  1  0  0  0  0  0  0  0  0  0
   11.5363  -16.1584   24.4819 C   0  0  0  0  0  0  0  0  0  0  0  0
   11.3422  -14.4402   24.9820 S   0  0  0  0  0  0  0  0  0  0  0  0
   11.2914  -17.6495   22.5307 C   0  0  0  0  0  0  0  0  0  0  0  0
   10.2490  -18.2248   22.1248 O   0  0  0  0  0  0  0  0  0  0  0  0
   12.4735  -18.3758   22.4835 O   0  0  0  0  0  0  0  0  0  0  0  0
  2  4  1  0
  2  1  1  6
  3  2  1  0
  4  5  1  0
  5  7  1  0
  5  6  1  1
  7  8  2  0
 10  9  1  6
 10 12  1  0
 11 10  1  0
 11  7  1  0
 12 14  1  0
 13 12  2  0
 14 15  1  0
 15 16  1  1
 16 17  1  0
 18 20  1  0
 18 15  1  0
 19 18  2  0
M  END
$$$$
