LAC.pdb
     RDKit          3D

 20 19  0  0  1  0  0  0  0  0999 V2000
    5.7548  -20.6816   24.3547 C   0  0  0  0  0  0  0  0  0  0  0  0
    5.9418  -20.1632   22.9511 C   0  0  1  0  0  0  0  0  0  0  0  0
    4.5769  -20.0820   22.3075 C   0  0  0  0  0  0  0  0  0  0  0  0
    6.5576  -18.7931   22.9357 C   0  0  0  0  0  0  0  0  0  0  0  0
    6.7340  -18.2331   21.5427 C   0  0  2  0  0  0  0  0  0  0  0  0
    7.3255  -19.2163   20.6798 N   0  0  0  0  0  0  0  0  0  0  0  0
    7.5676  -17.0041   21.6335 C   0  0  0  0  0  0  0  0  0  0  0  0
    8.8083  -17.0816   21.8393 O   0  0  0  0  0  0  0  0  0  0  0  0
    7.2287  -13.3336   20.8551 C   0  0  0  0  0  0  0  0  0  0  0  0
    7.8695  -14.5176   21.5461 C   0  0  2  0  0  0  0  0  0  0  0  0
    7.0369  -15.6924   21.4980 N   0  0  0  0  0  0  0  0  0  0  0  0
    8.3408  -14.1951   22.8963 C   0  0  0  0  0  0  0  0  0  0  0  0
    9.2069  -13.3078   23.0556 O   0  0  0  0  0  0  0  0  0  0  0  0
    7.8266  -14.8751   24.0091 N   0  0  0  0  0  0  0  0  0  0  0  0
    8.2793  -14.6804   25.3675 C   0  0  1  0  0  0  0  0  0  0  0  0
    7.0552  -14.6545   26.2597 C   0  0  0  0  0  0  0  0  0  0  0  0
    6.0640  -13.2182   25.8188 S   0  0  0  0  0  0  0  0  0  0  0  0
    9.2473  -15.6916   25.8017 C   0  0  0  0  0  0  0  0  0  0  0  0
    9.5781  -16.5837   24.9789 O   0  0  0  0  0  0  0  0  0  0  0  0
    9.8327  -15.7431   27.0593 O   0  0  0  0  0  0  0  0  0  0  0  0
  2  4  1  0
  2  1  1  1
  3  2  1  0
  4  5  1  0
  5  7  1  0
  5  6  1  6
  7  8  2  0
 10  9  1  1
 10 12  1  0
 11 10  1  0
 11  7  1  0
 12 14  1  0
 13 12  2  0
 14 15  1  0
 15 16  1  1
 16 17  1  0
 18 20  1  0
 18 15  1  0
 19 18  2  0
M  END
$$$$
