LAC.pdb
     RDKit          3D

 20 19  0  0  1  0  0  0  0  0999 V2000
    8.8166  -12.3667   20.0705 C   0  0  0  0  0  0  0  0  0  0  0  0
    7.9516  -13.5596   20.3909 C   0  0  1  0  0  0  0  0  0  0  0  0
    6.8597  -13.6267   19.3483 C   0  0  0  0  0  0  0  0  0  0  0  0
    8.7290  -14.8444   20.3494 C   0  0  0  0  0  0  0  0  0  0  0  0
    7.9265  -16.0430   20.8016 C   0  0  2  0  0  0  0  0  0  0  0  0
    6.6169  -16.0185   20.2136 N   0  0  0  0  0  0  0  0  0  0  0  0
    7.8654  -16.0327   22.2881 C   0  0  0  0  0  0  0  0  0  0  0  0
    6.8629  -15.5602   22.8878 O   0  0  0  0  0  0  0  0  0  0  0  0
    9.5487  -17.8402   25.0911 C   0  0  0  0  0  0  0  0  0  0  0  0
    8.7597  -16.6722   24.5403 C   0  0  2  0  0  0  0  0  0  0  0  0
    8.9053  -16.5413   23.1130 N   0  0  0  0  0  0  0  0  0  0  0  0
    9.0173  -15.4252   25.2669 C   0  0  0  0  0  0  0  0  0  0  0  0
   10.0866  -14.8061   25.0771 O   0  0  0  0  0  0  0  0  0  0  0  0
    8.0725  -14.9231   26.1726 N   0  0  0  0  0  0  0  0  0  0  0  0
    8.3108  -13.8208   27.0761 C   0  0  1  0  0  0  0  0  0  0  0  0
    6.9625  -13.2839   27.5106 C   0  0  0  0  0  0  0  0  0  0  0  0
    5.9709  -12.9862   26.0381 S   0  0  0  0  0  0  0  0  0  0  0  0
    9.1454  -14.1879   28.2236 C   0  0  0  0  0  0  0  0  0  0  0  0
    9.3880  -15.4079   28.4108 O   0  0  0  0  0  0  0  0  0  0  0  0
    9.6936  -13.2884   29.1276 O   0  0  0  0  0  0  0  0  0  0  0  0
  2  4  1  0
  2  1  1  6
  3  2  1  0
  4  5  1  0
  5  7  1  0
  5  6  1  6
  7  8  2  0
 10  9  1  1
 10 12  1  0
 11 10  1  0
 11  7  1  0
 12 14  1  0
 13 12  2  0
 14 15  1  0
 15 16  1  1
 16 17  1  0
 18 20  1  0
 18 15  1  0
 19 18  2  0
M  END
$$$$
