LAC.pdb
     RDKit          3D

 20 19  0  0  1  0  0  0  0  0999 V2000
    5.1447  -12.3125   26.9216 C   0  0  0  0  0  0  0  0  0  0  0  0
    6.4207  -12.4415   26.1286 C   0  0  1  0  0  0  0  0  0  0  0  0
    7.5154  -11.7487   26.9069 C   0  0  0  0  0  0  0  0  0  0  0  0
    6.8147  -13.8772   25.9281 C   0  0  0  0  0  0  0  0  0  0  0  0
    8.1913  -14.0403   25.3250 C   0  0  2  0  0  0  0  0  0  0  0  0
    8.6056  -12.8221   24.6882 N   0  0  0  0  0  0  0  0  0  0  0  0
    8.1522  -15.1788   24.3681 C   0  0  0  0  0  0  0  0  0  0  0  0
    7.8133  -16.3304   24.7514 O   0  0  0  0  0  0  0  0  0  0  0  0
    8.0910  -15.8994   20.7256 C   0  0  0  0  0  0  0  0  0  0  0  0
    8.6017  -16.1910   22.1199 C   0  0  2  0  0  0  0  0  0  0  0  0
    8.4854  -15.0504   22.9923 N   0  0  0  0  0  0  0  0  0  0  0  0
    9.9422  -16.7849   22.1166 C   0  0  0  0  0  0  0  0  0  0  0  0
   10.1680  -17.8029   21.4270 O   0  0  0  0  0  0  0  0  0  0  0  0
   10.9715  -16.2187   22.8814 N   0  0  0  0  0  0  0  0  0  0  0  0
   12.3403  -16.6817   22.8812 C   0  0  1  0  0  0  0  0  0  0  0  0
   13.2026  -15.5647   23.4321 C   0  0  0  0  0  0  0  0  0  0  0  0
   14.9040  -16.1475   23.5065 S   0  0  0  0  0  0  0  0  0  0  0  0
   12.5253  -17.9298   23.6270 C   0  0  0  0  0  0  0  0  0  0  0  0
   11.8771  -18.0813   24.6943 O   0  0  0  0  0  0  0  0  0  0  0  0
   13.3662  -18.9663   23.2455 O   0  0  0  0  0  0  0  0  0  0  0  0
  2  4  1  0
  2  1  1  1
  3  2  1  0
  4  5  1  0
  5  7  1  0
  5  6  1  6
  7  8  2  0
 10  9  1  6
 10 12  1  0
 11 10  1  0
 11  7  1  0
 12 14  1  0
 13 12  2  0
 14 15  1  0
 15 16  1  1
 16 17  1  0
 18 20  1  0
 18 15  1  0
 19 18  2  0
M  END
$$$$
