LAC.pdb
     RDKit          3D

 20 19  0  0  1  0  0  0  0  0999 V2000
    6.3697  -11.9967   26.9157 C   0  0  0  0  0  0  0  0  0  0  0  0
    6.0881  -13.0118   25.8367 C   0  0  1  0  0  0  0  0  0  0  0  0
    6.4341  -12.3773   24.5095 C   0  0  0  0  0  0  0  0  0  0  0  0
    6.9187  -14.2525   26.0022 C   0  0  0  0  0  0  0  0  0  0  0  0
    6.6706  -15.2853   24.9267 C   0  0  2  0  0  0  0  0  0  0  0  0
    5.6730  -16.2243   25.3560 N   0  0  0  0  0  0  0  0  0  0  0  0
    7.9616  -15.9550   24.6129 C   0  0  0  0  0  0  0  0  0  0  0  0
    8.2954  -17.0176   25.2022 O   0  0  0  0  0  0  0  0  0  0  0  0
   10.7108  -15.6593   22.0298 C   0  0  0  0  0  0  0  0  0  0  0  0
   10.1037  -16.1492   23.3265 C   0  0  2  0  0  0  0  0  0  0  0  0
    8.8833  -15.4564   23.6526 N   0  0  0  0  0  0  0  0  0  0  0  0
   11.0704  -16.1721   24.4284 C   0  0  0  0  0  0  0  0  0  0  0  0
   12.2558  -16.5015   24.2070 O   0  0  0  0  0  0  0  0  0  0  0  0
   10.6740  -15.8270   25.7280 N   0  0  0  0  0  0  0  0  0  0  0  0
   11.5262  -15.9091   26.8920 C   0  0  1  0  0  0  0  0  0  0  0  0
   10.7892  -15.2623   28.0468 C   0  0  0  0  0  0  0  0  0  0  0  0
   10.2773  -13.6132   27.5387 S   0  0  0  0  0  0  0  0  0  0  0  0
   11.9369  -17.2800   27.2086 C   0  0  0  0  0  0  0  0  0  0  0  0
   11.4930  -18.2104   26.4878 O   0  0  0  0  0  0  0  0  0  0  0  0
   12.7839  -17.6355   28.2493 O   0  0  0  0  0  0  0  0  0  0  0  0
  2  4  1  0
  2  1  1  1
  3  2  1  0
  4  5  1  0
  5  7  1  0
  5  6  1  1
  7  8  2  0
 10  9  1  6
 10 12  1  0
 11 10  1  0
 11  7  1  0
 12 14  1  0
 13 12  2  0
 14 15  1  0
 15 16  1  1
 16 17  1  0
 18 20  1  0
 18 15  1  0
 19 18  2  0
M  END
$$$$
