LAC.pdb
     RDKit          3D

 20 19  0  0  1  0  0  0  0  0999 V2000
    7.3297  -12.1715   19.3240 C   0  0  0  0  0  0  0  0  0  0  0  0
    7.7109  -13.6249   19.4503 C   0  0  1  0  0  0  0  0  0  0  0  0
    9.0475  -13.8086   18.7694 C   0  0  0  0  0  0  0  0  0  0  0  0
    7.8457  -14.0476   20.8855 C   0  0  0  0  0  0  0  0  0  0  0  0
    8.1407  -15.5211   21.0492 C   0  0  2  0  0  0  0  0  0  0  0  0
    7.0704  -16.3086   20.5057 N   0  0  0  0  0  0  0  0  0  0  0  0
    8.3526  -15.7992   22.4953 C   0  0  0  0  0  0  0  0  0  0  0  0
    7.4450  -15.5608   23.3363 O   0  0  0  0  0  0  0  0  0  0  0  0
   10.5154  -17.9282   24.6197 C   0  0  0  0  0  0  0  0  0  0  0  0
    9.7230  -16.6560   24.4108 C   0  0  2  0  0  0  0  0  0  0  0  0
    9.5608  -16.3384   23.0149 N   0  0  0  0  0  0  0  0  0  0  0  0
   10.2357  -15.5356   25.2053 C   0  0  0  0  0  0  0  0  0  0  0  0
   11.2631  -14.9293   24.8320 O   0  0  0  0  0  0  0  0  0  0  0  0
    9.5812  -15.1404   26.3803 N   0  0  0  0  0  0  0  0  0  0  0  0
   10.0959  -14.1659   27.3149 C   0  0  1  0  0  0  0  0  0  0  0  0
    9.1165  -13.0109   27.3594 C   0  0  0  0  0  0  0  0  0  0  0  0
    7.4475  -13.6813   27.2886 S   0  0  0  0  0  0  0  0  0  0  0  0
   10.3417  -14.7220   28.6485 C   0  0  0  0  0  0  0  0  0  0  0  0
    9.9284  -15.8856   28.8882 O   0  0  0  0  0  0  0  0  0  0  0  0
   10.9999  -14.0607   29.6763 O   0  0  0  0  0  0  0  0  0  0  0  0
  2  4  1  0
  2  1  1  1
  3  2  1  0
  4  5  1  0
  5  7  1  0
  5  6  1  1
  7  8  2  0
 10  9  1  6
 10 12  1  0
 11 10  1  0
 11  7  1  0
 12 14  1  0
 13 12  2  0
 14 15  1  0
 15 16  1  1
 16 17  1  0
 18 20  1  0
 18 15  1  0
 19 18  2  0
M  END
$$$$
