GDE.pdb
     RDKit          3D

 22 21  0  0  1  0  0  0  0  0999 V2000
   19.5142  -12.7280  -16.3771 N   0  0  0  0  0  0  0  0  0  0  0  0
   20.0205  -11.8616  -17.4164 C   0  0  0  0  0  0  0  0  0  0  0  0
   19.7381  -10.4370  -17.1225 C   0  0  0  0  0  0  0  0  0  0  0  0
   20.2413   -9.5526  -17.8241 O   0  0  0  0  0  0  0  0  0  0  0  0
   18.9001  -10.0903  -16.0484 N   0  0  0  0  0  0  0  0  0  0  0  0
   18.5265   -8.7328  -15.7082 C   0  0  1  0  0  0  0  0  0  0  0  0
   17.2682   -8.6761  -14.8861 C   0  0  0  0  0  0  0  0  0  0  0  0
   16.7217   -7.3410  -14.6922 C   0  0  0  0  0  0  0  0  0  0  0  0
   15.6406   -7.0459  -15.3073 O   0  0  0  0  0  0  0  0  0  0  0  0
   19.6716   -8.0401  -15.0715 C   0  0  0  0  0  0  0  0  0  0  0  0
   20.2323   -8.5550  -14.0731 O   0  0  0  0  0  0  0  0  0  0  0  0
   17.2567   -6.3436  -13.9012 O   0  0  0  0  0  0  0  0  0  0  0  0
   20.1856   -6.8021  -15.5313 N   0  0  0  0  0  0  0  0  0  0  0  0
   21.3622   -6.1552  -14.8982 C   0  0  1  0  0  0  0  0  0  0  0  0
   22.4651   -6.3480  -15.8685 C   0  0  0  0  0  0  0  0  0  0  0  0
   23.8046   -5.7944  -15.5739 C   0  0  0  0  0  0  0  0  0  0  0  0
   24.8302   -5.9785  -16.6018 C   0  0  0  0  0  0  0  0  0  0  0  0
   25.4823   -4.9992  -17.0252 O   0  0  0  0  0  0  0  0  0  0  0  0
   21.0537   -4.8262  -14.4248 C   0  0  0  0  0  0  0  0  0  0  0  0
   21.7250   -4.2989  -13.3320 O   0  0  0  0  0  0  0  0  0  0  0  0
   25.0888   -7.2316  -17.1086 O   0  0  0  0  0  0  0  0  0  0  0  0
   20.1820   -4.0606  -14.9325 O   0  0  0  0  0  0  0  0  0  0  0  0
  2  1  1  0
  3  2  1  0
  4  3  2  0
  5  3  1  0
  6 10  1  0
  6  5  1  0
  6  7  1  1
  8  7  1  0
  9  8  2  0
 10 13  1  0
 11 10  2  0
 12  8  1  0
 13 14  1  0
 14 19  1  0
 14 15  1  6
 16 15  1  0
 16 17  1  0
 17 18  2  0
 19 22  2  0
 19 20  1  0
 21 17  1  0
M  END
$$$$
