GDE.pdb
     RDKit          3D

 22 21  0  0  1  0  0  0  0  0999 V2000
   16.6305  -10.3142  -16.0338 N   0  0  0  0  0  0  0  0  0  0  0  0
   16.4246   -8.9044  -16.2730 C   0  0  0  0  0  0  0  0  0  0  0  0
   17.5835   -8.1007  -15.8187 C   0  0  0  0  0  0  0  0  0  0  0  0
   17.5574   -7.5557  -14.7096 O   0  0  0  0  0  0  0  0  0  0  0  0
   18.7110   -7.9572  -16.6458 N   0  0  0  0  0  0  0  0  0  0  0  0
   19.8763   -7.1652  -16.3095 C   0  0  1  0  0  0  0  0  0  0  0  0
   21.1430   -7.7437  -16.8777 C   0  0  0  0  0  0  0  0  0  0  0  0
   21.5044   -9.0554  -16.3606 C   0  0  0  0  0  0  0  0  0  0  0  0
   21.7290   -9.1589  -15.1063 O   0  0  0  0  0  0  0  0  0  0  0  0
   19.6538   -5.7524  -16.6981 C   0  0  0  0  0  0  0  0  0  0  0  0
   19.1881   -5.4861  -17.8332 O   0  0  0  0  0  0  0  0  0  0  0  0
   21.6322  -10.2184  -17.0938 O   0  0  0  0  0  0  0  0  0  0  0  0
   19.9414   -4.6565  -15.8468 N   0  0  0  0  0  0  0  0  0  0  0  0
   19.7316   -3.2510  -16.2760 C   0  0  1  0  0  0  0  0  0  0  0  0
   18.3644   -2.9165  -15.8137 C   0  0  0  0  0  0  0  0  0  0  0  0
   17.8545   -1.5373  -15.9734 C   0  0  0  0  0  0  0  0  0  0  0  0
   16.5039   -1.2761  -15.4733 C   0  0  0  0  0  0  0  0  0  0  0  0
   15.5599   -1.0907  -16.2722 O   0  0  0  0  0  0  0  0  0  0  0  0
   20.8387   -2.4039  -15.8988 C   0  0  0  0  0  0  0  0  0  0  0  0
   20.9598   -1.1305  -16.4341 O   0  0  0  0  0  0  0  0  0  0  0  0
   16.2600   -1.2363  -14.1195 O   0  0  0  0  0  0  0  0  0  0  0  0
   21.7581   -2.7303  -15.0914 O   0  0  0  0  0  0  0  0  0  0  0  0
  2  1  1  0
  3  2  1  0
  4  3  2  0
  5  3  1  0
  6 10  1  0
  6  5  1  0
  6  7  1  6
  8  7  1  0
  9  8  2  0
 10 13  1  0
 11 10  2  0
 12  8  1  0
 13 14  1  0
 14 19  1  0
 14 15  1  1
 16 15  1  0
 16 17  1  0
 17 18  2  0
 19 22  2  0
 19 20  1  0
 21 17  1  0
M  END
$$$$
