GDE.pdb
     RDKit          3D

 22 21  0  0  1  0  0  0  0  0999 V2000
   13.8443  -12.6406  -11.2384 N   0  0  0  0  0  0  0  0  0  0  0  0
   13.8875  -11.2951  -11.7625 C   0  0  0  0  0  0  0  0  0  0  0  0
   15.2246  -10.9673  -12.3102 C   0  0  0  0  0  0  0  0  0  0  0  0
   16.2145  -11.6098  -11.9427 O   0  0  0  0  0  0  0  0  0  0  0  0
   15.3691   -9.9281  -13.2458 N   0  0  0  0  0  0  0  0  0  0  0  0
   16.6055   -9.6101  -13.9301 C   0  0  1  0  0  0  0  0  0  0  0  0
   16.6565  -10.1912  -15.3164 C   0  0  0  0  0  0  0  0  0  0  0  0
   17.8787   -9.9095  -16.0551 C   0  0  0  0  0  0  0  0  0  0  0  0
   18.9884  -10.2543  -15.5223 O   0  0  0  0  0  0  0  0  0  0  0  0
   16.8342   -8.1460  -13.9019 C   0  0  0  0  0  0  0  0  0  0  0  0
   15.8589   -7.3626  -14.0078 O   0  0  0  0  0  0  0  0  0  0  0  0
   17.9671   -9.2993  -17.2906 O   0  0  0  0  0  0  0  0  0  0  0  0
   18.1172   -7.5613  -13.7592 N   0  0  0  0  0  0  0  0  0  0  0  0
   18.3201   -6.0913  -13.7969 C   0  0  1  0  0  0  0  0  0  0  0  0
   19.6903   -5.8869  -13.2719 C   0  0  0  0  0  0  0  0  0  0  0  0
   20.7954   -5.5853  -14.2075 C   0  0  0  0  0  0  0  0  0  0  0  0
   22.1377   -5.4996  -13.6302 C   0  0  0  0  0  0  0  0  0  0  0  0
   22.3047   -5.6345  -12.3983 O   0  0  0  0  0  0  0  0  0  0  0  0
   17.9570   -5.5322  -15.0780 C   0  0  0  0  0  0  0  0  0  0  0  0
   17.3934   -4.2677  -15.1556 O   0  0  0  0  0  0  0  0  0  0  0  0
   23.2284   -5.2738  -14.4384 O   0  0  0  0  0  0  0  0  0  0  0  0
   18.1053   -6.1168  -16.1916 O   0  0  0  0  0  0  0  0  0  0  0  0
  2  1  1  0
  3  2  1  0
  4  3  2  0
  5  3  1  0
  6 10  1  0
  6  5  1  0
  6  7  1  6
  8  7  1  0
  9  8  2  0
 10 13  1  0
 11 10  2  0
 12  8  1  0
 13 14  1  0
 14 19  1  0
 14 15  1  6
 16 15  1  0
 16 17  1  0
 17 18  2  0
 19 22  2  0
 19 20  1  0
 21 17  1  0
M  END
$$$$
