GDE.pdb
     RDKit          3D

 22 21  0  0  1  0  0  0  0  0999 V2000
   14.0528  -11.7454  -11.3948 N   0  0  0  0  0  0  0  0  0  0  0  0
   15.2838  -11.2827  -10.7968 C   0  0  0  0  0  0  0  0  0  0  0  0
   15.4541   -9.8205  -10.9647 C   0  0  0  0  0  0  0  0  0  0  0  0
   15.0536   -9.2687  -11.9957 O   0  0  0  0  0  0  0  0  0  0  0  0
   16.0696   -9.0608   -9.9548 N   0  0  0  0  0  0  0  0  0  0  0  0
   16.3503   -7.6431  -10.0543 C   0  0  1  0  0  0  0  0  0  0  0  0
   16.1393   -6.9265   -8.7489 C   0  0  0  0  0  0  0  0  0  0  0  0
   16.3190   -5.4831   -8.8054 C   0  0  0  0  0  0  0  0  0  0  0  0
   16.6195   -4.8783   -7.7199 O   0  0  0  0  0  0  0  0  0  0  0  0
   17.7038   -7.4366  -10.6216 C   0  0  0  0  0  0  0  0  0  0  0  0
   18.6788   -8.0713  -10.1497 O   0  0  0  0  0  0  0  0  0  0  0  0
   16.1971   -4.6856   -9.9260 O   0  0  0  0  0  0  0  0  0  0  0  0
   17.9720   -6.5452  -11.6901 N   0  0  0  0  0  0  0  0  0  0  0  0
   19.2947   -6.4989  -12.3624 C   0  0  1  0  0  0  0  0  0  0  0  0
   19.5385   -7.8901  -12.8097 C   0  0  0  0  0  0  0  0  0  0  0  0
   19.6868   -8.1800  -14.2524 C   0  0  0  0  0  0  0  0  0  0  0  0
   20.0544   -9.5507  -14.6109 C   0  0  0  0  0  0  0  0  0  0  0  0
   20.2402  -10.4079  -13.7197 O   0  0  0  0  0  0  0  0  0  0  0  0
   19.3734   -5.4190  -13.3181 C   0  0  0  0  0  0  0  0  0  0  0  0
   20.6049   -4.9013  -13.6897 O   0  0  0  0  0  0  0  0  0  0  0  0
   20.1948   -9.9093  -15.9321 O   0  0  0  0  0  0  0  0  0  0  0  0
   18.3767   -4.8680  -13.8719 O   0  0  0  0  0  0  0  0  0  0  0  0
  2  1  1  0
  3  2  1  0
  4  3  2  0
  5  3  1  0
  6 10  1  0
  6  5  1  0
  6  7  1  1
  8  7  1  0
  9  8  2  0
 10 13  1  0
 11 10  2  0
 12  8  1  0
 13 14  1  0
 14 19  1  0
 14 15  1  6
 16 15  1  0
 16 17  1  0
 17 18  2  0
 19 22  2  0
 19 20  1  0
 21 17  1  0
M  END
$$$$
