GDE.pdb
     RDKit          3D

 22 21  0  0  1  0  0  0  0  0999 V2000
   18.1650   -0.6122  -18.0921 N   0  0  0  0  0  0  0  0  0  0  0  0
   19.5408   -0.7123  -17.6633 C   0  0  0  0  0  0  0  0  0  0  0  0
   19.7374   -0.1141  -16.3221 C   0  0  0  0  0  0  0  0  0  0  0  0
   18.8425   -0.1981  -15.4737 O   0  0  0  0  0  0  0  0  0  0  0  0
   20.9384    0.5479  -16.0134 N   0  0  0  0  0  0  0  0  0  0  0  0
   21.2263    1.1658  -14.7352 C   0  0  1  0  0  0  0  0  0  0  0  0
   22.5068    0.6580  -14.1312 C   0  0  0  0  0  0  0  0  0  0  0  0
   22.7540    1.0911  -12.7637 C   0  0  0  0  0  0  0  0  0  0  0  0
   21.7422    1.2545  -11.9996 O   0  0  0  0  0  0  0  0  0  0  0  0
   21.1889    2.6413  -14.8696 C   0  0  0  0  0  0  0  0  0  0  0  0
   21.7261    3.1885  -15.8636 O   0  0  0  0  0  0  0  0  0  0  0  0
   23.9861    1.3482  -12.1958 O   0  0  0  0  0  0  0  0  0  0  0  0
   20.5689    3.4936  -13.9222 N   0  0  0  0  0  0  0  0  0  0  0  0
   20.5748    4.9706  -14.0708 C   0  0  1  0  0  0  0  0  0  0  0  0
   19.1808    5.3830  -13.7853 C   0  0  0  0  0  0  0  0  0  0  0  0
   18.1904    5.4258  -14.8830 C   0  0  0  0  0  0  0  0  0  0  0  0
   16.8473    5.8923  -14.5358 C   0  0  0  0  0  0  0  0  0  0  0  0
   15.9968    6.0902  -15.4309 O   0  0  0  0  0  0  0  0  0  0  0  0
   21.6618    5.5790  -13.3402 C   0  0  0  0  0  0  0  0  0  0  0  0
   22.4750    6.5215  -13.9513 O   0  0  0  0  0  0  0  0  0  0  0  0
   16.5070    6.1134  -13.2208 O   0  0  0  0  0  0  0  0  0  0  0  0
   21.9626    5.3174  -12.1382 O   0  0  0  0  0  0  0  0  0  0  0  0
  2  1  1  0
  3  2  1  0
  4  3  2  0
  5  3  1  0
  6 10  1  0
  6  5  1  0
  6  7  1  6
  8  7  1  0
  9  8  2  0
 10 13  1  0
 11 10  2  0
 12  8  1  0
 13 14  1  0
 14 19  1  0
 14 15  1  1
 16 15  1  0
 16 17  1  0
 17 18  2  0
 19 22  2  0
 19 20  1  0
 21 17  1  0
M  END
$$$$
