GDE.pdb
     RDKit          3D

 22 21  0  0  1  0  0  0  0  0999 V2000
   21.7697  -11.9844  -18.4568 N   0  0  0  0  0  0  0  0  0  0  0  0
   22.2115  -10.6472  -18.7786 C   0  0  0  0  0  0  0  0  0  0  0  0
   21.4266   -9.6245  -18.0482 C   0  0  0  0  0  0  0  0  0  0  0  0
   20.9281   -8.6758  -18.6640 O   0  0  0  0  0  0  0  0  0  0  0  0
   21.2481   -9.7313  -16.6580 N   0  0  0  0  0  0  0  0  0  0  0  0
   20.4496   -8.8203  -15.8638 C   0  0  1  0  0  0  0  0  0  0  0  0
   19.6799   -9.5291  -14.7834 C   0  0  0  0  0  0  0  0  0  0  0  0
   18.5933  -10.3736  -15.2576 C   0  0  0  0  0  0  0  0  0  0  0  0
   18.2789  -11.3911  -14.5504 O   0  0  0  0  0  0  0  0  0  0  0  0
   21.3014   -7.7220  -15.3492 C   0  0  0  0  0  0  0  0  0  0  0  0
   22.4844   -7.9625  -15.0043 O   0  0  0  0  0  0  0  0  0  0  0  0
   17.8545  -10.1885  -16.4093 O   0  0  0  0  0  0  0  0  0  0  0  0
   20.8522   -6.3842  -15.2193 N   0  0  0  0  0  0  0  0  0  0  0  0
   21.7482   -5.2953  -14.7557 C   0  0  1  0  0  0  0  0  0  0  0  0
   21.2996   -4.0959  -15.5008 C   0  0  0  0  0  0  0  0  0  0  0  0
   22.2831   -3.2990  -16.2659 C   0  0  0  0  0  0  0  0  0  0  0  0
   21.8817   -1.9402  -16.6331 C   0  0  0  0  0  0  0  0  0  0  0  0
   21.0308   -1.7541  -17.5304 O   0  0  0  0  0  0  0  0  0  0  0  0
   21.8344   -5.2482  -13.3148 C   0  0  0  0  0  0  0  0  0  0  0  0
   21.0282   -6.0665  -12.5382 O   0  0  0  0  0  0  0  0  0  0  0  0
   22.4340   -0.8553  -15.9914 O   0  0  0  0  0  0  0  0  0  0  0  0
   22.6088   -4.4898  -12.6600 O   0  0  0  0  0  0  0  0  0  0  0  0
  2  1  1  0
  3  2  1  0
  4  3  2  0
  5  3  1  0
  6 10  1  0
  6  5  1  0
  6  7  1  1
  8  7  1  0
  9  8  2  0
 10 13  1  0
 11 10  2  0
 12  8  1  0
 13 14  1  0
 14 19  1  0
 14 15  1  1
 16 15  1  0
 16 17  1  0
 17 18  2  0
 19 22  2  0
 19 20  1  0
 21 17  1  0
M  END
$$$$
