GDE.pdb
     RDKit          3D

 22 21  0  0  1  0  0  0  0  0999 V2000
   14.6998  -10.0396  -14.5863 N   0  0  0  0  0  0  0  0  0  0  0  0
   15.3766   -9.9218  -15.8572 C   0  0  0  0  0  0  0  0  0  0  0  0
   16.8367  -10.1319  -15.7173 C   0  0  0  0  0  0  0  0  0  0  0  0
   17.3654  -10.0551  -14.6028 O   0  0  0  0  0  0  0  0  0  0  0  0
   17.6204  -10.4180  -16.8487 N   0  0  0  0  0  0  0  0  0  0  0  0
   19.0498  -10.6503  -16.8156 C   0  0  1  0  0  0  0  0  0  0  0  0
   19.4750  -11.7298  -17.7728 C   0  0  0  0  0  0  0  0  0  0  0  0
   20.8797  -12.1026  -17.6923 C   0  0  0  0  0  0  0  0  0  0  0  0
   21.3606  -12.8163  -18.6377 O   0  0  0  0  0  0  0  0  0  0  0  0
   19.7722   -9.3722  -17.0185 C   0  0  0  0  0  0  0  0  0  0  0  0
   19.3705   -8.5630  -17.8902 O   0  0  0  0  0  0  0  0  0  0  0  0
   21.7616  -11.7612  -16.6862 O   0  0  0  0  0  0  0  0  0  0  0  0
   20.9166   -8.9980  -16.2711 N   0  0  0  0  0  0  0  0  0  0  0  0
   21.5645   -7.6725  -16.4356 C   0  0  1  0  0  0  0  0  0  0  0  0
   21.5124   -7.0583  -15.0885 C   0  0  0  0  0  0  0  0  0  0  0  0
   22.1716   -5.7556  -14.8517 C   0  0  0  0  0  0  0  0  0  0  0  0
   22.1259   -5.2372  -13.4837 C   0  0  0  0  0  0  0  0  0  0  0  0
   22.0127   -6.0203  -12.5154 O   0  0  0  0  0  0  0  0  0  0  0  0
   22.8302   -7.7757  -17.1234 C   0  0  0  0  0  0  0  0  0  0  0  0
   23.2747   -6.7397  -17.9308 O   0  0  0  0  0  0  0  0  0  0  0  0
   22.2114   -3.8836  -13.2506 O   0  0  0  0  0  0  0  0  0  0  0  0
   23.6086   -8.7728  -17.0622 O   0  0  0  0  0  0  0  0  0  0  0  0
  2  1  1  0
  3  2  1  0
  4  3  2  0
  5  3  1  0
  6 10  1  0
  6  5  1  0
  6  7  1  6
  8  7  1  0
  9  8  2  0
 10 13  1  0
 11 10  2  0
 12  8  1  0
 13 14  1  0
 14 19  1  0
 14 15  1  1
 16 15  1  0
 16 17  1  0
 17 18  2  0
 19 22  2  0
 19 20  1  0
 21 17  1  0
M  END
$$$$
