GDE.pdb
     RDKit          3D

 22 21  0  0  1  0  0  0  0  0999 V2000
   16.0662  -10.1284  -17.4462 N   0  0  0  0  0  0  0  0  0  0  0  0
   16.4970   -8.7602  -17.2743 C   0  0  0  0  0  0  0  0  0  0  0  0
   17.6598   -8.6668  -16.3608 C   0  0  0  0  0  0  0  0  0  0  0  0
   17.4874   -8.3685  -15.1738 O   0  0  0  0  0  0  0  0  0  0  0  0
   18.9570   -8.9164  -16.8413 N   0  0  0  0  0  0  0  0  0  0  0  0
   20.1588   -8.8216  -16.0381 C   0  0  1  0  0  0  0  0  0  0  0  0
   21.2026   -9.8222  -16.4523 C   0  0  0  0  0  0  0  0  0  0  0  0
   20.8108  -11.2158  -16.3007 C   0  0  0  0  0  0  0  0  0  0  0  0
   20.5442  -11.6338  -15.1224 O   0  0  0  0  0  0  0  0  0  0  0  0
   20.6556   -7.4253  -16.0387 C   0  0  0  0  0  0  0  0  0  0  0  0
   21.0284   -6.8988  -17.1157 O   0  0  0  0  0  0  0  0  0  0  0  0
   20.6950  -12.1489  -17.3119 O   0  0  0  0  0  0  0  0  0  0  0  0
   20.7380   -6.6281  -14.8699 N   0  0  0  0  0  0  0  0  0  0  0  0
   21.2213   -5.2250  -14.9075 C   0  0  1  0  0  0  0  0  0  0  0  0
   19.9890   -4.4034  -14.9428 C   0  0  0  0  0  0  0  0  0  0  0  0
   20.0890   -2.9297  -14.8653 C   0  0  0  0  0  0  0  0  0  0  0  0
   18.8285   -2.1859  -14.8772 C   0  0  0  0  0  0  0  0  0  0  0  0
   18.1754   -2.0675  -15.9370 O   0  0  0  0  0  0  0  0  0  0  0  0
   22.2169   -4.9730  -13.8921 C   0  0  0  0  0  0  0  0  0  0  0  0
   23.0995   -3.9119  -14.0252 O   0  0  0  0  0  0  0  0  0  0  0  0
   18.3486   -1.6137  -13.7212 O   0  0  0  0  0  0  0  0  0  0  0  0
   22.3734   -5.6657  -12.8435 O   0  0  0  0  0  0  0  0  0  0  0  0
  2  1  1  0
  3  2  1  0
  4  3  2  0
  5  3  1  0
  6 10  1  0
  6  5  1  0
  6  7  1  6
  8  7  1  0
  9  8  2  0
 10 13  1  0
 11 10  2  0
 12  8  1  0
 13 14  1  0
 14 19  1  0
 14 15  1  1
 16 15  1  0
 16 17  1  0
 17 18  2  0
 19 22  2  0
 19 20  1  0
 21 17  1  0
M  END
$$$$
