GDE.pdb
     RDKit          3D

 22 21  0  0  1  0  0  0  0  0999 V2000
   15.2265   -6.3258   -6.9022 N   0  0  0  0  0  0  0  0  0  0  0  0
   14.5374   -6.9541   -8.0055 C   0  0  0  0  0  0  0  0  0  0  0  0
   15.4384   -7.8458   -8.7727 C   0  0  0  0  0  0  0  0  0  0  0  0
   16.6531   -7.8373   -8.5442 O   0  0  0  0  0  0  0  0  0  0  0  0
   14.9147   -8.7000   -9.7585 N   0  0  0  0  0  0  0  0  0  0  0  0
   15.7138   -9.5807  -10.5857 C   0  0  1  0  0  0  0  0  0  0  0  0
   14.9654  -10.8221  -10.9867 C   0  0  0  0  0  0  0  0  0  0  0  0
   15.7138  -11.7449  -11.8276 C   0  0  0  0  0  0  0  0  0  0  0  0
   16.9383  -11.9608  -11.5302 O   0  0  0  0  0  0  0  0  0  0  0  0
   16.2591   -8.8289  -11.7407 C   0  0  0  0  0  0  0  0  0  0  0  0
   15.4775   -8.2130  -12.5062 O   0  0  0  0  0  0  0  0  0  0  0  0
   15.2328  -12.4225  -12.9303 O   0  0  0  0  0  0  0  0  0  0  0  0
   17.6422   -8.7605  -12.0419 N   0  0  0  0  0  0  0  0  0  0  0  0
   18.1566   -7.9969  -13.2063 C   0  0  1  0  0  0  0  0  0  0  0  0
   19.5140   -7.5627  -12.8016 C   0  0  0  0  0  0  0  0  0  0  0  0
   20.3748   -6.8514  -13.7715 C   0  0  0  0  0  0  0  0  0  0  0  0
   21.7342   -6.5342  -13.3315 C   0  0  0  0  0  0  0  0  0  0  0  0
   22.1304   -6.8890  -12.1998 O   0  0  0  0  0  0  0  0  0  0  0  0
   17.9792   -8.7207  -14.4434 C   0  0  0  0  0  0  0  0  0  0  0  0
   18.1629  -10.0945  -14.4833 O   0  0  0  0  0  0  0  0  0  0  0  0
   22.5901   -5.8461  -14.1610 O   0  0  0  0  0  0  0  0  0  0  0  0
   17.6626   -8.1949  -15.5511 O   0  0  0  0  0  0  0  0  0  0  0  0
  2  1  1  0
  3  2  1  0
  4  3  2  0
  5  3  1  0
  6 10  1  0
  6  5  1  0
  6  7  1  6
  8  7  1  0
  9  8  2  0
 10 13  1  0
 11 10  2  0
 12  8  1  0
 13 14  1  0
 14 19  1  0
 14 15  1  1
 16 15  1  0
 16 17  1  0
 17 18  2  0
 19 22  2  0
 19 20  1  0
 21 17  1  0
M  END
$$$$
