GDE.pdb
     RDKit          3D

 22 21  0  0  1  0  0  0  0  0999 V2000
   25.3024  -21.5377  -14.0933 N   0  0  0  0  0  0  0  0  0  0  0  0
   24.3124  -21.2709  -13.0756 C   0  0  0  0  0  0  0  0  0  0  0  0
   22.9710  -21.0523  -13.6658 C   0  0  0  0  0  0  0  0  0  0  0  0
   22.8383  -21.0120  -14.8940 O   0  0  0  0  0  0  0  0  0  0  0  0
   21.8507  -20.8908  -12.8322 N   0  0  0  0  0  0  0  0  0  0  0  0
   20.5162  -20.5861  -13.3061 C   0  0  1  0  0  0  0  0  0  0  0  0
   19.4563  -21.3403  -12.5510 C   0  0  0  0  0  0  0  0  0  0  0  0
   19.6901  -22.7719  -12.4308 C   0  0  0  0  0  0  0  0  0  0  0  0
   19.9730  -23.4197  -13.4960 O   0  0  0  0  0  0  0  0  0  0  0  0
   20.3035  -19.1193  -13.3027 C   0  0  0  0  0  0  0  0  0  0  0  0
   21.1531  -18.3695  -12.7623 O   0  0  0  0  0  0  0  0  0  0  0  0
   19.6375  -23.5159  -11.2688 O   0  0  0  0  0  0  0  0  0  0  0  0
   19.1727  -18.4956  -13.8862 N   0  0  0  0  0  0  0  0  0  0  0  0
   19.1533  -17.0470  -14.2101 C   0  0  1  0  0  0  0  0  0  0  0  0
   20.3647  -16.8296  -15.0348 C   0  0  0  0  0  0  0  0  0  0  0  0
   21.1494  -15.5867  -14.8699 C   0  0  0  0  0  0  0  0  0  0  0  0
   21.3997  -14.8043  -16.0812 C   0  0  0  0  0  0  0  0  0  0  0  0
   22.2397  -15.1935  -16.9218 O   0  0  0  0  0  0  0  0  0  0  0  0
   17.8656  -16.6262  -14.7105 C   0  0  0  0  0  0  0  0  0  0  0  0
   17.2540  -15.4904  -14.2020 O   0  0  0  0  0  0  0  0  0  0  0  0
   20.7098  -13.6352  -16.3080 O   0  0  0  0  0  0  0  0  0  0  0  0
   17.2058  -17.2277  -15.6086 O   0  0  0  0  0  0  0  0  0  0  0  0
  2  1  1  0
  3  2  1  0
  4  3  2  0
  5  3  1  0
  6 10  1  0
  6  5  1  0
  6  7  1  1
  8  7  1  0
  9  8  2  0
 10 13  1  0
 11 10  2  0
 12  8  1  0
 13 14  1  0
 14 19  1  0
 14 15  1  6
 16 15  1  0
 16 17  1  0
 17 18  2  0
 19 22  2  0
 19 20  1  0
 21 17  1  0
M  END
$$$$
