GDE.pdb
     RDKit          3D

 22 21  0  0  1  0  0  0  0  0999 V2000
   17.2960  -12.6269  -14.0715 N   0  0  0  0  0  0  0  0  0  0  0  0
   16.7286  -12.5771  -12.7439 C   0  0  0  0  0  0  0  0  0  0  0  0
   16.3346  -11.1980  -12.3722 C   0  0  0  0  0  0  0  0  0  0  0  0
   16.3980  -10.2926  -13.2113 O   0  0  0  0  0  0  0  0  0  0  0  0
   15.8893  -10.9179  -11.0686 N   0  0  0  0  0  0  0  0  0  0  0  0
   15.4782   -9.6072  -10.6090 C   0  0  1  0  0  0  0  0  0  0  0  0
   14.4145   -9.6819   -9.5482 C   0  0  0  0  0  0  0  0  0  0  0  0
   13.1119  -10.1322  -10.0163 C   0  0  0  0  0  0  0  0  0  0  0  0
   12.5853  -11.1394   -9.4309 O   0  0  0  0  0  0  0  0  0  0  0  0
   16.6657   -8.8251  -10.1910 C   0  0  0  0  0  0  0  0  0  0  0  0
   17.3194   -9.1805   -9.1798 O   0  0  0  0  0  0  0  0  0  0  0  0
   12.3733   -9.5773  -11.0426 O   0  0  0  0  0  0  0  0  0  0  0  0
   17.1202   -7.6726  -10.8791 N   0  0  0  0  0  0  0  0  0  0  0  0
   18.2790   -6.8773  -10.4014 C   0  0  1  0  0  0  0  0  0  0  0  0
   19.2584   -6.9350  -11.5115 C   0  0  0  0  0  0  0  0  0  0  0  0
   20.5129   -6.1566  -11.4224 C   0  0  0  0  0  0  0  0  0  0  0  0
   21.3956   -6.2007  -12.5890 C   0  0  0  0  0  0  0  0  0  0  0  0
   21.7355   -5.1435  -13.1638 O   0  0  0  0  0  0  0  0  0  0  0  0
   17.8704   -5.5951   -9.8774 C   0  0  0  0  0  0  0  0  0  0  0  0
   18.5739   -5.0076   -8.8369 O   0  0  0  0  0  0  0  0  0  0  0  0
   21.8629   -7.4060  -13.0613 O   0  0  0  0  0  0  0  0  0  0  0  0
   16.8790   -4.9256  -10.2929 O   0  0  0  0  0  0  0  0  0  0  0  0
  2  1  1  0
  3  2  1  0
  4  3  2  0
  5  3  1  0
  6 10  1  0
  6  5  1  0
  6  7  1  1
  8  7  1  0
  9  8  2  0
 10 13  1  0
 11 10  2  0
 12  8  1  0
 13 14  1  0
 14 19  1  0
 14 15  1  6
 16 15  1  0
 16 17  1  0
 17 18  2  0
 19 22  2  0
 19 20  1  0
 21 17  1  0
M  END
$$$$
