GDE.pdb
     RDKit          3D

 22 21  0  0  1  0  0  0  0  0999 V2000
   15.6597   -9.9167  -10.0770 N   0  0  0  0  0  0  0  0  0  0  0  0
   15.7493   -9.6680  -11.4973 C   0  0  0  0  0  0  0  0  0  0  0  0
   16.9526   -8.8723  -11.8354 C   0  0  0  0  0  0  0  0  0  0  0  0
   17.4843   -8.1642  -10.9730 O   0  0  0  0  0  0  0  0  0  0  0  0
   17.4897   -8.9213  -13.1334 N   0  0  0  0  0  0  0  0  0  0  0  0
   18.6028   -8.1137  -13.5887 C   0  0  1  0  0  0  0  0  0  0  0  0
   19.7174   -8.9474  -14.1587 C   0  0  0  0  0  0  0  0  0  0  0  0
   20.8927   -8.1972  -14.5764 C   0  0  0  0  0  0  0  0  0  0  0  0
   21.0279   -7.9494  -15.8232 O   0  0  0  0  0  0  0  0  0  0  0  0
   18.1184   -7.0696  -14.5224 C   0  0  0  0  0  0  0  0  0  0  0  0
   17.3839   -7.3919  -15.4882 O   0  0  0  0  0  0  0  0  0  0  0  0
   21.8932   -7.7174  -13.7545 O   0  0  0  0  0  0  0  0  0  0  0  0
   18.4409   -5.6961  -14.3890 N   0  0  0  0  0  0  0  0  0  0  0  0
   18.0398   -4.6918  -15.4059 C   0  0  1  0  0  0  0  0  0  0  0  0
   17.3358   -3.6387  -14.6377 C   0  0  0  0  0  0  0  0  0  0  0  0
   16.8719   -2.4154  -15.3276 C   0  0  0  0  0  0  0  0  0  0  0  0
   16.2240   -1.4000  -14.4960 C   0  0  0  0  0  0  0  0  0  0  0  0
   16.0829   -1.5861  -13.2676 O   0  0  0  0  0  0  0  0  0  0  0  0
   19.1418   -4.3299  -16.2664 C   0  0  0  0  0  0  0  0  0  0  0  0
   18.9024   -3.8143  -17.5312 O   0  0  0  0  0  0  0  0  0  0  0  0
   15.7681   -0.2294  -15.0581 O   0  0  0  0  0  0  0  0  0  0  0  0
   20.3659   -4.4498  -15.9647 O   0  0  0  0  0  0  0  0  0  0  0  0
  2  1  1  0
  3  2  1  0
  4  3  2  0
  5  3  1  0
  6 10  1  0
  6  5  1  0
  6  7  1  6
  8  7  1  0
  9  8  2  0
 10 13  1  0
 11 10  2  0
 12  8  1  0
 13 14  1  0
 14 19  1  0
 14 15  1  1
 16 15  1  0
 16 17  1  0
 17 18  2  0
 19 22  2  0
 19 20  1  0
 21 17  1  0
M  END
$$$$
