GDE.pdb
     RDKit          3D

 22 21  0  0  1  0  0  0  0  0999 V2000
   16.8750  -10.4927  -15.0946 N   0  0  0  0  0  0  0  0  0  0  0  0
   17.8651  -10.2390  -16.1156 C   0  0  0  0  0  0  0  0  0  0  0  0
   18.9529   -9.3671  -15.6137 C   0  0  0  0  0  0  0  0  0  0  0  0
   18.9002   -8.9178  -14.4635 O   0  0  0  0  0  0  0  0  0  0  0  0
   20.0432   -9.0505  -16.4425 N   0  0  0  0  0  0  0  0  0  0  0  0
   21.1307   -8.1720  -16.0631 C   0  0  1  0  0  0  0  0  0  0  0  0
   22.4645   -8.6742  -16.5438 C   0  0  0  0  0  0  0  0  0  0  0  0
   22.8647   -9.9654  -16.0041 C   0  0  0  0  0  0  0  0  0  0  0  0
   23.1762  -10.0214  -14.7654 O   0  0  0  0  0  0  0  0  0  0  0  0
   20.8356   -6.7873  -16.5014 C   0  0  0  0  0  0  0  0  0  0  0  0
   20.4964   -6.5710  -17.6907 O   0  0  0  0  0  0  0  0  0  0  0  0
   22.9447  -11.1552  -16.7002 O   0  0  0  0  0  0  0  0  0  0  0  0
   20.9145   -5.6648  -15.6400 N   0  0  0  0  0  0  0  0  0  0  0  0
   20.4758   -4.3128  -16.0679 C   0  0  1  0  0  0  0  0  0  0  0  0
   19.0103   -4.3063  -15.8504 C   0  0  0  0  0  0  0  0  0  0  0  0
   18.2447   -3.0581  -16.0587 C   0  0  0  0  0  0  0  0  0  0  0  0
   16.8142   -3.1081  -15.7529 C   0  0  0  0  0  0  0  0  0  0  0  0
   16.3043   -4.1507  -15.2875 O   0  0  0  0  0  0  0  0  0  0  0  0
   21.2882   -3.2738  -15.4795 C   0  0  0  0  0  0  0  0  0  0  0  0
   21.3525   -2.0189  -16.0659 O   0  0  0  0  0  0  0  0  0  0  0  0
   16.0183   -2.0067  -15.9710 O   0  0  0  0  0  0  0  0  0  0  0  0
   21.9867   -3.4068  -14.4315 O   0  0  0  0  0  0  0  0  0  0  0  0
  2  1  1  0
  3  2  1  0
  4  3  2  0
  5  3  1  0
  6 10  1  0
  6  5  1  0
  6  7  1  6
  8  7  1  0
  9  8  2  0
 10 13  1  0
 11 10  2  0
 12  8  1  0
 13 14  1  0
 14 19  1  0
 14 15  1  1
 16 15  1  0
 16 17  1  0
 17 18  2  0
 19 22  2  0
 19 20  1  0
 21 17  1  0
M  END
$$$$
