GDE.pdb
     RDKit          3D

 22 21  0  0  1  0  0  0  0  0999 V2000
   25.1640  -24.3100  -16.0566 N   0  0  0  0  0  0  0  0  0  0  0  0
   24.3315  -23.2107  -16.4872 C   0  0  0  0  0  0  0  0  0  0  0  0
   23.3576  -22.8231  -15.4398 C   0  0  0  0  0  0  0  0  0  0  0  0
   23.1761  -23.5611  -14.4651 O   0  0  0  0  0  0  0  0  0  0  0  0
   22.6409  -21.6192  -15.5529 N   0  0  0  0  0  0  0  0  0  0  0  0
   21.7109  -21.1249  -14.5583 C   0  0  1  0  0  0  0  0  0  0  0  0
   21.8389  -19.6416  -14.3444 C   0  0  0  0  0  0  0  0  0  0  0  0
   23.0506  -19.2236  -13.6547 C   0  0  0  0  0  0  0  0  0  0  0  0
   23.1768  -19.5484  -12.4247 O   0  0  0  0  0  0  0  0  0  0  0  0
   20.3331  -21.5483  -14.9031 C   0  0  0  0  0  0  0  0  0  0  0  0
   19.9120  -21.3980  -16.0763 O   0  0  0  0  0  0  0  0  0  0  0  0
   24.0948  -18.5016  -14.1977 O   0  0  0  0  0  0  0  0  0  0  0  0
   19.4395  -22.1267  -13.9676 N   0  0  0  0  0  0  0  0  0  0  0  0
   18.0495  -22.4977  -14.3333 C   0  0  1  0  0  0  0  0  0  0  0  0
   17.6837  -23.5721  -13.3810 C   0  0  0  0  0  0  0  0  0  0  0  0
   16.3379  -24.1819  -13.4468 C   0  0  0  0  0  0  0  0  0  0  0  0
   15.9917  -25.1222  -12.3799 C   0  0  0  0  0  0  0  0  0  0  0  0
   15.6098  -24.7006  -11.2663 O   0  0  0  0  0  0  0  0  0  0  0  0
   17.1996  -21.3368  -14.4586 C   0  0  0  0  0  0  0  0  0  0  0  0
   16.2621  -21.2621  -15.4776 O   0  0  0  0  0  0  0  0  0  0  0  0
   16.0795  -26.4788  -12.5940 O   0  0  0  0  0  0  0  0  0  0  0  0
   17.2340  -20.3280  -13.6937 O   0  0  0  0  0  0  0  0  0  0  0  0
  2  1  1  0
  3  2  1  0
  4  3  2  0
  5  3  1  0
  6 10  1  0
  6  5  1  0
  6  7  1  6
  8  7  1  0
  9  8  2  0
 10 13  1  0
 11 10  2  0
 12  8  1  0
 13 14  1  0
 14 19  1  0
 14 15  1  1
 16 15  1  0
 16 17  1  0
 17 18  2  0
 19 22  2  0
 19 20  1  0
 21 17  1  0
M  END
$$$$
