DDI.pdb
     RDKit          3D

 25 24  0  0  1  0  0  0  0  0999 V2000
   16.2123  -12.6435  -13.4675 N   0  0  0  0  0  0  0  0  0  0  0  0
   15.5795  -11.3710  -13.7221 C   0  0  1  0  0  0  0  0  0  0  0  0
   14.1195  -11.5171  -13.3644 C   0  0  0  0  0  0  0  0  0  0  0  0
   13.4247  -12.4763  -14.2526 C   0  0  0  0  0  0  0  0  0  0  0  0
   13.5750  -12.4143  -15.4989 O   0  0  0  0  0  0  0  0  0  0  0  0
   16.1193  -10.2859  -12.8671 C   0  0  0  0  0  0  0  0  0  0  0  0
   16.1990  -10.5590  -11.6294 O   0  0  0  0  0  0  0  0  0  0  0  0
   12.5926  -13.4678  -13.7577 O   0  0  0  0  0  0  0  0  0  0  0  0
   16.5280   -9.0296  -13.3368 N   0  0  0  0  0  0  0  0  0  0  0  0
   17.2379   -8.1397  -12.3990 C   0  0  1  0  0  0  0  0  0  0  0  0
   18.2262   -7.3881  -13.2266 C   0  0  0  0  0  0  0  0  0  0  0  0
   19.3556   -8.1991  -13.6287 C   0  0  0  0  0  0  0  0  0  0  0  0
   20.3497   -8.3688  -12.8882 O   0  0  0  0  0  0  0  0  0  0  0  0
   16.2334   -7.2819  -11.7150 C   0  0  0  0  0  0  0  0  0  0  0  0
   15.3177   -6.6956  -12.3145 O   0  0  0  0  0  0  0  0  0  0  0  0
   19.3224   -8.8132  -14.9002 O   0  0  0  0  0  0  0  0  0  0  0  0
   12.3031   -6.2154   -8.4264 C   0  0  0  0  0  0  0  0  0  0  0  0
   13.6454   -6.0509   -7.7573 C   0  0  0  0  0  0  0  0  0  0  0  0
   14.6270   -6.9515   -8.4668 C   0  0  2  0  0  0  0  0  0  0  0  0
   15.7128   -7.3652   -7.4786 C   0  0  0  0  0  0  0  0  0  0  0  0
   15.3125   -6.2461   -9.6115 C   0  0  2  0  0  0  0  0  0  0  0  0
   16.2643   -7.0774  -10.2897 N   0  0  0  0  0  0  0  0  0  0  0  0
   15.8796   -4.9831   -9.0913 C   0  0  0  0  0  0  0  0  0  0  0  0
   15.1243   -4.0264   -8.8611 O   0  0  0  0  0  0  0  0  0  0  0  0
   17.2432   -4.8759   -8.8652 O   0  0  0  0  0  0  0  0  0  0  0  0
  2  1  1  1
  2  3  1  0
  3  4  1  0
  4  5  2  0
  6  2  1  0
  7  6  2  0
  8  4  1  0
  9  6  1  0
 10 14  1  0
 10  9  1  0
 10 11  1  6
 12 11  1  0
 12 13  2  0
 14 22  1  0
 15 14  2  0
 16 12  1  0
 18 17  1  0
 19 18  1  0
 19 20  1  1
 21 19  1  0
 21 23  1  0
 21 22  1  1
 23 24  2  0
 23 25  1  0
M  END
$$$$
