DDI.pdb
     RDKit          3D

 25 24  0  0  1  0  0  0  0  0999 V2000
   15.9667  -12.8802  -14.2564 N   0  0  0  0  0  0  0  0  0  0  0  0
   15.0693  -11.7844  -13.9762 C   0  0  1  0  0  0  0  0  0  0  0  0
   14.0373  -12.2898  -12.9961 C   0  0  0  0  0  0  0  0  0  0  0  0
   13.1700  -13.3308  -13.5925 C   0  0  0  0  0  0  0  0  0  0  0  0
   12.3698  -13.0403  -14.5172 O   0  0  0  0  0  0  0  0  0  0  0  0
   15.7528  -10.6424  -13.3215 C   0  0  0  0  0  0  0  0  0  0  0  0
   16.5895  -10.9558  -12.4190 O   0  0  0  0  0  0  0  0  0  0  0  0
   13.2014  -14.6486  -13.1650 O   0  0  0  0  0  0  0  0  0  0  0  0
   15.5309   -9.2941  -13.6358 N   0  0  0  0  0  0  0  0  0  0  0  0
   16.3444   -8.2801  -12.9392 C   0  0  1  0  0  0  0  0  0  0  0  0
   16.8443   -7.3630  -14.0048 C   0  0  0  0  0  0  0  0  0  0  0  0
   17.6416   -6.2743  -13.4814 C   0  0  0  0  0  0  0  0  0  0  0  0
   17.8812   -6.1531  -12.2595 O   0  0  0  0  0  0  0  0  0  0  0  0
   15.4935   -7.6206  -11.9127 C   0  0  0  0  0  0  0  0  0  0  0  0
   14.4437   -7.0160  -12.1848 O   0  0  0  0  0  0  0  0  0  0  0  0
   18.1600   -5.3247  -14.3896 O   0  0  0  0  0  0  0  0  0  0  0  0
   12.6168   -9.4014   -8.1565 C   0  0  0  0  0  0  0  0  0  0  0  0
   13.1828   -8.4325   -9.1650 C   0  0  0  0  0  0  0  0  0  0  0  0
   14.3905   -7.7742   -8.5436 C   0  0  2  0  0  0  0  0  0  0  0  0
   13.9243   -6.8772   -7.4014 C   0  0  0  0  0  0  0  0  0  0  0  0
   15.1222   -6.8958   -9.5289 C   0  0  2  0  0  0  0  0  0  0  0  0
   15.8440   -7.6452  -10.5160 N   0  0  0  0  0  0  0  0  0  0  0  0
   15.9603   -5.9513   -8.7589 C   0  0  0  0  0  0  0  0  0  0  0  0
   15.4242   -4.9917   -8.1839 O   0  0  0  0  0  0  0  0  0  0  0  0
   17.3314   -6.1421   -8.6844 O   0  0  0  0  0  0  0  0  0  0  0  0
  2  1  1  1
  2  3  1  0
  3  4  1  0
  4  5  2  0
  6  2  1  0
  7  6  2  0
  8  4  1  0
  9  6  1  0
 10 14  1  0
 10  9  1  0
 10 11  1  6
 12 11  1  0
 12 13  2  0
 14 22  1  0
 15 14  2  0
 16 12  1  0
 18 17  1  0
 19 18  1  0
 19 20  1  1
 21 19  1  0
 21 23  1  0
 21 22  1  6
 23 24  2  0
 23 25  1  0
M  END
$$$$
