DDI.pdb
     RDKit          3D

 25 24  0  0  1  0  0  0  0  0999 V2000
   16.5112  -11.3988  -17.6757 N   0  0  0  0  0  0  0  0  0  0  0  0
   16.1224  -10.3921  -16.7167 C   0  0  1  0  0  0  0  0  0  0  0  0
   16.1441  -11.0404  -15.3528 C   0  0  0  0  0  0  0  0  0  0  0  0
   14.9379  -11.8640  -15.1116 C   0  0  0  0  0  0  0  0  0  0  0  0
   13.9572  -11.8023  -15.8952 O   0  0  0  0  0  0  0  0  0  0  0  0
   17.0772   -9.2584  -16.6629 C   0  0  0  0  0  0  0  0  0  0  0  0
   18.2113   -9.4787  -17.1902 O   0  0  0  0  0  0  0  0  0  0  0  0
   14.8386  -12.7246  -14.0299 O   0  0  0  0  0  0  0  0  0  0  0  0
   16.8019   -8.0110  -16.0847 N   0  0  0  0  0  0  0  0  0  0  0  0
   17.8163   -6.9489  -16.2196 C   0  0  1  0  0  0  0  0  0  0  0  0
   17.0504   -5.6775  -16.3732 C   0  0  0  0  0  0  0  0  0  0  0  0
   17.9031   -4.5087  -16.4153 C   0  0  0  0  0  0  0  0  0  0  0  0
   17.5807   -3.4304  -15.8690 O   0  0  0  0  0  0  0  0  0  0  0  0
   18.7007   -6.9906  -15.0243 C   0  0  0  0  0  0  0  0  0  0  0  0
   18.2723   -7.0954  -13.8636 O   0  0  0  0  0  0  0  0  0  0  0  0
   19.1360   -4.6013  -17.0983 O   0  0  0  0  0  0  0  0  0  0  0  0
   23.9838   -9.3481  -14.2500 C   0  0  0  0  0  0  0  0  0  0  0  0
   23.1824   -8.1110  -14.5721 C   0  0  0  0  0  0  0  0  0  0  0  0
   21.8007   -8.2936  -13.9929 C   0  0  2  0  0  0  0  0  0  0  0  0
   21.0422   -9.3037  -14.8479 C   0  0  0  0  0  0  0  0  0  0  0  0
   21.0077   -7.0096  -14.0127 C   0  0  2  0  0  0  0  0  0  0  0  0
   20.1337   -6.9107  -15.1455 N   0  0  0  0  0  0  0  0  0  0  0  0
   21.9612   -5.8860  -13.8885 C   0  0  0  0  0  0  0  0  0  0  0  0
   22.5314   -5.6887  -12.8046 O   0  0  0  0  0  0  0  0  0  0  0  0
   22.2111   -5.0644  -14.9770 O   0  0  0  0  0  0  0  0  0  0  0  0
  2  1  1  6
  2  3  1  0
  3  4  1  0
  4  5  2  0
  6  2  1  0
  7  6  2  0
  8  4  1  0
  9  6  1  0
 10 14  1  0
 10  9  1  0
 10 11  1  1
 12 11  1  0
 12 13  2  0
 14 22  1  0
 15 14  2  0
 16 12  1  0
 18 17  1  0
 19 18  1  0
 19 20  1  6
 21 19  1  0
 21 23  1  0
 21 22  1  6
 23 24  2  0
 23 25  1  0
M  END
$$$$
