DDI.pdb
     RDKit          3D

 25 24  0  0  1  0  0  0  0  0999 V2000
   16.1049  -10.5393  -17.4204 N   0  0  0  0  0  0  0  0  0  0  0  0
   16.0323   -9.8545  -16.1514 C   0  0  1  0  0  0  0  0  0  0  0  0
   16.4843  -10.8291  -15.0899 C   0  0  0  0  0  0  0  0  0  0  0  0
   15.4770  -11.8854  -14.8423 C   0  0  0  0  0  0  0  0  0  0  0  0
   14.2497  -11.6172  -14.8827 O   0  0  0  0  0  0  0  0  0  0  0  0
   16.9505   -8.6920  -16.0787 C   0  0  0  0  0  0  0  0  0  0  0  0
   18.1006   -8.8764  -16.5846 O   0  0  0  0  0  0  0  0  0  0  0  0
   15.8364  -13.1937  -14.5602 O   0  0  0  0  0  0  0  0  0  0  0  0
   16.6259   -7.4545  -15.5049 N   0  0  0  0  0  0  0  0  0  0  0  0
   17.6034   -6.3574  -15.6315 C   0  0  1  0  0  0  0  0  0  0  0  0
   16.8153   -5.0978  -15.4951 C   0  0  0  0  0  0  0  0  0  0  0  0
   17.6372   -3.9088  -15.5723 C   0  0  0  0  0  0  0  0  0  0  0  0
   17.3869   -2.8827  -14.9018 O   0  0  0  0  0  0  0  0  0  0  0  0
   18.6509   -6.5404  -14.5913 C   0  0  0  0  0  0  0  0  0  0  0  0
   18.3935   -6.7827  -13.4011 O   0  0  0  0  0  0  0  0  0  0  0  0
   18.7547   -3.9201  -16.4362 O   0  0  0  0  0  0  0  0  0  0  0  0
   22.3779   -9.2621  -12.3165 C   0  0  0  0  0  0  0  0  0  0  0  0
   22.9432   -8.1473  -13.1615 C   0  0  0  0  0  0  0  0  0  0  0  0
   21.9525   -7.8560  -14.2622 C   0  0  2  0  0  0  0  0  0  0  0  0
   22.7219   -7.5105  -15.5331 C   0  0  0  0  0  0  0  0  0  0  0  0
   21.0794   -6.6694  -13.9342 C   0  0  2  0  0  0  0  0  0  0  0  0
   20.0523   -6.4455  -14.9099 N   0  0  0  0  0  0  0  0  0  0  0  0
   21.9627   -5.5042  -13.7122 C   0  0  0  0  0  0  0  0  0  0  0  0
   22.6921   -5.4760  -12.7092 O   0  0  0  0  0  0  0  0  0  0  0  0
   21.9707   -4.4565  -14.6201 O   0  0  0  0  0  0  0  0  0  0  0  0
  2  1  1  6
  2  3  1  0
  3  4  1  0
  4  5  2  0
  6  2  1  0
  7  6  2  0
  8  4  1  0
  9  6  1  0
 10 14  1  0
 10  9  1  0
 10 11  1  1
 12 11  1  0
 12 13  2  0
 14 22  1  0
 15 14  2  0
 16 12  1  0
 18 17  1  0
 19 18  1  0
 19 20  1  6
 21 19  1  0
 21 23  1  0
 21 22  1  6
 23 24  2  0
 23 25  1  0
M  END
$$$$
