DDI.pdb
     RDKit          3D

 25 24  0  0  1  0  0  0  0  0999 V2000
   14.0893   -9.6006  -13.6762 N   0  0  0  0  0  0  0  0  0  0  0  0
   14.4161   -8.9236  -14.9088 C   0  0  1  0  0  0  0  0  0  0  0  0
   13.8812   -7.5153  -14.8019 C   0  0  0  0  0  0  0  0  0  0  0  0
   12.4428   -7.4940  -14.4523 C   0  0  0  0  0  0  0  0  0  0  0  0
   12.0558   -6.9674  -13.3787 O   0  0  0  0  0  0  0  0  0  0  0  0
   15.8791   -8.8067  -15.1232 C   0  0  0  0  0  0  0  0  0  0  0  0
   16.5322   -9.8900  -15.0111 O   0  0  0  0  0  0  0  0  0  0  0  0
   11.4762   -8.0442  -15.2790 O   0  0  0  0  0  0  0  0  0  0  0  0
   16.5468   -7.6126  -15.4302 N   0  0  0  0  0  0  0  0  0  0  0  0
   18.0060   -7.6712  -15.6366 C   0  0  1  0  0  0  0  0  0  0  0  0
   18.2096   -7.5528  -17.1100 C   0  0  0  0  0  0  0  0  0  0  0  0
   19.6051   -7.6027  -17.4908 C   0  0  0  0  0  0  0  0  0  0  0  0
   20.2391   -6.5787  -17.8294 O   0  0  0  0  0  0  0  0  0  0  0  0
   18.6360   -6.5832  -14.8417 C   0  0  0  0  0  0  0  0  0  0  0  0
   18.1628   -5.4382  -14.7596 O   0  0  0  0  0  0  0  0  0  0  0  0
   20.2609   -8.8537  -17.4757 O   0  0  0  0  0  0  0  0  0  0  0  0
   20.5576   -5.9652   -9.3593 C   0  0  0  0  0  0  0  0  0  0  0  0
   20.8593   -5.4134  -10.7307 C   0  0  0  0  0  0  0  0  0  0  0  0
   20.4261   -6.4421  -11.7465 C   0  0  2  0  0  0  0  0  0  0  0  0
   21.4659   -7.5574  -11.7862 C   0  0  0  0  0  0  0  0  0  0  0  0
   20.3441   -5.8606  -13.1369 C   0  0  2  0  0  0  0  0  0  0  0  0
   19.8555   -6.7981  -14.1061 N   0  0  0  0  0  0  0  0  0  0  0  0
   21.6669   -5.2878  -13.4675 C   0  0  0  0  0  0  0  0  0  0  0  0
   22.0658   -4.2850  -12.8557 O   0  0  0  0  0  0  0  0  0  0  0  0
   22.4489   -5.8707  -14.4527 O   0  0  0  0  0  0  0  0  0  0  0  0
  2  1  1  1
  2  3  1  0
  3  4  1  0
  4  5  2  0
  6  2  1  0
  7  6  2  0
  8  4  1  0
  9  6  1  0
 10 14  1  0
 10  9  1  0
 10 11  1  6
 12 11  1  0
 12 13  2  0
 14 22  1  0
 15 14  2  0
 16 12  1  0
 18 17  1  0
 19 18  1  0
 19 20  1  6
 21 19  1  0
 21 23  1  0
 21 22  1  6
 23 24  2  0
 23 25  1  0
M  END
$$$$
