DDI.pdb
     RDKit          3D

 25 24  0  0  1  0  0  0  0  0999 V2000
   18.3775  -13.7390  -15.9405 N   0  0  0  0  0  0  0  0  0  0  0  0
   18.5418  -12.7201  -16.9501 C   0  0  1  0  0  0  0  0  0  0  0  0
   17.2837  -12.7101  -17.7855 C   0  0  0  0  0  0  0  0  0  0  0  0
   17.1359  -13.9509  -18.5794 C   0  0  0  0  0  0  0  0  0  0  0  0
   18.1503  -14.5719  -18.9856 O   0  0  0  0  0  0  0  0  0  0  0  0
   18.6772  -11.3615  -16.3707 C   0  0  0  0  0  0  0  0  0  0  0  0
   17.6470  -10.9217  -15.7722 O   0  0  0  0  0  0  0  0  0  0  0  0
   15.8941  -14.4735  -18.9039 O   0  0  0  0  0  0  0  0  0  0  0  0
   19.8347  -10.5739  -16.4473 N   0  0  0  0  0  0  0  0  0  0  0  0
   19.8082   -9.2444  -15.8094 C   0  0  1  0  0  0  0  0  0  0  0  0
   20.8349   -9.2959  -14.7278 C   0  0  0  0  0  0  0  0  0  0  0  0
   20.9541   -8.0473  -14.0054 C   0  0  0  0  0  0  0  0  0  0  0  0
   21.8939   -7.2474  -14.2106 O   0  0  0  0  0  0  0  0  0  0  0  0
   20.0696   -8.2179  -16.8539 C   0  0  0  0  0  0  0  0  0  0  0  0
   21.0249   -8.2792  -17.6447 O   0  0  0  0  0  0  0  0  0  0  0  0
   19.9715   -7.7335  -13.0404 O   0  0  0  0  0  0  0  0  0  0  0  0
   15.9897   -5.1050  -19.2014 C   0  0  0  0  0  0  0  0  0  0  0  0
   17.0709   -5.3608  -18.1808 C   0  0  0  0  0  0  0  0  0  0  0  0
   18.3013   -5.8267  -18.9203 C   0  0  2  0  0  0  0  0  0  0  0  0
   17.9941   -7.1642  -19.5860 C   0  0  0  0  0  0  0  0  0  0  0  0
   19.4671   -6.0510  -17.9884 C   0  0  2  0  0  0  0  0  0  0  0  0
   19.2134   -7.0708  -17.0123 N   0  0  0  0  0  0  0  0  0  0  0  0
   19.8421   -4.7432  -17.4085 C   0  0  0  0  0  0  0  0  0  0  0  0
   19.6400   -4.5316  -16.2030 O   0  0  0  0  0  0  0  0  0  0  0  0
   20.4138   -3.7670  -18.2100 O   0  0  0  0  0  0  0  0  0  0  0  0
  2  1  1  1
  2  3  1  0
  3  4  1  0
  4  5  2  0
  6  2  1  0
  7  6  2  0
  8  4  1  0
  9  6  1  0
 10 14  1  0
 10  9  1  0
 10 11  1  1
 12 11  1  0
 12 13  2  0
 14 22  1  0
 15 14  2  0
 16 12  1  0
 18 17  1  0
 19 18  1  0
 19 20  1  1
 21 19  1  0
 21 23  1  0
 21 22  1  1
 23 24  2  0
 23 25  1  0
M  END
$$$$
