DDI.pdb
     RDKit          3D

 25 24  0  0  1  0  0  0  0  0999 V2000
   17.4319  -12.8061  -15.0269 N   0  0  0  0  0  0  0  0  0  0  0  0
   16.3239  -11.8885  -14.9055 C   0  0  1  0  0  0  0  0  0  0  0  0
   15.2754  -12.5625  -14.0526 C   0  0  0  0  0  0  0  0  0  0  0  0
   14.6074  -13.6722  -14.7697 C   0  0  0  0  0  0  0  0  0  0  0  0
   14.2390  -14.7012  -14.1493 O   0  0  0  0  0  0  0  0  0  0  0  0
   16.6974  -10.6347  -14.2067 C   0  0  0  0  0  0  0  0  0  0  0  0
   17.2770  -10.7892  -13.0874 O   0  0  0  0  0  0  0  0  0  0  0  0
   14.3629  -13.6259  -16.1330 O   0  0  0  0  0  0  0  0  0  0  0  0
   16.4534   -9.3447  -14.6990 N   0  0  0  0  0  0  0  0  0  0  0  0
   17.0039   -8.2027  -13.9453 C   0  0  1  0  0  0  0  0  0  0  0  0
   17.3203   -7.1612  -14.9659 C   0  0  0  0  0  0  0  0  0  0  0  0
   17.9621   -5.9945  -14.3987 C   0  0  0  0  0  0  0  0  0  0  0  0
   18.2505   -5.9188  -13.1837 O   0  0  0  0  0  0  0  0  0  0  0  0
   15.9997   -7.7821  -12.9317 C   0  0  0  0  0  0  0  0  0  0  0  0
   14.7748   -7.8179  -13.1312 O   0  0  0  0  0  0  0  0  0  0  0  0
   18.2671   -4.9132  -15.2548 O   0  0  0  0  0  0  0  0  0  0  0  0
   13.3595   -7.7549   -8.3923 C   0  0  0  0  0  0  0  0  0  0  0  0
   14.5822   -6.8726   -8.3403 C   0  0  0  0  0  0  0  0  0  0  0  0
   15.5891   -7.4228   -9.3208 C   0  0  2  0  0  0  0  0  0  0  0  0
   16.9912   -7.1035   -8.8122 C   0  0  0  0  0  0  0  0  0  0  0  0
   15.4543   -6.7867  -10.6828 C   0  0  2  0  0  0  0  0  0  0  0  0
   16.3971   -7.2994  -11.6342 N   0  0  0  0  0  0  0  0  0  0  0  0
   15.5153   -5.3196  -10.5060 C   0  0  0  0  0  0  0  0  0  0  0  0
   14.5357   -4.7224  -10.0343 O   0  0  0  0  0  0  0  0  0  0  0  0
   16.6594   -4.6243  -10.8659 O   0  0  0  0  0  0  0  0  0  0  0  0
  2  1  1  1
  2  3  1  0
  3  4  1  0
  4  5  2  0
  6  2  1  0
  7  6  2  0
  8  4  1  0
  9  6  1  0
 10 14  1  0
 10  9  1  0
 10 11  1  6
 12 11  1  0
 12 13  2  0
 14 22  1  0
 15 14  2  0
 16 12  1  0
 18 17  1  0
 19 18  1  0
 19 20  1  1
 21 19  1  0
 21 23  1  0
 21 22  1  6
 23 24  2  0
 23 25  1  0
M  END
$$$$
