DDI.pdb
     RDKit          3D

 25 24  0  0  1  0  0  0  0  0999 V2000
   17.5876  -12.9002  -15.6707 N   0  0  0  0  0  0  0  0  0  0  0  0
   16.4574  -12.1897  -15.1207 C   0  0  1  0  0  0  0  0  0  0  0  0
   15.7500  -13.1341  -14.1781 C   0  0  0  0  0  0  0  0  0  0  0  0
   14.6197  -13.8289  -14.8349 C   0  0  0  0  0  0  0  0  0  0  0  0
   14.3770  -13.6395  -16.0535 O   0  0  0  0  0  0  0  0  0  0  0  0
   16.8628  -11.0116  -14.3158 C   0  0  0  0  0  0  0  0  0  0  0  0
   17.3285  -11.2755  -13.1642 O   0  0  0  0  0  0  0  0  0  0  0  0
   13.7936  -14.7035  -14.1471 O   0  0  0  0  0  0  0  0  0  0  0  0
   16.7620   -9.6804  -14.7445 N   0  0  0  0  0  0  0  0  0  0  0  0
   17.2256   -8.6229  -13.8270 C   0  0  1  0  0  0  0  0  0  0  0  0
   17.7897   -7.5516  -14.6991 C   0  0  0  0  0  0  0  0  0  0  0  0
   18.2194   -6.3876  -13.9537 C   0  0  0  0  0  0  0  0  0  0  0  0
   17.8158   -5.2358  -14.2284 O   0  0  0  0  0  0  0  0  0  0  0  0
   16.0741   -8.1894  -12.9911 C   0  0  0  0  0  0  0  0  0  0  0  0
   14.9348   -8.0002  -13.4470 O   0  0  0  0  0  0  0  0  0  0  0  0
   19.1239   -6.5714  -12.8844 O   0  0  0  0  0  0  0  0  0  0  0  0
   12.8846   -8.5356   -8.7902 C   0  0  0  0  0  0  0  0  0  0  0  0
   14.0013   -7.5536   -8.5351 C   0  0  0  0  0  0  0  0  0  0  0  0
   15.1962   -7.9944   -9.3449 C   0  0  2  0  0  0  0  0  0  0  0  0
   16.4566   -7.4147   -8.7111 C   0  0  0  0  0  0  0  0  0  0  0  0
   15.1352   -7.4818  -10.7632 C   0  0  2  0  0  0  0  0  0  0  0  0
   16.2157   -7.9595  -11.5763 N   0  0  0  0  0  0  0  0  0  0  0  0
   15.0296   -6.0077  -10.7083 C   0  0  0  0  0  0  0  0  0  0  0  0
   13.9535   -5.4866  -10.3777 O   0  0  0  0  0  0  0  0  0  0  0  0
   16.1267   -5.2212  -11.0245 O   0  0  0  0  0  0  0  0  0  0  0  0
  2  1  1  1
  2  3  1  0
  3  4  1  0
  4  5  2  0
  6  2  1  0
  7  6  2  0
  8  4  1  0
  9  6  1  0
 10 14  1  0
 10  9  1  0
 10 11  1  6
 12 11  1  0
 12 13  2  0
 14 22  1  0
 15 14  2  0
 16 12  1  0
 18 17  1  0
 19 18  1  0
 19 20  1  1
 21 19  1  0
 21 23  1  0
 21 22  1  6
 23 24  2  0
 23 25  1  0
M  END
$$$$
