DDI.pdb
     RDKit          3D

 25 24  0  0  1  0  0  0  0  0999 V2000
   16.3336  -11.4728  -17.3539 N   0  0  0  0  0  0  0  0  0  0  0  0
   16.3732  -10.8897  -16.0338 C   0  0  1  0  0  0  0  0  0  0  0  0
   17.1469  -11.8374  -15.1483 C   0  0  0  0  0  0  0  0  0  0  0  0
   16.3041  -12.9525  -14.6604 C   0  0  0  0  0  0  0  0  0  0  0  0
   15.0857  -12.7690  -14.4128 O   0  0  0  0  0  0  0  0  0  0  0  0
   17.0971   -9.5955  -16.0048 C   0  0  0  0  0  0  0  0  0  0  0  0
   18.0418   -9.4832  -16.8461 O   0  0  0  0  0  0  0  0  0  0  0  0
   16.8127  -14.2257  -14.4586 O   0  0  0  0  0  0  0  0  0  0  0  0
   16.8031   -8.5369  -15.1336 N   0  0  0  0  0  0  0  0  0  0  0  0
   17.5320   -7.2682  -15.3184 C   0  0  1  0  0  0  0  0  0  0  0  0
   16.5772   -6.1931  -14.9197 C   0  0  0  0  0  0  0  0  0  0  0  0
   15.4644   -6.0609  -15.8358 C   0  0  0  0  0  0  0  0  0  0  0  0
   14.2828   -6.2686  -15.4812 O   0  0  0  0  0  0  0  0  0  0  0  0
   18.7744   -7.3179  -14.5018 C   0  0  0  0  0  0  0  0  0  0  0  0
   18.7873   -7.6309  -13.3003 O   0  0  0  0  0  0  0  0  0  0  0  0
   15.7344   -5.6850  -17.1703 O   0  0  0  0  0  0  0  0  0  0  0  0
   23.1733   -9.5070  -13.2240 C   0  0  0  0  0  0  0  0  0  0  0  0
   23.4708   -8.3074  -14.0893 C   0  0  0  0  0  0  0  0  0  0  0  0
   22.2685   -8.0645  -14.9688 C   0  0  2  0  0  0  0  0  0  0  0  0
   22.7351   -7.4069  -16.2635 C   0  0  0  0  0  0  0  0  0  0  0  0
   21.2797   -7.1243  -14.3235 C   0  0  2  0  0  0  0  0  0  0  0  0
   20.0600   -7.0001  -15.0678 N   0  0  0  0  0  0  0  0  0  0  0  0
   21.9692   -5.8389  -14.0794 C   0  0  0  0  0  0  0  0  0  0  0  0
   22.8293   -5.7695  -13.1882 O   0  0  0  0  0  0  0  0  0  0  0  0
   21.6527   -4.7258  -14.8428 O   0  0  0  0  0  0  0  0  0  0  0  0
  2  1  1  6
  2  3  1  0
  3  4  1  0
  4  5  2  0
  6  2  1  0
  7  6  2  0
  8  4  1  0
  9  6  1  0
 10 14  1  0
 10  9  1  0
 10 11  1  1
 12 11  1  0
 12 13  2  0
 14 22  1  0
 15 14  2  0
 16 12  1  0
 18 17  1  0
 19 18  1  0
 19 20  1  6
 21 19  1  0
 21 23  1  0
 21 22  1  6
 23 24  2  0
 23 25  1  0
M  END
$$$$
