DDI.pdb
     RDKit          3D

 25 24  0  0  1  0  0  0  0  0999 V2000
   15.1408  -11.3454  -15.8260 N   0  0  0  0  0  0  0  0  0  0  0  0
   16.3127  -11.1251  -15.0118 C   0  0  1  0  0  0  0  0  0  0  0  0
   17.3097  -12.2046  -15.3604 C   0  0  0  0  0  0  0  0  0  0  0  0
   16.9751  -13.4961  -14.7188 C   0  0  0  0  0  0  0  0  0  0  0  0
   16.0128  -13.5773  -13.9144 O   0  0  0  0  0  0  0  0  0  0  0  0
   16.9719   -9.8287  -15.3023 C   0  0  0  0  0  0  0  0  0  0  0  0
   17.6887   -9.8072  -16.3504 O   0  0  0  0  0  0  0  0  0  0  0  0
   17.6956  -14.6524  -14.9724 O   0  0  0  0  0  0  0  0  0  0  0  0
   16.8483   -8.6768  -14.5124 N   0  0  0  0  0  0  0  0  0  0  0  0
   17.5535   -7.4588  -14.9531 C   0  0  1  0  0  0  0  0  0  0  0  0
   16.5514   -6.3571  -14.8602 C   0  0  0  0  0  0  0  0  0  0  0  0
   17.1099   -5.0603  -15.1788 C   0  0  0  0  0  0  0  0  0  0  0  0
   18.0080   -4.9158  -16.0376 O   0  0  0  0  0  0  0  0  0  0  0  0
   18.7509   -7.2721  -14.0904 C   0  0  0  0  0  0  0  0  0  0  0  0
   18.7428   -7.4641  -12.8637 O   0  0  0  0  0  0  0  0  0  0  0  0
   16.6168   -3.9296  -14.4907 O   0  0  0  0  0  0  0  0  0  0  0  0
   23.6526   -8.4766  -16.2425 C   0  0  0  0  0  0  0  0  0  0  0  0
   22.6215   -7.4624  -15.8126 C   0  0  0  0  0  0  0  0  0  0  0  0
   22.2884   -7.7296  -14.3650 C   0  0  2  0  0  0  0  0  0  0  0  0
   21.7496   -9.1512  -14.2421 C   0  0  0  0  0  0  0  0  0  0  0  0
   21.2142   -6.8008  -13.8538 C   0  0  2  0  0  0  0  0  0  0  0  0
   20.0143   -6.8499  -14.6380 N   0  0  0  0  0  0  0  0  0  0  0  0
   21.8018   -5.4486  -13.7372 C   0  0  0  0  0  0  0  0  0  0  0  0
   22.7157   -5.2507  -12.9220 O   0  0  0  0  0  0  0  0  0  0  0  0
   21.3312   -4.4164  -14.5341 O   0  0  0  0  0  0  0  0  0  0  0  0
  2  1  1  6
  2  3  1  0
  3  4  1  0
  4  5  2  0
  6  2  1  0
  7  6  2  0
  8  4  1  0
  9  6  1  0
 10 14  1  0
 10  9  1  0
 10 11  1  1
 12 11  1  0
 12 13  2  0
 14 22  1  0
 15 14  2  0
 16 12  1  0
 18 17  1  0
 19 18  1  0
 19 20  1  6
 21 19  1  0
 21 23  1  0
 21 22  1  6
 23 24  2  0
 23 25  1  0
M  END
$$$$
