DDI.pdb
     RDKit          3D

 25 24  0  0  1  0  0  0  0  0999 V2000
   15.0584  -13.2335  -15.0829 N   0  0  0  0  0  0  0  0  0  0  0  0
   14.8946  -11.8509  -15.4651 C   0  0  1  0  0  0  0  0  0  0  0  0
   14.3612  -11.1131  -14.2601 C   0  0  0  0  0  0  0  0  0  0  0  0
   12.9895  -11.5451  -13.9084 C   0  0  0  0  0  0  0  0  0  0  0  0
   12.0259  -11.2926  -14.6747 O   0  0  0  0  0  0  0  0  0  0  0  0
   16.1799  -11.2036  -15.8242 C   0  0  0  0  0  0  0  0  0  0  0  0
   17.2023  -11.9541  -15.7587 O   0  0  0  0  0  0  0  0  0  0  0  0
   12.7124  -12.2351  -12.7389 O   0  0  0  0  0  0  0  0  0  0  0  0
   16.3159   -9.8640  -16.2153 N   0  0  0  0  0  0  0  0  0  0  0  0
   17.6244   -9.4268  -16.7368 C   0  0  1  0  0  0  0  0  0  0  0  0
   17.3208   -8.4079  -17.7838 C   0  0  0  0  0  0  0  0  0  0  0  0
   16.7979   -8.9908  -19.0011 C   0  0  0  0  0  0  0  0  0  0  0  0
   15.6621   -8.7049  -19.4408 O   0  0  0  0  0  0  0  0  0  0  0  0
   18.4348   -8.9140  -15.5997 C   0  0  0  0  0  0  0  0  0  0  0  0
   17.9473   -8.2915  -14.6424 O   0  0  0  0  0  0  0  0  0  0  0  0
   17.6055   -9.9108  -19.7059 O   0  0  0  0  0  0  0  0  0  0  0  0
   21.6612   -9.7490  -11.5829 C   0  0  0  0  0  0  0  0  0  0  0  0
   22.4451   -9.2790  -12.7832 C   0  0  0  0  0  0  0  0  0  0  0  0
   21.6923   -9.7044  -14.0202 C   0  0  2  0  0  0  0  0  0  0  0  0
   22.6791   -9.8182  -15.1777 C   0  0  0  0  0  0  0  0  0  0  0  0
   20.6503   -8.6892  -14.4221 C   0  0  2  0  0  0  0  0  0  0  0  0
   19.8599   -9.1135  -15.5412 N   0  0  0  0  0  0  0  0  0  0  0  0
   21.3342   -7.3937  -14.6253 C   0  0  0  0  0  0  0  0  0  0  0  0
   21.5404   -6.9890  -15.7796 O   0  0  0  0  0  0  0  0  0  0  0  0
   21.7386   -6.6435  -13.5318 O   0  0  0  0  0  0  0  0  0  0  0  0
  2  1  1  1
  2  3  1  0
  3  4  1  0
  4  5  2  0
  6  2  1  0
  7  6  2  0
  8  4  1  0
  9  6  1  0
 10 14  1  0
 10  9  1  0
 10 11  1  6
 12 11  1  0
 12 13  2  0
 14 22  1  0
 15 14  2  0
 16 12  1  0
 18 17  1  0
 19 18  1  0
 19 20  1  6
 21 19  1  0
 21 23  1  0
 21 22  1  6
 23 24  2  0
 23 25  1  0
M  END
$$$$
