DDI.pdb
     RDKit          3D

 25 24  0  0  1  0  0  0  0  0999 V2000
   27.4278  -18.2915  -14.8203 N   0  0  0  0  0  0  0  0  0  0  0  0
   26.8911  -19.5919  -14.4955 C   0  0  1  0  0  0  0  0  0  0  0  0
   28.0619  -20.5320  -14.3330 C   0  0  0  0  0  0  0  0  0  0  0  0
   28.1396  -21.5160  -15.4364 C   0  0  0  0  0  0  0  0  0  0  0  0
   28.8348  -21.2766  -16.4557 O   0  0  0  0  0  0  0  0  0  0  0  0
   26.1589  -19.5993  -13.2057 C   0  0  0  0  0  0  0  0  0  0  0  0
   25.4144  -18.5915  -12.9986 O   0  0  0  0  0  0  0  0  0  0  0  0
   27.4611  -22.7236  -15.3947 O   0  0  0  0  0  0  0  0  0  0  0  0
   26.2440  -20.6186  -12.2466 N   0  0  0  0  0  0  0  0  0  0  0  0
   25.3367  -20.5513  -11.0857 C   0  0  1  0  0  0  0  0  0  0  0  0
   24.1386  -21.3566  -11.4635 C   0  0  0  0  0  0  0  0  0  0  0  0
   23.1781  -20.6044  -12.2423 C   0  0  0  0  0  0  0  0  0  0  0  0
   22.7017  -19.5189  -11.8423 O   0  0  0  0  0  0  0  0  0  0  0  0
   26.0645  -21.0590   -9.8918 C   0  0  0  0  0  0  0  0  0  0  0  0
   26.5113  -22.2143   -9.8072 O   0  0  0  0  0  0  0  0  0  0  0  0
   22.7734  -21.1233  -13.4922 O   0  0  0  0  0  0  0  0  0  0  0  0
   29.3077  -19.1620   -5.0360 C   0  0  0  0  0  0  0  0  0  0  0  0
   28.4809  -20.2638   -5.6514 C   0  0  0  0  0  0  0  0  0  0  0  0
   27.7720  -19.6905   -6.8542 C   0  0  2  0  0  0  0  0  0  0  0  0
   26.8486  -18.5694   -6.3886 C   0  0  0  0  0  0  0  0  0  0  0  0
   26.9097  -20.7200   -7.5431 C   0  0  2  0  0  0  0  0  0  0  0  0
   26.2982  -20.2240   -8.7418 N   0  0  0  0  0  0  0  0  0  0  0  0
   25.9479  -21.2440   -6.5494 C   0  0  0  0  0  0  0  0  0  0  0  0
   26.3626  -21.9382   -5.6086 O   0  0  0  0  0  0  0  0  0  0  0  0
   24.5970  -20.9585   -6.6737 O   0  0  0  0  0  0  0  0  0  0  0  0
  2  1  1  1
  2  3  1  0
  3  4  1  0
  4  5  2  0
  6  2  1  0
  7  6  2  0
  8  4  1  0
  9  6  1  0
 10 14  1  0
 10  9  1  0
 10 11  1  6
 12 11  1  0
 12 13  2  0
 14 22  1  0
 15 14  2  0
 16 12  1  0
 18 17  1  0
 19 18  1  0
 19 20  1  1
 21 19  1  0
 21 23  1  0
 21 22  1  6
 23 24  2  0
 23 25  1  0
M  END
$$$$
