IDF.pdb
     RDKit          3D

 28 28  0  0  1  0  0  0  0  0999 V2000
    7.5458  -11.6316   20.1943 C   0  0  0  0  0  0  0  0  0  0  0  0
    7.5593  -13.1272   19.9628 C   0  0  0  0  0  0  0  0  0  0  0  0
    8.0326  -13.8732   21.1898 C   0  0  2  0  0  0  0  0  0  0  0  0
    9.4318  -13.4515   21.5760 C   0  0  0  0  0  0  0  0  0  0  0  0
    8.0460  -15.3626   20.9780 C   0  0  2  0  0  0  0  0  0  0  0  0
    6.7545  -15.8720   20.5721 N   0  0  0  0  0  0  0  0  0  0  0  0
    8.5362  -16.1099   22.1366 C   0  0  0  0  0  0  0  0  0  0  0  0
    7.7229  -16.5322   22.9885 O   0  0  0  0  0  0  0  0  0  0  0  0
    9.9356  -16.3377   22.2636 N   0  0  0  0  0  0  0  0  0  0  0  0
   10.4393  -17.1267   23.3396 C   0  0  1  0  0  0  0  0  0  0  0  0
   11.8388  -17.6378   23.1259 C   0  0  0  0  0  0  0  0  0  0  0  0
   11.9685  -18.3397   21.8339 C   0  0  0  0  0  0  0  0  0  0  0  0
   11.3475  -19.4323   21.6355 O   0  0  0  0  0  0  0  0  0  0  0  0
   10.3658  -16.3601   24.6085 C   0  0  0  0  0  0  0  0  0  0  0  0
   11.0284  -15.2773   24.7336 O   0  0  0  0  0  0  0  0  0  0  0  0
   12.7399  -17.8986   20.7679 O   0  0  0  0  0  0  0  0  0  0  0  0
    9.5975  -16.7433   25.7256 N   0  0  0  0  0  0  0  0  0  0  0  0
    9.6766  -16.0821   27.0051 C   0  0  1  0  0  0  0  0  0  0  0  0
    8.3191  -15.6672   27.5205 C   0  0  0  0  0  0  0  0  0  0  0  0
    7.7130  -14.5524   26.7455 C   0  0  0  0  0  0  0  0  0  0  0  0
    6.5892  -14.7755   25.9378 C   0  0  0  0  0  0  0  0  0  0  0  0
    6.0217  -13.7527   25.2111 C   0  0  0  0  0  0  0  0  0  0  0  0
    6.5311  -12.4749   25.2469 C   0  0  0  0  0  0  0  0  0  0  0  0
    7.6353  -12.2378   26.0353 C   0  0  0  0  0  0  0  0  0  0  0  0
    8.2154  -13.2710   26.7746 C   0  0  0  0  0  0  0  0  0  0  0  0
   10.2869  -17.0081   27.9657 C   0  0  0  0  0  0  0  0  0  0  0  0
   10.5972  -18.3009   27.5987 O   0  0  0  0  0  0  0  0  0  0  0  0
   10.5316  -16.6357   29.1284 O   0  0  0  0  0  0  0  0  0  0  0  0
  2  1  1  0
  3  5  1  0
  3  2  1  0
  3  4  1  6
  5  6  1  1
  7  5  1  0
  7  8  2  0
  9  7  1  0
 10  9  1  0
 10 11  1  6
 12 11  1  0
 12 16  1  0
 13 12  2  0
 14 10  1  0
 15 14  2  0
 17 14  1  0
 18 17  1  0
 18 26  1  0
 18 19  1  1
 20 25  2  0
 20 19  1  0
 21 20  1  0
 22 23  1  0
 22 21  2  0
 23 24  2  0
 24 25  1  0
 26 28  2  0
 26 27  1  0
M  END
$$$$
