IDF.pdb
     RDKit          3D

 28 28  0  0  1  0  0  0  0  0999 V2000
    6.7110  -12.0547   19.6929 C   0  0  0  0  0  0  0  0  0  0  0  0
    7.7516  -13.1480   19.5817 C   0  0  0  0  0  0  0  0  0  0  0  0
    7.7712  -14.0214   20.8158 C   0  0  2  0  0  0  0  0  0  0  0  0
    8.0685  -13.2063   22.0536 C   0  0  0  0  0  0  0  0  0  0  0  0
    8.8069  -15.1088   20.7247 C   0  0  2  0  0  0  0  0  0  0  0  0
    8.6621  -15.9071   19.5272 N   0  0  0  0  0  0  0  0  0  0  0  0
    8.8435  -15.9765   21.9023 C   0  0  0  0  0  0  0  0  0  0  0  0
    7.7961  -16.1727   22.5580 O   0  0  0  0  0  0  0  0  0  0  0  0
   10.0794  -16.5784   22.2723 N   0  0  0  0  0  0  0  0  0  0  0  0
   10.1594  -17.3923   23.4408 C   0  0  1  0  0  0  0  0  0  0  0  0
   11.2892  -18.3866   23.4223 C   0  0  0  0  0  0  0  0  0  0  0  0
   11.2585  -19.2647   24.6083 C   0  0  0  0  0  0  0  0  0  0  0  0
   10.1544  -19.7466   25.0177 O   0  0  0  0  0  0  0  0  0  0  0  0
   10.2546  -16.5364   24.6497 C   0  0  0  0  0  0  0  0  0  0  0  0
   11.0304  -15.5238   24.6494 O   0  0  0  0  0  0  0  0  0  0  0  0
   12.3721  -19.6296   25.3517 O   0  0  0  0  0  0  0  0  0  0  0  0
    9.5333  -16.7578   25.8395 N   0  0  0  0  0  0  0  0  0  0  0  0
    9.7365  -15.9893   27.0431 C   0  0  1  0  0  0  0  0  0  0  0  0
    8.4406  -15.4635   27.6128 C   0  0  0  0  0  0  0  0  0  0  0  0
    7.9694  -14.2197   26.9482 C   0  0  0  0  0  0  0  0  0  0  0  0
    8.7182  -13.0379   27.0367 C   0  0  0  0  0  0  0  0  0  0  0  0
    8.2902  -11.8781   26.4302 C   0  0  0  0  0  0  0  0  0  0  0  0
    7.1153  -11.8303   25.7154 C   0  0  0  0  0  0  0  0  0  0  0  0
    6.3669  -12.9824   25.6183 C   0  0  0  0  0  0  0  0  0  0  0  0
    6.7957  -14.1618   26.2313 C   0  0  0  0  0  0  0  0  0  0  0  0
   10.3774  -16.8544   28.0398 C   0  0  0  0  0  0  0  0  0  0  0  0
   10.6095  -18.1872   27.7712 O   0  0  0  0  0  0  0  0  0  0  0  0
   10.7195  -16.3931   29.1446 O   0  0  0  0  0  0  0  0  0  0  0  0
  2  1  1  0
  3  5  1  0
  3  2  1  0
  3  4  1  1
  5  6  1  6
  7  5  1  0
  7  8  2  0
  9  7  1  0
 10  9  1  0
 10 11  1  6
 12 11  1  0
 12 16  1  0
 13 12  2  0
 14 10  1  0
 15 14  2  0
 17 14  1  0
 18 17  1  0
 18 26  1  0
 18 19  1  1
 20 25  2  0
 20 19  1  0
 21 20  1  0
 22 23  1  0
 22 21  2  0
 23 24  2  0
 24 25  1  0
 26 28  2  0
 26 27  1  0
M  END
$$$$
