IDF.pdb
     RDKit          3D

 28 28  0  0  1  0  0  0  0  0999 V2000
    7.4279  -11.8551   20.4538 C   0  0  0  0  0  0  0  0  0  0  0  0
    7.4116  -13.3585   20.2797 C   0  0  0  0  0  0  0  0  0  0  0  0
    7.9957  -14.0618   21.4840 C   0  0  2  0  0  0  0  0  0  0  0  0
    9.4102  -13.5997   21.7499 C   0  0  0  0  0  0  0  0  0  0  0  0
    8.0282  -15.5555   21.3080 C   0  0  2  0  0  0  0  0  0  0  0  0
    6.7132  -16.1101   21.0722 N   0  0  0  0  0  0  0  0  0  0  0  0
    8.6749  -16.2574   22.4172 C   0  0  0  0  0  0  0  0  0  0  0  0
    7.9780  -16.7069   23.3540 O   0  0  0  0  0  0  0  0  0  0  0  0
   10.0901  -16.4106   22.3996 N   0  0  0  0  0  0  0  0  0  0  0  0
   10.7528  -17.0775   23.4720 C   0  0  1  0  0  0  0  0  0  0  0  0
   12.0702  -17.6978   23.0911 C   0  0  0  0  0  0  0  0  0  0  0  0
   11.8813  -18.9622   22.3534 C   0  0  0  0  0  0  0  0  0  0  0  0
   12.8496  -19.4752   21.7070 O   0  0  0  0  0  0  0  0  0  0  0  0
   10.9402  -16.1444   24.6111 C   0  0  0  0  0  0  0  0  0  0  0  0
   11.7111  -15.1361   24.4837 O   0  0  0  0  0  0  0  0  0  0  0  0
   10.6920  -19.6753   22.2970 O   0  0  0  0  0  0  0  0  0  0  0  0
   10.3149  -16.2855   25.8657 N   0  0  0  0  0  0  0  0  0  0  0  0
   10.7385  -15.5727   27.0460 C   0  0  1  0  0  0  0  0  0  0  0  0
   10.4147  -14.0996   26.9728 C   0  0  0  0  0  0  0  0  0  0  0  0
    8.9667  -13.8264   26.7742 C   0  0  0  0  0  0  0  0  0  0  0  0
    8.1028  -14.8434   26.3447 C   0  0  0  0  0  0  0  0  0  0  0  0
    6.7609  -14.6020   26.1520 C   0  0  0  0  0  0  0  0  0  0  0  0
    6.2139  -13.3585   26.3717 C   0  0  0  0  0  0  0  0  0  0  0  0
    7.0483  -12.3474   26.7939 C   0  0  0  0  0  0  0  0  0  0  0  0
    8.4103  -12.5861   26.9911 C   0  0  0  0  0  0  0  0  0  0  0  0
   10.0527  -16.1530   28.2060 C   0  0  0  0  0  0  0  0  0  0  0  0
    9.2377  -17.2566   28.0636 O   0  0  0  0  0  0  0  0  0  0  0  0
   10.1987  -15.6527   29.3368 O   0  0  0  0  0  0  0  0  0  0  0  0
  2  1  1  0
  3  5  1  0
  3  2  1  0
  3  4  1  6
  5  6  1  1
  7  5  1  0
  7  8  2  0
  9  7  1  0
 10  9  1  0
 10 11  1  6
 12 11  1  0
 12 16  1  0
 13 12  2  0
 14 10  1  0
 15 14  2  0
 17 14  1  0
 18 17  1  0
 18 26  1  0
 18 19  1  6
 20 25  2  0
 20 19  1  0
 21 20  1  0
 22 23  1  0
 22 21  2  0
 23 24  2  0
 24 25  1  0
 26 28  2  0
 26 27  1  0
M  END
$$$$
