IDF.pdb
     RDKit          3D

 28 28  0  0  1  0  0  0  0  0999 V2000
    6.9464  -11.8999   20.0671 C   0  0  0  0  0  0  0  0  0  0  0  0
    7.3920  -13.2884   19.6620 C   0  0  0  0  0  0  0  0  0  0  0  0
    7.7586  -14.1257   20.8664 C   0  0  2  0  0  0  0  0  0  0  0  0
    8.8487  -13.4631   21.6773 C   0  0  0  0  0  0  0  0  0  0  0  0
    8.2458  -15.4951   20.4781 C   0  0  2  0  0  0  0  0  0  0  0  0
    7.2528  -16.2428   19.7384 N   0  0  0  0  0  0  0  0  0  0  0  0
    8.7231  -16.2855   21.6133 C   0  0  0  0  0  0  0  0  0  0  0  0
    7.9014  -16.9115   22.3193 O   0  0  0  0  0  0  0  0  0  0  0  0
   10.1200  -16.3209   21.8850 N   0  0  0  0  0  0  0  0  0  0  0  0
   10.6181  -17.0826   22.9831 C   0  0  1  0  0  0  0  0  0  0  0  0
   12.1102  -17.2800   22.9692 C   0  0  0  0  0  0  0  0  0  0  0  0
   12.5695  -17.8540   21.6893 C   0  0  0  0  0  0  0  0  0  0  0  0
   12.0086  -18.8943   21.2180 O   0  0  0  0  0  0  0  0  0  0  0  0
   10.1992  -16.4602   24.2639 C   0  0  0  0  0  0  0  0  0  0  0  0
   10.5340  -15.2569   24.5227 O   0  0  0  0  0  0  0  0  0  0  0  0
   13.6029  -17.3413   20.9177 O   0  0  0  0  0  0  0  0  0  0  0  0
    9.4352  -17.1118   25.2522 N   0  0  0  0  0  0  0  0  0  0  0  0
    9.1243  -16.5202   26.5304 C   0  0  1  0  0  0  0  0  0  0  0  0
    7.6701  -16.1290   26.6421 C   0  0  0  0  0  0  0  0  0  0  0  0
    7.4276  -14.6876   26.3695 C   0  0  0  0  0  0  0  0  0  0  0  0
    8.3215  -13.7145   26.8377 C   0  0  0  0  0  0  0  0  0  0  0  0
    8.1055  -12.3760   26.5964 C   0  0  0  0  0  0  0  0  0  0  0  0
    7.0088  -11.9394   25.8892 C   0  0  0  0  0  0  0  0  0  0  0  0
    6.1201  -12.8821   25.4218 C   0  0  0  0  0  0  0  0  0  0  0  0
    6.3336  -14.2411   25.6633 C   0  0  0  0  0  0  0  0  0  0  0  0
    9.4352  -17.4982   27.5790 C   0  0  0  0  0  0  0  0  0  0  0  0
    9.8125  -18.7844   27.2537 O   0  0  0  0  0  0  0  0  0  0  0  0
    9.3607  -17.1767   28.7796 O   0  0  0  0  0  0  0  0  0  0  0  0
  2  1  1  0
  3  5  1  0
  3  2  1  0
  3  4  1  6
  5  6  1  1
  7  5  1  0
  7  8  2  0
  9  7  1  0
 10  9  1  0
 10 11  1  1
 12 11  1  0
 12 16  1  0
 13 12  2  0
 14 10  1  0
 15 14  2  0
 17 14  1  0
 18 17  1  0
 18 26  1  0
 18 19  1  6
 20 25  2  0
 20 19  1  0
 21 20  1  0
 22 23  1  0
 22 21  2  0
 23 24  2  0
 24 25  1  0
 26 28  2  0
 26 27  1  0
M  END
$$$$
