IDF.pdb
     RDKit          3D

 28 28  0  0  1  0  0  0  0  0999 V2000
    7.2606  -11.6205   19.9556 C   0  0  0  0  0  0  0  0  0  0  0  0
    7.3894  -13.0979   19.6535 C   0  0  0  0  0  0  0  0  0  0  0  0
    7.7672  -13.8846   20.8882 C   0  0  2  0  0  0  0  0  0  0  0  0
    9.0845  -13.4067   21.4551 C   0  0  0  0  0  0  0  0  0  0  0  0
    7.8983  -15.3563   20.6049 C   0  0  2  0  0  0  0  0  0  0  0  0
    6.6516  -15.9453   20.1678 N   0  0  0  0  0  0  0  0  0  0  0  0
    8.4438  -16.1181   21.7289 C   0  0  0  0  0  0  0  0  0  0  0  0
    7.6647  -16.6810   22.5298 O   0  0  0  0  0  0  0  0  0  0  0  0
    9.8569  -16.1983   21.8811 N   0  0  0  0  0  0  0  0  0  0  0  0
   10.4246  -17.0610   22.8649 C   0  0  1  0  0  0  0  0  0  0  0  0
   11.8517  -17.4528   22.5906 C   0  0  0  0  0  0  0  0  0  0  0  0
   12.2856  -18.5643   23.4594 C   0  0  0  0  0  0  0  0  0  0  0  0
   11.4419  -19.1625   24.2005 O   0  0  0  0  0  0  0  0  0  0  0  0
   10.3170  -16.4386   24.2082 C   0  0  0  0  0  0  0  0  0  0  0  0
   10.9752  -15.3776   24.4692 O   0  0  0  0  0  0  0  0  0  0  0  0
   13.5869  -19.0385   23.5469 O   0  0  0  0  0  0  0  0  0  0  0  0
    9.5197  -16.9408   25.2556 N   0  0  0  0  0  0  0  0  0  0  0  0
    9.4137  -16.3034   26.5452 C   0  0  1  0  0  0  0  0  0  0  0  0
    7.9849  -15.9733   26.9055 C   0  0  0  0  0  0  0  0  0  0  0  0
    7.5716  -14.6108   26.4768 C   0  0  0  0  0  0  0  0  0  0  0  0
    8.3462  -13.4925   26.8154 C   0  0  0  0  0  0  0  0  0  0  0  0
    7.9716  -12.2250   26.4291 C   0  0  0  0  0  0  0  0  0  0  0  0
    6.8269  -12.0035   25.6981 C   0  0  0  0  0  0  0  0  0  0  0  0
    6.0538  -13.0911   25.3568 C   0  0  0  0  0  0  0  0  0  0  0  0
    6.4284  -14.3791   25.7457 C   0  0  0  0  0  0  0  0  0  0  0  0
    9.9601  -17.2153   27.5565 C   0  0  0  0  0  0  0  0  0  0  0  0
   10.3488  -18.4941   27.2159 O   0  0  0  0  0  0  0  0  0  0  0  0
   10.0787  -16.8434   28.7388 O   0  0  0  0  0  0  0  0  0  0  0  0
  2  1  1  0
  3  5  1  0
  3  2  1  0
  3  4  1  6
  5  6  1  1
  7  5  1  0
  7  8  2  0
  9  7  1  0
 10  9  1  0
 10 11  1  6
 12 11  1  0
 12 16  1  0
 13 12  2  0
 14 10  1  0
 15 14  2  0
 17 14  1  0
 18 17  1  0
 18 26  1  0
 18 19  1  1
 20 25  2  0
 20 19  1  0
 21 20  1  0
 22 23  1  0
 22 21  2  0
 23 24  2  0
 24 25  1  0
 26 28  2  0
 26 27  1  0
M  END
$$$$
