IDF.pdb
     RDKit          3D

 28 28  0  0  1  0  0  0  0  0999 V2000
    7.1473  -11.8424   19.6281 C   0  0  0  0  0  0  0  0  0  0  0  0
    7.6584  -13.2296   19.3043 C   0  0  0  0  0  0  0  0  0  0  0  0
    7.8164  -14.0671   20.5532 C   0  0  2  0  0  0  0  0  0  0  0  0
    8.8146  -13.4445   21.5023 C   0  0  0  0  0  0  0  0  0  0  0  0
    8.2874  -15.4622   20.2447 C   0  0  2  0  0  0  0  0  0  0  0  0
    7.3099  -16.2192   19.4937 N   0  0  0  0  0  0  0  0  0  0  0  0
    8.6962  -16.2134   21.4321 C   0  0  0  0  0  0  0  0  0  0  0  0
    7.8747  -16.9676   21.9991 O   0  0  0  0  0  0  0  0  0  0  0  0
   10.0278  -16.0641   21.9129 N   0  0  0  0  0  0  0  0  0  0  0  0
   10.5495  -16.9782   22.8754 C   0  0  1  0  0  0  0  0  0  0  0  0
   11.9865  -17.3619   22.6444 C   0  0  0  0  0  0  0  0  0  0  0  0
   12.4459  -18.3615   23.6285 C   0  0  0  0  0  0  0  0  0  0  0  0
   11.6988  -19.3441   23.9371 O   0  0  0  0  0  0  0  0  0  0  0  0
   10.3842  -16.4244   24.2426 C   0  0  0  0  0  0  0  0  0  0  0  0
   11.1029  -15.4398   24.6183 O   0  0  0  0  0  0  0  0  0  0  0  0
   13.6721  -18.3273   24.2775 O   0  0  0  0  0  0  0  0  0  0  0  0
    9.4665  -16.9137   25.1931 N   0  0  0  0  0  0  0  0  0  0  0  0
    9.3961  -16.4270   26.5491 C   0  0  1  0  0  0  0  0  0  0  0  0
    7.9874  -16.0663   26.9559 C   0  0  0  0  0  0  0  0  0  0  0  0
    7.5815  -14.7039   26.5202 C   0  0  0  0  0  0  0  0  0  0  0  0
    8.3855  -13.5937   26.8135 C   0  0  0  0  0  0  0  0  0  0  0  0
    8.0182  -12.3262   26.4202 C   0  0  0  0  0  0  0  0  0  0  0  0
    6.8523  -12.0968   25.7261 C   0  0  0  0  0  0  0  0  0  0  0  0
    6.0501  -13.1764   25.4294 C   0  0  0  0  0  0  0  0  0  0  0  0
    6.4172  -14.4644   25.8257 C   0  0  0  0  0  0  0  0  0  0  0  0
    9.8944  -17.4785   27.4428 C   0  0  0  0  0  0  0  0  0  0  0  0
   10.0898  -17.2284   28.7851 O   0  0  0  0  0  0  0  0  0  0  0  0
   10.1484  -18.6130   26.9973 O   0  0  0  0  0  0  0  0  0  0  0  0
  2  1  1  0
  3  5  1  0
  3  2  1  0
  3  4  1  1
  5  6  1  1
  7  5  1  0
  7  8  2  0
  9  7  1  0
 10  9  1  0
 10 11  1  6
 12 11  1  0
 12 16  1  0
 13 12  2  0
 14 10  1  0
 15 14  2  0
 17 14  1  0
 18 17  1  0
 18 26  1  0
 18 19  1  1
 20 25  2  0
 20 19  1  0
 21 20  1  0
 22 23  1  0
 22 21  2  0
 23 24  2  0
 24 25  1  0
 26 28  2  0
 26 27  1  0
M  END
$$$$
