IDF.pdb
     RDKit          3D

 28 28  0  0  1  0  0  0  0  0999 V2000
    7.3801  -11.7656   19.9775 C   0  0  0  0  0  0  0  0  0  0  0  0
    7.5266  -13.2610   19.7966 C   0  0  0  0  0  0  0  0  0  0  0  0
    7.7569  -13.9588   21.1180 C   0  0  2  0  0  0  0  0  0  0  0  0
    9.0492  -13.5023   21.7555 C   0  0  0  0  0  0  0  0  0  0  0  0
    7.8254  -15.4539   20.9655 C   0  0  2  0  0  0  0  0  0  0  0  0
    6.6124  -16.0055   20.4027 N   0  0  0  0  0  0  0  0  0  0  0  0
    8.1612  -16.1500   22.2081 C   0  0  0  0  0  0  0  0  0  0  0  0
    7.2471  -16.4925   22.9907 O   0  0  0  0  0  0  0  0  0  0  0  0
    9.5292  -16.4203   22.4944 N   0  0  0  0  0  0  0  0  0  0  0  0
    9.8811  -17.2333   23.6121 C   0  0  1  0  0  0  0  0  0  0  0  0
   10.9776  -18.2253   23.3311 C   0  0  0  0  0  0  0  0  0  0  0  0
   11.2501  -19.0794   24.5036 C   0  0  0  0  0  0  0  0  0  0  0  0
   10.2865  -19.5615   25.1803 O   0  0  0  0  0  0  0  0  0  0  0  0
   10.2535  -16.3764   24.7655 C   0  0  0  0  0  0  0  0  0  0  0  0
   11.1572  -15.4868   24.6279 O   0  0  0  0  0  0  0  0  0  0  0  0
   12.5167  -19.4205   24.9568 O   0  0  0  0  0  0  0  0  0  0  0  0
    9.6705  -16.4678   26.0449 N   0  0  0  0  0  0  0  0  0  0  0  0
   10.1284  -15.7043   27.1798 C   0  0  1  0  0  0  0  0  0  0  0  0
    8.9898  -15.0598   27.9338 C   0  0  0  0  0  0  0  0  0  0  0  0
    8.3052  -13.9901   27.1606 C   0  0  0  0  0  0  0  0  0  0  0  0
    7.0216  -14.2001   26.6377 C   0  0  0  0  0  0  0  0  0  0  0  0
    6.3791  -13.2195   25.9154 C   0  0  0  0  0  0  0  0  0  0  0  0
    6.9667  -11.9981   25.6775 C   0  0  0  0  0  0  0  0  0  0  0  0
    8.2279  -11.7747   26.1839 C   0  0  0  0  0  0  0  0  0  0  0  0
    8.8848  -12.7654   26.9172 C   0  0  0  0  0  0  0  0  0  0  0  0
   10.8459  -16.6091   28.0849 C   0  0  0  0  0  0  0  0  0  0  0  0
   11.4884  -16.1226   29.2043 O   0  0  0  0  0  0  0  0  0  0  0  0
   10.8837  -17.8314   27.8510 O   0  0  0  0  0  0  0  0  0  0  0  0
  2  1  1  0
  3  5  1  0
  3  2  1  0
  3  4  1  6
  5  6  1  1
  7  5  1  0
  7  8  2  0
  9  7  1  0
 10  9  1  0
 10 11  1  6
 12 11  1  0
 12 16  1  0
 13 12  2  0
 14 10  1  0
 15 14  2  0
 17 14  1  0
 18 17  1  0
 18 26  1  0
 18 19  1  1
 20 25  2  0
 20 19  1  0
 21 20  1  0
 22 23  1  0
 22 21  2  0
 23 24  2  0
 24 25  1  0
 26 28  2  0
 26 27  1  0
M  END
$$$$
