IDF.pdb
     RDKit          3D

 28 28  0  0  1  0  0  0  0  0999 V2000
    7.4710  -11.7928   19.9234 C   0  0  0  0  0  0  0  0  0  0  0  0
    7.5536  -13.2751   19.6292 C   0  0  0  0  0  0  0  0  0  0  0  0
    7.8866  -14.0687   20.8724 C   0  0  2  0  0  0  0  0  0  0  0  0
    9.1871  -13.6000   21.4840 C   0  0  0  0  0  0  0  0  0  0  0  0
    8.0193  -15.5399   20.5875 C   0  0  2  0  0  0  0  0  0  0  0  0
    6.8043  -16.1066   20.0444 N   0  0  0  0  0  0  0  0  0  0  0  0
    8.4597  -16.3186   21.7454 C   0  0  0  0  0  0  0  0  0  0  0  0
    7.6106  -16.8920   22.4635 O   0  0  0  0  0  0  0  0  0  0  0  0
    9.8530  -16.4029   22.0251 N   0  0  0  0  0  0  0  0  0  0  0  0
   10.3306  -17.2987   23.0270 C   0  0  1  0  0  0  0  0  0  0  0  0
   11.7183  -17.8232   22.7730 C   0  0  0  0  0  0  0  0  0  0  0  0
   11.7755  -18.6310   21.5390 C   0  0  0  0  0  0  0  0  0  0  0  0
   11.0890  -19.6978   21.4416 O   0  0  0  0  0  0  0  0  0  0  0  0
   10.2684  -16.6486   24.3599 C   0  0  0  0  0  0  0  0  0  0  0  0
   10.9321  -15.5809   24.5755 O   0  0  0  0  0  0  0  0  0  0  0  0
   12.5431  -18.3209   20.4252 O   0  0  0  0  0  0  0  0  0  0  0  0
    9.5100  -17.1307   25.4450 N   0  0  0  0  0  0  0  0  0  0  0  0
    9.5311  -16.5281   26.7554 C   0  0  1  0  0  0  0  0  0  0  0  0
    8.1695  -16.0321   27.1799 C   0  0  0  0  0  0  0  0  0  0  0  0
    7.8335  -14.6939   26.6256 C   0  0  0  0  0  0  0  0  0  0  0  0
    6.7352  -14.5335   25.7694 C   0  0  0  0  0  0  0  0  0  0  0  0
    6.4167  -13.3006   25.2452 C   0  0  0  0  0  0  0  0  0  0  0  0
    7.1592  -12.1796   25.5382 C   0  0  0  0  0  0  0  0  0  0  0  0
    8.2419  -12.3192   26.3779 C   0  0  0  0  0  0  0  0  0  0  0  0
    8.5701  -13.5670   26.9126 C   0  0  0  0  0  0  0  0  0  0  0  0
    9.9917  -17.5347   27.7184 C   0  0  0  0  0  0  0  0  0  0  0  0
   10.2513  -17.1898   29.0284 O   0  0  0  0  0  0  0  0  0  0  0  0
   10.1550  -18.7164   27.3618 O   0  0  0  0  0  0  0  0  0  0  0  0
  2  1  1  0
  3  5  1  0
  3  2  1  0
  3  4  1  6
  5  6  1  1
  7  5  1  0
  7  8  2  0
  9  7  1  0
 10  9  1  0
 10 11  1  6
 12 11  1  0
 12 16  1  0
 13 12  2  0
 14 10  1  0
 15 14  2  0
 17 14  1  0
 18 17  1  0
 18 26  1  0
 18 19  1  1
 20 25  2  0
 20 19  1  0
 21 20  1  0
 22 23  1  0
 22 21  2  0
 23 24  2  0
 24 25  1  0
 26 28  2  0
 26 27  1  0
M  END
$$$$
