IDF.pdb
     RDKit          3D

 28 28  0  0  1  0  0  0  0  0999 V2000
    7.0526  -11.8788   20.3006 C   0  0  0  0  0  0  0  0  0  0  0  0
    7.4671  -13.2899   19.9438 C   0  0  0  0  0  0  0  0  0  0  0  0
    7.9282  -14.0566   21.1627 C   0  0  2  0  0  0  0  0  0  0  0  0
    9.0862  -13.3580   21.8380 C   0  0  0  0  0  0  0  0  0  0  0  0
    8.3731  -15.4523   20.8201 C   0  0  2  0  0  0  0  0  0  0  0  0
    7.3659  -16.1857   20.0853 N   0  0  0  0  0  0  0  0  0  0  0  0
    8.8053  -16.2266   21.9840 C   0  0  0  0  0  0  0  0  0  0  0  0
    7.9514  -16.8011   22.6956 O   0  0  0  0  0  0  0  0  0  0  0  0
   10.1961  -16.3055   22.2770 N   0  0  0  0  0  0  0  0  0  0  0  0
   10.6577  -17.1224   23.3512 C   0  0  1  0  0  0  0  0  0  0  0  0
   12.0477  -17.6663   23.1578 C   0  0  0  0  0  0  0  0  0  0  0  0
   12.1514  -18.4621   21.9190 C   0  0  0  0  0  0  0  0  0  0  0  0
   11.6060  -19.6095   21.8496 O   0  0  0  0  0  0  0  0  0  0  0  0
   10.5783  -16.3720   24.6294 C   0  0  0  0  0  0  0  0  0  0  0  0
   11.2932  -15.3291   24.7972 O   0  0  0  0  0  0  0  0  0  0  0  0
   12.8186  -18.0567   20.7716 O   0  0  0  0  0  0  0  0  0  0  0  0
    9.7489  -16.7293   25.7109 N   0  0  0  0  0  0  0  0  0  0  0  0
    9.8474  -16.1255   27.0171 C   0  0  1  0  0  0  0  0  0  0  0  0
    8.5111  -15.6406   27.5264 C   0  0  0  0  0  0  0  0  0  0  0  0
    8.0532  -14.3870   26.8708 C   0  0  0  0  0  0  0  0  0  0  0  0
    6.8774  -14.3713   26.1076 C   0  0  0  0  0  0  0  0  0  0  0  0
    6.4455  -13.2182   25.4911 C   0  0  0  0  0  0  0  0  0  0  0  0
    7.1462  -12.0386   25.5975 C   0  0  0  0  0  0  0  0  0  0  0  0
    8.3039  -12.0361   26.3435 C   0  0  0  0  0  0  0  0  0  0  0  0
    8.7472  -13.2024   26.9712 C   0  0  0  0  0  0  0  0  0  0  0  0
   10.3760  -17.1275   27.9495 C   0  0  0  0  0  0  0  0  0  0  0  0
   10.5938  -18.4263   27.5394 O   0  0  0  0  0  0  0  0  0  0  0  0
   10.6341  -16.8153   29.1269 O   0  0  0  0  0  0  0  0  0  0  0  0
  2  1  1  0
  3  5  1  0
  3  2  1  0
  3  4  1  6
  5  6  1  1
  7  5  1  0
  7  8  2  0
  9  7  1  0
 10  9  1  0
 10 11  1  6
 12 11  1  0
 12 16  1  0
 13 12  2  0
 14 10  1  0
 15 14  2  0
 17 14  1  0
 18 17  1  0
 18 26  1  0
 18 19  1  1
 20 25  2  0
 20 19  1  0
 21 20  1  0
 22 23  1  0
 22 21  2  0
 23 24  2  0
 24 25  1  0
 26 28  2  0
 26 27  1  0
M  END
$$$$
