IDF.pdb
     RDKit          3D

 28 28  0  0  1  0  0  0  0  0999 V2000
    7.6498  -11.9486   19.6102 C   0  0  0  0  0  0  0  0  0  0  0  0
    7.6341  -13.4585   19.5081 C   0  0  0  0  0  0  0  0  0  0  0  0
    7.9470  -14.1068   20.8377 C   0  0  2  0  0  0  0  0  0  0  0  0
    9.3409  -13.7505   21.3013 C   0  0  0  0  0  0  0  0  0  0  0  0
    7.8562  -15.6071   20.7726 C   0  0  2  0  0  0  0  0  0  0  0  0
    6.5526  -16.0609   20.3403 N   0  0  0  0  0  0  0  0  0  0  0  0
    8.2246  -16.2664   22.0259 C   0  0  0  0  0  0  0  0  0  0  0  0
    7.4042  -16.3013   22.9699 O   0  0  0  0  0  0  0  0  0  0  0  0
    9.5161  -16.8546   22.1373 N   0  0  0  0  0  0  0  0  0  0  0  0
    9.9007  -17.5185   23.3396 C   0  0  1  0  0  0  0  0  0  0  0  0
   10.8288  -18.6846   23.1293 C   0  0  0  0  0  0  0  0  0  0  0  0
   11.0921  -19.4029   24.3915 C   0  0  0  0  0  0  0  0  0  0  0  0
   10.3597  -19.1930   25.4106 O   0  0  0  0  0  0  0  0  0  0  0  0
   10.5094  -16.5475   24.2829 C   0  0  0  0  0  0  0  0  0  0  0  0
   11.5744  -15.9273   23.9540 O   0  0  0  0  0  0  0  0  0  0  0  0
   12.1102  -20.3273   24.5783 O   0  0  0  0  0  0  0  0  0  0  0  0
    9.9894  -16.2436   25.5567 N   0  0  0  0  0  0  0  0  0  0  0  0
   10.6619  -15.3868   26.5023 C   0  0  1  0  0  0  0  0  0  0  0  0
   10.3160  -13.9305   26.3028 C   0  0  0  0  0  0  0  0  0  0  0  0
    8.8546  -13.6620   26.3560 C   0  0  0  0  0  0  0  0  0  0  0  0
    8.0408  -13.9303   25.2465 C   0  0  0  0  0  0  0  0  0  0  0  0
    6.6869  -13.6812   25.2812 C   0  0  0  0  0  0  0  0  0  0  0  0
    6.0786  -13.1609   26.4006 C   0  0  0  0  0  0  0  0  0  0  0  0
    6.8633  -12.8912   27.4999 C   0  0  0  0  0  0  0  0  0  0  0  0
    8.2370  -13.1416   27.4708 C   0  0  0  0  0  0  0  0  0  0  0  0
   10.2613  -15.7894   27.8552 C   0  0  0  0  0  0  0  0  0  0  0  0
    9.4162  -16.8619   28.0501 O   0  0  0  0  0  0  0  0  0  0  0  0
   10.6809  -15.1638   28.8466 O   0  0  0  0  0  0  0  0  0  0  0  0
  2  1  1  0
  3  5  1  0
  3  2  1  0
  3  4  1  6
  5  6  1  1
  7  5  1  0
  7  8  2  0
  9  7  1  0
 10  9  1  0
 10 11  1  6
 12 11  1  0
 12 16  1  0
 13 12  2  0
 14 10  1  0
 15 14  2  0
 17 14  1  0
 18 17  1  0
 18 26  1  0
 18 19  1  6
 20 25  2  0
 20 19  1  0
 21 20  1  0
 22 23  1  0
 22 21  2  0
 23 24  2  0
 24 25  1  0
 26 28  2  0
 26 27  1  0
M  END
$$$$
