IDF.pdb
     RDKit          3D

 28 28  0  0  1  0  0  0  0  0999 V2000
    7.3201  -11.7360   19.9837 C   0  0  0  0  0  0  0  0  0  0  0  0
    7.6491  -13.1688   19.6242 C   0  0  0  0  0  0  0  0  0  0  0  0
    7.8282  -14.0225   20.8592 C   0  0  2  0  0  0  0  0  0  0  0  0
    8.9765  -13.5208   21.7046 C   0  0  0  0  0  0  0  0  0  0  0  0
    8.1056  -15.4614   20.5188 C   0  0  2  0  0  0  0  0  0  0  0  0
    7.0346  -16.0620   19.7544 N   0  0  0  0  0  0  0  0  0  0  0  0
    8.4088  -16.2872   21.6881 C   0  0  0  0  0  0  0  0  0  0  0  0
    7.4725  -16.7758   22.3589 O   0  0  0  0  0  0  0  0  0  0  0  0
    9.7713  -16.5135   22.0329 N   0  0  0  0  0  0  0  0  0  0  0  0
   10.1026  -17.3761   23.1194 C   0  0  1  0  0  0  0  0  0  0  0  0
   11.4500  -18.0349   22.9938 C   0  0  0  0  0  0  0  0  0  0  0  0
   12.4745  -17.0874   22.5131 C   0  0  0  0  0  0  0  0  0  0  0  0
   13.3939  -16.6889   23.2972 O   0  0  0  0  0  0  0  0  0  0  0  0
   10.0171  -16.6328   24.4014 C   0  0  0  0  0  0  0  0  0  0  0  0
   10.7053  -15.5714   24.5653 O   0  0  0  0  0  0  0  0  0  0  0  0
   12.5303  -16.5674   21.2276 O   0  0  0  0  0  0  0  0  0  0  0  0
    9.2100  -17.0166   25.4906 N   0  0  0  0  0  0  0  0  0  0  0  0
    9.3507  -16.4613   26.8144 C   0  0  1  0  0  0  0  0  0  0  0  0
    8.0527  -15.8959   27.3395 C   0  0  0  0  0  0  0  0  0  0  0  0
    7.7056  -14.5765   26.7482 C   0  0  0  0  0  0  0  0  0  0  0  0
    8.5259  -13.4609   26.9663 C   0  0  0  0  0  0  0  0  0  0  0  0
    8.2128  -12.2324   26.4286 C   0  0  0  0  0  0  0  0  0  0  0  0
    7.0872  -12.0488   25.6586 C   0  0  0  0  0  0  0  0  0  0  0  0
    6.2698  -13.1344   25.4342 C   0  0  0  0  0  0  0  0  0  0  0  0
    6.5820  -14.3830   25.9768 C   0  0  0  0  0  0  0  0  0  0  0  0
    9.8040  -17.5267   27.7155 C   0  0  0  0  0  0  0  0  0  0  0  0
   10.1274  -17.2500   29.0275 O   0  0  0  0  0  0  0  0  0  0  0  0
    9.9031  -18.6976   27.3038 O   0  0  0  0  0  0  0  0  0  0  0  0
  2  1  1  0
  3  5  1  0
  3  2  1  0
  3  4  1  6
  5  6  1  1
  7  5  1  0
  7  8  2  0
  9  7  1  0
 10  9  1  0
 10 11  1  6
 12 11  1  0
 12 16  1  0
 13 12  2  0
 14 10  1  0
 15 14  2  0
 17 14  1  0
 18 17  1  0
 18 26  1  0
 18 19  1  1
 20 25  2  0
 20 19  1  0
 21 20  1  0
 22 23  1  0
 22 21  2  0
 23 24  2  0
 24 25  1  0
 26 28  2  0
 26 27  1  0
M  END
$$$$
