IDF.pdb
     RDKit          3D

 28 28  0  0  1  0  0  0  0  0999 V2000
    6.9872  -11.7313   20.0547 C   0  0  0  0  0  0  0  0  0  0  0  0
    7.3218  -13.1633   19.6971 C   0  0  0  0  0  0  0  0  0  0  0  0
    7.6774  -13.9720   20.9242 C   0  0  2  0  0  0  0  0  0  0  0  0
    8.8726  -13.3813   21.6366 C   0  0  0  0  0  0  0  0  0  0  0  0
    8.0064  -15.4006   20.5863 C   0  0  2  0  0  0  0  0  0  0  0  0
    6.9097  -16.0768   19.9289 N   0  0  0  0  0  0  0  0  0  0  0  0
    8.4560  -16.1816   21.7391 C   0  0  0  0  0  0  0  0  0  0  0  0
    7.6862  -17.0233   22.2532 O   0  0  0  0  0  0  0  0  0  0  0  0
    9.7671  -15.9606   22.2478 N   0  0  0  0  0  0  0  0  0  0  0  0
   10.5167  -17.0441   22.7939 C   0  0  1  0  0  0  0  0  0  0  0  0
   11.9460  -17.1017   22.3257 C   0  0  0  0  0  0  0  0  0  0  0  0
   12.6708  -18.2346   22.9340 C   0  0  0  0  0  0  0  0  0  0  0  0
   12.1808  -19.4076   22.8828 O   0  0  0  0  0  0  0  0  0  0  0  0
   10.4685  -16.9977   24.2768 C   0  0  0  0  0  0  0  0  0  0  0  0
   11.1088  -17.8650   24.9587 O   0  0  0  0  0  0  0  0  0  0  0  0
   13.8918  -18.1342   23.5859 O   0  0  0  0  0  0  0  0  0  0  0  0
    9.7485  -16.0411   25.0193 N   0  0  0  0  0  0  0  0  0  0  0  0
    9.5153  -16.1524   26.4385 C   0  0  1  0  0  0  0  0  0  0  0  0
    8.0784  -15.8700   26.8069 C   0  0  0  0  0  0  0  0  0  0  0  0
    7.6603  -14.4742   26.5110 C   0  0  0  0  0  0  0  0  0  0  0  0
    6.4173  -14.2141   25.9173 C   0  0  0  0  0  0  0  0  0  0  0  0
    6.0206  -12.9264   25.6334 C   0  0  0  0  0  0  0  0  0  0  0  0
    6.8234  -11.8458   25.9191 C   0  0  0  0  0  0  0  0  0  0  0  0
    8.0482  -12.0831   26.5026 C   0  0  0  0  0  0  0  0  0  0  0  0
    8.4562  -13.3869   26.7929 C   0  0  0  0  0  0  0  0  0  0  0  0
    9.8533  -17.5178   26.8556 C   0  0  0  0  0  0  0  0  0  0  0  0
    9.7843  -17.8868   28.1828 O   0  0  0  0  0  0  0  0  0  0  0  0
   10.2089  -18.3621   26.0123 O   0  0  0  0  0  0  0  0  0  0  0  0
  2  1  1  0
  3  5  1  0
  3  2  1  0
  3  4  1  6
  5  6  1  1
  7  5  1  0
  7  8  2  0
  9  7  1  0
 10  9  1  0
 10 11  1  1
 12 11  1  0
 12 16  1  0
 13 12  2  0
 14 10  1  0
 15 14  2  0
 17 14  1  0
 18 17  1  0
 18 26  1  0
 18 19  1  6
 20 25  2  0
 20 19  1  0
 21 20  1  0
 22 23  1  0
 22 21  2  0
 23 24  2  0
 24 25  1  0
 26 28  2  0
 26 27  1  0
M  END
$$$$
