YMG.pdb
     RDKit          3D

 25 25  0  0  1  0  0  0  0  0999 V2000
   29.6845  -17.0171  -19.0551 O   0  0  0  0  0  0  0  0  0  0  0  0
   28.8358  -17.6425  -18.1626 C   0  0  0  0  0  0  0  0  0  0  0  0
   27.6095  -18.1602  -18.5447 C   0  0  0  0  0  0  0  0  0  0  0  0
   26.7621  -18.7870  -17.6438 C   0  0  0  0  0  0  0  0  0  0  0  0
   27.1814  -18.8840  -16.3270 C   0  0  0  0  0  0  0  0  0  0  0  0
   26.3331  -19.5348  -15.3263 C   0  0  0  0  0  0  0  0  0  0  0  0
   26.9348  -20.8210  -14.7987 C   0  0  2  0  0  0  0  0  0  0  0  0
   27.0423  -21.8311  -15.8074 N   0  0  0  0  0  0  0  0  0  0  0  0
   26.0936  -21.3187  -13.6506 C   0  0  0  0  0  0  0  0  0  0  0  0
   25.3236  -22.2759  -13.8692 O   0  0  0  0  0  0  0  0  0  0  0  0
   28.4045  -18.3682  -15.9437 C   0  0  0  0  0  0  0  0  0  0  0  0
   29.2471  -17.7447  -16.8404 C   0  0  0  0  0  0  0  0  0  0  0  0
   23.9053  -21.6340   -6.3834 C   0  0  0  0  0  0  0  0  0  0  0  0
   25.1532  -21.4690   -7.6845 S   0  0  0  0  0  0  0  0  0  0  0  0
   24.6208  -20.2508   -8.9367 C   0  0  0  0  0  0  0  0  0  0  0  0
   25.6259  -20.1408  -10.0313 C   0  0  0  0  0  0  0  0  0  0  0  0
   25.2166  -20.8439  -11.3179 C   0  0  2  0  0  0  0  0  0  0  0  0
   26.1876  -20.7083  -12.3750 N   0  0  0  0  0  0  0  0  0  0  0  0
   23.8950  -20.3454  -11.6996 C   0  0  0  0  0  0  0  0  0  0  0  0
   23.8025  -19.1430  -12.0803 O   0  0  0  0  0  0  0  0  0  0  0  0
   22.6905  -21.1035  -11.6798 N   0  0  0  0  0  0  0  0  0  0  0  0
   21.4080  -20.5518  -12.0286 C   0  0  0  0  0  0  0  0  0  0  0  0
   20.3063  -21.5197  -11.8593 C   0  0  0  0  0  0  0  0  0  0  0  0
   20.5121  -22.8523  -11.5613 O   0  0  0  0  0  0  0  0  0  0  0  0
   19.1275  -21.1166  -11.9915 O   0  0  0  0  0  0  0  0  0  0  0  0
  2  1  1  0
  3  2  2  0
  4  3  1  0
  5  4  2  0
  5 11  1  0
  6  5  1  0
  7  9  1  0
  7  6  1  0
  7  8  1  6
  9 18  1  0
 10  9  2  0
 11 12  2  0
 12  2  1  0
 14 13  1  0
 15 14  1  0
 17 16  1  1
 16 15  1  0
 17 19  1  0
 18 17  1  0
 19 20  2  0
 19 21  1  0
 21 22  1  0
 23 22  1  0
 23 24  1  0
 25 23  2  0
M  END
$$$$
