YMG.pdb
     RDKit          3D

 25 25  0  0  1  0  0  0  0  0999 V2000
   21.4032  -18.1524  -17.1889 O   0  0  0  0  0  0  0  0  0  0  0  0
   21.9462  -18.8177  -16.1070 C   0  0  0  0  0  0  0  0  0  0  0  0
   22.1139  -20.1923  -16.0906 C   0  0  0  0  0  0  0  0  0  0  0  0
   22.6597  -20.8544  -15.0013 C   0  0  0  0  0  0  0  0  0  0  0  0
   23.0400  -20.0913  -13.9094 C   0  0  0  0  0  0  0  0  0  0  0  0
   23.6234  -20.7297  -12.7276 C   0  0  0  0  0  0  0  0  0  0  0  0
   25.1293  -20.5779  -12.6658 C   0  0  2  0  0  0  0  0  0  0  0  0
   25.7938  -21.2549  -13.7379 N   0  0  0  0  0  0  0  0  0  0  0  0
   25.6184  -21.0988  -11.3380 C   0  0  0  0  0  0  0  0  0  0  0  0
   25.7467  -22.3336  -11.2121 O   0  0  0  0  0  0  0  0  0  0  0  0
   22.8735  -18.7198  -13.9238 C   0  0  0  0  0  0  0  0  0  0  0  0
   22.3305  -18.0617  -15.0077 C   0  0  0  0  0  0  0  0  0  0  0  0
   29.8214  -19.4270   -6.1119 C   0  0  0  0  0  0  0  0  0  0  0  0
   28.1287  -18.8822   -5.7730 S   0  0  0  0  0  0  0  0  0  0  0  0
   26.9231  -19.9611   -6.6205 C   0  0  0  0  0  0  0  0  0  0  0  0
   26.7548  -19.5536   -8.0439 C   0  0  0  0  0  0  0  0  0  0  0  0
   25.9810  -20.5582   -8.8861 C   0  0  2  0  0  0  0  0  0  0  0  0
   25.9172  -20.2024  -10.2818 N   0  0  0  0  0  0  0  0  0  0  0  0
   24.6569  -20.7205   -8.2850 C   0  0  0  0  0  0  0  0  0  0  0  0
   23.7644  -19.8746   -8.5802 O   0  0  0  0  0  0  0  0  0  0  0  0
   24.2807  -21.7587   -7.3869 N   0  0  0  0  0  0  0  0  0  0  0  0
   23.0452  -21.7512   -6.6490 C   0  0  0  0  0  0  0  0  0  0  0  0
   21.9032  -22.2423   -7.4452 C   0  0  0  0  0  0  0  0  0  0  0  0
   21.8921  -22.2455   -8.8260 O   0  0  0  0  0  0  0  0  0  0  0  0
   20.8946  -22.6777   -6.8429 O   0  0  0  0  0  0  0  0  0  0  0  0
  2  1  1  0
  3  2  2  0
  4  3  1  0
  5  4  2  0
  5 11  1  0
  6  5  1  0
  7  9  1  0
  7  6  1  0
  7  8  1  6
  9 18  1  0
 10  9  2  0
 11 12  2  0
 12  2  1  0
 14 13  1  0
 15 14  1  0
 17 16  1  1
 16 15  1  0
 17 19  1  0
 18 17  1  0
 19 20  2  0
 19 21  1  0
 21 22  1  0
 23 22  1  0
 23 24  1  0
 25 23  2  0
M  END
$$$$
