YMG.pdb
     RDKit          3D

 25 25  0  0  1  0  0  0  0  0999 V2000
   21.3828  -29.6433   14.4909 O   0  0  0  0  0  0  0  0  0  0  0  0
   22.0586  -29.4071   13.3096 C   0  0  0  0  0  0  0  0  0  0  0  0
   21.5789  -28.5398   12.3423 C   0  0  0  0  0  0  0  0  0  0  0  0
   22.2621  -28.3069   11.1584 C   0  0  0  0  0  0  0  0  0  0  0  0
   23.4593  -28.9764   10.9643 C   0  0  0  0  0  0  0  0  0  0  0  0
   24.2296  -28.7739    9.7354 C   0  0  0  0  0  0  0  0  0  0  0  0
   25.3496  -27.7686    9.9077 C   0  0  2  0  0  0  0  0  0  0  0  0
   24.8660  -26.4328   10.0837 N   0  0  0  0  0  0  0  0  0  0  0  0
   26.2586  -27.8398    8.7069 C   0  0  0  0  0  0  0  0  0  0  0  0
   26.1035  -26.9844    7.8117 O   0  0  0  0  0  0  0  0  0  0  0  0
   23.9395  -29.8422   11.9281 C   0  0  0  0  0  0  0  0  0  0  0  0
   23.2594  -30.0735   13.1057 C   0  0  0  0  0  0  0  0  0  0  0  0
   33.3662  -27.5705    8.7793 C   0  0  0  0  0  0  0  0  0  0  0  0
   32.1407  -28.9028    8.7709 S   0  0  0  0  0  0  0  0  0  0  0  0
   30.5780  -28.3358    8.0146 C   0  0  0  0  0  0  0  0  0  0  0  0
   29.5715  -29.4344    7.9885 C   0  0  0  0  0  0  0  0  0  0  0  0
   28.1882  -28.9933    7.5313 C   0  0  2  0  0  0  0  0  0  0  0  0
   27.2487  -28.8497    8.6154 N   0  0  0  0  0  0  0  0  0  0  0  0
   27.7314  -29.9379    6.5115 C   0  0  0  0  0  0  0  0  0  0  0  0
   27.0554  -30.9374    6.8899 O   0  0  0  0  0  0  0  0  0  0  0  0
   27.9841  -29.8295    5.1149 N   0  0  0  0  0  0  0  0  0  0  0  0
   27.4867  -30.7741    4.1499 C   0  0  0  0  0  0  0  0  0  0  0  0
   26.2123  -30.3471    3.5393 C   0  0  0  0  0  0  0  0  0  0  0  0
   25.6838  -30.9353    2.4072 O   0  0  0  0  0  0  0  0  0  0  0  0
   25.5775  -29.4067    4.0706 O   0  0  0  0  0  0  0  0  0  0  0  0
  2  1  1  0
  3  2  2  0
  4  3  1  0
  5  4  2  0
  5 11  1  0
  6  5  1  0
  7  9  1  0
  7  6  1  0
  7  8  1  6
  9 18  1  0
 10  9  2  0
 11 12  2  0
 12  2  1  0
 14 13  1  0
 15 14  1  0
 17 16  1  1
 16 15  1  0
 17 19  1  0
 18 17  1  0
 19 20  2  0
 19 21  1  0
 21 22  1  0
 23 22  1  0
 23 24  1  0
 25 23  2  0
M  END
$$$$
