YMG.pdb
     RDKit          3D

 25 25  0  0  1  0  0  0  0  0999 V2000
   19.2926  -14.1231  -23.3550 O   0  0  0  0  0  0  0  0  0  0  0  0
   19.4771  -13.3883  -22.2001 C   0  0  0  0  0  0  0  0  0  0  0  0
   18.8447  -13.7072  -21.0100 C   0  0  0  0  0  0  0  0  0  0  0  0
   19.0342  -12.9655  -19.8539 C   0  0  0  0  0  0  0  0  0  0  0  0
   19.8883  -11.8769  -19.9210 C   0  0  0  0  0  0  0  0  0  0  0  0
   20.1315  -11.0530  -18.7349 C   0  0  0  0  0  0  0  0  0  0  0  0
   21.4115  -11.4275  -18.0166 C   0  0  2  0  0  0  0  0  0  0  0  0
   21.3310  -12.7089  -17.3835 N   0  0  0  0  0  0  0  0  0  0  0  0
   21.7295  -10.3622  -16.9982 C   0  0  0  0  0  0  0  0  0  0  0  0
   21.3414  -10.5468  -15.8266 O   0  0  0  0  0  0  0  0  0  0  0  0
   20.5202  -11.5570  -21.1073 C   0  0  0  0  0  0  0  0  0  0  0  0
   20.3313  -12.2953  -22.2571 C   0  0  0  0  0  0  0  0  0  0  0  0
   26.5237  -10.9139  -15.0782 C   0  0  0  0  0  0  0  0  0  0  0  0
   25.1188  -10.1153  -15.8939 S   0  0  0  0  0  0  0  0  0  0  0  0
   25.3569   -8.3058  -15.9617 C   0  0  0  0  0  0  0  0  0  0  0  0
   24.2898   -7.6600  -16.7771 C   0  0  0  0  0  0  0  0  0  0  0  0
   22.8875   -8.1673  -16.4715 C   0  0  2  0  0  0  0  0  0  0  0  0
   22.4450   -9.1987  -17.3764 N   0  0  0  0  0  0  0  0  0  0  0  0
   21.9887   -7.0130  -16.4501 C   0  0  0  0  0  0  0  0  0  0  0  0
   21.5786   -6.5607  -17.5575 O   0  0  0  0  0  0  0  0  0  0  0  0
   21.5300   -6.3467  -15.2789 N   0  0  0  0  0  0  0  0  0  0  0  0
   20.7083   -5.1658  -15.3165 C   0  0  0  0  0  0  0  0  0  0  0  0
   21.4078   -4.0035  -15.8986 C   0  0  0  0  0  0  0  0  0  0  0  0
   20.8388   -2.7486  -15.9898 O   0  0  0  0  0  0  0  0  0  0  0  0
   22.5731   -4.1592  -16.3316 O   0  0  0  0  0  0  0  0  0  0  0  0
  2  1  1  0
  3  2  2  0
  4  3  1  0
  5  4  2  0
  5 11  1  0
  6  5  1  0
  7  9  1  0
  7  6  1  0
  7  8  1  1
  9 18  1  0
 10  9  2  0
 11 12  2  0
 12  2  1  0
 14 13  1  0
 15 14  1  0
 17 16  1  6
 16 15  1  0
 17 19  1  0
 18 17  1  0
 19 20  2  0
 19 21  1  0
 21 22  1  0
 23 22  1  0
 23 24  1  0
 25 23  2  0
M  END
$$$$
