YMG.pdb
     RDKit          3D

 25 25  0  0  1  0  0  0  0  0999 V2000
   24.0572  -29.2371  -17.5314 O   0  0  0  0  0  0  0  0  0  0  0  0
   25.2712  -28.5804  -17.5869 C   0  0  0  0  0  0  0  0  0  0  0  0
   25.6132  -27.7429  -18.6354 C   0  0  0  0  0  0  0  0  0  0  0  0
   26.8336  -27.0865  -18.6853 C   0  0  0  0  0  0  0  0  0  0  0  0
   27.7185  -27.2938  -17.6397 C   0  0  0  0  0  0  0  0  0  0  0  0
   29.0237  -26.6296  -17.6322 C   0  0  0  0  0  0  0  0  0  0  0  0
   29.0794  -25.4632  -16.6672 C   0  0  2  0  0  0  0  0  0  0  0  0
   28.1775  -24.4108  -17.0253 N   0  0  0  0  0  0  0  0  0  0  0  0
   30.4931  -24.9419  -16.6125 C   0  0  0  0  0  0  0  0  0  0  0  0
   30.7915  -23.9968  -17.3707 O   0  0  0  0  0  0  0  0  0  0  0  0
   27.3792  -28.1289  -16.5927 C   0  0  0  0  0  0  0  0  0  0  0  0
   26.1650  -28.7817  -16.5436 C   0  0  0  0  0  0  0  0  0  0  0  0
   35.5193  -22.1342  -11.7071 C   0  0  0  0  0  0  0  0  0  0  0  0
   34.4364  -23.5522  -12.0133 S   0  0  0  0  0  0  0  0  0  0  0  0
   34.0658  -23.7066  -13.7950 C   0  0  0  0  0  0  0  0  0  0  0  0
   33.1211  -24.8316  -14.0452 C   0  0  0  0  0  0  0  0  0  0  0  0
   32.7781  -25.0343  -15.5143 C   0  0  2  0  0  0  0  0  0  0  0  0
   31.4361  -25.5173  -15.7247 N   0  0  0  0  0  0  0  0  0  0  0  0
   33.7916  -25.9168  -16.0930 C   0  0  0  0  0  0  0  0  0  0  0  0
   33.8905  -27.0894  -15.6299 O   0  0  0  0  0  0  0  0  0  0  0  0
   34.6864  -25.5674  -17.1433 N   0  0  0  0  0  0  0  0  0  0  0  0
   35.7276  -26.4426  -17.6134 C   0  0  0  0  0  0  0  0  0  0  0  0
   37.0366  -25.7677  -17.7147 C   0  0  0  0  0  0  0  0  0  0  0  0
   38.1973  -26.4228  -18.0760 O   0  0  0  0  0  0  0  0  0  0  0  0
   37.1014  -24.5424  -17.4614 O   0  0  0  0  0  0  0  0  0  0  0  0
  2  1  1  0
  3  2  2  0
  4  3  1  0
  5  4  2  0
  5 11  1  0
  6  5  1  0
  7  9  1  0
  7  6  1  0
  7  8  1  6
  9 18  1  0
 10  9  2  0
 11 12  2  0
 12  2  1  0
 14 13  1  0
 15 14  1  0
 17 16  1  1
 16 15  1  0
 17 19  1  0
 18 17  1  0
 19 20  2  0
 19 21  1  0
 21 22  1  0
 23 22  1  0
 23 24  1  0
 25 23  2  0
M  END
$$$$
