YMG.pdb
     RDKit          3D

 25 25  0  0  1  0  0  0  0  0999 V2000
   17.7090  -23.9100  -15.8994 O   0  0  0  0  0  0  0  0  0  0  0  0
   18.8791  -23.3564  -15.4172 C   0  0  0  0  0  0  0  0  0  0  0  0
   19.5828  -23.9138  -14.3627 C   0  0  0  0  0  0  0  0  0  0  0  0
   20.7570  -23.3532  -13.8832 C   0  0  0  0  0  0  0  0  0  0  0  0
   21.2166  -22.1997  -14.4975 C   0  0  0  0  0  0  0  0  0  0  0  0
   22.4508  -21.5585  -14.0389 C   0  0  0  0  0  0  0  0  0  0  0  0
   22.2421  -20.7086  -12.8024 C   0  0  2  0  0  0  0  0  0  0  0  0
   21.3869  -19.5866  -13.0453 N   0  0  0  0  0  0  0  0  0  0  0  0
   23.5843  -20.2414  -12.2989 C   0  0  0  0  0  0  0  0  0  0  0  0
   24.2025  -19.4053  -12.9887 O   0  0  0  0  0  0  0  0  0  0  0  0
   20.5159  -21.6421  -15.5497 C   0  0  0  0  0  0  0  0  0  0  0  0
   19.3480  -22.2002  -16.0263 C   0  0  0  0  0  0  0  0  0  0  0  0
   28.4244  -19.0284   -6.7016 C   0  0  0  0  0  0  0  0  0  0  0  0
   26.8248  -19.5168   -7.3942 S   0  0  0  0  0  0  0  0  0  0  0  0
   27.0415  -20.8077   -8.6678 C   0  0  0  0  0  0  0  0  0  0  0  0
   25.7307  -21.1896   -9.2650 C   0  0  0  0  0  0  0  0  0  0  0  0
   25.4617  -20.5532  -10.6214 C   0  0  2  0  0  0  0  0  0  0  0  0
   24.1094  -20.7452  -11.0827 N   0  0  0  0  0  0  0  0  0  0  0  0
   26.4565  -21.0681  -11.5627 C   0  0  0  0  0  0  0  0  0  0  0  0
   26.5057  -22.3181  -11.7479 O   0  0  0  0  0  0  0  0  0  0  0  0
   27.3844  -20.2767  -12.2967 N   0  0  0  0  0  0  0  0  0  0  0  0
   28.3996  -20.8406  -13.1467 C   0  0  0  0  0  0  0  0  0  0  0  0
   27.9543  -20.9856  -14.5467 C   0  0  0  0  0  0  0  0  0  0  0  0
   28.7825  -21.4265  -15.5599 O   0  0  0  0  0  0  0  0  0  0  0  0
   26.7695  -20.6959  -14.8328 O   0  0  0  0  0  0  0  0  0  0  0  0
  2  1  1  0
  3  2  2  0
  4  3  1  0
  5  4  2  0
  5 11  1  0
  6  5  1  0
  7  9  1  0
  7  6  1  0
  7  8  1  6
  9 18  1  0
 10  9  2  0
 11 12  2  0
 12  2  1  0
 14 13  1  0
 15 14  1  0
 17 16  1  1
 16 15  1  0
 17 19  1  0
 18 17  1  0
 19 20  2  0
 19 21  1  0
 21 22  1  0
 23 22  1  0
 23 24  1  0
 25 23  2  0
M  END
$$$$
