YMG.pdb
     RDKit          3D

 25 25  0  0  1  0  0  0  0  0999 V2000
   27.5923  -16.1532  -17.9180 O   0  0  0  0  0  0  0  0  0  0  0  0
   27.2211  -16.8772  -16.8017 C   0  0  0  0  0  0  0  0  0  0  0  0
   27.7353  -16.6138  -15.5432 C   0  0  0  0  0  0  0  0  0  0  0  0
   27.3586  -17.3442  -14.4263 C   0  0  0  0  0  0  0  0  0  0  0  0
   26.4374  -18.3633  -14.6052 C   0  0  0  0  0  0  0  0  0  0  0  0
   25.9977  -19.1718  -13.4659 C   0  0  0  0  0  0  0  0  0  0  0  0
   27.0478  -20.1669  -13.0168 C   0  0  2  0  0  0  0  0  0  0  0  0
   27.3100  -21.1710  -14.0028 N   0  0  0  0  0  0  0  0  0  0  0  0
   26.5947  -20.8070  -11.7290 C   0  0  0  0  0  0  0  0  0  0  0  0
   26.0290  -21.9168  -11.8016 O   0  0  0  0  0  0  0  0  0  0  0  0
   25.9232  -18.6277  -15.8600 C   0  0  0  0  0  0  0  0  0  0  0  0
   26.2983  -17.9007  -16.9707 C   0  0  0  0  0  0  0  0  0  0  0  0
   27.1392  -20.3807   -3.7506 C   0  0  0  0  0  0  0  0  0  0  0  0
   27.6818  -19.7747   -5.3679 S   0  0  0  0  0  0  0  0  0  0  0  0
   26.6668  -20.5009   -6.7013 C   0  0  0  0  0  0  0  0  0  0  0  0
   27.1157  -20.0129   -8.0358 C   0  0  0  0  0  0  0  0  0  0  0  0
   26.3812  -20.6524   -9.2058 C   0  0  2  0  0  0  0  0  0  0  0  0
   26.8124  -20.1561  -10.4890 N   0  0  0  0  0  0  0  0  0  0  0  0
   24.9460  -20.4724   -8.9855 C   0  0  0  0  0  0  0  0  0  0  0  0
   24.4372  -19.3525   -9.2793 O   0  0  0  0  0  0  0  0  0  0  0  0
   24.0619  -21.4583   -8.4637 N   0  0  0  0  0  0  0  0  0  0  0  0
   22.6840  -21.1904   -8.1465 C   0  0  0  0  0  0  0  0  0  0  0  0
   21.8329  -21.0855   -9.3481 C   0  0  0  0  0  0  0  0  0  0  0  0
   20.8065  -20.1695   -9.4679 O   0  0  0  0  0  0  0  0  0  0  0  0
   22.0491  -21.8628  -10.3066 O   0  0  0  0  0  0  0  0  0  0  0  0
  2  1  1  0
  3  2  2  0
  4  3  1  0
  5  4  2  0
  5 11  1  0
  6  5  1  0
  7  9  1  0
  7  6  1  0
  7  8  1  6
  9 18  1  0
 10  9  2  0
 11 12  2  0
 12  2  1  0
 14 13  1  0
 15 14  1  0
 17 16  1  1
 16 15  1  0
 17 19  1  0
 18 17  1  0
 19 20  2  0
 19 21  1  0
 21 22  1  0
 23 22  1  0
 23 24  1  0
 25 23  2  0
M  END
$$$$
