YMG.pdb
     RDKit          3D

 25 25  0  0  1  0  0  0  0  0999 V2000
   30.4183  -17.0191  -19.2656 O   0  0  0  0  0  0  0  0  0  0  0  0
   29.4857  -17.6801  -18.4901 C   0  0  0  0  0  0  0  0  0  0  0  0
   28.3628  -18.2815  -19.0333 C   0  0  0  0  0  0  0  0  0  0  0  0
   27.4302  -18.9436  -18.2494 C   0  0  0  0  0  0  0  0  0  0  0  0
   27.6548  -18.9889  -16.8831 C   0  0  0  0  0  0  0  0  0  0  0  0
   26.7080  -19.6731  -15.9999 C   0  0  0  0  0  0  0  0  0  0  0  0
   27.3231  -20.8655  -15.2966 C   0  0  2  0  0  0  0  0  0  0  0  0
   27.5807  -21.9557  -16.1879 N   0  0  0  0  0  0  0  0  0  0  0  0
   26.4025  -21.3061  -14.1868 C   0  0  0  0  0  0  0  0  0  0  0  0
   25.6848  -22.3060  -14.3924 O   0  0  0  0  0  0  0  0  0  0  0  0
   28.7745  -18.3895  -16.3391 C   0  0  0  0  0  0  0  0  0  0  0  0
   29.7018  -17.7309  -17.1195 C   0  0  0  0  0  0  0  0  0  0  0  0
   23.5296  -22.0867   -7.5598 C   0  0  0  0  0  0  0  0  0  0  0  0
   24.7439  -21.8906   -8.8880 S   0  0  0  0  0  0  0  0  0  0  0  0
   24.6855  -20.1970   -9.5691 C   0  0  0  0  0  0  0  0  0  0  0  0
   25.7008  -20.0225  -10.6458 C   0  0  0  0  0  0  0  0  0  0  0  0
   25.3767  -20.7765  -11.9278 C   0  0  2  0  0  0  0  0  0  0  0  0
   26.3671  -20.5973  -12.9601 N   0  0  0  0  0  0  0  0  0  0  0  0
   24.0368  -20.3748  -12.3568 C   0  0  0  0  0  0  0  0  0  0  0  0
   23.8793  -19.1935  -12.7797 O   0  0  0  0  0  0  0  0  0  0  0  0
   22.8818  -21.2064  -12.3399 N   0  0  0  0  0  0  0  0  0  0  0  0
   21.5654  -20.7312  -12.6753 C   0  0  0  0  0  0  0  0  0  0  0  0
   20.6054  -21.8286  -12.9063 C   0  0  0  0  0  0  0  0  0  0  0  0
   19.2515  -21.6219  -13.0826 O   0  0  0  0  0  0  0  0  0  0  0  0
   21.0358  -23.0046  -12.9447 O   0  0  0  0  0  0  0  0  0  0  0  0
  2  1  1  0
  3  2  2  0
  4  3  1  0
  5  4  2  0
  5 11  1  0
  6  5  1  0
  7  9  1  0
  7  6  1  0
  7  8  1  6
  9 18  1  0
 10  9  2  0
 11 12  2  0
 12  2  1  0
 14 13  1  0
 15 14  1  0
 17 16  1  1
 16 15  1  0
 17 19  1  0
 18 17  1  0
 19 20  2  0
 19 21  1  0
 21 22  1  0
 23 22  1  0
 23 24  1  0
 25 23  2  0
M  END
$$$$
