YMG.pdb
     RDKit          3D

 25 25  0  0  1  0  0  0  0  0999 V2000
   20.6322  -17.6079  -20.7116 O   0  0  0  0  0  0  0  0  0  0  0  0
   21.3119  -16.5311  -20.1764 C   0  0  0  0  0  0  0  0  0  0  0  0
   22.4871  -16.0485  -20.7276 C   0  0  0  0  0  0  0  0  0  0  0  0
   23.1648  -14.9670  -20.1855 C   0  0  0  0  0  0  0  0  0  0  0  0
   22.6260  -14.3704  -19.0573 C   0  0  0  0  0  0  0  0  0  0  0  0
   23.2929  -13.2238  -18.4365 C   0  0  0  0  0  0  0  0  0  0  0  0
   22.6415  -11.9045  -18.7970 C   0  0  2  0  0  0  0  0  0  0  0  0
   22.5531  -11.7043  -20.2117 N   0  0  0  0  0  0  0  0  0  0  0  0
   23.4236  -10.7838  -18.1600 C   0  0  0  0  0  0  0  0  0  0  0  0
   23.6367  -10.8511  -16.9323 O   0  0  0  0  0  0  0  0  0  0  0  0
   21.4536  -14.8503  -18.5058 C   0  0  0  0  0  0  0  0  0  0  0  0
   20.7800  -15.9263  -19.0455 C   0  0  0  0  0  0  0  0  0  0  0  0
   29.2826   -6.7420  -17.4639 C   0  0  0  0  0  0  0  0  0  0  0  0
   28.1895   -7.9230  -18.2930 S   0  0  0  0  0  0  0  0  0  0  0  0
   26.6603   -7.0990  -18.8569 C   0  0  0  0  0  0  0  0  0  0  0  0
   25.7062   -8.0876  -19.4339 C   0  0  0  0  0  0  0  0  0  0  0  0
   24.6634   -8.5889  -18.4448 C   0  0  2  0  0  0  0  0  0  0  0  0
   23.8924   -9.7002  -18.9439 N   0  0  0  0  0  0  0  0  0  0  0  0
   23.8277   -7.4510  -18.0604 C   0  0  0  0  0  0  0  0  0  0  0  0
   23.2446   -6.8068  -18.9792 O   0  0  0  0  0  0  0  0  0  0  0  0
   23.6110   -7.0002  -16.7278 N   0  0  0  0  0  0  0  0  0  0  0  0
   22.8841   -5.7989  -16.4122 C   0  0  0  0  0  0  0  0  0  0  0  0
   22.8585   -5.5124  -14.9643 C   0  0  0  0  0  0  0  0  0  0  0  0
   22.4448   -4.3029  -14.4418 O   0  0  0  0  0  0  0  0  0  0  0  0
   23.2289   -6.4065  -14.1688 O   0  0  0  0  0  0  0  0  0  0  0  0
  2  1  1  0
  3  2  2  0
  4  3  1  0
  5  4  2  0
  5 11  1  0
  6  5  1  0
  7  9  1  0
  7  6  1  0
  7  8  1  6
  9 18  1  0
 10  9  2  0
 11 12  2  0
 12  2  1  0
 14 13  1  0
 15 14  1  0
 17 16  1  6
 16 15  1  0
 17 19  1  0
 18 17  1  0
 19 20  2  0
 19 21  1  0
 21 22  1  0
 23 22  1  0
 23 24  1  0
 25 23  2  0
M  END
$$$$
