YMG.pdb
     RDKit          3D

 25 25  0  0  1  0  0  0  0  0999 V2000
   22.4488  -21.1349   -8.0496 O   0  0  0  0  0  0  0  0  0  0  0  0
   22.8002  -21.1709   -9.3850 C   0  0  0  0  0  0  0  0  0  0  0  0
   21.8583  -21.2512  -10.3970 C   0  0  0  0  0  0  0  0  0  0  0  0
   22.2175  -21.2870  -11.7358 C   0  0  0  0  0  0  0  0  0  0  0  0
   23.5680  -21.2394  -12.0408 C   0  0  0  0  0  0  0  0  0  0  0  0
   24.0133  -21.2730  -13.4355 C   0  0  0  0  0  0  0  0  0  0  0  0
   24.6224  -19.9611  -13.8854 C   0  0  2  0  0  0  0  0  0  0  0  0
   23.7417  -19.2057  -14.7239 N   0  0  0  0  0  0  0  0  0  0  0  0
   25.9143  -20.2453  -14.6090 C   0  0  0  0  0  0  0  0  0  0  0  0
   25.9634  -19.9882  -15.8291 O   0  0  0  0  0  0  0  0  0  0  0  0
   24.5093  -21.1592  -11.0326 C   0  0  0  0  0  0  0  0  0  0  0  0
   24.1514  -21.1237   -9.7009 C   0  0  0  0  0  0  0  0  0  0  0  0
   31.4316  -22.3575  -11.4505 C   0  0  0  0  0  0  0  0  0  0  0  0
   31.1342  -20.5764  -11.3229 S   0  0  0  0  0  0  0  0  0  0  0  0
   29.8985  -20.0397  -12.5560 C   0  0  0  0  0  0  0  0  0  0  0  0
   29.3980  -21.2000  -13.3458 C   0  0  0  0  0  0  0  0  0  0  0  0
   28.3756  -20.8272  -14.4101 C   0  0  2  0  0  0  0  0  0  0  0  0
   27.0235  -20.7855  -13.9114 N   0  0  0  0  0  0  0  0  0  0  0  0
   28.5349  -21.7565  -15.5289 C   0  0  0  0  0  0  0  0  0  0  0  0
   28.3690  -22.9897  -15.3033 O   0  0  0  0  0  0  0  0  0  0  0  0
   28.8641  -21.3903  -16.8644 N   0  0  0  0  0  0  0  0  0  0  0  0
   28.3745  -22.0984  -18.0176 C   0  0  0  0  0  0  0  0  0  0  0  0
   28.7685  -21.4589  -19.2885 C   0  0  0  0  0  0  0  0  0  0  0  0
   28.6325  -22.0748  -20.5169 O   0  0  0  0  0  0  0  0  0  0  0  0
   29.2496  -20.3026  -19.2547 O   0  0  0  0  0  0  0  0  0  0  0  0
  2  1  1  0
  3  2  2  0
  4  3  1  0
  5  4  2  0
  5 11  1  0
  6  5  1  0
  7  9  1  0
  7  6  1  0
  7  8  1  6
  9 18  1  0
 10  9  2  0
 11 12  2  0
 12  2  1  0
 14 13  1  0
 15 14  1  0
 17 16  1  1
 16 15  1  0
 17 19  1  0
 18 17  1  0
 19 20  2  0
 19 21  1  0
 21 22  1  0
 23 22  1  0
 23 24  1  0
 25 23  2  0
M  END
$$$$
