YMG.pdb
     RDKit          3D

 25 25  0  0  1  0  0  0  0  0999 V2000
   16.2712  -22.2155  -15.8830 O   0  0  0  0  0  0  0  0  0  0  0  0
   17.3979  -21.7244  -15.2527 C   0  0  0  0  0  0  0  0  0  0  0  0
   18.3281  -20.9345  -15.9074 C   0  0  0  0  0  0  0  0  0  0  0  0
   19.4573  -20.4445  -15.2691 C   0  0  0  0  0  0  0  0  0  0  0  0
   19.6345  -20.7715  -13.9346 C   0  0  0  0  0  0  0  0  0  0  0  0
   20.8061  -20.2852  -13.2028 C   0  0  0  0  0  0  0  0  0  0  0  0
   22.1116  -20.6998  -13.8498 C   0  0  2  0  0  0  0  0  0  0  0  0
   22.2427  -22.1210  -13.9600 N   0  0  0  0  0  0  0  0  0  0  0  0
   23.2556  -20.1316  -13.0485 C   0  0  0  0  0  0  0  0  0  0  0  0
   23.2565  -18.9028  -12.8316 O   0  0  0  0  0  0  0  0  0  0  0  0
   18.7076  -21.5594  -13.2795 C   0  0  0  0  0  0  0  0  0  0  0  0
   17.5845  -22.0466  -13.9151 C   0  0  0  0  0  0  0  0  0  0  0  0
   25.0864  -20.0436   -7.5597 C   0  0  0  0  0  0  0  0  0  0  0  0
   26.7094  -20.6643   -8.0674 S   0  0  0  0  0  0  0  0  0  0  0  0
   26.9228  -20.5068   -9.8743 C   0  0  0  0  0  0  0  0  0  0  0  0
   25.7811  -21.1312  -10.6003 C   0  0  0  0  0  0  0  0  0  0  0  0
   25.5188  -20.5283  -11.9732 C   0  0  2  0  0  0  0  0  0  0  0  0
   24.2846  -20.9788  -12.5669 N   0  0  0  0  0  0  0  0  0  0  0  0
   26.6831  -20.8069  -12.8143 C   0  0  0  0  0  0  0  0  0  0  0  0
   27.5269  -21.6516  -12.3974 O   0  0  0  0  0  0  0  0  0  0  0  0
   26.9527  -20.2037  -14.0751 N   0  0  0  0  0  0  0  0  0  0  0  0
   28.1429  -20.4737  -14.8377 C   0  0  0  0  0  0  0  0  0  0  0  0
   28.1188  -19.8444  -16.1729 C   0  0  0  0  0  0  0  0  0  0  0  0
   29.1551  -19.9567  -17.0787 O   0  0  0  0  0  0  0  0  0  0  0  0
   27.1121  -19.1758  -16.5033 O   0  0  0  0  0  0  0  0  0  0  0  0
  2  1  1  0
  3  2  2  0
  4  3  1  0
  5  4  2  0
  5 11  1  0
  6  5  1  0
  7  9  1  0
  7  6  1  0
  7  8  1  1
  9 18  1  0
 10  9  2  0
 11 12  2  0
 12  2  1  0
 14 13  1  0
 15 14  1  0
 17 16  1  1
 16 15  1  0
 17 19  1  0
 18 17  1  0
 19 20  2  0
 19 21  1  0
 21 22  1  0
 23 22  1  0
 23 24  1  0
 25 23  2  0
M  END
$$$$
