YMG.pdb
     RDKit          3D

 25 25  0  0  1  0  0  0  0  0999 V2000
   20.2544  -32.2800  -21.7210 O   0  0  0  0  0  0  0  0  0  0  0  0
   21.4829  -32.1425  -21.1046 C   0  0  0  0  0  0  0  0  0  0  0  0
   21.8638  -32.9268  -20.0287 C   0  0  0  0  0  0  0  0  0  0  0  0
   23.0986  -32.7839  -19.4142 C   0  0  0  0  0  0  0  0  0  0  0  0
   23.9575  -31.8184  -19.9135 C   0  0  0  0  0  0  0  0  0  0  0  0
   25.2764  -31.6175  -19.3095 C   0  0  0  0  0  0  0  0  0  0  0  0
   25.2460  -30.6387  -18.1537 C   0  0  2  0  0  0  0  0  0  0  0  0
   24.9970  -29.2947  -18.5790 N   0  0  0  0  0  0  0  0  0  0  0  0
   26.5572  -30.7165  -17.4135 C   0  0  0  0  0  0  0  0  0  0  0  0
   27.3192  -29.7306  -17.4801 O   0  0  0  0  0  0  0  0  0  0  0  0
   23.5793  -31.0348  -20.9868 C   0  0  0  0  0  0  0  0  0  0  0  0
   22.3508  -31.1775  -21.5977 C   0  0  0  0  0  0  0  0  0  0  0  0
   25.3938  -32.6522  -11.0876 C   0  0  0  0  0  0  0  0  0  0  0  0
   26.6390  -33.3547  -12.1982 S   0  0  0  0  0  0  0  0  0  0  0  0
   26.9844  -32.2142  -13.5821 C   0  0  0  0  0  0  0  0  0  0  0  0
   27.8386  -32.8714  -14.6112 C   0  0  0  0  0  0  0  0  0  0  0  0
   28.0722  -32.0227  -15.8531 C   0  0  2  0  0  0  0  0  0  0  0  0
   26.8954  -31.8767  -16.6730 N   0  0  0  0  0  0  0  0  0  0  0  0
   29.2002  -32.6003  -16.5843 C   0  0  0  0  0  0  0  0  0  0  0  0
   29.0379  -33.7307  -17.1276 O   0  0  0  0  0  0  0  0  0  0  0  0
   30.4789  -31.9948  -16.7399 N   0  0  0  0  0  0  0  0  0  0  0  0
   30.8389  -31.1999  -17.8842 C   0  0  0  0  0  0  0  0  0  0  0  0
   32.2684  -30.8315  -17.8950 C   0  0  0  0  0  0  0  0  0  0  0  0
   32.8502  -30.0955  -18.9082 O   0  0  0  0  0  0  0  0  0  0  0  0
   32.9911  -31.2025  -16.9412 O   0  0  0  0  0  0  0  0  0  0  0  0
  2  1  1  0
  3  2  2  0
  4  3  1  0
  5  4  2  0
  5 11  1  0
  6  5  1  0
  7  9  1  0
  7  6  1  0
  7  8  1  6
  9 18  1  0
 10  9  2  0
 11 12  2  0
 12  2  1  0
 14 13  1  0
 15 14  1  0
 17 16  1  1
 16 15  1  0
 17 19  1  0
 18 17  1  0
 19 20  2  0
 19 21  1  0
 21 22  1  0
 23 22  1  0
 23 24  1  0
 25 23  2  0
M  END
$$$$
