YMG.pdb
     RDKit          3D

 25 25  0  0  1  0  0  0  0  0999 V2000
   26.9136  -12.3210  -17.2508 O   0  0  0  0  0  0  0  0  0  0  0  0
   26.5965  -13.6173  -16.8943 C   0  0  0  0  0  0  0  0  0  0  0  0
   26.0005  -14.5034  -17.7760 C   0  0  0  0  0  0  0  0  0  0  0  0
   25.6846  -15.8036  -17.4120 C   0  0  0  0  0  0  0  0  0  0  0  0
   25.9862  -16.2009  -16.1196 C   0  0  0  0  0  0  0  0  0  0  0  0
   25.6785  -17.5612  -15.6728 C   0  0  0  0  0  0  0  0  0  0  0  0
   26.9197  -18.4103  -15.4905 C   0  0  2  0  0  0  0  0  0  0  0  0
   27.5752  -18.6977  -16.7303 N   0  0  0  0  0  0  0  0  0  0  0  0
   26.5367  -19.6918  -14.7944 C   0  0  0  0  0  0  0  0  0  0  0  0
   26.3947  -20.7127  -15.4976 O   0  0  0  0  0  0  0  0  0  0  0  0
   26.5809  -15.3184  -15.2384 C   0  0  0  0  0  0  0  0  0  0  0  0
   26.8948  -14.0250  -15.6011 C   0  0  0  0  0  0  0  0  0  0  0  0
   30.6737  -21.5329   -9.8634 C   0  0  0  0  0  0  0  0  0  0  0  0
   28.8886  -21.2631   -9.7302 S   0  0  0  0  0  0  0  0  0  0  0  0
   28.1267  -21.1650  -11.3872 C   0  0  0  0  0  0  0  0  0  0  0  0
   26.6515  -20.9819  -11.2832 C   0  0  0  0  0  0  0  0  0  0  0  0
   25.9468  -20.8729  -12.6281 C   0  0  2  0  0  0  0  0  0  0  0  0
   26.3488  -19.7167  -13.3899 N   0  0  0  0  0  0  0  0  0  0  0  0
   24.5050  -20.9122  -12.3825 C   0  0  0  0  0  0  0  0  0  0  0  0
   23.9219  -19.8257  -12.1015 O   0  0  0  0  0  0  0  0  0  0  0  0
   23.6915  -22.0791  -12.4325 N   0  0  0  0  0  0  0  0  0  0  0  0
   22.2631  -22.0503  -12.2593 C   0  0  0  0  0  0  0  0  0  0  0  0
   21.8638  -21.8429  -10.8534 C   0  0  0  0  0  0  0  0  0  0  0  0
   20.5472  -21.7359  -10.4510 O   0  0  0  0  0  0  0  0  0  0  0  0
   22.7593  -21.7594   -9.9811 O   0  0  0  0  0  0  0  0  0  0  0  0
  2  1  1  0
  3  2  2  0
  4  3  1  0
  5  4  2  0
  5 11  1  0
  6  5  1  0
  7  9  1  0
  7  6  1  0
  7  8  1  6
  9 18  1  0
 10  9  2  0
 11 12  2  0
 12  2  1  0
 14 13  1  0
 15 14  1  0
 17 16  1  1
 16 15  1  0
 17 19  1  0
 18 17  1  0
 19 20  2  0
 19 21  1  0
 21 22  1  0
 23 22  1  0
 23 24  1  0
 25 23  2  0
M  END
$$$$
