YMG.pdb
     RDKit          3D

 25 25  0  0  1  0  0  0  0  0999 V2000
   16.7236  -24.2589  -15.2673 O   0  0  0  0  0  0  0  0  0  0  0  0
   17.8790  -23.5319  -15.0560 C   0  0  0  0  0  0  0  0  0  0  0  0
   17.9521  -22.1702  -15.2972 C   0  0  0  0  0  0  0  0  0  0  0  0
   19.1150  -21.4460  -15.0830 C   0  0  0  0  0  0  0  0  0  0  0  0
   20.2227  -22.1324  -14.6128 C   0  0  0  0  0  0  0  0  0  0  0  0
   21.4812  -21.4256  -14.3657 C   0  0  0  0  0  0  0  0  0  0  0  0
   21.6290  -20.9837  -12.9243 C   0  0  2  0  0  0  0  0  0  0  0  0
   20.6275  -20.0379  -12.5346 N   0  0  0  0  0  0  0  0  0  0  0  0
   23.0040  -20.3954  -12.7325 C   0  0  0  0  0  0  0  0  0  0  0  0
   23.1764  -19.2054  -13.0661 O   0  0  0  0  0  0  0  0  0  0  0  0
   20.1518  -23.4910  -14.3715 C   0  0  0  0  0  0  0  0  0  0  0  0
   18.9947  -24.2109  -14.5848 C   0  0  0  0  0  0  0  0  0  0  0  0
   26.1958  -19.8045   -6.7183 C   0  0  0  0  0  0  0  0  0  0  0  0
   26.5655  -20.9052   -8.1071 S   0  0  0  0  0  0  0  0  0  0  0  0
   25.7504  -20.3152   -9.6312 C   0  0  0  0  0  0  0  0  0  0  0  0
   26.0920  -21.1894  -10.7886 C   0  0  0  0  0  0  0  0  0  0  0  0
   25.4303  -20.7716  -12.0942 C   0  0  2  0  0  0  0  0  0  0  0  0
   24.0515  -21.1815  -12.1909 N   0  0  0  0  0  0  0  0  0  0  0  0
   26.2484  -21.2827  -13.1943 C   0  0  0  0  0  0  0  0  0  0  0  0
   26.5511  -22.5105  -13.1869 O   0  0  0  0  0  0  0  0  0  0  0  0
   26.7392  -20.5105  -14.2847 N   0  0  0  0  0  0  0  0  0  0  0  0
   28.0814  -20.6280  -14.7906 C   0  0  0  0  0  0  0  0  0  0  0  0
   28.1430  -21.3404  -16.0820 C   0  0  0  0  0  0  0  0  0  0  0  0
   28.3683  -20.7023  -17.2857 O   0  0  0  0  0  0  0  0  0  0  0  0
   27.9838  -22.5831  -16.0902 O   0  0  0  0  0  0  0  0  0  0  0  0
  2  1  1  0
  3  2  2  0
  4  3  1  0
  5  4  2  0
  5 11  1  0
  6  5  1  0
  7  9  1  0
  7  6  1  0
  7  8  1  6
  9 18  1  0
 10  9  2  0
 11 12  2  0
 12  2  1  0
 14 13  1  0
 15 14  1  0
 17 16  1  1
 16 15  1  0
 17 19  1  0
 18 17  1  0
 19 20  2  0
 19 21  1  0
 21 22  1  0
 23 22  1  0
 23 24  1  0
 25 23  2  0
M  END
$$$$
