YNI.pdb
     RDKit          3D

 29 29  0  0  1  0  0  0  0  0999 V2000
    8.9214  -12.1399   19.6032 O   0  0  0  0  0  0  0  0  0  0  0  0
    8.2141  -13.3053   19.8757 C   0  0  0  0  0  0  0  0  0  0  0  0
    7.8654  -14.2331   18.9275 C   0  0  0  0  0  0  0  0  0  0  0  0
    7.1543  -15.3780   19.2859 C   0  0  0  0  0  0  0  0  0  0  0  0
    6.7768  -15.6239   20.5873 C   0  0  0  0  0  0  0  0  0  0  0  0
    6.0243  -16.8224   21.0046 C   0  0  0  0  0  0  0  0  0  0  0  0
    6.0982  -17.0329   22.5193 C   0  0  2  0  0  0  0  0  0  0  0  0
    5.6811  -15.8351   23.2136 N   0  0  0  0  0  0  0  0  0  0  0  0
    7.5029  -17.4127   22.8046 C   0  0  0  0  0  0  0  0  0  0  0  0
    8.0672  -18.1606   21.9649 O   0  0  0  0  0  0  0  0  0  0  0  0
    7.1279  -14.6882   21.5455 C   0  0  0  0  0  0  0  0  0  0  0  0
    7.8396  -13.5435   21.1821 C   0  0  0  0  0  0  0  0  0  0  0  0
   12.4206  -16.3025   21.7357 N   0  0  0  0  0  0  0  0  0  0  0  0
   11.6576  -15.9016   22.8715 C   0  0  0  0  0  0  0  0  0  0  0  0
   12.2728  -15.5260   23.8832 O   0  0  0  0  0  0  0  0  0  0  0  0
   10.1807  -15.9291   22.8501 C   0  0  0  0  0  0  0  0  0  0  0  0
    9.6935  -16.8830   23.9199 C   0  0  2  0  0  0  0  0  0  0  0  0
    8.2520  -17.0117   23.9253 N   0  0  0  0  0  0  0  0  0  0  0  0
   10.2238  -16.4201   25.2144 C   0  0  0  0  0  0  0  0  0  0  0  0
   11.4502  -16.2554   25.4617 O   0  0  0  0  0  0  0  0  0  0  0  0
    7.2305  -12.6121   27.1842 C   0  0  0  0  0  0  0  0  0  0  0  0
    8.2291  -13.6465   26.7929 C   0  0  0  0  0  0  0  0  0  0  0  0
    8.8423  -14.4276   27.9122 C   0  0  2  0  0  0  0  0  0  0  0  0
    9.4043  -13.4709   28.9239 C   0  0  0  0  0  0  0  0  0  0  0  0
    9.6734  -15.5953   27.5542 C   0  0  2  0  0  0  0  0  0  0  0  0
    9.2996  -16.1399   26.2490 N   0  0  0  0  0  0  0  0  0  0  0  0
    9.8229  -16.6805   28.5213 C   0  0  0  0  0  0  0  0  0  0  0  0
   10.3570  -16.4201   29.6518 O   0  0  0  0  0  0  0  0  0  0  0  0
    9.4397  -17.9961   28.3572 O   0  0  0  0  0  0  0  0  0  0  0  0
  2  1  1  0
  3  2  2  0
  4  3  1  0
  5 11  1  0
  5  4  2  0
  6  5  1  0
  7  8  1  1
  7  6  1  0
  9  7  1  0
 10  9  2  0
 11 12  2  0
 12  2  1  0
 13 14  1  0
 14 15  2  0
 16 14  1  0
 17 16  1  6
 17 18  1  0
 18  9  1  0
 19 26  1  0
 19 17  1  0
 20 19  2  0
 22 21  1  0
 23 22  1  0
 23 24  1  6
 25 23  1  0
 25 26  1  6
 27 25  1  0
 28 27  2  0
 29 27  1  0
M  END
$$$$
