YNI.pdb
     RDKit          3D

 29 29  0  0  1  0  0  0  0  0999 V2000
    7.7261  -11.9835   17.1437 O   0  0  0  0  0  0  0  0  0  0  0  0
    7.7928  -12.7262   18.3169 C   0  0  0  0  0  0  0  0  0  0  0  0
    6.7050  -13.2899   18.9335 C   0  0  0  0  0  0  0  0  0  0  0  0
    6.8594  -14.0220   20.1105 C   0  0  0  0  0  0  0  0  0  0  0  0
    8.0917  -14.2084   20.6965 C   0  0  0  0  0  0  0  0  0  0  0  0
    8.2946  -14.9755   21.9403 C   0  0  0  0  0  0  0  0  0  0  0  0
    8.8793  -16.3617   21.6562 C   0  0  2  0  0  0  0  0  0  0  0  0
    7.9466  -17.1512   20.8832 N   0  0  0  0  0  0  0  0  0  0  0  0
    9.1814  -16.9505   22.9831 C   0  0  0  0  0  0  0  0  0  0  0  0
    8.2178  -17.0604   23.7846 O   0  0  0  0  0  0  0  0  0  0  0  0
    9.1907  -13.6398   20.0753 C   0  0  0  0  0  0  0  0  0  0  0  0
    9.0314  -12.9077   18.8974 C   0  0  0  0  0  0  0  0  0  0  0  0
   12.2823  -20.1915   22.5766 N   0  0  0  0  0  0  0  0  0  0  0  0
   11.4679  -20.0058   23.7322 C   0  0  0  0  0  0  0  0  0  0  0  0
   10.4766  -20.7415   23.8702 O   0  0  0  0  0  0  0  0  0  0  0  0
   11.7898  -18.9724   24.7376 C   0  0  0  0  0  0  0  0  0  0  0  0
   10.6904  -17.9318   24.7391 C   0  0  2  0  0  0  0  0  0  0  0  0
   10.4435  -17.3924   23.4190 N   0  0  0  0  0  0  0  0  0  0  0  0
   11.0547  -16.8901   25.7154 C   0  0  0  0  0  0  0  0  0  0  0  0
   12.1410  -16.2482   25.6972 O   0  0  0  0  0  0  0  0  0  0  0  0
    8.2706  -12.7423   26.4923 C   0  0  0  0  0  0  0  0  0  0  0  0
    9.2762  -13.8417   26.5063 C   0  0  0  0  0  0  0  0  0  0  0  0
    9.5129  -14.5020   27.8281 C   0  0  2  0  0  0  0  0  0  0  0  0
    9.7451  -13.4435   28.8674 C   0  0  0  0  0  0  0  0  0  0  0  0
   10.4058  -15.6786   27.8530 C   0  0  2  0  0  0  0  0  0  0  0  0
   10.1274  -16.5870   26.7408 N   0  0  0  0  0  0  0  0  0  0  0  0
   10.5403  -16.4386   29.0938 C   0  0  0  0  0  0  0  0  0  0  0  0
    9.9040  -17.5404   29.2056 O   0  0  0  0  0  0  0  0  0  0  0  0
   11.3008  -16.1010   30.1947 O   0  0  0  0  0  0  0  0  0  0  0  0
  2  1  1  0
  3  2  2  0
  4  3  1  0
  5 11  1  0
  5  4  2  0
  6  5  1  0
  7  8  1  1
  7  6  1  0
  9  7  1  0
 10  9  2  0
 11 12  2  0
 12  2  1  0
 13 14  1  0
 14 15  2  0
 16 14  1  0
 17 16  1  6
 17 18  1  0
 18  9  1  0
 19 26  1  0
 19 17  1  0
 20 19  2  0
 22 21  1  0
 23 22  1  0
 23 24  1  1
 25 23  1  0
 25 26  1  6
 27 25  1  0
 28 27  2  0
 29 27  1  0
M  END
$$$$
