YNI.pdb
     RDKit          3D

 29 29  0  0  1  0  0  0  0  0999 V2000
    8.9057  -11.8581   17.9391 O   0  0  0  0  0  0  0  0  0  0  0  0
    8.1851  -12.5913   18.8750 C   0  0  0  0  0  0  0  0  0  0  0  0
    6.9618  -13.1611   18.6294 C   0  0  0  0  0  0  0  0  0  0  0  0
    6.3047  -13.8826   19.6258 C   0  0  0  0  0  0  0  0  0  0  0  0
    6.8466  -14.0524   20.8804 C   0  0  0  0  0  0  0  0  0  0  0  0
    6.1820  -14.8081   21.9593 C   0  0  0  0  0  0  0  0  0  0  0  0
    6.3630  -16.3179   21.7814 C   0  0  2  0  0  0  0  0  0  0  0  0
    5.2013  -16.8906   21.1384 N   0  0  0  0  0  0  0  0  0  0  0  0
    6.6014  -16.8576   23.1418 C   0  0  0  0  0  0  0  0  0  0  0  0
    5.7393  -16.5846   24.0164 O   0  0  0  0  0  0  0  0  0  0  0  0
    8.0812  -13.4777   21.1297 C   0  0  0  0  0  0  0  0  0  0  0  0
    8.7353  -12.7561   20.1296 C   0  0  0  0  0  0  0  0  0  0  0  0
    7.4111  -19.7075   27.4815 N   0  0  0  0  0  0  0  0  0  0  0  0
    8.4466  -19.7799   26.5039 C   0  0  0  0  0  0  0  0  0  0  0  0
    9.5868  -20.0918   26.8856 O   0  0  0  0  0  0  0  0  0  0  0  0
    8.1762  -19.4950   25.0798 C   0  0  0  0  0  0  0  0  0  0  0  0
    7.9747  -18.0044   24.9087 C   0  0  2  0  0  0  0  0  0  0  0  0
    7.7009  -17.6417   23.5347 N   0  0  0  0  0  0  0  0  0  0  0  0
    9.1652  -17.3223   25.4460 C   0  0  0  0  0  0  0  0  0  0  0  0
   10.2470  -17.1771   24.8128 O   0  0  0  0  0  0  0  0  0  0  0  0
    9.5965  -13.3242   29.6278 C   0  0  0  0  0  0  0  0  0  0  0  0
    8.9570  -14.1243   28.5457 C   0  0  0  0  0  0  0  0  0  0  0  0
    9.8620  -14.5951   27.4510 C   0  0  2  0  0  0  0  0  0  0  0  0
    9.4605  -13.9297   26.1663 C   0  0  0  0  0  0  0  0  0  0  0  0
   10.1712  -16.0386   27.3948 C   0  0  2  0  0  0  0  0  0  0  0  0
    9.0930  -16.7938   26.7569 N   0  0  0  0  0  0  0  0  0  0  0  0
   10.5997  -16.7184   28.6152 C   0  0  0  0  0  0  0  0  0  0  0  0
    9.8887  -17.6830   29.0572 O   0  0  0  0  0  0  0  0  0  0  0  0
   11.7198  -16.4380   29.3710 O   0  0  0  0  0  0  0  0  0  0  0  0
  2  1  1  0
  3  2  2  0
  4  3  1  0
  5 11  1  0
  5  4  2  0
  6  5  1  0
  7  8  1  1
  7  6  1  0
  9  7  1  0
 10  9  2  0
 11 12  2  0
 12  2  1  0
 13 14  1  0
 14 15  2  0
 16 14  1  0
 17 16  1  6
 17 18  1  0
 18  9  1  0
 19 26  1  0
 19 17  1  0
 20 19  2  0
 22 21  1  0
 23 22  1  0
 23 24  1  6
 25 23  1  0
 25 26  1  1
 27 25  1  0
 28 27  2  0
 29 27  1  0
M  END
$$$$
