YNI.pdb
     RDKit          3D

 29 29  0  0  1  0  0  0  0  0999 V2000
    8.7352  -12.2232   18.1511 O   0  0  0  0  0  0  0  0  0  0  0  0
    8.1714  -12.9829   19.1697 C   0  0  0  0  0  0  0  0  0  0  0  0
    7.1263  -13.8533   18.9920 C   0  0  0  0  0  0  0  0  0  0  0  0
    6.6191  -14.5792   20.0695 C   0  0  0  0  0  0  0  0  0  0  0  0
    7.1371  -14.4562   21.3396 C   0  0  0  0  0  0  0  0  0  0  0  0
    6.6275  -15.2064   22.5033 C   0  0  0  0  0  0  0  0  0  0  0  0
    6.8649  -16.7110   22.3494 C   0  0  2  0  0  0  0  0  0  0  0  0
    5.6070  -17.4235   22.3803 N   0  0  0  0  0  0  0  0  0  0  0  0
    7.7764  -17.0897   23.4560 C   0  0  0  0  0  0  0  0  0  0  0  0
    7.2421  -17.3382   24.5676 O   0  0  0  0  0  0  0  0  0  0  0  0
    8.1919  -13.5779   21.5205 C   0  0  0  0  0  0  0  0  0  0  0  0
    8.6963  -12.8532   20.4392 C   0  0  0  0  0  0  0  0  0  0  0  0
   11.9565  -18.1191   21.5554 N   0  0  0  0  0  0  0  0  0  0  0  0
   11.8513  -17.5715   22.8677 C   0  0  0  0  0  0  0  0  0  0  0  0
   12.2711  -16.4170   23.0522 O   0  0  0  0  0  0  0  0  0  0  0  0
   11.2607  -18.3487   23.9765 C   0  0  0  0  0  0  0  0  0  0  0  0
   10.0145  -17.6395   24.4619 C   0  0  2  0  0  0  0  0  0  0  0  0
    9.1764  -17.1933   23.3697 N   0  0  0  0  0  0  0  0  0  0  0  0
   10.4363  -16.5326   25.3383 C   0  0  0  0  0  0  0  0  0  0  0  0
   11.5093  -15.8837   25.1968 O   0  0  0  0  0  0  0  0  0  0  0  0
    6.8295  -12.9071   26.6431 C   0  0  0  0  0  0  0  0  0  0  0  0
    8.0710  -13.6931   26.3965 C   0  0  0  0  0  0  0  0  0  0  0  0
    8.7687  -14.2216   27.6102 C   0  0  2  0  0  0  0  0  0  0  0  0
    8.9707  -13.0975   28.5849 C   0  0  0  0  0  0  0  0  0  0  0  0
    9.9046  -15.1420   27.3978 C   0  0  2  0  0  0  0  0  0  0  0  0
    9.5838  -16.1707   26.4085 N   0  0  0  0  0  0  0  0  0  0  0  0
   10.5472  -15.7528   28.5595 C   0  0  0  0  0  0  0  0  0  0  0  0
   10.2442  -16.9563   28.8608 O   0  0  0  0  0  0  0  0  0  0  0  0
   11.4763  -15.1684   29.3958 O   0  0  0  0  0  0  0  0  0  0  0  0
  2  1  1  0
  3  2  2  0
  4  3  1  0
  5 11  1  0
  5  4  2  0
  6  5  1  0
  7  8  1  1
  7  6  1  0
  9  7  1  0
 10  9  2  0
 11 12  2  0
 12  2  1  0
 13 14  1  0
 14 15  2  0
 16 14  1  0
 17 16  1  6
 17 18  1  0
 18  9  1  0
 19 26  1  0
 19 17  1  0
 20 19  2  0
 22 21  1  0
 23 22  1  0
 23 24  1  6
 25 23  1  0
 25 26  1  6
 27 25  1  0
 28 27  2  0
 29 27  1  0
M  END
$$$$
