YNI.pdb
     RDKit          3D

 29 29  0  0  1  0  0  0  0  0999 V2000
   11.9367  -17.6669   31.1741 O   0  0  0  0  0  0  0  0  0  0  0  0
   10.8925  -17.6426   30.2566 C   0  0  0  0  0  0  0  0  0  0  0  0
   10.5797  -16.5592   29.4756 C   0  0  0  0  0  0  0  0  0  0  0  0
    9.5139  -16.6182   28.5781 C   0  0  0  0  0  0  0  0  0  0  0  0
    8.7406  -17.7491   28.4382 C   0  0  0  0  0  0  0  0  0  0  0  0
    7.6059  -17.8493   27.5005 C   0  0  0  0  0  0  0  0  0  0  0  0
    7.8344  -18.9464   26.4574 C   0  0  2  0  0  0  0  0  0  0  0  0
    8.8705  -19.8525   26.9005 N   0  0  0  0  0  0  0  0  0  0  0  0
    8.1767  -18.2403   25.1993 C   0  0  0  0  0  0  0  0  0  0  0  0
    9.4010  -18.0933   24.9496 O   0  0  0  0  0  0  0  0  0  0  0  0
    9.0550  -18.8434   29.2259 C   0  0  0  0  0  0  0  0  0  0  0  0
   10.1226  -18.7798   30.1232 C   0  0  0  0  0  0  0  0  0  0  0  0
    8.3074  -16.4986   20.3554 N   0  0  0  0  0  0  0  0  0  0  0  0
    7.0037  -16.2208   20.8615 C   0  0  0  0  0  0  0  0  0  0  0  0
    6.2979  -15.4101   20.2388 O   0  0  0  0  0  0  0  0  0  0  0  0
    6.5029  -16.8754   22.0875 C   0  0  0  0  0  0  0  0  0  0  0  0
    7.6448  -17.0090   23.0723 C   0  0  2  0  0  0  0  0  0  0  0  0
    7.2567  -17.7243   24.2690 N   0  0  0  0  0  0  0  0  0  0  0  0
    8.1522  -15.6564   23.3627 C   0  0  0  0  0  0  0  0  0  0  0  0
    8.6983  -14.9042   22.5093 O   0  0  0  0  0  0  0  0  0  0  0  0
    6.0095  -11.7367   26.9660 C   0  0  0  0  0  0  0  0  0  0  0  0
    6.2289  -12.9945   26.1980 C   0  0  0  0  0  0  0  0  0  0  0  0
    7.1936  -12.9107   25.0573 C   0  0  2  0  0  0  0  0  0  0  0  0
    6.4227  -12.8393   23.7708 C   0  0  0  0  0  0  0  0  0  0  0  0
    8.3688  -13.8054   25.0903 C   0  0  2  0  0  0  0  0  0  0  0  0
    8.0186  -15.1662   24.6837 N   0  0  0  0  0  0  0  0  0  0  0  0
    9.1952  -13.8436   26.2948 C   0  0  0  0  0  0  0  0  0  0  0  0
    9.7143  -12.7540   26.7126 O   0  0  0  0  0  0  0  0  0  0  0  0
    9.4890  -14.9510   27.0640 O   0  0  0  0  0  0  0  0  0  0  0  0
  2  1  1  0
  3  2  2  0
  4  3  1  0
  5 11  1  0
  5  4  2  0
  6  5  1  0
  7  8  1  1
  7  6  1  0
  9  7  1  0
 10  9  2  0
 11 12  2  0
 12  2  1  0
 13 14  1  0
 14 15  2  0
 16 14  1  0
 17 16  1  6
 17 18  1  0
 18  9  1  0
 19 26  1  0
 19 17  1  0
 20 19  2  0
 22 21  1  0
 23 22  1  0
 23 24  1  6
 25 23  1  0
 25 26  1  1
 27 25  1  0
 28 27  2  0
 29 27  1  0
M  END
$$$$
