YNI.pdb
     RDKit          3D

 29 29  0  0  1  0  0  0  0  0999 V2000
   10.1618  -15.6504   31.6506 O   0  0  0  0  0  0  0  0  0  0  0  0
   10.3224  -15.4598   30.2829 C   0  0  0  0  0  0  0  0  0  0  0  0
   10.8214  -14.3131   29.7194 C   0  0  0  0  0  0  0  0  0  0  0  0
   10.9505  -14.2034   28.3350 C   0  0  0  0  0  0  0  0  0  0  0  0
   10.5886  -15.2255   27.4860 C   0  0  0  0  0  0  0  0  0  0  0  0
   10.7103  -15.1465   26.0178 C   0  0  0  0  0  0  0  0  0  0  0  0
   11.5330  -16.3104   25.4588 C   0  0  2  0  0  0  0  0  0  0  0  0
   12.8025  -16.4030   26.1450 N   0  0  0  0  0  0  0  0  0  0  0  0
   11.6734  -16.0432   24.0071 C   0  0  0  0  0  0  0  0  0  0  0  0
   12.3447  -15.0300   23.6819 O   0  0  0  0  0  0  0  0  0  0  0  0
   10.0847  -16.3835   28.0534 C   0  0  0  0  0  0  0  0  0  0  0  0
    9.9570  -16.4889   29.4395 C   0  0  0  0  0  0  0  0  0  0  0  0
   12.9895  -15.9137   19.0214 N   0  0  0  0  0  0  0  0  0  0  0  0
   12.1703  -17.0203   19.3922 C   0  0  0  0  0  0  0  0  0  0  0  0
   11.5367  -17.6018   18.4958 O   0  0  0  0  0  0  0  0  0  0  0  0
   12.0758  -17.4659   20.7975 C   0  0  0  0  0  0  0  0  0  0  0  0
   11.2316  -16.4744   21.5694 C   0  0  2  0  0  0  0  0  0  0  0  0
   11.1239  -16.8193   22.9709 N   0  0  0  0  0  0  0  0  0  0  0  0
    9.9182  -16.3864   20.9072 C   0  0  0  0  0  0  0  0  0  0  0  0
    8.9424  -17.1451   21.1612 O   0  0  0  0  0  0  0  0  0  0  0  0
    8.1105  -11.4089   19.9682 C   0  0  0  0  0  0  0  0  0  0  0  0
    8.2354  -12.8737   20.2108 C   0  0  0  0  0  0  0  0  0  0  0  0
    8.1965  -13.7486   18.9975 C   0  0  2  0  0  0  0  0  0  0  0  0
    6.9866  -13.3967   18.1810 C   0  0  0  0  0  0  0  0  0  0  0  0
    8.4911  -15.1845   19.1820 C   0  0  2  0  0  0  0  0  0  0  0  0
    9.7362  -15.3859   19.9229 N   0  0  0  0  0  0  0  0  0  0  0  0
    8.4559  -16.0690   18.0193 C   0  0  0  0  0  0  0  0  0  0  0  0
    7.3807  -16.7141   17.7766 O   0  0  0  0  0  0  0  0  0  0  0  0
    9.4767  -16.2957   17.1188 O   0  0  0  0  0  0  0  0  0  0  0  0
  2  1  1  0
  3  2  2  0
  4  3  1  0
  5 11  1  0
  5  4  2  0
  6  5  1  0
  7  8  1  1
  7  6  1  0
  9  7  1  0
 10  9  2  0
 11 12  2  0
 12  2  1  0
 13 14  1  0
 14 15  2  0
 16 14  1  0
 17 16  1  6
 17 18  1  0
 18  9  1  0
 19 26  1  0
 19 17  1  0
 20 19  2  0
 22 21  1  0
 23 22  1  0
 23 24  1  1
 25 23  1  0
 25 26  1  6
 27 25  1  0
 28 27  2  0
 29 27  1  0
M  END
$$$$
