YNI.pdb
     RDKit          3D

 29 29  0  0  1  0  0  0  0  0999 V2000
    9.0590  -11.4837   19.3758 O   0  0  0  0  0  0  0  0  0  0  0  0
    8.4991  -12.7555   19.4139 C   0  0  0  0  0  0  0  0  0  0  0  0
    7.9788  -13.4001   18.3206 C   0  0  0  0  0  0  0  0  0  0  0  0
    7.4349  -14.6783   18.4455 C   0  0  0  0  0  0  0  0  0  0  0  0
    7.3969  -15.3394   19.6530 C   0  0  0  0  0  0  0  0  0  0  0  0
    6.8300  -16.6907   19.8242 C   0  0  0  0  0  0  0  0  0  0  0  0
    6.8593  -17.1305   21.2905 C   0  0  2  0  0  0  0  0  0  0  0  0
    6.0110  -16.2736   22.0886 N   0  0  0  0  0  0  0  0  0  0  0  0
    8.2845  -17.0813   21.6967 C   0  0  0  0  0  0  0  0  0  0  0  0
    9.0988  -17.7153   20.9771 O   0  0  0  0  0  0  0  0  0  0  0  0
    7.9215  -14.6900   20.7574 C   0  0  0  0  0  0  0  0  0  0  0  0
    8.4648  -13.4105   20.6279 C   0  0  0  0  0  0  0  0  0  0  0  0
   10.1223  -19.6314   24.2241 N   0  0  0  0  0  0  0  0  0  0  0  0
   11.1214  -18.9432   23.4750 C   0  0  0  0  0  0  0  0  0  0  0  0
   12.1315  -19.5786   23.1300 O   0  0  0  0  0  0  0  0  0  0  0  0
   10.9640  -17.5187   23.1167 C   0  0  0  0  0  0  0  0  0  0  0  0
    9.7059  -16.9862   23.7689 C   0  0  2  0  0  0  0  0  0  0  0  0
    8.7994  -16.3925   22.8096 N   0  0  0  0  0  0  0  0  0  0  0  0
   10.1090  -16.0407   24.8247 C   0  0  0  0  0  0  0  0  0  0  0  0
   11.1587  -15.3411   24.7888 O   0  0  0  0  0  0  0  0  0  0  0  0
    6.4037  -12.7366   26.1741 C   0  0  0  0  0  0  0  0  0  0  0  0
    7.6621  -13.5075   25.9686 C   0  0  0  0  0  0  0  0  0  0  0  0
    8.3106  -14.0521   27.2023 C   0  0  2  0  0  0  0  0  0  0  0  0
    8.4283  -12.9521   28.2175 C   0  0  0  0  0  0  0  0  0  0  0  0
    9.4825  -14.9339   27.0248 C   0  0  2  0  0  0  0  0  0  0  0  0
    9.2653  -15.9055   25.9530 N   0  0  0  0  0  0  0  0  0  0  0  0
   10.0486  -15.6024   28.1944 C   0  0  0  0  0  0  0  0  0  0  0  0
    9.7893  -16.8401   28.3739 O   0  0  0  0  0  0  0  0  0  0  0  0
   10.8604  -15.0406   29.1585 O   0  0  0  0  0  0  0  0  0  0  0  0
  2  1  1  0
  3  2  2  0
  4  3  1  0
  5 11  1  0
  5  4  2  0
  6  5  1  0
  7  8  1  1
  7  6  1  0
  9  7  1  0
 10  9  2  0
 11 12  2  0
 12  2  1  0
 13 14  1  0
 14 15  2  0
 16 14  1  0
 17 16  1  6
 17 18  1  0
 18  9  1  0
 19 26  1  0
 19 17  1  0
 20 19  2  0
 22 21  1  0
 23 22  1  0
 23 24  1  1
 25 23  1  0
 25 26  1  6
 27 25  1  0
 28 27  2  0
 29 27  1  0
M  END
$$$$
