YNI.pdb
     RDKit          3D

 29 29  0  0  1  0  0  0  0  0999 V2000
    6.4318  -23.6177   28.9012 O   0  0  0  0  0  0  0  0  0  0  0  0
    6.6110  -22.8482   27.7574 C   0  0  0  0  0  0  0  0  0  0  0  0
    6.0555  -23.1414   26.5380 C   0  0  0  0  0  0  0  0  0  0  0  0
    6.2856  -22.3148   25.4385 C   0  0  0  0  0  0  0  0  0  0  0  0
    7.0684  -21.1853   25.5271 C   0  0  0  0  0  0  0  0  0  0  0  0
    7.3348  -20.2873   24.3872 C   0  0  0  0  0  0  0  0  0  0  0  0
    6.7922  -18.8787   24.6431 C   0  0  2  0  0  0  0  0  0  0  0  0
    5.3463  -18.8877   24.6311 N   0  0  0  0  0  0  0  0  0  0  0  0
    7.3784  -18.0232   23.5832 C   0  0  0  0  0  0  0  0  0  0  0  0
    8.5888  -18.2213   23.3030 O   0  0  0  0  0  0  0  0  0  0  0  0
    7.6300  -20.8881   26.7572 C   0  0  0  0  0  0  0  0  0  0  0  0
    7.3971  -21.7184   27.8550 C   0  0  0  0  0  0  0  0  0  0  0  0
    8.6162  -14.4652   20.2063 N   0  0  0  0  0  0  0  0  0  0  0  0
    7.1906  -14.4745   20.1824 C   0  0  0  0  0  0  0  0  0  0  0  0
    6.6168  -13.7205   19.3791 O   0  0  0  0  0  0  0  0  0  0  0  0
    6.4156  -15.3529   21.0825 C   0  0  0  0  0  0  0  0  0  0  0  0
    7.3696  -16.0420   22.0346 C   0  0  2  0  0  0  0  0  0  0  0  0
    6.7022  -17.0167   22.8707 N   0  0  0  0  0  0  0  0  0  0  0  0
    8.0563  -15.0009   22.8194 C   0  0  0  0  0  0  0  0  0  0  0  0
    8.9546  -14.2424   22.3609 O   0  0  0  0  0  0  0  0  0  0  0  0
    5.2983  -11.6213   25.6964 C   0  0  0  0  0  0  0  0  0  0  0  0
    6.4080  -12.2939   24.9640 C   0  0  0  0  0  0  0  0  0  0  0  0
    7.3836  -13.0580   25.8026 C   0  0  2  0  0  0  0  0  0  0  0  0
    7.9219  -12.1520   26.8722 C   0  0  0  0  0  0  0  0  0  0  0  0
    8.3536  -13.9246   25.1021 C   0  0  2  0  0  0  0  0  0  0  0  0
    7.6853  -14.8381   24.1754 N   0  0  0  0  0  0  0  0  0  0  0  0
    9.3478  -14.6528   25.8875 C   0  0  0  0  0  0  0  0  0  0  0  0
    9.1286  -15.8811   26.1600 O   0  0  0  0  0  0  0  0  0  0  0  0
   10.5370  -14.1584   26.3830 O   0  0  0  0  0  0  0  0  0  0  0  0
  2  1  1  0
  3  2  2  0
  4  3  1  0
  5 11  1  0
  5  4  2  0
  6  5  1  0
  7  8  1  6
  7  6  1  0
  9  7  1  0
 10  9  2  0
 11 12  2  0
 12  2  1  0
 13 14  1  0
 14 15  2  0
 16 14  1  0
 17 16  1  6
 17 18  1  0
 18  9  1  0
 19 26  1  0
 19 17  1  0
 20 19  2  0
 22 21  1  0
 23 22  1  0
 23 24  1  6
 25 23  1  0
 25 26  1  1
 27 25  1  0
 28 27  2  0
 29 27  1  0
M  END
$$$$
