YNI.pdb
     RDKit          3D

 29 29  0  0  1  0  0  0  0  0999 V2000
   11.5759  -12.9484   18.8775 O   0  0  0  0  0  0  0  0  0  0  0  0
   10.4164  -13.6072   19.2702 C   0  0  0  0  0  0  0  0  0  0  0  0
   10.3680  -14.9292   19.6328 C   0  0  0  0  0  0  0  0  0  0  0  0
    9.1610  -15.5142   20.0150 C   0  0  0  0  0  0  0  0  0  0  0  0
    7.9830  -14.8016   20.0449 C   0  0  0  0  0  0  0  0  0  0  0  0
    6.6878  -15.3853   20.4431 C   0  0  0  0  0  0  0  0  0  0  0  0
    6.8363  -16.8514   20.8586 C   0  0  2  0  0  0  0  0  0  0  0  0
    6.2241  -17.7165   19.8749 N   0  0  0  0  0  0  0  0  0  0  0  0
    6.2082  -16.9556   22.1977 C   0  0  0  0  0  0  0  0  0  0  0  0
    5.0042  -16.6013   22.2857 O   0  0  0  0  0  0  0  0  0  0  0  0
    8.0302  -13.4672   19.6791 C   0  0  0  0  0  0  0  0  0  0  0  0
    9.2405  -12.8858   19.2970 C   0  0  0  0  0  0  0  0  0  0  0  0
    8.9386  -19.1603   24.5701 N   0  0  0  0  0  0  0  0  0  0  0  0
    7.9928  -18.8551   25.5926 C   0  0  0  0  0  0  0  0  0  0  0  0
    8.4269  -18.5695   26.7209 O   0  0  0  0  0  0  0  0  0  0  0  0
    6.5405  -18.8756   25.3229 C   0  0  0  0  0  0  0  0  0  0  0  0
    6.1531  -17.5858   24.6315 C   0  0  2  0  0  0  0  0  0  0  0  0
    6.8389  -17.4124   23.3689 N   0  0  0  0  0  0  0  0  0  0  0  0
    6.4059  -16.4768   25.5681 C   0  0  0  0  0  0  0  0  0  0  0  0
    5.5005  -15.7918   26.1190 O   0  0  0  0  0  0  0  0  0  0  0  0
    5.8712  -11.8627   26.5286 C   0  0  0  0  0  0  0  0  0  0  0  0
    6.8285  -12.7298   25.7856 C   0  0  0  0  0  0  0  0  0  0  0  0
    7.4468  -13.8478   26.5648 C   0  0  2  0  0  0  0  0  0  0  0  0
    7.9852  -13.3028   27.8561 C   0  0  0  0  0  0  0  0  0  0  0  0
    8.3000  -14.8026   25.8281 C   0  0  2  0  0  0  0  0  0  0  0  0
    7.7508  -16.1577   25.8725 N   0  0  0  0  0  0  0  0  0  0  0  0
    9.7327  -14.8374   26.1137 C   0  0  0  0  0  0  0  0  0  0  0  0
   10.3860  -13.7402   26.0879 O   0  0  0  0  0  0  0  0  0  0  0  0
   10.4898  -15.9489   26.4228 O   0  0  0  0  0  0  0  0  0  0  0  0
  2  1  1  0
  3  2  2  0
  4  3  1  0
  5 11  1  0
  5  4  2  0
  6  5  1  0
  7  8  1  6
  7  6  1  0
  9  7  1  0
 10  9  2  0
 11 12  2  0
 12  2  1  0
 13 14  1  0
 14 15  2  0
 16 14  1  0
 17 16  1  1
 17 18  1  0
 18  9  1  0
 19 26  1  0
 19 17  1  0
 20 19  2  0
 22 21  1  0
 23 22  1  0
 23 24  1  1
 25 23  1  0
 25 26  1  1
 27 25  1  0
 28 27  2  0
 29 27  1  0
M  END
$$$$
