YNI.pdb
     RDKit          3D

 29 29  0  0  1  0  0  0  0  0999 V2000
    6.8860  -13.1755   15.3444 O   0  0  0  0  0  0  0  0  0  0  0  0
    7.4461  -13.6916   16.5074 C   0  0  0  0  0  0  0  0  0  0  0  0
    7.6466  -12.9645   17.6531 C   0  0  0  0  0  0  0  0  0  0  0  0
    8.2156  -13.5601   18.7785 C   0  0  0  0  0  0  0  0  0  0  0  0
    8.5952  -14.8839   18.7892 C   0  0  0  0  0  0  0  0  0  0  0  0
    9.1999  -15.5485   19.9594 C   0  0  0  0  0  0  0  0  0  0  0  0
    8.1547  -15.8490   21.0370 C   0  0  2  0  0  0  0  0  0  0  0  0
    7.6600  -14.6187   21.6136 N   0  0  0  0  0  0  0  0  0  0  0  0
    8.8340  -16.7231   22.0236 C   0  0  0  0  0  0  0  0  0  0  0  0
    8.8540  -17.9546   21.7671 O   0  0  0  0  0  0  0  0  0  0  0  0
    8.3935  -15.6190   17.6335 C   0  0  0  0  0  0  0  0  0  0  0  0
    7.8238  -15.0187   16.5092 C   0  0  0  0  0  0  0  0  0  0  0  0
   11.1254  -20.0765   25.0270 N   0  0  0  0  0  0  0  0  0  0  0  0
   11.7720  -18.8998   24.5472 C   0  0  0  0  0  0  0  0  0  0  0  0
   12.8799  -18.6075   25.0270 O   0  0  0  0  0  0  0  0  0  0  0  0
   11.1482  -18.0520   23.5107 C   0  0  0  0  0  0  0  0  0  0  0  0
   10.0790  -17.1967   24.1564 C   0  0  2  0  0  0  0  0  0  0  0  0
    9.4522  -16.2963   23.2125 N   0  0  0  0  0  0  0  0  0  0  0  0
   10.6926  -16.4863   25.2921 C   0  0  0  0  0  0  0  0  0  0  0  0
   11.8050  -15.8927   25.2414 O   0  0  0  0  0  0  0  0  0  0  0  0
    7.8044  -12.8105   27.0563 C   0  0  0  0  0  0  0  0  0  0  0  0
    8.9008  -13.7795   26.7746 C   0  0  0  0  0  0  0  0  0  0  0  0
    9.3813  -14.5879   27.9385 C   0  0  2  0  0  0  0  0  0  0  0  0
    9.6558  -13.6668   29.0920 C   0  0  0  0  0  0  0  0  0  0  0  0
   10.3759  -15.6467   27.6696 C   0  0  2  0  0  0  0  0  0  0  0  0
    9.9903  -16.4658   26.5207 N   0  0  0  0  0  0  0  0  0  0  0  0
   10.8096  -16.5057   28.7694 C   0  0  0  0  0  0  0  0  0  0  0  0
   10.3370  -17.6901   28.8403 O   0  0  0  0  0  0  0  0  0  0  0  0
   11.7014  -16.1828   29.7717 O   0  0  0  0  0  0  0  0  0  0  0  0
  2  1  1  0
  3  2  2  0
  4  3  1  0
  5 11  1  0
  5  4  2  0
  6  5  1  0
  7  8  1  1
  7  6  1  0
  9  7  1  0
 10  9  2  0
 11 12  2  0
 12  2  1  0
 13 14  1  0
 14 15  2  0
 16 14  1  0
 17 16  1  6
 17 18  1  0
 18  9  1  0
 19 26  1  0
 19 17  1  0
 20 19  2  0
 22 21  1  0
 23 22  1  0
 23 24  1  1
 25 23  1  0
 25 26  1  6
 27 25  1  0
 28 27  2  0
 29 27  1  0
M  END
$$$$
