YNI.pdb
     RDKit          3D

 29 29  0  0  1  0  0  0  0  0999 V2000
    9.5580  -12.2764   19.0556 O   0  0  0  0  0  0  0  0  0  0  0  0
    8.6669  -13.0929   19.7427 C   0  0  0  0  0  0  0  0  0  0  0  0
    8.3079  -12.9079   21.0535 C   0  0  0  0  0  0  0  0  0  0  0  0
    7.4051  -13.7748   21.6689 C   0  0  0  0  0  0  0  0  0  0  0  0
    6.8429  -14.8380   20.9981 C   0  0  0  0  0  0  0  0  0  0  0  0
    5.8852  -15.7757   21.6147 C   0  0  0  0  0  0  0  0  0  0  0  0
    6.4357  -17.2041   21.6416 C   0  0  2  0  0  0  0  0  0  0  0  0
    5.3665  -18.1579   21.4468 N   0  0  0  0  0  0  0  0  0  0  0  0
    7.1145  -17.3490   22.9519 C   0  0  0  0  0  0  0  0  0  0  0  0
    6.3734  -17.4459   23.9639 O   0  0  0  0  0  0  0  0  0  0  0  0
    7.2044  -15.0260   19.6749 C   0  0  0  0  0  0  0  0  0  0  0  0
    8.1086  -14.1560   19.0631 C   0  0  0  0  0  0  0  0  0  0  0  0
   11.7427  -17.9713   22.4671 N   0  0  0  0  0  0  0  0  0  0  0  0
   10.6821  -18.7573   23.0060 C   0  0  0  0  0  0  0  0  0  0  0  0
   10.1350  -19.5866   22.2603 O   0  0  0  0  0  0  0  0  0  0  0  0
   10.2448  -18.5949   24.4077 C   0  0  0  0  0  0  0  0  0  0  0  0
    9.1166  -17.5866   24.4546 C   0  0  2  0  0  0  0  0  0  0  0  0
    8.5052  -17.3864   23.1582 N   0  0  0  0  0  0  0  0  0  0  0  0
    9.6498  -16.3375   25.0261 C   0  0  0  0  0  0  0  0  0  0  0  0
   10.8348  -15.9332   24.8686 O   0  0  0  0  0  0  0  0  0  0  0  0
    6.1592  -12.2942   26.6381 C   0  0  0  0  0  0  0  0  0  0  0  0
    7.3324  -13.0999   26.1969 C   0  0  0  0  0  0  0  0  0  0  0  0
    8.1574  -13.7133   27.2843 C   0  0  2  0  0  0  0  0  0  0  0  0
    8.5246  -12.6487   28.2774 C   0  0  0  0  0  0  0  0  0  0  0  0
    9.2207  -14.6575   26.8839 C   0  0  2  0  0  0  0  0  0  0  0  0
    8.7780  -15.5366   25.8017 N   0  0  0  0  0  0  0  0  0  0  0  0
    9.8964  -15.4410   27.9158 C   0  0  0  0  0  0  0  0  0  0  0  0
   10.9535  -14.9627   28.4498 O   0  0  0  0  0  0  0  0  0  0  0  0
    9.5154  -16.6747   28.4029 O   0  0  0  0  0  0  0  0  0  0  0  0
  2  1  1  0
  3  2  2  0
  4  3  1  0
  5 11  1  0
  5  4  2  0
  6  5  1  0
  7  8  1  1
  7  6  1  0
  9  7  1  0
 10  9  2  0
 11 12  2  0
 12  2  1  0
 13 14  1  0
 14 15  2  0
 16 14  1  0
 17 16  1  6
 17 18  1  0
 18  9  1  0
 19 26  1  0
 19 17  1  0
 20 19  2  0
 22 21  1  0
 23 22  1  0
 23 24  1  6
 25 23  1  0
 25 26  1  6
 27 25  1  0
 28 27  2  0
 29 27  1  0
M  END
$$$$
