YNI.pdb
     RDKit          3D

 29 29  0  0  1  0  0  0  0  0999 V2000
    8.3313  -13.5954   14.7306 O   0  0  0  0  0  0  0  0  0  0  0  0
    8.0335  -13.7583   16.0788 C   0  0  0  0  0  0  0  0  0  0  0  0
    7.2869  -12.8732   16.8141 C   0  0  0  0  0  0  0  0  0  0  0  0
    7.0338  -13.1123   18.1646 C   0  0  0  0  0  0  0  0  0  0  0  0
    7.5144  -14.2302   18.8094 C   0  0  0  0  0  0  0  0  0  0  0  0
    7.2680  -14.5171   20.2355 C   0  0  0  0  0  0  0  0  0  0  0  0
    7.8262  -15.8847   20.6380 C   0  0  2  0  0  0  0  0  0  0  0  0
    7.2793  -16.9197   19.7892 N   0  0  0  0  0  0  0  0  0  0  0  0
    7.4747  -16.0576   22.0681 C   0  0  0  0  0  0  0  0  0  0  0  0
    6.8739  -15.1006   22.6215 O   0  0  0  0  0  0  0  0  0  0  0  0
    8.2682  -15.1244   18.0685 C   0  0  0  0  0  0  0  0  0  0  0  0
    8.5194  -14.8809   16.7170 C   0  0  0  0  0  0  0  0  0  0  0  0
    8.0191  -19.4551   27.1369 N   0  0  0  0  0  0  0  0  0  0  0  0
    7.2248  -18.6941   26.2297 C   0  0  0  0  0  0  0  0  0  0  0  0
    6.2893  -18.0233   26.6963 O   0  0  0  0  0  0  0  0  0  0  0  0
    7.5029  -18.6992   24.7788 C   0  0  0  0  0  0  0  0  0  0  0  0
    7.4668  -17.2744   24.2687 C   0  0  2  0  0  0  0  0  0  0  0  0
    7.7540  -17.1909   22.8527 N   0  0  0  0  0  0  0  0  0  0  0  0
    8.4029  -16.4787   25.0823 C   0  0  0  0  0  0  0  0  0  0  0  0
    9.6595  -16.5728   25.0150 O   0  0  0  0  0  0  0  0  0  0  0  0
    6.3207  -11.6996   27.7818 C   0  0  0  0  0  0  0  0  0  0  0  0
    6.7470  -13.0994   27.5008 C   0  0  0  0  0  0  0  0  0  0  0  0
    8.0592  -13.2608   26.8000 C   0  0  2  0  0  0  0  0  0  0  0  0
    8.0113  -12.5158   25.4972 C   0  0  0  0  0  0  0  0  0  0  0  0
    8.6627  -14.6091   26.7838 C   0  0  2  0  0  0  0  0  0  0  0  0
    7.8600  -15.5468   25.9988 N   0  0  0  0  0  0  0  0  0  0  0  0
    9.0505  -15.2260   28.0504 C   0  0  0  0  0  0  0  0  0  0  0  0
    8.5355  -16.3523   28.3626 O   0  0  0  0  0  0  0  0  0  0  0  0
    9.9391  -14.7242   28.9794 O   0  0  0  0  0  0  0  0  0  0  0  0
  2  1  1  0
  3  2  2  0
  4  3  1  0
  5 11  1  0
  5  4  2  0
  6  5  1  0
  7  8  1  6
  7  6  1  0
  9  7  1  0
 10  9  2  0
 11 12  2  0
 12  2  1  0
 13 14  1  0
 14 15  2  0
 16 14  1  0
 17 16  1  1
 17 18  1  0
 18  9  1  0
 19 26  1  0
 19 17  1  0
 20 19  2  0
 22 21  1  0
 23 22  1  0
 23 24  1  6
 25 23  1  0
 25 26  1  1
 27 25  1  0
 28 27  2  0
 29 27  1  0
M  END
$$$$
