YNI.pdb
     RDKit          3D

 29 29  0  0  1  0  0  0  0  0999 V2000
   12.0107  -15.8849   32.0157 O   0  0  0  0  0  0  0  0  0  0  0  0
   11.2656  -16.1735   30.8781 C   0  0  0  0  0  0  0  0  0  0  0  0
   10.2988  -17.1446   30.8176 C   0  0  0  0  0  0  0  0  0  0  0  0
    9.5957  -17.3701   29.6344 C   0  0  0  0  0  0  0  0  0  0  0  0
    9.8370  -16.6391   28.4925 C   0  0  0  0  0  0  0  0  0  0  0  0
    9.1145  -16.8486   27.2233 C   0  0  0  0  0  0  0  0  0  0  0  0
    9.3334  -18.2628   26.6792 C   0  0  2  0  0  0  0  0  0  0  0  0
   10.7448  -18.5753   26.6465 N   0  0  0  0  0  0  0  0  0  0  0  0
    8.7015  -18.2799   25.3378 C   0  0  0  0  0  0  0  0  0  0  0  0
    9.4780  -18.3143   24.3485 O   0  0  0  0  0  0  0  0  0  0  0  0
   10.8127  -15.6586   28.5521 C   0  0  0  0  0  0  0  0  0  0  0  0
   11.5142  -15.4364   29.7384 C   0  0  0  0  0  0  0  0  0  0  0  0
    5.4695  -21.2665   23.0335 N   0  0  0  0  0  0  0  0  0  0  0  0
    5.3715  -20.2848   24.0629 C   0  0  0  0  0  0  0  0  0  0  0  0
    5.3165  -20.6786   25.2397 O   0  0  0  0  0  0  0  0  0  0  0  0
    5.3374  -18.8426   23.7446 C   0  0  0  0  0  0  0  0  0  0  0  0
    6.7533  -18.3071   23.7482 C   0  0  2  0  0  0  0  0  0  0  0  0
    7.3192  -18.2605   25.0794 N   0  0  0  0  0  0  0  0  0  0  0  0
    6.7393  -16.9867   23.0943 C   0  0  0  0  0  0  0  0  0  0  0  0
    6.2203  -16.7577   21.9671 O   0  0  0  0  0  0  0  0  0  0  0  0
    5.6943  -12.7112   26.1742 C   0  0  0  0  0  0  0  0  0  0  0  0
    5.8556  -13.6202   25.0047 C   0  0  0  0  0  0  0  0  0  0  0  0
    7.1596  -13.5321   24.2761 C   0  0  2  0  0  0  0  0  0  0  0  0
    7.4239  -12.0974   23.9210 C   0  0  0  0  0  0  0  0  0  0  0  0
    7.4293  -14.5450   23.2350 C   0  0  2  0  0  0  0  0  0  0  0  0
    7.3455  -15.9027   23.7729 N   0  0  0  0  0  0  0  0  0  0  0  0
    8.6283  -14.4102   22.4105 C   0  0  0  0  0  0  0  0  0  0  0  0
    9.5819  -15.2424   22.5811 O   0  0  0  0  0  0  0  0  0  0  0  0
    8.8608  -13.4633   21.4339 O   0  0  0  0  0  0  0  0  0  0  0  0
  2  1  1  0
  3  2  2  0
  4  3  1  0
  5 11  1  0
  5  4  2  0
  6  5  1  0
  7  8  1  6
  7  6  1  0
  9  7  1  0
 10  9  2  0
 11 12  2  0
 12  2  1  0
 13 14  1  0
 14 15  2  0
 16 14  1  0
 17 16  1  1
 17 18  1  0
 18  9  1  0
 19 26  1  0
 19 17  1  0
 20 19  2  0
 22 21  1  0
 23 22  1  0
 23 24  1  6
 25 23  1  0
 25 26  1  1
 27 25  1  0
 28 27  2  0
 29 27  1  0
M  END
$$$$
