YNI.pdb
     RDKit          3D

 29 29  0  0  1  0  0  0  0  0999 V2000
    8.4443  -12.5702   16.7580 O   0  0  0  0  0  0  0  0  0  0  0  0
    8.1621  -13.2040   17.9627 C   0  0  0  0  0  0  0  0  0  0  0  0
    8.4097  -14.5301   18.2109 C   0  0  0  0  0  0  0  0  0  0  0  0
    8.0960  -15.0885   19.4498 C   0  0  0  0  0  0  0  0  0  0  0  0
    7.5329  -14.3449   20.4629 C   0  0  0  0  0  0  0  0  0  0  0  0
    7.1873  -14.8999   21.7855 C   0  0  0  0  0  0  0  0  0  0  0  0
    7.0651  -16.4254   21.7400 C   0  0  2  0  0  0  0  0  0  0  0  0
    5.7189  -16.8107   21.3795 N   0  0  0  0  0  0  0  0  0  0  0  0
    7.4669  -16.9014   23.0856 C   0  0  0  0  0  0  0  0  0  0  0  0
    6.5731  -16.9111   23.9711 O   0  0  0  0  0  0  0  0  0  0  0  0
    7.2823  -13.0062   20.2138 C   0  0  0  0  0  0  0  0  0  0  0  0
    7.5977  -12.4515   18.9722 C   0  0  0  0  0  0  0  0  0  0  0  0
   12.2882  -18.5864   23.8104 N   0  0  0  0  0  0  0  0  0  0  0  0
   10.9062  -18.9066   23.6670 C   0  0  0  0  0  0  0  0  0  0  0  0
   10.4817  -19.1565   22.5267 O   0  0  0  0  0  0  0  0  0  0  0  0
   10.0034  -18.9424   24.8358 C   0  0  0  0  0  0  0  0  0  0  0  0
    9.1115  -17.7197   24.8029 C   0  0  2  0  0  0  0  0  0  0  0  0
    8.7519  -17.3389   23.4537 N   0  0  0  0  0  0  0  0  0  0  0  0
    9.7991  -16.6384   25.5303 C   0  0  0  0  0  0  0  0  0  0  0  0
   10.0834  -15.5150   25.0306 O   0  0  0  0  0  0  0  0  0  0  0  0
    8.7462  -12.7550   26.3299 C   0  0  0  0  0  0  0  0  0  0  0  0
    9.6466  -13.9409   26.3878 C   0  0  0  0  0  0  0  0  0  0  0  0
    9.7474  -14.6280   27.7132 C   0  0  2  0  0  0  0  0  0  0  0  0
    9.9062  -13.5923   28.7886 C   0  0  0  0  0  0  0  0  0  0  0  0
   10.6092  -15.8250   27.7975 C   0  0  2  0  0  0  0  0  0  0  0  0
   10.1647  -16.8718   26.8775 N   0  0  0  0  0  0  0  0  0  0  0  0
   10.8907  -16.4031   29.1096 C   0  0  0  0  0  0  0  0  0  0  0  0
   10.1128  -17.3132   29.5543 O   0  0  0  0  0  0  0  0  0  0  0  0
   11.9331  -16.0770   29.9530 O   0  0  0  0  0  0  0  0  0  0  0  0
  2  1  1  0
  3  2  2  0
  4  3  1  0
  5 11  1  0
  5  4  2  0
  6  5  1  0
  7  8  1  1
  7  6  1  0
  9  7  1  0
 10  9  2  0
 11 12  2  0
 12  2  1  0
 13 14  1  0
 14 15  2  0
 16 14  1  0
 17 16  1  6
 17 18  1  0
 18  9  1  0
 19 26  1  0
 19 17  1  0
 20 19  2  0
 22 21  1  0
 23 22  1  0
 23 24  1  1
 25 23  1  0
 25 26  1  6
 27 25  1  0
 28 27  2  0
 29 27  1  0
M  END
$$$$
