YNI.pdb
     RDKit          3D

 29 29  0  0  1  0  0  0  0  0999 V2000
    9.2996  -11.3865   17.7953 O   0  0  0  0  0  0  0  0  0  0  0  0
    8.7447  -12.2953   18.6892 C   0  0  0  0  0  0  0  0  0  0  0  0
    9.4714  -13.0237   19.5962 C   0  0  0  0  0  0  0  0  0  0  0  0
    8.8353  -13.9157   20.4593 C   0  0  0  0  0  0  0  0  0  0  0  0
    7.4709  -14.1015   20.4395 C   0  0  0  0  0  0  0  0  0  0  0  0
    6.7629  -15.0353   21.3358 C   0  0  0  0  0  0  0  0  0  0  0  0
    7.2410  -16.4761   21.1372 C   0  0  2  0  0  0  0  0  0  0  0  0
    6.1757  -17.2880   20.5925 N   0  0  0  0  0  0  0  0  0  0  0  0
    7.7001  -16.9350   22.4703 C   0  0  0  0  0  0  0  0  0  0  0  0
    6.8119  -17.3360   23.2661 O   0  0  0  0  0  0  0  0  0  0  0  0
    6.7361  -13.3670   19.5244 C   0  0  0  0  0  0  0  0  0  0  0  0
    7.3770  -12.4755   18.6622 C   0  0  0  0  0  0  0  0  0  0  0  0
    9.2850  -20.6070   23.9500 N   0  0  0  0  0  0  0  0  0  0  0  0
   10.0454  -19.5228   23.4215 C   0  0  0  0  0  0  0  0  0  0  0  0
   10.3293  -19.5456   22.2124 O   0  0  0  0  0  0  0  0  0  0  0  0
   10.4833  -18.4040   24.2811 C   0  0  0  0  0  0  0  0  0  0  0  0
    9.4190  -17.3276   24.2632 C   0  0  2  0  0  0  0  0  0  0  0  0
    9.0332  -16.9595   22.9178 N   0  0  0  0  0  0  0  0  0  0  0  0
    9.9222  -16.1809   25.0399 C   0  0  0  0  0  0  0  0  0  0  0  0
   11.0405  -15.6288   24.8478 O   0  0  0  0  0  0  0  0  0  0  0  0
    6.6372  -12.1550   25.9277 C   0  0  0  0  0  0  0  0  0  0  0  0
    7.7828  -13.0969   25.7837 C   0  0  0  0  0  0  0  0  0  0  0  0
    8.4327  -13.5438   27.0553 C   0  0  2  0  0  0  0  0  0  0  0  0
    8.7213  -12.3398   27.9048 C   0  0  0  0  0  0  0  0  0  0  0  0
    9.4920  -14.5688   26.9566 C   0  0  2  0  0  0  0  0  0  0  0  0
    9.0992  -15.6624   26.0679 N   0  0  0  0  0  0  0  0  0  0  0  0
   10.0697  -15.1097   28.1850 C   0  0  0  0  0  0  0  0  0  0  0  0
    9.6952  -16.2662   28.5769 O   0  0  0  0  0  0  0  0  0  0  0  0
   11.0059  -14.5038   28.9978 O   0  0  0  0  0  0  0  0  0  0  0  0
  2  1  1  0
  3  2  2  0
  4  3  1  0
  5 11  1  0
  5  4  2  0
  6  5  1  0
  7  8  1  1
  7  6  1  0
  9  7  1  0
 10  9  2  0
 11 12  2  0
 12  2  1  0
 13 14  1  0
 14 15  2  0
 16 14  1  0
 17 16  1  6
 17 18  1  0
 18  9  1  0
 19 26  1  0
 19 17  1  0
 20 19  2  0
 22 21  1  0
 23 22  1  0
 23 24  1  6
 25 23  1  0
 25 26  1  1
 27 25  1  0
 28 27  2  0
 29 27  1  0
M  END
$$$$
