YNI.pdb
     RDKit          3D

 29 29  0  0  1  0  0  0  0  0999 V2000
    7.9170  -12.1293   16.5082 O   0  0  0  0  0  0  0  0  0  0  0  0
    7.9724  -12.8024   17.7233 C   0  0  0  0  0  0  0  0  0  0  0  0
    9.1260  -13.2957   18.2776 C   0  0  0  0  0  0  0  0  0  0  0  0
    9.0941  -13.9599   19.5035 C   0  0  0  0  0  0  0  0  0  0  0  0
    7.9213  -14.1468   20.2009 C   0  0  0  0  0  0  0  0  0  0  0  0
    7.8478  -14.8439   21.4991 C   0  0  0  0  0  0  0  0  0  0  0  0
    8.2392  -16.3182   21.3680 C   0  0  2  0  0  0  0  0  0  0  0  0
    7.1574  -17.0741   20.7771 N   0  0  0  0  0  0  0  0  0  0  0  0
    8.5825  -16.7667   22.7390 C   0  0  0  0  0  0  0  0  0  0  0  0
    7.6292  -16.8755   23.5528 O   0  0  0  0  0  0  0  0  0  0  0  0
    6.7561  -13.6496   19.6425 C   0  0  0  0  0  0  0  0  0  0  0  0
    6.7927  -12.9856   18.4151 C   0  0  0  0  0  0  0  0  0  0  0  0
    9.9248  -19.7231   23.1845 N   0  0  0  0  0  0  0  0  0  0  0  0
   11.1192  -19.5555   23.9449 C   0  0  0  0  0  0  0  0  0  0  0  0
   11.9435  -20.4849   23.9466 O   0  0  0  0  0  0  0  0  0  0  0  0
   11.3737  -18.3163   24.7077 C   0  0  0  0  0  0  0  0  0  0  0  0
   10.1693  -17.4079   24.5814 C   0  0  2  0  0  0  0  0  0  0  0  0
    9.8730  -17.0777   23.2038 N   0  0  0  0  0  0  0  0  0  0  0  0
   10.4152  -16.2131   25.4079 C   0  0  0  0  0  0  0  0  0  0  0  0
   11.3307  -15.3731   25.1876 O   0  0  0  0  0  0  0  0  0  0  0  0
    6.8595  -12.6834   26.0730 C   0  0  0  0  0  0  0  0  0  0  0  0
    8.0857  -13.5299   26.0805 C   0  0  0  0  0  0  0  0  0  0  0  0
    8.5797  -13.9629   27.4250 C   0  0  2  0  0  0  0  0  0  0  0  0
    8.6235  -12.7699   28.3358 C   0  0  0  0  0  0  0  0  0  0  0  0
    9.7344  -14.8835   27.4637 C   0  0  2  0  0  0  0  0  0  0  0  0
    9.5702  -15.9900   26.5212 N   0  0  0  0  0  0  0  0  0  0  0  0
   10.1892  -15.3940   28.7552 C   0  0  0  0  0  0  0  0  0  0  0  0
    9.9121  -16.6017   29.0650 O   0  0  0  0  0  0  0  0  0  0  0  0
   10.9101  -14.7075   29.7109 O   0  0  0  0  0  0  0  0  0  0  0  0
  2  1  1  0
  3  2  2  0
  4  3  1  0
  5 11  1  0
  5  4  2  0
  6  5  1  0
  7  8  1  1
  7  6  1  0
  9  7  1  0
 10  9  2  0
 11 12  2  0
 12  2  1  0
 13 14  1  0
 14 15  2  0
 16 14  1  0
 17 16  1  6
 17 18  1  0
 18  9  1  0
 19 26  1  0
 19 17  1  0
 20 19  2  0
 22 21  1  0
 23 22  1  0
 23 24  1  1
 25 23  1  0
 25 26  1  6
 27 25  1  0
 28 27  2  0
 29 27  1  0
M  END
$$$$
