YNI.pdb
     RDKit          3D

 29 29  0  0  1  0  0  0  0  0999 V2000
    8.6989  -12.1090   17.2329 O   0  0  0  0  0  0  0  0  0  0  0  0
    8.4234  -12.8425   18.3813 C   0  0  0  0  0  0  0  0  0  0  0  0
    9.3823  -13.4235   19.1715 C   0  0  0  0  0  0  0  0  0  0  0  0
    9.0200  -14.1440   20.3093 C   0  0  0  0  0  0  0  0  0  0  0  0
    7.7041  -14.3012   20.6841 C   0  0  0  0  0  0  0  0  0  0  0  0
    7.2823  -15.0557   21.8797 C   0  0  0  0  0  0  0  0  0  0  0  0
    7.5042  -16.5601   21.7019 C   0  0  2  0  0  0  0  0  0  0  0  0
    6.6201  -17.0811   20.6832 N   0  0  0  0  0  0  0  0  0  0  0  0
    7.2729  -17.1615   23.0374 C   0  0  0  0  0  0  0  0  0  0  0  0
    6.0947  -17.5159   23.3004 O   0  0  0  0  0  0  0  0  0  0  0  0
    6.7352  -13.7154   19.8874 C   0  0  0  0  0  0  0  0  0  0  0  0
    7.1024  -12.9954   18.7491 C   0  0  0  0  0  0  0  0  0  0  0  0
    7.9956  -20.3649   27.3244 N   0  0  0  0  0  0  0  0  0  0  0  0
    8.8198  -19.2054   27.2276 C   0  0  0  0  0  0  0  0  0  0  0  0
    9.2227  -18.6877   28.2825 O   0  0  0  0  0  0  0  0  0  0  0  0
    9.1869  -18.6344   25.9156 C   0  0  0  0  0  0  0  0  0  0  0  0
    7.9703  -17.9612   25.3171 C   0  0  2  0  0  0  0  0  0  0  0  0
    8.2503  -17.3672   24.0275 N   0  0  0  0  0  0  0  0  0  0  0  0
    7.4704  -16.9784   26.2946 C   0  0  0  0  0  0  0  0  0  0  0  0
    7.2909  -17.2230   27.5195 O   0  0  0  0  0  0  0  0  0  0  0  0
   10.2007  -12.9842   28.1856 C   0  0  0  0  0  0  0  0  0  0  0  0
    9.0638  -13.2013   27.2473 C   0  0  0  0  0  0  0  0  0  0  0  0
    8.1160  -14.3030   27.6038 C   0  0  2  0  0  0  0  0  0  0  0  0
    8.9059  -15.5122   28.0141 C   0  0  0  0  0  0  0  0  0  0  0  0
    6.9599  -14.5241   26.7110 C   0  0  2  0  0  0  0  0  0  0  0  0
    7.1726  -15.6742   25.8326 N   0  0  0  0  0  0  0  0  0  0  0  0
    6.4368  -13.3990   25.9390 C   0  0  0  0  0  0  0  0  0  0  0  0
    6.5958  -13.4032   24.6718 O   0  0  0  0  0  0  0  0  0  0  0  0
    5.7653  -12.2977   26.4294 O   0  0  0  0  0  0  0  0  0  0  0  0
  2  1  1  0
  3  2  2  0
  4  3  1  0
  5 11  1  0
  5  4  2  0
  6  5  1  0
  7  8  1  6
  7  6  1  0
  9  7  1  0
 10  9  2  0
 11 12  2  0
 12  2  1  0
 13 14  1  0
 14 15  2  0
 16 14  1  0
 17 16  1  1
 17 18  1  0
 18  9  1  0
 19 26  1  0
 19 17  1  0
 20 19  2  0
 22 21  1  0
 23 22  1  0
 23 24  1  6
 25 23  1  0
 25 26  1  6
 27 25  1  0
 28 27  2  0
 29 27  1  0
M  END
$$$$
