PPK.pdb
     RDKit          3D

 24 25  0  0  1  0  0  0  0  0999 V2000
   28.1559  -20.4302  -15.1653 N   0  0  0  0  0  0  0  0  0  0  0  0
   27.7863  -19.5018  -16.1867 C   0  0  0  0  0  0  0  0  0  0  0  0
   27.6373  -18.1533  -15.5213 C   0  0  0  0  0  0  0  0  0  0  0  0
   27.4206  -18.5217  -14.0888 C   0  0  0  0  0  0  0  0  0  0  0  0
   27.5972  -19.9893  -13.9126 C   0  0  1  0  0  0  0  0  0  0  0  0
   26.3053  -20.6873  -13.6105 C   0  0  0  0  0  0  0  0  0  0  0  0
   25.6152  -21.0116  -14.5958 O   0  0  0  0  0  0  0  0  0  0  0  0
   25.8815  -20.9676  -12.3062 N   0  0  0  0  0  0  0  0  0  0  0  0
   26.8219  -21.5498  -11.3086 C   0  0  0  0  0  0  0  0  0  0  0  0
   26.6344  -20.5178  -10.2081 C   0  0  0  0  0  0  0  0  0  0  0  0
   25.2036  -19.9791  -10.3832 C   0  0  0  0  0  0  0  0  0  0  0  0
   24.7311  -20.8654  -11.5267 C   0  0  1  0  0  0  0  0  0  0  0  0
   23.4575  -20.4752  -12.0773 C   0  0  0  0  0  0  0  0  0  0  0  0
   23.1072  -19.2824  -12.1317 O   0  0  0  0  0  0  0  0  0  0  0  0
   22.5154  -21.4284  -12.5955 N   0  0  0  0  0  0  0  0  0  0  0  0
   21.2349  -21.0918  -13.1702 C   0  0  1  0  0  0  0  0  0  0  0  0
   20.7786  -22.0333  -14.2085 C   0  0  0  0  0  0  0  0  0  0  0  0
   19.5145  -21.7445  -14.9217 C   0  0  0  0  0  0  0  0  0  0  0  0
   19.0708  -22.8211  -15.8747 C   0  0  0  0  0  0  0  0  0  0  0  0
   17.7857  -22.4028  -16.5598 C   0  0  0  0  0  0  0  0  0  0  0  0
   17.3464  -23.4931  -17.4231 N   0  0  0  0  0  0  0  0  0  0  0  0
   20.1967  -20.8715  -12.1424 C   0  0  0  0  0  0  0  0  0  0  0  0
   19.2154  -19.9235  -12.3679 O   0  0  0  0  0  0  0  0  0  0  0  0
   20.1158  -21.4813  -11.0455 O   0  0  0  0  0  0  0  0  0  0  0  0
  1  2  1  0
  3  2  1  0
  4  5  1  0
  4  3  1  0
  5  1  1  0
  6  7  2  0
  5  6  1  6
  8  6  1  0
  9  8  1  0
 10  9  1  0
 11 10  1  0
 11 12  1  0
 12  8  1  0
 12 13  1  6
 14 13  2  0
 15 13  1  0
 16 22  1  0
 16 15  1  0
 17 18  1  0
 16 17  1  6
 18 19  1  0
 20 19  1  0
 20 21  1  0
 22 23  1  0
 24 22  2  0
M  END
$$$$
