PPK.pdb
     RDKit          3D

 24 25  0  0  1  0  0  0  0  0999 V2000
   28.2553  -20.7560  -14.7838 N   0  0  0  0  0  0  0  0  0  0  0  0
   27.9560  -19.8942  -15.8836 C   0  0  0  0  0  0  0  0  0  0  0  0
   27.7613  -18.5078  -15.3148 C   0  0  0  0  0  0  0  0  0  0  0  0
   27.4475  -18.7879  -13.8804 C   0  0  0  0  0  0  0  0  0  0  0  0
   27.6122  -20.2409  -13.6018 C   0  0  1  0  0  0  0  0  0  0  0  0
   26.3029  -20.9249  -13.3458 C   0  0  0  0  0  0  0  0  0  0  0  0
   25.7269  -21.3956  -14.3452 O   0  0  0  0  0  0  0  0  0  0  0  0
   25.7438  -21.0388  -12.0676 N   0  0  0  0  0  0  0  0  0  0  0  0
   26.5942  -21.3743  -10.8917 C   0  0  0  0  0  0  0  0  0  0  0  0
   26.2005  -20.2068  -10.0011 C   0  0  0  0  0  0  0  0  0  0  0  0
   24.7672  -19.8319  -10.4171 C   0  0  0  0  0  0  0  0  0  0  0  0
   24.5024  -20.9219  -11.4457 C   0  0  1  0  0  0  0  0  0  0  0  0
   23.2812  -20.7367  -12.1885 C   0  0  0  0  0  0  0  0  0  0  0  0
   23.0947  -19.7322  -12.8990 O   0  0  0  0  0  0  0  0  0  0  0  0
   22.2069  -21.6904  -12.1588 N   0  0  0  0  0  0  0  0  0  0  0  0
   20.9421  -21.5275  -12.8349 C   0  0  1  0  0  0  0  0  0  0  0  0
   20.0931  -22.7323  -12.8150 C   0  0  0  0  0  0  0  0  0  0  0  0
   18.7999  -22.7007  -13.5339 C   0  0  0  0  0  0  0  0  0  0  0  0
   17.9598  -23.9383  -13.3704 C   0  0  0  0  0  0  0  0  0  0  0  0
   16.6454  -23.7674  -14.1045 C   0  0  0  0  0  0  0  0  0  0  0  0
   15.7854  -24.9002  -13.7818 N   0  0  0  0  0  0  0  0  0  0  0  0
   20.2041  -20.3352  -12.3695 C   0  0  0  0  0  0  0  0  0  0  0  0
   20.3125  -19.9496  -11.0458 O   0  0  0  0  0  0  0  0  0  0  0  0
   19.4614  -19.6131  -13.0827 O   0  0  0  0  0  0  0  0  0  0  0  0
  1  2  1  0
  3  2  1  0
  4  5  1  0
  4  3  1  0
  5  1  1  0
  6  7  2  0
  5  6  1  6
  8  6  1  0
  9  8  1  0
 10  9  1  0
 11 10  1  0
 11 12  1  0
 12  8  1  0
 12 13  1  6
 14 13  2  0
 15 13  1  0
 16 22  1  0
 16 15  1  0
 17 18  1  0
 16 17  1  1
 18 19  1  0
 20 19  1  0
 20 21  1  0
 22 23  1  0
 24 22  2  0
M  END
$$$$
