PPK.pdb
     RDKit          3D

 24 25  0  0  1  0  0  0  0  0999 V2000
   23.2883  -14.6044  -19.1399 N   0  0  0  0  0  0  0  0  0  0  0  0
   21.8694  -14.7501  -19.2259 C   0  0  0  0  0  0  0  0  0  0  0  0
   21.2965  -14.2459  -17.9217 C   0  0  0  0  0  0  0  0  0  0  0  0
   22.4661  -14.3425  -16.9958 C   0  0  0  0  0  0  0  0  0  0  0  0
   23.6848  -14.7253  -17.7600 C   0  0  1  0  0  0  0  0  0  0  0  0
   24.1459  -16.1155  -17.4400 C   0  0  0  0  0  0  0  0  0  0  0  0
   23.6134  -17.0326  -18.0939 O   0  0  0  0  0  0  0  0  0  0  0  0
   25.1157  -16.3882  -16.4683 N   0  0  0  0  0  0  0  0  0  0  0  0
   26.3367  -15.5429  -16.3528 C   0  0  0  0  0  0  0  0  0  0  0  0
   26.2195  -15.1957  -14.8773 C   0  0  0  0  0  0  0  0  0  0  0  0
   25.4738  -16.3764  -14.2308 C   0  0  0  0  0  0  0  0  0  0  0  0
   25.3489  -17.2959  -15.4372 C   0  0  1  0  0  0  0  0  0  0  0  0
   24.5035  -18.4411  -15.2108 C   0  0  0  0  0  0  0  0  0  0  0  0
   23.3295  -18.3187  -14.8166 O   0  0  0  0  0  0  0  0  0  0  0  0
   24.9550  -19.7886  -15.4231 N   0  0  0  0  0  0  0  0  0  0  0  0
   24.1862  -20.9720  -15.1205 C   0  0  1  0  0  0  0  0  0  0  0  0
   24.8228  -22.2275  -15.5579 C   0  0  0  0  0  0  0  0  0  0  0  0
   24.0170  -23.4688  -15.5579 C   0  0  0  0  0  0  0  0  0  0  0  0
   24.7955  -24.7230  -15.8497 C   0  0  0  0  0  0  0  0  0  0  0  0
   23.8555  -25.9103  -15.9020 C   0  0  0  0  0  0  0  0  0  0  0  0
   24.6218  -27.0895  -16.2884 N   0  0  0  0  0  0  0  0  0  0  0  0
   23.7825  -21.0337  -13.7006 C   0  0  0  0  0  0  0  0  0  0  0  0
   22.5910  -21.6501  -13.3648 O   0  0  0  0  0  0  0  0  0  0  0  0
   24.4376  -20.5638  -12.7353 O   0  0  0  0  0  0  0  0  0  0  0  0
  1  2  1  0
  3  2  1  0
  4  5  1  0
  4  3  1  0
  5  1  1  0
  6  7  2  0
  5  6  1  1
  8  6  1  0
  9  8  1  0
 10  9  1  0
 11 10  1  0
 11 12  1  0
 12  8  1  0
 12 13  1  1
 14 13  2  0
 15 13  1  0
 16 22  1  0
 16 15  1  0
 17 18  1  0
 16 17  1  1
 18 19  1  0
 20 19  1  0
 20 21  1  0
 22 23  1  0
 24 22  2  0
M  END
$$$$
