PPK.pdb
     RDKit          3D

 24 25  0  0  1  0  0  0  0  0999 V2000
   25.7505  -19.8713  -17.9480 N   0  0  0  0  0  0  0  0  0  0  0  0
   25.5226  -21.0518  -18.7202 C   0  0  0  0  0  0  0  0  0  0  0  0
   24.3709  -20.7519  -19.6513 C   0  0  0  0  0  0  0  0  0  0  0  0
   23.6950  -19.6052  -18.9709 C   0  0  0  0  0  0  0  0  0  0  0  0
   24.5036  -19.1644  -17.8013 C   0  0  1  0  0  0  0  0  0  0  0  0
   23.8401  -19.4845  -16.4956 C   0  0  0  0  0  0  0  0  0  0  0  0
   24.1210  -20.5907  -15.9959 O   0  0  0  0  0  0  0  0  0  0  0  0
   22.9549  -18.6066  -15.8592 N   0  0  0  0  0  0  0  0  0  0  0  0
   23.2380  -17.1452  -15.8066 C   0  0  0  0  0  0  0  0  0  0  0  0
   21.9245  -16.6503  -16.3907 C   0  0  0  0  0  0  0  0  0  0  0  0
   20.8777  -17.7157  -16.0205 C   0  0  0  0  0  0  0  0  0  0  0  0
   21.7400  -18.6446  -15.1780 C   0  0  1  0  0  0  0  0  0  0  0  0
   21.0903  -19.8823  -14.8265 C   0  0  0  0  0  0  0  0  0  0  0  0
   20.7292  -20.6995  -15.6927 O   0  0  0  0  0  0  0  0  0  0  0  0
   20.8183  -20.2524  -13.4650 N   0  0  0  0  0  0  0  0  0  0  0  0
   20.1029  -21.4392  -13.0614 C   0  0  1  0  0  0  0  0  0  0  0  0
   20.1277  -21.6881  -11.6087 C   0  0  0  0  0  0  0  0  0  0  0  0
   19.4761  -22.9103  -11.0874 C   0  0  0  0  0  0  0  0  0  0  0  0
   19.3799  -22.9798   -9.5874 C   0  0  0  0  0  0  0  0  0  0  0  0
   18.6275  -24.2298   -9.1784 C   0  0  0  0  0  0  0  0  0  0  0  0
   18.5876  -24.2892   -7.7218 N   0  0  0  0  0  0  0  0  0  0  0  0
   18.7259  -21.4757  -13.5954 C   0  0  0  0  0  0  0  0  0  0  0  0
   18.2435  -22.6538  -14.1357 O   0  0  0  0  0  0  0  0  0  0  0  0
   17.9230  -20.5078  -13.6082 O   0  0  0  0  0  0  0  0  0  0  0  0
  1  2  1  0
  3  2  1  0
  4  5  1  0
  4  3  1  0
  5  1  1  0
  6  7  2  0
  5  6  1  1
  8  6  1  0
  9  8  1  0
 10  9  1  0
 11 10  1  0
 11 12  1  0
 12  8  1  0
 12 13  1  6
 14 13  2  0
 15 13  1  0
 16 22  1  0
 16 15  1  0
 17 18  1  0
 16 17  1  1
 18 19  1  0
 20 19  1  0
 20 21  1  0
 22 23  1  0
 24 22  2  0
M  END
$$$$
