PPK.pdb
     RDKit          3D

 24 25  0  0  1  0  0  0  0  0999 V2000
   19.2950  -10.2756  -15.9499 N   0  0  0  0  0  0  0  0  0  0  0  0
   18.0833  -10.3182  -16.7061 C   0  0  0  0  0  0  0  0  0  0  0  0
   17.8914   -8.9445  -17.3057 C   0  0  0  0  0  0  0  0  0  0  0  0
   18.7301   -8.0836  -16.4168 C   0  0  0  0  0  0  0  0  0  0  0  0
   19.4902   -8.9345  -15.4607 C   0  0  1  0  0  0  0  0  0  0  0  0
   19.0009   -8.7865  -14.0514 C   0  0  0  0  0  0  0  0  0  0  0  0
   17.8970   -9.3055  -13.7982 O   0  0  0  0  0  0  0  0  0  0  0  0
   19.7260   -8.1095  -13.0639 N   0  0  0  0  0  0  0  0  0  0  0  0
   21.1987   -8.2943  -12.9392 C   0  0  0  0  0  0  0  0  0  0  0  0
   21.6053   -6.8306  -13.0002 C   0  0  0  0  0  0  0  0  0  0  0  0
   20.4108   -6.0437  -12.4328 C   0  0  0  0  0  0  0  0  0  0  0  0
   19.5059   -7.1998  -12.0316 C   0  0  1  0  0  0  0  0  0  0  0  0
   18.1828   -6.7913  -11.6316 C   0  0  0  0  0  0  0  0  0  0  0  0
   17.4697   -6.0800  -12.3625 O   0  0  0  0  0  0  0  0  0  0  0  0
   17.6035   -7.1742  -10.3736 N   0  0  0  0  0  0  0  0  0  0  0  0
   16.2931   -6.7784   -9.9159 C   0  0  1  0  0  0  0  0  0  0  0  0
   15.5098   -7.8763   -9.3212 C   0  0  0  0  0  0  0  0  0  0  0  0
   14.1304   -7.5966   -8.8639 C   0  0  0  0  0  0  0  0  0  0  0  0
   13.4134   -8.7790   -8.2706 C   0  0  0  0  0  0  0  0  0  0  0  0
   12.0141   -8.3745   -7.8530 C   0  0  0  0  0  0  0  0  0  0  0  0
   11.2923   -9.5713   -7.4364 N   0  0  0  0  0  0  0  0  0  0  0  0
   16.3396   -5.6001   -9.0258 C   0  0  0  0  0  0  0  0  0  0  0  0
   15.3330   -4.6551   -9.1053 O   0  0  0  0  0  0  0  0  0  0  0  0
   17.2354   -5.3637   -8.1753 O   0  0  0  0  0  0  0  0  0  0  0  0
  1  2  1  0
  3  2  1  0
  4  5  1  0
  4  3  1  0
  5  1  1  0
  6  7  2  0
  5  6  1  1
  8  6  1  0
  9  8  1  0
 10  9  1  0
 11 10  1  0
 11 12  1  0
 12  8  1  0
 12 13  1  6
 14 13  2  0
 15 13  1  0
 16 22  1  0
 16 15  1  0
 17 18  1  0
 16 17  1  1
 18 19  1  0
 20 19  1  0
 20 21  1  0
 22 23  1  0
 24 22  2  0
M  END
$$$$
