PPK.pdb
     RDKit          3D

 24 25  0  0  1  0  0  0  0  0999 V2000
   23.8630  -19.8202  -15.7414 N   0  0  0  0  0  0  0  0  0  0  0  0
   22.7047  -19.4777  -16.5049 C   0  0  0  0  0  0  0  0  0  0  0  0
   21.9945  -18.3750  -15.7545 C   0  0  0  0  0  0  0  0  0  0  0  0
   22.5187  -18.5402  -14.3643 C   0  0  0  0  0  0  0  0  0  0  0  0
   23.5909  -19.5727  -14.3483 C   0  0  1  0  0  0  0  0  0  0  0  0
   23.1676  -20.8242  -13.6398 C   0  0  0  0  0  0  0  0  0  0  0  0
   22.5264  -21.6478  -14.3201 O   0  0  0  0  0  0  0  0  0  0  0  0
   23.4650  -21.0720  -12.2947 N   0  0  0  0  0  0  0  0  0  0  0  0
   24.7516  -20.6113  -11.7020 C   0  0  0  0  0  0  0  0  0  0  0  0
   24.1812  -19.8397  -10.5227 C   0  0  0  0  0  0  0  0  0  0  0  0
   22.8455  -20.5251  -10.1848 C   0  0  0  0  0  0  0  0  0  0  0  0
   22.8852  -21.6753  -11.1806 C   0  0  1  0  0  0  0  0  0  0  0  0
   21.6534  -22.4196  -11.2592 C   0  0  0  0  0  0  0  0  0  0  0  0
   21.5890  -23.5164  -11.8437 O   0  0  0  0  0  0  0  0  0  0  0  0
   20.4283  -21.9498  -10.6735 N   0  0  0  0  0  0  0  0  0  0  0  0
   19.1172  -22.4715  -10.9770 C   0  0  1  0  0  0  0  0  0  0  0  0
   18.3059  -22.7817   -9.7861 C   0  0  0  0  0  0  0  0  0  0  0  0
   18.8001  -23.8049   -8.8381 C   0  0  0  0  0  0  0  0  0  0  0  0
   17.9243  -24.0206   -7.6337 C   0  0  0  0  0  0  0  0  0  0  0  0
   18.4740  -25.1572   -6.7959 C   0  0  0  0  0  0  0  0  0  0  0  0
   17.6790  -25.2594   -5.5775 N   0  0  0  0  0  0  0  0  0  0  0  0
   18.3784  -21.6183  -11.9304 C   0  0  0  0  0  0  0  0  0  0  0  0
   17.4227  -22.1927  -12.7483 O   0  0  0  0  0  0  0  0  0  0  0  0
   18.5398  -20.3796  -12.0768 O   0  0  0  0  0  0  0  0  0  0  0  0
  1  2  1  0
  3  2  1  0
  4  5  1  0
  4  3  1  0
  5  1  1  0
  6  7  2  0
  5  6  1  6
  8  6  1  0
  9  8  1  0
 10  9  1  0
 11 10  1  0
 11 12  1  0
 12  8  1  0
 12 13  1  6
 14 13  2  0
 15 13  1  0
 16 22  1  0
 16 15  1  0
 17 18  1  0
 16 17  1  1
 18 19  1  0
 20 19  1  0
 20 21  1  0
 22 23  1  0
 24 22  2  0
M  END
$$$$
