PPK.pdb
     RDKit          3D

 24 25  0  0  1  0  0  0  0  0999 V2000
   13.9075  -23.6357    0.3100 N   0  0  0  0  0  0  0  0  0  0  0  0
   13.3349  -22.9507   -0.8057 C   0  0  0  0  0  0  0  0  0  0  0  0
   14.4315  -22.1069   -1.4129 C   0  0  0  0  0  0  0  0  0  0  0  0
   15.4008  -21.9741   -0.2827 C   0  0  0  0  0  0  0  0  0  0  0  0
   14.9668  -22.8270    0.8576 C   0  0  1  0  0  0  0  0  0  0  0  0
   14.4926  -22.0180    2.0273 C   0  0  0  0  0  0  0  0  0  0  0  0
   13.3749  -21.4815    1.9042 O   0  0  0  0  0  0  0  0  0  0  0  0
   15.2453  -21.8624    3.1970 N   0  0  0  0  0  0  0  0  0  0  0  0
   15.9631  -23.0198    3.8003 C   0  0  0  0  0  0  0  0  0  0  0  0
   17.3491  -22.3992    3.8735 C   0  0  0  0  0  0  0  0  0  0  0  0
   17.1189  -20.8842    4.0140 C   0  0  0  0  0  0  0  0  0  0  0  0
   15.5995  -20.8595    4.0972 C   0  0  1  0  0  0  0  0  0  0  0  0
   15.0350  -19.5346    4.0382 C   0  0  0  0  0  0  0  0  0  0  0  0
   15.3595  -18.7252    3.1504 O   0  0  0  0  0  0  0  0  0  0  0  0
   14.0688  -19.0635    4.9917 N   0  0  0  0  0  0  0  0  0  0  0  0
   13.4401  -17.7648    4.9540 C   0  0  1  0  0  0  0  0  0  0  0  0
   11.9755  -17.8038    5.1156 C   0  0  0  0  0  0  0  0  0  0  0  0
   11.2109  -16.5465    4.9586 C   0  0  0  0  0  0  0  0  0  0  0  0
    9.7183  -16.7009    5.0699 C   0  0  0  0  0  0  0  0  0  0  0  0
    9.0386  -15.3962    4.7070 C   0  0  0  0  0  0  0  0  0  0  0  0
    7.5965  -15.6138    4.6970 N   0  0  0  0  0  0  0  0  0  0  0  0
   14.0648  -16.8092    5.8918 C   0  0  0  0  0  0  0  0  0  0  0  0
   14.8414  -17.2927    6.9290 O   0  0  0  0  0  0  0  0  0  0  0  0
   13.9550  -15.5576    5.8381 O   0  0  0  0  0  0  0  0  0  0  0  0
  1  2  1  0
  3  2  1  0
  4  5  1  0
  4  3  1  0
  5  1  1  0
  6  7  2  0
  5  6  1  1
  8  6  1  0
  9  8  1  0
 10  9  1  0
 11 10  1  0
 11 12  1  0
 12  8  1  0
 12 13  1  6
 14 13  2  0
 15 13  1  0
 16 22  1  0
 16 15  1  0
 17 18  1  0
 16 17  1  1
 18 19  1  0
 20 19  1  0
 20 21  1  0
 22 23  1  0
 24 22  2  0
M  END
$$$$
