PPK.pdb
     RDKit          3D

 24 25  0  0  1  0  0  0  0  0999 V2000
   28.5127  -20.0994  -16.8010 N   0  0  0  0  0  0  0  0  0  0  0  0
   27.7994  -18.9545  -17.2723 C   0  0  0  0  0  0  0  0  0  0  0  0
   28.4039  -17.7491  -16.5904 C   0  0  0  0  0  0  0  0  0  0  0  0
   29.0621  -18.3521  -15.3913 C   0  0  0  0  0  0  0  0  0  0  0  0
   28.9812  -19.8368  -15.4640 C   0  0  1  0  0  0  0  0  0  0  0  0
   28.0542  -20.4089  -14.4341 C   0  0  0  0  0  0  0  0  0  0  0  0
   26.8493  -20.4547  -14.7477 O   0  0  0  0  0  0  0  0  0  0  0  0
   28.4960  -20.8699  -13.1885 N   0  0  0  0  0  0  0  0  0  0  0  0
   29.7834  -21.6083  -13.0627 C   0  0  0  0  0  0  0  0  0  0  0  0
   30.4222  -20.7455  -11.9861 C   0  0  0  0  0  0  0  0  0  0  0  0
   29.2529  -20.1622  -11.1733 C   0  0  0  0  0  0  0  0  0  0  0  0
   28.0874  -20.8631  -11.8564 C   0  0  1  0  0  0  0  0  0  0  0  0
   26.7944  -20.3744  -11.4479 C   0  0  0  0  0  0  0  0  0  0  0  0
   26.5953  -19.1680  -11.2163 O   0  0  0  0  0  0  0  0  0  0  0  0
   25.6589  -21.2391  -11.2821 N   0  0  0  0  0  0  0  0  0  0  0  0
   24.3222  -20.7926  -10.9705 C   0  0  1  0  0  0  0  0  0  0  0  0
   23.2921  -21.2938  -11.8980 C   0  0  0  0  0  0  0  0  0  0  0  0
   21.8828  -20.9035  -11.6709 C   0  0  0  0  0  0  0  0  0  0  0  0
   20.8860  -21.6097  -12.5495 C   0  0  0  0  0  0  0  0  0  0  0  0
   19.5126  -20.9973  -12.3629 C   0  0  0  0  0  0  0  0  0  0  0  0
   18.5728  -21.6980  -13.2306 N   0  0  0  0  0  0  0  0  0  0  0  0
   23.9565  -21.0494   -9.5623 C   0  0  0  0  0  0  0  0  0  0  0  0
   24.6368  -22.0248   -8.8564 O   0  0  0  0  0  0  0  0  0  0  0  0
   23.0564  -20.4486   -8.9216 O   0  0  0  0  0  0  0  0  0  0  0  0
  1  2  1  0
  3  2  1  0
  4  5  1  0
  4  3  1  0
  5  1  1  0
  6  7  2  0
  5  6  1  1
  8  6  1  0
  9  8  1  0
 10  9  1  0
 11 10  1  0
 11 12  1  0
 12  8  1  0
 12 13  1  6
 14 13  2  0
 15 13  1  0
 16 22  1  0
 16 15  1  0
 17 18  1  0
 16 17  1  6
 18 19  1  0
 20 19  1  0
 20 21  1  0
 22 23  1  0
 24 22  2  0
M  END
$$$$
