PPK.pdb
     RDKit          3D

 24 25  0  0  1  0  0  0  0  0999 V2000
   29.0585  -22.0483  -16.6145 N   0  0  0  0  0  0  0  0  0  0  0  0
   28.5703  -22.8341  -17.7035 C   0  0  0  0  0  0  0  0  0  0  0  0
   28.1992  -21.8715  -18.8077 C   0  0  0  0  0  0  0  0  0  0  0  0
   28.0128  -20.5863  -18.0674 C   0  0  0  0  0  0  0  0  0  0  0  0
   28.4120  -20.7610  -16.6440 C   0  0  1  0  0  0  0  0  0  0  0  0
   27.2385  -20.7135  -15.7121 C   0  0  0  0  0  0  0  0  0  0  0  0
   26.6442  -21.7924  -15.5253 O   0  0  0  0  0  0  0  0  0  0  0  0
   26.8195  -19.5373  -15.0795 N   0  0  0  0  0  0  0  0  0  0  0  0
   27.8087  -18.6117  -14.4604 C   0  0  0  0  0  0  0  0  0  0  0  0
   27.3862  -17.3370  -15.1731 C   0  0  0  0  0  0  0  0  0  0  0  0
   25.8889  -17.5109  -15.4828 C   0  0  0  0  0  0  0  0  0  0  0  0
   25.6382  -18.8508  -14.8059 C   0  0  1  0  0  0  0  0  0  0  0  0
   24.3387  -19.4089  -15.0838 C   0  0  0  0  0  0  0  0  0  0  0  0
   23.9112  -19.5213  -16.2470 O   0  0  0  0  0  0  0  0  0  0  0  0
   23.4576  -19.8687  -14.0461 N   0  0  0  0  0  0  0  0  0  0  0  0
   22.1549  -20.4489  -14.2690 C   0  0  1  0  0  0  0  0  0  0  0  0
   21.6159  -21.1751  -13.1051 C   0  0  0  0  0  0  0  0  0  0  0  0
   20.2959  -21.8327  -13.2284 C   0  0  0  0  0  0  0  0  0  0  0  0
   19.8348  -22.5531  -11.9905 C   0  0  0  0  0  0  0  0  0  0  0  0
   18.4718  -23.1693  -12.2325 C   0  0  0  0  0  0  0  0  0  0  0  0
   17.9639  -23.6799  -10.9644 N   0  0  0  0  0  0  0  0  0  0  0  0
   21.1836  -19.4674  -14.7943 C   0  0  0  0  0  0  0  0  0  0  0  0
   20.2889  -19.8616  -15.7724 O   0  0  0  0  0  0  0  0  0  0  0  0
   21.0883  -18.2681  -14.4277 O   0  0  0  0  0  0  0  0  0  0  0  0
  1  2  1  0
  3  2  1  0
  4  5  1  0
  4  3  1  0
  5  1  1  0
  6  7  2  0
  5  6  1  1
  8  6  1  0
  9  8  1  0
 10  9  1  0
 11 10  1  0
 11 12  1  0
 12  8  1  0
 12 13  1  6
 14 13  2  0
 15 13  1  0
 16 22  1  0
 16 15  1  0
 17 18  1  0
 16 17  1  1
 18 19  1  0
 20 19  1  0
 20 21  1  0
 22 23  1  0
 24 22  2  0
M  END
$$$$
