PPK.pdb
     RDKit          3D

 24 25  0  0  1  0  0  0  0  0999 V2000
   27.7095  -20.0334  -15.6123 N   0  0  0  0  0  0  0  0  0  0  0  0
   27.3060  -18.9316  -16.4280 C   0  0  0  0  0  0  0  0  0  0  0  0
   27.3387  -17.7012  -15.5514 C   0  0  0  0  0  0  0  0  0  0  0  0
   27.2510  -18.2812  -14.1764 C   0  0  0  0  0  0  0  0  0  0  0  0
   27.3279  -19.7660  -14.2489 C   0  0  1  0  0  0  0  0  0  0  0  0
   26.0251  -20.4225  -13.9036 C   0  0  0  0  0  0  0  0  0  0  0  0
   25.1989  -20.5200  -14.8310 O   0  0  0  0  0  0  0  0  0  0  0  0
   25.7346  -20.9041  -12.6218 N   0  0  0  0  0  0  0  0  0  0  0  0
   26.7319  -21.7147  -11.8689 C   0  0  0  0  0  0  0  0  0  0  0  0
   26.7643  -20.8865  -10.5943 C   0  0  0  0  0  0  0  0  0  0  0  0
   25.3745  -20.2346  -10.4872 C   0  0  0  0  0  0  0  0  0  0  0  0
   24.6967  -20.8696  -11.6928 C   0  0  1  0  0  0  0  0  0  0  0  0
   23.4056  -20.3063  -11.9982 C   0  0  0  0  0  0  0  0  0  0  0  0
   23.1691  -19.0942  -11.8454 O   0  0  0  0  0  0  0  0  0  0  0  0
   22.3149  -21.0990  -12.4948 N   0  0  0  0  0  0  0  0  0  0  0  0
   21.2119  -20.5870  -13.2723 C   0  0  1  0  0  0  0  0  0  0  0  0
   21.6163  -19.9545  -14.5409 C   0  0  0  0  0  0  0  0  0  0  0  0
   20.5833  -19.2798  -15.3579 C   0  0  0  0  0  0  0  0  0  0  0  0
   21.0851  -18.7032  -16.6541 C   0  0  0  0  0  0  0  0  0  0  0  0
   19.9446  -18.0347  -17.3945 C   0  0  0  0  0  0  0  0  0  0  0  0
   20.4290  -17.6106  -18.7031 N   0  0  0  0  0  0  0  0  0  0  0  0
   20.1539  -21.5967  -13.4818 C   0  0  0  0  0  0  0  0  0  0  0  0
   18.8298  -21.2261  -13.3337 O   0  0  0  0  0  0  0  0  0  0  0  0
   20.3458  -22.8005  -13.7909 O   0  0  0  0  0  0  0  0  0  0  0  0
  1  2  1  0
  3  2  1  0
  4  5  1  0
  4  3  1  0
  5  1  1  0
  6  7  2  0
  5  6  1  6
  8  6  1  0
  9  8  1  0
 10  9  1  0
 11 10  1  0
 11 12  1  0
 12  8  1  0
 12 13  1  6
 14 13  2  0
 15 13  1  0
 16 22  1  0
 16 15  1  0
 17 18  1  0
 16 17  1  6
 18 19  1  0
 20 19  1  0
 20 21  1  0
 22 23  1  0
 24 22  2  0
M  END
$$$$
