PPK.pdb
     RDKit          3D

 24 25  0  0  1  0  0  0  0  0999 V2000
   18.2686  -14.4927  -17.8603 N   0  0  0  0  0  0  0  0  0  0  0  0
   19.5204  -15.1495  -17.6512 C   0  0  0  0  0  0  0  0  0  0  0  0
   19.7012  -15.2844  -16.1570 C   0  0  0  0  0  0  0  0  0  0  0  0
   18.7888  -14.2271  -15.6240 C   0  0  0  0  0  0  0  0  0  0  0  0
   18.0050  -13.6277  -16.7387 C   0  0  1  0  0  0  0  0  0  0  0  0
   18.4120  -12.2139  -17.0268 C   0  0  0  0  0  0  0  0  0  0  0  0
   19.5460  -12.0607  -17.5197 O   0  0  0  0  0  0  0  0  0  0  0  0
   17.5823  -11.1173  -16.7653 N   0  0  0  0  0  0  0  0  0  0  0  0
   16.1172  -11.1926  -17.0227 C   0  0  0  0  0  0  0  0  0  0  0  0
   15.6345  -10.7689  -15.6447 C   0  0  0  0  0  0  0  0  0  0  0  0
   16.7400   -9.8604  -15.0785 C   0  0  0  0  0  0  0  0  0  0  0  0
   17.6777   -9.8160  -16.2764 C   0  0  1  0  0  0  0  0  0  0  0  0
   18.9443   -9.1858  -16.0007 C   0  0  0  0  0  0  0  0  0  0  0  0
   19.7057   -9.6103  -15.1126 O   0  0  0  0  0  0  0  0  0  0  0  0
   19.4088   -8.0356  -16.7260 N   0  0  0  0  0  0  0  0  0  0  0  0
   20.6585   -7.3566  -16.4803 C   0  0  1  0  0  0  0  0  0  0  0  0
   21.1747   -6.6131  -17.6436 C   0  0  0  0  0  0  0  0  0  0  0  0
   22.4254   -5.8368  -17.4913 C   0  0  0  0  0  0  0  0  0  0  0  0
   22.7924   -4.9964  -18.6843 C   0  0  0  0  0  0  0  0  0  0  0  0
   24.1256   -4.3177  -18.4437 C   0  0  0  0  0  0  0  0  0  0  0  0
   24.3637   -3.3703  -19.5266 N   0  0  0  0  0  0  0  0  0  0  0  0
   20.6106   -6.5086  -15.2713 C   0  0  0  0  0  0  0  0  0  0  0  0
   19.4263   -5.8777  -14.9371 O   0  0  0  0  0  0  0  0  0  0  0  0
   21.5738   -6.2964  -14.4911 O   0  0  0  0  0  0  0  0  0  0  0  0
  1  2  1  0
  3  2  1  0
  4  5  1  0
  4  3  1  0
  5  1  1  0
  6  7  2  0
  5  6  1  6
  8  6  1  0
  9  8  1  0
 10  9  1  0
 11 10  1  0
 11 12  1  0
 12  8  1  0
 12 13  1  1
 14 13  2  0
 15 13  1  0
 16 22  1  0
 16 15  1  0
 17 18  1  0
 16 17  1  6
 18 19  1  0
 20 19  1  0
 20 21  1  0
 22 23  1  0
 24 22  2  0
M  END
$$$$
