PPK.pdb
     RDKit          3D

 24 25  0  0  1  0  0  0  0  0999 V2000
   27.8527  -21.0853  -14.7164 N   0  0  0  0  0  0  0  0  0  0  0  0
   27.2041  -20.4384  -15.8131 C   0  0  0  0  0  0  0  0  0  0  0  0
   27.0538  -18.9825  -15.4376 C   0  0  0  0  0  0  0  0  0  0  0  0
   27.1539  -19.0211  -13.9465 C   0  0  0  0  0  0  0  0  0  0  0  0
   27.5045  -20.3970  -13.4994 C   0  0  1  0  0  0  0  0  0  0  0  0
   26.3698  -21.0732  -12.7904 C   0  0  0  0  0  0  0  0  0  0  0  0
   25.6809  -21.8510  -13.4779 O   0  0  0  0  0  0  0  0  0  0  0  0
   26.0847  -20.8575  -11.4371 N   0  0  0  0  0  0  0  0  0  0  0  0
   27.1811  -20.7672  -10.4329 C   0  0  0  0  0  0  0  0  0  0  0  0
   26.8024  -19.4281   -9.8206 C   0  0  0  0  0  0  0  0  0  0  0  0
   25.2780  -19.3086   -9.9932 C   0  0  0  0  0  0  0  0  0  0  0  0
   24.9797  -20.6677  -10.6098 C   0  0  1  0  0  0  0  0  0  0  0  0
   23.6262  -20.8063  -11.0855 C   0  0  0  0  0  0  0  0  0  0  0  0
   23.2140  -20.1758  -12.0760 O   0  0  0  0  0  0  0  0  0  0  0  0
   22.6705  -21.6738  -10.4539 N   0  0  0  0  0  0  0  0  0  0  0  0
   21.3011  -21.8386  -10.8789 C   0  0  1  0  0  0  0  0  0  0  0  0
   20.5080  -22.7283  -10.0116 C   0  0  0  0  0  0  0  0  0  0  0  0
   19.0928  -22.9830  -10.3614 C   0  0  0  0  0  0  0  0  0  0  0  0
   18.3959  -23.9788   -9.4744 C   0  0  0  0  0  0  0  0  0  0  0  0
   16.9336  -24.0746   -9.8598 C   0  0  0  0  0  0  0  0  0  0  0  0
   16.2872  -25.0439   -8.9825 N   0  0  0  0  0  0  0  0  0  0  0  0
   20.6201  -20.5461  -11.0988 C   0  0  0  0  0  0  0  0  0  0  0  0
   19.7396  -20.4197  -12.1577 O   0  0  0  0  0  0  0  0  0  0  0  0
   20.7685  -19.5147  -10.3946 O   0  0  0  0  0  0  0  0  0  0  0  0
  1  2  1  0
  3  2  1  0
  4  5  1  0
  4  3  1  0
  5  1  1  0
  6  7  2  0
  5  6  1  6
  8  6  1  0
  9  8  1  0
 10  9  1  0
 11 10  1  0
 11 12  1  0
 12  8  1  0
 12 13  1  6
 14 13  2  0
 15 13  1  0
 16 22  1  0
 16 15  1  0
 17 18  1  0
 16 17  1  1
 18 19  1  0
 20 19  1  0
 20 21  1  0
 22 23  1  0
 24 22  2  0
M  END
$$$$
