PPK.pdb
     RDKit          3D

 24 25  0  0  1  0  0  0  0  0999 V2000
   28.0014  -19.5943  -15.6803 N   0  0  0  0  0  0  0  0  0  0  0  0
   27.4446  -18.5935  -16.5348 C   0  0  0  0  0  0  0  0  0  0  0  0
   27.1618  -17.3862  -15.6711 C   0  0  0  0  0  0  0  0  0  0  0  0
   27.0917  -17.9786  -14.3004 C   0  0  0  0  0  0  0  0  0  0  0  0
   27.4733  -19.4166  -14.3515 C   0  0  1  0  0  0  0  0  0  0  0  0
   26.3087  -20.3256  -14.0965 C   0  0  0  0  0  0  0  0  0  0  0  0
   25.6067  -20.6063  -15.0867 O   0  0  0  0  0  0  0  0  0  0  0  0
   26.0107  -20.8391  -12.8289 N   0  0  0  0  0  0  0  0  0  0  0  0
   27.0757  -21.4490  -11.9849 C   0  0  0  0  0  0  0  0  0  0  0  0
   26.8602  -20.6163  -10.7313 C   0  0  0  0  0  0  0  0  0  0  0  0
   25.3720  -20.2248  -10.7434 C   0  0  0  0  0  0  0  0  0  0  0  0
   24.9146  -20.9835  -11.9809 C   0  0  1  0  0  0  0  0  0  0  0  0
   23.5711  -20.6655  -12.3949 C   0  0  0  0  0  0  0  0  0  0  0  0
   23.1478  -19.4953  -12.3965 O   0  0  0  0  0  0  0  0  0  0  0  0
   22.6387  -21.6688  -12.8293 N   0  0  0  0  0  0  0  0  0  0  0  0
   21.2793  -21.4079  -13.2380 C   0  0  1  0  0  0  0  0  0  0  0  0
   20.8300  -22.2254  -14.3793 C   0  0  0  0  0  0  0  0  0  0  0  0
   21.6439  -22.2261  -15.6153 C   0  0  0  0  0  0  0  0  0  0  0  0
   21.1099  -23.0988  -16.7186 C   0  0  0  0  0  0  0  0  0  0  0  0
   21.9403  -22.9082  -17.9716 C   0  0  0  0  0  0  0  0  0  0  0  0
   21.4138  -23.7837  -19.0124 N   0  0  0  0  0  0  0  0  0  0  0  0
   20.3281  -21.4808  -12.1098 C   0  0  0  0  0  0  0  0  0  0  0  0
   19.2597  -20.6036  -12.0713 O   0  0  0  0  0  0  0  0  0  0  0  0
   20.3979  -22.2886  -11.1484 O   0  0  0  0  0  0  0  0  0  0  0  0
  1  2  1  0
  3  2  1  0
  4  5  1  0
  4  3  1  0
  5  1  1  0
  6  7  2  0
  5  6  1  6
  8  6  1  0
  9  8  1  0
 10  9  1  0
 11 10  1  0
 11 12  1  0
 12  8  1  0
 12 13  1  6
 14 13  2  0
 15 13  1  0
 16 22  1  0
 16 15  1  0
 17 18  1  0
 16 17  1  6
 18 19  1  0
 20 19  1  0
 20 21  1  0
 22 23  1  0
 24 22  2  0
M  END
$$$$
