PPK.pdb
     RDKit          3D

 24 25  0  0  1  0  0  0  0  0999 V2000
   27.5126  -19.8618  -16.3313 N   0  0  0  0  0  0  0  0  0  0  0  0
   26.6923  -18.8267  -16.8768 C   0  0  0  0  0  0  0  0  0  0  0  0
   26.8612  -17.6175  -15.9864 C   0  0  0  0  0  0  0  0  0  0  0  0
   27.3540  -18.2214  -14.7108 C   0  0  0  0  0  0  0  0  0  0  0  0
   27.6097  -19.6749  -14.9059 C   0  0  1  0  0  0  0  0  0  0  0  0
   26.6236  -20.5317  -14.1704 C   0  0  0  0  0  0  0  0  0  0  0  0
   25.6309  -20.9066  -14.8231 O   0  0  0  0  0  0  0  0  0  0  0  0
   26.7899  -20.8998  -12.8302 N   0  0  0  0  0  0  0  0  0  0  0  0
   28.1335  -21.2673  -12.3026 C   0  0  0  0  0  0  0  0  0  0  0  0
   28.1749  -20.3025  -11.1283 C   0  0  0  0  0  0  0  0  0  0  0  0
   26.7080  -20.0854  -10.7172 C   0  0  0  0  0  0  0  0  0  0  0  0
   26.0247  -21.0503  -11.6755 C   0  0  1  0  0  0  0  0  0  0  0  0
   24.5874  -20.9433  -11.6825 C   0  0  0  0  0  0  0  0  0  0  0  0
   23.9953  -20.1452  -12.4314 O   0  0  0  0  0  0  0  0  0  0  0  0
   23.7492  -21.7435  -10.8329 N   0  0  0  0  0  0  0  0  0  0  0  0
   22.3129  -21.6287  -10.7490 C   0  0  1  0  0  0  0  0  0  0  0  0
   21.7005  -22.5048   -9.7340 C   0  0  0  0  0  0  0  0  0  0  0  0
   20.2244  -22.5684   -9.6494 C   0  0  0  0  0  0  0  0  0  0  0  0
   19.6956  -23.4040   -8.5152 C   0  0  0  0  0  0  0  0  0  0  0  0
   18.1813  -23.3527   -8.5022 C   0  0  0  0  0  0  0  0  0  0  0  0
   17.7008  -24.1750   -7.3977 N   0  0  0  0  0  0  0  0  0  0  0  0
   21.8677  -20.2281  -10.5975 C   0  0  0  0  0  0  0  0  0  0  0  0
   20.7112  -19.8158  -11.2340 O   0  0  0  0  0  0  0  0  0  0  0  0
   22.4577  -19.3443   -9.9249 O   0  0  0  0  0  0  0  0  0  0  0  0
  1  2  1  0
  3  2  1  0
  4  5  1  0
  4  3  1  0
  5  1  1  0
  6  7  2  0
  5  6  1  1
  8  6  1  0
  9  8  1  0
 10  9  1  0
 11 10  1  0
 11 12  1  0
 12  8  1  0
 12 13  1  6
 14 13  2  0
 15 13  1  0
 16 22  1  0
 16 15  1  0
 17 18  1  0
 16 17  1  1
 18 19  1  0
 20 19  1  0
 20 21  1  0
 22 23  1  0
 24 22  2  0
M  END
$$$$
