FLF.pdb
     RDKit          3D

 31 32  0  0  1  0  0  0  0  0999 V2000
   31.3615  -24.9830  -16.5698 N   0  0  0  0  0  0  0  0  0  0  0  0
   30.0113  -25.0087  -17.0334 C   0  0  1  0  0  0  0  0  0  0  0  0
   29.3927  -26.3373  -16.7454 C   0  0  0  0  0  0  0  0  0  0  0  0
   28.0185  -26.3246  -17.3507 C   0  0  0  0  0  0  0  0  0  0  0  0
   26.8998  -26.1034  -16.5856 C   0  0  0  0  0  0  0  0  0  0  0  0
   25.6196  -26.0831  -17.0984 C   0  0  0  0  0  0  0  0  0  0  0  0
   25.4659  -26.2984  -18.4580 C   0  0  0  0  0  0  0  0  0  0  0  0
   26.5704  -26.5266  -19.2722 C   0  0  0  0  0  0  0  0  0  0  0  0
   27.8316  -26.5363  -18.7056 C   0  0  0  0  0  0  0  0  0  0  0  0
   29.2035  -23.8624  -16.5574 C   0  0  0  0  0  0  0  0  0  0  0  0
   29.1032  -23.6577  -15.3160 O   0  0  0  0  0  0  0  0  0  0  0  0
   28.8706  -19.2653  -15.9717 C   0  0  0  0  0  0  0  0  0  0  0  0
   29.0626  -19.7964  -17.4047 C   0  0  2  0  0  0  0  0  0  0  0  0
   29.1947  -18.5487  -18.2487 C   0  0  0  0  0  0  0  0  0  0  0  0
   27.8622  -20.6106  -17.7125 C   0  0  0  0  0  0  0  0  0  0  0  0
   27.6729  -21.8795  -16.9789 C   0  0  2  0  0  0  0  0  0  0  0  0
   28.5234  -22.9635  -17.4129 N   0  0  0  0  0  0  0  0  0  0  0  0
   26.2688  -22.3077  -16.9581 C   0  0  0  0  0  0  0  0  0  0  0  0
   25.7128  -22.9516  -17.8810 O   0  0  0  0  0  0  0  0  0  0  0  0
   25.4588  -21.9928  -15.8339 N   0  0  0  0  0  0  0  0  0  0  0  0
   24.0579  -22.3769  -15.7567 C   0  0  1  0  0  0  0  0  0  0  0  0
   23.9471  -23.1383  -14.4239 C   0  0  0  0  0  0  0  0  0  0  0  0
   22.5777  -23.5465  -14.1110 C   0  0  0  0  0  0  0  0  0  0  0  0
   22.1011  -24.7660  -14.5340 C   0  0  0  0  0  0  0  0  0  0  0  0
   20.8108  -25.1330  -14.2305 C   0  0  0  0  0  0  0  0  0  0  0  0
   19.9625  -24.3145  -13.5078 C   0  0  0  0  0  0  0  0  0  0  0  0
   20.4844  -23.0990  -13.1038 C   0  0  0  0  0  0  0  0  0  0  0  0
   21.7617  -22.6879  -13.3806 C   0  0  0  0  0  0  0  0  0  0  0  0
   23.1216  -21.2591  -15.8128 C   0  0  0  0  0  0  0  0  0  0  0  0
   21.8367  -21.3527  -16.3430 O   0  0  0  0  0  0  0  0  0  0  0  0
   23.4462  -20.1166  -15.3684 O   0  0  0  0  0  0  0  0  0  0  0  0
  2  1  1  1
  3  4  1  0
  3  2  1  0
  4  9  1  0
  4  5  2  0
  5  6  1  0
  6  7  2  0
  8  7  1  0
  9  8  2  0
 10 11  2  0
 10  2  1  0
 13 12  1  1
 13 14  1  0
 13 15  1  0
 16 15  1  6
 16 17  1  0
 17 10  1  0
 18 16  1  0
 19 18  2  0
 20 18  1  0
 21 20  1  0
 21 22  1  1
 22 23  1  0
 23 28  1  0
 24 23  2  0
 24 25  1  0
 25 26  2  0
 26 27  1  0
 28 27  2  0
 29 30  1  0
 29 21  1  0
 31 29  2  0
M  END
$$$$
