FLF.pdb
     RDKit          3D

 31 32  0  0  1  0  0  0  0  0999 V2000
   26.9727  -18.8064   -7.3987 N   0  0  0  0  0  0  0  0  0  0  0  0
   27.1690  -19.9347   -8.2513 C   0  0  1  0  0  0  0  0  0  0  0  0
   27.6833  -21.0938   -7.4621 C   0  0  0  0  0  0  0  0  0  0  0  0
   28.1888  -20.5494   -6.1572 C   0  0  0  0  0  0  0  0  0  0  0  0
   27.3661  -20.4264   -5.0645 C   0  0  0  0  0  0  0  0  0  0  0  0
   27.7868  -19.9321   -3.8475 C   0  0  0  0  0  0  0  0  0  0  0  0
   29.1109  -19.5422   -3.7327 C   0  0  0  0  0  0  0  0  0  0  0  0
   29.9809  -19.6486   -4.8129 C   0  0  0  0  0  0  0  0  0  0  0  0
   29.5061  -20.1513   -6.0104 C   0  0  0  0  0  0  0  0  0  0  0  0
   25.9852  -20.2596   -9.0798 C   0  0  0  0  0  0  0  0  0  0  0  0
   24.8543  -19.8222   -8.7296 O   0  0  0  0  0  0  0  0  0  0  0  0
   28.2964  -20.3372  -14.5137 C   0  0  0  0  0  0  0  0  0  0  0  0
   26.9423  -20.0524  -13.8371 C   0  0  2  0  0  0  0  0  0  0  0  0
   26.7973  -18.5492  -13.9145 C   0  0  0  0  0  0  0  0  0  0  0  0
   27.0471  -20.5796  -12.4551 C   0  0  0  0  0  0  0  0  0  0  0  0
   25.8422  -20.5406  -11.6003 C   0  0  2  0  0  0  0  0  0  0  0  0
   26.0342  -21.0407  -10.2587 N   0  0  0  0  0  0  0  0  0  0  0  0
   24.6896  -21.1958  -12.2305 C   0  0  0  0  0  0  0  0  0  0  0  0
   24.6832  -22.3872  -12.6256 O   0  0  0  0  0  0  0  0  0  0  0  0
   23.4858  -20.4643  -12.4175 N   0  0  0  0  0  0  0  0  0  0  0  0
   22.2525  -21.1006  -12.8532 C   0  0  1  0  0  0  0  0  0  0  0  0
   21.1749  -20.5131  -11.9247 C   0  0  0  0  0  0  0  0  0  0  0  0
   20.9894  -21.2913  -10.7001 C   0  0  0  0  0  0  0  0  0  0  0  0
   21.7138  -20.9925   -9.5690 C   0  0  0  0  0  0  0  0  0  0  0  0
   21.5262  -21.7351   -8.4267 C   0  0  0  0  0  0  0  0  0  0  0  0
   20.6268  -22.7838   -8.3690 C   0  0  0  0  0  0  0  0  0  0  0  0
   19.9213  -23.0476   -9.5291 C   0  0  0  0  0  0  0  0  0  0  0  0
   20.0721  -22.3377  -10.6912 C   0  0  0  0  0  0  0  0  0  0  0  0
   21.9242  -20.8821  -14.2580 C   0  0  0  0  0  0  0  0  0  0  0  0
   21.0407  -21.6822  -14.9791 O   0  0  0  0  0  0  0  0  0  0  0  0
   22.4454  -19.9244  -14.9058 O   0  0  0  0  0  0  0  0  0  0  0  0
  2  1  1  1
  3  4  1  0
  3  2  1  0
  4  9  1  0
  4  5  2  0
  5  6  1  0
  6  7  2  0
  8  7  1  0
  9  8  2  0
 10 11  2  0
 10  2  1  0
 13 12  1  6
 13 14  1  0
 13 15  1  0
 16 15  1  6
 16 17  1  0
 17 10  1  0
 18 16  1  0
 19 18  2  0
 20 18  1  0
 21 20  1  0
 21 22  1  1
 22 23  1  0
 23 28  1  0
 24 23  2  0
 24 25  1  0
 25 26  2  0
 26 27  1  0
 28 27  2  0
 29 30  1  0
 29 21  1  0
 31 29  2  0
M  END
$$$$
