FLF.pdb
     RDKit          3D

 31 32  0  0  1  0  0  0  0  0999 V2000
   24.7981  -17.1223  -18.1820 N   0  0  0  0  0  0  0  0  0  0  0  0
   24.4091  -16.9894  -16.8146 C   0  0  1  0  0  0  0  0  0  0  0  0
   23.1037  -16.2702  -16.7177 C   0  0  0  0  0  0  0  0  0  0  0  0
   23.3144  -14.8955  -17.2836 C   0  0  0  0  0  0  0  0  0  0  0  0
   22.5870  -14.4424  -18.3567 C   0  0  0  0  0  0  0  0  0  0  0  0
   22.7468  -13.1886  -18.9090 C   0  0  0  0  0  0  0  0  0  0  0  0
   23.6937  -12.3507  -18.3435 C   0  0  0  0  0  0  0  0  0  0  0  0
   24.4540  -12.7669  -17.2555 C   0  0  0  0  0  0  0  0  0  0  0  0
   24.2526  -14.0346  -16.7413 C   0  0  0  0  0  0  0  0  0  0  0  0
   24.4393  -18.2676  -16.0672 C   0  0  0  0  0  0  0  0  0  0  0  0
   23.6863  -19.2107  -16.4366 O   0  0  0  0  0  0  0  0  0  0  0  0
   27.7809  -21.2491  -15.1309 C   0  0  0  0  0  0  0  0  0  0  0  0
   27.8202  -19.9872  -14.2485 C   0  0  2  0  0  0  0  0  0  0  0  0
   29.0697  -20.1565  -13.4138 C   0  0  0  0  0  0  0  0  0  0  0  0
   26.5629  -19.9883  -13.4624 C   0  0  0  0  0  0  0  0  0  0  0  0
   25.2941  -19.7311  -14.1752 C   0  0  2  0  0  0  0  0  0  0  0  0
   25.2688  -18.5101  -14.9467 N   0  0  0  0  0  0  0  0  0  0  0  0
   24.1299  -19.7970  -13.2834 C   0  0  0  0  0  0  0  0  0  0  0  0
   23.9001  -18.9785  -12.3600 O   0  0  0  0  0  0  0  0  0  0  0  0
   23.1796  -20.8401  -13.4506 N   0  0  0  0  0  0  0  0  0  0  0  0
   21.9754  -20.9283  -12.6394 C   0  0  1  0  0  0  0  0  0  0  0  0
   21.3340  -19.5346  -12.7612 C   0  0  0  0  0  0  0  0  0  0  0  0
   20.0351  -19.4430  -12.0947 C   0  0  0  0  0  0  0  0  0  0  0  0
   19.9596  -19.3865  -10.7220 C   0  0  0  0  0  0  0  0  0  0  0  0
   18.7295  -19.3006  -10.1127 C   0  0  0  0  0  0  0  0  0  0  0  0
   17.5505  -19.2683  -10.8343 C   0  0  0  0  0  0  0  0  0  0  0  0
   17.6751  -19.3274  -12.2105 C   0  0  0  0  0  0  0  0  0  0  0  0
   18.8761  -19.4135  -12.8643 C   0  0  0  0  0  0  0  0  0  0  0  0
   21.0493  -21.9799  -13.0462 C   0  0  0  0  0  0  0  0  0  0  0  0
   20.9930  -22.5044  -14.3356 O   0  0  0  0  0  0  0  0  0  0  0  0
   20.2280  -22.4785  -12.2184 O   0  0  0  0  0  0  0  0  0  0  0  0
  2  1  1  6
  3  4  1  0
  3  2  1  0
  4  9  1  0
  4  5  2  0
  5  6  1  0
  6  7  2  0
  8  7  1  0
  9  8  2  0
 10 11  2  0
 10  2  1  0
 13 12  1  6
 13 14  1  0
 13 15  1  0
 16 15  1  1
 16 17  1  0
 17 10  1  0
 18 16  1  0
 19 18  2  0
 20 18  1  0
 21 20  1  0
 21 22  1  6
 22 23  1  0
 23 28  1  0
 24 23  2  0
 24 25  1  0
 25 26  2  0
 26 27  1  0
 28 27  2  0
 29 30  1  0
 29 21  1  0
 31 29  2  0
M  END
$$$$
