FLF.pdb
     RDKit          3D

 31 32  0  0  1  0  0  0  0  0999 V2000
   24.3005  -25.2091  -21.7237 N   0  0  0  0  0  0  0  0  0  0  0  0
   24.5327  -24.3564  -20.6022 C   0  0  1  0  0  0  0  0  0  0  0  0
   23.8535  -23.0417  -20.8051 C   0  0  0  0  0  0  0  0  0  0  0  0
   24.6012  -22.3217  -21.8902 C   0  0  0  0  0  0  0  0  0  0  0  0
   25.6843  -21.5259  -21.6084 C   0  0  0  0  0  0  0  0  0  0  0  0
   26.4001  -20.8465  -22.5719 C   0  0  0  0  0  0  0  0  0  0  0  0
   25.9963  -20.9812  -23.8900 C   0  0  0  0  0  0  0  0  0  0  0  0
   24.9048  -21.7767  -24.2228 C   0  0  0  0  0  0  0  0  0  0  0  0
   24.2228  -22.4358  -23.2165 C   0  0  0  0  0  0  0  0  0  0  0  0
   24.2167  -24.9932  -19.3031 C   0  0  0  0  0  0  0  0  0  0  0  0
   23.0941  -25.5497  -19.1511 O   0  0  0  0  0  0  0  0  0  0  0  0
   25.9682  -28.3983  -16.7048 C   0  0  0  0  0  0  0  0  0  0  0  0
   26.8223  -27.1167  -16.7261 C   0  0  2  0  0  0  0  0  0  0  0  0
   28.0393  -27.4677  -15.9000 C   0  0  0  0  0  0  0  0  0  0  0  0
   25.9818  -26.0450  -16.1398 C   0  0  0  0  0  0  0  0  0  0  0  0
   24.8028  -25.5864  -16.9038 C   0  0  2  0  0  0  0  0  0  0  0  0
   25.1019  -25.0221  -18.1995 N   0  0  0  0  0  0  0  0  0  0  0  0
   23.9582  -24.6692  -16.1288 C   0  0  0  0  0  0  0  0  0  0  0  0
   24.2339  -23.4630  -15.9177 O   0  0  0  0  0  0  0  0  0  0  0  0
   22.7408  -25.1435  -15.5704 N   0  0  0  0  0  0  0  0  0  0  0  0
   21.8427  -24.2778  -14.8220 C   0  0  1  0  0  0  0  0  0  0  0  0
   20.5334  -24.3012  -15.6304 C   0  0  0  0  0  0  0  0  0  0  0  0
   19.8296  -25.5804  -15.5417 C   0  0  0  0  0  0  0  0  0  0  0  0
   20.1726  -26.6226  -16.3722 C   0  0  0  0  0  0  0  0  0  0  0  0
   19.4998  -27.8182  -16.2745 C   0  0  0  0  0  0  0  0  0  0  0  0
   18.4792  -28.0171  -15.3631 C   0  0  0  0  0  0  0  0  0  0  0  0
   18.1690  -26.9424  -14.5496 C   0  0  0  0  0  0  0  0  0  0  0  0
   18.8089  -25.7323  -14.6081 C   0  0  0  0  0  0  0  0  0  0  0  0
   21.6237  -24.6868  -13.4386 C   0  0  0  0  0  0  0  0  0  0  0  0
   21.0129  -23.8798  -12.4812 O   0  0  0  0  0  0  0  0  0  0  0  0
   21.9919  -25.8306  -13.0330 O   0  0  0  0  0  0  0  0  0  0  0  0
  2  1  1  6
  3  4  1  0
  3  2  1  0
  4  9  1  0
  4  5  2  0
  5  6  1  0
  6  7  2  0
  8  7  1  0
  9  8  2  0
 10 11  2  0
 10  2  1  0
 13 12  1  1
 13 14  1  0
 13 15  1  0
 16 15  1  1
 16 17  1  0
 17 10  1  0
 18 16  1  0
 19 18  2  0
 20 18  1  0
 21 20  1  0
 21 22  1  6
 22 23  1  0
 23 28  1  0
 24 23  2  0
 24 25  1  0
 25 26  2  0
 26 27  1  0
 28 27  2  0
 29 30  1  0
 29 21  1  0
 31 29  2  0
M  END
$$$$
