FLF.pdb
     RDKit          3D

 31 32  0  0  1  0  0  0  0  0999 V2000
   28.4073  -20.7555  -17.7570 N   0  0  0  0  0  0  0  0  0  0  0  0
   27.8311  -19.9194  -16.7531 C   0  0  1  0  0  0  0  0  0  0  0  0
   26.8571  -18.9700  -17.3700 C   0  0  0  0  0  0  0  0  0  0  0  0
   26.3177  -18.1103  -16.2632 C   0  0  0  0  0  0  0  0  0  0  0  0
   25.1014  -18.3702  -15.6810 C   0  0  0  0  0  0  0  0  0  0  0  0
   24.5673  -17.6082  -14.6629 C   0  0  0  0  0  0  0  0  0  0  0  0
   25.3052  -16.5263  -14.2118 C   0  0  0  0  0  0  0  0  0  0  0  0
   26.5424  -16.2249  -14.7716 C   0  0  0  0  0  0  0  0  0  0  0  0
   27.0306  -17.0225  -15.7902 C   0  0  0  0  0  0  0  0  0  0  0  0
   27.2784  -20.6738  -15.6049 C   0  0  0  0  0  0  0  0  0  0  0  0
   26.4647  -21.6133  -15.8243 O   0  0  0  0  0  0  0  0  0  0  0  0
   29.3851  -20.7597  -10.0644 C   0  0  0  0  0  0  0  0  0  0  0  0
   28.1700  -20.3860  -10.9340 C   0  0  2  0  0  0  0  0  0  0  0  0
   26.9930  -20.4847   -9.9896 C   0  0  0  0  0  0  0  0  0  0  0  0
   28.1361  -21.3652  -12.0470 C   0  0  0  0  0  0  0  0  0  0  0  0
   27.1364  -21.1701  -13.1177 C   0  0  2  0  0  0  0  0  0  0  0  0
   27.6048  -20.4102  -14.2535 N   0  0  0  0  0  0  0  0  0  0  0  0
   25.8781  -20.6092  -12.6107 C   0  0  0  0  0  0  0  0  0  0  0  0
   25.7933  -19.5401  -11.9585 O   0  0  0  0  0  0  0  0  0  0  0  0
   24.6577  -21.2932  -12.8593 N   0  0  0  0  0  0  0  0  0  0  0  0
   23.3694  -20.7496  -12.4583 C   0  0  1  0  0  0  0  0  0  0  0  0
   23.2841  -19.3987  -13.1906 C   0  0  0  0  0  0  0  0  0  0  0  0
   21.9417  -18.8182  -13.1644 C   0  0  0  0  0  0  0  0  0  0  0  0
   21.5059  -18.1216  -12.0607 C   0  0  0  0  0  0  0  0  0  0  0  0
   20.2405  -17.5828  -12.0540 C   0  0  0  0  0  0  0  0  0  0  0  0
   19.3776  -17.7150  -13.1263 C   0  0  0  0  0  0  0  0  0  0  0  0
   19.8583  -18.4227  -14.2132 C   0  0  0  0  0  0  0  0  0  0  0  0
   21.1096  -18.9781  -14.2684 C   0  0  0  0  0  0  0  0  0  0  0  0
   22.2290  -21.6025  -12.7762 C   0  0  0  0  0  0  0  0  0  0  0  0
   22.1614  -22.4132  -13.9071 O   0  0  0  0  0  0  0  0  0  0  0  0
   21.2165  -21.6446  -12.0138 O   0  0  0  0  0  0  0  0  0  0  0  0
  2  1  1  6
  3  4  1  0
  3  2  1  0
  4  9  1  0
  4  5  2  0
  5  6  1  0
  6  7  2  0
  8  7  1  0
  9  8  2  0
 10 11  2  0
 10  2  1  0
 13 12  1  1
 13 14  1  0
 13 15  1  0
 16 15  1  1
 16 17  1  0
 17 10  1  0
 18 16  1  0
 19 18  2  0
 20 18  1  0
 21 20  1  0
 21 22  1  6
 22 23  1  0
 23 28  1  0
 24 23  2  0
 24 25  1  0
 25 26  2  0
 26 27  1  0
 28 27  2  0
 29 30  1  0
 29 21  1  0
 31 29  2  0
M  END
$$$$
