FLF.pdb
     RDKit          3D

 31 32  0  0  1  0  0  0  0  0999 V2000
   27.4773  -20.6990  -16.9272 N   0  0  0  0  0  0  0  0  0  0  0  0
   27.1830  -19.8015  -15.8565 C   0  0  1  0  0  0  0  0  0  0  0  0
   25.8790  -19.1159  -16.1024 C   0  0  0  0  0  0  0  0  0  0  0  0
   26.0135  -18.3624  -17.3943 C   0  0  0  0  0  0  0  0  0  0  0  0
   27.0117  -17.4388  -17.5853 C   0  0  0  0  0  0  0  0  0  0  0  0
   27.1730  -16.7241  -18.7539 C   0  0  0  0  0  0  0  0  0  0  0  0
   26.2753  -16.9584  -19.7824 C   0  0  0  0  0  0  0  0  0  0  0  0
   25.2483  -17.8848  -19.6340 C   0  0  0  0  0  0  0  0  0  0  0  0
   25.1328  -18.5737  -18.4407 C   0  0  0  0  0  0  0  0  0  0  0  0
   27.2802  -20.4291  -14.5187 C   0  0  0  0  0  0  0  0  0  0  0  0
   26.5845  -21.4526  -14.2706 O   0  0  0  0  0  0  0  0  0  0  0  0
   30.2605  -22.4730  -11.4910 C   0  0  0  0  0  0  0  0  0  0  0  0
   30.5321  -20.9949  -11.8289 C   0  0  2  0  0  0  0  0  0  0  0  0
   31.8038  -20.6699  -11.0779 C   0  0  0  0  0  0  0  0  0  0  0  0
   29.3455  -20.2359  -11.3659 C   0  0  0  0  0  0  0  0  0  0  0  0
   28.0778  -20.4026  -12.1071 C   0  0  2  0  0  0  0  0  0  0  0  0
   28.1142  -19.9529  -13.4794 N   0  0  0  0  0  0  0  0  0  0  0  0
   26.9370  -19.8046  -11.4028 C   0  0  0  0  0  0  0  0  0  0  0  0
   26.6833  -18.5755  -11.3849 O   0  0  0  0  0  0  0  0  0  0  0  0
   26.0396  -20.6429  -10.6880 N   0  0  0  0  0  0  0  0  0  0  0  0
   24.9264  -20.1086   -9.9191 C   0  0  1  0  0  0  0  0  0  0  0  0
   24.0207  -19.4479  -10.9734 C   0  0  0  0  0  0  0  0  0  0  0  0
   23.3209  -20.4186  -11.8148 C   0  0  0  0  0  0  0  0  0  0  0  0
   21.9886  -20.6900  -11.6037 C   0  0  0  0  0  0  0  0  0  0  0  0
   21.3471  -21.6058  -12.4047 C   0  0  0  0  0  0  0  0  0  0  0  0
   21.9964  -22.2731  -13.4270 C   0  0  0  0  0  0  0  0  0  0  0  0
   23.3341  -21.9684  -13.6021 C   0  0  0  0  0  0  0  0  0  0  0  0
   24.0175  -21.0649  -12.8315 C   0  0  0  0  0  0  0  0  0  0  0  0
   24.1993  -21.1039   -9.1383 C   0  0  0  0  0  0  0  0  0  0  0  0
   24.5268  -22.4577   -9.1142 O   0  0  0  0  0  0  0  0  0  0  0  0
   23.2050  -20.7706   -8.4251 O   0  0  0  0  0  0  0  0  0  0  0  0
  2  1  1  6
  3  4  1  0
  3  2  1  0
  4  9  1  0
  4  5  2  0
  5  6  1  0
  6  7  2  0
  8  7  1  0
  9  8  2  0
 10 11  2  0
 10  2  1  0
 13 12  1  1
 13 14  1  0
 13 15  1  0
 16 15  1  1
 16 17  1  0
 17 10  1  0
 18 16  1  0
 19 18  2  0
 20 18  1  0
 21 20  1  0
 21 22  1  6
 22 23  1  0
 23 28  1  0
 24 23  2  0
 24 25  1  0
 25 26  2  0
 26 27  1  0
 28 27  2  0
 29 30  1  0
 29 21  1  0
 31 29  2  0
M  END
$$$$
