FLF.pdb
     RDKit          3D

 31 32  0  0  1  0  0  0  0  0999 V2000
   22.4617  -21.4023  -14.2881 N   0  0  0  0  0  0  0  0  0  0  0  0
   23.0584  -20.9236  -13.0825 C   0  0  1  0  0  0  0  0  0  0  0  0
   22.3094  -21.4381  -11.8972 C   0  0  0  0  0  0  0  0  0  0  0  0
   21.1896  -20.4740  -11.6304 C   0  0  0  0  0  0  0  0  0  0  0  0
   21.3286  -19.4437  -10.7331 C   0  0  0  0  0  0  0  0  0  0  0  0
   20.3280  -18.5355  -10.4569 C   0  0  0  0  0  0  0  0  0  0  0  0
   19.1236  -18.6797  -11.1254 C   0  0  0  0  0  0  0  0  0  0  0  0
   18.9371  -19.7083  -12.0431 C   0  0  0  0  0  0  0  0  0  0  0  0
   19.9742  -20.5911  -12.2820 C   0  0  0  0  0  0  0  0  0  0  0  0
   24.5180  -21.1642  -13.0122 C   0  0  0  0  0  0  0  0  0  0  0  0
   24.9494  -22.3456  -13.1174 O   0  0  0  0  0  0  0  0  0  0  0  0
   27.9529  -20.0127  -15.5300 C   0  0  0  0  0  0  0  0  0  0  0  0
   27.5485  -18.8031  -14.6664 C   0  0  2  0  0  0  0  0  0  0  0  0
   28.4878  -17.7025  -15.1057 C   0  0  0  0  0  0  0  0  0  0  0  0
   27.7245  -19.2207  -13.2545 C   0  0  0  0  0  0  0  0  0  0  0  0
   26.9089  -20.3466  -12.7531 C   0  0  2  0  0  0  0  0  0  0  0  0
   25.4809  -20.1431  -12.8319 N   0  0  0  0  0  0  0  0  0  0  0  0
   27.2936  -20.7531  -11.3960 C   0  0  0  0  0  0  0  0  0  0  0  0
   28.2376  -21.5380  -11.1345 O   0  0  0  0  0  0  0  0  0  0  0  0
   26.5744  -20.2410  -10.2827 N   0  0  0  0  0  0  0  0  0  0  0  0
   26.8456  -20.6725   -8.9203 C   0  0  1  0  0  0  0  0  0  0  0  0
   27.7773  -19.5847   -8.3571 C   0  0  0  0  0  0  0  0  0  0  0  0
   28.1244  -19.8005   -6.9526 C   0  0  0  0  0  0  0  0  0  0  0  0
   29.0233  -20.7810   -6.6005 C   0  0  0  0  0  0  0  0  0  0  0  0
   29.3376  -20.9695   -5.2748 C   0  0  0  0  0  0  0  0  0  0  0  0
   28.7788  -20.2029   -4.2688 C   0  0  0  0  0  0  0  0  0  0  0  0
   27.8811  -19.2300   -4.6696 C   0  0  0  0  0  0  0  0  0  0  0  0
   27.5354  -19.0032   -5.9758 C   0  0  0  0  0  0  0  0  0  0  0  0
   25.6562  -20.8386   -8.0917 C   0  0  0  0  0  0  0  0  0  0  0  0
   25.6266  -21.5998   -6.9253 O   0  0  0  0  0  0  0  0  0  0  0  0
   24.5617  -20.2806   -8.4065 O   0  0  0  0  0  0  0  0  0  0  0  0
  2  1  1  6
  3  4  1  0
  3  2  1  0
  4  9  1  0
  4  5  2  0
  5  6  1  0
  6  7  2  0
  8  7  1  0
  9  8  2  0
 10 11  2  0
 10  2  1  0
 13 12  1  6
 13 14  1  0
 13 15  1  0
 16 15  1  1
 16 17  1  0
 17 10  1  0
 18 16  1  0
 19 18  2  0
 20 18  1  0
 21 20  1  0
 21 22  1  1
 22 23  1  0
 23 28  1  0
 24 23  2  0
 24 25  1  0
 25 26  2  0
 26 27  1  0
 28 27  2  0
 29 30  1  0
 29 21  1  0
 31 29  2  0
M  END
$$$$
