FLF.pdb
     RDKit          3D

 31 32  0  0  1  0  0  0  0  0999 V2000
   27.1284  -20.1601  -14.7680 N   0  0  0  0  0  0  0  0  0  0  0  0
   27.3825  -19.7461  -13.4253 C   0  0  1  0  0  0  0  0  0  0  0  0
   26.1867  -19.0471  -12.8666 C   0  0  0  0  0  0  0  0  0  0  0  0
   26.0364  -17.7579  -13.6218 C   0  0  0  0  0  0  0  0  0  0  0  0
   26.9794  -16.7632  -13.5375 C   0  0  0  0  0  0  0  0  0  0  0  0
   26.8827  -15.5643  -14.2126 C   0  0  0  0  0  0  0  0  0  0  0  0
   25.7717  -15.3638  -15.0150 C   0  0  0  0  0  0  0  0  0  0  0  0
   24.7908  -16.3434  -15.1310 C   0  0  0  0  0  0  0  0  0  0  0  0
   24.9382  -17.5272  -14.4317 C   0  0  0  0  0  0  0  0  0  0  0  0
   27.8914  -20.8349  -12.5600 C   0  0  0  0  0  0  0  0  0  0  0  0
   27.3372  -21.9676  -12.6116 O   0  0  0  0  0  0  0  0  0  0  0  0
   32.6772  -21.9339   -8.7541 C   0  0  0  0  0  0  0  0  0  0  0  0
   31.3008  -22.4625   -9.1998 C   0  0  2  0  0  0  0  0  0  0  0  0
   31.5951  -23.8334   -9.7662 C   0  0  0  0  0  0  0  0  0  0  0  0
   30.7845  -21.4941  -10.1969 C   0  0  0  0  0  0  0  0  0  0  0  0
   29.4154  -21.6915  -10.7172 C   0  0  2  0  0  0  0  0  0  0  0  0
   28.9760  -20.6915  -11.6626 N   0  0  0  0  0  0  0  0  0  0  0  0
   28.4276  -21.8488   -9.6427 C   0  0  0  0  0  0  0  0  0  0  0  0
   28.3945  -22.8218   -8.8503 O   0  0  0  0  0  0  0  0  0  0  0  0
   27.4322  -20.8520   -9.4570 N   0  0  0  0  0  0  0  0  0  0  0  0
   26.5298  -20.8614   -8.3162 C   0  0  1  0  0  0  0  0  0  0  0  0
   26.6407  -19.4410   -7.7341 C   0  0  0  0  0  0  0  0  0  0  0  0
   27.4607  -19.3815   -6.5243 C   0  0  0  0  0  0  0  0  0  0  0  0
   28.0147  -20.5276   -6.0018 C   0  0  0  0  0  0  0  0  0  0  0  0
   28.7830  -20.4524   -4.8635 C   0  0  0  0  0  0  0  0  0  0  0  0
   29.0239  -19.2552   -4.2148 C   0  0  0  0  0  0  0  0  0  0  0  0
   28.4472  -18.1301   -4.7757 C   0  0  0  0  0  0  0  0  0  0  0  0
   27.6747  -18.1528   -5.9070 C   0  0  0  0  0  0  0  0  0  0  0  0
   25.1482  -21.1987   -8.6422 C   0  0  0  0  0  0  0  0  0  0  0  0
   24.2488  -21.7430   -7.7280 O   0  0  0  0  0  0  0  0  0  0  0  0
   24.6902  -21.0063   -9.8091 O   0  0  0  0  0  0  0  0  0  0  0  0
  2  1  1  6
  3  4  1  0
  3  2  1  0
  4  9  1  0
  4  5  2  0
  5  6  1  0
  6  7  2  0
  8  7  1  0
  9  8  2  0
 10 11  2  0
 10  2  1  0
 13 12  1  6
 13 14  1  0
 13 15  1  0
 16 15  1  1
 16 17  1  0
 17 10  1  0
 18 16  1  0
 19 18  2  0
 20 18  1  0
 21 20  1  0
 21 22  1  6
 22 23  1  0
 23 28  1  0
 24 23  2  0
 24 25  1  0
 25 26  2  0
 26 27  1  0
 28 27  2  0
 29 30  1  0
 29 21  1  0
 31 29  2  0
M  END
$$$$
