FLF.pdb
     RDKit          3D

 31 32  0  0  1  0  0  0  0  0999 V2000
   28.3118  -20.9244  -14.3919 N   0  0  0  0  0  0  0  0  0  0  0  0
   27.3677  -20.0958  -13.7131 C   0  0  1  0  0  0  0  0  0  0  0  0
   26.5066  -19.3794  -14.7011 C   0  0  0  0  0  0  0  0  0  0  0  0
   27.3811  -18.3849  -15.4090 C   0  0  0  0  0  0  0  0  0  0  0  0
   27.7005  -17.1771  -14.8389 C   0  0  0  0  0  0  0  0  0  0  0  0
   28.4991  -16.2343  -15.4519 C   0  0  0  0  0  0  0  0  0  0  0  0
   28.9999  -16.5320  -16.7085 C   0  0  0  0  0  0  0  0  0  0  0  0
   28.7029  -17.7430  -17.3250 C   0  0  0  0  0  0  0  0  0  0  0  0
   27.8969  -18.6524  -16.6650 C   0  0  0  0  0  0  0  0  0  0  0  0
   26.6015  -20.8113  -12.6671 C   0  0  0  0  0  0  0  0  0  0  0  0
   26.1140  -21.9448  -12.9328 O   0  0  0  0  0  0  0  0  0  0  0  0
   27.4507  -21.8211   -8.4621 C   0  0  0  0  0  0  0  0  0  0  0  0
   26.9680  -20.3603   -8.5380 C   0  0  2  0  0  0  0  0  0  0  0  0
   27.0966  -19.8525   -7.1194 C   0  0  0  0  0  0  0  0  0  0  0  0
   25.5734  -20.4070   -9.0396 C   0  0  0  0  0  0  0  0  0  0  0  0
   25.3529  -20.7689  -10.4554 C   0  0  2  0  0  0  0  0  0  0  0  0
   26.3732  -20.3036  -11.3661 N   0  0  0  0  0  0  0  0  0  0  0  0
   24.0222  -20.3722  -10.9319 C   0  0  0  0  0  0  0  0  0  0  0  0
   23.6875  -19.1902  -11.1896 O   0  0  0  0  0  0  0  0  0  0  0  0
   23.0255  -21.3656  -11.1286 N   0  0  0  0  0  0  0  0  0  0  0  0
   21.7630  -21.0758  -11.7905 C   0  0  1  0  0  0  0  0  0  0  0  0
   22.1570  -20.7963  -13.2517 C   0  0  0  0  0  0  0  0  0  0  0  0
   21.0018  -20.6216  -14.1318 C   0  0  0  0  0  0  0  0  0  0  0  0
   20.4277  -19.3809  -14.2888 C   0  0  0  0  0  0  0  0  0  0  0  0
   19.3419  -19.2356  -15.1205 C   0  0  0  0  0  0  0  0  0  0  0  0
   18.7973  -20.3006  -15.8141 C   0  0  0  0  0  0  0  0  0  0  0  0
   19.4067  -21.5278  -15.6255 C   0  0  0  0  0  0  0  0  0  0  0  0
   20.4892  -21.7240  -14.8088 C   0  0  0  0  0  0  0  0  0  0  0  0
   20.7742  -22.1448  -11.6990 C   0  0  0  0  0  0  0  0  0  0  0  0
   19.4065  -21.9228  -11.5545 O   0  0  0  0  0  0  0  0  0  0  0  0
   21.1268  -23.3621  -11.7476 O   0  0  0  0  0  0  0  0  0  0  0  0
  2  1  1  6
  3  4  1  0
  3  2  1  0
  4  9  1  0
  4  5  2  0
  5  6  1  0
  6  7  2  0
  8  7  1  0
  9  8  2  0
 10 11  2  0
 10  2  1  0
 13 12  1  1
 13 14  1  0
 13 15  1  0
 16 15  1  1
 16 17  1  0
 17 10  1  0
 18 16  1  0
 19 18  2  0
 20 18  1  0
 21 20  1  0
 21 22  1  6
 22 23  1  0
 23 28  1  0
 24 23  2  0
 24 25  1  0
 25 26  2  0
 26 27  1  0
 28 27  2  0
 29 30  1  0
 29 21  1  0
 31 29  2  0
M  END
$$$$
