FLF.pdb
     RDKit          3D

 31 32  0  0  1  0  0  0  0  0999 V2000
   29.7183  -19.0108   10.0899 N   0  0  0  0  0  0  0  0  0  0  0  0
   30.2807  -20.2071   10.6296 C   0  0  1  0  0  0  0  0  0  0  0  0
   29.4019  -20.7484   11.7091 C   0  0  0  0  0  0  0  0  0  0  0  0
   29.5996  -19.8782   12.9167 C   0  0  0  0  0  0  0  0  0  0  0  0
   28.6348  -18.9915   13.3276 C   0  0  0  0  0  0  0  0  0  0  0  0
   28.7733  -18.1734   14.4294 C   0  0  0  0  0  0  0  0  0  0  0  0
   29.9517  -18.2589   15.1521 C   0  0  0  0  0  0  0  0  0  0  0  0
   30.9570  -19.1426   14.7733 C   0  0  0  0  0  0  0  0  0  0  0  0
   30.7655  -19.9399   13.6599 C   0  0  0  0  0  0  0  0  0  0  0  0
   30.6374  -21.2075    9.5975 C   0  0  0  0  0  0  0  0  0  0  0  0
   29.8317  -21.4241    8.6505 O   0  0  0  0  0  0  0  0  0  0  0  0
   35.5664  -23.7277    7.0679 C   0  0  0  0  0  0  0  0  0  0  0  0
   34.0302  -23.8366    7.0974 C   0  0  2  0  0  0  0  0  0  0  0  0
   33.6126  -23.5865    5.6657 C   0  0  0  0  0  0  0  0  0  0  0  0
   33.5570  -22.8073    8.0541 C   0  0  0  0  0  0  0  0  0  0  0  0
   32.2025  -22.9565    8.6260 C   0  0  2  0  0  0  0  0  0  0  0  0
   31.8410  -21.9517    9.5989 N   0  0  0  0  0  0  0  0  0  0  0  0
   31.9711  -24.3008    9.1688 C   0  0  0  0  0  0  0  0  0  0  0  0
   32.8649  -25.1718    9.3035 O   0  0  0  0  0  0  0  0  0  0  0  0
   30.6632  -24.6721    9.5817 N   0  0  0  0  0  0  0  0  0  0  0  0
   30.3271  -26.0373    9.9549 C   0  0  1  0  0  0  0  0  0  0  0  0
   29.1068  -25.8872   10.8806 C   0  0  0  0  0  0  0  0  0  0  0  0
   29.4168  -25.1844   12.1254 C   0  0  0  0  0  0  0  0  0  0  0  0
   30.3720  -25.6779   12.9841 C   0  0  0  0  0  0  0  0  0  0  0  0
   30.6502  -25.0037   14.1501 C   0  0  0  0  0  0  0  0  0  0  0  0
   29.9995  -23.8344   14.4983 C   0  0  0  0  0  0  0  0  0  0  0  0
   29.0478  -23.3761   13.6055 C   0  0  0  0  0  0  0  0  0  0  0  0
   28.7348  -24.0108   12.4323 C   0  0  0  0  0  0  0  0  0  0  0  0
   30.0374  -26.9172    8.8276 C   0  0  0  0  0  0  0  0  0  0  0  0
   29.9808  -26.4854    7.5043 O   0  0  0  0  0  0  0  0  0  0  0  0
   29.8165  -28.1530    9.0078 O   0  0  0  0  0  0  0  0  0  0  0  0
  2  1  1  6
  3  4  1  0
  3  2  1  0
  4  9  1  0
  4  5  2  0
  5  6  1  0
  6  7  2  0
  8  7  1  0
  9  8  2  0
 10 11  2  0
 10  2  1  0
 13 12  1  6
 13 14  1  0
 13 15  1  0
 16 15  1  1
 16 17  1  0
 17 10  1  0
 18 16  1  0
 19 18  2  0
 20 18  1  0
 21 20  1  0
 21 22  1  1
 22 23  1  0
 23 28  1  0
 24 23  2  0
 24 25  1  0
 25 26  2  0
 26 27  1  0
 28 27  2  0
 29 30  1  0
 29 21  1  0
 31 29  2  0
M  END
$$$$
