QRM.pdb
     RDKit          3D

 29 28  0  0  1  0  0  0  0  0999 V2000
   25.4407  -13.2391  -14.6304 N   0  0  0  0  0  0  0  0  0  0  0  0
   26.1125  -13.6791  -15.8214 C   0  0  0  0  0  0  0  0  0  0  0  0
   26.5482  -12.8590  -16.6898 O   0  0  0  0  0  0  0  0  0  0  0  0
   26.2452  -15.0967  -16.1548 C   0  0  0  0  0  0  0  0  0  0  0  0
   25.8638  -15.9609  -14.9417 C   0  0  0  0  0  0  0  0  0  0  0  0
   26.4147  -17.2746  -15.2513 C   0  0  2  0  0  0  0  0  0  0  0  0
   25.6574  -17.7531  -16.4781 N   0  0  0  0  0  0  0  0  0  0  0  0
   26.1337  -18.4522  -14.3507 C   0  0  0  0  0  0  0  0  0  0  0  0
   25.0491  -18.9559  -14.1052 O   0  0  0  0  0  0  0  0  0  0  0  0
   24.6448  -24.7139  -15.4891 N   0  0  0  0  0  0  0  0  0  0  0  0
   25.9807  -24.9930  -15.5362 C   0  0  0  0  0  0  0  0  0  0  0  0
   26.5198  -26.0507  -15.3552 N   0  0  0  0  0  0  0  0  0  0  0  0
   26.9520  -23.9479  -15.9518 N   0  0  0  0  0  0  0  0  0  0  0  0
   26.4555  -22.6026  -16.3598 C   0  0  0  0  0  0  0  0  0  0  0  0
   26.2788  -21.7355  -15.2870 C   0  0  0  0  0  0  0  0  0  0  0  0
   27.0788  -21.4818  -14.0855 C   0  0  0  0  0  0  0  0  0  0  0  0
   26.6513  -20.4738  -13.2201 C   0  0  2  0  0  0  0  0  0  0  0  0
   27.3178  -19.1219  -13.5980 N   0  0  0  0  0  0  0  0  0  0  0  0
   26.5122  -20.5034  -11.8188 C   0  0  0  0  0  0  0  0  0  0  0  0
   27.6433  -20.4310  -11.0612 O   0  0  0  0  0  0  0  0  0  0  0  0
   27.5462  -26.4178  -15.2785 C   0  0  0  0  0  0  0  0  0  0  0  0
   28.7081  -19.2944   -5.4462 S   0  0  0  0  0  0  0  0  0  0  0  0
   28.0278  -18.9461   -7.0800 C   0  0  0  0  0  0  0  0  0  0  0  0
   26.8307  -20.1930   -7.6481 C   0  0  0  0  0  0  0  0  0  0  0  0
   26.5343  -19.9397   -9.0380 C   0  0  2  0  0  0  0  0  0  0  0  0
   25.4183  -20.9545   -9.6483 N   0  0  0  0  0  0  0  0  0  0  0  0
   25.3872  -20.4464  -10.9486 C   0  0  0  0  0  0  0  0  0  0  0  0
   24.2969  -20.9057   -8.7618 O   0  0  0  0  0  0  0  0  0  0  0  0
   24.3999  -21.4453   -7.4797 O   0  0  0  0  0  0  0  0  0  0  0  0
  1  2  1  0
  2  3  2  0
  4  2  1  0
  4  5  1  0
  6  5  1  0
  6  7  1  6
  8  6  1  0
  8  9  2  0
 10 11  1  0
 11 13  1  0
 11 12  2  0
 13 14  1  0
 14 15  1  0
 16 15  1  0
 17 16  1  1
 18 17  1  0
 18  8  1  0
 19 20  2  0
 19 17  1  0
 22 23  1  0
 22 21  1  0
 23 24  1  0
 25 24  1  6
 25 26  1  0
 25 27  1  0
 26 19  1  0
 27 28  1  0
 29 27  2  0
M  END
$$$$
