QRM.pdb
     RDKit          3D

 29 28  0  0  1  0  0  0  0  0999 V2000
   19.2595  -23.4313  -14.5033 N   0  0  0  0  0  0  0  0  0  0  0  0
   19.3920  -23.0340  -13.1293 C   0  0  0  0  0  0  0  0  0  0  0  0
   19.7407  -21.8564  -12.8003 O   0  0  0  0  0  0  0  0  0  0  0  0
   19.2330  -23.9860  -12.0308 C   0  0  0  0  0  0  0  0  0  0  0  0
   18.9829  -25.3967  -12.5887 C   0  0  0  0  0  0  0  0  0  0  0  0
   20.1323  -26.1698  -12.1343 C   0  0  2  0  0  0  0  0  0  0  0  0
   20.8727  -26.5757  -13.3970 N   0  0  0  0  0  0  0  0  0  0  0  0
   19.9423  -27.5451  -11.5433 C   0  0  0  0  0  0  0  0  0  0  0  0
   19.3427  -28.4875  -12.0357 O   0  0  0  0  0  0  0  0  0  0  0  0
   25.4481  -33.4425  -10.3312 N   0  0  0  0  0  0  0  0  0  0  0  0
   24.1889  -33.6721  -10.8069 C   0  0  0  0  0  0  0  0  0  0  0  0
   23.7692  -34.6672  -11.3321 N   0  0  0  0  0  0  0  0  0  0  0  0
   23.1145  -32.6656  -10.6044 N   0  0  0  0  0  0  0  0  0  0  0  0
   23.4050  -31.4251   -9.8301 C   0  0  0  0  0  0  0  0  0  0  0  0
   22.2857  -30.6211   -9.6436 C   0  0  0  0  0  0  0  0  0  0  0  0
   21.2799  -30.1043  -10.5759 C   0  0  0  0  0  0  0  0  0  0  0  0
   20.2207  -29.3657  -10.0464 C   0  0  2  0  0  0  0  0  0  0  0  0
   20.5281  -27.8451  -10.1347 N   0  0  0  0  0  0  0  0  0  0  0  0
   19.4864  -29.5841   -8.8644 C   0  0  0  0  0  0  0  0  0  0  0  0
   19.6427  -28.6980   -7.8402 O   0  0  0  0  0  0  0  0  0  0  0  0
   22.8073  -35.0223  -11.7100 C   0  0  0  0  0  0  0  0  0  0  0  0
   12.8524  -32.3300   -5.6962 S   0  0  0  0  0  0  0  0  0  0  0  0
   14.1252  -32.2631   -6.9725 C   0  0  0  0  0  0  0  0  0  0  0  0
   15.6433  -31.4140   -6.4388 C   0  0  0  0  0  0  0  0  0  0  0  0
   16.5153  -31.2792   -7.5813 C   0  0  2  0  0  0  0  0  0  0  0  0
   17.9451  -30.5935   -7.2162 N   0  0  0  0  0  0  0  0  0  0  0  0
   18.4466  -30.4915   -8.5154 C   0  0  0  0  0  0  0  0  0  0  0  0
   18.5433  -31.4135   -6.2084 O   0  0  0  0  0  0  0  0  0  0  0  0
   18.3120  -31.1388   -4.8606 O   0  0  0  0  0  0  0  0  0  0  0  0
  1  2  1  0
  2  3  2  0
  4  2  1  0
  4  5  1  0
  6  5  1  0
  6  7  1  6
  8  6  1  0
  8  9  2  0
 10 11  1  0
 11 13  1  0
 11 12  2  0
 13 14  1  0
 14 15  1  0
 16 15  1  0
 17 16  1  1
 18 17  1  0
 18  8  1  0
 19 20  2  0
 19 17  1  0
 22 23  1  0
 22 21  1  0
 23 24  1  0
 25 24  1  6
 25 26  1  0
 25 27  1  0
 26 19  1  0
 27 28  1  0
 29 27  2  0
M  END
$$$$
