QRM.pdb
     RDKit          3D

 29 28  0  0  1  0  0  0  0  0999 V2000
   22.7561  -13.9615  -15.6124 N   0  0  0  0  0  0  0  0  0  0  0  0
   22.1584  -14.9703  -16.4420 C   0  0  0  0  0  0  0  0  0  0  0  0
   22.5662  -16.1745  -16.4360 O   0  0  0  0  0  0  0  0  0  0  0  0
   21.1146  -14.6516  -17.4153 C   0  0  0  0  0  0  0  0  0  0  0  0
   20.7240  -13.1689  -17.3022 C   0  0  0  0  0  0  0  0  0  0  0  0
   19.5073  -13.1800  -16.4993 C   0  0  2  0  0  0  0  0  0  0  0  0
   18.4216  -13.7174  -17.4157 N   0  0  0  0  0  0  0  0  0  0  0  0
   18.8387  -11.8852  -16.1078 C   0  0  0  0  0  0  0  0  0  0  0  0
   18.3926  -11.0264  -16.8519 O   0  0  0  0  0  0  0  0  0  0  0  0
   11.6974   -8.0704  -13.5671 N   0  0  0  0  0  0  0  0  0  0  0  0
   12.5915   -7.1295  -13.9916 C   0  0  0  0  0  0  0  0  0  0  0  0
   12.4364   -5.9404  -14.0542 N   0  0  0  0  0  0  0  0  0  0  0  0
   13.9820   -7.5192  -14.3424 N   0  0  0  0  0  0  0  0  0  0  0  0
   14.4222   -8.9301  -14.1467 C   0  0  0  0  0  0  0  0  0  0  0  0
   15.7744   -9.1232  -14.4078 C   0  0  0  0  0  0  0  0  0  0  0  0
   16.6159  -10.3231  -14.4001 C   0  0  0  0  0  0  0  0  0  0  0  0
   17.9671  -10.1722  -14.7155 C   0  0  2  0  0  0  0  0  0  0  0  0
   18.7022  -11.5361  -14.5989 N   0  0  0  0  0  0  0  0  0  0  0  0
   18.8680   -9.1667  -14.3137 C   0  0  0  0  0  0  0  0  0  0  0  0
   19.0615   -8.9766  -12.9777 O   0  0  0  0  0  0  0  0  0  0  0  0
   13.0449   -5.0713  -14.3162 C   0  0  0  0  0  0  0  0  0  0  0  0
   24.7949  -10.7525  -15.3359 S   0  0  0  0  0  0  0  0  0  0  0  0
   24.1390   -9.0754  -15.4368 C   0  0  0  0  0  0  0  0  0  0  0  0
   22.4997   -8.8904  -14.6692 C   0  0  0  0  0  0  0  0  0  0  0  0
   21.9544   -7.6130  -15.0623 C   0  0  2  0  0  0  0  0  0  0  0  0
   20.4979   -7.3102  -14.4031 N   0  0  0  0  0  0  0  0  0  0  0  0
   19.7891   -8.3430  -15.0203 C   0  0  0  0  0  0  0  0  0  0  0  0
   20.2260   -5.9256  -14.6370 O   0  0  0  0  0  0  0  0  0  0  0  0
   20.9699   -4.9492  -13.9746 O   0  0  0  0  0  0  0  0  0  0  0  0
  1  2  1  0
  2  3  2  0
  4  2  1  0
  4  5  1  0
  6  5  1  0
  6  7  1  6
  8  6  1  0
  8  9  2  0
 10 11  1  0
 11 13  1  0
 11 12  2  0
 13 14  1  0
 14 15  1  0
 16 15  1  0
 17 16  1  1
 18 17  1  0
 18  8  1  0
 19 20  2  0
 19 17  1  0
 22 23  1  0
 22 21  1  0
 23 24  1  0
 25 24  1  1
 25 26  1  0
 25 27  1  0
 26 19  1  0
 27 28  1  0
 29 27  2  0
M  END
$$$$
