QRM.pdb
     RDKit          3D

 29 28  0  0  1  0  0  0  0  0999 V2000
   18.1365  -31.8013  -11.5188 N   0  0  0  0  0  0  0  0  0  0  0  0
   19.0161  -32.8832  -11.8638 C   0  0  0  0  0  0  0  0  0  0  0  0
   18.6984  -34.0980  -11.6644 O   0  0  0  0  0  0  0  0  0  0  0  0
   20.3678  -32.6487  -12.3699 C   0  0  0  0  0  0  0  0  0  0  0  0
   20.5704  -31.1518  -12.6565 C   0  0  0  0  0  0  0  0  0  0  0  0
   21.8553  -31.0899  -13.3424 C   0  0  2  0  0  0  0  0  0  0  0  0
   22.8925  -31.4540  -12.2942 N   0  0  0  0  0  0  0  0  0  0  0  0
   22.4321  -29.7612  -13.7652 C   0  0  0  0  0  0  0  0  0  0  0  0
   23.1173  -29.0038  -13.0966 O   0  0  0  0  0  0  0  0  0  0  0  0
   27.4682  -24.8968  -16.0064 N   0  0  0  0  0  0  0  0  0  0  0  0
   27.5171  -25.9978  -16.8126 C   0  0  0  0  0  0  0  0  0  0  0  0
   28.4012  -26.8053  -16.9050 N   0  0  0  0  0  0  0  0  0  0  0  0
   26.3398  -26.3790  -17.6354 N   0  0  0  0  0  0  0  0  0  0  0  0
   24.9985  -25.8186  -17.3045 C   0  0  0  0  0  0  0  0  0  0  0  0
   24.4310  -26.3896  -16.1704 C   0  0  0  0  0  0  0  0  0  0  0  0
   23.8815  -27.7232  -15.9109 C   0  0  0  0  0  0  0  0  0  0  0  0
   22.7611  -27.8156  -15.0840 C   0  0  2  0  0  0  0  0  0  0  0  0
   22.1265  -29.2297  -15.1939 N   0  0  0  0  0  0  0  0  0  0  0  0
   21.7142  -26.8919  -14.8970 C   0  0  0  0  0  0  0  0  0  0  0  0
   20.8693  -27.0858  -13.8447 O   0  0  0  0  0  0  0  0  0  0  0  0
   28.5759  -27.7348  -17.4525 C   0  0  0  0  0  0  0  0  0  0  0  0
   18.1285  -25.3034   -9.9344 S   0  0  0  0  0  0  0  0  0  0  0  0
   19.4606  -25.8218  -11.0345 C   0  0  0  0  0  0  0  0  0  0  0  0
   19.5823  -24.8197  -12.5484 C   0  0  0  0  0  0  0  0  0  0  0  0
   20.6477  -25.3532  -13.3632 C   0  0  2  0  0  0  0  0  0  0  0  0
   20.7924  -24.6003  -14.7985 N   0  0  0  0  0  0  0  0  0  0  0  0
   21.3933  -25.6450  -15.5038 C   0  0  0  0  0  0  0  0  0  0  0  0
   21.4443  -23.3538  -14.5395 O   0  0  0  0  0  0  0  0  0  0  0  0
   22.7157  -23.1126  -15.0603 O   0  0  0  0  0  0  0  0  0  0  0  0
  1  2  1  0
  2  3  2  0
  4  2  1  0
  4  5  1  0
  6  5  1  0
  6  7  1  1
  8  6  1  0
  8  9  2  0
 10 11  1  0
 11 13  1  0
 11 12  2  0
 13 14  1  0
 14 15  1  0
 16 15  1  0
 17 16  1  6
 18 17  1  0
 18  8  1  0
 19 20  2  0
 19 17  1  0
 22 23  1  0
 22 21  1  0
 23 24  1  0
 25 24  1  6
 25 26  1  0
 25 27  1  0
 26 19  1  0
 27 28  1  0
 29 27  2  0
M  END
$$$$
