QRM.pdb
     RDKit          3D

 29 28  0  0  1  0  0  0  0  0999 V2000
   22.1091  -23.2134  -20.7376 N   0  0  0  0  0  0  0  0  0  0  0  0
   21.5327  -21.9004  -20.8210 C   0  0  0  0  0  0  0  0  0  0  0  0
   20.4678  -21.6738  -21.4776 O   0  0  0  0  0  0  0  0  0  0  0  0
   22.1901  -20.7297  -20.2417 C   0  0  0  0  0  0  0  0  0  0  0  0
   23.4592  -21.1580  -19.4870 C   0  0  0  0  0  0  0  0  0  0  0  0
   23.6828  -20.0851  -18.5258 C   0  0  2  0  0  0  0  0  0  0  0  0
   25.1408  -19.6914  -18.6893 N   0  0  0  0  0  0  0  0  0  0  0  0
   23.7024  -20.3775  -17.0456 C   0  0  0  0  0  0  0  0  0  0  0  0
   23.1775  -21.3162  -16.4681 O   0  0  0  0  0  0  0  0  0  0  0  0
   27.2021  -22.9235  -16.8938 N   0  0  0  0  0  0  0  0  0  0  0  0
   28.3210  -22.8355  -16.1159 C   0  0  0  0  0  0  0  0  0  0  0  0
   29.4480  -23.1280  -16.4095 N   0  0  0  0  0  0  0  0  0  0  0  0
   28.2494  -22.2224  -14.7640 N   0  0  0  0  0  0  0  0  0  0  0  0
   26.9187  -21.9534  -14.1478 C   0  0  0  0  0  0  0  0  0  0  0  0
   26.5304  -20.6214  -14.2425 C   0  0  0  0  0  0  0  0  0  0  0  0
   25.2844  -19.9332  -13.8935 C   0  0  0  0  0  0  0  0  0  0  0  0
   24.1869  -20.1066  -14.7380 C   0  0  2  0  0  0  0  0  0  0  0  0
   24.4325  -19.3883  -16.0938 N   0  0  0  0  0  0  0  0  0  0  0  0
   22.8130  -20.0047  -14.4444 C   0  0  0  0  0  0  0  0  0  0  0  0
   22.2212  -18.7825  -14.5649 O   0  0  0  0  0  0  0  0  0  0  0  0
   30.4315  -23.0815  -15.9353 C   0  0  0  0  0  0  0  0  0  0  0  0
   19.4842  -17.5361  -17.0924 S   0  0  0  0  0  0  0  0  0  0  0  0
   18.1500  -18.4701  -16.3172 C   0  0  0  0  0  0  0  0  0  0  0  0
   18.6503  -19.3130  -14.7843 C   0  0  0  0  0  0  0  0  0  0  0  0
   20.0072  -19.7793  -14.9430 C   0  0  1  0  0  0  0  0  0  0  0  0
   20.5506  -20.6133  -13.6557 N   0  0  0  0  0  0  0  0  0  0  0  0
   21.8003  -20.9663  -14.1691 C   0  0  0  0  0  0  0  0  0  0  0  0
   19.5375  -21.5705  -13.3347 O   0  0  0  0  0  0  0  0  0  0  0  0
   19.7009  -22.9060  -13.7028 O   0  0  0  0  0  0  0  0  0  0  0  0
  1  2  1  0
  2  3  2  0
  4  2  1  0
  4  5  1  0
  6  5  1  0
  6  7  1  6
  8  6  1  0
  8  9  2  0
 10 11  1  0
 11 13  1  0
 11 12  2  0
 13 14  1  0
 14 15  1  0
 16 15  1  0
 17 16  1  1
 18 17  1  0
 18  8  1  0
 19 20  2  0
 19 17  1  0
 22 23  1  0
 22 21  1  0
 23 24  1  0
 25 24  1  1
 25 26  1  0
 25 27  1  0
 26 19  1  0
 27 28  1  0
 29 27  2  0
M  END
$$$$
