QRM.pdb
     RDKit          3D

 29 28  0  0  1  0  0  0  0  0999 V2000
   22.3717  -31.4023  -20.1889 N   0  0  0  0  0  0  0  0  0  0  0  0
   23.0480  -32.5592  -19.6719 C   0  0  0  0  0  0  0  0  0  0  0  0
   23.3106  -33.5668  -20.4015 O   0  0  0  0  0  0  0  0  0  0  0  0
   23.3835  -32.6891  -18.2545 C   0  0  0  0  0  0  0  0  0  0  0  0
   22.9913  -31.4076  -17.5010 C   0  0  0  0  0  0  0  0  0  0  0  0
   24.1957  -31.0425  -16.7654 C   0  0  2  0  0  0  0  0  0  0  0  0
   23.8810  -29.7100  -16.1077 N   0  0  0  0  0  0  0  0  0  0  0  0
   25.4456  -30.6298  -17.5032 C   0  0  0  0  0  0  0  0  0  0  0  0
   25.9453  -29.5171  -17.5509 O   0  0  0  0  0  0  0  0  0  0  0  0
   33.5406  -31.0100  -16.3106 N   0  0  0  0  0  0  0  0  0  0  0  0
   32.5528  -31.9514  -16.2591 C   0  0  0  0  0  0  0  0  0  0  0  0
   32.5697  -33.0072  -15.6872 N   0  0  0  0  0  0  0  0  0  0  0  0
   31.2254  -31.6814  -16.8703 N   0  0  0  0  0  0  0  0  0  0  0  0
   31.0100  -30.4187  -17.6332 C   0  0  0  0  0  0  0  0  0  0  0  0
   29.7540  -30.3444  -18.2257 C   0  0  0  0  0  0  0  0  0  0  0  0
   28.4634  -30.9426  -17.8731 C   0  0  0  0  0  0  0  0  0  0  0  0
   27.4236  -30.8384  -18.7982 C   0  0  2  0  0  0  0  0  0  0  0  0
   26.2094  -31.6935  -18.3413 N   0  0  0  0  0  0  0  0  0  0  0  0
   27.4753  -30.8888  -20.2049 C   0  0  0  0  0  0  0  0  0  0  0  0
   26.7326  -31.8398  -20.8394 O   0  0  0  0  0  0  0  0  0  0  0  0
   31.8841  -33.8463  -15.5453 C   0  0  0  0  0  0  0  0  0  0  0  0
   26.4716  -26.4821  -24.2307 S   0  0  0  0  0  0  0  0  0  0  0  0
   26.4571  -27.9108  -25.3316 C   0  0  0  0  0  0  0  0  0  0  0  0
   27.3542  -29.3476  -24.6670 C   0  0  0  0  0  0  0  0  0  0  0  0
   27.4290  -29.2137  -23.2316 C   0  0  2  0  0  0  0  0  0  0  0  0
   28.2264  -30.4387  -22.5166 N   0  0  0  0  0  0  0  0  0  0  0  0
   28.0474  -30.0369  -21.1913 C   0  0  0  0  0  0  0  0  0  0  0  0
   29.5087  -30.5110  -23.1461 O   0  0  0  0  0  0  0  0  0  0  0  0
   30.6440  -30.0734  -22.4639 O   0  0  0  0  0  0  0  0  0  0  0  0
  1  2  1  0
  2  3  2  0
  4  2  1  0
  4  5  1  0
  6  5  1  0
  6  7  1  1
  8  6  1  0
  8  9  2  0
 10 11  1  0
 11 13  1  0
 11 12  2  0
 13 14  1  0
 14 15  1  0
 16 15  1  0
 17 16  1  1
 18 17  1  0
 18  8  1  0
 19 20  2  0
 19 17  1  0
 22 23  1  0
 22 21  1  0
 23 24  1  0
 25 24  1  1
 25 26  1  0
 25 27  1  0
 26 19  1  0
 27 28  1  0
 29 27  2  0
M  END
$$$$
