QRM.pdb
     RDKit          3D

 29 28  0  0  1  0  0  0  0  0999 V2000
   31.4643  -22.5299  -11.9411 N   0  0  0  0  0  0  0  0  0  0  0  0
   31.8217  -22.1374  -13.2757 C   0  0  0  0  0  0  0  0  0  0  0  0
   32.6657  -22.7915  -13.9659 O   0  0  0  0  0  0  0  0  0  0  0  0
   31.3137  -20.9072  -13.8816 C   0  0  0  0  0  0  0  0  0  0  0  0
   30.2650  -20.2612  -12.9615 C   0  0  0  0  0  0  0  0  0  0  0  0
   28.9944  -20.7929  -13.4389 C   0  0  2  0  0  0  0  0  0  0  0  0
   28.8480  -20.2784  -14.8606 N   0  0  0  0  0  0  0  0  0  0  0  0
   27.6915  -20.2711  -12.8848 C   0  0  0  0  0  0  0  0  0  0  0  0
   27.5372  -19.3642  -12.0824 O   0  0  0  0  0  0  0  0  0  0  0  0
   20.4713  -23.5482  -13.3795 N   0  0  0  0  0  0  0  0  0  0  0  0
   20.0399  -22.3552  -12.8741 C   0  0  0  0  0  0  0  0  0  0  0  0
   19.1464  -22.1645  -12.0948 N   0  0  0  0  0  0  0  0  0  0  0  0
   20.7665  -21.0983  -13.1917 N   0  0  0  0  0  0  0  0  0  0  0  0
   22.0573  -21.1625  -13.9350 C   0  0  0  0  0  0  0  0  0  0  0  0
   23.1689  -20.9862  -13.1182 C   0  0  0  0  0  0  0  0  0  0  0  0
   24.1826  -19.9298  -13.0516 C   0  0  0  0  0  0  0  0  0  0  0  0
   25.3732  -20.2120  -12.3802 C   0  0  2  0  0  0  0  0  0  0  0  0
   26.3628  -20.9474  -13.3258 N   0  0  0  0  0  0  0  0  0  0  0  0
   25.5630  -20.7250  -11.0822 C   0  0  0  0  0  0  0  0  0  0  0  0
   25.7727  -22.0653  -10.9475 O   0  0  0  0  0  0  0  0  0  0  0  0
   18.7231  -21.3085  -11.5635 C   0  0  0  0  0  0  0  0  0  0  0  0
   27.5585  -19.3668   -3.5749 S   0  0  0  0  0  0  0  0  0  0  0  0
   27.4404  -18.9888   -5.3345 C   0  0  0  0  0  0  0  0  0  0  0  0
   26.4733  -20.2097   -6.2753 C   0  0  0  0  0  0  0  0  0  0  0  0
   26.4738  -19.8182   -7.6647 C   0  0  1  0  0  0  0  0  0  0  0  0
   25.6191  -20.8272   -8.6128 N   0  0  0  0  0  0  0  0  0  0  0  0
   25.7384  -20.1150   -9.8080 C   0  0  0  0  0  0  0  0  0  0  0  0
   24.3691  -21.0441   -7.9524 O   0  0  0  0  0  0  0  0  0  0  0  0
   24.3130  -21.8547   -6.8187 O   0  0  0  0  0  0  0  0  0  0  0  0
  1  2  1  0
  2  3  2  0
  4  2  1  0
  4  5  1  0
  6  5  1  0
  6  7  1  6
  8  6  1  0
  8  9  2  0
 10 11  1  0
 11 13  1  0
 11 12  2  0
 13 14  1  0
 14 15  1  0
 16 15  1  0
 17 16  1  6
 18 17  1  0
 18  8  1  0
 19 20  2  0
 19 17  1  0
 22 23  1  0
 22 21  1  0
 23 24  1  0
 25 24  1  6
 25 26  1  0
 25 27  1  0
 26 19  1  0
 27 28  1  0
 29 27  2  0
M  END
$$$$
