QRM.pdb
     RDKit          3D

 29 28  0  0  1  0  0  0  0  0999 V2000
   21.8713  -20.7663  -15.1321 N   0  0  0  0  0  0  0  0  0  0  0  0
   22.9646  -21.1804  -15.9667 C   0  0  0  0  0  0  0  0  0  0  0  0
   22.9253  -21.0664  -17.2324 O   0  0  0  0  0  0  0  0  0  0  0  0
   24.1439  -21.8498  -15.4195 C   0  0  0  0  0  0  0  0  0  0  0  0
   24.0299  -21.9503  -13.8895 C   0  0  0  0  0  0  0  0  0  0  0  0
   24.9160  -20.9034  -13.3955 C   0  0  2  0  0  0  0  0  0  0  0  0
   25.7867  -20.5173  -14.5787 N   0  0  0  0  0  0  0  0  0  0  0  0
   26.0156  -21.2327  -12.4161 C   0  0  0  0  0  0  0  0  0  0  0  0
   25.9269  -21.9022  -11.3992 O   0  0  0  0  0  0  0  0  0  0  0  0
   32.7834  -24.5972  -13.6285 N   0  0  0  0  0  0  0  0  0  0  0  0
   33.0691  -23.6730  -12.6647 C   0  0  0  0  0  0  0  0  0  0  0  0
   33.8679  -23.7612  -11.7723 N   0  0  0  0  0  0  0  0  0  0  0  0
   32.4383  -22.3280  -12.7033 N   0  0  0  0  0  0  0  0  0  0  0  0
   31.8608  -21.7502  -11.4561 C   0  0  0  0  0  0  0  0  0  0  0  0
   30.4706  -21.7772  -11.4326 C   0  0  0  0  0  0  0  0  0  0  0  0
   29.4678  -20.7122  -11.3419 C   0  0  0  0  0  0  0  0  0  0  0  0
   28.1226  -21.0842  -11.3340 C   0  0  2  0  0  0  0  0  0  0  0  0
   27.4381  -20.6551  -12.6612 N   0  0  0  0  0  0  0  0  0  0  0  0
   27.1706  -20.9591  -10.3034 C   0  0  0  0  0  0  0  0  0  0  0  0
   26.4693  -19.7932  -10.2174 O   0  0  0  0  0  0  0  0  0  0  0  0
   34.1693  -23.1588  -10.9118 C   0  0  0  0  0  0  0  0  0  0  0  0
   28.5262  -19.6034   -4.5103 S   0  0  0  0  0  0  0  0  0  0  0  0
   27.5793  -18.6858   -5.7411 C   0  0  0  0  0  0  0  0  0  0  0  0
   26.2607  -19.6673   -6.5212 C   0  0  0  0  0  0  0  0  0  0  0  0
   26.8113  -20.3314   -7.6786 C   0  0  1  0  0  0  0  0  0  0  0  0
   25.8213  -21.4661   -8.2951 N   0  0  0  0  0  0  0  0  0  0  0  0
   26.6336  -21.8746   -9.3549 C   0  0  0  0  0  0  0  0  0  0  0  0
   24.5495  -20.8384   -8.4806 O   0  0  0  0  0  0  0  0  0  0  0  0
   23.5442  -21.0095   -7.5289 O   0  0  0  0  0  0  0  0  0  0  0  0
  1  2  1  0
  2  3  2  0
  4  2  1  0
  4  5  1  0
  6  5  1  0
  6  7  1  6
  8  6  1  0
  8  9  2  0
 10 11  1  0
 11 13  1  0
 11 12  2  0
 13 14  1  0
 14 15  1  0
 16 15  1  0
 17 16  1  1
 18 17  1  0
 18  8  1  0
 19 20  2  0
 19 17  1  0
 22 23  1  0
 22 21  1  0
 23 24  1  0
 25 24  1  1
 25 26  1  0
 25 27  1  0
 26 19  1  0
 27 28  1  0
 29 27  2  0
M  END
$$$$
