QRM.pdb
     RDKit          3D

 29 28  0  0  1  0  0  0  0  0999 V2000
   17.0268  -17.2931  -13.2249 N   0  0  0  0  0  0  0  0  0  0  0  0
   17.1412  -17.2434  -14.6559 C   0  0  0  0  0  0  0  0  0  0  0  0
   16.2170  -16.7682  -15.3884 O   0  0  0  0  0  0  0  0  0  0  0  0
   18.2814  -17.8278  -15.3607 C   0  0  0  0  0  0  0  0  0  0  0  0
   19.3055  -18.3675  -14.3489 C   0  0  0  0  0  0  0  0  0  0  0  0
   20.5971  -18.0957  -14.9680 C   0  0  2  0  0  0  0  0  0  0  0  0
   20.3251  -18.0290  -16.4610 N   0  0  0  0  0  0  0  0  0  0  0  0
   21.6711  -19.1553  -14.9909 C   0  0  0  0  0  0  0  0  0  0  0  0
   21.9602  -19.9375  -14.0994 O   0  0  0  0  0  0  0  0  0  0  0  0
   27.4652  -23.4605  -16.7603 N   0  0  0  0  0  0  0  0  0  0  0  0
   27.1713  -23.1359  -18.0537 C   0  0  0  0  0  0  0  0  0  0  0  0
   27.9362  -22.8493  -18.9340 N   0  0  0  0  0  0  0  0  0  0  0  0
   25.7727  -23.2180  -18.5494 N   0  0  0  0  0  0  0  0  0  0  0  0
   24.6870  -23.6442  -17.6207 C   0  0  0  0  0  0  0  0  0  0  0  0
   24.2893  -22.6395  -16.7453 C   0  0  0  0  0  0  0  0  0  0  0  0
   23.6218  -21.3531  -16.9628 C   0  0  0  0  0  0  0  0  0  0  0  0
   23.3954  -20.5413  -15.8503 C   0  0  2  0  0  0  0  0  0  0  0  0
   22.5646  -19.2924  -16.2559 N   0  0  0  0  0  0  0  0  0  0  0  0
   24.2931  -20.1461  -14.8393 C   0  0  0  0  0  0  0  0  0  0  0  0
   24.8624  -18.9111  -14.9352 O   0  0  0  0  0  0  0  0  0  0  0  0
   27.8678  -22.5750  -19.9896 C   0  0  0  0  0  0  0  0  0  0  0  0
   24.0944  -21.2493   -8.7828 S   0  0  0  0  0  0  0  0  0  0  0  0
   25.8805  -21.0024   -8.8306 C   0  0  0  0  0  0  0  0  0  0  0  0
   26.5123  -20.5958  -10.4877 C   0  0  0  0  0  0  0  0  0  0  0  0
   25.4354  -20.7508  -11.4364 C   0  0  1  0  0  0  0  0  0  0  0  0
   25.8829  -20.4328  -12.9682 N   0  0  0  0  0  0  0  0  0  0  0  0
   24.6628  -20.7126  -13.5869 C   0  0  0  0  0  0  0  0  0  0  0  0
   27.0737  -21.1879  -13.2086 O   0  0  0  0  0  0  0  0  0  0  0  0
   28.2949  -20.7398  -12.7051 O   0  0  0  0  0  0  0  0  0  0  0  0
  1  2  1  0
  2  3  2  0
  4  2  1  0
  4  5  1  0
  6  5  1  0
  6  7  1  6
  8  6  1  0
  8  9  2  0
 10 11  1  0
 11 13  1  0
 11 12  2  0
 13 14  1  0
 14 15  1  0
 16 15  1  0
 17 16  1  6
 18 17  1  0
 18  8  1  0
 19 20  2  0
 19 17  1  0
 22 23  1  0
 22 21  1  0
 23 24  1  0
 25 24  1  1
 25 26  1  0
 25 27  1  0
 26 19  1  0
 27 28  1  0
 29 27  2  0
M  END
$$$$
