WVY.pdb
     RDKit          3D

 34 36  0  0  1  0  0  0  0  0999 V2000
   21.4543  -10.3016  -19.5097 N   0  0  0  0  0  0  0  0  0  0  0  0
   21.6303   -9.4433  -18.3794 C   0  0  1  0  0  0  0  0  0  0  0  0
   23.0466   -9.3105  -17.9123 C   0  0  0  0  0  0  0  0  0  0  0  0
   23.6304  -10.5774  -17.4073 C   0  0  0  0  0  0  0  0  0  0  0  0
   23.1571  -11.8626  -17.5375 C   0  0  0  0  0  0  0  0  0  0  0  0
   23.9903  -12.7077  -16.9353 N   0  0  0  0  0  0  0  0  0  0  0  0
   25.0330  -12.0300  -16.3898 C   0  0  0  0  0  0  0  0  0  0  0  0
   26.1424  -12.4218  -15.6755 C   0  0  0  0  0  0  0  0  0  0  0  0
   27.0535  -11.4759  -15.2410 C   0  0  0  0  0  0  0  0  0  0  0  0
   26.8415  -10.1418  -15.5287 C   0  0  0  0  0  0  0  0  0  0  0  0
   25.7259   -9.7807  -16.2430 C   0  0  0  0  0  0  0  0  0  0  0  0
   24.8073  -10.7085  -16.6842 C   0  0  0  0  0  0  0  0  0  0  0  0
   21.1205   -8.0772  -18.6630 C   0  0  0  0  0  0  0  0  0  0  0  0
   21.2807   -7.5541  -19.7954 O   0  0  0  0  0  0  0  0  0  0  0  0
   17.8088   -4.8242  -18.0957 C   0  0  0  0  0  0  0  0  0  0  0  0
   18.4393   -6.1982  -18.2348 C   0  0  2  0  0  0  0  0  0  0  0  0
   17.8457   -7.0976  -17.1631 C   0  0  0  0  0  0  0  0  0  0  0  0
   19.9244   -6.0348  -17.9914 C   0  0  2  0  0  0  0  0  0  0  0  0
   20.4431   -7.3556  -17.6372 N   0  0  0  0  0  0  0  0  0  0  0  0
   20.1074   -5.0873  -16.8468 C   0  0  0  0  0  0  0  0  0  0  0  0
   19.8711   -5.4089  -15.6547 O   0  0  0  0  0  0  0  0  0  0  0  0
   26.5297   -5.8551  -17.0696 O   0  0  0  0  0  0  0  0  0  0  0  0
   25.4772   -4.9654  -16.8817 C   0  0  0  0  0  0  0  0  0  0  0  0
   24.8484   -4.8924  -15.6790 C   0  0  0  0  0  0  0  0  0  0  0  0
   23.7933   -3.9994  -15.4932 C   0  0  0  0  0  0  0  0  0  0  0  0
   23.3413   -3.1645  -16.4898 C   0  0  0  0  0  0  0  0  0  0  0  0
   22.2348   -2.2200  -16.3315 C   0  0  0  0  0  0  0  0  0  0  0  0
   20.9282   -2.8708  -15.9804 C   0  0  2  0  0  0  0  0  0  0  0  0
   20.5658   -3.7633  -17.0836 N   0  0  0  0  0  0  0  0  0  0  0  0
   19.8377   -1.9130  -15.7728 C   0  0  0  0  0  0  0  0  0  0  0  0
   19.8990   -1.0942  -14.8276 O   0  0  0  0  0  0  0  0  0  0  0  0
   23.9977   -3.2519  -17.7186 C   0  0  0  0  0  0  0  0  0  0  0  0
   25.0395   -4.1351  -17.8986 C   0  0  0  0  0  0  0  0  0  0  0  0
   18.7427   -1.8955  -16.6011 O   0  0  0  0  0  0  0  0  0  0  0  0
  2  1  1  6
  2 13  1  0
  2  3  1  0
  4  3  1  0
  4  5  2  0
  6  5  1  0
  7  6  1  0
  8  7  2  0
  9  8  1  0
 10  9  2  0
 10 11  1  0
 11 12  2  0
 12  7  1  0
 12  4  1  0
 13 19  1  0
 14 13  2  0
 16 15  1  1
 17 16  1  0
 18 16  1  0
 18 19  1  1
 20 21  2  0
 20 18  1  0
 22 23  1  0
 23 24  2  0
 23 33  1  0
 24 25  1  0
 25 26  2  0
 26 27  1  0
 28 27  1  6
 28 29  1  0
 29 20  1  0
 30 28  1  0
 30 34  1  0
 31 30  2  0
 32 26  1  0
 33 32  2  0
M  END
$$$$
