WVY.pdb
     RDKit          3D

 34 36  0  0  1  0  0  0  0  0999 V2000
   26.6995  -21.8112  -13.3714 N   0  0  0  0  0  0  0  0  0  0  0  0
   26.0740  -21.1831  -12.2491 C   0  0  1  0  0  0  0  0  0  0  0  0
   26.8035  -19.9888  -11.7168 C   0  0  0  0  0  0  0  0  0  0  0  0
   28.0107  -20.3301  -10.9250 C   0  0  0  0  0  0  0  0  0  0  0  0
   29.2172  -20.8313  -11.3563 C   0  0  0  0  0  0  0  0  0  0  0  0
   30.0305  -20.9928  -10.3154 N   0  0  0  0  0  0  0  0  0  0  0  0
   29.4081  -20.6123   -9.1700 C   0  0  0  0  0  0  0  0  0  0  0  0
   29.7978  -20.5814   -7.8503 C   0  0  0  0  0  0  0  0  0  0  0  0
   28.9195  -20.1303   -6.8813 C   0  0  0  0  0  0  0  0  0  0  0  0
   27.6549  -19.7133   -7.2477 C   0  0  0  0  0  0  0  0  0  0  0  0
   27.2942  -19.7554   -8.5718 C   0  0  0  0  0  0  0  0  0  0  0  0
   28.1552  -20.2015   -9.5511 C   0  0  0  0  0  0  0  0  0  0  0  0
   24.6910  -20.7542  -12.5807 C   0  0  0  0  0  0  0  0  0  0  0  0
   24.4855  -19.7074  -13.2467 O   0  0  0  0  0  0  0  0  0  0  0  0
   23.1234  -20.0129  -14.5325 C   0  0  0  0  0  0  0  0  0  0  0  0
   22.1982  -21.1077  -14.0320 C   0  0  2  0  0  0  0  0  0  0  0  0
   20.7883  -20.7781  -14.4938 C   0  0  0  0  0  0  0  0  0  0  0  0
   22.2534  -21.0821  -12.5195 C   0  0  2  0  0  0  0  0  0  0  0  0
   23.5884  -21.5410  -12.1369 N   0  0  0  0  0  0  0  0  0  0  0  0
   21.2165  -22.0285  -11.9994 C   0  0  0  0  0  0  0  0  0  0  0  0
   21.0951  -23.2045  -12.4267 O   0  0  0  0  0  0  0  0  0  0  0  0
   15.4826  -25.2212   -5.9897 O   0  0  0  0  0  0  0  0  0  0  0  0
   16.3883  -24.4489   -6.7092 C   0  0  0  0  0  0  0  0  0  0  0  0
   17.7252  -24.6255   -6.5402 C   0  0  0  0  0  0  0  0  0  0  0  0
   18.6312  -23.8497   -7.2629 C   0  0  0  0  0  0  0  0  0  0  0  0
   18.2339  -22.8876   -8.1635 C   0  0  0  0  0  0  0  0  0  0  0  0
   19.1562  -22.0528   -8.9342 C   0  0  0  0  0  0  0  0  0  0  0  0
   19.4138  -22.5585  -10.3241 C   0  0  2  0  0  0  0  0  0  0  0  0
   20.3174  -21.6115  -10.9811 N   0  0  0  0  0  0  0  0  0  0  0  0
   18.1971  -22.6856  -11.1325 C   0  0  0  0  0  0  0  0  0  0  0  0
   17.7341  -21.6835  -11.7232 O   0  0  0  0  0  0  0  0  0  0  0  0
   16.8578  -22.7188   -8.3254 C   0  0  0  0  0  0  0  0  0  0  0  0
   15.9657  -23.4869   -7.6099 C   0  0  0  0  0  0  0  0  0  0  0  0
   17.5512  -23.8909  -11.2561 O   0  0  0  0  0  0  0  0  0  0  0  0
  2  1  1  6
  2 13  1  0
  2  3  1  0
  4  3  1  0
  4  5  2  0
  6  5  1  0
  7  6  1  0
  8  7  2  0
  9  8  1  0
 10  9  2  0
 10 11  1  0
 11 12  2  0
 12  7  1  0
 12  4  1  0
 13 19  1  0
 14 13  2  0
 16 15  1  6
 17 16  1  0
 18 16  1  0
 18 19  1  6
 20 21  2  0
 20 18  1  0
 22 23  1  0
 23 24  2  0
 23 33  1  0
 24 25  1  0
 25 26  2  0
 26 27  1  0
 28 27  1  1
 28 29  1  0
 29 20  1  0
 30 28  1  0
 30 34  1  0
 31 30  2  0
 32 26  1  0
 33 32  2  0
M  END
$$$$
