WVY.pdb
     RDKit          3D

 34 36  0  0  1  0  0  0  0  0999 V2000
   27.9669  -19.3716  -20.3557 N   0  0  0  0  0  0  0  0  0  0  0  0
   28.3564  -19.8166  -19.0536 C   0  0  1  0  0  0  0  0  0  0  0  0
   28.1036  -18.8297  -17.9562 C   0  0  0  0  0  0  0  0  0  0  0  0
   28.7713  -17.5213  -18.1639 C   0  0  0  0  0  0  0  0  0  0  0  0
   28.2141  -16.2657  -18.2375 C   0  0  0  0  0  0  0  0  0  0  0  0
   29.1728  -15.3631  -18.4311 N   0  0  0  0  0  0  0  0  0  0  0  0
   30.3850  -15.9720  -18.4931 C   0  0  0  0  0  0  0  0  0  0  0  0
   31.6669  -15.5050  -18.6750 C   0  0  0  0  0  0  0  0  0  0  0  0
   32.7288  -16.3915  -18.6926 C   0  0  0  0  0  0  0  0  0  0  0  0
   32.4928  -17.7421  -18.5269 C   0  0  0  0  0  0  0  0  0  0  0  0
   31.2034  -18.1787  -18.3473 C   0  0  0  0  0  0  0  0  0  0  0  0
   30.1330  -17.3110  -18.3269 C   0  0  0  0  0  0  0  0  0  0  0  0
   27.6620  -21.0789  -18.6918 C   0  0  0  0  0  0  0  0  0  0  0  0
   26.4743  -21.2841  -19.0507 O   0  0  0  0  0  0  0  0  0  0  0  0
   28.8725  -24.6756  -19.0520 C   0  0  0  0  0  0  0  0  0  0  0  0
   28.5512  -24.4223  -17.5900 C   0  0  2  0  0  0  0  0  0  0  0  0
   27.8668  -25.6621  -17.0382 C   0  0  0  0  0  0  0  0  0  0  0  0
   27.5928  -23.2516  -17.5397 C   0  0  2  0  0  0  0  0  0  0  0  0
   28.3536  -22.0649  -17.9295 N   0  0  0  0  0  0  0  0  0  0  0  0
   27.1048  -23.1092  -16.1316 C   0  0  0  0  0  0  0  0  0  0  0  0
   27.8835  -23.0152  -15.1493 O   0  0  0  0  0  0  0  0  0  0  0  0
   22.9775  -20.4674   -9.0064 O   0  0  0  0  0  0  0  0  0  0  0  0
   23.5579  -20.7344  -10.2419 C   0  0  0  0  0  0  0  0  0  0  0  0
   22.7953  -20.7559  -11.3667 C   0  0  0  0  0  0  0  0  0  0  0  0
   23.3798  -21.0239  -12.6043 C   0  0  0  0  0  0  0  0  0  0  0  0
   24.7249  -21.2753  -12.7528 C   0  0  0  0  0  0  0  0  0  0  0  0
   25.3700  -21.5650  -14.0339 C   0  0  0  0  0  0  0  0  0  0  0  0
   25.1998  -22.9850  -14.4907 C   0  0  2  0  0  0  0  0  0  0  0  0
   25.7104  -23.0754  -15.8604 N   0  0  0  0  0  0  0  0  0  0  0  0
   23.8052  -23.4376  -14.4779 C   0  0  0  0  0  0  0  0  0  0  0  0
   23.3182  -23.9262  -13.4330 O   0  0  0  0  0  0  0  0  0  0  0  0
   25.4939  -21.2495  -11.5881 C   0  0  0  0  0  0  0  0  0  0  0  0
   24.9132  -20.9843  -10.3673 C   0  0  0  0  0  0  0  0  0  0  0  0
   23.0166  -23.3348  -15.5972 O   0  0  0  0  0  0  0  0  0  0  0  0
  2  1  1  6
  2 13  1  0
  2  3  1  0
  4  3  1  0
  4  5  2  0
  6  5  1  0
  7  6  1  0
  8  7  2  0
  9  8  1  0
 10  9  2  0
 10 11  1  0
 11 12  2  0
 12  7  1  0
 12  4  1  0
 13 19  1  0
 14 13  2  0
 16 15  1  6
 17 16  1  0
 18 16  1  0
 18 19  1  1
 20 21  2  0
 20 18  1  0
 22 23  1  0
 23 24  2  0
 23 33  1  0
 24 25  1  0
 25 26  2  0
 26 27  1  0
 28 27  1  6
 28 29  1  0
 29 20  1  0
 30 28  1  0
 30 34  1  0
 31 30  2  0
 32 26  1  0
 33 32  2  0
M  END
$$$$
