WVY.pdb
     RDKit          3D

 34 36  0  0  1  0  0  0  0  0999 V2000
   22.2933  -31.6064  -11.6185 N   0  0  0  0  0  0  0  0  0  0  0  0
   21.7404  -30.5400  -12.3945 C   0  0  1  0  0  0  0  0  0  0  0  0
   21.1462  -30.9636  -13.7020 C   0  0  0  0  0  0  0  0  0  0  0  0
   22.1284  -31.5634  -14.6382 C   0  0  0  0  0  0  0  0  0  0  0  0
   22.5131  -32.8780  -14.7661 C   0  0  0  0  0  0  0  0  0  0  0  0
   23.4211  -32.9847  -15.7333 N   0  0  0  0  0  0  0  0  0  0  0  0
   23.6722  -31.7663  -16.2777 C   0  0  0  0  0  0  0  0  0  0  0  0
   24.5073  -31.3368  -17.2840 C   0  0  0  0  0  0  0  0  0  0  0  0
   24.5466  -29.9964  -17.6239 C   0  0  0  0  0  0  0  0  0  0  0  0
   23.7446  -29.0975  -16.9484 C   0  0  0  0  0  0  0  0  0  0  0  0
   22.9216  -29.5551  -15.9492 C   0  0  0  0  0  0  0  0  0  0  0  0
   22.8688  -30.8863  -15.5965 C   0  0  0  0  0  0  0  0  0  0  0  0
   20.6874  -29.8183  -11.6350 C   0  0  0  0  0  0  0  0  0  0  0  0
   19.8985  -30.4421  -10.8801 O   0  0  0  0  0  0  0  0  0  0  0  0
   18.6042  -25.5776  -10.3858 C   0  0  0  0  0  0  0  0  0  0  0  0
   19.8200  -26.2853  -10.9567 C   0  0  2  0  0  0  0  0  0  0  0  0
   20.0664  -25.7414  -12.3543 C   0  0  0  0  0  0  0  0  0  0  0  0
   19.4810  -27.7582  -11.0402 C   0  0  2  0  0  0  0  0  0  0  0  0
   20.5741  -28.4035  -11.7667 N   0  0  0  0  0  0  0  0  0  0  0  0
   18.2020  -27.8992  -11.8056 C   0  0  0  0  0  0  0  0  0  0  0  0
   18.1571  -28.3623  -12.9734 O   0  0  0  0  0  0  0  0  0  0  0  0
   10.5557  -30.3629  -14.6980 O   0  0  0  0  0  0  0  0  0  0  0  0
   11.7762  -30.0457  -14.1112 C   0  0  0  0  0  0  0  0  0  0  0  0
   12.6289  -29.1847  -14.7265 C   0  0  0  0  0  0  0  0  0  0  0  0
   13.8522  -28.8684  -14.1359 C   0  0  0  0  0  0  0  0  0  0  0  0
   14.2543  -29.3958  -12.9298 C   0  0  0  0  0  0  0  0  0  0  0  0
   15.5316  -29.0902  -12.2844 C   0  0  0  0  0  0  0  0  0  0  0  0
   15.7012  -27.6405  -11.9327 C   0  0  2  0  0  0  0  0  0  0  0  0
   16.9713  -27.5028  -11.2164 N   0  0  0  0  0  0  0  0  0  0  0  0
   14.6247  -27.1169  -11.0860 C   0  0  0  0  0  0  0  0  0  0  0  0
   14.7098  -27.2113   -9.8404 O   0  0  0  0  0  0  0  0  0  0  0  0
   13.3672  -30.2781  -12.3110 C   0  0  0  0  0  0  0  0  0  0  0  0
   12.1597  -30.5883  -12.8972 C   0  0  0  0  0  0  0  0  0  0  0  0
   13.5174  -26.5199  -11.6361 O   0  0  0  0  0  0  0  0  0  0  0  0
  2  1  1  1
  2 13  1  0
  2  3  1  0
  4  3  1  0
  4  5  2  0
  6  5  1  0
  7  6  1  0
  8  7  2  0
  9  8  1  0
 10  9  2  0
 10 11  1  0
 11 12  2  0
 12  7  1  0
 12  4  1  0
 13 19  1  0
 14 13  2  0
 16 15  1  6
 17 16  1  0
 18 16  1  0
 18 19  1  6
 20 21  2  0
 20 18  1  0
 22 23  1  0
 23 24  2  0
 23 33  1  0
 24 25  1  0
 25 26  2  0
 26 27  1  0
 28 27  1  1
 28 29  1  0
 29 20  1  0
 30 28  1  0
 30 34  1  0
 31 30  2  0
 32 26  1  0
 33 32  2  0
M  END
$$$$
