WVY.pdb
     RDKit          3D

 34 36  0  0  1  0  0  0  0  0999 V2000
   27.9534  -22.1506  -11.0257 N   0  0  0  0  0  0  0  0  0  0  0  0
   26.7482  -21.4813  -10.6450 C   0  0  1  0  0  0  0  0  0  0  0  0
   26.9560  -20.1921   -9.9123 C   0  0  0  0  0  0  0  0  0  0  0  0
   27.9181  -20.2926   -8.7875 C   0  0  0  0  0  0  0  0  0  0  0  0
   29.1838  -20.8315   -8.7748 C   0  0  0  0  0  0  0  0  0  0  0  0
   29.7056  -20.7152   -7.5561 N   0  0  0  0  0  0  0  0  0  0  0  0
   28.8230  -20.1050   -6.7239 C   0  0  0  0  0  0  0  0  0  0  0  0
   28.8686  -19.7540   -5.3938 C   0  0  0  0  0  0  0  0  0  0  0  0
   27.7840  -19.1262   -4.8076 C   0  0  0  0  0  0  0  0  0  0  0  0
   26.6610  -18.8561   -5.5647 C   0  0  0  0  0  0  0  0  0  0  0  0
   26.6443  -19.2178   -6.8892 C   0  0  0  0  0  0  0  0  0  0  0  0
   27.7148  -19.8438   -7.4905 C   0  0  0  0  0  0  0  0  0  0  0  0
   25.9011  -21.1931  -11.8307 C   0  0  0  0  0  0  0  0  0  0  0  0
   26.1570  -20.2166  -12.5806 O   0  0  0  0  0  0  0  0  0  0  0  0
   25.1955  -23.6111  -14.4213 C   0  0  0  0  0  0  0  0  0  0  0  0
   23.8263  -23.0762  -14.0418 C   0  0  2  0  0  0  0  0  0  0  0  0
   23.0385  -22.8521  -15.3221 C   0  0  0  0  0  0  0  0  0  0  0  0
   24.0425  -21.7509  -13.3432 C   0  0  2  0  0  0  0  0  0  0  0  0
   24.7875  -22.0354  -12.1171 N   0  0  0  0  0  0  0  0  0  0  0  0
   22.7012  -21.1768  -13.0076 C   0  0  0  0  0  0  0  0  0  0  0  0
   22.3484  -20.9193  -11.8288 O   0  0  0  0  0  0  0  0  0  0  0  0
   16.7311  -15.1111  -12.4877 O   0  0  0  0  0  0  0  0  0  0  0  0
   17.7785  -16.0056  -12.6812 C   0  0  0  0  0  0  0  0  0  0  0  0
   18.4063  -16.0752  -13.8846 C   0  0  0  0  0  0  0  0  0  0  0  0
   19.4563  -16.9730  -14.0760 C   0  0  0  0  0  0  0  0  0  0  0  0
   19.9038  -17.8165  -13.0846 C   0  0  0  0  0  0  0  0  0  0  0  0
   20.9981  -18.7734  -13.2520 C   0  0  0  0  0  0  0  0  0  0  0  0
   20.5611  -20.1058  -13.7887 C   0  0  2  0  0  0  0  0  0  0  0  0
   21.7656  -20.9000  -14.0406 N   0  0  0  0  0  0  0  0  0  0  0  0
   19.7931  -20.0085  -15.0338 C   0  0  0  0  0  0  0  0  0  0  0  0
   20.3910  -19.8799  -16.1263 O   0  0  0  0  0  0  0  0  0  0  0  0
   19.2485  -17.7324  -11.8549 C   0  0  0  0  0  0  0  0  0  0  0  0
   18.2118  -16.8444  -11.6694 C   0  0  0  0  0  0  0  0  0  0  0  0
   18.4209  -20.0568  -15.0255 O   0  0  0  0  0  0  0  0  0  0  0  0
  2  1  1  6
  2 13  1  0
  2  3  1  0
  4  3  1  0
  4  5  2  0
  6  5  1  0
  7  6  1  0
  8  7  2  0
  9  8  1  0
 10  9  2  0
 10 11  1  0
 11 12  2  0
 12  7  1  0
 12  4  1  0
 13 19  1  0
 14 13  2  0
 16 15  1  6
 17 16  1  0
 18 16  1  0
 18 19  1  1
 20 21  2  0
 20 18  1  0
 22 23  1  0
 23 24  2  0
 23 33  1  0
 24 25  1  0
 25 26  2  0
 26 27  1  0
 28 27  1  6
 28 29  1  0
 29 20  1  0
 30 28  1  0
 30 34  1  0
 31 30  2  0
 32 26  1  0
 33 32  2  0
M  END
$$$$
