WVY.pdb
     RDKit          3D

 34 36  0  0  1  0  0  0  0  0999 V2000
   20.8996  -12.6417  -19.3086 N   0  0  0  0  0  0  0  0  0  0  0  0
   21.3813  -11.3095  -19.1125 C   0  0  1  0  0  0  0  0  0  0  0  0
   20.5849  -10.2499  -19.8089 C   0  0  0  0  0  0  0  0  0  0  0  0
   20.4772  -10.4503  -21.2749 C   0  0  0  0  0  0  0  0  0  0  0  0
   19.4119  -10.9159  -22.0104 C   0  0  0  0  0  0  0  0  0  0  0  0
   19.7369  -10.9387  -23.3007 N   0  0  0  0  0  0  0  0  0  0  0  0
   21.0095  -10.4969  -23.4720 C   0  0  0  0  0  0  0  0  0  0  0  0
   21.8085  -10.3288  -24.5801 C   0  0  0  0  0  0  0  0  0  0  0  0
   23.0972   -9.8471  -24.4356 C   0  0  0  0  0  0  0  0  0  0  0  0
   23.5727   -9.5378  -23.1763 C   0  0  0  0  0  0  0  0  0  0  0  0
   22.7528   -9.7158  -22.0895 C   0  0  0  0  0  0  0  0  0  0  0  0
   21.4665  -10.1945  -22.2135 C   0  0  0  0  0  0  0  0  0  0  0  0
   21.4222  -10.9647  -17.6682 C   0  0  0  0  0  0  0  0  0  0  0  0
   20.4885  -11.3086  -16.8991 O   0  0  0  0  0  0  0  0  0  0  0  0
   24.9338  -10.0399  -15.9123 C   0  0  0  0  0  0  0  0  0  0  0  0
   23.7397  -10.5257  -15.1104 C   0  0  2  0  0  0  0  0  0  0  0  0
   23.6693  -12.0381  -15.2429 C   0  0  0  0  0  0  0  0  0  0  0  0
   22.5047   -9.9063  -15.7288 C   0  0  2  0  0  0  0  0  0  0  0  0
   22.5339  -10.2361  -17.1534 N   0  0  0  0  0  0  0  0  0  0  0  0
   22.5848   -8.4229  -15.5433 C   0  0  0  0  0  0  0  0  0  0  0  0
   23.5055   -7.7253  -16.0391 O   0  0  0  0  0  0  0  0  0  0  0  0
   21.5233   -0.0225  -15.9949 O   0  0  0  0  0  0  0  0  0  0  0  0
   21.5671   -1.4127  -16.0040 C   0  0  0  0  0  0  0  0  0  0  0  0
   20.6777   -2.1213  -16.7483 C   0  0  0  0  0  0  0  0  0  0  0  0
   20.7239   -3.5152  -16.7557 C   0  0  0  0  0  0  0  0  0  0  0  0
   21.6471   -4.2327  -16.0295 C   0  0  0  0  0  0  0  0  0  0  0  0
   21.7208   -5.6940  -16.0098 C   0  0  0  0  0  0  0  0  0  0  0  0
   21.6071   -6.2881  -14.6357 C   0  0  2  0  0  0  0  0  0  0  0  0
   21.5952   -7.7454  -14.7812 N   0  0  0  0  0  0  0  0  0  0  0  0
   20.3941   -5.8768  -13.9220 C   0  0  0  0  0  0  0  0  0  0  0  0
   19.3858   -6.6190  -13.9281 O   0  0  0  0  0  0  0  0  0  0  0  0
   22.5532   -3.4901  -15.2705 C   0  0  0  0  0  0  0  0  0  0  0  0
   22.5048   -2.1133  -15.2657 C   0  0  0  0  0  0  0  0  0  0  0  0
   20.3419   -4.6854  -13.2415 O   0  0  0  0  0  0  0  0  0  0  0  0
  2  1  1  1
  2 13  1  0
  2  3  1  0
  4  3  1  0
  4  5  2  0
  6  5  1  0
  7  6  1  0
  8  7  2  0
  9  8  1  0
 10  9  2  0
 10 11  1  0
 11 12  2  0
 12  7  1  0
 12  4  1  0
 13 19  1  0
 14 13  2  0
 16 15  1  6
 17 16  1  0
 18 16  1  0
 18 19  1  6
 20 21  2  0
 20 18  1  0
 22 23  1  0
 23 24  2  0
 23 33  1  0
 24 25  1  0
 25 26  2  0
 26 27  1  0
 28 27  1  6
 28 29  1  0
 29 20  1  0
 30 28  1  0
 30 34  1  0
 31 30  2  0
 32 26  1  0
 33 32  2  0
M  END
$$$$
