WVY.pdb
     RDKit          3D

 34 36  0  0  1  0  0  0  0  0999 V2000
   23.3938  -19.1664  -17.5993 N   0  0  0  0  0  0  0  0  0  0  0  0
   24.1133  -18.5992  -16.5012 C   0  0  1  0  0  0  0  0  0  0  0  0
   23.2749  -17.7982  -15.5539 C   0  0  0  0  0  0  0  0  0  0  0  0
   22.9032  -16.4585  -16.0714 C   0  0  0  0  0  0  0  0  0  0  0  0
   21.7621  -16.0717  -16.7355 C   0  0  0  0  0  0  0  0  0  0  0  0
   21.8309  -14.7737  -17.0212 N   0  0  0  0  0  0  0  0  0  0  0  0
   23.0004  -14.2544  -16.5665 C   0  0  0  0  0  0  0  0  0  0  0  0
   23.5502  -12.9932  -16.6039 C   0  0  0  0  0  0  0  0  0  0  0  0
   24.7932  -12.7646  -16.0412 C   0  0  0  0  0  0  0  0  0  0  0  0
   25.4741  -13.8076  -15.4446 C   0  0  0  0  0  0  0  0  0  0  0  0
   24.9007  -15.0549  -15.4224 C   0  0  0  0  0  0  0  0  0  0  0  0
   23.6637  -15.3019  -15.9776 C   0  0  0  0  0  0  0  0  0  0  0  0
   24.8001  -19.6539  -15.7123 C   0  0  0  0  0  0  0  0  0  0  0  0
   24.2500  -20.7669  -15.5120 O   0  0  0  0  0  0  0  0  0  0  0  0
   28.6990  -21.2768  -13.3170 C   0  0  0  0  0  0  0  0  0  0  0  0
   28.1212  -20.4243  -14.4324 C   0  0  2  0  0  0  0  0  0  0  0  0
   28.7010  -19.0254  -14.3024 C   0  0  0  0  0  0  0  0  0  0  0  0
   26.6228  -20.3715  -14.2237 C   0  0  2  0  0  0  0  0  0  0  0  0
   26.0966  -19.3967  -15.1785 N   0  0  0  0  0  0  0  0  0  0  0  0
   26.3635  -19.9103  -12.8232 C   0  0  0  0  0  0  0  0  0  0  0  0
   26.4370  -18.7028  -12.4814 O   0  0  0  0  0  0  0  0  0  0  0  0
   19.8640  -21.6003  -12.7927 O   0  0  0  0  0  0  0  0  0  0  0  0
   21.0203  -21.0788  -12.2220 C   0  0  0  0  0  0  0  0  0  0  0  0
   21.2011  -21.1258  -10.8758 C   0  0  0  0  0  0  0  0  0  0  0  0
   22.3615  -20.6022  -10.3061 C   0  0  0  0  0  0  0  0  0  0  0  0
   23.3617  -20.0238  -11.0542 C   0  0  0  0  0  0  0  0  0  0  0  0
   24.5886  -19.4603  -10.4897 C   0  0  0  0  0  0  0  0  0  0  0  0
   25.7343  -20.4294  -10.4417 C   0  0  2  0  0  0  0  0  0  0  0  0
   26.0178  -20.8505  -11.8155 N   0  0  0  0  0  0  0  0  0  0  0  0
   25.4562  -21.6203   -9.6328 C   0  0  0  0  0  0  0  0  0  0  0  0
   25.1830  -21.4979   -8.4171 O   0  0  0  0  0  0  0  0  0  0  0  0
   23.1605  -19.9835  -12.4349 C   0  0  0  0  0  0  0  0  0  0  0  0
   22.0132  -20.5017  -12.9942 C   0  0  0  0  0  0  0  0  0  0  0  0
   25.4889  -22.8764  -10.1864 O   0  0  0  0  0  0  0  0  0  0  0  0
  2  1  1  6
  2 13  1  0
  2  3  1  0
  4  3  1  0
  4  5  2  0
  6  5  1  0
  7  6  1  0
  8  7  2  0
  9  8  1  0
 10  9  2  0
 10 11  1  0
 11 12  2  0
 12  7  1  0
 12  4  1  0
 13 19  1  0
 14 13  2  0
 16 15  1  1
 17 16  1  0
 18 16  1  0
 18 19  1  6
 20 21  2  0
 20 18  1  0
 22 23  1  0
 23 24  2  0
 23 33  1  0
 24 25  1  0
 25 26  2  0
 26 27  1  0
 28 27  1  6
 28 29  1  0
 29 20  1  0
 30 28  1  0
 30 34  1  0
 31 30  2  0
 32 26  1  0
 33 32  2  0
M  END
$$$$
