WVY.pdb
     RDKit          3D

 34 36  0  0  1  0  0  0  0  0999 V2000
   26.4454  -20.9810  -16.6028 N   0  0  0  0  0  0  0  0  0  0  0  0
   25.3328  -20.3823  -15.9326 C   0  0  1  0  0  0  0  0  0  0  0  0
   24.0879  -20.2825  -16.7586 C   0  0  0  0  0  0  0  0  0  0  0  0
   24.2374  -19.4308  -17.9640 C   0  0  0  0  0  0  0  0  0  0  0  0
   24.8541  -19.7205  -19.1592 C   0  0  0  0  0  0  0  0  0  0  0  0
   24.7590  -18.6736  -19.9753 N   0  0  0  0  0  0  0  0  0  0  0  0
   24.0869  -17.6631  -19.3659 C   0  0  0  0  0  0  0  0  0  0  0  0
   23.7267  -16.3955  -19.7633 C   0  0  0  0  0  0  0  0  0  0  0  0
   23.0269  -15.5734  -18.8983 C   0  0  0  0  0  0  0  0  0  0  0  0
   22.6944  -16.0332  -17.6391 C   0  0  0  0  0  0  0  0  0  0  0  0
   23.0671  -17.3022  -17.2706 C   0  0  0  0  0  0  0  0  0  0  0  0
   23.7644  -18.1356  -18.1182 C   0  0  0  0  0  0  0  0  0  0  0  0
   24.9921  -21.1285  -14.6942 C   0  0  0  0  0  0  0  0  0  0  0  0
   24.7600  -22.3639  -14.7320 O   0  0  0  0  0  0  0  0  0  0  0  0
   26.3595  -20.7933  -11.0719 C   0  0  0  0  0  0  0  0  0  0  0  0
   24.8643  -20.5304  -11.0651 C   0  0  2  0  0  0  0  0  0  0  0  0
   24.2690  -21.2374   -9.8586 C   0  0  0  0  0  0  0  0  0  0  0  0
   24.2992  -21.1331  -12.3335 C   0  0  2  0  0  0  0  0  0  0  0  0
   24.9287  -20.4320  -13.4521 N   0  0  0  0  0  0  0  0  0  0  0  0
   22.8212  -20.8945  -12.3443 C   0  0  0  0  0  0  0  0  0  0  0  0
   22.3194  -19.7472  -12.4545 O   0  0  0  0  0  0  0  0  0  0  0  0
   14.9197  -20.6733  -15.4717 O   0  0  0  0  0  0  0  0  0  0  0  0
   16.2461  -20.8454  -15.0900 C   0  0  0  0  0  0  0  0  0  0  0  0
   16.8881  -22.0143  -15.3520 C   0  0  0  0  0  0  0  0  0  0  0  0
   18.2182  -22.1843  -14.9682 C   0  0  0  0  0  0  0  0  0  0  0  0
   18.9362  -21.2050  -14.3200 C   0  0  0  0  0  0  0  0  0  0  0  0
   20.3300  -21.3511  -13.8987 C   0  0  0  0  0  0  0  0  0  0  0  0
   20.4886  -21.8305  -12.4849 C   0  0  2  0  0  0  0  0  0  0  0  0
   21.9217  -21.9883  -12.2273 N   0  0  0  0  0  0  0  0  0  0  0  0
   19.8207  -23.1097  -12.2253 C   0  0  0  0  0  0  0  0  0  0  0  0
   18.5790  -23.1437  -12.0684 O   0  0  0  0  0  0  0  0  0  0  0  0
   18.2624  -20.0109  -14.0585 C   0  0  0  0  0  0  0  0  0  0  0  0
   16.9486  -19.8465  -14.4391 C   0  0  0  0  0  0  0  0  0  0  0  0
   20.5351  -24.2799  -12.1512 O   0  0  0  0  0  0  0  0  0  0  0  0
  2  1  1  6
  2 13  1  0
  2  3  1  0
  4  3  1  0
  4  5  2  0
  6  5  1  0
  7  6  1  0
  8  7  2  0
  9  8  1  0
 10  9  2  0
 10 11  1  0
 11 12  2  0
 12  7  1  0
 12  4  1  0
 13 19  1  0
 14 13  2  0
 16 15  1  6
 17 16  1  0
 18 16  1  0
 18 19  1  6
 20 21  2  0
 20 18  1  0
 22 23  1  0
 23 24  2  0
 23 33  1  0
 24 25  1  0
 25 26  2  0
 26 27  1  0
 28 27  1  6
 28 29  1  0
 29 20  1  0
 30 28  1  0
 30 34  1  0
 31 30  2  0
 32 26  1  0
 33 32  2  0
M  END
$$$$
