WVY.pdb
     RDKit          3D

 34 36  0  0  1  0  0  0  0  0999 V2000
   25.0236  -17.5095  -15.8841 N   0  0  0  0  0  0  0  0  0  0  0  0
   25.9313  -17.9180  -14.8572 C   0  0  1  0  0  0  0  0  0  0  0  0
   26.6653  -16.7954  -14.1915 C   0  0  0  0  0  0  0  0  0  0  0  0
   27.4234  -15.9357  -15.1334 C   0  0  0  0  0  0  0  0  0  0  0  0
   27.3611  -14.5721  -15.3044 C   0  0  0  0  0  0  0  0  0  0  0  0
   28.2136  -14.2029  -16.2573 N   0  0  0  0  0  0  0  0  0  0  0  0
   28.8655  -15.2876  -16.7498 C   0  0  0  0  0  0  0  0  0  0  0  0
   29.8251  -15.4498  -17.7231 C   0  0  0  0  0  0  0  0  0  0  0  0
   30.3101  -16.7131  -18.0109 C   0  0  0  0  0  0  0  0  0  0  0  0
   29.8257  -17.8043  -17.3168 C   0  0  0  0  0  0  0  0  0  0  0  0
   28.8686  -17.6118  -16.3513 C   0  0  0  0  0  0  0  0  0  0  0  0
   28.3734  -16.3613  -16.0506 C   0  0  0  0  0  0  0  0  0  0  0  0
   25.2275  -18.6855  -13.7980 C   0  0  0  0  0  0  0  0  0  0  0  0
   24.0815  -18.3423  -13.4101 O   0  0  0  0  0  0  0  0  0  0  0  0
   24.3328  -22.6880  -11.4221 C   0  0  0  0  0  0  0  0  0  0  0  0
   24.9021  -21.9230  -12.6034 C   0  0  2  0  0  0  0  0  0  0  0  0
   26.2264  -22.5644  -12.9838 C   0  0  0  0  0  0  0  0  0  0  0  0
   25.1434  -20.5020  -12.1407 C   0  0  2  0  0  0  0  0  0  0  0  0
   25.8622  -19.8225  -13.2181 N   0  0  0  0  0  0  0  0  0  0  0  0
   25.9920  -20.5511  -10.9083 C   0  0  0  0  0  0  0  0  0  0  0  0
   27.2063  -20.2261  -10.9066 O   0  0  0  0  0  0  0  0  0  0  0  0
   29.4691  -19.2428   -3.2231 O   0  0  0  0  0  0  0  0  0  0  0  0
   28.8236  -19.3434   -4.4510 C   0  0  0  0  0  0  0  0  0  0  0  0
   28.2362  -18.2515   -5.0076 C   0  0  0  0  0  0  0  0  0  0  0  0
   27.5896  -18.3551   -6.2390 C   0  0  0  0  0  0  0  0  0  0  0  0
   27.5115  -19.5365   -6.9410 C   0  0  0  0  0  0  0  0  0  0  0  0
   26.8372  -19.6822   -8.2316 C   0  0  0  0  0  0  0  0  0  0  0  0
   26.2356  -21.0401   -8.4510 C   0  0  2  0  0  0  0  0  0  0  0  0
   25.4321  -20.9778   -9.6739 N   0  0  0  0  0  0  0  0  0  0  0  0
   25.3779  -21.4823   -7.3470 C   0  0  0  0  0  0  0  0  0  0  0  0
   25.8604  -21.6204   -6.2000 O   0  0  0  0  0  0  0  0  0  0  0  0
   28.1197  -20.6482   -6.3557 C   0  0  0  0  0  0  0  0  0  0  0  0
   28.7576  -20.5422   -5.1393 C   0  0  0  0  0  0  0  0  0  0  0  0
   24.0460  -21.7492   -7.5475 O   0  0  0  0  0  0  0  0  0  0  0  0
  2  1  1  6
  2 13  1  0
  2  3  1  0
  4  3  1  0
  4  5  2  0
  6  5  1  0
  7  6  1  0
  8  7  2  0
  9  8  1  0
 10  9  2  0
 10 11  1  0
 11 12  2  0
 12  7  1  0
 12  4  1  0
 13 19  1  0
 14 13  2  0
 16 15  1  1
 17 16  1  0
 18 16  1  0
 18 19  1  6
 20 21  2  0
 20 18  1  0
 22 23  1  0
 23 24  2  0
 23 33  1  0
 24 25  1  0
 25 26  2  0
 26 27  1  0
 28 27  1  1
 28 29  1  0
 29 20  1  0
 30 28  1  0
 30 34  1  0
 31 30  2  0
 32 26  1  0
 33 32  2  0
M  END
$$$$
