WVY.pdb
     RDKit          3D

 34 36  0  0  1  0  0  0  0  0999 V2000
   23.7164  -15.8887  -17.2278 N   0  0  0  0  0  0  0  0  0  0  0  0
   23.5241  -16.9816  -16.3256 C   0  0  1  0  0  0  0  0  0  0  0  0
   22.2931  -17.7939  -16.5842 C   0  0  0  0  0  0  0  0  0  0  0  0
   21.0682  -17.2380  -15.9586 C   0  0  0  0  0  0  0  0  0  0  0  0
   20.1694  -16.3303  -16.4693 C   0  0  0  0  0  0  0  0  0  0  0  0
   19.2086  -16.1038  -15.5767 N   0  0  0  0  0  0  0  0  0  0  0  0
   19.4263  -16.8392  -14.4560 C   0  0  0  0  0  0  0  0  0  0  0  0
   18.7473  -16.9680  -13.2657 C   0  0  0  0  0  0  0  0  0  0  0  0
   19.2272  -17.8181  -12.2855 C   0  0  0  0  0  0  0  0  0  0  0  0
   20.3874  -18.5327  -12.5104 C   0  0  0  0  0  0  0  0  0  0  0  0
   21.0432  -18.3838  -13.7074 C   0  0  0  0  0  0  0  0  0  0  0  0
   20.5807  -17.5420  -14.6957 C   0  0  0  0  0  0  0  0  0  0  0  0
   24.6865  -17.9060  -16.3525 C   0  0  0  0  0  0  0  0  0  0  0  0
   24.9977  -18.5160  -17.4073 O   0  0  0  0  0  0  0  0  0  0  0  0
   28.0460  -17.3706  -16.0417 C   0  0  0  0  0  0  0  0  0  0  0  0
   27.8163  -18.3697  -14.9220 C   0  0  2  0  0  0  0  0  0  0  0  0
   28.9693  -19.3599  -14.9326 C   0  0  0  0  0  0  0  0  0  0  0  0
   26.5241  -19.0957  -15.2294 C   0  0  2  0  0  0  0  0  0  0  0  0
   25.4544  -18.1002  -15.1674 N   0  0  0  0  0  0  0  0  0  0  0  0
   26.3150  -20.1404  -14.1777 C   0  0  0  0  0  0  0  0  0  0  0  0
   26.6896  -19.9899  -12.9872 O   0  0  0  0  0  0  0  0  0  0  0  0
   26.9335  -19.1277   -8.1532 O   0  0  0  0  0  0  0  0  0  0  0  0
   26.3134  -19.7750   -9.2168 C   0  0  0  0  0  0  0  0  0  0  0  0
   26.1240  -21.1203   -9.1834 C   0  0  0  0  0  0  0  0  0  0  0  0
   25.5019  -21.7669  -10.2513 C   0  0  0  0  0  0  0  0  0  0  0  0
   25.0569  -21.0977  -11.3687 C   0  0  0  0  0  0  0  0  0  0  0  0
   24.4055  -21.7442  -12.5085 C   0  0  0  0  0  0  0  0  0  0  0  0
   25.3646  -22.3653  -13.4823 C   0  0  2  0  0  0  0  0  0  0  0  0
   25.6698  -21.3631  -14.5058 N   0  0  0  0  0  0  0  0  0  0  0  0
   24.8325  -23.5626  -14.1405 C   0  0  0  0  0  0  0  0  0  0  0  0
   24.5162  -23.5195  -15.3511 O   0  0  0  0  0  0  0  0  0  0  0  0
   25.2590  -19.7166  -11.3872 C   0  0  0  0  0  0  0  0  0  0  0  0
   25.8738  -19.0813  -10.3307 C   0  0  0  0  0  0  0  0  0  0  0  0
   24.6738  -24.7390  -13.4505 O   0  0  0  0  0  0  0  0  0  0  0  0
  2  1  1  6
  2 13  1  0
  2  3  1  0
  4  3  1  0
  4  5  2  0
  6  5  1  0
  7  6  1  0
  8  7  2  0
  9  8  1  0
 10  9  2  0
 10 11  1  0
 11 12  2  0
 12  7  1  0
 12  4  1  0
 13 19  1  0
 14 13  2  0
 16 15  1  6
 17 16  1  0
 18 16  1  0
 18 19  1  1
 20 21  2  0
 20 18  1  0
 22 23  1  0
 23 24  2  0
 23 33  1  0
 24 25  1  0
 25 26  2  0
 26 27  1  0
 28 27  1  1
 28 29  1  0
 29 20  1  0
 30 28  1  0
 30 34  1  0
 31 30  2  0
 32 26  1  0
 33 32  2  0
M  END
$$$$
