WVY.pdb
     RDKit          3D

 34 36  0  0  1  0  0  0  0  0999 V2000
   24.5903  -21.0370  -17.4293 N   0  0  0  0  0  0  0  0  0  0  0  0
   24.5675  -20.4076  -16.1453 C   0  0  1  0  0  0  0  0  0  0  0  0
   23.2280  -20.4047  -15.4763 C   0  0  0  0  0  0  0  0  0  0  0  0
   22.2417  -19.5013  -16.1181 C   0  0  0  0  0  0  0  0  0  0  0  0
   22.1205  -19.1512  -17.4430 C   0  0  0  0  0  0  0  0  0  0  0  0
   21.0961  -18.3148  -17.5913 N   0  0  0  0  0  0  0  0  0  0  0  0
   20.5053  -18.0791  -16.3915 C   0  0  0  0  0  0  0  0  0  0  0  0
   19.4334  -17.3078  -16.0032 C   0  0  0  0  0  0  0  0  0  0  0  0
   19.0582  -17.2669  -14.6723 C   0  0  0  0  0  0  0  0  0  0  0  0
   19.7646  -18.0030  -13.7414 C   0  0  0  0  0  0  0  0  0  0  0  0
   20.8293  -18.7632  -14.1582 C   0  0  0  0  0  0  0  0  0  0  0  0
   21.2180  -18.8165  -15.4793 C   0  0  0  0  0  0  0  0  0  0  0  0
   25.5318  -21.0533  -15.2180 C   0  0  0  0  0  0  0  0  0  0  0  0
   26.2135  -22.0434  -15.5875 O   0  0  0  0  0  0  0  0  0  0  0  0
   27.9950  -18.8272  -13.4301 C   0  0  0  0  0  0  0  0  0  0  0  0
   28.0578  -20.2987  -13.7981 C   0  0  2  0  0  0  0  0  0  0  0  0
   27.9455  -20.4097  -15.3097 C   0  0  0  0  0  0  0  0  0  0  0  0
   26.8655  -20.9717  -13.1522 C   0  0  2  0  0  0  0  0  0  0  0  0
   25.6822  -20.5414  -13.8962 N   0  0  0  0  0  0  0  0  0  0  0  0
   26.7784  -20.5031  -11.7330 C   0  0  0  0  0  0  0  0  0  0  0  0
   26.4928  -19.3182  -11.4255 O   0  0  0  0  0  0  0  0  0  0  0  0
   29.1691  -19.0704   -3.6874 O   0  0  0  0  0  0  0  0  0  0  0  0
   28.7097  -19.2201   -4.9917 C   0  0  0  0  0  0  0  0  0  0  0  0
   27.5803  -18.5824   -5.3976 C   0  0  0  0  0  0  0  0  0  0  0  0
   27.1218  -18.7343   -6.7060 C   0  0  0  0  0  0  0  0  0  0  0  0
   27.7690  -19.5171   -7.6348 C   0  0  0  0  0  0  0  0  0  0  0  0
   27.3137  -19.7029   -9.0131 C   0  0  0  0  0  0  0  0  0  0  0  0
   26.7203  -21.0564   -9.2779 C   0  0  2  0  0  0  0  0  0  0  0  0
   27.0226  -21.4100  -10.6667 N   0  0  0  0  0  0  0  0  0  0  0  0
   25.2674  -21.1028   -9.0864 C   0  0  0  0  0  0  0  0  0  0  0  0
   24.5156  -20.4764   -9.8675 O   0  0  0  0  0  0  0  0  0  0  0  0
   28.9272  -20.1651   -7.2020 C   0  0  0  0  0  0  0  0  0  0  0  0
   29.3772  -20.0128   -5.9089 C   0  0  0  0  0  0  0  0  0  0  0  0
   24.7106  -21.8256   -8.0604 O   0  0  0  0  0  0  0  0  0  0  0  0
  2  1  1  6
  2 13  1  0
  2  3  1  0
  4  3  1  0
  4  5  2  0
  6  5  1  0
  7  6  1  0
  8  7  2  0
  9  8  1  0
 10  9  2  0
 10 11  1  0
 11 12  2  0
 12  7  1  0
 12  4  1  0
 13 19  1  0
 14 13  2  0
 16 15  1  6
 17 16  1  0
 18 16  1  0
 18 19  1  6
 20 21  2  0
 20 18  1  0
 22 23  1  0
 23 24  2  0
 23 33  1  0
 24 25  1  0
 25 26  2  0
 26 27  1  0
 28 27  1  6
 28 29  1  0
 29 20  1  0
 30 28  1  0
 30 34  1  0
 31 30  2  0
 32 26  1  0
 33 32  2  0
M  END
$$$$
