WVY.pdb
     RDKit          3D

 34 36  0  0  1  0  0  0  0  0999 V2000
   26.6493  -18.7456  -19.4134 N   0  0  0  0  0  0  0  0  0  0  0  0
   26.7477  -18.5223  -18.0043 C   0  0  1  0  0  0  0  0  0  0  0  0
   26.0663  -17.2796  -17.5211 C   0  0  0  0  0  0  0  0  0  0  0  0
   26.5009  -16.0479  -18.2246 C   0  0  0  0  0  0  0  0  0  0  0  0
   25.7365  -15.0166  -18.7193 C   0  0  0  0  0  0  0  0  0  0  0  0
   26.5274  -14.1036  -19.2779 N   0  0  0  0  0  0  0  0  0  0  0  0
   27.8270  -14.4848  -19.1789 C   0  0  0  0  0  0  0  0  0  0  0  0
   29.0112  -13.9133  -19.5857 C   0  0  0  0  0  0  0  0  0  0  0  0
   30.2101  -14.5572  -19.3367 C   0  0  0  0  0  0  0  0  0  0  0  0
   30.2085  -15.7720  -18.6798 C   0  0  0  0  0  0  0  0  0  0  0  0
   29.0118  -16.3177  -18.2859 C   0  0  0  0  0  0  0  0  0  0  0  0
   27.8076  -15.6914  -18.5249 C   0  0  0  0  0  0  0  0  0  0  0  0
   26.1870  -19.6676  -17.2426 C   0  0  0  0  0  0  0  0  0  0  0  0
   25.2675  -20.3741  -17.7293 O   0  0  0  0  0  0  0  0  0  0  0  0
   27.7924  -20.7663  -13.4966 C   0  0  0  0  0  0  0  0  0  0  0  0
   27.3827  -21.7802  -14.5497 C   0  0  2  0  0  0  0  0  0  0  0  0
   28.5561  -21.9745  -15.4958 C   0  0  0  0  0  0  0  0  0  0  0  0
   26.2144  -21.1883  -15.3087 C   0  0  2  0  0  0  0  0  0  0  0  0
   26.7000  -19.9650  -15.9463 N   0  0  0  0  0  0  0  0  0  0  0  0
   25.1364  -20.8605  -14.3228 C   0  0  0  0  0  0  0  0  0  0  0  0
   25.2479  -19.9374  -13.4768 O   0  0  0  0  0  0  0  0  0  0  0  0
   17.8055  -18.5843  -10.5123 O   0  0  0  0  0  0  0  0  0  0  0  0
   18.9633  -18.9077  -11.2120 C   0  0  0  0  0  0  0  0  0  0  0  0
   20.1804  -18.7708  -10.6230 C   0  0  0  0  0  0  0  0  0  0  0  0
   21.3398  -19.0959  -11.3268 C   0  0  0  0  0  0  0  0  0  0  0  0
   21.3178  -19.5606  -12.6222 C   0  0  0  0  0  0  0  0  0  0  0  0
   22.5138  -19.9059  -13.3915 C   0  0  0  0  0  0  0  0  0  0  0  0
   22.8828  -21.3593  -13.3181 C   0  0  2  0  0  0  0  0  0  0  0  0
   23.9255  -21.6040  -14.3171 N   0  0  0  0  0  0  0  0  0  0  0  0
   21.7568  -22.2602  -13.5834 C   0  0  0  0  0  0  0  0  0  0  0  0
   21.5167  -22.6289  -14.7556 O   0  0  0  0  0  0  0  0  0  0  0  0
   20.0601  -19.6955  -13.2125 C   0  0  0  0  0  0  0  0  0  0  0  0
   18.9170  -19.3736  -12.5143 C   0  0  0  0  0  0  0  0  0  0  0  0
   20.9550  -22.7115  -12.5643 O   0  0  0  0  0  0  0  0  0  0  0  0
  2  1  1  6
  2 13  1  0
  2  3  1  0
  4  3  1  0
  4  5  2  0
  6  5  1  0
  7  6  1  0
  8  7  2  0
  9  8  1  0
 10  9  2  0
 10 11  1  0
 11 12  2  0
 12  7  1  0
 12  4  1  0
 13 19  1  0
 14 13  2  0
 16 15  1  1
 17 16  1  0
 18 16  1  0
 18 19  1  1
 20 21  2  0
 20 18  1  0
 22 23  1  0
 23 24  2  0
 23 33  1  0
 24 25  1  0
 25 26  2  0
 26 27  1  0
 28 27  1  6
 28 29  1  0
 29 20  1  0
 30 28  1  0
 30 34  1  0
 31 30  2  0
 32 26  1  0
 33 32  2  0
M  END
$$$$
