WVY.pdb
     RDKit          3D

 34 36  0  0  1  0  0  0  0  0999 V2000
   24.2683   -7.0609  -21.6363 N   0  0  0  0  0  0  0  0  0  0  0  0
   23.2010   -6.3516  -21.0014 C   0  0  1  0  0  0  0  0  0  0  0  0
   21.8648   -6.5196  -21.6559 C   0  0  0  0  0  0  0  0  0  0  0  0
   21.7717   -5.8868  -22.9945 C   0  0  0  0  0  0  0  0  0  0  0  0
   22.6210   -6.0049  -24.0703 C   0  0  0  0  0  0  0  0  0  0  0  0
   22.1655   -5.2685  -25.0809 N   0  0  0  0  0  0  0  0  0  0  0  0
   21.0150   -4.6419  -24.7237 C   0  0  0  0  0  0  0  0  0  0  0  0
   20.1632   -3.7856  -25.3838 C   0  0  0  0  0  0  0  0  0  0  0  0
   19.0394   -3.2979  -24.7410 C   0  0  0  0  0  0  0  0  0  0  0  0
   18.7810   -3.6757  -23.4380 C   0  0  0  0  0  0  0  0  0  0  0  0
   19.6486   -4.5312  -22.8050 C   0  0  0  0  0  0  0  0  0  0  0  0
   20.7729   -5.0273  -23.4288 C   0  0  0  0  0  0  0  0  0  0  0  0
   23.0601   -6.7609  -19.5804 C   0  0  0  0  0  0  0  0  0  0  0  0
   22.9527   -7.9747  -19.2692 O   0  0  0  0  0  0  0  0  0  0  0  0
   23.3689   -5.7067  -14.8748 C   0  0  0  0  0  0  0  0  0  0  0  0
   23.8112   -5.5036  -16.3128 C   0  0  2  0  0  0  0  0  0  0  0  0
   23.7729   -4.0136  -16.6098 C   0  0  0  0  0  0  0  0  0  0  0  0
   22.8098   -6.2201  -17.1934 C   0  0  2  0  0  0  0  0  0  0  0  0
   23.0469   -5.7633  -18.5623 N   0  0  0  0  0  0  0  0  0  0  0  0
   21.4348   -5.8259  -16.7513 C   0  0  0  0  0  0  0  0  0  0  0  0
   20.9568   -4.6819  -16.9588 O   0  0  0  0  0  0  0  0  0  0  0  0
   17.9849  -12.7233  -15.8295 O   0  0  0  0  0  0  0  0  0  0  0  0
   18.0585  -11.3447  -15.9985 C   0  0  0  0  0  0  0  0  0  0  0  0
   17.6685  -10.5102  -14.9992 C   0  0  0  0  0  0  0  0  0  0  0  0
   17.7433   -9.1282  -15.1713 C   0  0  0  0  0  0  0  0  0  0  0  0
   18.2034   -8.5469  -16.3310 C   0  0  0  0  0  0  0  0  0  0  0  0
   18.2903   -7.1023  -16.5475 C   0  0  0  0  0  0  0  0  0  0  0  0
   19.2571   -6.4094  -15.6314 C   0  0  2  0  0  0  0  0  0  0  0  0
   20.6109   -6.7597  -16.0670 N   0  0  0  0  0  0  0  0  0  0  0  0
   19.1023   -6.7918  -14.2244 C   0  0  0  0  0  0  0  0  0  0  0  0
   19.9795   -7.4913  -13.6687 O   0  0  0  0  0  0  0  0  0  0  0  0
   18.5999   -9.4177  -17.3473 C   0  0  0  0  0  0  0  0  0  0  0  0
   18.5247  -10.7823  -17.1739 C   0  0  0  0  0  0  0  0  0  0  0  0
   18.0066   -6.3945  -13.4985 O   0  0  0  0  0  0  0  0  0  0  0  0
  2  1  1  6
  2 13  1  0
  2  3  1  0
  4  3  1  0
  4  5  2  0
  6  5  1  0
  7  6  1  0
  8  7  2  0
  9  8  1  0
 10  9  2  0
 10 11  1  0
 11 12  2  0
 12  7  1  0
 12  4  1  0
 13 19  1  0
 14 13  2  0
 16 15  1  1
 17 16  1  0
 18 16  1  0
 18 19  1  6
 20 21  2  0
 20 18  1  0
 22 23  1  0
 23 24  2  0
 23 33  1  0
 24 25  1  0
 25 26  2  0
 26 27  1  0
 28 27  1  6
 28 29  1  0
 29 20  1  0
 30 28  1  0
 30 34  1  0
 31 30  2  0
 32 26  1  0
 33 32  2  0
M  END
$$$$
