ERA.pdb
     RDKit          3D

 26 25  0  0  1  0  0  0  0  0999 V2000
   27.7722  -22.8845  -16.6752 N   0  0  0  0  0  0  0  0  0  0  0  0
   27.5715  -21.6930  -15.9097 C   0  0  1  0  0  0  0  0  0  0  0  0
   27.8066  -20.4424  -16.6626 C   0  0  0  0  0  0  0  0  0  0  0  0
   28.0674  -20.6098  -18.1221 C   0  0  0  0  0  0  0  0  0  0  0  0
   28.3105  -19.4007  -18.9020 C   0  0  0  0  0  0  0  0  0  0  0  0
   28.4138  -18.2250  -18.4817 O   0  0  0  0  0  0  0  0  0  0  0  0
   26.2603  -21.7019  -15.1937 C   0  0  0  0  0  0  0  0  0  0  0  0
   25.2356  -22.2434  -15.6893 O   0  0  0  0  0  0  0  0  0  0  0  0
   28.4470  -19.5578  -20.2908 O   0  0  0  0  0  0  0  0  0  0  0  0
   24.0897  -20.6476   -6.6349 N   0  0  0  0  0  0  0  0  0  0  0  0
   22.9837  -21.2986   -7.2160 C   0  0  0  0  0  0  0  0  0  0  0  0
   22.0387  -21.8163   -6.5149 N   0  0  0  0  0  0  0  0  0  0  0  0
   22.9033  -21.3911   -8.6379 N   0  0  0  0  0  0  0  0  0  0  0  0
   24.0505  -21.0291   -9.4441 C   0  0  0  0  0  0  0  0  0  0  0  0
   23.7745  -21.2145  -10.9199 C   0  0  0  0  0  0  0  0  0  0  0  0
   25.0353  -21.0079  -11.6912 C   0  0  0  0  0  0  0  0  0  0  0  0
   24.8584  -21.1459  -13.1759 C   0  0  2  0  0  0  0  0  0  0  0  0
   26.0924  -21.1022  -13.9159 N   0  0  0  0  0  0  0  0  0  0  0  0
   23.9995  -20.0302  -13.6462 C   0  0  0  0  0  0  0  0  0  0  0  0
   24.4503  -18.8505  -13.6316 O   0  0  0  0  0  0  0  0  0  0  0  0
   21.2485  -22.3088   -7.0195 C   0  0  0  0  0  0  0  0  0  0  0  0
   21.4608  -19.4967  -16.0390 C   0  0  1  0  0  0  0  0  0  0  0  0
   21.8063  -19.1766  -14.5872 N   0  0  0  0  0  0  0  0  0  0  0  0
   22.6749  -20.2327  -14.1187 C   0  0  0  0  0  0  0  0  0  0  0  0
   20.6084  -19.0105  -13.7652 O   0  0  0  0  0  0  0  0  0  0  0  0
   20.2100  -19.9562  -13.0474 O   0  0  0  0  0  0  0  0  0  0  0  0
  2  1  1  6
  3  2  1  0
  4  3  1  0
  5  4  1  0
  5  6  2  0
  7  2  1  0
  7  8  2  0
  9  5  1  0
 10 11  1  0
 11 12  2  0
 13 11  1  0
 13 14  1  0
 14 15  1  0
 17 16  1  1
 16 15  1  0
 17 18  1  0
 18  7  1  0
 19 17  1  0
 20 19  2  0
 22 21  1  6
 22 23  1  0
 23 19  1  0
 24 26  1  0
 24 22  1  0
 25 24  2  0
M  END
$$$$
