ERA.pdb
     RDKit          3D

 26 25  0  0  1  0  0  0  0  0999 V2000
   19.2705  -11.1947  -15.7751 N   0  0  0  0  0  0  0  0  0  0  0  0
   19.4288   -9.9653  -15.0612 C   0  0  1  0  0  0  0  0  0  0  0  0
   20.1380   -8.9119  -15.8187 C   0  0  0  0  0  0  0  0  0  0  0  0
   21.4487   -8.4826  -15.2497 C   0  0  0  0  0  0  0  0  0  0  0  0
   21.4231   -7.7456  -13.9904 C   0  0  0  0  0  0  0  0  0  0  0  0
   21.1703   -6.5308  -13.8181 O   0  0  0  0  0  0  0  0  0  0  0  0
   18.1406   -9.4898  -14.4727 C   0  0  0  0  0  0  0  0  0  0  0  0
   17.0461   -9.6052  -15.0872 O   0  0  0  0  0  0  0  0  0  0  0  0
   21.7145   -8.4714  -12.8240 O   0  0  0  0  0  0  0  0  0  0  0  0
   15.0694   -5.8624   -8.3261 N   0  0  0  0  0  0  0  0  0  0  0  0
   13.9584   -6.7205   -8.2084 C   0  0  0  0  0  0  0  0  0  0  0  0
   12.7975   -6.3038   -7.8461 N   0  0  0  0  0  0  0  0  0  0  0  0
   14.1211   -8.1079   -8.5006 N   0  0  0  0  0  0  0  0  0  0  0  0
   15.3523   -8.5718   -9.1056 C   0  0  0  0  0  0  0  0  0  0  0  0
   15.4806   -8.1013  -10.5376 C   0  0  0  0  0  0  0  0  0  0  0  0
   16.6792   -8.7333  -11.1631 C   0  0  0  0  0  0  0  0  0  0  0  0
   16.8545   -8.3809  -12.6121 C   0  0  2  0  0  0  0  0  0  0  0  0
   18.0743   -8.8816  -13.1897 N   0  0  0  0  0  0  0  0  0  0  0  0
   16.8614   -6.9013  -12.7319 C   0  0  0  0  0  0  0  0  0  0  0  0
   17.7961   -6.2393  -12.1996 O   0  0  0  0  0  0  0  0  0  0  0  0
   11.9900   -6.9889   -7.8570 C   0  0  0  0  0  0  0  0  0  0  0  0
   14.7726   -4.4492  -14.6629 C   0  0  1  0  0  0  0  0  0  0  0  0
   15.8580   -4.7559  -13.6345 N   0  0  0  0  0  0  0  0  0  0  0  0
   15.8499   -6.1865  -13.4282 C   0  0  0  0  0  0  0  0  0  0  0  0
   15.6698   -3.9959  -12.3995 O   0  0  0  0  0  0  0  0  0  0  0  0
   15.0048   -4.4896  -11.4601 O   0  0  0  0  0  0  0  0  0  0  0  0
  2  1  1  6
  3  2  1  0
  4  3  1  0
  5  4  1  0
  5  6  2  0
  7  2  1  0
  7  8  2  0
  9  5  1  0
 10 11  1  0
 11 12  2  0
 13 11  1  0
 13 14  1  0
 14 15  1  0
 17 16  1  1
 16 15  1  0
 17 18  1  0
 18  7  1  0
 19 17  1  0
 20 19  2  0
 22 21  1  6
 22 23  1  0
 23 19  1  0
 24 26  1  0
 24 22  1  0
 25 24  2  0
M  END
$$$$
