ERA.pdb
     RDKit          3D

 26 25  0  0  1  0  0  0  0  0999 V2000
   20.2079  -11.8039  -18.1261 N   0  0  0  0  0  0  0  0  0  0  0  0
   21.0704  -11.1056  -17.2237 C   0  0  1  0  0  0  0  0  0  0  0  0
   22.4088  -10.8047  -17.7755 C   0  0  0  0  0  0  0  0  0  0  0  0
   23.2920  -11.9861  -18.0005 C   0  0  0  0  0  0  0  0  0  0  0  0
   23.7615  -12.7057  -16.8209 C   0  0  0  0  0  0  0  0  0  0  0  0
   23.3658  -13.8139  -16.3910 O   0  0  0  0  0  0  0  0  0  0  0  0
   20.4055   -9.9079  -16.6276 C   0  0  0  0  0  0  0  0  0  0  0  0
   19.7105   -9.1184  -17.3224 O   0  0  0  0  0  0  0  0  0  0  0  0
   24.7777  -12.0956  -16.0678 O   0  0  0  0  0  0  0  0  0  0  0  0
   16.4241   -8.5044   -8.9832 N   0  0  0  0  0  0  0  0  0  0  0  0
   16.1123   -7.3551   -9.7358 C   0  0  0  0  0  0  0  0  0  0  0  0
   15.2257   -6.5027   -9.3620 N   0  0  0  0  0  0  0  0  0  0  0  0
   16.8037   -7.1222  -10.9624 N   0  0  0  0  0  0  0  0  0  0  0  0
   17.6018   -8.1805  -11.5456 C   0  0  0  0  0  0  0  0  0  0  0  0
   18.3449   -7.7047  -12.7744 C   0  0  0  0  0  0  0  0  0  0  0  0
   19.0747   -8.8521  -13.3894 C   0  0  0  0  0  0  0  0  0  0  0  0
   19.8343   -8.4824  -14.6307 C   0  0  2  0  0  0  0  0  0  0  0  0
   20.5174   -9.5897  -15.2468 N   0  0  0  0  0  0  0  0  0  0  0  0
   20.8479   -7.4606  -14.2671 C   0  0  0  0  0  0  0  0  0  0  0  0
   21.8161   -7.7833  -13.5231 O   0  0  0  0  0  0  0  0  0  0  0  0
   15.0748   -5.6390   -9.9561 C   0  0  0  0  0  0  0  0  0  0  0  0
   21.4940   -3.9461  -15.4137 C   0  0  1  0  0  0  0  0  0  0  0  0
   21.7949   -5.1197  -14.4854 N   0  0  0  0  0  0  0  0  0  0  0  0
   20.7767   -6.1174  -14.7248 C   0  0  0  0  0  0  0  0  0  0  0  0
   21.8729   -4.7023  -13.0861 O   0  0  0  0  0  0  0  0  0  0  0  0
   20.8649   -4.8022  -12.3497 O   0  0  0  0  0  0  0  0  0  0  0  0
  2  1  1  6
  3  2  1  0
  4  3  1  0
  5  4  1  0
  5  6  2  0
  7  2  1  0
  7  8  2  0
  9  5  1  0
 10 11  1  0
 11 12  2  0
 13 11  1  0
 13 14  1  0
 14 15  1  0
 17 16  1  1
 16 15  1  0
 17 18  1  0
 18  7  1  0
 19 17  1  0
 20 19  2  0
 22 21  1  6
 22 23  1  0
 23 19  1  0
 24 26  1  0
 24 22  1  0
 25 24  2  0
M  END
$$$$
