ERA.pdb
     RDKit          3D

 26 25  0  0  1  0  0  0  0  0999 V2000
   23.9041  -12.8249  -17.3797 N   0  0  0  0  0  0  0  0  0  0  0  0
   24.3155  -11.5584  -16.8577 C   0  0  1  0  0  0  0  0  0  0  0  0
   25.6566  -11.1255  -17.3050 C   0  0  0  0  0  0  0  0  0  0  0  0
   26.7818  -12.0328  -16.9350 C   0  0  0  0  0  0  0  0  0  0  0  0
   27.3529  -11.8820  -15.6006 C   0  0  0  0  0  0  0  0  0  0  0  0
   27.0560  -11.0299  -14.7315 O   0  0  0  0  0  0  0  0  0  0  0  0
   23.2716  -10.5073  -17.0511 C   0  0  0  0  0  0  0  0  0  0  0  0
   22.6643  -10.3669  -18.1467 O   0  0  0  0  0  0  0  0  0  0  0  0
   28.3559  -12.7933  -15.2325 O   0  0  0  0  0  0  0  0  0  0  0  0
   15.7431   -9.2354  -13.7382 N   0  0  0  0  0  0  0  0  0  0  0  0
   15.7925   -8.1410  -14.6238 C   0  0  0  0  0  0  0  0  0  0  0  0
   14.7692   -7.4026  -14.8691 N   0  0  0  0  0  0  0  0  0  0  0  0
   17.0234   -7.8348  -15.2780 N   0  0  0  0  0  0  0  0  0  0  0  0
   18.1266   -8.7696  -15.2001 C   0  0  0  0  0  0  0  0  0  0  0  0
   19.4017   -8.1733  -15.7543 C   0  0  0  0  0  0  0  0  0  0  0  0
   20.5057   -9.1716  -15.6452 C   0  0  0  0  0  0  0  0  0  0  0  0
   21.8288   -8.6570  -16.1343 C   0  0  2  0  0  0  0  0  0  0  0  0
   22.9036   -9.6072  -16.0144 N   0  0  0  0  0  0  0  0  0  0  0  0
   22.1836   -7.4570  -15.3356 C   0  0  0  0  0  0  0  0  0  0  0  0
   22.6164   -7.6004  -14.1578 O   0  0  0  0  0  0  0  0  0  0  0  0
   14.8749   -6.6091  -15.5624 C   0  0  0  0  0  0  0  0  0  0  0  0
   22.1128   -3.7553  -16.0205 C   0  0  1  0  0  0  0  0  0  0  0  0
   22.4221   -4.9434  -15.1137 N   0  0  0  0  0  0  0  0  0  0  0  0
   22.0565   -6.1362  -15.8437 C   0  0  0  0  0  0  0  0  0  0  0  0
   21.7493   -4.8322  -13.8202 O   0  0  0  0  0  0  0  0  0  0  0  0
   20.6090   -5.3268  -13.6672 O   0  0  0  0  0  0  0  0  0  0  0  0
  2  1  1  6
  3  2  1  0
  4  3  1  0
  5  4  1  0
  5  6  2  0
  7  2  1  0
  7  8  2  0
  9  5  1  0
 10 11  1  0
 11 12  2  0
 13 11  1  0
 13 14  1  0
 14 15  1  0
 17 16  1  1
 16 15  1  0
 17 18  1  0
 18  7  1  0
 19 17  1  0
 20 19  2  0
 22 21  1  6
 22 23  1  0
 23 19  1  0
 24 26  1  0
 24 22  1  0
 25 24  2  0
M  END
$$$$
