ERA.pdb
     RDKit          3D

 26 25  0  0  1  0  0  0  0  0999 V2000
   17.5351   -9.5648  -13.3671 N   0  0  0  0  0  0  0  0  0  0  0  0
   17.9953   -8.8487  -12.2176 C   0  0  1  0  0  0  0  0  0  0  0  0
   19.2312   -8.0693  -12.4440 C   0  0  0  0  0  0  0  0  0  0  0  0
   20.4344   -8.8670  -12.8211 C   0  0  0  0  0  0  0  0  0  0  0  0
   21.6834   -8.1400  -13.0236 C   0  0  0  0  0  0  0  0  0  0  0  0
   22.6202   -7.9829  -12.2068 O   0  0  0  0  0  0  0  0  0  0  0  0
   16.9070   -8.0416  -11.5882 C   0  0  0  0  0  0  0  0  0  0  0  0
   16.1119   -7.3463  -12.2761 O   0  0  0  0  0  0  0  0  0  0  0  0
   21.8720   -7.5395  -14.2790 O   0  0  0  0  0  0  0  0  0  0  0  0
   10.4225   -9.6575   -6.7235 N   0  0  0  0  0  0  0  0  0  0  0  0
   10.3757   -8.2515   -6.6483 C   0  0  0  0  0  0  0  0  0  0  0  0
    9.3605   -7.6171   -6.1800 N   0  0  0  0  0  0  0  0  0  0  0  0
   11.4955   -7.4959   -7.1087 N   0  0  0  0  0  0  0  0  0  0  0  0
   12.6869   -8.1850   -7.5590 C   0  0  0  0  0  0  0  0  0  0  0  0
   13.8048   -7.2159   -7.8745 C   0  0  0  0  0  0  0  0  0  0  0  0
   14.9690   -7.9646   -8.4326 C   0  0  0  0  0  0  0  0  0  0  0  0
   15.6687   -7.2400   -9.5462 C   0  0  2  0  0  0  0  0  0  0  0  0
   16.7054   -8.0107  -10.1815 N   0  0  0  0  0  0  0  0  0  0  0  0
   16.2860   -6.0123   -8.9847 C   0  0  0  0  0  0  0  0  0  0  0  0
   17.4164   -6.0850   -8.4260 O   0  0  0  0  0  0  0  0  0  0  0  0
    9.4066   -6.5603   -6.1284 C   0  0  0  0  0  0  0  0  0  0  0  0
   17.5231   -3.3375   -9.5353 C   0  0  1  0  0  0  0  0  0  0  0  0
   16.2816   -3.4982   -8.6621 N   0  0  0  0  0  0  0  0  0  0  0  0
   15.6536   -4.7415   -9.0483 C   0  0  0  0  0  0  0  0  0  0  0  0
   15.3878   -2.3457   -8.7673 O   0  0  0  0  0  0  0  0  0  0  0  0
   14.3487   -2.4253   -9.4618 O   0  0  0  0  0  0  0  0  0  0  0  0
  2  1  1  6
  3  2  1  0
  4  3  1  0
  5  4  1  0
  5  6  2  0
  7  2  1  0
  7  8  2  0
  9  5  1  0
 10 11  1  0
 11 12  2  0
 13 11  1  0
 13 14  1  0
 14 15  1  0
 17 16  1  1
 16 15  1  0
 17 18  1  0
 18  7  1  0
 19 17  1  0
 20 19  2  0
 22 21  1  1
 22 23  1  0
 23 19  1  0
 24 26  1  0
 24 22  1  0
 25 24  2  0
M  END
$$$$
