ERA.pdb
     RDKit          3D

 26 25  0  0  1  0  0  0  0  0999 V2000
   19.4347  -12.6239  -18.5450 N   0  0  0  0  0  0  0  0  0  0  0  0
   19.6143  -12.0869  -17.2314 C   0  0  1  0  0  0  0  0  0  0  0  0
   20.6617  -12.7646  -16.4379 C   0  0  0  0  0  0  0  0  0  0  0  0
   20.4227  -14.2108  -16.1592 C   0  0  0  0  0  0  0  0  0  0  0  0
   19.3520  -14.5449  -15.2257 C   0  0  0  0  0  0  0  0  0  0  0  0
   18.5885  -13.7570  -14.6209 O   0  0  0  0  0  0  0  0  0  0  0  0
   19.7704  -10.6013  -17.2505 C   0  0  0  0  0  0  0  0  0  0  0  0
   20.3050  -10.0012  -18.2216 O   0  0  0  0  0  0  0  0  0  0  0  0
   19.1405  -15.9083  -14.9639 O   0  0  0  0  0  0  0  0  0  0  0  0
   14.3051   -4.4332  -14.4263 N   0  0  0  0  0  0  0  0  0  0  0  0
   15.3310   -3.6641  -15.0100 C   0  0  0  0  0  0  0  0  0  0  0  0
   15.2351   -2.3926  -15.1731 N   0  0  0  0  0  0  0  0  0  0  0  0
   16.5257   -4.3157  -15.4398 N   0  0  0  0  0  0  0  0  0  0  0  0
   16.5849   -5.7626  -15.4565 C   0  0  0  0  0  0  0  0  0  0  0  0
   17.9607   -6.2590  -15.8425 C   0  0  0  0  0  0  0  0  0  0  0  0
   17.9633   -7.7513  -15.8620 C   0  0  0  0  0  0  0  0  0  0  0  0
   19.2897   -8.3428  -16.2434 C   0  0  2  0  0  0  0  0  0  0  0  0
   19.3265   -9.7804  -16.1783 N   0  0  0  0  0  0  0  0  0  0  0  0
   20.3184   -7.8131  -15.3134 C   0  0  0  0  0  0  0  0  0  0  0  0
   20.3207   -8.1920  -14.1086 O   0  0  0  0  0  0  0  0  0  0  0  0
   16.0615   -1.8735  -15.5842 C   0  0  0  0  0  0  0  0  0  0  0  0
   23.2343   -5.4663  -15.7079 C   0  0  1  0  0  0  0  0  0  0  0  0
   22.2992   -6.3042  -14.8401 N   0  0  0  0  0  0  0  0  0  0  0  0
   21.3142   -6.8863  -15.7235 C   0  0  0  0  0  0  0  0  0  0  0  0
   21.7079   -5.5177  -13.7584 O   0  0  0  0  0  0  0  0  0  0  0  0
   20.6260   -4.9155  -13.9463 O   0  0  0  0  0  0  0  0  0  0  0  0
  2  1  1  6
  3  2  1  0
  4  3  1  0
  5  4  1  0
  5  6  2  0
  7  2  1  0
  7  8  2  0
  9  5  1  0
 10 11  1  0
 11 12  2  0
 13 11  1  0
 13 14  1  0
 14 15  1  0
 17 16  1  1
 16 15  1  0
 17 18  1  0
 18  7  1  0
 19 17  1  0
 20 19  2  0
 22 21  1  6
 22 23  1  0
 23 19  1  0
 24 26  1  0
 24 22  1  0
 25 24  2  0
M  END
$$$$
