ERA.pdb
     RDKit          3D

 26 25  0  0  1  0  0  0  0  0999 V2000
   23.0103   -9.6426  -16.6799 N   0  0  0  0  0  0  0  0  0  0  0  0
   22.1388   -9.3828  -15.5758 C   0  0  1  0  0  0  0  0  0  0  0  0
   22.7740   -8.6447  -14.4633 C   0  0  0  0  0  0  0  0  0  0  0  0
   23.0781   -7.2094  -14.7345 C   0  0  0  0  0  0  0  0  0  0  0  0
   22.5889   -6.2276  -13.7720 C   0  0  0  0  0  0  0  0  0  0  0  0
   22.1364   -6.4398  -12.6232 O   0  0  0  0  0  0  0  0  0  0  0  0
   20.8468   -8.7740  -16.0137 C   0  0  0  0  0  0  0  0  0  0  0  0
   20.7471   -8.1295  -17.0925 O   0  0  0  0  0  0  0  0  0  0  0  0
   22.6231   -4.8803  -14.1664 O   0  0  0  0  0  0  0  0  0  0  0  0
   12.4999  -10.7549  -13.7404 N   0  0  0  0  0  0  0  0  0  0  0  0
   12.3583  -10.0189  -14.9333 C   0  0  0  0  0  0  0  0  0  0  0  0
   11.2340   -9.9037  -15.5459 N   0  0  0  0  0  0  0  0  0  0  0  0
   13.5037   -9.3742  -15.4891 N   0  0  0  0  0  0  0  0  0  0  0  0
   14.8060   -9.5919  -14.8943 C   0  0  0  0  0  0  0  0  0  0  0  0
   15.8883   -8.8342  -15.6312 C   0  0  0  0  0  0  0  0  0  0  0  0
   17.2178   -9.1650  -15.0392 C   0  0  0  0  0  0  0  0  0  0  0  0
   18.3640   -8.4696  -15.7153 C   0  0  2  0  0  0  0  0  0  0  0  0
   19.6583   -8.8854  -15.2419 N   0  0  0  0  0  0  0  0  0  0  0  0
   18.2309   -7.0114  -15.4709 C   0  0  0  0  0  0  0  0  0  0  0  0
   18.4888   -6.5474  -14.3249 O   0  0  0  0  0  0  0  0  0  0  0  0
   11.1953   -9.3072  -16.4201 C   0  0  0  0  0  0  0  0  0  0  0  0
   17.4469   -4.0596  -17.6628 C   0  0  1  0  0  0  0  0  0  0  0  0
   17.6689   -4.6778  -16.2851 N   0  0  0  0  0  0  0  0  0  0  0  0
   17.8207   -6.1017  -16.4823 C   0  0  0  0  0  0  0  0  0  0  0  0
   16.5932   -4.3377  -15.3548 O   0  0  0  0  0  0  0  0  0  0  0  0
   16.6167   -3.2413  -14.7500 O   0  0  0  0  0  0  0  0  0  0  0  0
  2  1  1  6
  3  2  1  0
  4  3  1  0
  5  4  1  0
  5  6  2  0
  7  2  1  0
  7  8  2  0
  9  5  1  0
 10 11  1  0
 11 12  2  0
 13 11  1  0
 13 14  1  0
 14 15  1  0
 17 16  1  1
 16 15  1  0
 17 18  1  0
 18  7  1  0
 19 17  1  0
 20 19  2  0
 22 21  1  6
 22 23  1  0
 23 19  1  0
 24 26  1  0
 24 22  1  0
 25 24  2  0
M  END
$$$$
