ERA.pdb
     RDKit          3D

 26 25  0  0  1  0  0  0  0  0999 V2000
   21.9163   -9.1418  -16.9430 N   0  0  0  0  0  0  0  0  0  0  0  0
   21.8056   -9.1428  -15.5169 C   0  0  1  0  0  0  0  0  0  0  0  0
   23.1009   -9.0627  -14.8086 C   0  0  0  0  0  0  0  0  0  0  0  0
   24.1331  -10.0490  -15.2423 C   0  0  0  0  0  0  0  0  0  0  0  0
   23.7706  -11.4618  -15.1965 C   0  0  0  0  0  0  0  0  0  0  0  0
   22.7018  -11.9659  -14.7806 O   0  0  0  0  0  0  0  0  0  0  0  0
   20.8151   -8.1352  -15.0316 C   0  0  0  0  0  0  0  0  0  0  0  0
   20.6678   -7.8848  -13.8050 O   0  0  0  0  0  0  0  0  0  0  0  0
   24.7233  -12.3774  -15.6719 O   0  0  0  0  0  0  0  0  0  0  0  0
   21.4510   -1.1458  -18.7072 N   0  0  0  0  0  0  0  0  0  0  0  0
   22.4534   -2.1274  -18.5800 C   0  0  0  0  0  0  0  0  0  0  0  0
   23.6354   -1.9758  -19.0618 N   0  0  0  0  0  0  0  0  0  0  0  0
   22.1512   -3.3402  -17.8910 N   0  0  0  0  0  0  0  0  0  0  0  0
   20.8458   -3.5145  -17.2889 C   0  0  0  0  0  0  0  0  0  0  0  0
   20.7031   -4.8806  -16.6548 C   0  0  0  0  0  0  0  0  0  0  0  0
   19.3202   -5.0365  -16.1159 C   0  0  0  0  0  0  0  0  0  0  0  0
   19.0692   -6.3781  -15.4900 C   0  0  2  0  0  0  0  0  0  0  0  0
   19.9838   -7.4024  -15.9218 N   0  0  0  0  0  0  0  0  0  0  0  0
   17.6941   -6.8073  -15.8488 C   0  0  0  0  0  0  0  0  0  0  0  0
   17.5062   -7.4672  -16.9091 O   0  0  0  0  0  0  0  0  0  0  0  0
   24.3451   -2.7468  -18.9080 C   0  0  0  0  0  0  0  0  0  0  0  0
   14.8593   -6.1936  -16.6847 C   0  0  1  0  0  0  0  0  0  0  0  0
   15.2069   -6.8802  -15.3665 N   0  0  0  0  0  0  0  0  0  0  0  0
   16.5645   -6.5048  -15.0418 C   0  0  0  0  0  0  0  0  0  0  0  0
   15.0120   -8.3277  -15.4373 O   0  0  0  0  0  0  0  0  0  0  0  0
   16.0050   -9.0907  -15.4267 O   0  0  0  0  0  0  0  0  0  0  0  0
  2  1  1  6
  3  2  1  0
  4  3  1  0
  5  4  1  0
  5  6  2  0
  7  2  1  0
  7  8  2  0
  9  5  1  0
 10 11  1  0
 11 12  2  0
 13 11  1  0
 13 14  1  0
 14 15  1  0
 17 16  1  6
 16 15  1  0
 17 18  1  0
 18  7  1  0
 19 17  1  0
 20 19  2  0
 22 21  1  1
 22 23  1  0
 23 19  1  0
 24 26  1  0
 24 22  1  0
 25 24  2  0
M  END
$$$$
