ERA.pdb
     RDKit          3D

 26 25  0  0  1  0  0  0  0  0999 V2000
   24.0917  -20.8425  -15.3857 N   0  0  0  0  0  0  0  0  0  0  0  0
   23.2598  -20.1804  -14.4288 C   0  0  1  0  0  0  0  0  0  0  0  0
   22.9989  -18.7575  -14.7346 C   0  0  0  0  0  0  0  0  0  0  0  0
   22.8325  -18.4306  -16.1808 C   0  0  0  0  0  0  0  0  0  0  0  0
   21.8397  -17.4193  -16.5290 C   0  0  0  0  0  0  0  0  0  0  0  0
   21.4368  -16.4657  -15.8234 O   0  0  0  0  0  0  0  0  0  0  0  0
   22.0123  -20.9511  -14.1432 C   0  0  0  0  0  0  0  0  0  0  0  0
   21.4130  -21.6027  -15.0406 O   0  0  0  0  0  0  0  0  0  0  0  0
   21.2578  -17.5133  -17.8035 O   0  0  0  0  0  0  0  0  0  0  0  0
   18.6966  -24.5313   -6.7651 N   0  0  0  0  0  0  0  0  0  0  0  0
   17.8104  -24.9738   -7.7669 C   0  0  0  0  0  0  0  0  0  0  0  0
   16.8773  -25.8277   -7.5374 N   0  0  0  0  0  0  0  0  0  0  0  0
   17.9487  -24.4583   -9.0905 N   0  0  0  0  0  0  0  0  0  0  0  0
   19.0635  -23.5899   -9.4069 C   0  0  0  0  0  0  0  0  0  0  0  0
   19.0352  -23.1529  -10.8549 C   0  0  0  0  0  0  0  0  0  0  0  0
   20.1937  -22.2517  -11.1250 C   0  0  0  0  0  0  0  0  0  0  0  0
   20.2409  -21.7439  -12.5373 C   0  0  2  0  0  0  0  0  0  0  0  0
   21.4302  -20.9945  -12.8472 N   0  0  0  0  0  0  0  0  0  0  0  0
   19.0692  -20.8577  -12.7508 C   0  0  0  0  0  0  0  0  0  0  0  0
   18.9940  -19.7650  -12.1218 O   0  0  0  0  0  0  0  0  0  0  0  0
   16.2319  -26.0951   -8.3333 C   0  0  0  0  0  0  0  0  0  0  0  0
   16.1529  -20.9472  -15.1201 C   0  0  1  0  0  0  0  0  0  0  0  0
   16.9039  -20.3151  -13.9513 N   0  0  0  0  0  0  0  0  0  0  0  0
   18.0142  -21.1879  -13.6432 C   0  0  0  0  0  0  0  0  0  0  0  0
   16.0272  -20.0741  -12.8060 O   0  0  0  0  0  0  0  0  0  0  0  0
   15.8924  -20.9575  -11.9286 O   0  0  0  0  0  0  0  0  0  0  0  0
  2  1  1  6
  3  2  1  0
  4  3  1  0
  5  4  1  0
  5  6  2  0
  7  2  1  0
  7  8  2  0
  9  5  1  0
 10 11  1  0
 11 12  2  0
 13 11  1  0
 13 14  1  0
 14 15  1  0
 17 16  1  1
 16 15  1  0
 17 18  1  0
 18  7  1  0
 19 17  1  0
 20 19  2  0
 22 21  1  6
 22 23  1  0
 23 19  1  0
 24 26  1  0
 24 22  1  0
 25 24  2  0
M  END
$$$$
