ERA.pdb
     RDKit          3D

 26 25  0  0  1  0  0  0  0  0999 V2000
   23.7607  -23.2116  -17.0858 N   0  0  0  0  0  0  0  0  0  0  0  0
   23.1647  -22.5733  -18.2187 C   0  0  1  0  0  0  0  0  0  0  0  0
   22.0460  -23.3294  -18.8211 C   0  0  0  0  0  0  0  0  0  0  0  0
   21.9037  -24.7420  -18.3621 C   0  0  0  0  0  0  0  0  0  0  0  0
   21.1494  -24.9747  -17.1348 C   0  0  0  0  0  0  0  0  0  0  0  0
   21.6011  -25.2165  -15.9915 O   0  0  0  0  0  0  0  0  0  0  0  0
   22.8180  -21.1472  -17.9397 C   0  0  0  0  0  0  0  0  0  0  0  0
   22.2686  -20.4146  -18.8060 O   0  0  0  0  0  0  0  0  0  0  0  0
   19.7493  -24.9247  -17.2309 O   0  0  0  0  0  0  0  0  0  0  0  0
   18.6109  -21.3326  -13.9942 N   0  0  0  0  0  0  0  0  0  0  0  0
   19.3347  -21.9614  -12.9621 C   0  0  0  0  0  0  0  0  0  0  0  0
   18.9682  -23.0778  -12.4409 N   0  0  0  0  0  0  0  0  0  0  0  0
   20.5219  -21.3399  -12.4710 N   0  0  0  0  0  0  0  0  0  0  0  0
   20.9833  -20.1052  -13.0707 C   0  0  0  0  0  0  0  0  0  0  0  0
   21.5135  -20.3298  -14.4696 C   0  0  0  0  0  0  0  0  0  0  0  0
   22.0660  -19.0502  -15.0032 C   0  0  0  0  0  0  0  0  0  0  0  0
   22.6941  -19.1889  -16.3600 C   0  0  2  0  0  0  0  0  0  0  0  0
   23.0866  -20.5352  -16.6852 N   0  0  0  0  0  0  0  0  0  0  0  0
   23.9067  -18.3334  -16.3992 C   0  0  0  0  0  0  0  0  0  0  0  0
   23.7972  -17.0911  -16.2000 O   0  0  0  0  0  0  0  0  0  0  0  0
   19.6178  -23.5485  -11.7494 C   0  0  0  0  0  0  0  0  0  0  0  0
   27.5250  -18.8571  -16.0966 C   0  0  2  0  0  0  0  0  0  0  0  0
   26.4017  -18.0547  -16.7478 N   0  0  0  0  0  0  0  0  0  0  0  0
   25.2028  -18.8567  -16.6543 C   0  0  0  0  0  0  0  0  0  0  0  0
   26.7306  -17.6702  -18.1198 O   0  0  0  0  0  0  0  0  0  0  0  0
   25.9959  -18.0419  -19.0635 O   0  0  0  0  0  0  0  0  0  0  0  0
  2  1  1  1
  3  2  1  0
  4  3  1  0
  5  4  1  0
  5  6  2  0
  7  2  1  0
  7  8  2  0
  9  5  1  0
 10 11  1  0
 11 12  2  0
 13 11  1  0
 13 14  1  0
 14 15  1  0
 17 16  1  1
 16 15  1  0
 17 18  1  0
 18  7  1  0
 19 17  1  0
 20 19  2  0
 22 21  1  1
 22 23  1  0
 23 19  1  0
 24 26  1  0
 24 22  1  0
 25 24  2  0
M  END
$$$$
