ERA.pdb
     RDKit          3D

 26 25  0  0  1  0  0  0  0  0999 V2000
   23.5244  -21.2396  -11.4548 N   0  0  0  0  0  0  0  0  0  0  0  0
   22.4896  -20.6271  -12.2294 C   0  0  1  0  0  0  0  0  0  0  0  0
   21.4252  -19.9915  -11.4236 C   0  0  0  0  0  0  0  0  0  0  0  0
   20.4912  -20.9306  -10.7366 C   0  0  0  0  0  0  0  0  0  0  0  0
   19.4546  -21.5585  -11.5494 C   0  0  0  0  0  0  0  0  0  0  0  0
   18.5156  -20.9983  -12.1610 O   0  0  0  0  0  0  0  0  0  0  0  0
   23.0399  -19.7213  -13.2822 C   0  0  0  0  0  0  0  0  0  0  0  0
   24.0335  -18.9763  -13.0656 O   0  0  0  0  0  0  0  0  0  0  0  0
   19.5022  -22.9568  -11.6698 O   0  0  0  0  0  0  0  0  0  0  0  0
   27.1201  -21.9639  -16.3407 N   0  0  0  0  0  0  0  0  0  0  0  0
   26.2833  -23.0845  -16.5094 C   0  0  0  0  0  0  0  0  0  0  0  0
   26.5113  -24.2112  -15.9340 N   0  0  0  0  0  0  0  0  0  0  0  0
   25.1363  -22.9716  -17.3510 N   0  0  0  0  0  0  0  0  0  0  0  0
   24.6088  -21.6610  -17.6690 C   0  0  0  0  0  0  0  0  0  0  0  0
   24.1884  -20.9127  -16.4233 C   0  0  0  0  0  0  0  0  0  0  0  0
   23.5352  -19.6282  -16.8116 C   0  0  0  0  0  0  0  0  0  0  0  0
   23.0270  -18.8371  -15.6410 C   0  0  2  0  0  0  0  0  0  0  0  0
   22.4772  -19.6469  -14.5854 N   0  0  0  0  0  0  0  0  0  0  0  0
   21.9601  -17.9255  -16.1254 C   0  0  0  0  0  0  0  0  0  0  0  0
   20.7675  -18.3378  -16.1784 O   0  0  0  0  0  0  0  0  0  0  0  0
   25.8520  -25.0175  -16.1256 C   0  0  0  0  0  0  0  0  0  0  0  0
   21.8570  -14.2514  -16.8403 C   0  0  1  0  0  0  0  0  0  0  0  0
   21.2035  -15.6299  -16.8883 N   0  0  0  0  0  0  0  0  0  0  0  0
   22.2240  -16.5917  -16.5377 C   0  0  0  0  0  0  0  0  0  0  0  0
   20.5850  -15.8955  -18.1864 O   0  0  0  0  0  0  0  0  0  0  0  0
   21.2099  -16.5513  -19.0512 O   0  0  0  0  0  0  0  0  0  0  0  0
  2  1  1  1
  3  2  1  0
  4  3  1  0
  5  4  1  0
  5  6  2  0
  7  2  1  0
  7  8  2  0
  9  5  1  0
 10 11  1  0
 11 12  2  0
 13 11  1  0
 13 14  1  0
 14 15  1  0
 17 16  1  6
 16 15  1  0
 17 18  1  0
 18  7  1  0
 19 17  1  0
 20 19  2  0
 22 21  1  1
 22 23  1  0
 23 19  1  0
 24 26  1  0
 24 22  1  0
 25 24  2  0
M  END
$$$$
