ERA.pdb
     RDKit          3D

 26 25  0  0  1  0  0  0  0  0999 V2000
   27.8365  -22.6412  -16.9678 N   0  0  0  0  0  0  0  0  0  0  0  0
   27.6657  -21.5676  -16.0382 C   0  0  1  0  0  0  0  0  0  0  0  0
   27.9554  -20.2300  -16.5977 C   0  0  0  0  0  0  0  0  0  0  0  0
   27.2327  -19.8899  -17.8580 C   0  0  0  0  0  0  0  0  0  0  0  0
   27.5021  -18.5851  -18.4533 C   0  0  0  0  0  0  0  0  0  0  0  0
   28.5828  -18.1688  -18.9313 O   0  0  0  0  0  0  0  0  0  0  0  0
   26.3445  -21.6329  -15.3440 C   0  0  0  0  0  0  0  0  0  0  0  0
   25.3104  -22.0642  -15.9216 O   0  0  0  0  0  0  0  0  0  0  0  0
   26.4322  -17.6769  -18.5033 O   0  0  0  0  0  0  0  0  0  0  0  0
   23.9805  -20.8729   -6.7826 N   0  0  0  0  0  0  0  0  0  0  0  0
   22.8013  -21.2904   -7.4303 C   0  0  0  0  0  0  0  0  0  0  0  0
   21.7614  -21.6864   -6.7867 N   0  0  0  0  0  0  0  0  0  0  0  0
   22.7526  -21.2764   -8.8566 N   0  0  0  0  0  0  0  0  0  0  0  0
   23.9861  -21.3051   -9.6146 C   0  0  0  0  0  0  0  0  0  0  0  0
   23.7328  -21.1378  -11.0966 C   0  0  0  0  0  0  0  0  0  0  0  0
   25.0369  -21.0492  -11.8169 C   0  0  0  0  0  0  0  0  0  0  0  0
   24.9207  -21.2795  -13.2962 C   0  0  2  0  0  0  0  0  0  0  0  0
   26.1769  -21.2140  -13.9961 N   0  0  0  0  0  0  0  0  0  0  0  0
   24.0251  -20.2378  -13.8587 C   0  0  0  0  0  0  0  0  0  0  0  0
   24.3952  -19.0303  -13.8512 O   0  0  0  0  0  0  0  0  0  0  0  0
   20.9095  -21.9855   -7.3403 C   0  0  0  0  0  0  0  0  0  0  0  0
   21.4333  -20.0723  -16.3473 C   0  0  1  0  0  0  0  0  0  0  0  0
   21.8506  -19.5606  -14.9712 N   0  0  0  0  0  0  0  0  0  0  0  0
   22.7528  -20.5424  -14.4130 C   0  0  0  0  0  0  0  0  0  0  0  0
   20.6955  -19.2898  -14.1164 O   0  0  0  0  0  0  0  0  0  0  0  0
   20.3907  -20.0962  -13.2080 O   0  0  0  0  0  0  0  0  0  0  0  0
  2  1  1  6
  3  2  1  0
  4  3  1  0
  5  4  1  0
  5  6  2  0
  7  2  1  0
  7  8  2  0
  9  5  1  0
 10 11  1  0
 11 12  2  0
 13 11  1  0
 13 14  1  0
 14 15  1  0
 17 16  1  1
 16 15  1  0
 17 18  1  0
 18  7  1  0
 19 17  1  0
 20 19  2  0
 22 21  1  6
 22 23  1  0
 23 19  1  0
 24 26  1  0
 24 22  1  0
 25 24  2  0
M  END
$$$$
