ERA.pdb
     RDKit          3D

 26 25  0  0  1  0  0  0  0  0999 V2000
   20.6205  -20.1133  -11.2011 N   0  0  0  0  0  0  0  0  0  0  0  0
   20.8935  -20.4684  -12.5595 C   0  0  1  0  0  0  0  0  0  0  0  0
   19.7040  -20.9021  -13.3231 C   0  0  0  0  0  0  0  0  0  0  0  0
   19.1062  -22.2017  -12.8989 C   0  0  0  0  0  0  0  0  0  0  0  0
   17.9023  -22.6441  -13.5950 C   0  0  0  0  0  0  0  0  0  0  0  0
   17.8218  -23.1669  -14.7307 O   0  0  0  0  0  0  0  0  0  0  0  0
   21.6844  -19.4157  -13.2652 C   0  0  0  0  0  0  0  0  0  0  0  0
   21.4423  -18.1880  -13.1130 O   0  0  0  0  0  0  0  0  0  0  0  0
   16.6809  -22.4695  -12.9245 O   0  0  0  0  0  0  0  0  0  0  0  0
   27.5430  -21.3186  -12.1374 N   0  0  0  0  0  0  0  0  0  0  0  0
   27.1826  -21.7191  -13.4390 C   0  0  0  0  0  0  0  0  0  0  0  0
   26.8241  -22.9215  -13.7186 N   0  0  0  0  0  0  0  0  0  0  0  0
   27.2152  -20.7577  -14.4932 N   0  0  0  0  0  0  0  0  0  0  0  0
   27.2111  -19.3453  -14.1734 C   0  0  0  0  0  0  0  0  0  0  0  0
   25.8114  -18.8401  -13.9016 C   0  0  0  0  0  0  0  0  0  0  0  0
   24.9452  -19.1143  -15.0856 C   0  0  0  0  0  0  0  0  0  0  0  0
   23.5052  -18.7463  -14.8722 C   0  0  2  0  0  0  0  0  0  0  0  0
   22.7526  -19.7359  -14.1467 N   0  0  0  0  0  0  0  0  0  0  0  0
   22.8701  -18.5682  -16.2021 C   0  0  0  0  0  0  0  0  0  0  0  0
   22.4066  -19.5742  -16.8089 O   0  0  0  0  0  0  0  0  0  0  0  0
   26.5876  -23.1561  -14.7239 C   0  0  0  0  0  0  0  0  0  0  0  0
   22.6534  -18.1977  -19.0419 C   0  0  1  0  0  0  0  0  0  0  0  0
   22.1550  -17.0823  -18.1270 N   0  0  0  0  0  0  0  0  0  0  0  0
   22.7586  -17.2993  -16.8316 C   0  0  0  0  0  0  0  0  0  0  0  0
   20.6945  -17.0280  -18.0788 O   0  0  0  0  0  0  0  0  0  0  0  0
   20.1016  -17.1828  -16.9866 O   0  0  0  0  0  0  0  0  0  0  0  0
  2  1  1  1
  3  2  1  0
  4  3  1  0
  5  4  1  0
  5  6  2  0
  7  2  1  0
  7  8  2  0
  9  5  1  0
 10 11  1  0
 11 12  2  0
 13 11  1  0
 13 14  1  0
 14 15  1  0
 17 16  1  6
 16 15  1  0
 17 18  1  0
 18  7  1  0
 19 17  1  0
 20 19  2  0
 22 21  1  6
 22 23  1  0
 23 19  1  0
 24 26  1  0
 24 22  1  0
 25 24  2  0
M  END
$$$$
