NAS.pdb
     RDKit          3D

 20 19  0  0  1  0  0  0  0  0999 V2000
   17.0754  -13.0658  -15.8705 N   0  0  0  0  0  0  0  0  0  0  0  0
   18.3440  -12.7068  -15.3754 C   0  0  0  0  0  0  0  0  0  0  0  0
   19.0864  -13.5578  -14.8504 O   0  0  0  0  0  0  0  0  0  0  0  0
   18.7660  -11.2950  -15.4972 C   0  0  0  0  0  0  0  0  0  0  0  0
   17.6688  -10.4509  -16.1595 C   0  0  2  0  0  0  0  0  0  0  0  0
   17.6250  -10.7064  -17.5825 N   0  0  0  0  0  0  0  0  0  0  0  0
   18.0664   -9.0390  -15.9563 C   0  0  0  0  0  0  0  0  0  0  0  0
   19.1627   -8.6494  -16.4206 O   0  0  0  0  0  0  0  0  0  0  0  0
   16.6150   -5.9050  -14.6030 C   0  0  0  0  0  0  0  0  0  0  0  0
   17.7405   -6.7509  -15.1473 C   0  0  2  0  0  0  0  0  0  0  0  0
   17.2584   -8.1074  -15.2577 N   0  0  0  0  0  0  0  0  0  0  0  0
   18.9683   -6.6471  -14.3445 C   0  0  0  0  0  0  0  0  0  0  0  0
   19.3330   -7.6363  -13.6700 O   0  0  0  0  0  0  0  0  0  0  0  0
   23.1859   -6.2540  -14.0306 O   0  0  0  0  0  0  0  0  0  0  0  0
   21.8958   -6.3610  -14.5388 C   0  0  0  0  0  0  0  0  0  0  0  0
   21.0501   -5.3370  -13.8068 C   0  0  2  0  0  0  0  0  0  0  0  0
   19.7093   -5.4409  -14.3489 N   0  0  0  0  0  0  0  0  0  0  0  0
   21.6050   -3.9763  -13.9894 C   0  0  0  0  0  0  0  0  0  0  0  0
   21.2258   -3.3077  -14.9905 O   0  0  0  0  0  0  0  0  0  0  0  0
   22.5154   -3.4082  -13.1168 O   0  0  0  0  0  0  0  0  0  0  0  0
  2  1  1  0
  3  2  2  0
  4  5  1  0
  4  2  1  0
  5  6  1  6
  7  8  2  0
  7  5  1  0
 10  9  1  1
 10 12  1  0
 10 11  1  0
 11  7  1  0
 12 13  2  0
 15 14  1  0
 16 15  1  6
 17 12  1  0
 17 16  1  0
 18 20  1  0
 18 16  1  0
 19 18  2  0
M  END
$$$$
