NAS.pdb
     RDKit          3D

 20 19  0  0  1  0  0  0  0  0999 V2000
   16.1009  -11.2589  -19.1656 N   0  0  0  0  0  0  0  0  0  0  0  0
   17.4939  -11.3110  -18.9648 C   0  0  0  0  0  0  0  0  0  0  0  0
   18.2278  -11.9338  -19.7551 O   0  0  0  0  0  0  0  0  0  0  0  0
   18.0561  -10.6070  -17.7925 C   0  0  0  0  0  0  0  0  0  0  0  0
   19.0869  -11.4843  -17.0696 C   0  0  2  0  0  0  0  0  0  0  0  0
   18.4222  -12.4888  -16.2689 N   0  0  0  0  0  0  0  0  0  0  0  0
   19.8205  -10.5779  -16.1567 C   0  0  0  0  0  0  0  0  0  0  0  0
   19.1828   -9.9854  -15.2559 O   0  0  0  0  0  0  0  0  0  0  0  0
   23.2973   -9.8339  -15.2129 C   0  0  0  0  0  0  0  0  0  0  0  0
   21.8292   -9.4888  -15.2764 C   0  0  2  0  0  0  0  0  0  0  0  0
   21.2158  -10.3513  -16.2585 N   0  0  0  0  0  0  0  0  0  0  0  0
   21.5923   -8.0624  -15.5447 C   0  0  0  0  0  0  0  0  0  0  0  0
   21.5283   -7.6751  -16.7331 O   0  0  0  0  0  0  0  0  0  0  0  0
   19.5658   -4.1085  -14.3573 O   0  0  0  0  0  0  0  0  0  0  0  0
   19.8038   -5.4632  -14.1513 C   0  0  0  0  0  0  0  0  0  0  0  0
   21.2097   -5.7414  -14.6470 C   0  0  2  0  0  0  0  0  0  0  0  0
   21.4421   -7.1607  -14.4637 N   0  0  0  0  0  0  0  0  0  0  0  0
   22.1964   -4.9292  -13.8989 C   0  0  0  0  0  0  0  0  0  0  0  0
   22.7301   -5.4358  -12.8735 O   0  0  0  0  0  0  0  0  0  0  0  0
   22.5575   -3.6471  -14.2715 O   0  0  0  0  0  0  0  0  0  0  0  0
  2  1  1  0
  3  2  2  0
  4  5  1  0
  4  2  1  0
  5  6  1  1
  7  8  2  0
  7  5  1  0
 10  9  1  6
 10 12  1  0
 10 11  1  0
 11  7  1  0
 12 13  2  0
 15 14  1  0
 16 15  1  1
 17 12  1  0
 17 16  1  0
 18 20  1  0
 18 16  1  0
 19 18  2  0
M  END
$$$$
