NAS.pdb
     RDKit          3D

 20 19  0  0  1  0  0  0  0  0999 V2000
   15.8758  -12.1007  -17.2766 N   0  0  0  0  0  0  0  0  0  0  0  0
   15.8806  -12.0752  -15.8685 C   0  0  0  0  0  0  0  0  0  0  0  0
   14.9406  -12.5720  -15.2199 O   0  0  0  0  0  0  0  0  0  0  0  0
   17.0304  -11.4435  -15.1865 C   0  0  0  0  0  0  0  0  0  0  0  0
   17.9917  -10.8140  -16.2036 C   0  0  2  0  0  0  0  0  0  0  0  0
   18.7144  -11.8425  -16.9190 N   0  0  0  0  0  0  0  0  0  0  0  0
   18.9669  -10.0327  -15.4088 C   0  0  0  0  0  0  0  0  0  0  0  0
   18.5428   -9.1166  -14.6671 O   0  0  0  0  0  0  0  0  0  0  0  0
   22.5835  -10.0371  -14.6136 C   0  0  0  0  0  0  0  0  0  0  0  0
   21.2221   -9.3913  -14.7026 C   0  0  2  0  0  0  0  0  0  0  0  0
   20.3623  -10.2774  -15.4512 N   0  0  0  0  0  0  0  0  0  0  0  0
   21.2729   -8.0350  -15.2689 C   0  0  0  0  0  0  0  0  0  0  0  0
   20.8964   -7.8603  -16.4497 O   0  0  0  0  0  0  0  0  0  0  0  0
   19.8935   -3.9794  -15.2119 O   0  0  0  0  0  0  0  0  0  0  0  0
   20.0681   -5.3201  -14.8855 C   0  0  0  0  0  0  0  0  0  0  0  0
   21.5631   -5.5702  -14.8451 C   0  0  2  0  0  0  0  0  0  0  0  0
   21.7424   -6.9607  -14.4756 N   0  0  0  0  0  0  0  0  0  0  0  0
   22.2175   -4.6625  -13.8751 C   0  0  0  0  0  0  0  0  0  0  0  0
   22.2579   -5.0144  -12.6637 O   0  0  0  0  0  0  0  0  0  0  0  0
   22.7834   -3.4529  -14.2352 O   0  0  0  0  0  0  0  0  0  0  0  0
  2  1  1  0
  3  2  2  0
  4  5  1  0
  4  2  1  0
  5  6  1  1
  7  8  2  0
  7  5  1  0
 10  9  1  6
 10 12  1  0
 10 11  1  0
 11  7  1  0
 12 13  2  0
 15 14  1  0
 16 15  1  1
 17 12  1  0
 17 16  1  0
 18 20  1  0
 18 16  1  0
 19 18  2  0
M  END
$$$$
