NAS.pdb
     RDKit          3D

 20 19  0  0  1  0  0  0  0  0999 V2000
   20.0088  -13.1243  -17.6832 N   0  0  0  0  0  0  0  0  0  0  0  0
   21.1310  -12.3885  -17.2556 C   0  0  0  0  0  0  0  0  0  0  0  0
   22.2470  -12.9319  -17.1537 O   0  0  0  0  0  0  0  0  0  0  0  0
   20.9448  -10.9577  -16.9329 C   0  0  0  0  0  0  0  0  0  0  0  0
   19.4722  -10.5511  -17.0771 C   0  0  2  0  0  0  0  0  0  0  0  0
   19.1013  -10.4840  -18.4736 N   0  0  0  0  0  0  0  0  0  0  0  0
   19.3710   -9.1881  -16.5070 C   0  0  0  0  0  0  0  0  0  0  0  0
   19.9830   -8.2523  -17.0718 O   0  0  0  0  0  0  0  0  0  0  0  0
   17.3175   -7.3795  -14.0351 C   0  0  0  0  0  0  0  0  0  0  0  0
   18.5253   -7.5166  -14.9300 C   0  0  2  0  0  0  0  0  0  0  0  0
   18.6101   -8.8961  -15.3474 N   0  0  0  0  0  0  0  0  0  0  0  0
   19.7613   -7.0378  -14.2930 C   0  0  0  0  0  0  0  0  0  0  0  0
   20.5956   -7.8785  -13.8883 O   0  0  0  0  0  0  0  0  0  0  0  0
   23.3972   -4.7935  -14.8272 O   0  0  0  0  0  0  0  0  0  0  0  0
   22.1741   -5.4162  -15.0514 C   0  0  0  0  0  0  0  0  0  0  0  0
   21.2885   -5.0820  -13.8666 C   0  0  2  0  0  0  0  0  0  0  0  0
   19.9837   -5.6470  -14.1501 N   0  0  0  0  0  0  0  0  0  0  0  0
   21.2135   -3.6163  -13.6690 C   0  0  0  0  0  0  0  0  0  0  0  0
   20.3635   -2.9675  -14.3395 O   0  0  0  0  0  0  0  0  0  0  0  0
   22.0288   -2.9301  -12.7872 O   0  0  0  0  0  0  0  0  0  0  0  0
  2  1  1  0
  3  2  2  0
  4  5  1  0
  4  2  1  0
  5  6  1  6
  7  8  2  0
  7  5  1  0
 10  9  1  1
 10 12  1  0
 10 11  1  0
 11  7  1  0
 12 13  2  0
 15 14  1  0
 16 15  1  6
 17 12  1  0
 17 16  1  0
 18 20  1  0
 18 16  1  0
 19 18  2  0
M  END
$$$$
