NAS.pdb
     RDKit          3D

 20 19  0  0  1  0  0  0  0  0999 V2000
   16.4827  -11.9483  -18.0258 N   0  0  0  0  0  0  0  0  0  0  0  0
   16.1066  -10.6889  -17.5197 C   0  0  0  0  0  0  0  0  0  0  0  0
   15.0651  -10.1304  -17.9127 O   0  0  0  0  0  0  0  0  0  0  0  0
   16.9820  -10.0527  -16.5122 C   0  0  0  0  0  0  0  0  0  0  0  0
   18.1973  -10.9381  -16.2056 C   0  0  2  0  0  0  0  0  0  0  0  0
   17.8210  -12.0270  -15.3311 N   0  0  0  0  0  0  0  0  0  0  0  0
   19.1552  -10.0732  -15.4795 C   0  0  0  0  0  0  0  0  0  0  0  0
   18.7650   -9.4737  -14.4511 O   0  0  0  0  0  0  0  0  0  0  0  0
   22.7654   -9.3156  -15.4363 C   0  0  0  0  0  0  0  0  0  0  0  0
   21.3228   -8.9869  -15.1372 C   0  0  2  0  0  0  0  0  0  0  0  0
   20.4971   -9.8940  -15.8988 N   0  0  0  0  0  0  0  0  0  0  0  0
   20.9983   -7.5747  -15.3887 C   0  0  0  0  0  0  0  0  0  0  0  0
   20.4434   -7.2666  -16.4674 O   0  0  0  0  0  0  0  0  0  0  0  0
   19.4449   -3.5608  -14.0716 O   0  0  0  0  0  0  0  0  0  0  0  0
   19.6791   -4.9282  -13.9728 C   0  0  0  0  0  0  0  0  0  0  0  0
   21.0382   -5.1859  -14.5939 C   0  0  2  0  0  0  0  0  0  0  0  0
   21.3164   -6.5976  -14.4149 N   0  0  0  0  0  0  0  0  0  0  0  0
   22.0731   -4.3436  -13.9517 C   0  0  0  0  0  0  0  0  0  0  0  0
   22.6859   -4.8111  -12.9523 O   0  0  0  0  0  0  0  0  0  0  0  0
   22.3964   -3.0741  -14.3956 O   0  0  0  0  0  0  0  0  0  0  0  0
  2  1  1  0
  3  2  2  0
  4  5  1  0
  4  2  1  0
  5  6  1  1
  7  8  2  0
  7  5  1  0
 10  9  1  6
 10 12  1  0
 10 11  1  0
 11  7  1  0
 12 13  2  0
 15 14  1  0
 16 15  1  1
 17 12  1  0
 17 16  1  0
 18 20  1  0
 18 16  1  0
 19 18  2  0
M  END
$$$$
