NAS.pdb
     RDKit          3D

 20 19  0  0  1  0  0  0  0  0999 V2000
   21.2454  -12.1291  -17.8777 N   0  0  0  0  0  0  0  0  0  0  0  0
   22.1974  -11.0927  -17.8225 C   0  0  0  0  0  0  0  0  0  0  0  0
   23.3172  -11.2286  -18.3503 O   0  0  0  0  0  0  0  0  0  0  0  0
   21.8288   -9.8439  -17.1220 C   0  0  0  0  0  0  0  0  0  0  0  0
   20.4004   -9.9285  -16.5676 C   0  0  2  0  0  0  0  0  0  0  0  0
   19.4351   -9.7991  -17.6370 N   0  0  0  0  0  0  0  0  0  0  0  0
   20.2472   -8.7647  -15.6646 C   0  0  0  0  0  0  0  0  0  0  0  0
   20.1715   -7.6194  -16.1663 O   0  0  0  0  0  0  0  0  0  0  0  0
   19.8290   -8.0873  -12.0359 C   0  0  0  0  0  0  0  0  0  0  0  0
   20.0082   -7.6853  -13.4798 C   0  0  2  0  0  0  0  0  0  0  0  0
   20.1825   -8.8912  -14.2545 N   0  0  0  0  0  0  0  0  0  0  0  0
   21.1045   -6.7236  -13.6696 C   0  0  0  0  0  0  0  0  0  0  0  0
   22.2385   -7.1551  -13.9768 O   0  0  0  0  0  0  0  0  0  0  0  0
   22.7000   -3.5481  -16.0041 O   0  0  0  0  0  0  0  0  0  0  0  0
   21.8522   -4.5340  -15.5106 C   0  0  0  0  0  0  0  0  0  0  0  0
   21.7492   -4.3142  -14.0138 C   0  0  2  0  0  0  0  0  0  0  0  0
   20.8600   -5.3392  -13.5031 N   0  0  0  0  0  0  0  0  0  0  0  0
   21.2367   -2.9562  -13.7203 C   0  0  0  0  0  0  0  0  0  0  0  0
   19.9902   -2.7656  -13.7732 O   0  0  0  0  0  0  0  0  0  0  0  0
   22.0585   -1.8930  -13.3926 O   0  0  0  0  0  0  0  0  0  0  0  0
  2  1  1  0
  3  2  2  0
  4  5  1  0
  4  2  1  0
  5  6  1  6
  7  8  2  0
  7  5  1  0
 10  9  1  1
 10 12  1  0
 10 11  1  0
 11  7  1  0
 12 13  2  0
 15 14  1  0
 16 15  1  6
 17 12  1  0
 17 16  1  0
 18 20  1  0
 18 16  1  0
 19 18  2  0
M  END
$$$$
