NAS.pdb
     RDKit          3D

 20 19  0  0  1  0  0  0  0  0999 V2000
   22.6489   -5.7630  -13.2277 N   0  0  0  0  0  0  0  0  0  0  0  0
   21.4041   -5.1853  -13.5442 C   0  0  0  0  0  0  0  0  0  0  0  0
   21.3062   -3.9623  -13.7580 O   0  0  0  0  0  0  0  0  0  0  0  0
   20.2222   -6.0709  -13.6149 C   0  0  0  0  0  0  0  0  0  0  0  0
   20.6150   -7.5302  -13.3483 C   0  0  2  0  0  0  0  0  0  0  0  0
   21.3192   -8.0794  -14.4861 N   0  0  0  0  0  0  0  0  0  0  0  0
   19.3416   -8.2700  -13.1929 C   0  0  0  0  0  0  0  0  0  0  0  0
   18.6895   -8.5685  -14.2200 O   0  0  0  0  0  0  0  0  0  0  0  0
   17.4235   -9.9882  -10.5347 C   0  0  0  0  0  0  0  0  0  0  0  0
   17.5756   -9.3742  -11.9052 C   0  0  2  0  0  0  0  0  0  0  0  0
   18.8277   -8.6556  -11.9296 N   0  0  0  0  0  0  0  0  0  0  0  0
   16.4294   -8.5329  -12.2809 C   0  0  0  0  0  0  0  0  0  0  0  0
   16.3806   -7.3563  -11.8571 O   0  0  0  0  0  0  0  0  0  0  0  0
   14.4495   -9.5741  -15.4705 O   0  0  0  0  0  0  0  0  0  0  0  0
   14.2786   -8.2622  -15.0416 C   0  0  0  0  0  0  0  0  0  0  0  0
   14.2536   -8.2965  -13.5258 C   0  0  2  0  0  0  0  0  0  0  0  0
   15.4106   -9.0641  -13.1080 N   0  0  0  0  0  0  0  0  0  0  0  0
   12.9945   -8.9050  -13.0387 C   0  0  0  0  0  0  0  0  0  0  0  0
   13.0649   -9.9965  -12.4089 O   0  0  0  0  0  0  0  0  0  0  0  0
   11.7513   -8.3338  -13.2420 O   0  0  0  0  0  0  0  0  0  0  0  0
  2  1  1  0
  3  2  2  0
  4  5  1  0
  4  2  1  0
  5  6  1  6
  7  8  2  0
  7  5  1  0
 10  9  1  1
 10 12  1  0
 10 11  1  0
 11  7  1  0
 12 13  2  0
 15 14  1  0
 16 15  1  6
 17 12  1  0
 17 16  1  0
 18 20  1  0
 18 16  1  0
 19 18  2  0
M  END
$$$$
