NAS.pdb
     RDKit          3D

 20 19  0  0  1  0  0  0  0  0999 V2000
   14.7646  -12.5860  -15.7766 N   0  0  0  0  0  0  0  0  0  0  0  0
   14.9150  -11.5526  -14.8317 C   0  0  0  0  0  0  0  0  0  0  0  0
   13.9803  -11.2487  -14.0669 O   0  0  0  0  0  0  0  0  0  0  0  0
   16.2107  -10.8425  -14.7754 C   0  0  0  0  0  0  0  0  0  0  0  0
   17.1870  -11.4014  -15.8191 C   0  0  2  0  0  0  0  0  0  0  0  0
   17.6982  -12.6864  -15.3953 N   0  0  0  0  0  0  0  0  0  0  0  0
   18.3187  -10.4475  -15.8663 C   0  0  0  0  0  0  0  0  0  0  0  0
   19.2053  -10.5211  -14.9845 O   0  0  0  0  0  0  0  0  0  0  0  0
   19.7879   -8.0639  -18.2659 C   0  0  0  0  0  0  0  0  0  0  0  0
   19.6538   -8.6677  -16.8890 C   0  0  2  0  0  0  0  0  0  0  0  0
   18.4421   -9.4526  -16.8682 N   0  0  0  0  0  0  0  0  0  0  0  0
   19.6966   -7.6588  -15.8199 C   0  0  0  0  0  0  0  0  0  0  0  0
   18.6196   -7.2690  -15.3154 O   0  0  0  0  0  0  0  0  0  0  0  0
   22.6292   -5.0741  -12.9974 O   0  0  0  0  0  0  0  0  0  0  0  0
   22.5098   -6.0899  -13.9398 C   0  0  0  0  0  0  0  0  0  0  0  0
   21.0647   -6.0936  -14.3994 C   0  0  2  0  0  0  0  0  0  0  0  0
   20.9441   -7.1509  -15.3842 N   0  0  0  0  0  0  0  0  0  0  0  0
   20.6954   -4.7775  -14.9688 C   0  0  0  0  0  0  0  0  0  0  0  0
   20.9324   -4.5694  -16.1909 O   0  0  0  0  0  0  0  0  0  0  0  0
   20.1055   -3.7713  -14.2254 O   0  0  0  0  0  0  0  0  0  0  0  0
  2  1  1  0
  3  2  2  0
  4  5  1  0
  4  2  1  0
  5  6  1  1
  7  8  2  0
  7  5  1  0
 10  9  1  6
 10 12  1  0
 10 11  1  0
 11  7  1  0
 12 13  2  0
 15 14  1  0
 16 15  1  6
 17 12  1  0
 17 16  1  0
 18 20  1  0
 18 16  1  0
 19 18  2  0
M  END
$$$$
