NAS.pdb
     RDKit          3D

 20 19  0  0  1  0  0  0  0  0999 V2000
   11.6191  -12.3326   -9.0614 N   0  0  0  0  0  0  0  0  0  0  0  0
   12.7038  -12.4460   -9.9526 C   0  0  0  0  0  0  0  0  0  0  0  0
   13.0482  -13.5571  -10.3976 O   0  0  0  0  0  0  0  0  0  0  0  0
   13.4180  -11.2115  -10.3422 C   0  0  0  0  0  0  0  0  0  0  0  0
   12.7973   -9.9828   -9.6641 C   0  0  2  0  0  0  0  0  0  0  0  0
   11.5439   -9.6360  -10.2970 N   0  0  0  0  0  0  0  0  0  0  0  0
   13.7505   -8.8719   -9.8888 C   0  0  0  0  0  0  0  0  0  0  0  0
   13.8519   -8.3893  -11.0403 O   0  0  0  0  0  0  0  0  0  0  0  0
   15.7817   -6.4993   -7.9410 C   0  0  0  0  0  0  0  0  0  0  0  0
   15.4675   -7.2668   -9.2023 C   0  0  2  0  0  0  0  0  0  0  0  0
   14.5546   -8.3301   -8.8551 N   0  0  0  0  0  0  0  0  0  0  0  0
   16.6749   -7.7540   -9.8861 C   0  0  0  0  0  0  0  0  0  0  0  0
   17.0797   -8.9129   -9.6419 O   0  0  0  0  0  0  0  0  0  0  0  0
   18.5219   -8.7547  -13.6430 O   0  0  0  0  0  0  0  0  0  0  0  0
   17.5898   -8.3078  -12.7125 C   0  0  0  0  0  0  0  0  0  0  0  0
   18.3322   -7.4026  -11.7486 C   0  0  2  0  0  0  0  0  0  0  0  0
   17.3516   -6.9113  -10.8004 N   0  0  0  0  0  0  0  0  0  0  0  0
   18.9871   -6.2916  -12.4763 C   0  0  0  0  0  0  0  0  0  0  0  0
   18.2761   -5.3111  -12.8314 O   0  0  0  0  0  0  0  0  0  0  0  0
   20.3359   -6.2802  -12.7826 O   0  0  0  0  0  0  0  0  0  0  0  0
  2  1  1  0
  3  2  2  0
  4  5  1  0
  4  2  1  0
  5  6  1  6
  7  8  2  0
  7  5  1  0
 10  9  1  1
 10 12  1  0
 10 11  1  0
 11  7  1  0
 12 13  2  0
 15 14  1  0
 16 15  1  6
 17 12  1  0
 17 16  1  0
 18 20  1  0
 18 16  1  0
 19 18  2  0
M  END
$$$$
