NAS.pdb
     RDKit          3D

 20 19  0  0  1  0  0  0  0  0999 V2000
   15.8463  -12.5223  -14.9829 N   0  0  0  0  0  0  0  0  0  0  0  0
   16.6475  -12.0963  -16.0600 C   0  0  0  0  0  0  0  0  0  0  0  0
   16.3946  -12.4600  -17.2239 O   0  0  0  0  0  0  0  0  0  0  0  0
   17.7928  -11.2079  -15.7683 C   0  0  0  0  0  0  0  0  0  0  0  0
   19.0105  -11.5865  -16.6220 C   0  0  2  0  0  0  0  0  0  0  0  0
   19.5675  -12.8450  -16.1771 N   0  0  0  0  0  0  0  0  0  0  0  0
   20.0170  -10.5267  -16.3837 C   0  0  0  0  0  0  0  0  0  0  0  0
   20.3687  -10.2842  -15.2061 O   0  0  0  0  0  0  0  0  0  0  0  0
   22.4434   -8.5622  -18.3445 C   0  0  0  0  0  0  0  0  0  0  0  0
   21.6563   -8.8499  -17.0890 C   0  0  2  0  0  0  0  0  0  0  0  0
   20.6007   -9.7732  -17.4327 N   0  0  0  0  0  0  0  0  0  0  0  0
   21.1553   -7.6288  -16.4405 C   0  0  0  0  0  0  0  0  0  0  0  0
   19.9963   -7.2376  -16.7055 O   0  0  0  0  0  0  0  0  0  0  0  0
   21.8568   -6.6560  -12.7825 O   0  0  0  0  0  0  0  0  0  0  0  0
   22.3336   -5.6186  -13.5768 C   0  0  0  0  0  0  0  0  0  0  0  0
   21.5796   -5.6905  -14.8905 C   0  0  2  0  0  0  0  0  0  0  0  0
   21.9853   -6.9238  -15.5360 N   0  0  0  0  0  0  0  0  0  0  0  0
   21.8858   -4.5115  -15.7325 C   0  0  0  0  0  0  0  0  0  0  0  0
   22.7936   -4.6204  -16.6026 O   0  0  0  0  0  0  0  0  0  0  0  0
   21.2252   -3.3026  -15.6089 O   0  0  0  0  0  0  0  0  0  0  0  0
  2  1  1  0
  3  2  2  0
  4  5  1  0
  4  2  1  0
  5  6  1  1
  7  8  2  0
  7  5  1  0
 10  9  1  6
 10 12  1  0
 10 11  1  0
 11  7  1  0
 12 13  2  0
 15 14  1  0
 16 15  1  1
 17 12  1  0
 17 16  1  0
 18 20  1  0
 18 16  1  0
 19 18  2  0
M  END
$$$$
