NAS.pdb
     RDKit          3D

 20 19  0  0  1  0  0  0  0  0999 V2000
   13.1352   -5.9807   -7.9641 N   0  0  0  0  0  0  0  0  0  0  0  0
   14.4857   -5.6002   -7.8429 C   0  0  0  0  0  0  0  0  0  0  0  0
   14.8167   -4.6557   -7.1017 O   0  0  0  0  0  0  0  0  0  0  0  0
   15.4944   -6.3529   -8.6189 C   0  0  0  0  0  0  0  0  0  0  0  0
   14.8361   -7.4832   -9.4212 C   0  0  2  0  0  0  0  0  0  0  0  0
   14.5938   -8.6296   -8.5732 N   0  0  0  0  0  0  0  0  0  0  0  0
   15.8226   -7.8739  -10.4543 C   0  0  0  0  0  0  0  0  0  0  0  0
   16.8580   -8.4825  -10.0983 O   0  0  0  0  0  0  0  0  0  0  0  0
   15.8913   -8.3713  -14.0715 C   0  0  0  0  0  0  0  0  0  0  0  0
   16.6023   -8.1418  -12.7600 C   0  0  2  0  0  0  0  0  0  0  0  0
   15.6455   -7.5882  -11.8311 N   0  0  0  0  0  0  0  0  0  0  0  0
   17.8042   -7.3066  -12.9042 C   0  0  0  0  0  0  0  0  0  0  0  0
   17.7516   -6.1080  -12.5478 O   0  0  0  0  0  0  0  0  0  0  0  0
   21.5768   -8.3500  -12.2909 O   0  0  0  0  0  0  0  0  0  0  0  0
   21.3525   -8.0623  -13.6330 C   0  0  0  0  0  0  0  0  0  0  0  0
   20.1883   -7.0920  -13.6845 C   0  0  2  0  0  0  0  0  0  0  0  0
   18.9887   -7.8682  -13.4386 N   0  0  0  0  0  0  0  0  0  0  0  0
   20.1343   -6.4120  -14.9989 C   0  0  0  0  0  0  0  0  0  0  0  0
   19.4020   -6.9105  -15.8979 O   0  0  0  0  0  0  0  0  0  0  0  0
   20.8466   -5.2611  -15.2840 O   0  0  0  0  0  0  0  0  0  0  0  0
  2  1  1  0
  3  2  2  0
  4  5  1  0
  4  2  1  0
  5  6  1  1
  7  8  2  0
  7  5  1  0
 10  9  1  6
 10 12  1  0
 10 11  1  0
 11  7  1  0
 12 13  2  0
 15 14  1  0
 16 15  1  6
 17 12  1  0
 17 16  1  0
 18 20  1  0
 18 16  1  0
 19 18  2  0
M  END
$$$$
