NAS.pdb
     RDKit          3D

 20 19  0  0  1  0  0  0  0  0999 V2000
   14.9246  -11.8736  -14.4421 N   0  0  0  0  0  0  0  0  0  0  0  0
   15.4319  -11.1390  -15.5314 C   0  0  0  0  0  0  0  0  0  0  0  0
   14.7835  -11.0415  -16.5902 O   0  0  0  0  0  0  0  0  0  0  0  0
   16.7517  -10.4900  -15.3805 C   0  0  0  0  0  0  0  0  0  0  0  0
   17.6147  -10.7072  -16.6307 C   0  0  2  0  0  0  0  0  0  0  0  0
   18.0923  -12.0714  -16.6839 N   0  0  0  0  0  0  0  0  0  0  0  0
   18.7856   -9.8142  -16.4742 C   0  0  0  0  0  0  0  0  0  0  0  0
   19.5732  -10.0155  -15.5212 O   0  0  0  0  0  0  0  0  0  0  0  0
   20.6125   -7.2768  -18.4192 C   0  0  0  0  0  0  0  0  0  0  0  0
   20.2464   -7.9593  -17.1236 C   0  0  2  0  0  0  0  0  0  0  0  0
   19.0542   -8.7393  -17.3581 N   0  0  0  0  0  0  0  0  0  0  0  0
   20.0977   -7.0146  -16.0064 C   0  0  0  0  0  0  0  0  0  0  0  0
   18.9873   -6.4669  -15.8239 O   0  0  0  0  0  0  0  0  0  0  0  0
   21.1642   -7.5114  -12.4636 O   0  0  0  0  0  0  0  0  0  0  0  0
   21.9169   -6.4329  -12.9158 C   0  0  0  0  0  0  0  0  0  0  0  0
   21.1426   -5.8072  -14.0597 C   0  0  2  0  0  0  0  0  0  0  0  0
   21.2033   -6.7441  -15.1646 N   0  0  0  0  0  0  0  0  0  0  0  0
   21.7248   -4.4962  -14.4277 C   0  0  0  0  0  0  0  0  0  0  0  0
   21.7081   -3.5741  -13.5662 O   0  0  0  0  0  0  0  0  0  0  0  0
   22.2830   -4.2384  -15.6667 O   0  0  0  0  0  0  0  0  0  0  0  0
  2  1  1  0
  3  2  2  0
  4  5  1  0
  4  2  1  0
  5  6  1  1
  7  8  2  0
  7  5  1  0
 10  9  1  6
 10 12  1  0
 10 11  1  0
 11  7  1  0
 12 13  2  0
 15 14  1  0
 16 15  1  1
 17 12  1  0
 17 16  1  0
 18 20  1  0
 18 16  1  0
 19 18  2  0
M  END
$$$$
