SDF.pdb
     RDKit          3D

 26 26  0  0  1  0  0  0  0  0999 V2000
    8.8516  -12.9591   21.1029 O   0  0  0  0  0  0  0  0  0  0  0  0
    7.5277  -13.2839   20.8561 C   0  0  0  0  0  0  0  0  0  0  0  0
    7.3826  -14.7646   20.4771 C   0  0  2  0  0  0  0  0  0  0  0  0
    6.0032  -14.9808   20.1125 N   0  0  0  0  0  0  0  0  0  0  0  0
    7.7820  -15.5292   21.6844 C   0  0  0  0  0  0  0  0  0  0  0  0
    6.8644  -15.8266   22.4933 O   0  0  0  0  0  0  0  0  0  0  0  0
    9.1499  -15.9037   21.9049 N   0  0  0  0  0  0  0  0  0  0  0  0
    9.4196  -16.7885   22.9960 C   0  0  1  0  0  0  0  0  0  0  0  0
   10.5878  -17.6962   22.6718 C   0  0  0  0  0  0  0  0  0  0  0  0
   10.7244  -18.7082   23.7323 C   0  0  0  0  0  0  0  0  0  0  0  0
    9.6761  -19.0714   24.3602 O   0  0  0  0  0  0  0  0  0  0  0  0
    9.8545  -16.0292   24.2249 C   0  0  0  0  0  0  0  0  0  0  0  0
   10.7959  -15.2000   24.1750 O   0  0  0  0  0  0  0  0  0  0  0  0
   11.9069  -19.3056   24.1107 O   0  0  0  0  0  0  0  0  0  0  0  0
    9.2089  -16.2382   25.4570 N   0  0  0  0  0  0  0  0  0  0  0  0
    9.5144  -15.5198   26.6793 C   0  0  1  0  0  0  0  0  0  0  0  0
    8.1816  -15.1725   27.2982 C   0  0  0  0  0  0  0  0  0  0  0  0
    7.5819  -13.9826   26.6767 C   0  0  0  0  0  0  0  0  0  0  0  0
    8.2125  -12.7744   26.6985 C   0  0  0  0  0  0  0  0  0  0  0  0
    7.6643  -11.6528   26.1116 C   0  0  0  0  0  0  0  0  0  0  0  0
    6.4327  -11.7638   25.4813 C   0  0  0  0  0  0  0  0  0  0  0  0
    5.7751  -12.9699   25.4448 C   0  0  0  0  0  0  0  0  0  0  0  0
    6.3520  -14.0673   26.0406 C   0  0  0  0  0  0  0  0  0  0  0  0
   10.2840  -16.3376   27.6320 C   0  0  0  0  0  0  0  0  0  0  0  0
   10.6873  -16.0069   28.7486 O   0  0  0  0  0  0  0  0  0  0  0  0
   10.5979  -17.6502   27.2253 O   0  0  0  0  0  0  0  0  0  0  0  0
  2  1  1  0
  3  5  1  0
  3  4  1  1
  3  2  1  0
  5  6  2  0
  7  8  1  0
  7  5  1  0
  8 12  1  0
  8  9  1  6
 10  9  1  0
 11 10  2  0
 12 13  2  0
 12 15  1  0
 14 10  1  0
 15 16  1  0
 16 24  1  0
 16 17  1  1
 18 17  1  0
 19 18  2  0
 20 19  1  0
 21 20  2  0
 21 22  1  0
 22 23  2  0
 23 18  1  0
 24 25  2  0
 24 26  1  0
M  END
$$$$
