SDF.pdb
     RDKit          3D

 26 26  0  0  1  0  0  0  0  0999 V2000
    6.9941  -13.1460   21.9637 O   0  0  0  0  0  0  0  0  0  0  0  0
    7.5838  -13.4706   20.7528 C   0  0  0  0  0  0  0  0  0  0  0  0
    7.3644  -14.9509   20.4098 C   0  0  2  0  0  0  0  0  0  0  0  0
    5.9394  -15.1729   20.3597 N   0  0  0  0  0  0  0  0  0  0  0  0
    8.0250  -15.7170   21.4954 C   0  0  0  0  0  0  0  0  0  0  0  0
    7.2735  -16.3850   22.2528 O   0  0  0  0  0  0  0  0  0  0  0  0
    9.4504  -15.6877   21.6609 N   0  0  0  0  0  0  0  0  0  0  0  0
   10.0229  -16.6228   22.5796 C   0  0  1  0  0  0  0  0  0  0  0  0
   11.4854  -16.8562   22.2628 C   0  0  0  0  0  0  0  0  0  0  0  0
   11.8796  -18.1894   22.7471 C   0  0  0  0  0  0  0  0  0  0  0  0
   11.8409  -18.4128   24.0016 O   0  0  0  0  0  0  0  0  0  0  0  0
   10.0181  -16.0826   23.9882 C   0  0  0  0  0  0  0  0  0  0  0  0
   10.7648  -15.1292   24.3193 O   0  0  0  0  0  0  0  0  0  0  0  0
   12.2938  -19.2328   21.9482 O   0  0  0  0  0  0  0  0  0  0  0  0
    9.1711  -16.6413   24.9625 N   0  0  0  0  0  0  0  0  0  0  0  0
    9.2220  -16.3254   26.3770 C   0  0  1  0  0  0  0  0  0  0  0  0
    7.8147  -15.9385   26.7644 C   0  0  0  0  0  0  0  0  0  0  0  0
    7.5309  -14.5280   26.4618 C   0  0  0  0  0  0  0  0  0  0  0  0
    8.2466  -13.5194   27.0348 C   0  0  0  0  0  0  0  0  0  0  0  0
    7.9956  -12.1927   26.7524 C   0  0  0  0  0  0  0  0  0  0  0  0
    6.9821  -11.8811   25.8570 C   0  0  0  0  0  0  0  0  0  0  0  0
    6.2447  -12.8783   25.2650 C   0  0  0  0  0  0  0  0  0  0  0  0
    6.5230  -14.1904   25.5703 C   0  0  0  0  0  0  0  0  0  0  0  0
    9.6418  -17.4770   27.1932 C   0  0  0  0  0  0  0  0  0  0  0  0
    9.8005  -17.5117   28.4149 O   0  0  0  0  0  0  0  0  0  0  0  0
    9.8918  -18.6803   26.5031 O   0  0  0  0  0  0  0  0  0  0  0  0
  2  1  1  0
  3  5  1  0
  3  4  1  1
  3  2  1  0
  5  6  2  0
  7  8  1  0
  7  5  1  0
  8 12  1  0
  8  9  1  6
 10  9  1  0
 11 10  2  0
 12 13  2  0
 12 15  1  0
 14 10  1  0
 15 16  1  0
 16 24  1  0
 16 17  1  1
 18 17  1  0
 19 18  2  0
 20 19  1  0
 21 20  2  0
 21 22  1  0
 22 23  2  0
 23 18  1  0
 24 25  2  0
 24 26  1  0
M  END
$$$$
