SDF.pdb
     RDKit          3D

 26 26  0  0  1  0  0  0  0  0999 V2000
   10.0795  -13.7928   19.6530 O   0  0  0  0  0  0  0  0  0  0  0  0
    9.3036  -14.5129   18.7593 C   0  0  0  0  0  0  0  0  0  0  0  0
    7.8081  -14.2565   18.9933 C   0  0  2  0  0  0  0  0  0  0  0  0
    7.5780  -12.8464   18.7907 N   0  0  0  0  0  0  0  0  0  0  0  0
    7.5405  -14.6853   20.3884 C   0  0  0  0  0  0  0  0  0  0  0  0
    7.6512  -13.8043   21.2807 O   0  0  0  0  0  0  0  0  0  0  0  0
    7.1748  -16.0401   20.6895 N   0  0  0  0  0  0  0  0  0  0  0  0
    6.9036  -16.3573   22.0577 C   0  0  1  0  0  0  0  0  0  0  0  0
    6.4421  -17.7935   22.1920 C   0  0  0  0  0  0  0  0  0  0  0  0
    6.1746  -18.0862   23.6098 C   0  0  0  0  0  0  0  0  0  0  0  0
    5.3015  -17.3841   24.2180 O   0  0  0  0  0  0  0  0  0  0  0  0
    8.1534  -16.2767   22.8987 C   0  0  0  0  0  0  0  0  0  0  0  0
    9.2615  -16.6621   22.4516 O   0  0  0  0  0  0  0  0  0  0  0  0
    6.7972  -19.0693   24.3478 O   0  0  0  0  0  0  0  0  0  0  0  0
    8.0993  -15.7651   24.2079 N   0  0  0  0  0  0  0  0  0  0  0  0
    9.2546  -15.5591   25.0601 C   0  0  1  0  0  0  0  0  0  0  0  0
    9.4423  -14.0633   25.1466 C   0  0  0  0  0  0  0  0  0  0  0  0
    8.2750  -13.3978   25.7435 C   0  0  0  0  0  0  0  0  0  0  0  0
    8.2371  -13.0810   27.0687 C   0  0  0  0  0  0  0  0  0  0  0  0
    7.1514  -12.4490   27.6386 C   0  0  0  0  0  0  0  0  0  0  0  0
    6.0673  -12.1284   26.8334 C   0  0  0  0  0  0  0  0  0  0  0  0
    6.0791  -12.4366   25.4942 C   0  0  0  0  0  0  0  0  0  0  0  0
    7.1788  -13.0670   24.9601 C   0  0  0  0  0  0  0  0  0  0  0  0
    9.0517  -16.0934   26.4173 C   0  0  0  0  0  0  0  0  0  0  0  0
    8.0237  -16.5902   26.8813 O   0  0  0  0  0  0  0  0  0  0  0  0
   10.1569  -16.0324   27.2900 O   0  0  0  0  0  0  0  0  0  0  0  0
  2  1  1  0
  3  5  1  0
  3  4  1  1
  3  2  1  0
  5  6  2  0
  7  8  1  0
  7  5  1  0
  8 12  1  0
  8  9  1  6
 10  9  1  0
 11 10  2  0
 12 13  2  0
 12 15  1  0
 14 10  1  0
 15 16  1  0
 16 24  1  0
 16 17  1  1
 18 17  1  0
 19 18  2  0
 20 19  1  0
 21 20  2  0
 21 22  1  0
 22 23  2  0
 23 18  1  0
 24 25  2  0
 24 26  1  0
M  END
$$$$
