SDF.pdb
     RDKit          3D

 26 26  0  0  1  0  0  0  0  0999 V2000
    6.2809  -15.1241   22.3734 O   0  0  0  0  0  0  0  0  0  0  0  0
    6.2639  -15.7873   21.1572 C   0  0  0  0  0  0  0  0  0  0  0  0
    7.6353  -15.7187   20.4704 C   0  0  2  0  0  0  0  0  0  0  0  0
    7.5000  -16.3478   19.1787 N   0  0  0  0  0  0  0  0  0  0  0  0
    8.5695  -16.4451   21.3656 C   0  0  0  0  0  0  0  0  0  0  0  0
    8.1921  -17.5721   21.7806 O   0  0  0  0  0  0  0  0  0  0  0  0
    9.8365  -15.8782   21.7310 N   0  0  0  0  0  0  0  0  0  0  0  0
   10.6255  -16.5962   22.6839 C   0  0  1  0  0  0  0  0  0  0  0  0
   12.1009  -16.3402   22.4574 C   0  0  0  0  0  0  0  0  0  0  0  0
   12.4970  -16.9055   21.1570 C   0  0  0  0  0  0  0  0  0  0  0  0
   12.1788  -18.1129   20.9003 O   0  0  0  0  0  0  0  0  0  0  0  0
   10.3646  -16.1129   24.0890 C   0  0  0  0  0  0  0  0  0  0  0  0
   10.9241  -15.0807   24.5338 O   0  0  0  0  0  0  0  0  0  0  0  0
   13.1936  -16.2308   20.1782 O   0  0  0  0  0  0  0  0  0  0  0  0
    9.4839  -16.8149   24.9318 N   0  0  0  0  0  0  0  0  0  0  0  0
    9.2217  -16.4737   26.3168 C   0  0  1  0  0  0  0  0  0  0  0  0
    7.7423  -16.1821   26.3971 C   0  0  0  0  0  0  0  0  0  0  0  0
    7.4575  -14.7471   26.2504 C   0  0  0  0  0  0  0  0  0  0  0  0
    6.4869  -14.2972   25.4057 C   0  0  0  0  0  0  0  0  0  0  0  0
    6.2045  -12.9543   25.2658 C   0  0  0  0  0  0  0  0  0  0  0  0
    6.9341  -12.0377   26.0100 C   0  0  0  0  0  0  0  0  0  0  0  0
    7.9185  -12.4640   26.8689 C   0  0  0  0  0  0  0  0  0  0  0  0
    8.1728  -13.8110   26.9829 C   0  0  0  0  0  0  0  0  0  0  0  0
    9.5404  -17.5792   27.2359 C   0  0  0  0  0  0  0  0  0  0  0  0
    9.7987  -18.7477   26.9416 O   0  0  0  0  0  0  0  0  0  0  0  0
    9.5530  -17.2711   28.6113 O   0  0  0  0  0  0  0  0  0  0  0  0
  2  1  1  0
  3  5  1  0
  3  4  1  6
  3  2  1  0
  5  6  2  0
  7  8  1  0
  7  5  1  0
  8 12  1  0
  8  9  1  6
 10  9  1  0
 11 10  2  0
 12 13  2  0
 12 15  1  0
 14 10  1  0
 15 16  1  0
 16 24  1  0
 16 17  1  6
 18 17  1  0
 19 18  2  0
 20 19  1  0
 21 20  2  0
 21 22  1  0
 22 23  2  0
 23 18  1  0
 24 25  2  0
 24 26  1  0
M  END
$$$$
