SDF.pdb
     RDKit          3D

 26 26  0  0  1  0  0  0  0  0999 V2000
   10.3505  -13.0574   20.3743 O   0  0  0  0  0  0  0  0  0  0  0  0
   10.1457  -13.7500   19.1921 C   0  0  0  0  0  0  0  0  0  0  0  0
    8.6717  -14.1488   19.0327 C   0  0  2  0  0  0  0  0  0  0  0  0
    7.9231  -12.9381   18.7955 N   0  0  0  0  0  0  0  0  0  0  0  0
    8.2957  -14.8141   20.3046 C   0  0  0  0  0  0  0  0  0  0  0  0
    7.7354  -14.0956   21.1732 O   0  0  0  0  0  0  0  0  0  0  0  0
    8.5642  -16.2077   20.5189 N   0  0  0  0  0  0  0  0  0  0  0  0
    8.2971  -16.7338   21.8220 C   0  0  1  0  0  0  0  0  0  0  0  0
    8.3931  -18.2452   21.8181 C   0  0  0  0  0  0  0  0  0  0  0  0
    7.5423  -18.7823   20.7434 C   0  0  0  0  0  0  0  0  0  0  0  0
    8.1085  -19.2693   19.7102 O   0  0  0  0  0  0  0  0  0  0  0  0
    9.3373  -16.2868   22.8190 C   0  0  0  0  0  0  0  0  0  0  0  0
   10.5536  -16.2424   22.5108 O   0  0  0  0  0  0  0  0  0  0  0  0
    6.1647  -18.8039   20.7583 O   0  0  0  0  0  0  0  0  0  0  0  0
    8.9607  -15.9095   24.1207 N   0  0  0  0  0  0  0  0  0  0  0  0
    9.8900  -15.6233   25.1968 C   0  0  1  0  0  0  0  0  0  0  0  0
    9.8796  -14.1226   25.3631 C   0  0  0  0  0  0  0  0  0  0  0  0
    8.5365  -13.6154   25.6808 C   0  0  0  0  0  0  0  0  0  0  0  0
    8.1495  -13.3835   26.9670 C   0  0  0  0  0  0  0  0  0  0  0  0
    6.8955  -12.8997   27.2772 C   0  0  0  0  0  0  0  0  0  0  0  0
    6.0046  -12.6433   26.2443 C   0  0  0  0  0  0  0  0  0  0  0  0
    6.3688  -12.8685   24.9384 C   0  0  0  0  0  0  0  0  0  0  0  0
    7.6278  -13.3514   24.6664 C   0  0  0  0  0  0  0  0  0  0  0  0
    9.4842  -16.2468   26.4677 C   0  0  0  0  0  0  0  0  0  0  0  0
    8.4690  -16.9102   26.6866 O   0  0  0  0  0  0  0  0  0  0  0  0
   10.3532  -16.0674   27.5629 O   0  0  0  0  0  0  0  0  0  0  0  0
  2  1  1  0
  3  5  1  0
  3  4  1  1
  3  2  1  0
  5  6  2  0
  7  8  1  0
  7  5  1  0
  8 12  1  0
  8  9  1  6
 10  9  1  0
 11 10  2  0
 12 13  2  0
 12 15  1  0
 14 10  1  0
 15 16  1  0
 16 24  1  0
 16 17  1  1
 18 17  1  0
 19 18  2  0
 20 19  1  0
 21 20  2  0
 21 22  1  0
 22 23  2  0
 23 18  1  0
 24 25  2  0
 24 26  1  0
M  END
$$$$
