SDF.pdb
     RDKit          3D

 26 26  0  0  1  0  0  0  0  0999 V2000
    7.4346  -12.4476   20.8127 O   0  0  0  0  0  0  0  0  0  0  0  0
    8.4563  -12.7997   19.9459 C   0  0  0  0  0  0  0  0  0  0  0  0
    8.2112  -14.1873   19.3363 C   0  0  2  0  0  0  0  0  0  0  0  0
    7.0631  -14.0779   18.4689 N   0  0  0  0  0  0  0  0  0  0  0  0
    7.9754  -15.0951   20.4860 C   0  0  0  0  0  0  0  0  0  0  0  0
    7.0803  -15.9683   20.3414 O   0  0  0  0  0  0  0  0  0  0  0  0
    8.7377  -14.9713   21.6958 N   0  0  0  0  0  0  0  0  0  0  0  0
    9.2274  -16.1777   22.2884 C   0  0  1  0  0  0  0  0  0  0  0  0
   10.2115  -16.8654   21.3652 C   0  0  0  0  0  0  0  0  0  0  0  0
   10.6572  -18.1250   21.9833 C   0  0  0  0  0  0  0  0  0  0  0  0
    9.8567  -18.7289   22.7704 O   0  0  0  0  0  0  0  0  0  0  0  0
   10.0146  -15.8934   23.5435 C   0  0  0  0  0  0  0  0  0  0  0  0
   10.8967  -15.0003   23.5669 O   0  0  0  0  0  0  0  0  0  0  0  0
   11.8852  -18.7165   21.7812 O   0  0  0  0  0  0  0  0  0  0  0  0
    9.7729  -16.6288   24.7180 N   0  0  0  0  0  0  0  0  0  0  0  0
    9.2030  -16.0777   25.9324 C   0  0  1  0  0  0  0  0  0  0  0  0
    7.8181  -15.6045   25.5606 C   0  0  0  0  0  0  0  0  0  0  0  0
    7.5805  -14.2169   25.9850 C   0  0  0  0  0  0  0  0  0  0  0  0
    6.3706  -13.6154   25.8056 C   0  0  0  0  0  0  0  0  0  0  0  0
    6.1327  -12.3173   26.2072 C   0  0  0  0  0  0  0  0  0  0  0  0
    7.1604  -11.6067   26.8115 C   0  0  0  0  0  0  0  0  0  0  0  0
    8.3903  -12.1888   27.0043 C   0  0  0  0  0  0  0  0  0  0  0  0
    8.5914  -13.4854   26.5912 C   0  0  0  0  0  0  0  0  0  0  0  0
    9.0922  -17.0812   27.0045 C   0  0  0  0  0  0  0  0  0  0  0  0
    9.2000  -16.8962   28.2182 O   0  0  0  0  0  0  0  0  0  0  0  0
    8.8331  -18.4069   26.6020 O   0  0  0  0  0  0  0  0  0  0  0  0
  2  1  1  0
  3  5  1  0
  3  4  1  6
  3  2  1  0
  5  6  2  0
  7  8  1  0
  7  5  1  0
  8 12  1  0
  8  9  1  6
 10  9  1  0
 11 10  2  0
 12 13  2  0
 12 15  1  0
 14 10  1  0
 15 16  1  0
 16 24  1  0
 16 17  1  6
 18 17  1  0
 19 18  2  0
 20 19  1  0
 21 20  2  0
 21 22  1  0
 22 23  2  0
 23 18  1  0
 24 25  2  0
 24 26  1  0
M  END
$$$$
