SDF.pdb
     RDKit          3D

 26 26  0  0  1  0  0  0  0  0999 V2000
   10.7419  -12.9063   19.8353 O   0  0  0  0  0  0  0  0  0  0  0  0
   10.2881  -13.8141   18.8923 C   0  0  0  0  0  0  0  0  0  0  0  0
    8.7557  -13.9062   18.9056 C   0  0  2  0  0  0  0  0  0  0  0  0
    8.2447  -12.5570   18.8741 N   0  0  0  0  0  0  0  0  0  0  0  0
    8.4071  -14.6209   20.1583 C   0  0  0  0  0  0  0  0  0  0  0  0
    7.9447  -13.9215   21.0973 O   0  0  0  0  0  0  0  0  0  0  0  0
    8.5935  -16.0390   20.2783 N   0  0  0  0  0  0  0  0  0  0  0  0
    8.2357  -16.6441   21.5240 C   0  0  1  0  0  0  0  0  0  0  0  0
    8.3353  -18.1526   21.4336 C   0  0  0  0  0  0  0  0  0  0  0  0
    7.6555  -18.6110   20.2109 C   0  0  0  0  0  0  0  0  0  0  0  0
    6.3822  -18.5627   20.1726 O   0  0  0  0  0  0  0  0  0  0  0  0
    9.2014  -16.2618   22.6182 C   0  0  0  0  0  0  0  0  0  0  0  0
   10.3252  -15.7712   22.3485 O   0  0  0  0  0  0  0  0  0  0  0  0
    8.2874  -19.0958   19.0865 O   0  0  0  0  0  0  0  0  0  0  0  0
    8.8579  -16.4495   23.9692 N   0  0  0  0  0  0  0  0  0  0  0  0
    9.6924  -16.0673   25.0921 C   0  0  1  0  0  0  0  0  0  0  0  0
    9.7569  -14.5589   25.0640 C   0  0  0  0  0  0  0  0  0  0  0  0
    8.5176  -13.9477   25.5662 C   0  0  0  0  0  0  0  0  0  0  0  0
    8.3490  -13.6651   26.8889 C   0  0  0  0  0  0  0  0  0  0  0  0
    7.1947  -13.0838   27.3711 C   0  0  0  0  0  0  0  0  0  0  0  0
    6.1770  -12.7799   26.4776 C   0  0  0  0  0  0  0  0  0  0  0  0
    6.3205  -13.0544   25.1387 C   0  0  0  0  0  0  0  0  0  0  0  0
    7.4857  -13.6344   24.6936 C   0  0  0  0  0  0  0  0  0  0  0  0
    9.1264  -16.4964   26.3821 C   0  0  0  0  0  0  0  0  0  0  0  0
    8.0292  -17.0210   26.5818 O   0  0  0  0  0  0  0  0  0  0  0  0
    9.9272  -16.2854   27.5227 O   0  0  0  0  0  0  0  0  0  0  0  0
  2  1  1  0
  3  5  1  0
  3  4  1  1
  3  2  1  0
  5  6  2  0
  7  8  1  0
  7  5  1  0
  8 12  1  0
  8  9  1  6
 10  9  1  0
 11 10  2  0
 12 13  2  0
 12 15  1  0
 14 10  1  0
 15 16  1  0
 16 24  1  0
 16 17  1  1
 18 17  1  0
 19 18  2  0
 20 19  1  0
 21 20  2  0
 21 22  1  0
 22 23  2  0
 23 18  1  0
 24 25  2  0
 24 26  1  0
M  END
$$$$
