SDF.pdb
     RDKit          3D

 26 26  0  0  1  0  0  0  0  0999 V2000
   10.1663  -12.9938   19.6999 O   0  0  0  0  0  0  0  0  0  0  0  0
    8.9314  -12.7350   19.1280 C   0  0  0  0  0  0  0  0  0  0  0  0
    8.1930  -14.0385   18.7924 C   0  0  2  0  0  0  0  0  0  0  0  0
    6.9171  -13.6747   18.2245 N   0  0  0  0  0  0  0  0  0  0  0  0
    8.0601  -14.7673   20.0780 C   0  0  0  0  0  0  0  0  0  0  0  0
    7.1944  -14.3368   20.8841 O   0  0  0  0  0  0  0  0  0  0  0  0
    8.8846  -15.9045   20.3732 N   0  0  0  0  0  0  0  0  0  0  0  0
    8.6184  -16.6092   21.5892 C   0  0  1  0  0  0  0  0  0  0  0  0
    8.9051  -18.0871   21.4242 C   0  0  0  0  0  0  0  0  0  0  0  0
   10.1238  -18.2573   20.6161 C   0  0  0  0  0  0  0  0  0  0  0  0
    9.9966  -18.6002   19.3949 O   0  0  0  0  0  0  0  0  0  0  0  0
    9.5400  -16.1620   22.6967 C   0  0  0  0  0  0  0  0  0  0  0  0
   10.7593  -15.9547   22.4811 O   0  0  0  0  0  0  0  0  0  0  0  0
   11.4106  -18.0753   21.0737 O   0  0  0  0  0  0  0  0  0  0  0  0
    9.0464  -15.9681   23.9996 N   0  0  0  0  0  0  0  0  0  0  0  0
    9.8655  -15.6388   25.1502 C   0  0  1  0  0  0  0  0  0  0  0  0
    9.8299  -14.1336   25.2652 C   0  0  0  0  0  0  0  0  0  0  0  0
    8.4921  -13.6430   25.6278 C   0  0  0  0  0  0  0  0  0  0  0  0
    7.5235  -13.4567   24.6870 C   0  0  0  0  0  0  0  0  0  0  0  0
    6.2622  -13.0052   25.0157 C   0  0  0  0  0  0  0  0  0  0  0  0
    5.9762  -12.7336   26.3464 C   0  0  0  0  0  0  0  0  0  0  0  0
    6.9343  -12.9124   27.3153 C   0  0  0  0  0  0  0  0  0  0  0  0
    8.1814  -13.3642   26.9508 C   0  0  0  0  0  0  0  0  0  0  0  0
    9.3426  -16.2248   26.3959 C   0  0  0  0  0  0  0  0  0  0  0  0
    8.2683  -16.8067   26.5573 O   0  0  0  0  0  0  0  0  0  0  0  0
   10.1607  -16.1098   27.5380 O   0  0  0  0  0  0  0  0  0  0  0  0
  2  1  1  0
  3  5  1  0
  3  4  1  1
  3  2  1  0
  5  6  2  0
  7  8  1  0
  7  5  1  0
  8 12  1  0
  8  9  1  6
 10  9  1  0
 11 10  2  0
 12 13  2  0
 12 15  1  0
 14 10  1  0
 15 16  1  0
 16 24  1  0
 16 17  1  1
 18 17  1  0
 19 18  2  0
 20 19  1  0
 21 20  2  0
 21 22  1  0
 22 23  2  0
 23 18  1  0
 24 25  2  0
 24 26  1  0
M  END
$$$$
