SDF.pdb
     RDKit          3D

 26 26  0  0  1  0  0  0  0  0999 V2000
    9.0476  -11.8511   19.4649 O   0  0  0  0  0  0  0  0  0  0  0  0
    8.4600  -12.6989   20.3897 C   0  0  0  0  0  0  0  0  0  0  0  0
    8.1183  -14.0556   19.7576 C   0  0  2  0  0  0  0  0  0  0  0  0
    6.7972  -13.9429   19.1880 N   0  0  0  0  0  0  0  0  0  0  0  0
    8.1820  -15.0418   20.8644 C   0  0  0  0  0  0  0  0  0  0  0  0
    7.1293  -15.2067   21.5347 O   0  0  0  0  0  0  0  0  0  0  0  0
    9.3905  -15.7637   21.1445 N   0  0  0  0  0  0  0  0  0  0  0  0
    9.3342  -16.7659   22.1636 C   0  0  1  0  0  0  0  0  0  0  0  0
   10.4386  -17.7845   21.9732 C   0  0  0  0  0  0  0  0  0  0  0  0
   10.1885  -18.5456   20.7380 C   0  0  0  0  0  0  0  0  0  0  0  0
    9.1924  -19.3406   20.7088 O   0  0  0  0  0  0  0  0  0  0  0  0
    9.5886  -16.1764   23.5288 C   0  0  0  0  0  0  0  0  0  0  0  0
   10.5497  -15.3935   23.7279 O   0  0  0  0  0  0  0  0  0  0  0  0
   10.9510  -18.4714   19.5928 O   0  0  0  0  0  0  0  0  0  0  0  0
    8.7479  -16.4955   24.6105 N   0  0  0  0  0  0  0  0  0  0  0  0
    8.9968  -16.1144   25.9875 C   0  0  1  0  0  0  0  0  0  0  0  0
    7.6633  -15.6723   26.5410 C   0  0  0  0  0  0  0  0  0  0  0  0
    7.3734  -14.2678   26.2168 C   0  0  0  0  0  0  0  0  0  0  0  0
    7.7397  -13.2547   27.0518 C   0  0  0  0  0  0  0  0  0  0  0  0
    7.4812  -11.9327   26.7547 C   0  0  0  0  0  0  0  0  0  0  0  0
    6.8276  -11.6307   25.5681 C   0  0  0  0  0  0  0  0  0  0  0  0
    6.4469  -12.6327   24.7081 C   0  0  0  0  0  0  0  0  0  0  0  0
    6.7213  -13.9399   25.0370 C   0  0  0  0  0  0  0  0  0  0  0  0
    9.5007  -17.2368   26.7969 C   0  0  0  0  0  0  0  0  0  0  0  0
    9.5576  -18.4255   26.4767 O   0  0  0  0  0  0  0  0  0  0  0  0
    9.9734  -16.9208   28.0867 O   0  0  0  0  0  0  0  0  0  0  0  0
  2  1  1  0
  3  5  1  0
  3  4  1  1
  3  2  1  0
  5  6  2  0
  7  8  1  0
  7  5  1  0
  8 12  1  0
  8  9  1  6
 10  9  1  0
 11 10  2  0
 12 13  2  0
 12 15  1  0
 14 10  1  0
 15 16  1  0
 16 24  1  0
 16 17  1  1
 18 17  1  0
 19 18  2  0
 20 19  1  0
 21 20  2  0
 21 22  1  0
 22 23  2  0
 23 18  1  0
 24 25  2  0
 24 26  1  0
M  END
$$$$
