SDF.pdb
     RDKit          3D

 26 26  0  0  1  0  0  0  0  0999 V2000
    6.7502  -13.9975   22.2403 O   0  0  0  0  0  0  0  0  0  0  0  0
    7.6023  -13.8631   21.1563 C   0  0  0  0  0  0  0  0  0  0  0  0
    7.8337  -15.2135   20.4636 C   0  0  2  0  0  0  0  0  0  0  0  0
    6.5408  -15.7231   20.0746 N   0  0  0  0  0  0  0  0  0  0  0  0
    8.5075  -16.0708   21.4699 C   0  0  0  0  0  0  0  0  0  0  0  0
    7.7855  -16.9070   22.0733 O   0  0  0  0  0  0  0  0  0  0  0  0
    9.9129  -15.9413   21.7312 N   0  0  0  0  0  0  0  0  0  0  0  0
   10.4723  -16.7854   22.7415 C   0  0  1  0  0  0  0  0  0  0  0  0
   11.9658  -16.9390   22.5428 C   0  0  0  0  0  0  0  0  0  0  0  0
   12.2199  -17.5475   21.2265 C   0  0  0  0  0  0  0  0  0  0  0  0
   11.7777  -18.7230   21.0082 O   0  0  0  0  0  0  0  0  0  0  0  0
   10.3297  -16.1711   24.1119 C   0  0  0  0  0  0  0  0  0  0  0  0
   10.9416  -15.1182   24.4171 O   0  0  0  0  0  0  0  0  0  0  0  0
   12.9057  -16.9459   20.1939 O   0  0  0  0  0  0  0  0  0  0  0  0
    9.5032  -16.7712   25.0792 N   0  0  0  0  0  0  0  0  0  0  0  0
    9.3282  -16.2798   26.4324 C   0  0  1  0  0  0  0  0  0  0  0  0
    7.8425  -16.0761   26.6087 C   0  0  0  0  0  0  0  0  0  0  0  0
    7.4181  -14.7353   26.1799 C   0  0  0  0  0  0  0  0  0  0  0  0
    7.6360  -13.6375   26.9579 C   0  0  0  0  0  0  0  0  0  0  0  0
    7.2504  -12.3733   26.5628 C   0  0  0  0  0  0  0  0  0  0  0  0
    6.6217  -12.2204   25.3350 C   0  0  0  0  0  0  0  0  0  0  0  0
    6.3894  -13.3104   24.5309 C   0  0  0  0  0  0  0  0  0  0  0  0
    6.7877  -14.5561   24.9572 C   0  0  0  0  0  0  0  0  0  0  0  0
    9.8010  -17.2413   27.4428 C   0  0  0  0  0  0  0  0  0  0  0  0
    9.8681  -17.0749   28.6620 O   0  0  0  0  0  0  0  0  0  0  0  0
   10.2266  -18.4976   26.9661 O   0  0  0  0  0  0  0  0  0  0  0  0
  2  1  1  0
  3  5  1  0
  3  4  1  1
  3  2  1  0
  5  6  2  0
  7  8  1  0
  7  5  1  0
  8 12  1  0
  8  9  1  6
 10  9  1  0
 11 10  2  0
 12 13  2  0
 12 15  1  0
 14 10  1  0
 15 16  1  0
 16 24  1  0
 16 17  1  1
 18 17  1  0
 19 18  2  0
 20 19  1  0
 21 20  2  0
 21 22  1  0
 22 23  2  0
 23 18  1  0
 24 25  2  0
 24 26  1  0
M  END
$$$$
