SDF.pdb
     RDKit          3D

 26 26  0  0  1  0  0  0  0  0999 V2000
    6.2308  -18.1209   24.3882 O   0  0  0  0  0  0  0  0  0  0  0  0
    6.2593  -19.2047   23.5257 C   0  0  0  0  0  0  0  0  0  0  0  0
    6.7412  -18.7876   22.1289 C   0  0  2  0  0  0  0  0  0  0  0  0
    6.7003  -19.9629   21.2925 N   0  0  0  0  0  0  0  0  0  0  0  0
    8.1179  -18.2673   22.3178 C   0  0  0  0  0  0  0  0  0  0  0  0
    9.0458  -19.1179   22.3314 O   0  0  0  0  0  0  0  0  0  0  0  0
    8.3632  -16.8620   22.4757 N   0  0  0  0  0  0  0  0  0  0  0  0
    9.7142  -16.4548   22.7106 C   0  0  1  0  0  0  0  0  0  0  0  0
   10.0121  -15.1533   21.9958 C   0  0  0  0  0  0  0  0  0  0  0  0
   10.3391  -15.4368   20.5887 C   0  0  0  0  0  0  0  0  0  0  0  0
   10.9146  -16.5402   20.3120 O   0  0  0  0  0  0  0  0  0  0  0  0
    9.9516  -16.1531   24.1696 C   0  0  0  0  0  0  0  0  0  0  0  0
   11.0451  -15.6788   24.5637 O   0  0  0  0  0  0  0  0  0  0  0  0
   10.0727  -14.5984   19.5282 O   0  0  0  0  0  0  0  0  0  0  0  0
    8.9452  -16.3996   25.1210 N   0  0  0  0  0  0  0  0  0  0  0  0
    9.0990  -16.2104   26.5506 C   0  0  1  0  0  0  0  0  0  0  0  0
    7.7438  -15.7792   27.0581 C   0  0  0  0  0  0  0  0  0  0  0  0
    7.3903  -14.4283   26.5978 C   0  0  0  0  0  0  0  0  0  0  0  0
    6.5803  -14.2336   25.5190 C   0  0  0  0  0  0  0  0  0  0  0  0
    6.2344  -12.9714   25.0828 C   0  0  0  0  0  0  0  0  0  0  0  0
    6.7294  -11.8699   25.7668 C   0  0  0  0  0  0  0  0  0  0  0  0
    7.5484  -12.0376   26.8576 C   0  0  0  0  0  0  0  0  0  0  0  0
    7.8722  -13.3111   27.2643 C   0  0  0  0  0  0  0  0  0  0  0  0
    9.4942  -17.4501   27.2403 C   0  0  0  0  0  0  0  0  0  0  0  0
    9.5608  -18.5845   26.7634 O   0  0  0  0  0  0  0  0  0  0  0  0
    9.8368  -17.3312   28.6023 O   0  0  0  0  0  0  0  0  0  0  0  0
  2  1  1  0
  3  5  1  0
  3  4  1  6
  3  2  1  0
  5  6  2  0
  7  8  1  0
  7  5  1  0
  8 12  1  0
  8  9  1  6
 10  9  1  0
 11 10  2  0
 12 13  2  0
 12 15  1  0
 14 10  1  0
 15 16  1  0
 16 24  1  0
 16 17  1  1
 18 17  1  0
 19 18  2  0
 20 19  1  0
 21 20  2  0
 21 22  1  0
 22 23  2  0
 23 18  1  0
 24 25  2  0
 24 26  1  0
M  END
$$$$
