SDF.pdb
     RDKit          3D

 26 26  0  0  1  0  0  0  0  0999 V2000
    8.1469  -12.5922   20.8271 O   0  0  0  0  0  0  0  0  0  0  0  0
    7.4978  -13.0135   19.6780 C   0  0  0  0  0  0  0  0  0  0  0  0
    8.2718  -14.1464   18.9891 C   0  0  2  0  0  0  0  0  0  0  0  0
    7.5259  -14.5214   17.8120 N   0  0  0  0  0  0  0  0  0  0  0  0
    8.3542  -15.2413   19.9872 C   0  0  0  0  0  0  0  0  0  0  0  0
    7.4424  -16.1084   19.9504 O   0  0  0  0  0  0  0  0  0  0  0  0
    9.4259  -15.2953   20.9403 N   0  0  0  0  0  0  0  0  0  0  0  0
    9.5098  -16.4596   21.7671 C   0  0  1  0  0  0  0  0  0  0  0  0
   10.6879  -17.3201   21.3604 C   0  0  0  0  0  0  0  0  0  0  0  0
   10.6371  -18.5923   22.0996 C   0  0  0  0  0  0  0  0  0  0  0  0
    9.5172  -18.9697   22.5775 O   0  0  0  0  0  0  0  0  0  0  0  0
    9.7813  -16.0941   23.2053 C   0  0  0  0  0  0  0  0  0  0  0  0
   10.8619  -15.5515   23.5432 O   0  0  0  0  0  0  0  0  0  0  0  0
   11.7134  -19.4231   22.3231 O   0  0  0  0  0  0  0  0  0  0  0  0
    8.8223  -16.3565   24.2003 N   0  0  0  0  0  0  0  0  0  0  0  0
    9.0043  -16.0819   25.6127 C   0  0  1  0  0  0  0  0  0  0  0  0
    7.6401  -15.7054   26.1392 C   0  0  0  0  0  0  0  0  0  0  0  0
    7.4287  -14.2505   26.1236 C   0  0  0  0  0  0  0  0  0  0  0  0
    8.4022  -13.3858   26.5267 C   0  0  0  0  0  0  0  0  0  0  0  0
    8.2190  -12.0187   26.5085 C   0  0  0  0  0  0  0  0  0  0  0  0
    7.0044  -11.5138   26.0657 C   0  0  0  0  0  0  0  0  0  0  0  0
    6.0056  -12.3631   25.6539 C   0  0  0  0  0  0  0  0  0  0  0  0
    6.2236  -13.7209   25.6855 C   0  0  0  0  0  0  0  0  0  0  0  0
    9.4937  -17.2570   26.3532 C   0  0  0  0  0  0  0  0  0  0  0  0
    9.6192  -18.4087   25.9331 O   0  0  0  0  0  0  0  0  0  0  0  0
    9.8623  -17.0458   27.6971 O   0  0  0  0  0  0  0  0  0  0  0  0
  2  1  1  0
  3  5  1  0
  3  4  1  6
  3  2  1  0
  5  6  2  0
  7  8  1  0
  7  5  1  0
  8 12  1  0
  8  9  1  6
 10  9  1  0
 11 10  2  0
 12 13  2  0
 12 15  1  0
 14 10  1  0
 15 16  1  0
 16 24  1  0
 16 17  1  1
 18 17  1  0
 19 18  2  0
 20 19  1  0
 21 20  2  0
 21 22  1  0
 22 23  2  0
 23 18  1  0
 24 25  2  0
 24 26  1  0
M  END
$$$$
