SDF.pdb
     RDKit          3D

 26 26  0  0  1  0  0  0  0  0999 V2000
    6.0248  -15.3139   21.8209 O   0  0  0  0  0  0  0  0  0  0  0  0
    7.0414  -14.5434   21.2806 C   0  0  0  0  0  0  0  0  0  0  0  0
    8.2181  -15.4191   20.8272 C   0  0  2  0  0  0  0  0  0  0  0  0
    7.7815  -16.1565   19.6661 N   0  0  0  0  0  0  0  0  0  0  0  0
    8.5311  -16.2995   21.9798 C   0  0  0  0  0  0  0  0  0  0  0  0
    8.3492  -17.5339   21.8129 O   0  0  0  0  0  0  0  0  0  0  0  0
    9.0160  -15.7561   23.2166 N   0  0  0  0  0  0  0  0  0  0  0  0
    9.8278  -16.6057   24.0322 C   0  0  1  0  0  0  0  0  0  0  0  0
   11.0618  -17.0523   23.2762 C   0  0  0  0  0  0  0  0  0  0  0  0
   11.8404  -17.9738   24.1201 C   0  0  0  0  0  0  0  0  0  0  0  0
   11.2663  -19.0247   24.5572 O   0  0  0  0  0  0  0  0  0  0  0  0
   10.3620  -15.8668   25.2341 C   0  0  0  0  0  0  0  0  0  0  0  0
   11.3795  -15.1364   25.1464 O   0  0  0  0  0  0  0  0  0  0  0  0
   13.1572  -17.7947   24.4842 O   0  0  0  0  0  0  0  0  0  0  0  0
    9.7256  -15.9836   26.4831 N   0  0  0  0  0  0  0  0  0  0  0  0
   10.1816  -15.3453   27.7029 C   0  0  1  0  0  0  0  0  0  0  0  0
    8.9544  -14.7271   28.3289 C   0  0  0  0  0  0  0  0  0  0  0  0
    8.2664  -13.8157   27.4028 C   0  0  0  0  0  0  0  0  0  0  0  0
    8.7298  -12.5552   27.1696 C   0  0  0  0  0  0  0  0  0  0  0  0
    8.0982  -11.6940   26.2965 C   0  0  0  0  0  0  0  0  0  0  0  0
    6.9563  -12.1292   25.6386 C   0  0  0  0  0  0  0  0  0  0  0  0
    6.4673  -13.3951   25.8554 C   0  0  0  0  0  0  0  0  0  0  0  0
    7.1232  -14.2268   26.7330 C   0  0  0  0  0  0  0  0  0  0  0  0
   10.7686  -16.3061   28.6521 C   0  0  0  0  0  0  0  0  0  0  0  0
   11.2774  -16.0617   29.7476 O   0  0  0  0  0  0  0  0  0  0  0  0
   10.7487  -17.6623   28.2687 O   0  0  0  0  0  0  0  0  0  0  0  0
  2  1  1  0
  3  5  1  0
  3  4  1  6
  3  2  1  0
  5  6  2  0
  7  8  1  0
  7  5  1  0
  8 12  1  0
  8  9  1  6
 10  9  1  0
 11 10  2  0
 12 13  2  0
 12 15  1  0
 14 10  1  0
 15 16  1  0
 16 24  1  0
 16 17  1  1
 18 17  1  0
 19 18  2  0
 20 19  1  0
 21 20  2  0
 21 22  1  0
 22 23  2  0
 23 18  1  0
 24 25  2  0
 24 26  1  0
M  END
$$$$
