SDF.pdb
     RDKit          3D

 26 26  0  0  1  0  0  0  0  0999 V2000
    7.7552  -14.5915   17.4416 O   0  0  0  0  0  0  0  0  0  0  0  0
    7.3217  -13.5856   18.2899 C   0  0  0  0  0  0  0  0  0  0  0  0
    8.4222  -13.1871   19.2835 C   0  0  2  0  0  0  0  0  0  0  0  0
    9.6049  -12.8835   18.5144 N   0  0  0  0  0  0  0  0  0  0  0  0
    8.6039  -14.3605   20.1734 C   0  0  0  0  0  0  0  0  0  0  0  0
    7.6224  -14.6796   20.8942 O   0  0  0  0  0  0  0  0  0  0  0  0
    9.8426  -15.0850   20.1999 N   0  0  0  0  0  0  0  0  0  0  0  0
    9.9515  -16.1632   21.1335 C   0  0  1  0  0  0  0  0  0  0  0  0
   11.1681  -17.0124   20.8298 C   0  0  0  0  0  0  0  0  0  0  0  0
   10.9755  -17.6909   19.5376 C   0  0  0  0  0  0  0  0  0  0  0  0
    9.9044  -18.3586   19.3589 O   0  0  0  0  0  0  0  0  0  0  0  0
   10.1797  -15.6553   22.5356 C   0  0  0  0  0  0  0  0  0  0  0  0
   10.9640  -14.7008   22.7595 O   0  0  0  0  0  0  0  0  0  0  0  0
   11.8680  -17.6660   18.4881 O   0  0  0  0  0  0  0  0  0  0  0  0
    9.5135  -16.2460   23.6246 N   0  0  0  0  0  0  0  0  0  0  0  0
    9.0992  -15.5367   24.8199 C   0  0  1  0  0  0  0  0  0  0  0  0
    8.2255  -14.4009   24.3440 C   0  0  0  0  0  0  0  0  0  0  0  0
    7.7191  -13.5927   25.4630 C   0  0  0  0  0  0  0  0  0  0  0  0
    6.4392  -13.1242   25.4801 C   0  0  0  0  0  0  0  0  0  0  0  0
    5.9497  -12.3724   26.5280 C   0  0  0  0  0  0  0  0  0  0  0  0
    6.7906  -12.0871   27.5947 C   0  0  0  0  0  0  0  0  0  0  0  0
    8.0858  -12.5467   27.6029 C   0  0  0  0  0  0  0  0  0  0  0  0
    8.5397  -13.2937   26.5408 C   0  0  0  0  0  0  0  0  0  0  0  0
    8.3190  -16.3878   25.7340 C   0  0  0  0  0  0  0  0  0  0  0  0
    7.3238  -17.0626   25.4637 O   0  0  0  0  0  0  0  0  0  0  0  0
    8.7565  -16.4406   27.0729 O   0  0  0  0  0  0  0  0  0  0  0  0
  2  1  1  0
  3  5  1  0
  3  4  1  6
  3  2  1  0
  5  6  2  0
  7  8  1  0
  7  5  1  0
  8 12  1  0
  8  9  1  6
 10  9  1  0
 11 10  2  0
 12 13  2  0
 12 15  1  0
 14 10  1  0
 15 16  1  0
 16 24  1  0
 16 17  1  6
 18 17  1  0
 19 18  2  0
 20 19  1  0
 21 20  2  0
 21 22  1  0
 22 23  2  0
 23 18  1  0
 24 25  2  0
 24 26  1  0
M  END
$$$$
