PMF.pdb
     RDKit          3D

 27 28  0  0  1  0  0  0  0  0999 V2000
   27.4722  -18.7524  -15.2420 N   0  0  0  0  0  0  0  0  0  0  0  0
   28.5331  -18.2970  -16.1289 C   0  0  0  0  0  0  0  0  0  0  0  0
   29.6695  -19.2843  -15.9978 C   0  0  0  0  0  0  0  0  0  0  0  0
   29.1142  -20.3383  -15.0293 C   0  0  0  0  0  0  0  0  0  0  0  0
   27.6307  -20.1719  -15.2863 C   0  0  1  0  0  0  0  0  0  0  0  0
   26.7867  -20.8802  -14.3035 C   0  0  0  0  0  0  0  0  0  0  0  0
   26.4550  -22.0728  -14.4876 O   0  0  0  0  0  0  0  0  0  0  0  0
   27.2943  -20.2726   -8.1427 C   0  0  0  0  0  0  0  0  0  0  0  0
   25.4860  -20.3100   -8.0747 S   0  0  0  0  0  0  0  0  0  0  0  0
   24.9024  -21.0046   -9.6761 C   0  0  0  0  0  0  0  0  0  0  0  0
   25.8463  -20.5099  -10.7124 C   0  0  0  0  0  0  0  0  0  0  0  0
   25.4569  -20.7736  -12.1382 C   0  0  2  0  0  0  0  0  0  0  0  0
   26.3340  -20.2233  -13.1296 N   0  0  0  0  0  0  0  0  0  0  0  0
   24.0176  -20.5543  -12.3757 C   0  0  0  0  0  0  0  0  0  0  0  0
   23.6165  -19.3510  -12.3374 O   0  0  0  0  0  0  0  0  0  0  0  0
   23.0479  -21.5419  -12.6358 N   0  0  0  0  0  0  0  0  0  0  0  0
   21.6700  -21.1902  -13.0194 C   0  0  1  0  0  0  0  0  0  0  0  0
   21.5885  -21.3865  -14.5066 C   0  0  0  0  0  0  0  0  0  0  0  0
   20.2497  -21.1692  -15.0653 C   0  0  0  0  0  0  0  0  0  0  0  0
   19.3399  -22.1574  -15.3574 C   0  0  0  0  0  0  0  0  0  0  0  0
   18.0786  -21.8620  -15.8807 C   0  0  0  0  0  0  0  0  0  0  0  0
   17.7294  -20.5617  -16.1128 C   0  0  0  0  0  0  0  0  0  0  0  0
   18.6334  -19.5703  -15.8238 C   0  0  0  0  0  0  0  0  0  0  0  0
   19.8802  -19.8462  -15.3074 C   0  0  0  0  0  0  0  0  0  0  0  0
   20.7364  -22.1223  -12.3515 C   0  0  0  0  0  0  0  0  0  0  0  0
   19.4860  -21.7252  -11.9000 O   0  0  0  0  0  0  0  0  0  0  0  0
   21.0917  -23.3145  -12.1892 O   0  0  0  0  0  0  0  0  0  0  0  0
  1  5  1  0
  1  2  1  0
  2  3  1  0
  4  3  1  0
  5  4  1  0
  5  6  1  1
  7  6  2  0
  8  9  1  0
 10  9  1  0
 11 10  1  0
 12 11  1  1
 12 13  1  0
 13  6  1  0
 14 12  1  0
 14 15  2  0
 16 14  1  0
 17 16  1  0
 17 18  1  6
 19 20  2  0
 19 18  1  0
 21 20  1  0
 22 21  2  0
 23 22  1  0
 23 24  2  0
 24 19  1  0
 25 17  1  0
 26 25  1  0
 27 25  2  0
M  END
$$$$
