PMF.pdb
     RDKit          3D

 27 28  0  0  1  0  0  0  0  0999 V2000
   35.9560  -28.0996  -18.8444 N   0  0  0  0  0  0  0  0  0  0  0  0
   35.9919  -26.6684  -19.1091 C   0  0  0  0  0  0  0  0  0  0  0  0
   34.5592  -26.1878  -19.1219 C   0  0  0  0  0  0  0  0  0  0  0  0
   33.7580  -27.4513  -18.7769 C   0  0  0  0  0  0  0  0  0  0  0  0
   34.8075  -28.2219  -18.0030 C   0  0  1  0  0  0  0  0  0  0  0  0
   34.4262  -29.6244  -17.7432 C   0  0  0  0  0  0  0  0  0  0  0  0
   33.5215  -29.8995  -16.9235 O   0  0  0  0  0  0  0  0  0  0  0  0
   33.8827  -35.2014  -21.4195 C   0  0  0  0  0  0  0  0  0  0  0  0
   34.1372  -33.5490  -22.1130 S   0  0  0  0  0  0  0  0  0  0  0  0
   33.9413  -32.3501  -20.7302 C   0  0  0  0  0  0  0  0  0  0  0  0
   34.8108  -32.8402  -19.6287 C   0  0  0  0  0  0  0  0  0  0  0  0
   34.7311  -32.0784  -18.3376 C   0  0  2  0  0  0  0  0  0  0  0  0
   35.0779  -30.6898  -18.4177 N   0  0  0  0  0  0  0  0  0  0  0  0
   35.3356  -32.8170  -17.2128 C   0  0  0  0  0  0  0  0  0  0  0  0
   36.5688  -32.6083  -16.9988 O   0  0  0  0  0  0  0  0  0  0  0  0
   34.6855  -33.7292  -16.3592 N   0  0  0  0  0  0  0  0  0  0  0  0
   35.3871  -34.3688  -15.2331 C   0  0  1  0  0  0  0  0  0  0  0  0
   35.6986  -33.2693  -14.2577 C   0  0  0  0  0  0  0  0  0  0  0  0
   36.0782  -33.7448  -12.9229 C   0  0  0  0  0  0  0  0  0  0  0  0
   35.3471  -33.5569  -11.7741 C   0  0  0  0  0  0  0  0  0  0  0  0
   35.7781  -34.0523  -10.5409 C   0  0  0  0  0  0  0  0  0  0  0  0
   36.9548  -34.7423  -10.4623 C   0  0  0  0  0  0  0  0  0  0  0  0
   37.6897  -34.9328  -11.6055 C   0  0  0  0  0  0  0  0  0  0  0  0
   37.2775  -34.4506  -12.8282 C   0  0  0  0  0  0  0  0  0  0  0  0
   34.4765  -35.3439  -14.5958 C   0  0  0  0  0  0  0  0  0  0  0  0
   34.9410  -36.4645  -13.9224 O   0  0  0  0  0  0  0  0  0  0  0  0
   33.2395  -35.1472  -14.6690 O   0  0  0  0  0  0  0  0  0  0  0  0
  1  5  1  0
  1  2  1  0
  2  3  1  0
  4  3  1  0
  5  4  1  0
  5  6  1  6
  7  6  2  0
  8  9  1  0
 10  9  1  0
 11 10  1  0
 12 11  1  6
 12 13  1  0
 13  6  1  0
 14 12  1  0
 14 15  2  0
 16 14  1  0
 17 16  1  0
 17 18  1  1
 19 20  2  0
 19 18  1  0
 21 20  1  0
 22 21  2  0
 23 22  1  0
 23 24  2  0
 24 19  1  0
 25 17  1  0
 26 25  1  0
 27 25  2  0
M  END
$$$$
