PMF.pdb
     RDKit          3D

 27 28  0  0  1  0  0  0  0  0999 V2000
   31.5978  -22.9211  -12.0818 N   0  0  0  0  0  0  0  0  0  0  0  0
   32.9095  -23.5527  -12.0651 C   0  0  0  0  0  0  0  0  0  0  0  0
   33.7803  -22.7328  -11.1416 C   0  0  0  0  0  0  0  0  0  0  0  0
   32.8214  -21.6571  -10.6117 C   0  0  0  0  0  0  0  0  0  0  0  0
   31.5030  -22.3880  -10.7594 C   0  0  1  0  0  0  0  0  0  0  0  0
   30.3284  -21.5139  -10.5698 C   0  0  0  0  0  0  0  0  0  0  0  0
   30.1886  -20.8501   -9.5182 O   0  0  0  0  0  0  0  0  0  0  0  0
   25.6274  -20.9693  -15.1796 C   0  0  0  0  0  0  0  0  0  0  0  0
   25.7207  -19.2777  -14.5424 S   0  0  0  0  0  0  0  0  0  0  0  0
   26.3361  -19.3890  -12.8113 C   0  0  0  0  0  0  0  0  0  0  0  0
   27.5024  -20.3099  -12.8431 C   0  0  0  0  0  0  0  0  0  0  0  0
   28.1603  -20.5858  -11.5221 C   0  0  2  0  0  0  0  0  0  0  0  0
   29.3333  -21.4082  -11.5765 N   0  0  0  0  0  0  0  0  0  0  0  0
   27.1855  -20.9435  -10.4744 C   0  0  0  0  0  0  0  0  0  0  0  0
   26.7710  -22.1429  -10.4755 O   0  0  0  0  0  0  0  0  0  0  0  0
   26.6682  -20.0907   -9.4802 N   0  0  0  0  0  0  0  0  0  0  0  0
   25.7512  -20.5846   -8.4387 C   0  0  1  0  0  0  0  0  0  0  0  0
   25.7261  -19.5283   -7.3707 C   0  0  0  0  0  0  0  0  0  0  0  0
   26.8972  -19.5439   -6.4874 C   0  0  0  0  0  0  0  0  0  0  0  0
   27.8111  -18.5250   -6.3603 C   0  0  0  0  0  0  0  0  0  0  0  0
   28.8969  -18.6181   -5.4860 C   0  0  0  0  0  0  0  0  0  0  0  0
   29.0653  -19.7458   -4.7334 C   0  0  0  0  0  0  0  0  0  0  0  0
   28.1567  -20.7671   -4.8559 C   0  0  0  0  0  0  0  0  0  0  0  0
   27.0814  -20.6895   -5.7133 C   0  0  0  0  0  0  0  0  0  0  0  0
   24.3990  -20.7236   -9.0206 C   0  0  0  0  0  0  0  0  0  0  0  0
   24.1040  -20.3289  -10.3175 O   0  0  0  0  0  0  0  0  0  0  0  0
   23.4883  -21.2167   -8.3124 O   0  0  0  0  0  0  0  0  0  0  0  0
  1  5  1  0
  1  2  1  0
  2  3  1  0
  4  3  1  0
  5  4  1  0
  5  6  1  6
  7  6  2  0
  8  9  1  0
 10  9  1  0
 11 10  1  0
 12 11  1  6
 12 13  1  0
 13  6  1  0
 14 12  1  0
 14 15  2  0
 16 14  1  0
 17 16  1  0
 17 18  1  1
 19 20  2  0
 19 18  1  0
 21 20  1  0
 22 21  2  0
 23 22  1  0
 23 24  2  0
 24 19  1  0
 25 17  1  0
 26 25  1  0
 27 25  2  0
M  END
$$$$
