PMF.pdb
     RDKit          3D

 27 28  0  0  1  0  0  0  0  0999 V2000
   27.5930  -20.5626  -15.2688 N   0  0  0  0  0  0  0  0  0  0  0  0
   28.1764  -20.3102  -16.5786 C   0  0  0  0  0  0  0  0  0  0  0  0
   28.3549  -18.8145  -16.6993 C   0  0  0  0  0  0  0  0  0  0  0  0
   27.8894  -18.2901  -15.3335 C   0  0  0  0  0  0  0  0  0  0  0  0
   28.1568  -19.5127  -14.4802 C   0  0  1  0  0  0  0  0  0  0  0  0
   27.5663  -19.4209  -13.1301 C   0  0  0  0  0  0  0  0  0  0  0  0
   27.8871  -18.4932  -12.3538 O   0  0  0  0  0  0  0  0  0  0  0  0
   21.3483  -20.2722  -12.8840 C   0  0  0  0  0  0  0  0  0  0  0  0
   21.7238  -21.1384  -11.3397 S   0  0  0  0  0  0  0  0  0  0  0  0
   23.3378  -20.4895  -10.7386 C   0  0  0  0  0  0  0  0  0  0  0  0
   24.3099  -20.7060  -11.8420 C   0  0  0  0  0  0  0  0  0  0  0  0
   25.7104  -20.2277  -11.5896 C   0  0  2  0  0  0  0  0  0  0  0  0
   26.6225  -20.3829  -12.6847 N   0  0  0  0  0  0  0  0  0  0  0  0
   26.2218  -20.6596  -10.2750 C   0  0  0  0  0  0  0  0  0  0  0  0
   26.5386  -21.8837  -10.1675 O   0  0  0  0  0  0  0  0  0  0  0  0
   26.3891  -19.8546   -9.1317 N   0  0  0  0  0  0  0  0  0  0  0  0
   26.9343  -20.3987   -7.8762 C   0  0  1  0  0  0  0  0  0  0  0  0
   27.6798  -19.2702   -7.2221 C   0  0  0  0  0  0  0  0  0  0  0  0
   28.1915  -19.5884   -5.8846 C   0  0  0  0  0  0  0  0  0  0  0  0
   27.6380  -19.1650   -4.6998 C   0  0  0  0  0  0  0  0  0  0  0  0
   28.1853  -19.5225   -3.4651 C   0  0  0  0  0  0  0  0  0  0  0  0
   29.2993  -20.3123   -3.4215 C   0  0  0  0  0  0  0  0  0  0  0  0
   29.8573  -20.7380   -4.6010 C   0  0  0  0  0  0  0  0  0  0  0  0
   29.3287  -20.3939   -5.8255 C   0  0  0  0  0  0  0  0  0  0  0  0
   25.8110  -20.8108   -7.0075 C   0  0  0  0  0  0  0  0  0  0  0  0
   25.9748  -21.6933   -5.9495 O   0  0  0  0  0  0  0  0  0  0  0  0
   24.6700  -20.3434   -7.2390 O   0  0  0  0  0  0  0  0  0  0  0  0
  1  5  1  0
  1  2  1  0
  2  3  1  0
  4  3  1  0
  5  4  1  0
  5  6  1  1
  7  6  2  0
  8  9  1  0
 10  9  1  0
 11 10  1  0
 12 11  1  6
 12 13  1  0
 13  6  1  0
 14 12  1  0
 14 15  2  0
 16 14  1  0
 17 16  1  0
 17 18  1  1
 19 20  2  0
 19 18  1  0
 21 20  1  0
 22 21  2  0
 23 22  1  0
 23 24  2  0
 24 19  1  0
 25 17  1  0
 26 25  1  0
 27 25  2  0
M  END
$$$$
