PMF.pdb
     RDKit          3D

 27 28  0  0  1  0  0  0  0  0999 V2000
   28.0382  -19.0430  -17.4649 N   0  0  0  0  0  0  0  0  0  0  0  0
   28.9270  -18.5813  -18.5216 C   0  0  0  0  0  0  0  0  0  0  0  0
   29.4023  -17.2028  -18.1250 C   0  0  0  0  0  0  0  0  0  0  0  0
   28.7587  -16.9880  -16.7477 C   0  0  0  0  0  0  0  0  0  0  0  0
   28.6037  -18.4283  -16.3053 C   0  0  1  0  0  0  0  0  0  0  0  0
   27.7634  -18.5801  -15.1009 C   0  0  0  0  0  0  0  0  0  0  0  0
   28.0665  -18.0025  -14.0329 O   0  0  0  0  0  0  0  0  0  0  0  0
   21.3931  -19.9379  -14.5321 C   0  0  0  0  0  0  0  0  0  0  0  0
   21.9693  -18.7495  -15.7698 S   0  0  0  0  0  0  0  0  0  0  0  0
   23.7617  -18.4732  -15.4555 C   0  0  0  0  0  0  0  0  0  0  0  0
   24.1918  -19.5507  -14.5263 C   0  0  0  0  0  0  0  0  0  0  0  0
   25.6245  -19.5030  -14.0801 C   0  0  2  0  0  0  0  0  0  0  0  0
   26.5941  -19.3844  -15.1293 N   0  0  0  0  0  0  0  0  0  0  0  0
   25.9256  -20.5180  -13.0529 C   0  0  0  0  0  0  0  0  0  0  0  0
   26.0562  -21.7124  -13.4613 O   0  0  0  0  0  0  0  0  0  0  0  0
   26.0781  -20.2963  -11.6706 N   0  0  0  0  0  0  0  0  0  0  0  0
   26.1093  -21.4105  -10.7078 C   0  0  1  0  0  0  0  0  0  0  0  0
   27.4746  -21.3819  -10.0815 C   0  0  0  0  0  0  0  0  0  0  0  0
   27.5576  -20.5633   -8.8670 C   0  0  0  0  0  0  0  0  0  0  0  0
   26.5545  -19.7597   -8.3795 C   0  0  0  0  0  0  0  0  0  0  0  0
   26.7137  -19.0175   -7.2066 C   0  0  0  0  0  0  0  0  0  0  0  0
   27.8920  -19.0836   -6.5182 C   0  0  0  0  0  0  0  0  0  0  0  0
   28.8977  -19.8838   -6.9998 C   0  0  0  0  0  0  0  0  0  0  0  0
   28.7552  -20.6213   -8.1544 C   0  0  0  0  0  0  0  0  0  0  0  0
   25.0885  -21.1690   -9.6657 C   0  0  0  0  0  0  0  0  0  0  0  0
   24.8491  -22.0690   -8.6373 O   0  0  0  0  0  0  0  0  0  0  0  0
   24.4166  -20.1108   -9.7170 O   0  0  0  0  0  0  0  0  0  0  0  0
  1  5  1  0
  1  2  1  0
  2  3  1  0
  4  3  1  0
  5  4  1  0
  5  6  1  1
  7  6  2  0
  8  9  1  0
 10  9  1  0
 11 10  1  0
 12 11  1  6
 12 13  1  0
 13  6  1  0
 14 12  1  0
 14 15  2  0
 16 14  1  0
 17 16  1  0
 17 18  1  1
 19 20  2  0
 19 18  1  0
 21 20  1  0
 22 21  2  0
 23 22  1  0
 23 24  2  0
 24 19  1  0
 25 17  1  0
 26 25  1  0
 27 25  2  0
M  END
$$$$
