PMF.pdb
     RDKit          3D

 27 28  0  0  1  0  0  0  0  0999 V2000
   27.6292  -19.2894  -14.9108 N   0  0  0  0  0  0  0  0  0  0  0  0
   28.7914  -19.0651  -15.7585 C   0  0  0  0  0  0  0  0  0  0  0  0
   29.5601  -20.3654  -15.8034 C   0  0  0  0  0  0  0  0  0  0  0  0
   28.6896  -21.3211  -14.9752 C   0  0  0  0  0  0  0  0  0  0  0  0
   27.3364  -20.6660  -15.1588 C   0  0  1  0  0  0  0  0  0  0  0  0
   26.2997  -21.2092  -14.2588 C   0  0  0  0  0  0  0  0  0  0  0  0
   25.7397  -22.2991  -14.5129 O   0  0  0  0  0  0  0  0  0  0  0  0
   25.4518  -20.2253   -7.6251 C   0  0  0  0  0  0  0  0  0  0  0  0
   26.8771  -19.9644   -8.7098 S   0  0  0  0  0  0  0  0  0  0  0  0
   26.5845  -20.9597  -10.2301 C   0  0  0  0  0  0  0  0  0  0  0  0
   25.2221  -20.6022  -10.7052 C   0  0  0  0  0  0  0  0  0  0  0  0
   24.9209  -20.9191  -12.1414 C   0  0  2  0  0  0  0  0  0  0  0  0
   25.9166  -20.5064  -13.0865 N   0  0  0  0  0  0  0  0  0  0  0  0
   23.5292  -20.5941  -12.5070 C   0  0  0  0  0  0  0  0  0  0  0  0
   23.1795  -19.3816  -12.3741 O   0  0  0  0  0  0  0  0  0  0  0  0
   22.5531  -21.4910  -12.9827 N   0  0  0  0  0  0  0  0  0  0  0  0
   21.2458  -21.0220  -13.4729 C   0  0  1  0  0  0  0  0  0  0  0  0
   21.3687  -20.9329  -14.9676 C   0  0  0  0  0  0  0  0  0  0  0  0
   20.1222  -20.5664  -15.6486 C   0  0  0  0  0  0  0  0  0  0  0  0
   19.2578  -21.4476  -16.2535 C   0  0  0  0  0  0  0  0  0  0  0  0
   18.0835  -21.0141  -16.8740 C   0  0  0  0  0  0  0  0  0  0  0  0
   17.7761  -19.6829  -16.8868 C   0  0  0  0  0  0  0  0  0  0  0  0
   18.6352  -18.7979  -16.2851 C   0  0  0  0  0  0  0  0  0  0  0  0
   19.7962  -19.2104  -15.6693 C   0  0  0  0  0  0  0  0  0  0  0  0
   20.2179  -22.0268  -13.1261 C   0  0  0  0  0  0  0  0  0  0  0  0
   18.9140  -21.6764  -12.8071 O   0  0  0  0  0  0  0  0  0  0  0  0
   20.5409  -23.2391  -13.1213 O   0  0  0  0  0  0  0  0  0  0  0  0
  1  5  1  0
  1  2  1  0
  2  3  1  0
  4  3  1  0
  5  4  1  0
  5  6  1  1
  7  6  2  0
  8  9  1  0
 10  9  1  0
 11 10  1  0
 12 11  1  1
 12 13  1  0
 13  6  1  0
 14 12  1  0
 14 15  2  0
 16 14  1  0
 17 16  1  0
 17 18  1  6
 19 20  2  0
 19 18  1  0
 21 20  1  0
 22 21  2  0
 23 22  1  0
 23 24  2  0
 24 19  1  0
 25 17  1  0
 26 25  1  0
 27 25  2  0
M  END
$$$$
