PMF.pdb
     RDKit          3D

 27 28  0  0  1  0  0  0  0  0999 V2000
   27.1677  -19.7092  -15.6673 N   0  0  0  0  0  0  0  0  0  0  0  0
   27.9370  -20.4961  -16.6205 C   0  0  0  0  0  0  0  0  0  0  0  0
   28.7386  -21.4957  -15.8195 C   0  0  0  0  0  0  0  0  0  0  0  0
   28.2910  -21.2334  -14.3745 C   0  0  0  0  0  0  0  0  0  0  0  0
   26.9134  -20.6577  -14.6291 C   0  0  1  0  0  0  0  0  0  0  0  0
   26.3041  -20.0527  -13.4280 C   0  0  0  0  0  0  0  0  0  0  0  0
   26.6168  -18.8963  -13.0661 O   0  0  0  0  0  0  0  0  0  0  0  0
   20.6961  -21.4460  -11.5228 C   0  0  0  0  0  0  0  0  0  0  0  0
   21.0086  -20.6710   -9.9172 S   0  0  0  0  0  0  0  0  0  0  0  0
   22.7823  -20.1802   -9.8938 C   0  0  0  0  0  0  0  0  0  0  0  0
   23.3497  -20.6091  -11.1990 C   0  0  0  0  0  0  0  0  0  0  0  0
   24.8204  -20.3739  -11.3874 C   0  0  2  0  0  0  0  0  0  0  0  0
   25.3510  -20.7702  -12.6588 N   0  0  0  0  0  0  0  0  0  0  0  0
   25.6099  -20.7941  -10.2143 C   0  0  0  0  0  0  0  0  0  0  0  0
   25.9185  -22.0234  -10.1529 O   0  0  0  0  0  0  0  0  0  0  0  0
   26.0501  -19.9724   -9.1586 N   0  0  0  0  0  0  0  0  0  0  0  0
   26.8817  -20.5002   -8.0634 C   0  0  1  0  0  0  0  0  0  0  0  0
   27.6613  -19.3312   -7.5316 C   0  0  0  0  0  0  0  0  0  0  0  0
   28.4104  -19.6215   -6.3042 C   0  0  0  0  0  0  0  0  0  0  0  0
   29.3800  -20.5870   -6.1739 C   0  0  0  0  0  0  0  0  0  0  0  0
   30.0535  -20.7923   -4.9672 C   0  0  0  0  0  0  0  0  0  0  0  0
   29.7488  -20.0203   -3.8819 C   0  0  0  0  0  0  0  0  0  0  0  0
   28.7812  -19.0548   -4.0052 C   0  0  0  0  0  0  0  0  0  0  0  0
   28.1091  -18.8407   -5.1883 C   0  0  0  0  0  0  0  0  0  0  0  0
   25.9958  -21.0211   -7.0003 C   0  0  0  0  0  0  0  0  0  0  0  0
   26.4527  -21.8683   -6.0011 O   0  0  0  0  0  0  0  0  0  0  0  0
   24.7878  -20.6823   -7.0057 O   0  0  0  0  0  0  0  0  0  0  0  0
  1  5  1  0
  1  2  1  0
  2  3  1  0
  4  3  1  0
  5  4  1  0
  5  6  1  1
  7  6  2  0
  8  9  1  0
 10  9  1  0
 11 10  1  0
 12 11  1  1
 12 13  1  0
 13  6  1  0
 14 12  1  0
 14 15  2  0
 16 14  1  0
 17 16  1  0
 17 18  1  1
 19 20  2  0
 19 18  1  0
 21 20  1  0
 22 21  2  0
 23 22  1  0
 23 24  2  0
 24 19  1  0
 25 17  1  0
 26 25  1  0
 27 25  2  0
M  END
$$$$
