PMF.pdb
     RDKit          3D

 27 28  0  0  1  0  0  0  0  0999 V2000
   27.3539  -19.5064  -15.7040 N   0  0  0  0  0  0  0  0  0  0  0  0
   27.5868  -18.7428  -16.9215 C   0  0  0  0  0  0  0  0  0  0  0  0
   27.2495  -17.3034  -16.6087 C   0  0  0  0  0  0  0  0  0  0  0  0
   26.8853  -17.3401  -15.1176 C   0  0  0  0  0  0  0  0  0  0  0  0
   27.6773  -18.5570  -14.6861 C   0  0  1  0  0  0  0  0  0  0  0  0
   27.3338  -19.0237  -13.3282 C   0  0  0  0  0  0  0  0  0  0  0  0
   27.3910  -18.2442  -12.3508 O   0  0  0  0  0  0  0  0  0  0  0  0
   22.9119  -23.7049  -12.9537 C   0  0  0  0  0  0  0  0  0  0  0  0
   24.2496  -23.9456  -14.1491 S   0  0  0  0  0  0  0  0  0  0  0  0
   25.4609  -22.5861  -13.8808 C   0  0  0  0  0  0  0  0  0  0  0  0
   25.1085  -21.9667  -12.5763 C   0  0  0  0  0  0  0  0  0  0  0  0
   25.9603  -20.8079  -12.1456 C   0  0  2  0  0  0  0  0  0  0  0  0
   26.9314  -20.3661  -13.1030 N   0  0  0  0  0  0  0  0  0  0  0  0
   26.4575  -20.9604  -10.7652 C   0  0  0  0  0  0  0  0  0  0  0  0
   27.2195  -21.9513  -10.5464 O   0  0  0  0  0  0  0  0  0  0  0  0
   26.1698  -20.1230   -9.6701 N   0  0  0  0  0  0  0  0  0  0  0  0
   26.5327  -20.4991   -8.2930 C   0  0  1  0  0  0  0  0  0  0  0  0
   26.9183  -19.2228   -7.6005 C   0  0  0  0  0  0  0  0  0  0  0  0
   27.7339  -19.4192   -6.3970 C   0  0  0  0  0  0  0  0  0  0  0  0
   27.3584  -20.1447   -5.2916 C   0  0  0  0  0  0  0  0  0  0  0  0
   28.2024  -20.2896   -4.1877 C   0  0  0  0  0  0  0  0  0  0  0  0
   29.4346  -19.6993   -4.1954 C   0  0  0  0  0  0  0  0  0  0  0  0
   29.8154  -18.9731   -5.2959 C   0  0  0  0  0  0  0  0  0  0  0  0
   28.9943  -18.8218   -6.3914 C   0  0  0  0  0  0  0  0  0  0  0  0
   25.3452  -21.0766   -7.6277 C   0  0  0  0  0  0  0  0  0  0  0  0
   25.4444  -21.9125   -6.5248 O   0  0  0  0  0  0  0  0  0  0  0  0
   24.2086  -20.7982   -8.0800 O   0  0  0  0  0  0  0  0  0  0  0  0
  1  5  1  0
  1  2  1  0
  2  3  1  0
  4  3  1  0
  5  4  1  0
  5  6  1  1
  7  6  2  0
  8  9  1  0
 10  9  1  0
 11 10  1  0
 12 11  1  6
 12 13  1  0
 13  6  1  0
 14 12  1  0
 14 15  2  0
 16 14  1  0
 17 16  1  0
 17 18  1  1
 19 20  2  0
 19 18  1  0
 21 20  1  0
 22 21  2  0
 23 22  1  0
 23 24  2  0
 24 19  1  0
 25 17  1  0
 26 25  1  0
 27 25  2  0
M  END
$$$$
