PMF.pdb
     RDKit          3D

 27 28  0  0  1  0  0  0  0  0999 V2000
   27.0436  -21.3321  -15.5406 N   0  0  0  0  0  0  0  0  0  0  0  0
   27.5674  -21.2918  -16.8984 C   0  0  0  0  0  0  0  0  0  0  0  0
   27.6673  -19.8352  -17.2878 C   0  0  0  0  0  0  0  0  0  0  0  0
   27.2246  -19.0967  -16.0165 C   0  0  0  0  0  0  0  0  0  0  0  0
   27.5821  -20.1358  -14.9741 C   0  0  1  0  0  0  0  0  0  0  0  0
   27.0355  -19.8308  -13.6368 C   0  0  0  0  0  0  0  0  0  0  0  0
   27.3439  -18.7712  -13.0466 O   0  0  0  0  0  0  0  0  0  0  0  0
   21.5690  -22.5780  -12.9758 C   0  0  0  0  0  0  0  0  0  0  0  0
   21.3679  -20.7973  -12.7215 S   0  0  0  0  0  0  0  0  0  0  0  0
   23.0475  -20.0495  -12.8061 C   0  0  0  0  0  0  0  0  0  0  0  0
   23.9139  -20.8720  -11.9216 C   0  0  0  0  0  0  0  0  0  0  0  0
   25.3529  -20.4530  -11.8341 C   0  0  2  0  0  0  0  0  0  0  0  0
   26.1489  -20.7330  -12.9929 N   0  0  0  0  0  0  0  0  0  0  0  0
   25.9654  -20.8188  -10.5429 C   0  0  0  0  0  0  0  0  0  0  0  0
   26.3070  -22.0330  -10.4045 O   0  0  0  0  0  0  0  0  0  0  0  0
   26.2046  -19.9606   -9.4522 N   0  0  0  0  0  0  0  0  0  0  0  0
   26.7910  -20.4540   -8.1944 C   0  0  1  0  0  0  0  0  0  0  0  0
   27.6017  -19.3178   -7.6387 C   0  0  0  0  0  0  0  0  0  0  0  0
   28.1853  -19.5891   -6.3205 C   0  0  0  0  0  0  0  0  0  0  0  0
   29.1936  -20.4883   -6.0670 C   0  0  0  0  0  0  0  0  0  0  0  0
   29.6994  -20.6796   -4.7788 C   0  0  0  0  0  0  0  0  0  0  0  0
   29.1864  -19.9607   -3.7363 C   0  0  0  0  0  0  0  0  0  0  0  0
   28.1791  -19.0616   -3.9826 C   0  0  0  0  0  0  0  0  0  0  0  0
   27.6706  -18.8622   -5.2471 C   0  0  0  0  0  0  0  0  0  0  0  0
   25.6975  -20.7799   -7.2540 C   0  0  0  0  0  0  0  0  0  0  0  0
   25.8924  -21.5769   -6.1352 O   0  0  0  0  0  0  0  0  0  0  0  0
   24.5535  -20.3169   -7.4796 O   0  0  0  0  0  0  0  0  0  0  0  0
  1  5  1  0
  1  2  1  0
  2  3  1  0
  4  3  1  0
  5  4  1  0
  5  6  1  1
  7  6  2  0
  8  9  1  0
 10  9  1  0
 11 10  1  0
 12 11  1  6
 12 13  1  0
 13  6  1  0
 14 12  1  0
 14 15  2  0
 16 14  1  0
 17 16  1  0
 17 18  1  1
 19 20  2  0
 19 18  1  0
 21 20  1  0
 22 21  2  0
 23 22  1  0
 23 24  2  0
 24 19  1  0
 25 17  1  0
 26 25  1  0
 27 25  2  0
M  END
$$$$
