PMF.pdb
     RDKit          3D

 27 28  0  0  1  0  0  0  0  0999 V2000
   27.6585  -19.8031  -15.3844 N   0  0  0  0  0  0  0  0  0  0  0  0
   28.7318  -19.7332  -16.3657 C   0  0  0  0  0  0  0  0  0  0  0  0
   29.5145  -21.0210  -16.2532 C   0  0  0  0  0  0  0  0  0  0  0  0
   28.7420  -21.8141  -15.1895 C   0  0  0  0  0  0  0  0  0  0  0  0
   27.3667  -21.2017  -15.3558 C   0  0  1  0  0  0  0  0  0  0  0  0
   26.4287  -21.5760  -14.2789 C   0  0  0  0  0  0  0  0  0  0  0  0
   25.6753  -22.5675  -14.4033 O   0  0  0  0  0  0  0  0  0  0  0  0
   27.3797  -20.8590   -7.7687 C   0  0  0  0  0  0  0  0  0  0  0  0
   25.7902  -20.0360   -8.0373 S   0  0  0  0  0  0  0  0  0  0  0  0
   25.0150  -20.8307   -9.5053 C   0  0  0  0  0  0  0  0  0  0  0  0
   25.9397  -20.5915  -10.6443 C   0  0  0  0  0  0  0  0  0  0  0  0
   25.4529  -21.0365  -11.9930 C   0  0  2  0  0  0  0  0  0  0  0  0
   26.3619  -20.8191  -13.0800 N   0  0  0  0  0  0  0  0  0  0  0  0
   24.0569  -20.6327  -12.2460 C   0  0  0  0  0  0  0  0  0  0  0  0
   23.8435  -19.3881  -12.3715 O   0  0  0  0  0  0  0  0  0  0  0  0
   22.9417  -21.4855  -12.3581 N   0  0  0  0  0  0  0  0  0  0  0  0
   21.6020  -20.9674  -12.6838 C   0  0  1  0  0  0  0  0  0  0  0  0
   21.1874  -21.6536  -13.9544 C   0  0  0  0  0  0  0  0  0  0  0  0
   21.6364  -20.9738  -15.1743 C   0  0  0  0  0  0  0  0  0  0  0  0
   20.9402  -19.9935  -15.8404 C   0  0  0  0  0  0  0  0  0  0  0  0
   21.4460  -19.3896  -16.9943 C   0  0  0  0  0  0  0  0  0  0  0  0
   22.6623  -19.7753  -17.4828 C   0  0  0  0  0  0  0  0  0  0  0  0
   23.3623  -20.7540  -16.8226 C   0  0  0  0  0  0  0  0  0  0  0  0
   22.8766  -21.3581  -15.6840 C   0  0  0  0  0  0  0  0  0  0  0  0
   20.6692  -21.3419  -11.5993 C   0  0  0  0  0  0  0  0  0  0  0  0
   19.3486  -20.9170  -11.5753 O   0  0  0  0  0  0  0  0  0  0  0  0
   21.0912  -22.0703  -10.6691 O   0  0  0  0  0  0  0  0  0  0  0  0
  1  5  1  0
  1  2  1  0
  2  3  1  0
  4  3  1  0
  5  4  1  0
  5  6  1  1
  7  6  2  0
  8  9  1  0
 10  9  1  0
 11 10  1  0
 12 11  1  1
 12 13  1  0
 13  6  1  0
 14 12  1  0
 14 15  2  0
 16 14  1  0
 17 16  1  0
 17 18  1  6
 19 20  2  0
 19 18  1  0
 21 20  1  0
 22 21  2  0
 23 22  1  0
 23 24  2  0
 24 19  1  0
 25 17  1  0
 26 25  1  0
 27 25  2  0
M  END
$$$$
