PMF.pdb
     RDKit          3D

 27 28  0  0  1  0  0  0  0  0999 V2000
   28.2755  -20.6593  -17.7799 N   0  0  0  0  0  0  0  0  0  0  0  0
   29.6094  -20.4260  -18.3147 C   0  0  0  0  0  0  0  0  0  0  0  0
   29.6739  -18.9704  -18.7152 C   0  0  0  0  0  0  0  0  0  0  0  0
   28.3022  -18.4249  -18.2931 C   0  0  0  0  0  0  0  0  0  0  0  0
   27.9654  -19.3986  -17.1828 C   0  0  1  0  0  0  0  0  0  0  0  0
   26.5639  -19.3016  -16.7287 C   0  0  0  0  0  0  0  0  0  0  0  0
   26.1193  -18.2340  -16.2503 O   0  0  0  0  0  0  0  0  0  0  0  0
   22.5934  -23.1407  -19.5637 C   0  0  0  0  0  0  0  0  0  0  0  0
   22.1096  -21.4021  -19.7034 S   0  0  0  0  0  0  0  0  0  0  0  0
   23.3167  -20.4274  -18.7133 C   0  0  0  0  0  0  0  0  0  0  0  0
   23.3550  -21.0570  -17.3673 C   0  0  0  0  0  0  0  0  0  0  0  0
   24.3267  -20.4628  -16.3893 C   0  0  2  0  0  0  0  0  0  0  0  0
   25.6915  -20.4171  -16.8255 N   0  0  0  0  0  0  0  0  0  0  0  0
   24.1180  -20.9635  -15.0175 C   0  0  0  0  0  0  0  0  0  0  0  0
   24.5395  -22.1355  -14.7746 O   0  0  0  0  0  0  0  0  0  0  0  0
   23.4974  -20.2761  -13.9565 N   0  0  0  0  0  0  0  0  0  0  0  0
   23.3072  -20.9015  -12.6366 C   0  0  1  0  0  0  0  0  0  0  0  0
   24.0699  -20.0526  -11.6595 C   0  0  0  0  0  0  0  0  0  0  0  0
   25.5267  -20.1986  -11.7514 C   0  0  0  0  0  0  0  0  0  0  0  0
   26.2760  -21.1348  -11.0794 C   0  0  0  0  0  0  0  0  0  0  0  0
   27.6627  -21.2112  -11.2314 C   0  0  0  0  0  0  0  0  0  0  0  0
   28.3015  -20.3382  -12.0660 C   0  0  0  0  0  0  0  0  0  0  0  0
   27.5592  -19.4007  -12.7395 C   0  0  0  0  0  0  0  0  0  0  0  0
   26.1916  -19.3135  -12.5999 C   0  0  0  0  0  0  0  0  0  0  0  0
   21.8689  -20.8670  -12.2953 C   0  0  0  0  0  0  0  0  0  0  0  0
   21.3514  -21.5271  -11.1901 O   0  0  0  0  0  0  0  0  0  0  0  0
   21.0918  -20.2161  -13.0345 O   0  0  0  0  0  0  0  0  0  0  0  0
  1  5  1  0
  1  2  1  0
  2  3  1  0
  4  3  1  0
  5  4  1  0
  5  6  1  6
  7  6  2  0
  8  9  1  0
 10  9  1  0
 11 10  1  0
 12 11  1  6
 12 13  1  0
 13  6  1  0
 14 12  1  0
 14 15  2  0
 16 14  1  0
 17 16  1  0
 17 18  1  1
 19 20  2  0
 19 18  1  0
 21 20  1  0
 22 21  2  0
 23 22  1  0
 23 24  2  0
 24 19  1  0
 25 17  1  0
 26 25  1  0
 27 25  2  0
M  END
$$$$
