PNI.pdb
     RDKit          3D

 24 24  0  0  1  0  0  0  0  0999 V2000
   28.3080  -19.2576  -17.3240 N   0  0  0  0  0  0  0  0  0  0  0  0
   29.1968  -18.8206  -18.4204 C   0  0  0  0  0  0  0  0  0  0  0  0
   28.3227  -17.7186  -19.0142 C   0  0  0  0  0  0  0  0  0  0  0  0
   27.9277  -16.9588  -17.7440 C   0  0  0  0  0  0  0  0  0  0  0  0
   27.9586  -18.0050  -16.6856 C   0  0  1  0  0  0  0  0  0  0  0  0
   26.7266  -18.0775  -15.8672 C   0  0  0  0  0  0  0  0  0  0  0  0
   26.3652  -17.0288  -15.2756 O   0  0  0  0  0  0  0  0  0  0  0  0
   21.3970  -18.5259  -14.9539 N   0  0  0  0  0  0  0  0  0  0  0  0
   22.2876  -19.6173  -15.0144 C   0  0  0  0  0  0  0  0  0  0  0  0
   22.0111  -20.6590  -14.3846 O   0  0  0  0  0  0  0  0  0  0  0  0
   23.5174  -19.5217  -15.8087 C   0  0  0  0  0  0  0  0  0  0  0  0
   24.7781  -19.3155  -15.0109 C   0  0  2  0  0  0  0  0  0  0  0  0
   25.9820  -19.2801  -15.7523 N   0  0  0  0  0  0  0  0  0  0  0  0
   24.7649  -20.2410  -13.8626 C   0  0  0  0  0  0  0  0  0  0  0  0
   25.2200  -21.3998  -14.0524 O   0  0  0  0  0  0  0  0  0  0  0  0
   26.6244  -19.0161   -9.1603 C   0  0  0  0  0  0  0  0  0  0  0  0
   26.3380  -19.9602  -10.3369 C   0  0  0  0  0  0  0  0  0  0  0  0
   24.9046  -20.4259  -10.2117 C   0  0  2  0  0  0  0  0  0  0  0  0
   24.8226  -21.5664   -9.1832 C   0  0  0  0  0  0  0  0  0  0  0  0
   24.2956  -20.9043  -11.4668 C   0  0  2  0  0  0  0  0  0  0  0  0
   24.2830  -19.9503  -12.5634 N   0  0  0  0  0  0  0  0  0  0  0  0
   22.8654  -21.3024  -11.1669 C   0  0  0  0  0  0  0  0  0  0  0  0
   21.9825  -20.4263  -11.1802 O   0  0  0  0  0  0  0  0  0  0  0  0
   22.5406  -22.6115  -10.8830 O   0  0  0  0  0  0  0  0  0  0  0  0
  1  2  1  0
  2  3  1  0
  4  3  1  0
  5  4  1  0
  5  1  1  0
  6  7  2  0
  5  6  1  6
  9 10  2  0
  9  8  1  0
 11  9  1  0
 12 11  1  6
 12 13  1  0
 13  6  1  0
 14 12  1  0
 15 14  2  0
 17 16  1  0
 18 17  1  0
 18 20  1  0
 18 19  1  1
 20 21  1  6
 21 14  1  0
 22 20  1  0
 22 24  1  0
 23 22  2  0
M  END
$$$$
