PNI.pdb
     RDKit          3D

 24 24  0  0  1  0  0  0  0  0999 V2000
   25.1328  -17.9860  -17.6105 N   0  0  0  0  0  0  0  0  0  0  0  0
   25.1532  -18.2919  -19.0557 C   0  0  0  0  0  0  0  0  0  0  0  0
   24.2446  -19.5188  -19.0550 C   0  0  0  0  0  0  0  0  0  0  0  0
   23.0795  -19.0047  -18.2035 C   0  0  0  0  0  0  0  0  0  0  0  0
   23.7165  -18.0019  -17.3066 C   0  0  1  0  0  0  0  0  0  0  0  0
   23.4183  -18.1967  -15.8692 C   0  0  0  0  0  0  0  0  0  0  0  0
   22.2614  -17.9020  -15.4756 O   0  0  0  0  0  0  0  0  0  0  0  0
   21.5905  -21.5737  -12.6703 N   0  0  0  0  0  0  0  0  0  0  0  0
   22.8675  -21.6997  -13.2544 C   0  0  0  0  0  0  0  0  0  0  0  0
   23.6453  -22.5763  -12.8242 O   0  0  0  0  0  0  0  0  0  0  0  0
   23.2673  -20.8110  -14.3512 C   0  0  0  0  0  0  0  0  0  0  0  0
   24.0352  -19.5852  -13.9317 C   0  0  2  0  0  0  0  0  0  0  0  0
   24.3963  -18.6948  -14.9696 N   0  0  0  0  0  0  0  0  0  0  0  0
   25.1332  -20.0004  -13.0388 C   0  0  0  0  0  0  0  0  0  0  0  0
   26.1934  -20.4088  -13.5821 O   0  0  0  0  0  0  0  0  0  0  0  0
   26.9963  -19.5008   -7.1037 C   0  0  0  0  0  0  0  0  0  0  0  0
   27.3455  -20.0028   -8.5122 C   0  0  0  0  0  0  0  0  0  0  0  0
   26.0865  -19.9357   -9.3474 C   0  0  2  0  0  0  0  0  0  0  0  0
   25.0849  -20.9929   -8.8532 C   0  0  0  0  0  0  0  0  0  0  0  0
   26.2889  -20.1455  -10.7931 C   0  0  2  0  0  0  0  0  0  0  0  0
   25.1063  -19.9877  -11.6233 N   0  0  0  0  0  0  0  0  0  0  0  0
   26.8227  -21.5494  -10.9884 C   0  0  0  0  0  0  0  0  0  0  0  0
   26.0153  -22.4839  -11.1364 O   0  0  0  0  0  0  0  0  0  0  0  0
   28.1790  -21.7945  -11.0027 O   0  0  0  0  0  0  0  0  0  0  0  0
  1  2  1  0
  2  3  1  0
  4  3  1  0
  5  4  1  0
  5  1  1  0
  6  7  2  0
  5  6  1  1
  9 10  2  0
  9  8  1  0
 11  9  1  0
 12 11  1  6
 12 13  1  0
 13  6  1  0
 14 12  1  0
 15 14  2  0
 17 16  1  0
 18 17  1  0
 18 20  1  0
 18 19  1  1
 20 21  1  6
 21 14  1  0
 22 20  1  0
 22 24  1  0
 23 22  2  0
M  END
$$$$
