PNI.pdb
     RDKit          3D

 24 24  0  0  1  0  0  0  0  0999 V2000
   26.3751  -20.0986  -15.2065 N   0  0  0  0  0  0  0  0  0  0  0  0
   27.4586  -20.5248  -16.1160 C   0  0  0  0  0  0  0  0  0  0  0  0
   28.6511  -20.3103  -15.1872 C   0  0  0  0  0  0  0  0  0  0  0  0
   28.1443  -20.9991  -13.9162 C   0  0  0  0  0  0  0  0  0  0  0  0
   26.6659  -20.8465  -14.0004 C   0  0  1  0  0  0  0  0  0  0  0  0
   26.0438  -20.2778  -12.7828 C   0  0  0  0  0  0  0  0  0  0  0  0
   25.1296  -19.4303  -12.9449 O   0  0  0  0  0  0  0  0  0  0  0  0
   23.0779  -21.3220   -8.2997 N   0  0  0  0  0  0  0  0  0  0  0  0
   23.4204  -20.3449   -9.2568 C   0  0  0  0  0  0  0  0  0  0  0  0
   23.0349  -19.1698   -9.0857 O   0  0  0  0  0  0  0  0  0  0  0  0
   24.2184  -20.7120  -10.4319 C   0  0  0  0  0  0  0  0  0  0  0  0
   25.6788  -20.3533  -10.3490 C   0  0  2  0  0  0  0  0  0  0  0  0
   26.4603  -20.6707  -11.4843 N   0  0  0  0  0  0  0  0  0  0  0  0
   26.2083  -20.8315   -9.0581 C   0  0  0  0  0  0  0  0  0  0  0  0
   26.1367  -22.0678   -8.8294 O   0  0  0  0  0  0  0  0  0  0  0  0
   30.1000  -19.0575   -4.5177 C   0  0  0  0  0  0  0  0  0  0  0  0
   29.2027  -20.1736   -5.0714 C   0  0  0  0  0  0  0  0  0  0  0  0
   28.4297  -19.6027   -6.2391 C   0  0  2  0  0  0  0  0  0  0  0  0
   27.5603  -18.4298   -5.7559 C   0  0  0  0  0  0  0  0  0  0  0  0
   27.5494  -20.5635   -6.9299 C   0  0  2  0  0  0  0  0  0  0  0  0
   26.7874  -20.0284   -8.0460 N   0  0  0  0  0  0  0  0  0  0  0  0
   26.5748  -21.1163   -5.9107 C   0  0  0  0  0  0  0  0  0  0  0  0
   25.3832  -20.7642   -5.9665 O   0  0  0  0  0  0  0  0  0  0  0  0
   26.9946  -21.9948   -4.9351 O   0  0  0  0  0  0  0  0  0  0  0  0
  1  2  1  0
  2  3  1  0
  4  3  1  0
  5  4  1  0
  5  1  1  0
  6  7  2  0
  5  6  1  1
  9 10  2  0
  9  8  1  0
 11  9  1  0
 12 11  1  6
 12 13  1  0
 13  6  1  0
 14 12  1  0
 15 14  2  0
 17 16  1  0
 18 17  1  0
 18 20  1  0
 18 19  1  1
 20 21  1  6
 21 14  1  0
 22 20  1  0
 22 24  1  0
 23 22  2  0
M  END
$$$$
