PNI.pdb
     RDKit          3D

 24 24  0  0  1  0  0  0  0  0999 V2000
   27.9179  -20.4569  -16.4608 N   0  0  0  0  0  0  0  0  0  0  0  0
   29.0545  -20.8202  -17.3320 C   0  0  0  0  0  0  0  0  0  0  0  0
   29.6654  -21.9304  -16.4803 C   0  0  0  0  0  0  0  0  0  0  0  0
   28.4147  -22.7508  -16.1496 C   0  0  0  0  0  0  0  0  0  0  0  0
   27.3184  -21.7442  -16.1745 C   0  0  1  0  0  0  0  0  0  0  0  0
   26.4638  -21.7470  -14.9651 C   0  0  0  0  0  0  0  0  0  0  0  0
   25.4422  -22.4792  -14.9830 O   0  0  0  0  0  0  0  0  0  0  0  0
   24.5709  -21.3920  -10.2631 N   0  0  0  0  0  0  0  0  0  0  0  0
   25.8082  -20.7199  -10.1896 C   0  0  0  0  0  0  0  0  0  0  0  0
   26.2249  -20.3406   -9.0756 O   0  0  0  0  0  0  0  0  0  0  0  0
   26.5875  -20.4753  -11.4083 C   0  0  0  0  0  0  0  0  0  0  0  0
   25.9591  -20.9812  -12.6801 C   0  0  2  0  0  0  0  0  0  0  0  0
   26.7816  -20.9561  -13.8304 N   0  0  0  0  0  0  0  0  0  0  0  0
   24.6333  -20.3530  -12.8320 C   0  0  0  0  0  0  0  0  0  0  0  0
   24.6013  -19.1007  -12.9603 O   0  0  0  0  0  0  0  0  0  0  0  0
   21.8557  -20.8799  -16.9418 C   0  0  0  0  0  0  0  0  0  0  0  0
   22.4834  -20.3138  -15.6599 C   0  0  0  0  0  0  0  0  0  0  0  0
   21.5813  -20.6872  -14.5050 C   0  0  2  0  0  0  0  0  0  0  0  0
   20.2373  -19.9528  -14.6442 C   0  0  0  0  0  0  0  0  0  0  0  0
   22.1262  -20.3835  -13.1685 C   0  0  2  0  0  0  0  0  0  0  0  0
   23.3882  -21.0269  -12.8427 N   0  0  0  0  0  0  0  0  0  0  0  0
   21.0977  -20.8068  -12.1405 C   0  0  0  0  0  0  0  0  0  0  0  0
   21.0087  -22.0106  -11.8401 O   0  0  0  0  0  0  0  0  0  0  0  0
   20.2710  -19.8791  -11.5439 O   0  0  0  0  0  0  0  0  0  0  0  0
  1  2  1  0
  2  3  1  0
  4  3  1  0
  5  4  1  0
  5  1  1  0
  6  7  2  0
  5  6  1  1
  9 10  2  0
  9  8  1  0
 11  9  1  0
 12 11  1  1
 12 13  1  0
 13  6  1  0
 14 12  1  0
 15 14  2  0
 17 16  1  0
 18 17  1  0
 18 20  1  0
 18 19  1  6
 20 21  1  1
 21 14  1  0
 22 20  1  0
 22 24  1  0
 23 22  2  0
M  END
$$$$
