PNI.pdb
     RDKit          3D

 24 24  0  0  1  0  0  0  0  0999 V2000
   24.5698  -17.1891  -15.9057 N   0  0  0  0  0  0  0  0  0  0  0  0
   24.1530  -16.3923  -17.0780 C   0  0  0  0  0  0  0  0  0  0  0  0
   23.2863  -17.4339  -17.7814 C   0  0  0  0  0  0  0  0  0  0  0  0
   22.4326  -17.9268  -16.6087 C   0  0  0  0  0  0  0  0  0  0  0  0
   23.3111  -17.7211  -15.4247 C   0  0  1  0  0  0  0  0  0  0  0  0
   23.4603  -18.9169  -14.5642 C   0  0  0  0  0  0  0  0  0  0  0  0
   22.4097  -19.4266  -14.0986 O   0  0  0  0  0  0  0  0  0  0  0  0
   24.6055  -23.2384  -12.3903 N   0  0  0  0  0  0  0  0  0  0  0  0
   25.1668  -23.1728  -13.6820 C   0  0  0  0  0  0  0  0  0  0  0  0
   25.5792  -24.2232  -14.2160 O   0  0  0  0  0  0  0  0  0  0  0  0
   25.2599  -21.8861  -14.3807 C   0  0  0  0  0  0  0  0  0  0  0  0
   24.8513  -20.6868  -13.5665 C   0  0  2  0  0  0  0  0  0  0  0  0
   24.7357  -19.4676  -14.2741 N   0  0  0  0  0  0  0  0  0  0  0  0
   25.6820  -20.6395  -12.3488 C   0  0  0  0  0  0  0  0  0  0  0  0
   26.9290  -20.7319  -12.4990 O   0  0  0  0  0  0  0  0  0  0  0  0
   27.2763  -18.2943   -7.7616 C   0  0  0  0  0  0  0  0  0  0  0  0
   26.1863  -19.0020   -8.5794 C   0  0  0  0  0  0  0  0  0  0  0  0
   26.7777  -20.2865   -9.1155 C   0  0  2  0  0  0  0  0  0  0  0  0
   27.9654  -19.9605  -10.0365 C   0  0  0  0  0  0  0  0  0  0  0  0
   25.8377  -21.1340   -9.8727 C   0  0  2  0  0  0  0  0  0  0  0  0
   25.2082  -20.5041  -11.0214 N   0  0  0  0  0  0  0  0  0  0  0  0
   24.7485  -21.5840   -8.9214 C   0  0  0  0  0  0  0  0  0  0  0  0
   25.0686  -22.2049   -7.8922 O   0  0  0  0  0  0  0  0  0  0  0  0
   23.4230  -21.3137   -9.1854 O   0  0  0  0  0  0  0  0  0  0  0  0
  1  2  1  0
  2  3  1  0
  4  3  1  0
  5  4  1  0
  5  1  1  0
  6  7  2  0
  5  6  1  6
  9 10  2  0
  9  8  1  0
 11  9  1  0
 12 11  1  6
 12 13  1  0
 13  6  1  0
 14 12  1  0
 15 14  2  0
 17 16  1  0
 18 17  1  0
 18 20  1  0
 18 19  1  6
 20 21  1  6
 21 14  1  0
 22 20  1  0
 22 24  1  0
 23 22  2  0
M  END
$$$$
