PNI.pdb
     RDKit          3D

 24 24  0  0  1  0  0  0  0  0999 V2000
   27.1894  -19.7520  -16.0540 N   0  0  0  0  0  0  0  0  0  0  0  0
   28.6055  -19.8041  -16.4719 C   0  0  0  0  0  0  0  0  0  0  0  0
   29.1841  -20.5469  -15.2701 C   0  0  0  0  0  0  0  0  0  0  0  0
   28.1823  -21.6989  -15.1434 C   0  0  0  0  0  0  0  0  0  0  0  0
   26.9200  -21.1273  -15.6871 C   0  0  1  0  0  0  0  0  0  0  0  0
   25.7479  -21.2871  -14.7964 C   0  0  0  0  0  0  0  0  0  0  0  0
   24.8035  -22.0064  -15.2100 O   0  0  0  0  0  0  0  0  0  0  0  0
   23.7747  -20.7841   -8.9468 N   0  0  0  0  0  0  0  0  0  0  0  0
   23.6764  -20.9677  -10.3413 C   0  0  0  0  0  0  0  0  0  0  0  0
   22.6022  -21.3845  -10.8219 O   0  0  0  0  0  0  0  0  0  0  0  0
   24.8232  -20.6700  -11.2065 C   0  0  0  0  0  0  0  0  0  0  0  0
   24.5698  -20.8365  -12.6818 C   0  0  2  0  0  0  0  0  0  0  0  0
   25.6891  -20.6550  -13.5271 N   0  0  0  0  0  0  0  0  0  0  0  0
   23.3674  -20.0625  -13.0430 C   0  0  0  0  0  0  0  0  0  0  0  0
   23.4287  -18.8112  -12.9151 O   0  0  0  0  0  0  0  0  0  0  0  0
   21.9094  -20.5606  -17.2868 C   0  0  0  0  0  0  0  0  0  0  0  0
   21.6768  -19.4098  -16.2973 C   0  0  0  0  0  0  0  0  0  0  0  0
   20.6125  -19.8549  -15.3194 C   0  0  2  0  0  0  0  0  0  0  0  0
   19.3507  -18.9959  -15.5068 C   0  0  0  0  0  0  0  0  0  0  0  0
   21.0039  -19.7799  -13.8995 C   0  0  2  0  0  0  0  0  0  0  0  0
   22.1446  -20.5956  -13.5174 N   0  0  0  0  0  0  0  0  0  0  0  0
   19.8135  -20.2076  -13.0664 C   0  0  0  0  0  0  0  0  0  0  0  0
   19.5052  -21.4122  -13.0333 O   0  0  0  0  0  0  0  0  0  0  0  0
   19.0797  -19.2830  -12.3547 O   0  0  0  0  0  0  0  0  0  0  0  0
  1  2  1  0
  2  3  1  0
  4  3  1  0
  5  4  1  0
  5  1  1  0
  6  7  2  0
  5  6  1  1
  9 10  2  0
  9  8  1  0
 11  9  1  0
 12 11  1  1
 12 13  1  0
 13  6  1  0
 14 12  1  0
 15 14  2  0
 17 16  1  0
 18 17  1  0
 18 20  1  0
 18 19  1  1
 20 21  1  6
 21 14  1  0
 22 20  1  0
 22 24  1  0
 23 22  2  0
M  END
$$$$
