PNI.pdb
     RDKit          3D

 24 24  0  0  1  0  0  0  0  0999 V2000
   18.2761  -14.0456  -18.7998 N   0  0  0  0  0  0  0  0  0  0  0  0
   18.0960  -15.4069  -19.3449 C   0  0  0  0  0  0  0  0  0  0  0  0
   19.4811  -15.6071  -19.9552 C   0  0  0  0  0  0  0  0  0  0  0  0
   20.3686  -15.1533  -18.7919 C   0  0  0  0  0  0  0  0  0  0  0  0
   19.5234  -14.1617  -18.0722 C   0  0  1  0  0  0  0  0  0  0  0  0
   20.1900  -12.8631  -17.8226 C   0  0  0  0  0  0  0  0  0  0  0  0
   21.2599  -12.8819  -17.1629 O   0  0  0  0  0  0  0  0  0  0  0  0
   22.0665   -7.8091  -19.4026 N   0  0  0  0  0  0  0  0  0  0  0  0
   20.7920   -8.0839  -18.8658 C   0  0  0  0  0  0  0  0  0  0  0  0
   20.2365   -7.2211  -18.1549 O   0  0  0  0  0  0  0  0  0  0  0  0
   20.1358   -9.3662  -19.1445 C   0  0  0  0  0  0  0  0  0  0  0  0
   20.3112  -10.4175  -18.0804 C   0  0  2  0  0  0  0  0  0  0  0  0
   19.6459  -11.6449  -18.3063 N   0  0  0  0  0  0  0  0  0  0  0  0
   20.0736   -9.7979  -16.7632 C   0  0  0  0  0  0  0  0  0  0  0  0
   18.9119   -9.8891  -16.2856 O   0  0  0  0  0  0  0  0  0  0  0  0
   22.1152  -10.0489  -11.2629 C   0  0  0  0  0  0  0  0  0  0  0  0
   21.2957   -9.1090  -12.1589 C   0  0  0  0  0  0  0  0  0  0  0  0
   21.4988   -9.5496  -13.5913 C   0  0  2  0  0  0  0  0  0  0  0  0
   23.0010   -9.5507  -13.9207 C   0  0  0  0  0  0  0  0  0  0  0  0
   20.8155   -8.7176  -14.5993 C   0  0  2  0  0  0  0  0  0  0  0  0
   21.0305   -9.1037  -15.9840 N   0  0  0  0  0  0  0  0  0  0  0  0
   21.2923   -7.2907  -14.4243 C   0  0  0  0  0  0  0  0  0  0  0  0
   22.0646   -6.8073  -15.2711 O   0  0  0  0  0  0  0  0  0  0  0  0
   20.8815   -6.5351  -13.3473 O   0  0  0  0  0  0  0  0  0  0  0  0
  1  2  1  0
  2  3  1  0
  4  3  1  0
  5  4  1  0
  5  1  1  0
  6  7  2  0
  5  6  1  6
  9 10  2  0
  9  8  1  0
 11  9  1  0
 12 11  1  6
 12 13  1  0
 13  6  1  0
 14 12  1  0
 15 14  2  0
 17 16  1  0
 18 17  1  0
 18 20  1  0
 18 19  1  6
 20 21  1  6
 21 14  1  0
 22 20  1  0
 22 24  1  0
 23 22  2  0
M  END
$$$$
