PNI.pdb
     RDKit          3D

 24 24  0  0  1  0  0  0  0  0999 V2000
   25.7096  -24.8280  -15.4607 N   0  0  0  0  0  0  0  0  0  0  0  0
   26.1464  -26.0147  -16.2248 C   0  0  0  0  0  0  0  0  0  0  0  0
   25.0528  -26.0311  -17.2901 C   0  0  0  0  0  0  0  0  0  0  0  0
   25.0594  -24.5612  -17.7216 C   0  0  0  0  0  0  0  0  0  0  0  0
   25.5138  -23.8396  -16.5015 C   0  0  1  0  0  0  0  0  0  0  0  0
   24.6370  -22.7164  -16.0984 C   0  0  0  0  0  0  0  0  0  0  0  0
   24.3752  -21.8484  -16.9691 O   0  0  0  0  0  0  0  0  0  0  0  0
   21.0984  -19.7864  -13.9262 N   0  0  0  0  0  0  0  0  0  0  0  0
   21.1684  -20.9374  -13.1149 C   0  0  0  0  0  0  0  0  0  0  0  0
   20.3162  -21.0967  -12.2166 O   0  0  0  0  0  0  0  0  0  0  0  0
   22.2289  -21.9279  -13.3309 C   0  0  0  0  0  0  0  0  0  0  0  0
   23.1853  -21.6055  -14.4488 C   0  0  2  0  0  0  0  0  0  0  0  0
   24.1122  -22.6201  -14.7833 N   0  0  0  0  0  0  0  0  0  0  0  0
   23.7636  -20.2712  -14.2032 C   0  0  0  0  0  0  0  0  0  0  0  0
   24.5163  -20.1458  -13.2014 O   0  0  0  0  0  0  0  0  0  0  0  0
   27.8278  -16.9662  -16.1798 C   0  0  0  0  0  0  0  0  0  0  0  0
   26.5167  -16.7255  -15.4176 C   0  0  0  0  0  0  0  0  0  0  0  0
   25.6450  -17.9463  -15.6093 C   0  0  2  0  0  0  0  0  0  0  0  0
   25.3420  -18.1318  -17.1057 C   0  0  0  0  0  0  0  0  0  0  0  0
   24.3587  -17.9099  -14.8887 C   0  0  2  0  0  0  0  0  0  0  0  0
   23.5480  -19.1122  -14.9874 N   0  0  0  0  0  0  0  0  0  0  0  0
   23.5539  -16.7481  -15.4335 C   0  0  0  0  0  0  0  0  0  0  0  0
   22.6025  -16.9832  -16.1995 O   0  0  0  0  0  0  0  0  0  0  0  0
   23.8651  -15.4499  -15.0904 O   0  0  0  0  0  0  0  0  0  0  0  0
  1  2  1  0
  2  3  1  0
  4  3  1  0
  5  4  1  0
  5  1  1  0
  6  7  2  0
  5  6  1  1
  9 10  2  0
  9  8  1  0
 11  9  1  0
 12 11  1  1
 12 13  1  0
 13  6  1  0
 14 12  1  0
 15 14  2  0
 17 16  1  0
 18 17  1  0
 18 20  1  0
 18 19  1  6
 20 21  1  6
 21 14  1  0
 22 20  1  0
 22 24  1  0
 23 22  2  0
M  END
$$$$
