PNI.pdb
     RDKit          3D

 24 24  0  0  1  0  0  0  0  0999 V2000
   19.7919  -12.1519  -18.4389 N   0  0  0  0  0  0  0  0  0  0  0  0
   19.1861  -13.2434  -19.2292 C   0  0  0  0  0  0  0  0  0  0  0  0
   17.8110  -12.6277  -19.4756 C   0  0  0  0  0  0  0  0  0  0  0  0
   18.2112  -11.2227  -19.9367 C   0  0  0  0  0  0  0  0  0  0  0  0
   19.5096  -10.9845  -19.2489 C   0  0  1  0  0  0  0  0  0  0  0  0
   19.5744   -9.7096  -18.4984 C   0  0  0  0  0  0  0  0  0  0  0  0
   19.6292   -8.6480  -19.1694 O   0  0  0  0  0  0  0  0  0  0  0  0
   16.8244   -8.1353  -16.7791 N   0  0  0  0  0  0  0  0  0  0  0  0
   17.2770   -8.2410  -15.4480 C   0  0  0  0  0  0  0  0  0  0  0  0
   16.4402   -8.2232  -14.5217 O   0  0  0  0  0  0  0  0  0  0  0  0
   18.7107   -8.3707  -15.1651 C   0  0  0  0  0  0  0  0  0  0  0  0
   19.5961   -8.4539  -16.3806 C   0  0  2  0  0  0  0  0  0  0  0  0
   19.5754   -9.6833  -17.0795 N   0  0  0  0  0  0  0  0  0  0  0  0
   20.9345   -7.9476  -16.0233 C   0  0  0  0  0  0  0  0  0  0  0  0
   20.9865   -6.9514  -15.2546 O   0  0  0  0  0  0  0  0  0  0  0  0
   26.3586  -10.2895  -14.5906 C   0  0  0  0  0  0  0  0  0  0  0  0
   25.6586   -8.9741  -14.9614 C   0  0  0  0  0  0  0  0  0  0  0  0
   24.2750   -9.3182  -15.4657 C   0  0  2  0  0  0  0  0  0  0  0  0
   24.3891  -10.2454  -16.6874 C   0  0  0  0  0  0  0  0  0  0  0  0
   23.4497   -8.1590  -15.8534 C   0  0  2  0  0  0  0  0  0  0  0  0
   22.1710   -8.4746  -16.4682 N   0  0  0  0  0  0  0  0  0  0  0  0
   24.2523   -7.3228  -16.8285 C   0  0  0  0  0  0  0  0  0  0  0  0
   23.9415   -7.3408  -18.0328 O   0  0  0  0  0  0  0  0  0  0  0  0
   25.3104   -6.5529  -16.3956 O   0  0  0  0  0  0  0  0  0  0  0  0
  1  2  1  0
  2  3  1  0
  4  3  1  0
  5  4  1  0
  5  1  1  0
  6  7  2  0
  5  6  1  1
  9 10  2  0
  9  8  1  0
 11  9  1  0
 12 11  1  1
 12 13  1  0
 13  6  1  0
 14 12  1  0
 15 14  2  0
 17 16  1  0
 18 17  1  0
 18 20  1  0
 18 19  1  6
 20 21  1  6
 21 14  1  0
 22 20  1  0
 22 24  1  0
 23 22  2  0
M  END
$$$$
