PNI.pdb
     RDKit          3D

 24 24  0  0  1  0  0  0  0  0999 V2000
   27.9468  -21.4970  -15.0169 N   0  0  0  0  0  0  0  0  0  0  0  0
   28.2842  -21.9004  -16.3975 C   0  0  0  0  0  0  0  0  0  0  0  0
   27.1156  -21.2472  -17.1316 C   0  0  0  0  0  0  0  0  0  0  0  0
   27.1426  -19.8465  -16.5118 C   0  0  0  0  0  0  0  0  0  0  0  0
   27.7104  -20.0744  -15.1548 C   0  0  1  0  0  0  0  0  0  0  0  0
   26.9058  -19.4954  -14.0547 C   0  0  0  0  0  0  0  0  0  0  0  0
   26.2615  -18.4449  -14.3032 O   0  0  0  0  0  0  0  0  0  0  0  0
   23.0058  -19.5180  -11.3606 N   0  0  0  0  0  0  0  0  0  0  0  0
   23.1605  -20.4390  -12.4169 C   0  0  0  0  0  0  0  0  0  0  0  0
   22.1414  -20.8964  -12.9743 O   0  0  0  0  0  0  0  0  0  0  0  0
   24.5021  -20.8471  -12.8483 C   0  0  0  0  0  0  0  0  0  0  0  0
   25.6369  -20.2277  -12.0759 C   0  0  2  0  0  0  0  0  0  0  0  0
   26.8619  -20.0984  -12.7708 N   0  0  0  0  0  0  0  0  0  0  0  0
   25.7199  -20.8814  -10.7563 C   0  0  0  0  0  0  0  0  0  0  0  0
   25.9577  -22.1179  -10.7407 O   0  0  0  0  0  0  0  0  0  0  0  0
   27.7961  -18.2517   -6.4758 C   0  0  0  0  0  0  0  0  0  0  0  0
   27.6100  -19.4044   -7.4730 C   0  0  0  0  0  0  0  0  0  0  0  0
   26.3017  -20.0878   -7.1438 C   0  0  2  0  0  0  0  0  0  0  0  0
   26.4865  -20.9836   -5.9075 C   0  0  0  0  0  0  0  0  0  0  0  0
   25.7469  -20.9209   -8.2270 C   0  0  2  0  0  0  0  0  0  0  0  0
   25.5523  -20.2486   -9.5008 N   0  0  0  0  0  0  0  0  0  0  0  0
   24.4081  -21.4555   -7.7624 C   0  0  0  0  0  0  0  0  0  0  0  0
   24.3803  -22.2747   -6.8267 O   0  0  0  0  0  0  0  0  0  0  0  0
   23.2365  -21.0457   -8.3618 O   0  0  0  0  0  0  0  0  0  0  0  0
  1  2  1  0
  2  3  1  0
  4  3  1  0
  5  4  1  0
  5  1  1  0
  6  7  2  0
  5  6  1  1
  9 10  2  0
  9  8  1  0
 11  9  1  0
 12 11  1  6
 12 13  1  0
 13  6  1  0
 14 12  1  0
 15 14  2  0
 17 16  1  0
 18 17  1  0
 18 20  1  0
 18 19  1  1
 20 21  1  6
 21 14  1  0
 22 20  1  0
 22 24  1  0
 23 22  2  0
M  END
$$$$
