PNI.pdb
     RDKit          3D

 24 24  0  0  1  0  0  0  0  0999 V2000
   18.2766  -14.8118  -17.0727 N   0  0  0  0  0  0  0  0  0  0  0  0
   17.8543  -16.0887  -17.6843 C   0  0  0  0  0  0  0  0  0  0  0  0
   17.5656  -15.5940  -19.0995 C   0  0  0  0  0  0  0  0  0  0  0  0
   18.8310  -14.7754  -19.3742 C   0  0  0  0  0  0  0  0  0  0  0  0
   19.2525  -14.3171  -18.0221 C   0  0  1  0  0  0  0  0  0  0  0  0
   19.4936  -12.8594  -17.9228 C   0  0  0  0  0  0  0  0  0  0  0  0
   20.5304  -12.4081  -18.4721 O   0  0  0  0  0  0  0  0  0  0  0  0
   17.3160   -7.4858  -15.9398 N   0  0  0  0  0  0  0  0  0  0  0  0
   17.9830   -8.2868  -16.8893 C   0  0  0  0  0  0  0  0  0  0  0  0
   18.8366   -7.7596  -17.6321 O   0  0  0  0  0  0  0  0  0  0  0  0
   17.6730   -9.7169  -16.9949 C   0  0  0  0  0  0  0  0  0  0  0  0
   18.8710  -10.6235  -17.1011 C   0  0  2  0  0  0  0  0  0  0  0  0
   18.5937  -12.0038  -17.2358 N   0  0  0  0  0  0  0  0  0  0  0  0
   19.8265  -10.2674  -16.0354 C   0  0  0  0  0  0  0  0  0  0  0  0
   19.5724  -10.6808  -14.8733 O   0  0  0  0  0  0  0  0  0  0  0  0
   25.4732  -10.7464  -14.5227 C   0  0  0  0  0  0  0  0  0  0  0  0
   24.2420   -9.8943  -14.1827 C   0  0  0  0  0  0  0  0  0  0  0  0
   23.2746  -10.0055  -15.3398 C   0  0  2  0  0  0  0  0  0  0  0  0
   23.9289   -9.4428  -16.6128 C   0  0  0  0  0  0  0  0  0  0  0  0
   21.9906   -9.3066  -15.1446 C   0  0  2  0  0  0  0  0  0  0  0  0
   21.0042   -9.4980  -16.1950 N   0  0  0  0  0  0  0  0  0  0  0  0
   22.2812   -7.8246  -15.0299 C   0  0  0  0  0  0  0  0  0  0  0  0
   22.0116   -7.0834  -15.9917 O   0  0  0  0  0  0  0  0  0  0  0  0
   22.8350   -7.2995  -13.8822 O   0  0  0  0  0  0  0  0  0  0  0  0
  1  2  1  0
  2  3  1  0
  4  3  1  0
  5  4  1  0
  5  1  1  0
  6  7  2  0
  5  6  1  6
  9 10  2  0
  9  8  1  0
 11  9  1  0
 12 11  1  1
 12 13  1  0
 13  6  1  0
 14 12  1  0
 15 14  2  0
 17 16  1  0
 18 17  1  0
 18 20  1  0
 18 19  1  6
 20 21  1  6
 21 14  1  0
 22 20  1  0
 22 24  1  0
 23 22  2  0
M  END
$$$$
