PNI.pdb
     RDKit          3D

 24 24  0  0  1  0  0  0  0  0999 V2000
   16.5213  -13.4592  -16.8695 N   0  0  0  0  0  0  0  0  0  0  0  0
   16.0157  -14.6055  -17.6525 C   0  0  0  0  0  0  0  0  0  0  0  0
   15.6865  -13.8808  -18.9553 C   0  0  0  0  0  0  0  0  0  0  0  0
   16.9736  -13.0761  -19.1617 C   0  0  0  0  0  0  0  0  0  0  0  0
   17.4751  -12.8556  -17.7776 C   0  0  1  0  0  0  0  0  0  0  0  0
   17.7852  -11.4424  -17.4621 C   0  0  0  0  0  0  0  0  0  0  0  0
   18.7416  -10.9103  -18.0805 O   0  0  0  0  0  0  0  0  0  0  0  0
   16.2132   -6.1003  -16.1045 N   0  0  0  0  0  0  0  0  0  0  0  0
   16.5709   -7.1729  -15.2622 C   0  0  0  0  0  0  0  0  0  0  0  0
   17.1920   -6.9315  -14.2065 O   0  0  0  0  0  0  0  0  0  0  0  0
   16.2136   -8.5480  -15.6279 C   0  0  0  0  0  0  0  0  0  0  0  0
   17.3298   -9.3580  -16.2331 C   0  0  2  0  0  0  0  0  0  0  0  0
   17.0360  -10.7153  -16.5008 N   0  0  0  0  0  0  0  0  0  0  0  0
   18.5613   -9.1142  -15.4589 C   0  0  0  0  0  0  0  0  0  0  0  0
   18.6584   -9.6814  -14.3387 O   0  0  0  0  0  0  0  0  0  0  0  0
   23.6403   -8.8673  -17.5505 C   0  0  0  0  0  0  0  0  0  0  0  0
   22.4320   -8.0837  -17.0180 C   0  0  0  0  0  0  0  0  0  0  0  0
   22.0932   -8.6374  -15.6520 C   0  0  2  0  0  0  0  0  0  0  0  0
   21.9652  -10.1678  -15.7350 C   0  0  0  0  0  0  0  0  0  0  0  0
   20.8492   -8.1111  -15.0600 C   0  0  2  0  0  0  0  0  0  0  0  0
   19.6467   -8.2961  -15.8553 N   0  0  0  0  0  0  0  0  0  0  0  0
   21.0390   -6.6271  -14.8237 C   0  0  0  0  0  0  0  0  0  0  0  0
   20.3409   -5.8225  -15.4659 O   0  0  0  0  0  0  0  0  0  0  0  0
   21.9677   -6.1691  -13.9141 O   0  0  0  0  0  0  0  0  0  0  0  0
  1  2  1  0
  2  3  1  0
  4  3  1  0
  5  4  1  0
  5  1  1  0
  6  7  2  0
  5  6  1  1
  9 10  2  0
  9  8  1  0
 11  9  1  0
 12 11  1  1
 12 13  1  0
 13  6  1  0
 14 12  1  0
 15 14  2  0
 17 16  1  0
 18 17  1  0
 18 20  1  0
 18 19  1  6
 20 21  1  6
 21 14  1  0
 22 20  1  0
 22 24  1  0
 23 22  2  0
M  END
$$$$
