PNI.pdb
     RDKit          3D

 24 24  0  0  1  0  0  0  0  0999 V2000
   27.0442  -19.8363  -15.4182 N   0  0  0  0  0  0  0  0  0  0  0  0
   27.5222  -19.0671  -16.5856 C   0  0  0  0  0  0  0  0  0  0  0  0
   27.2926  -17.6546  -16.0537 C   0  0  0  0  0  0  0  0  0  0  0  0
   27.9246  -17.7722  -14.6632 C   0  0  0  0  0  0  0  0  0  0  0  0
   27.7509  -19.2101  -14.3195 C   0  0  1  0  0  0  0  0  0  0  0  0
   27.1266  -19.4475  -12.9979 C   0  0  0  0  0  0  0  0  0  0  0  0
   27.6280  -18.8553  -12.0089 O   0  0  0  0  0  0  0  0  0  0  0  0
   22.6312  -19.1620  -13.1747 N   0  0  0  0  0  0  0  0  0  0  0  0
   23.1034  -20.4802  -13.0090 C   0  0  0  0  0  0  0  0  0  0  0  0
   22.8892  -21.3169  -13.9103 O   0  0  0  0  0  0  0  0  0  0  0  0
   23.8350  -20.8536  -11.7933 C   0  0  0  0  0  0  0  0  0  0  0  0
   25.2188  -20.2705  -11.6768 C   0  0  2  0  0  0  0  0  0  0  0  0
   26.0081  -20.3083  -12.8497 N   0  0  0  0  0  0  0  0  0  0  0  0
   25.8570  -20.8125  -10.4626 C   0  0  0  0  0  0  0  0  0  0  0  0
   26.3833  -21.9533  -10.5496 O   0  0  0  0  0  0  0  0  0  0  0  0
   28.9338  -19.5584   -5.3349 C   0  0  0  0  0  0  0  0  0  0  0  0
   28.0120  -20.5847   -6.0093 C   0  0  0  0  0  0  0  0  0  0  0  0
   27.3848  -19.9159   -7.2120 C   0  0  2  0  0  0  0  0  0  0  0  0
   26.5560  -18.7046   -6.7526 C   0  0  0  0  0  0  0  0  0  0  0  0
   26.5071  -20.7849   -8.0179 C   0  0  2  0  0  0  0  0  0  0  0  0
   25.9301  -20.1712   -9.2024 N   0  0  0  0  0  0  0  0  0  0  0  0
   25.3758  -21.2560   -7.1277 C   0  0  0  0  0  0  0  0  0  0  0  0
   25.6381  -21.9998   -6.1659 O   0  0  0  0  0  0  0  0  0  0  0  0
   24.0754  -20.8708   -7.3736 O   0  0  0  0  0  0  0  0  0  0  0  0
  1  2  1  0
  2  3  1  0
  4  3  1  0
  5  4  1  0
  5  1  1  0
  6  7  2  0
  5  6  1  1
  9 10  2  0
  9  8  1  0
 11  9  1  0
 12 11  1  6
 12 13  1  0
 13  6  1  0
 14 12  1  0
 15 14  2  0
 17 16  1  0
 18 17  1  0
 18 20  1  0
 18 19  1  1
 20 21  1  6
 21 14  1  0
 22 20  1  0
 22 24  1  0
 23 22  2  0
M  END
$$$$
