EPR.pdb
     RDKit          3D

 28 28  0  0  1  0  0  0  0  0999 V2000
   28.0700  -21.1104  -15.1585 N   0  0  0  0  0  0  0  0  0  0  0  0
   26.9726  -20.8566  -16.1095 C   0  0  1  0  0  0  0  0  0  0  0  0
   26.4944  -22.2370  -16.5724 C   0  0  0  0  0  0  0  0  0  0  0  0
   25.9458  -23.0275  -15.4241 C   0  0  0  0  0  0  0  0  0  0  0  0
   25.2475  -24.2226  -15.9483 C   0  0  0  0  0  0  0  0  0  0  0  0
   25.7113  -25.3636  -15.7148 O   0  0  0  0  0  0  0  0  0  0  0  0
   25.8202  -20.2338  -15.4243 C   0  0  0  0  0  0  0  0  0  0  0  0
   25.9087  -20.1228  -14.1527 O   0  0  0  0  0  0  0  0  0  0  0  0
   24.0781  -24.1303  -16.7021 O   0  0  0  0  0  0  0  0  0  0  0  0
   24.6844  -19.7824  -16.1103 N   0  0  0  0  0  0  0  0  0  0  0  0
   24.3784  -20.0484  -17.4958 C   0  0  0  0  0  0  0  0  0  0  0  0
   23.5058  -18.8936  -17.9276 C   0  0  0  0  0  0  0  0  0  0  0  0
   23.4355  -17.9649  -16.7105 C   0  0  0  0  0  0  0  0  0  0  0  0
   23.6048  -19.0000  -15.5882 C   0  0  1  0  0  0  0  0  0  0  0  0
   22.3868  -19.8826  -15.5400 C   0  0  0  0  0  0  0  0  0  0  0  0
   22.2488  -20.8843  -16.2952 O   0  0  0  0  0  0  0  0  0  0  0  0
   20.0302  -22.9508   -8.2813 N   0  0  0  0  0  0  0  0  0  0  0  0
   19.3295  -23.2209   -9.4803 C   0  0  0  0  0  0  0  0  0  0  0  0
   18.4750  -24.2121   -9.5407 N   0  0  0  0  0  0  0  0  0  0  0  0
   19.5100  -22.4565  -10.6427 N   0  0  0  0  0  0  0  0  0  0  0  0
   20.4524  -21.3750  -10.7668 C   0  0  0  0  0  0  0  0  0  0  0  0
   20.3211  -20.6575  -12.0570 C   0  0  0  0  0  0  0  0  0  0  0  0
   20.2805  -21.3545  -13.3380 C   0  0  0  0  0  0  0  0  0  0  0  0
   20.1514  -20.5885  -14.5948 C   0  0  2  0  0  0  0  0  0  0  0  0
   21.3282  -19.6325  -14.6399 N   0  0  0  0  0  0  0  0  0  0  0  0
   19.0151  -19.6600  -14.6612 C   0  0  0  0  0  0  0  0  0  0  0  0
   19.1442  -18.4407  -14.5758 O   0  0  0  0  0  0  0  0  0  0  0  0
   17.6966  -20.1301  -14.8299 O   0  0  0  0  0  0  0  0  0  0  0  0
  2  1  1  1
  2  7  1  0
  2  3  1  0
  3  4  1  0
  5  9  1  0
  5  4  1  0
  6  5  2  0
  7  8  2  0
 10  7  1  0
 10 11  1  0
 12 11  1  0
 13 14  1  0
 13 12  1  0
 14 10  1  0
 15 25  1  0
 14 15  1  6
 16 15  2  0
 17 18  1  0
 18 19  2  0
 20 21  1  0
 20 18  1  0
 21 22  1  0
 23 22  1  0
 24 23  1  1
 24 25  1  0
 26 28  1  0
 26 24  1  0
 27 26  2  0
M  END
$$$$
