EPR.pdb
     RDKit          3D

 28 28  0  0  1  0  0  0  0  0999 V2000
   28.9300  -21.1292  -17.7074 N   0  0  0  0  0  0  0  0  0  0  0  0
   29.3024  -20.5798  -16.3911 C   0  0  1  0  0  0  0  0  0  0  0  0
   28.7448  -19.1527  -16.3620 C   0  0  0  0  0  0  0  0  0  0  0  0
   27.3481  -19.1114  -16.9022 C   0  0  0  0  0  0  0  0  0  0  0  0
   26.7871  -17.7579  -16.6922 C   0  0  0  0  0  0  0  0  0  0  0  0
   27.3568  -16.7648  -17.2029 O   0  0  0  0  0  0  0  0  0  0  0  0
   28.6133  -21.3097  -15.3058 C   0  0  0  0  0  0  0  0  0  0  0  0
   27.7852  -22.2152  -15.6681 O   0  0  0  0  0  0  0  0  0  0  0  0
   25.6344  -17.5389  -15.9390 O   0  0  0  0  0  0  0  0  0  0  0  0
   28.8403  -21.0411  -13.9490 N   0  0  0  0  0  0  0  0  0  0  0  0
   29.6458  -19.9616  -13.4294 C   0  0  0  0  0  0  0  0  0  0  0  0
   30.1180  -20.4470  -12.0792 C   0  0  0  0  0  0  0  0  0  0  0  0
   29.5780  -21.8758  -11.9535 C   0  0  0  0  0  0  0  0  0  0  0  0
   28.3165  -21.7503  -12.8209 C   0  0  1  0  0  0  0  0  0  0  0  0
   27.3305  -20.8446  -12.1336 C   0  0  0  0  0  0  0  0  0  0  0  0
   27.4130  -19.5867  -12.1950 O   0  0  0  0  0  0  0  0  0  0  0  0
   19.0098  -22.3579  -10.6421 N   0  0  0  0  0  0  0  0  0  0  0  0
   19.1087  -20.9625  -10.8536 C   0  0  0  0  0  0  0  0  0  0  0  0
   18.2133  -20.1498  -10.3494 N   0  0  0  0  0  0  0  0  0  0  0  0
   20.1497  -20.3890  -11.5989 N   0  0  0  0  0  0  0  0  0  0  0  0
   21.3384  -21.0903  -12.0092 C   0  0  0  0  0  0  0  0  0  0  0  0
   22.5644  -20.5320  -11.3911 C   0  0  0  0  0  0  0  0  0  0  0  0
   23.8951  -21.0515  -11.6878 C   0  0  0  0  0  0  0  0  0  0  0  0
   25.0837  -20.4568  -11.0425 C   0  0  2  0  0  0  0  0  0  0  0  0
   26.2545  -21.3606  -11.3791 N   0  0  0  0  0  0  0  0  0  0  0  0
   25.0966  -20.4928   -9.5741 C   0  0  0  0  0  0  0  0  0  0  0  0
   24.6473  -19.5830   -8.8806 O   0  0  0  0  0  0  0  0  0  0  0  0
   25.6341  -21.5931   -8.8753 O   0  0  0  0  0  0  0  0  0  0  0  0
  2  1  1  6
  2  7  1  0
  2  3  1  0
  3  4  1  0
  5  9  1  0
  5  4  1  0
  6  5  2  0
  7  8  2  0
 10  7  1  0
 10 11  1  0
 12 11  1  0
 13 14  1  0
 13 12  1  0
 14 10  1  0
 15 25  1  0
 14 15  1  1
 16 15  2  0
 17 18  1  0
 18 19  2  0
 20 21  1  0
 20 18  1  0
 21 22  1  0
 23 22  1  0
 24 23  1  6
 24 25  1  0
 26 28  1  0
 26 24  1  0
 27 26  2  0
M  END
$$$$
