EPR.pdb
     RDKit          3D

 28 28  0  0  1  0  0  0  0  0999 V2000
   21.0081  -13.8653  -17.7756 N   0  0  0  0  0  0  0  0  0  0  0  0
   22.0757  -13.0818  -17.1280 C   0  0  1  0  0  0  0  0  0  0  0  0
   22.7586  -12.2975  -18.2537 C   0  0  0  0  0  0  0  0  0  0  0  0
   23.4608  -13.2211  -19.2014 C   0  0  0  0  0  0  0  0  0  0  0  0
   24.0928  -12.4236  -20.2762 C   0  0  0  0  0  0  0  0  0  0  0  0
   24.0103  -11.1730  -20.2504 O   0  0  0  0  0  0  0  0  0  0  0  0
   21.5020  -12.0702  -16.2154 C   0  0  0  0  0  0  0  0  0  0  0  0
   20.2442  -11.8601  -16.3204 O   0  0  0  0  0  0  0  0  0  0  0  0
   24.7863  -13.0148  -21.3316 O   0  0  0  0  0  0  0  0  0  0  0  0
   22.2745  -11.3694  -15.2792 N   0  0  0  0  0  0  0  0  0  0  0  0
   23.7075  -11.4646  -15.1324 C   0  0  0  0  0  0  0  0  0  0  0  0
   23.9731  -11.1034  -13.6899 C   0  0  0  0  0  0  0  0  0  0  0  0
   22.5893  -10.8892  -13.0671 C   0  0  0  0  0  0  0  0  0  0  0  0
   21.8188  -10.4191  -14.3100 C   0  0  1  0  0  0  0  0  0  0  0  0
   22.3287   -9.0659  -14.7269 C   0  0  0  0  0  0  0  0  0  0  0  0
   23.3947   -8.9202  -15.3864 O   0  0  0  0  0  0  0  0  0  0  0  0
   16.9563   -3.3701  -18.7582 N   0  0  0  0  0  0  0  0  0  0  0  0
   18.2918   -2.9116  -18.8469 C   0  0  0  0  0  0  0  0  0  0  0  0
   18.5914   -1.8825  -19.6002 N   0  0  0  0  0  0  0  0  0  0  0  0
   19.3426   -3.5229  -18.1468 N   0  0  0  0  0  0  0  0  0  0  0  0
   19.2034   -4.7118  -17.3464 C   0  0  0  0  0  0  0  0  0  0  0  0
   20.4674   -5.0872  -16.6694 C   0  0  0  0  0  0  0  0  0  0  0  0
   20.6089   -6.3242  -15.9091 C   0  0  0  0  0  0  0  0  0  0  0  0
   21.8783   -6.6274  -15.2166 C   0  0  2  0  0  0  0  0  0  0  0  0
   21.6343   -7.8813  -14.3985 N   0  0  0  0  0  0  0  0  0  0  0  0
   22.2810   -5.6712  -14.1768 C   0  0  0  0  0  0  0  0  0  0  0  0
   21.9435   -5.7838  -13.0003 O   0  0  0  0  0  0  0  0  0  0  0  0
   23.0897   -4.5575  -14.4824 O   0  0  0  0  0  0  0  0  0  0  0  0
  2  1  1  6
  2  7  1  0
  2  3  1  0
  3  4  1  0
  5  9  1  0
  5  4  1  0
  6  5  2  0
  7  8  2  0
 10  7  1  0
 10 11  1  0
 12 11  1  0
 13 14  1  0
 13 12  1  0
 14 10  1  0
 15 25  1  0
 14 15  1  6
 16 15  2  0
 17 18  1  0
 18 19  2  0
 20 21  1  0
 20 18  1  0
 21 22  1  0
 23 22  1  0
 24 23  1  1
 24 25  1  0
 26 28  1  0
 26 24  1  0
 27 26  2  0
M  END
$$$$
