EPR.pdb
     RDKit          3D

 28 28  0  0  1  0  0  0  0  0999 V2000
   25.4070  -22.7391  -12.1604 N   0  0  0  0  0  0  0  0  0  0  0  0
   24.7078  -22.2456  -13.3608 C   0  0  1  0  0  0  0  0  0  0  0  0
   24.1941  -23.4937  -14.0866 C   0  0  0  0  0  0  0  0  0  0  0  0
   25.3314  -24.3133  -14.6148 C   0  0  0  0  0  0  0  0  0  0  0  0
   25.5611  -23.9653  -16.0349 C   0  0  0  0  0  0  0  0  0  0  0  0
   24.7284  -24.3197  -16.9024 O   0  0  0  0  0  0  0  0  0  0  0  0
   23.5076  -21.4688  -12.9846 C   0  0  0  0  0  0  0  0  0  0  0  0
   23.2136  -21.4468  -11.7396 O   0  0  0  0  0  0  0  0  0  0  0  0
   26.6818  -23.2491  -16.4536 O   0  0  0  0  0  0  0  0  0  0  0  0
   22.7219  -20.7864  -13.9235 N   0  0  0  0  0  0  0  0  0  0  0  0
   22.8476  -20.8892  -15.3579 C   0  0  0  0  0  0  0  0  0  0  0  0
   22.3173  -19.5776  -15.8874 C   0  0  0  0  0  0  0  0  0  0  0  0
   21.9785  -18.7488  -14.6435 C   0  0  0  0  0  0  0  0  0  0  0  0
   21.6420  -19.8828  -13.6637 C   0  0  1  0  0  0  0  0  0  0  0  0
   20.3705  -20.5572  -14.1037 C   0  0  0  0  0  0  0  0  0  0  0  0
   20.3336  -21.3577  -15.0786 O   0  0  0  0  0  0  0  0  0  0  0  0
   18.7266  -25.4026   -9.2372 N   0  0  0  0  0  0  0  0  0  0  0  0
   18.0568  -24.4063   -8.4886 C   0  0  0  0  0  0  0  0  0  0  0  0
   17.8379  -24.5735   -7.2078 N   0  0  0  0  0  0  0  0  0  0  0  0
   17.6017  -23.2124   -9.0678 N   0  0  0  0  0  0  0  0  0  0  0  0
   16.7347  -23.1438  -10.2153 C   0  0  0  0  0  0  0  0  0  0  0  0
   17.4887  -23.1176  -11.4912 C   0  0  0  0  0  0  0  0  0  0  0  0
   18.2600  -21.9556  -11.9191 C   0  0  0  0  0  0  0  0  0  0  0  0
   18.1491  -21.4628  -13.3076 C   0  0  2  0  0  0  0  0  0  0  0  0
   19.1446  -20.3263  -13.4424 N   0  0  0  0  0  0  0  0  0  0  0  0
   16.8875  -20.7908  -13.6462 C   0  0  0  0  0  0  0  0  0  0  0  0
   15.9580  -21.3628  -14.2115 O   0  0  0  0  0  0  0  0  0  0  0  0
   16.6767  -19.4323  -13.3333 O   0  0  0  0  0  0  0  0  0  0  0  0
  2  1  1  1
  2  7  1  0
  2  3  1  0
  3  4  1  0
  5  9  1  0
  5  4  1  0
  6  5  2  0
  7  8  2  0
 10  7  1  0
 10 11  1  0
 12 11  1  0
 13 14  1  0
 13 12  1  0
 14 10  1  0
 15 25  1  0
 14 15  1  6
 16 15  2  0
 17 18  1  0
 18 19  2  0
 20 21  1  0
 20 18  1  0
 21 22  1  0
 23 22  1  0
 24 23  1  1
 24 25  1  0
 26 28  1  0
 26 24  1  0
 27 26  2  0
M  END
$$$$
