EPR.pdb
     RDKit          3D

 28 28  0  0  1  0  0  0  0  0999 V2000
   20.9816  -19.1072  -15.7705 N   0  0  0  0  0  0  0  0  0  0  0  0
   20.7699  -18.8887  -14.3281 C   0  0  1  0  0  0  0  0  0  0  0  0
   19.2840  -18.5479  -14.1717 C   0  0  0  0  0  0  0  0  0  0  0  0
   18.4383  -19.4223  -15.0460 C   0  0  0  0  0  0  0  0  0  0  0  0
   17.3053  -18.6292  -15.5733 C   0  0  0  0  0  0  0  0  0  0  0  0
   17.4303  -18.0159  -16.6595 O   0  0  0  0  0  0  0  0  0  0  0  0
   20.9834  -20.1413  -13.5725 C   0  0  0  0  0  0  0  0  0  0  0  0
   21.3795  -21.1518  -14.2501 O   0  0  0  0  0  0  0  0  0  0  0  0
   16.0869  -18.5349  -14.9019 O   0  0  0  0  0  0  0  0  0  0  0  0
   20.7704  -20.2382  -12.1906 N   0  0  0  0  0  0  0  0  0  0  0  0
   20.1576  -19.2275  -11.3619 C   0  0  0  0  0  0  0  0  0  0  0  0
   20.7253  -19.4625   -9.9820 C   0  0  0  0  0  0  0  0  0  0  0  0
   21.7318  -20.6060  -10.1502 C   0  0  0  0  0  0  0  0  0  0  0  0
   21.0884  -21.3415  -11.3353 C   0  0  1  0  0  0  0  0  0  0  0  0
   19.7902  -21.9590  -10.8898 C   0  0  0  0  0  0  0  0  0  0  0  0
   18.7522  -21.2719  -10.6821 O   0  0  0  0  0  0  0  0  0  0  0  0
   17.8926  -26.6578   -3.8476 N   0  0  0  0  0  0  0  0  0  0  0  0
   16.7762  -26.7309   -4.7136 C   0  0  0  0  0  0  0  0  0  0  0  0
   15.6226  -27.1686   -4.2735 N   0  0  0  0  0  0  0  0  0  0  0  0
   16.8459  -26.3460   -6.0608 N   0  0  0  0  0  0  0  0  0  0  0  0
   18.0192  -25.7981   -6.6905 C   0  0  0  0  0  0  0  0  0  0  0  0
   17.7067  -25.1155   -7.9685 C   0  0  0  0  0  0  0  0  0  0  0  0
   18.7463  -24.6180   -8.8631 C   0  0  0  0  0  0  0  0  0  0  0  0
   18.3779  -23.9013  -10.1014 C   0  0  2  0  0  0  0  0  0  0  0  0
   19.6671  -23.3497  -10.6800 N   0  0  0  0  0  0  0  0  0  0  0  0
   17.5895  -22.6757   -9.9177 C   0  0  0  0  0  0  0  0  0  0  0  0
   16.4165  -22.5779  -10.2710 O   0  0  0  0  0  0  0  0  0  0  0  0
   18.1496  -21.5305   -9.3153 O   0  0  0  0  0  0  0  0  0  0  0  0
  2  1  1  6
  2  7  1  0
  2  3  1  0
  3  4  1  0
  5  9  1  0
  5  4  1  0
  6  5  2  0
  7  8  2  0
 10  7  1  0
 10 11  1  0
 12 11  1  0
 13 14  1  0
 13 12  1  0
 14 10  1  0
 15 25  1  0
 14 15  1  1
 16 15  2  0
 17 18  1  0
 18 19  2  0
 20 21  1  0
 20 18  1  0
 21 22  1  0
 23 22  1  0
 24 23  1  1
 24 25  1  0
 26 28  1  0
 26 24  1  0
 27 26  2  0
M  END
$$$$
