EPR.pdb
     RDKit          3D

 28 28  0  0  1  0  0  0  0  0999 V2000
   24.1890  -31.1532   -8.3182 N   0  0  0  0  0  0  0  0  0  0  0  0
   24.0097  -32.4335   -7.6098 C   0  0  1  0  0  0  0  0  0  0  0  0
   24.7865  -33.4732   -8.4247 C   0  0  0  0  0  0  0  0  0  0  0  0
   26.0908  -32.9136   -8.9041 C   0  0  0  0  0  0  0  0  0  0  0  0
   26.8727  -33.9918   -9.5497 C   0  0  0  0  0  0  0  0  0  0  0  0
   26.3376  -35.1064   -9.7573 O   0  0  0  0  0  0  0  0  0  0  0  0
   24.6556  -32.3907   -6.2807 C   0  0  0  0  0  0  0  0  0  0  0  0
   25.2627  -31.3054   -5.9799 O   0  0  0  0  0  0  0  0  0  0  0  0
   28.1991  -33.8163   -9.9422 O   0  0  0  0  0  0  0  0  0  0  0  0
   24.6164  -33.4675   -5.3843 N   0  0  0  0  0  0  0  0  0  0  0  0
   24.1160  -34.7890   -5.6797 C   0  0  0  0  0  0  0  0  0  0  0  0
   23.6736  -35.3420   -4.3454 C   0  0  0  0  0  0  0  0  0  0  0  0
   23.8983  -34.2042   -3.3436 C   0  0  0  0  0  0  0  0  0  0  0  0
   25.0730  -33.4887   -4.0274 C   0  0  1  0  0  0  0  0  0  0  0  0
   26.2908  -34.3712   -3.9724 C   0  0  0  0  0  0  0  0  0  0  0  0
   26.4197  -35.3901   -4.7058 O   0  0  0  0  0  0  0  0  0  0  0  0
   35.1256  -33.5111   -3.1710 N   0  0  0  0  0  0  0  0  0  0  0  0
   34.6791  -34.8335   -2.9401 C   0  0  0  0  0  0  0  0  0  0  0  0
   35.5024  -35.8441   -3.0706 N   0  0  0  0  0  0  0  0  0  0  0  0
   33.3584  -35.1247   -2.5672 N   0  0  0  0  0  0  0  0  0  0  0  0
   32.2190  -34.3136   -2.9094 C   0  0  0  0  0  0  0  0  0  0  0  0
   30.9816  -34.7632   -2.2285 C   0  0  0  0  0  0  0  0  0  0  0  0
   29.6817  -34.1540   -2.4880 C   0  0  0  0  0  0  0  0  0  0  0  0
   28.6342  -34.9167   -3.1980 C   0  0  2  0  0  0  0  0  0  0  0  0
   27.3595  -34.1016   -3.0901 N   0  0  0  0  0  0  0  0  0  0  0  0
   28.2295  -36.1808   -2.5689 C   0  0  0  0  0  0  0  0  0  0  0  0
   27.3335  -36.2518   -1.7306 O   0  0  0  0  0  0  0  0  0  0  0  0
   28.8600  -37.3971   -2.9021 O   0  0  0  0  0  0  0  0  0  0  0  0
  2  1  1  6
  2  7  1  0
  2  3  1  0
  3  4  1  0
  5  9  1  0
  5  4  1  0
  6  5  2  0
  7  8  2  0
 10  7  1  0
 10 11  1  0
 12 11  1  0
 13 14  1  0
 13 12  1  0
 14 10  1  0
 15 25  1  0
 14 15  1  6
 16 15  2  0
 17 18  1  0
 18 19  2  0
 20 21  1  0
 20 18  1  0
 21 22  1  0
 23 22  1  0
 24 23  1  1
 24 25  1  0
 26 28  1  0
 26 24  1  0
 27 26  2  0
M  END
$$$$
