EPR.pdb
     RDKit          3D

 28 28  0  0  1  0  0  0  0  0999 V2000
   23.5225  -21.9734  -16.0184 N   0  0  0  0  0  0  0  0  0  0  0  0
   22.1848  -21.5101  -15.6070 C   0  0  1  0  0  0  0  0  0  0  0  0
   21.1942  -22.5188  -16.1982 C   0  0  0  0  0  0  0  0  0  0  0  0
   21.3111  -22.5739  -17.6907 C   0  0  0  0  0  0  0  0  0  0  0  0
   20.3936  -23.6124  -18.2107 C   0  0  0  0  0  0  0  0  0  0  0  0
   20.6435  -24.8225  -17.9992 O   0  0  0  0  0  0  0  0  0  0  0  0
   22.0295  -21.5972  -14.1395 C   0  0  0  0  0  0  0  0  0  0  0  0
   22.9343  -22.2481  -13.5111 O   0  0  0  0  0  0  0  0  0  0  0  0
   19.2461  -23.2955  -18.9366 O   0  0  0  0  0  0  0  0  0  0  0  0
   20.9589  -21.0064  -13.4545 N   0  0  0  0  0  0  0  0  0  0  0  0
   19.7863  -20.4282  -14.0665 C   0  0  0  0  0  0  0  0  0  0  0  0
   19.3000  -19.3986  -13.0740 C   0  0  0  0  0  0  0  0  0  0  0  0
   20.3306  -19.4146  -11.9398 C   0  0  0  0  0  0  0  0  0  0  0  0
   20.7972  -20.8748  -12.0380 C   0  0  1  0  0  0  0  0  0  0  0  0
   19.6716  -21.7838  -11.6235 C   0  0  0  0  0  0  0  0  0  0  0  0
   18.8256  -22.2292  -12.4473 O   0  0  0  0  0  0  0  0  0  0  0  0
   18.6944  -26.9541   -4.1253 N   0  0  0  0  0  0  0  0  0  0  0  0
   17.6175  -27.1380   -5.0242 C   0  0  0  0  0  0  0  0  0  0  0  0
   16.6678  -27.9992   -4.7547 N   0  0  0  0  0  0  0  0  0  0  0  0
   17.5135  -26.4221   -6.2262 N   0  0  0  0  0  0  0  0  0  0  0  0
   18.4004  -25.3577   -6.6183 C   0  0  0  0  0  0  0  0  0  0  0  0
   18.1395  -24.8858   -7.9989 C   0  0  0  0  0  0  0  0  0  0  0  0
   18.8897  -23.7913   -8.6053 C   0  0  0  0  0  0  0  0  0  0  0  0
   18.5424  -23.3161   -9.9604 C   0  0  2  0  0  0  0  0  0  0  0  0
   19.5039  -22.1875  -10.2811 N   0  0  0  0  0  0  0  0  0  0  0  0
   17.2438  -22.6410  -10.0855 C   0  0  0  0  0  0  0  0  0  0  0  0
   17.1003  -21.4331   -9.9096 O   0  0  0  0  0  0  0  0  0  0  0  0
   16.0770  -23.3583  -10.4203 O   0  0  0  0  0  0  0  0  0  0  0  0
  2  1  1  1
  2  7  1  0
  2  3  1  0
  3  4  1  0
  5  9  1  0
  5  4  1  0
  6  5  2  0
  7  8  2  0
 10  7  1  0
 10 11  1  0
 12 11  1  0
 13 14  1  0
 13 12  1  0
 14 10  1  0
 15 25  1  0
 14 15  1  6
 16 15  2  0
 17 18  1  0
 18 19  2  0
 20 21  1  0
 20 18  1  0
 21 22  1  0
 23 22  1  0
 24 23  1  1
 24 25  1  0
 26 28  1  0
 26 24  1  0
 27 26  2  0
M  END
$$$$
