EPR.pdb
     RDKit          3D

 28 28  0  0  1  0  0  0  0  0999 V2000
   24.1576  -17.3584  -19.3221 N   0  0  0  0  0  0  0  0  0  0  0  0
   24.9207  -17.0396  -18.1017 C   0  0  1  0  0  0  0  0  0  0  0  0
   24.0049  -16.1453  -17.2591 C   0  0  0  0  0  0  0  0  0  0  0  0
   22.6259  -16.7235  -17.1685 C   0  0  0  0  0  0  0  0  0  0  0  0
   22.1504  -16.6260  -15.7702 C   0  0  0  0  0  0  0  0  0  0  0  0
   21.8232  -17.6668  -15.1528 O   0  0  0  0  0  0  0  0  0  0  0  0
   25.1540  -18.2580  -17.2976 C   0  0  0  0  0  0  0  0  0  0  0  0
   24.4994  -19.3009  -17.6452 O   0  0  0  0  0  0  0  0  0  0  0  0
   22.0501  -15.4064  -15.1018 O   0  0  0  0  0  0  0  0  0  0  0  0
   26.0393  -18.2909  -16.2115 N   0  0  0  0  0  0  0  0  0  0  0  0
   26.5910  -17.1372  -15.5417 C   0  0  0  0  0  0  0  0  0  0  0  0
   27.8975  -17.6183  -14.9559 C   0  0  0  0  0  0  0  0  0  0  0  0
   28.0377  -19.0711  -15.4234 C   0  0  0  0  0  0  0  0  0  0  0  0
   26.5529  -19.4470  -15.5407 C   0  0  1  0  0  0  0  0  0  0  0  0
   25.9407  -19.4834  -14.1664 C   0  0  0  0  0  0  0  0  0  0  0  0
   25.6007  -18.4354  -13.5510 O   0  0  0  0  0  0  0  0  0  0  0  0
   19.1728  -21.1554  -11.8468 N   0  0  0  0  0  0  0  0  0  0  0  0
   19.3166  -21.1884  -13.2539 C   0  0  0  0  0  0  0  0  0  0  0  0
   18.4018  -20.6577  -14.0269 N   0  0  0  0  0  0  0  0  0  0  0  0
   20.4239  -21.7792  -13.8808 N   0  0  0  0  0  0  0  0  0  0  0  0
   21.5476  -22.3462  -13.1817 C   0  0  0  0  0  0  0  0  0  0  0  0
   22.6039  -21.3440  -12.9048 C   0  0  0  0  0  0  0  0  0  0  0  0
   23.8841  -21.7036  -12.3046 C   0  0  0  0  0  0  0  0  0  0  0  0
   24.9535  -20.6921  -12.1781 C   0  0  2  0  0  0  0  0  0  0  0  0
   25.7139  -20.7021  -13.4906 N   0  0  0  0  0  0  0  0  0  0  0  0
   26.0193  -21.0084  -11.2180 C   0  0  0  0  0  0  0  0  0  0  0  0
   27.0899  -21.5115  -11.5517 O   0  0  0  0  0  0  0  0  0  0  0  0
   25.8641  -20.7450   -9.8416 O   0  0  0  0  0  0  0  0  0  0  0  0
  2  1  1  6
  2  7  1  0
  2  3  1  0
  3  4  1  0
  5  9  1  0
  5  4  1  0
  6  5  2  0
  7  8  2  0
 10  7  1  0
 10 11  1  0
 12 11  1  0
 13 14  1  0
 13 12  1  0
 14 10  1  0
 15 25  1  0
 14 15  1  1
 16 15  2  0
 17 18  1  0
 18 19  2  0
 20 21  1  0
 20 18  1  0
 21 22  1  0
 23 22  1  0
 24 23  1  6
 24 25  1  0
 26 28  1  0
 26 24  1  0
 27 26  2  0
M  END
$$$$
