EPR.pdb
     RDKit          3D

 28 28  0  0  1  0  0  0  0  0999 V2000
   27.6115  -24.3883  -16.3875 N   0  0  0  0  0  0  0  0  0  0  0  0
   27.5060  -22.9185  -16.4276 C   0  0  1  0  0  0  0  0  0  0  0  0
   26.8922  -22.5815  -17.7907 C   0  0  0  0  0  0  0  0  0  0  0  0
   25.6173  -23.3381  -18.0067 C   0  0  0  0  0  0  0  0  0  0  0  0
   25.0827  -23.0138  -19.3482 C   0  0  0  0  0  0  0  0  0  0  0  0
   24.1023  -22.2397  -19.4543 O   0  0  0  0  0  0  0  0  0  0  0  0
   26.5428  -22.4355  -15.4154 C   0  0  0  0  0  0  0  0  0  0  0  0
   25.9723  -23.3317  -14.7024 O   0  0  0  0  0  0  0  0  0  0  0  0
   25.6326  -23.5415  -20.5158 O   0  0  0  0  0  0  0  0  0  0  0  0
   26.2566  -21.0760  -15.2299 N   0  0  0  0  0  0  0  0  0  0  0  0
   26.5956  -20.0133  -16.1462 C   0  0  0  0  0  0  0  0  0  0  0  0
   26.7020  -18.7781  -15.2833 C   0  0  0  0  0  0  0  0  0  0  0  0
   26.4761  -19.2684  -13.8489 C   0  0  0  0  0  0  0  0  0  0  0  0
   25.5658  -20.4732  -14.1302 C   0  0  1  0  0  0  0  0  0  0  0  0
   24.2383  -19.9827  -14.6423 C   0  0  0  0  0  0  0  0  0  0  0  0
   24.0427  -19.7122  -15.8594 O   0  0  0  0  0  0  0  0  0  0  0  0
   18.8556  -25.0077  -10.6713 N   0  0  0  0  0  0  0  0  0  0  0  0
   19.0391  -23.7258  -10.1016 C   0  0  0  0  0  0  0  0  0  0  0  0
   18.9201  -23.5510   -8.8087 N   0  0  0  0  0  0  0  0  0  0  0  0
   19.3516  -22.5987  -10.8763 N   0  0  0  0  0  0  0  0  0  0  0  0
   19.4306  -22.5965  -12.3140 C   0  0  0  0  0  0  0  0  0  0  0  0
   19.7659  -21.2593  -12.8585 C   0  0  0  0  0  0  0  0  0  0  0  0
   21.1274  -20.7351  -12.8594 C   0  0  0  0  0  0  0  0  0  0  0  0
   21.8018  -20.4263  -14.1372 C   0  0  2  0  0  0  0  0  0  0  0  0
   23.1358  -19.7988  -13.7799 N   0  0  0  0  0  0  0  0  0  0  0  0
   21.1839  -19.3653  -14.9436 C   0  0  0  0  0  0  0  0  0  0  0  0
   20.3064  -19.5852  -15.7755 O   0  0  0  0  0  0  0  0  0  0  0  0
   21.5736  -18.0179  -14.7998 O   0  0  0  0  0  0  0  0  0  0  0  0
  2  1  1  6
  2  7  1  0
  2  3  1  0
  3  4  1  0
  5  9  1  0
  5  4  1  0
  6  5  2  0
  7  8  2  0
 10  7  1  0
 10 11  1  0
 12 11  1  0
 13 14  1  0
 13 12  1  0
 14 10  1  0
 15 25  1  0
 14 15  1  6
 16 15  2  0
 17 18  1  0
 18 19  2  0
 20 21  1  0
 20 18  1  0
 21 22  1  0
 23 22  1  0
 24 23  1  1
 24 25  1  0
 26 28  1  0
 26 24  1  0
 27 26  2  0
M  END
$$$$
