EPR.pdb
     RDKit          3D

 28 28  0  0  1  0  0  0  0  0999 V2000
   27.2619  -23.5776  -16.4110 N   0  0  0  0  0  0  0  0  0  0  0  0
   26.5611  -22.3001  -16.6347 C   0  0  1  0  0  0  0  0  0  0  0  0
   25.4238  -22.6141  -17.6127 C   0  0  0  0  0  0  0  0  0  0  0  0
   25.4353  -21.6646  -18.7714 C   0  0  0  0  0  0  0  0  0  0  0  0
   26.4504  -22.1095  -19.7524 C   0  0  0  0  0  0  0  0  0  0  0  0
   27.3797  -21.3336  -20.0778 O   0  0  0  0  0  0  0  0  0  0  0  0
   25.9128  -21.8343  -15.3905 C   0  0  0  0  0  0  0  0  0  0  0  0
   25.9228  -22.6511  -14.4057 O   0  0  0  0  0  0  0  0  0  0  0  0
   26.4150  -23.3744  -20.3380 O   0  0  0  0  0  0  0  0  0  0  0  0
   25.3153  -20.5718  -15.2742 N   0  0  0  0  0  0  0  0  0  0  0  0
   25.1456  -19.6204  -16.3467 C   0  0  0  0  0  0  0  0  0  0  0  0
   25.0970  -18.2736  -15.6646 C   0  0  0  0  0  0  0  0  0  0  0  0
   25.3296  -18.5663  -14.1783 C   0  0  0  0  0  0  0  0  0  0  0  0
   24.7423  -19.9836  -14.1013 C   0  0  1  0  0  0  0  0  0  0  0  0
   23.2533  -19.9152  -14.3092 C   0  0  0  0  0  0  0  0  0  0  0  0
   22.7357  -19.8202  -15.4562 O   0  0  0  0  0  0  0  0  0  0  0  0
   18.2471  -23.8254   -7.8465 N   0  0  0  0  0  0  0  0  0  0  0  0
   17.7779  -24.1777   -9.1339 C   0  0  0  0  0  0  0  0  0  0  0  0
   16.7613  -24.9928   -9.2695 N   0  0  0  0  0  0  0  0  0  0  0  0
   18.3653  -23.6823  -10.3076 N   0  0  0  0  0  0  0  0  0  0  0  0
   19.5586  -22.8773  -10.3427 C   0  0  0  0  0  0  0  0  0  0  0  0
   19.8209  -22.3159  -11.6892 C   0  0  0  0  0  0  0  0  0  0  0  0
   20.9726  -21.4657  -11.9703 C   0  0  0  0  0  0  0  0  0  0  0  0
   21.1307  -20.8489  -13.3035 C   0  0  2  0  0  0  0  0  0  0  0  0
   22.3530  -19.9542  -13.2224 N   0  0  0  0  0  0  0  0  0  0  0  0
   20.0880  -19.8887  -13.6890 C   0  0  0  0  0  0  0  0  0  0  0  0
   19.0969  -20.2069  -14.3425 O   0  0  0  0  0  0  0  0  0  0  0  0
   20.1740  -18.5303  -13.3209 O   0  0  0  0  0  0  0  0  0  0  0  0
  2  1  1  1
  2  7  1  0
  2  3  1  0
  3  4  1  0
  5  9  1  0
  5  4  1  0
  6  5  2  0
  7  8  2  0
 10  7  1  0
 10 11  1  0
 12 11  1  0
 13 14  1  0
 13 12  1  0
 14 10  1  0
 15 25  1  0
 14 15  1  6
 16 15  2  0
 17 18  1  0
 18 19  2  0
 20 21  1  0
 20 18  1  0
 21 22  1  0
 23 22  1  0
 24 23  1  1
 24 25  1  0
 26 28  1  0
 26 24  1  0
 27 26  2  0
M  END
$$$$
