EPR.pdb
     RDKit          3D

 28 28  0  0  1  0  0  0  0  0999 V2000
   25.5583  -19.3373  -18.6995 N   0  0  0  0  0  0  0  0  0  0  0  0
   25.9923  -18.7754  -17.4075 C   0  0  1  0  0  0  0  0  0  0  0  0
   24.9924  -17.6612  -17.0805 C   0  0  0  0  0  0  0  0  0  0  0  0
   25.6266  -16.3117  -17.2253 C   0  0  0  0  0  0  0  0  0  0  0  0
   24.6498  -15.3799  -17.8321 C   0  0  0  0  0  0  0  0  0  0  0  0
   23.6965  -14.9460  -17.1432 O   0  0  0  0  0  0  0  0  0  0  0  0
   25.8550  -19.7770  -16.3289 C   0  0  0  0  0  0  0  0  0  0  0  0
   24.9398  -20.6572  -16.4857 O   0  0  0  0  0  0  0  0  0  0  0  0
   24.7478  -14.9585  -19.1577 O   0  0  0  0  0  0  0  0  0  0  0  0
   26.6719  -19.7808  -15.1901 N   0  0  0  0  0  0  0  0  0  0  0  0
   27.6515  -18.7748  -14.8552 C   0  0  0  0  0  0  0  0  0  0  0  0
   28.6657  -19.4934  -13.9969 C   0  0  0  0  0  0  0  0  0  0  0  0
   28.2034  -20.9542  -13.9652 C   0  0  0  0  0  0  0  0  0  0  0  0
   26.6908  -20.7481  -14.1346 C   0  0  1  0  0  0  0  0  0  0  0  0
   26.1397  -20.0846  -12.9013 C   0  0  0  0  0  0  0  0  0  0  0  0
   26.5229  -18.9443  -12.5199 O   0  0  0  0  0  0  0  0  0  0  0  0
   18.6330  -21.4701  -13.5475 N   0  0  0  0  0  0  0  0  0  0  0  0
   19.5413  -22.4820  -13.1567 C   0  0  0  0  0  0  0  0  0  0  0  0
   19.3854  -23.7125  -13.5783 N   0  0  0  0  0  0  0  0  0  0  0  0
   20.6335  -22.2248  -12.3147 N   0  0  0  0  0  0  0  0  0  0  0  0
   21.0452  -20.9104  -11.8952 C   0  0  0  0  0  0  0  0  0  0  0  0
   22.3032  -20.9365  -11.1118 C   0  0  0  0  0  0  0  0  0  0  0  0
   23.2072  -19.7933  -11.0471 C   0  0  0  0  0  0  0  0  0  0  0  0
   24.6569  -20.0047  -10.8558 C   0  0  2  0  0  0  0  0  0  0  0  0
   25.1579  -20.7096  -12.1020 N   0  0  0  0  0  0  0  0  0  0  0  0
   25.0280  -20.9629   -9.8062 C   0  0  0  0  0  0  0  0  0  0  0  0
   25.3720  -22.1177  -10.0487 O   0  0  0  0  0  0  0  0  0  0  0  0
   25.0083  -20.5984   -8.4443 O   0  0  0  0  0  0  0  0  0  0  0  0
  2  1  1  6
  2  7  1  0
  2  3  1  0
  3  4  1  0
  5  9  1  0
  5  4  1  0
  6  5  2  0
  7  8  2  0
 10  7  1  0
 10 11  1  0
 12 11  1  0
 13 14  1  0
 13 12  1  0
 14 10  1  0
 15 25  1  0
 14 15  1  1
 16 15  2  0
 17 18  1  0
 18 19  2  0
 20 21  1  0
 20 18  1  0
 21 22  1  0
 23 22  1  0
 24 23  1  6
 24 25  1  0
 26 28  1  0
 26 24  1  0
 27 26  2  0
M  END
$$$$
