EPR.pdb
     RDKit          3D

 28 28  0  0  1  0  0  0  0  0999 V2000
   29.8104  -24.5364  -18.0722 N   0  0  0  0  0  0  0  0  0  0  0  0
   28.7811  -23.5166  -18.3432 C   0  0  1  0  0  0  0  0  0  0  0  0
   27.4405  -24.2584  -18.3115 C   0  0  0  0  0  0  0  0  0  0  0  0
   26.9146  -24.4752  -19.6974 C   0  0  0  0  0  0  0  0  0  0  0  0
   26.0019  -23.3641  -20.0486 C   0  0  0  0  0  0  0  0  0  0  0  0
   25.0607  -23.0672  -19.2757 O   0  0  0  0  0  0  0  0  0  0  0  0
   28.7254  -22.5256  -17.2475 C   0  0  0  0  0  0  0  0  0  0  0  0
   29.2547  -22.8776  -16.1371 O   0  0  0  0  0  0  0  0  0  0  0  0
   26.1482  -22.6234  -21.2209 O   0  0  0  0  0  0  0  0  0  0  0  0
   28.1315  -21.2648  -17.3958 N   0  0  0  0  0  0  0  0  0  0  0  0
   27.3551  -20.8300  -18.5325 C   0  0  0  0  0  0  0  0  0  0  0  0
   27.5049  -19.3271  -18.5510 C   0  0  0  0  0  0  0  0  0  0  0  0
   28.4690  -19.0045  -17.4041 C   0  0  0  0  0  0  0  0  0  0  0  0
   28.1513  -20.1774  -16.4646 C   0  0  1  0  0  0  0  0  0  0  0  0
   26.7555  -20.0165  -15.9253 C   0  0  0  0  0  0  0  0  0  0  0  0
   25.7310  -20.2587  -16.6213 O   0  0  0  0  0  0  0  0  0  0  0  0
   24.4159  -20.5690   -7.8644 N   0  0  0  0  0  0  0  0  0  0  0  0
   23.1945  -20.8556   -8.5184 C   0  0  0  0  0  0  0  0  0  0  0  0
   22.0557  -20.7257   -7.8840 N   0  0  0  0  0  0  0  0  0  0  0  0
   23.1413  -21.2851   -9.8528 N   0  0  0  0  0  0  0  0  0  0  0  0
   24.2827  -21.3683  -10.7266 C   0  0  0  0  0  0  0  0  0  0  0  0
   24.5585  -20.0865  -11.4180 C   0  0  0  0  0  0  0  0  0  0  0  0
   25.6215  -19.9454  -12.4072 C   0  0  0  0  0  0  0  0  0  0  0  0
   25.3276  -20.1333  -13.8429 C   0  0  2  0  0  0  0  0  0  0  0  0
   26.5197  -19.5830  -14.6025 N   0  0  0  0  0  0  0  0  0  0  0  0
   24.2325  -19.3158  -14.3813 C   0  0  0  0  0  0  0  0  0  0  0  0
   24.3848  -18.1506  -14.7417 O   0  0  0  0  0  0  0  0  0  0  0  0
   22.9292  -19.8370  -14.5144 O   0  0  0  0  0  0  0  0  0  0  0  0
  2  1  1  1
  2  7  1  0
  2  3  1  0
  3  4  1  0
  5  9  1  0
  5  4  1  0
  6  5  2  0
  7  8  2  0
 10  7  1  0
 10 11  1  0
 12 11  1  0
 13 14  1  0
 13 12  1  0
 14 10  1  0
 15 25  1  0
 14 15  1  6
 16 15  2  0
 17 18  1  0
 18 19  2  0
 20 21  1  0
 20 18  1  0
 21 22  1  0
 23 22  1  0
 24 23  1  1
 24 25  1  0
 26 28  1  0
 26 24  1  0
 27 26  2  0
M  END
$$$$
