EAP.pdb
     RDKit          3D

 22 22  0  0  1  0  0  0  0  0999 V2000
    8.6015  -17.6862   20.6699 N   0  0  0  0  0  0  0  0  0  0  0  0
    8.6463  -16.2514   20.5607 C   0  0  1  0  0  0  0  0  0  0  0  0
    7.9898  -15.8671   19.2771 C   0  0  0  0  0  0  0  0  0  0  0  0
    7.5949  -17.1094   18.5219 C   0  0  0  0  0  0  0  0  0  0  0  0
    8.5661  -17.3338   17.4363 C   0  0  0  0  0  0  0  0  0  0  0  0
    8.1649  -17.4515   16.2489 O   0  0  0  0  0  0  0  0  0  0  0  0
    7.9753  -15.6428   21.7290 C   0  0  0  0  0  0  0  0  0  0  0  0
    7.6232  -14.4384   21.7713 O   0  0  0  0  0  0  0  0  0  0  0  0
    9.9387  -17.4227   17.6775 O   0  0  0  0  0  0  0  0  0  0  0  0
    6.3783  -16.9255   24.8152 C   0  0  0  0  0  0  0  0  0  0  0  0
    7.1250  -15.8721   24.0574 C   0  0  2  0  0  0  0  0  0  0  0  0
    7.7071  -16.4389   22.8660 N   0  0  0  0  0  0  0  0  0  0  0  0
    8.1410  -15.1706   24.8832 C   0  0  0  0  0  0  0  0  0  0  0  0
    9.3460  -15.4369   24.6621 O   0  0  0  0  0  0  0  0  0  0  0  0
    7.8112  -14.2360   25.8855 N   0  0  0  0  0  0  0  0  0  0  0  0
    6.4895  -13.8719   26.3064 C   0  0  0  0  0  0  0  0  0  0  0  0
    6.6180  -12.5972   27.1116 C   0  0  0  0  0  0  0  0  0  0  0  0
    8.0302  -12.1331   26.7988 C   0  0  0  0  0  0  0  0  0  0  0  0
    8.7454  -13.4760   26.6697 C   0  0  1  0  0  0  0  0  0  0  0  0
    9.0027  -14.0873   27.9977 C   0  0  0  0  0  0  0  0  0  0  0  0
    8.3022  -15.0064   28.4876 O   0  0  0  0  0  0  0  0  0  0  0  0
   10.0697  -13.6395   28.7644 O   0  0  0  0  0  0  0  0  0  0  0  0
  2  1  1  1
  2  7  1  0
  3  2  1  0
  4  3  1  0
  5  4  1  0
  6  5  2  0
  7 12  1  0
  8  7  2  0
  9  5  1  0
 11 10  1  1
 11 13  1  0
 12 11  1  0
 13 14  2  0
 13 15  1  0
 15 16  1  0
 16 17  1  0
 18 17  1  0
 19 15  1  0
 19 18  1  0
 19 20  1  1
 21 20  2  0
 22 20  1  0
M  END
$$$$
