EAP.pdb
     RDKit          3D

 22 22  0  0  1  0  0  0  0  0999 V2000
    9.4129  -15.7644   20.2740 N   0  0  0  0  0  0  0  0  0  0  0  0
    8.0150  -15.5639   19.9945 C   0  0  1  0  0  0  0  0  0  0  0  0
    7.5415  -16.7133   19.1692 C   0  0  0  0  0  0  0  0  0  0  0  0
    8.1116  -17.9954   19.7174 C   0  0  0  0  0  0  0  0  0  0  0  0
    7.6908  -19.1108   18.8508 C   0  0  0  0  0  0  0  0  0  0  0  0
    8.5454  -19.7297   18.1642 O   0  0  0  0  0  0  0  0  0  0  0  0
    7.2657  -15.4488   21.2637 C   0  0  0  0  0  0  0  0  0  0  0  0
    6.0122  -15.4130   21.3232 O   0  0  0  0  0  0  0  0  0  0  0  0
    6.3573  -19.5153   18.7598 O   0  0  0  0  0  0  0  0  0  0  0  0
    6.7236  -16.6290   24.1130 C   0  0  0  0  0  0  0  0  0  0  0  0
    7.2891  -15.2917   23.7480 C   0  0  2  0  0  0  0  0  0  0  0  0
    7.9768  -15.3740   22.4833 N   0  0  0  0  0  0  0  0  0  0  0  0
    8.1575  -14.7177   24.8076 C   0  0  0  0  0  0  0  0  0  0  0  0
    9.3904  -14.9270   24.7173 O   0  0  0  0  0  0  0  0  0  0  0  0
    7.6609  -13.9623   25.8891 N   0  0  0  0  0  0  0  0  0  0  0  0
    6.2806  -13.7523   26.2165 C   0  0  0  0  0  0  0  0  0  0  0  0
    6.2297  -12.6018   27.1981 C   0  0  0  0  0  0  0  0  0  0  0  0
    7.6227  -12.0037   27.1003 C   0  0  0  0  0  0  0  0  0  0  0  0
    8.4532  -13.2628   26.8630 C   0  0  1  0  0  0  0  0  0  0  0  0
    8.6342  -14.0413   28.1139 C   0  0  0  0  0  0  0  0  0  0  0  0
    7.9745  -15.0719   28.3931 O   0  0  0  0  0  0  0  0  0  0  0  0
    9.5776  -13.6323   29.0465 O   0  0  0  0  0  0  0  0  0  0  0  0
  2  1  1  1
  2  7  1  0
  3  2  1  0
  4  3  1  0
  5  4  1  0
  6  5  2  0
  7 12  1  0
  8  7  2  0
  9  5  1  0
 11 10  1  1
 11 13  1  0
 12 11  1  0
 13 14  2  0
 13 15  1  0
 15 16  1  0
 16 17  1  0
 18 17  1  0
 19 15  1  0
 19 18  1  0
 19 20  1  1
 21 20  2  0
 22 20  1  0
M  END
$$$$
