EAP.pdb
     RDKit          3D

 22 22  0  0  1  0  0  0  0  0999 V2000
    7.6718  -15.1771   20.2784 N   0  0  0  0  0  0  0  0  0  0  0  0
    7.8315  -16.0959   21.3751 C   0  0  1  0  0  0  0  0  0  0  0  0
    8.9346  -17.0388   21.0283 C   0  0  0  0  0  0  0  0  0  0  0  0
    9.8754  -16.3770   20.0553 C   0  0  0  0  0  0  0  0  0  0  0  0
   10.9938  -17.2956   19.7769 C   0  0  0  0  0  0  0  0  0  0  0  0
   11.1195  -18.3536   20.4476 O   0  0  0  0  0  0  0  0  0  0  0  0
    8.1162  -15.3442   22.6159 C   0  0  0  0  0  0  0  0  0  0  0  0
    9.1697  -14.6856   22.7963 O   0  0  0  0  0  0  0  0  0  0  0  0
   11.9364  -17.0338   18.7805 O   0  0  0  0  0  0  0  0  0  0  0  0
    6.1917  -14.6947   25.7653 C   0  0  0  0  0  0  0  0  0  0  0  0
    7.4188  -14.6686   24.9081 C   0  0  2  0  0  0  0  0  0  0  0  0
    7.1681  -15.3542   23.6645 N   0  0  0  0  0  0  0  0  0  0  0  0
    8.6213  -15.2041   25.5962 C   0  0  0  0  0  0  0  0  0  0  0  0
    9.1725  -16.2110   25.0918 O   0  0  0  0  0  0  0  0  0  0  0  0
    9.1570  -14.6369   26.7701 N   0  0  0  0  0  0  0  0  0  0  0  0
    8.6371  -13.5053   27.4812 C   0  0  0  0  0  0  0  0  0  0  0  0
    9.7227  -13.0420   28.4282 C   0  0  0  0  0  0  0  0  0  0  0  0
   10.9535  -13.7787   27.9281 C   0  0  0  0  0  0  0  0  0  0  0  0
   10.3270  -15.0933   27.4689 C   0  0  1  0  0  0  0  0  0  0  0  0
    9.9960  -15.9714   28.6190 C   0  0  0  0  0  0  0  0  0  0  0  0
    8.8250  -16.1810   29.0195 O   0  0  0  0  0  0  0  0  0  0  0  0
   11.0160  -16.6104   29.3106 O   0  0  0  0  0  0  0  0  0  0  0  0
  2  1  1  6
  2  7  1  0
  3  2  1  0
  4  3  1  0
  5  4  1  0
  6  5  2  0
  7 12  1  0
  8  7  2  0
  9  5  1  0
 11 10  1  1
 11 13  1  0
 12 11  1  0
 13 14  2  0
 13 15  1  0
 15 16  1  0
 16 17  1  0
 18 17  1  0
 19 15  1  0
 19 18  1  0
 19 20  1  1
 21 20  2  0
 22 20  1  0
M  END
$$$$
