EAP.pdb
     RDKit          3D

 22 22  0  0  1  0  0  0  0  0999 V2000
    9.8408  -16.4529   19.9006 N   0  0  0  0  0  0  0  0  0  0  0  0
    9.4651  -17.2086   21.0669 C   0  0  1  0  0  0  0  0  0  0  0  0
   10.7012  -17.8195   21.6371 C   0  0  0  0  0  0  0  0  0  0  0  0
   11.9134  -17.1499   21.0440 C   0  0  0  0  0  0  0  0  0  0  0  0
   13.1238  -17.7807   21.5999 C   0  0  0  0  0  0  0  0  0  0  0  0
   13.0180  -18.6839   22.4706 O   0  0  0  0  0  0  0  0  0  0  0  0
    8.7884  -16.3217   22.0371 C   0  0  0  0  0  0  0  0  0  0  0  0
    9.0080  -15.0879   22.1125 O   0  0  0  0  0  0  0  0  0  0  0  0
   14.4065  -17.4093   21.1915 O   0  0  0  0  0  0  0  0  0  0  0  0
    6.1434  -16.8519   24.6406 C   0  0  0  0  0  0  0  0  0  0  0  0
    7.1820  -16.0504   23.9193 C   0  0  2  0  0  0  0  0  0  0  0  0
    7.8432  -16.8698   22.9341 N   0  0  0  0  0  0  0  0  0  0  0  0
    8.1553  -15.4006   24.8341 C   0  0  0  0  0  0  0  0  0  0  0  0
    9.3496  -15.7758   24.7643 O   0  0  0  0  0  0  0  0  0  0  0  0
    7.7973  -14.3991   25.7590 N   0  0  0  0  0  0  0  0  0  0  0  0
    6.4697  -13.9319   26.0345 C   0  0  0  0  0  0  0  0  0  0  0  0
    6.6084  -12.6300   26.7931 C   0  0  0  0  0  0  0  0  0  0  0  0
    8.0718  -12.2721   26.5986 C   0  0  0  0  0  0  0  0  0  0  0  0
    8.7033  -13.6623   26.5966 C   0  0  1  0  0  0  0  0  0  0  0  0
    8.7933  -14.2230   27.9681 C   0  0  0  0  0  0  0  0  0  0  0  0
    9.6448  -13.8570   28.8145 O   0  0  0  0  0  0  0  0  0  0  0  0
    7.9003  -15.2082   28.3668 O   0  0  0  0  0  0  0  0  0  0  0  0
  2  1  1  6
  2  7  1  0
  3  2  1  0
  4  3  1  0
  5  4  1  0
  6  5  2  0
  7 12  1  0
  8  7  2  0
  9  5  1  0
 11 10  1  1
 11 13  1  0
 12 11  1  0
 13 14  2  0
 13 15  1  0
 15 16  1  0
 16 17  1  0
 18 17  1  0
 19 15  1  0
 19 18  1  0
 19 20  1  1
 21 20  2  0
 22 20  1  0
M  END
$$$$
