EAP.pdb
     RDKit          3D

 22 22  0  0  1  0  0  0  0  0999 V2000
   10.9472  -16.9510   20.1454 N   0  0  0  0  0  0  0  0  0  0  0  0
   10.4760  -17.2459   21.4734 C   0  0  1  0  0  0  0  0  0  0  0  0
   11.6503  -17.6555   22.2977 C   0  0  0  0  0  0  0  0  0  0  0  0
   12.6373  -18.3972   21.4344 C   0  0  0  0  0  0  0  0  0  0  0  0
   13.8567  -17.5806   21.2987 C   0  0  0  0  0  0  0  0  0  0  0  0
   13.8547  -16.3807   21.6795 O   0  0  0  0  0  0  0  0  0  0  0  0
    9.7938  -16.0600   22.0336 C   0  0  0  0  0  0  0  0  0  0  0  0
   10.3753  -14.9685   22.2496 O   0  0  0  0  0  0  0  0  0  0  0  0
   15.0354  -18.0949   20.7544 O   0  0  0  0  0  0  0  0  0  0  0  0
    6.2479  -15.2579   22.9146 C   0  0  0  0  0  0  0  0  0  0  0  0
    7.7270  -15.0314   22.9648 C   0  0  2  0  0  0  0  0  0  0  0  0
    8.4179  -16.1371   22.3489 N   0  0  0  0  0  0  0  0  0  0  0  0
    8.2294  -14.7674   24.3375 C   0  0  0  0  0  0  0  0  0  0  0  0
    9.2211  -15.4298   24.7246 O   0  0  0  0  0  0  0  0  0  0  0  0
    7.6477  -13.8209   25.2049 N   0  0  0  0  0  0  0  0  0  0  0  0
    6.4678  -13.0467   24.9500 C   0  0  0  0  0  0  0  0  0  0  0  0
    6.4448  -11.9284   25.9691 C   0  0  0  0  0  0  0  0  0  0  0  0
    7.8491  -11.9604   26.5475 C   0  0  0  0  0  0  0  0  0  0  0  0
    8.1354  -13.4597   26.5076 C   0  0  1  0  0  0  0  0  0  0  0  0
    7.4308  -14.1792   27.5982 C   0  0  0  0  0  0  0  0  0  0  0  0
    6.3322  -14.7672   27.4470 O   0  0  0  0  0  0  0  0  0  0  0  0
    7.9925  -14.2223   28.8669 O   0  0  0  0  0  0  0  0  0  0  0  0
  2  1  1  6
  2  7  1  0
  3  2  1  0
  4  3  1  0
  5  4  1  0
  6  5  2  0
  7 12  1  0
  8  7  2  0
  9  5  1  0
 11 10  1  1
 11 13  1  0
 12 11  1  0
 13 14  2  0
 13 15  1  0
 15 16  1  0
 16 17  1  0
 18 17  1  0
 19 15  1  0
 19 18  1  0
 19 20  1  1
 21 20  2  0
 22 20  1  0
M  END
$$$$
