EAP.pdb
     RDKit          3D

 22 22  0  0  1  0  0  0  0  0999 V2000
   11.2954  -16.5732   20.4485 N   0  0  0  0  0  0  0  0  0  0  0  0
   10.5736  -17.2242   21.5105 C   0  0  1  0  0  0  0  0  0  0  0  0
   11.5676  -17.8943   22.3989 C   0  0  0  0  0  0  0  0  0  0  0  0
   12.8706  -17.1392   22.3562 C   0  0  0  0  0  0  0  0  0  0  0  0
   13.8231  -17.7837   23.2780 C   0  0  0  0  0  0  0  0  0  0  0  0
   14.4888  -17.0827   24.0844 O   0  0  0  0  0  0  0  0  0  0  0  0
    9.7608  -16.2291   22.2419 C   0  0  0  0  0  0  0  0  0  0  0  0
   10.1218  -15.0395   22.4176 O   0  0  0  0  0  0  0  0  0  0  0  0
   14.0195  -19.1661   23.2922 O   0  0  0  0  0  0  0  0  0  0  0  0
    6.3555  -16.2962   23.8045 C   0  0  0  0  0  0  0  0  0  0  0  0
    7.6891  -15.6830   23.5094 C   0  0  2  0  0  0  0  0  0  0  0  0
    8.5112  -16.6153   22.7785 N   0  0  0  0  0  0  0  0  0  0  0  0
    8.3796  -15.1785   24.7238 C   0  0  0  0  0  0  0  0  0  0  0  0
    9.4980  -15.6746   24.9979 O   0  0  0  0  0  0  0  0  0  0  0  0
    7.8388  -14.1841   25.5637 N   0  0  0  0  0  0  0  0  0  0  0  0
    6.5681  -13.5380   25.4071 C   0  0  0  0  0  0  0  0  0  0  0  0
    6.5833  -12.3129   26.2951 C   0  0  0  0  0  0  0  0  0  0  0  0
    8.0512  -12.1689   26.6584 C   0  0  0  0  0  0  0  0  0  0  0  0
    8.4673  -13.6361   26.7342 C   0  0  1  0  0  0  0  0  0  0  0  0
    7.9912  -14.2745   27.9869 C   0  0  0  0  0  0  0  0  0  0  0  0
    6.9496  -14.9712   28.0600 O   0  0  0  0  0  0  0  0  0  0  0  0
    8.7161  -14.1107   29.1594 O   0  0  0  0  0  0  0  0  0  0  0  0
  2  1  1  6
  2  7  1  0
  3  2  1  0
  4  3  1  0
  5  4  1  0
  6  5  2  0
  7 12  1  0
  8  7  2  0
  9  5  1  0
 11 10  1  1
 11 13  1  0
 12 11  1  0
 13 14  2  0
 13 15  1  0
 15 16  1  0
 16 17  1  0
 18 17  1  0
 19 15  1  0
 19 18  1  0
 19 20  1  1
 21 20  2  0
 22 20  1  0
M  END
$$$$
