EAP.pdb
     RDKit          3D

 22 22  0  0  1  0  0  0  0  0999 V2000
   10.4016  -18.5240   22.3945 N   0  0  0  0  0  0  0  0  0  0  0  0
   11.3124  -17.4683   22.7531 C   0  0  1  0  0  0  0  0  0  0  0  0
   12.3409  -17.3629   21.6773 C   0  0  0  0  0  0  0  0  0  0  0  0
   12.1655  -18.4963   20.7003 C   0  0  0  0  0  0  0  0  0  0  0  0
   13.1710  -18.3613   19.6312 C   0  0  0  0  0  0  0  0  0  0  0  0
   12.8155  -18.0122   18.4751 O   0  0  0  0  0  0  0  0  0  0  0  0
   10.5647  -16.2050   22.9288 C   0  0  0  0  0  0  0  0  0  0  0  0
   11.1190  -15.1026   23.1605 O   0  0  0  0  0  0  0  0  0  0  0  0
   14.5269  -18.6098   19.8544 O   0  0  0  0  0  0  0  0  0  0  0  0
    6.9597  -15.2315   22.7082 C   0  0  0  0  0  0  0  0  0  0  0  0
    8.3709  -15.0547   23.1758 C   0  0  2  0  0  0  0  0  0  0  0  0
    9.1541  -16.2165   22.8352 N   0  0  0  0  0  0  0  0  0  0  0  0
    8.4690  -14.7324   24.6224 C   0  0  0  0  0  0  0  0  0  0  0  0
    9.1761  -15.4854   25.3331 O   0  0  0  0  0  0  0  0  0  0  0  0
    7.8121  -13.6360   25.2165 N   0  0  0  0  0  0  0  0  0  0  0  0
    6.9287  -12.7168   24.5598 C   0  0  0  0  0  0  0  0  0  0  0  0
    6.7729  -11.5228   25.4763 C   0  0  0  0  0  0  0  0  0  0  0  0
    7.8895  -11.7171   26.4879 C   0  0  0  0  0  0  0  0  0  0  0  0
    7.9103  -13.2401   26.5946 C   0  0  1  0  0  0  0  0  0  0  0  0
    6.7799  -13.7455   27.4133 C   0  0  0  0  0  0  0  0  0  0  0  0
    6.7684  -13.7293   28.6683 O   0  0  0  0  0  0  0  0  0  0  0  0
    5.6590  -14.2714   26.7856 O   0  0  0  0  0  0  0  0  0  0  0  0
  2  1  1  6
  2  7  1  0
  3  2  1  0
  4  3  1  0
  5  4  1  0
  6  5  2  0
  7 12  1  0
  8  7  2  0
  9  5  1  0
 11 10  1  1
 11 13  1  0
 12 11  1  0
 13 14  2  0
 13 15  1  0
 15 16  1  0
 16 17  1  0
 18 17  1  0
 19 15  1  0
 19 18  1  0
 19 20  1  1
 21 20  2  0
 22 20  1  0
M  END
$$$$
