EAP.pdb
     RDKit          3D

 22 22  0  0  1  0  0  0  0  0999 V2000
    9.9261  -16.4302   20.0086 N   0  0  0  0  0  0  0  0  0  0  0  0
    9.7565  -17.1329   21.2536 C   0  0  1  0  0  0  0  0  0  0  0  0
   11.1117  -17.4557   21.7879 C   0  0  0  0  0  0  0  0  0  0  0  0
   12.1617  -16.9822   20.8169 C   0  0  0  0  0  0  0  0  0  0  0  0
   13.4927  -17.2232   21.4021 C   0  0  0  0  0  0  0  0  0  0  0  0
   13.8366  -18.3916   21.7206 O   0  0  0  0  0  0  0  0  0  0  0  0
    8.9761  -16.2992   22.1926 C   0  0  0  0  0  0  0  0  0  0  0  0
    8.9640  -15.0444   22.1535 O   0  0  0  0  0  0  0  0  0  0  0  0
   14.4038  -16.1878   21.6210 O   0  0  0  0  0  0  0  0  0  0  0  0
    6.4122  -17.0707   24.8027 C   0  0  0  0  0  0  0  0  0  0  0  0
    7.3494  -16.1603   24.0718 C   0  0  2  0  0  0  0  0  0  0  0  0
    8.1976  -16.9261   23.1924 N   0  0  0  0  0  0  0  0  0  0  0  0
    8.1424  -15.2912   24.9784 C   0  0  0  0  0  0  0  0  0  0  0  0
    9.3881  -15.4336   24.9682 O   0  0  0  0  0  0  0  0  0  0  0  0
    7.5624  -14.3319   25.8328 N   0  0  0  0  0  0  0  0  0  0  0  0
    6.1637  -14.1726   26.1066 C   0  0  0  0  0  0  0  0  0  0  0  0
    5.9929  -12.8180   26.7590 C   0  0  0  0  0  0  0  0  0  0  0  0
    7.3271  -12.1397   26.4988 C   0  0  0  0  0  0  0  0  0  0  0  0
    8.2724  -13.3356   26.5870 C   0  0  1  0  0  0  0  0  0  0  0  0
    8.5038  -13.7460   27.9947 C   0  0  0  0  0  0  0  0  0  0  0  0
    7.9447  -14.7329   28.5322 O   0  0  0  0  0  0  0  0  0  0  0  0
    9.3816  -13.0181   28.7864 O   0  0  0  0  0  0  0  0  0  0  0  0
  2  1  1  6
  2  7  1  0
  3  2  1  0
  4  3  1  0
  5  4  1  0
  6  5  2  0
  7 12  1  0
  8  7  2  0
  9  5  1  0
 11 10  1  1
 11 13  1  0
 12 11  1  0
 13 14  2  0
 13 15  1  0
 15 16  1  0
 16 17  1  0
 18 17  1  0
 19 15  1  0
 19 18  1  0
 19 20  1  1
 21 20  2  0
 22 20  1  0
M  END
$$$$
