EAP.pdb
     RDKit          3D

 22 22  0  0  1  0  0  0  0  0999 V2000
    8.2946  -13.0881   18.9332 N   0  0  0  0  0  0  0  0  0  0  0  0
    8.9578  -13.8753   19.9397 C   0  0  1  0  0  0  0  0  0  0  0  0
   10.3420  -13.3425   20.1022 C   0  0  0  0  0  0  0  0  0  0  0  0
   11.1948  -13.7952   18.9458 C   0  0  0  0  0  0  0  0  0  0  0  0
   12.3236  -14.5853   19.4691 C   0  0  0  0  0  0  0  0  0  0  0  0
   12.4045  -14.8244   20.7025 O   0  0  0  0  0  0  0  0  0  0  0  0
    8.1909  -13.8165   21.2022 C   0  0  0  0  0  0  0  0  0  0  0  0
    7.7940  -12.7429   21.7180 O   0  0  0  0  0  0  0  0  0  0  0  0
   13.3249  -15.0879   18.6357 O   0  0  0  0  0  0  0  0  0  0  0  0
    6.6139  -16.3645   23.4249 C   0  0  0  0  0  0  0  0  0  0  0  0
    7.1773  -15.0071   23.1392 C   0  0  2  0  0  0  0  0  0  0  0  0
    7.8778  -15.0176   21.8789 N   0  0  0  0  0  0  0  0  0  0  0  0
    8.0327  -14.4888   24.2373 C   0  0  0  0  0  0  0  0  0  0  0  0
    9.2747  -14.5474   24.0759 O   0  0  0  0  0  0  0  0  0  0  0  0
    7.5145  -13.9444   25.4297 N   0  0  0  0  0  0  0  0  0  0  0  0
    6.1314  -13.8771   25.8026 C   0  0  0  0  0  0  0  0  0  0  0  0
    6.0314  -12.8992   26.9531 C   0  0  0  0  0  0  0  0  0  0  0  0
    7.3825  -12.2050   26.9335 C   0  0  0  0  0  0  0  0  0  0  0  0
    8.2834  -13.3558   26.4917 C   0  0  1  0  0  0  0  0  0  0  0  0
    8.5394  -14.3064   27.6027 C   0  0  0  0  0  0  0  0  0  0  0  0
    9.3263  -14.0711   28.5518 O   0  0  0  0  0  0  0  0  0  0  0  0
    7.8874  -15.5318   27.6215 O   0  0  0  0  0  0  0  0  0  0  0  0
  2  1  1  6
  2  7  1  0
  3  2  1  0
  4  3  1  0
  5  4  1  0
  6  5  2  0
  7 12  1  0
  8  7  2  0
  9  5  1  0
 11 10  1  1
 11 13  1  0
 12 11  1  0
 13 14  2  0
 13 15  1  0
 15 16  1  0
 16 17  1  0
 18 17  1  0
 19 15  1  0
 19 18  1  0
 19 20  1  1
 21 20  2  0
 22 20  1  0
M  END
$$$$
