EAP.pdb
     RDKit          3D

 22 22  0  0  1  0  0  0  0  0999 V2000
   10.0933  -18.5187   21.7288 N   0  0  0  0  0  0  0  0  0  0  0  0
   11.0713  -17.5751   22.2039 C   0  0  1  0  0  0  0  0  0  0  0  0
   12.0525  -17.3371   21.1053 C   0  0  0  0  0  0  0  0  0  0  0  0
   11.3976  -17.6130   19.7769 C   0  0  0  0  0  0  0  0  0  0  0  0
   12.3687  -17.3381   18.7028 C   0  0  0  0  0  0  0  0  0  0  0  0
   12.2105  -17.8548   17.5657 O   0  0  0  0  0  0  0  0  0  0  0  0
   10.3965  -16.3280   22.6224 C   0  0  0  0  0  0  0  0  0  0  0  0
   11.0097  -15.3334   23.0818 O   0  0  0  0  0  0  0  0  0  0  0  0
   13.4772  -16.5122   18.9005 O   0  0  0  0  0  0  0  0  0  0  0  0
    6.8254  -15.1873   22.6717 C   0  0  0  0  0  0  0  0  0  0  0  0
    8.2727  -15.1000   23.0448 C   0  0  2  0  0  0  0  0  0  0  0  0
    8.9909  -16.2293   22.5079 N   0  0  0  0  0  0  0  0  0  0  0  0
    8.4896  -14.9577   24.5073 C   0  0  0  0  0  0  0  0  0  0  0  0
    9.3803  -15.6694   25.0289 O   0  0  0  0  0  0  0  0  0  0  0  0
    7.7489  -14.0723   25.3161 N   0  0  0  0  0  0  0  0  0  0  0  0
    6.6201  -13.2887   24.9058 C   0  0  0  0  0  0  0  0  0  0  0  0
    6.3997  -12.2392   25.9734 C   0  0  0  0  0  0  0  0  0  0  0  0
    7.6804  -12.3022   26.7880 C   0  0  0  0  0  0  0  0  0  0  0  0
    7.9933  -13.7944   26.7048 C   0  0  1  0  0  0  0  0  0  0  0  0
    7.1191  -14.5866   27.6057 C   0  0  0  0  0  0  0  0  0  0  0  0
    6.0531  -15.1355   27.2344 O   0  0  0  0  0  0  0  0  0  0  0  0
    7.4729  -14.7477   28.9383 O   0  0  0  0  0  0  0  0  0  0  0  0
  2  1  1  6
  2  7  1  0
  3  2  1  0
  4  3  1  0
  5  4  1  0
  6  5  2  0
  7 12  1  0
  8  7  2  0
  9  5  1  0
 11 10  1  1
 11 13  1  0
 12 11  1  0
 13 14  2  0
 13 15  1  0
 15 16  1  0
 16 17  1  0
 18 17  1  0
 19 15  1  0
 19 18  1  0
 19 20  1  1
 21 20  2  0
 22 20  1  0
M  END
$$$$
