EAP.pdb
     RDKit          3D

 22 22  0  0  1  0  0  0  0  0999 V2000
    8.4598  -13.4290   18.7241 N   0  0  0  0  0  0  0  0  0  0  0  0
    9.1646  -14.0331   19.8245 C   0  0  1  0  0  0  0  0  0  0  0  0
   10.4952  -13.3679   19.9392 C   0  0  0  0  0  0  0  0  0  0  0  0
   11.4619  -14.0063   18.9761 C   0  0  0  0  0  0  0  0  0  0  0  0
   12.2388  -15.0327   19.6938 C   0  0  0  0  0  0  0  0  0  0  0  0
   11.9060  -16.2440   19.6115 O   0  0  0  0  0  0  0  0  0  0  0  0
    8.3679  -13.8930   21.0620 C   0  0  0  0  0  0  0  0  0  0  0  0
    7.8922  -12.7997   21.4553 O   0  0  0  0  0  0  0  0  0  0  0  0
   13.3495  -14.7085   20.4755 O   0  0  0  0  0  0  0  0  0  0  0  0
    6.7232  -16.2588   23.3934 C   0  0  0  0  0  0  0  0  0  0  0  0
    7.3670  -14.9427   23.0851 C   0  0  2  0  0  0  0  0  0  0  0  0
    8.1172  -15.0347   21.8571 N   0  0  0  0  0  0  0  0  0  0  0  0
    8.2021  -14.4277   24.2002 C   0  0  0  0  0  0  0  0  0  0  0  0
    9.4466  -14.5166   24.0758 O   0  0  0  0  0  0  0  0  0  0  0  0
    7.6625  -13.8543   25.3693 N   0  0  0  0  0  0  0  0  0  0  0  0
    6.2706  -13.6719   25.6622 C   0  0  0  0  0  0  0  0  0  0  0  0
    6.1865  -12.7023   26.8209 C   0  0  0  0  0  0  0  0  0  0  0  0
    7.5908  -12.1274   26.8915 C   0  0  0  0  0  0  0  0  0  0  0  0
    8.4146  -13.3467   26.4839 C   0  0  1  0  0  0  0  0  0  0  0  0
    8.5216  -14.3285   27.5920 C   0  0  0  0  0  0  0  0  0  0  0  0
    9.2923  -14.1888   28.5729 O   0  0  0  0  0  0  0  0  0  0  0  0
    7.7392  -15.4751   27.5712 O   0  0  0  0  0  0  0  0  0  0  0  0
  2  1  1  6
  2  7  1  0
  3  2  1  0
  4  3  1  0
  5  4  1  0
  6  5  2  0
  7 12  1  0
  8  7  2  0
  9  5  1  0
 11 10  1  1
 11 13  1  0
 12 11  1  0
 13 14  2  0
 13 15  1  0
 15 16  1  0
 16 17  1  0
 18 17  1  0
 19 15  1  0
 19 18  1  0
 19 20  1  1
 21 20  2  0
 22 20  1  0
M  END
$$$$
