EAP.pdb
     RDKit          3D

 22 22  0  0  1  0  0  0  0  0999 V2000
    9.8375  -16.7456   19.8472 N   0  0  0  0  0  0  0  0  0  0  0  0
    9.9316  -17.2000   21.2099 C   0  0  1  0  0  0  0  0  0  0  0  0
   11.3676  -17.1524   21.6125 C   0  0  0  0  0  0  0  0  0  0  0  0
   12.1353  -18.2115   20.8652 C   0  0  0  0  0  0  0  0  0  0  0  0
   13.5602  -18.1100   21.2282 C   0  0  0  0  0  0  0  0  0  0  0  0
   14.3987  -17.7148   20.3764 O   0  0  0  0  0  0  0  0  0  0  0  0
    9.0860  -16.3515   22.0764 C   0  0  0  0  0  0  0  0  0  0  0  0
    8.9930  -15.1067   21.9424 O   0  0  0  0  0  0  0  0  0  0  0  0
   14.0248  -18.4408   22.5028 O   0  0  0  0  0  0  0  0  0  0  0  0
    6.5267  -17.0507   24.7005 C   0  0  0  0  0  0  0  0  0  0  0  0
    7.4984  -16.1648   23.9846 C   0  0  2  0  0  0  0  0  0  0  0  0
    8.3363  -16.9516   23.1139 N   0  0  0  0  0  0  0  0  0  0  0  0
    8.3035  -15.3207   24.9041 C   0  0  0  0  0  0  0  0  0  0  0  0
    9.5434  -15.5068   24.9189 O   0  0  0  0  0  0  0  0  0  0  0  0
    7.7409  -14.3385   25.7440 N   0  0  0  0  0  0  0  0  0  0  0  0
    6.3465  -14.0303   25.8759 C   0  0  0  0  0  0  0  0  0  0  0  0
    6.2543  -12.6945   26.5807 C   0  0  0  0  0  0  0  0  0  0  0  0
    7.6759  -12.1647   26.5021 C   0  0  0  0  0  0  0  0  0  0  0  0
    8.4675  -13.4646   26.6236 C   0  0  1  0  0  0  0  0  0  0  0  0
    8.4932  -13.9594   28.0229 C   0  0  0  0  0  0  0  0  0  0  0  0
    9.1980  -13.4498   28.9279 O   0  0  0  0  0  0  0  0  0  0  0  0
    7.7050  -15.0443   28.3819 O   0  0  0  0  0  0  0  0  0  0  0  0
  2  1  1  6
  2  7  1  0
  3  2  1  0
  4  3  1  0
  5  4  1  0
  6  5  2  0
  7 12  1  0
  8  7  2  0
  9  5  1  0
 11 10  1  1
 11 13  1  0
 12 11  1  0
 13 14  2  0
 13 15  1  0
 15 16  1  0
 16 17  1  0
 18 17  1  0
 19 15  1  0
 19 18  1  0
 19 20  1  1
 21 20  2  0
 22 20  1  0
M  END
$$$$
