EAP.pdb
     RDKit          3D

 22 22  0  0  1  0  0  0  0  0999 V2000
    9.5241  -16.4182   19.4833 N   0  0  0  0  0  0  0  0  0  0  0  0
    9.7854  -16.8875   20.8189 C   0  0  1  0  0  0  0  0  0  0  0  0
   11.2589  -16.8298   21.0467 C   0  0  0  0  0  0  0  0  0  0  0  0
   11.9006  -18.0835   20.5116 C   0  0  0  0  0  0  0  0  0  0  0  0
   13.3291  -18.0774   20.8742 C   0  0  0  0  0  0  0  0  0  0  0  0
   14.0987  -17.2118   20.3810 O   0  0  0  0  0  0  0  0  0  0  0  0
    9.0427  -16.0581   21.7915 C   0  0  0  0  0  0  0  0  0  0  0  0
    9.1773  -14.8130   21.8800 O   0  0  0  0  0  0  0  0  0  0  0  0
   13.8722  -19.0110   21.7593 O   0  0  0  0  0  0  0  0  0  0  0  0
    6.2772  -16.7429   24.2133 C   0  0  0  0  0  0  0  0  0  0  0  0
    7.3803  -15.9097   23.6385 C   0  0  2  0  0  0  0  0  0  0  0  0
    8.1300  -16.6778   22.6756 N   0  0  0  0  0  0  0  0  0  0  0  0
    8.2641  -15.3181   24.6754 C   0  0  0  0  0  0  0  0  0  0  0  0
    9.4695  -15.6629   24.6690 O   0  0  0  0  0  0  0  0  0  0  0  0
    7.8110  -14.4028   25.6468 N   0  0  0  0  0  0  0  0  0  0  0  0
    6.4532  -13.9945   25.8621 C   0  0  0  0  0  0  0  0  0  0  0  0
    6.4972  -12.7535   26.7268 C   0  0  0  0  0  0  0  0  0  0  0  0
    7.9583  -12.3423   26.6651 C   0  0  0  0  0  0  0  0  0  0  0  0
    8.6329  -13.7106   26.6011 C   0  0  1  0  0  0  0  0  0  0  0  0
    8.6461  -14.3754   27.9283 C   0  0  0  0  0  0  0  0  0  0  0  0
    7.8470  -15.2854   28.2582 O   0  0  0  0  0  0  0  0  0  0  0  0
    9.5821  -13.9917   28.8789 O   0  0  0  0  0  0  0  0  0  0  0  0
  2  1  1  6
  2  7  1  0
  3  2  1  0
  4  3  1  0
  5  4  1  0
  6  5  2  0
  7 12  1  0
  8  7  2  0
  9  5  1  0
 11 10  1  1
 11 13  1  0
 12 11  1  0
 13 14  2  0
 13 15  1  0
 15 16  1  0
 16 17  1  0
 18 17  1  0
 19 15  1  0
 19 18  1  0
 19 20  1  1
 21 20  2  0
 22 20  1  0
M  END
$$$$
