EAP.pdb
     RDKit          3D

 22 22  0  0  1  0  0  0  0  0999 V2000
    8.5974  -17.0041   19.8758 N   0  0  0  0  0  0  0  0  0  0  0  0
    8.5924  -17.6506   21.1621 C   0  0  1  0  0  0  0  0  0  0  0  0
    9.9967  -18.0342   21.4895 C   0  0  0  0  0  0  0  0  0  0  0  0
   10.9480  -17.2449   20.6283 C   0  0  0  0  0  0  0  0  0  0  0  0
   12.3288  -17.6335   20.9671 C   0  0  0  0  0  0  0  0  0  0  0  0
   12.6343  -18.8514   21.0574 O   0  0  0  0  0  0  0  0  0  0  0  0
    8.0179  -16.7390   22.1744 C   0  0  0  0  0  0  0  0  0  0  0  0
    7.8799  -15.5047   21.9910 O   0  0  0  0  0  0  0  0  0  0  0  0
   13.3293  -16.6867   21.1960 O   0  0  0  0  0  0  0  0  0  0  0  0
    6.3029  -17.2522   25.4499 C   0  0  0  0  0  0  0  0  0  0  0  0
    7.0075  -16.4169   24.4265 C   0  0  2  0  0  0  0  0  0  0  0  0
    7.5965  -17.2627   23.4181 N   0  0  0  0  0  0  0  0  0  0  0  0
    8.0075  -15.4917   25.0182 C   0  0  0  0  0  0  0  0  0  0  0  0
    9.2161  -15.7167   24.7720 O   0  0  0  0  0  0  0  0  0  0  0  0
    7.6592  -14.3928   25.8293 N   0  0  0  0  0  0  0  0  0  0  0  0
    6.3300  -13.9575   26.1459 C   0  0  0  0  0  0  0  0  0  0  0  0
    6.4466  -12.5598   26.7137 C   0  0  0  0  0  0  0  0  0  0  0  0
    7.8686  -12.1609   26.3579 C   0  0  0  0  0  0  0  0  0  0  0  0
    8.5788  -13.5063   26.4881 C   0  0  1  0  0  0  0  0  0  0  0  0
    8.8007  -13.8712   27.9098 C   0  0  0  0  0  0  0  0  0  0  0  0
    8.0896  -14.6949   28.5354 O   0  0  0  0  0  0  0  0  0  0  0  0
    9.8444  -13.2863   28.6137 O   0  0  0  0  0  0  0  0  0  0  0  0
  2  1  1  6
  2  7  1  0
  3  2  1  0
  4  3  1  0
  5  4  1  0
  6  5  2  0
  7 12  1  0
  8  7  2  0
  9  5  1  0
 11 10  1  1
 11 13  1  0
 12 11  1  0
 13 14  2  0
 13 15  1  0
 15 16  1  0
 16 17  1  0
 18 17  1  0
 19 15  1  0
 19 18  1  0
 19 20  1  1
 21 20  2  0
 22 20  1  0
M  END
$$$$
