YGD.pdb
     RDKit          3D

 25 25  0  0  1  0  0  0  0  0999 V2000
   28.7489  -18.4410   -3.4316 O   0  0  0  0  0  0  0  0  0  0  0  0
   28.4573  -19.0951   -4.6340 C   0  0  0  0  0  0  0  0  0  0  0  0
   29.1263  -18.7726   -5.7887 C   0  0  0  0  0  0  0  0  0  0  0  0
   28.8517  -19.4073   -6.9833 C   0  0  0  0  0  0  0  0  0  0  0  0
   27.8843  -20.3879   -7.0222 C   0  0  0  0  0  0  0  0  0  0  0  0
   27.5931  -21.0660   -8.3068 C   0  0  0  0  0  0  0  0  0  0  0  0
   26.5596  -20.2399   -9.0362 C   0  0  2  0  0  0  0  0  0  0  0  0
   25.2874  -20.4910   -8.3959 N   0  0  0  0  0  0  0  0  0  0  0  0
   26.5024  -20.5114  -10.4655 C   0  0  0  0  0  0  0  0  0  0  0  0
   27.3124  -21.2152  -11.1096 O   0  0  0  0  0  0  0  0  0  0  0  0
   27.2173  -20.7030   -5.8490 C   0  0  0  0  0  0  0  0  0  0  0  0
   27.4829  -20.0744   -4.6453 C   0  0  0  0  0  0  0  0  0  0  0  0
   25.4316  -19.9348  -11.2360 N   0  0  0  0  0  0  0  0  0  0  0  0
   25.3287  -20.1142  -12.6541 C   0  0  0  0  0  0  0  0  0  0  0  0
   24.1024  -20.7023  -13.1535 C   0  0  0  0  0  0  0  0  0  0  0  0
   24.1379  -21.7746  -13.8000 O   0  0  0  0  0  0  0  0  0  0  0  0
   22.8423  -20.1085  -12.9363 N   0  0  0  0  0  0  0  0  0  0  0  0
   21.6128  -20.8738  -13.1379 C   0  0  1  0  0  0  0  0  0  0  0  0
   20.9607  -21.2119  -11.8027 C   0  0  0  0  0  0  0  0  0  0  0  0
   19.7186  -21.9877  -11.9998 C   0  0  0  0  0  0  0  0  0  0  0  0
   19.3557  -22.3043  -13.1727 O   0  0  0  0  0  0  0  0  0  0  0  0
   20.6996  -20.0636  -13.9464 C   0  0  0  0  0  0  0  0  0  0  0  0
   20.6861  -18.7958  -13.8712 O   0  0  0  0  0  0  0  0  0  0  0  0
   18.9283  -22.3836  -10.9202 O   0  0  0  0  0  0  0  0  0  0  0  0
   19.7897  -20.6166  -14.8464 O   0  0  0  0  0  0  0  0  0  0  0  0
  2  1  1  0
  2  3  2  0
  4  3  1  0
  5  4  2  0
  6  5  1  0
  6  7  1  0
  7  8  1  1
  9  7  1  0
  9 13  1  0
 10  9  2  0
 11 12  2  0
 11  5  1  0
 12  2  1  0
 14 13  1  0
 15 14  1  0
 16 15  2  0
 17 15  1  0
 18 19  1  1
 18 17  1  0
 19 20  1  0
 20 24  1  0
 21 20  2  0
 22 18  1  0
 23 22  2  0
 25 22  1  0
M  END
$$$$
