YGD.pdb
     RDKit          3D

 25 25  0  0  1  0  0  0  0  0999 V2000
   34.0932  -11.4008  -18.5558 O   0  0  0  0  0  0  0  0  0  0  0  0
   32.7975  -11.3002  -18.0366 C   0  0  0  0  0  0  0  0  0  0  0  0
   32.2922  -12.2780  -17.2160 C   0  0  0  0  0  0  0  0  0  0  0  0
   31.0167  -12.1952  -16.6949 C   0  0  0  0  0  0  0  0  0  0  0  0
   30.2289  -11.1075  -17.0033 C   0  0  0  0  0  0  0  0  0  0  0  0
   28.8604  -11.0233  -16.4417 C   0  0  0  0  0  0  0  0  0  0  0  0
   27.9733  -11.9314  -17.2607 C   0  0  2  0  0  0  0  0  0  0  0  0
   27.9032  -11.3684  -18.5910 N   0  0  0  0  0  0  0  0  0  0  0  0
   26.6477  -12.1188  -16.6882 C   0  0  0  0  0  0  0  0  0  0  0  0
   26.4006  -12.5682  -15.5467 O   0  0  0  0  0  0  0  0  0  0  0  0
   30.7521  -10.1282  -17.8326 C   0  0  0  0  0  0  0  0  0  0  0  0
   32.0287  -10.1992  -18.3614 C   0  0  0  0  0  0  0  0  0  0  0  0
   25.4975  -11.7654  -17.4787 N   0  0  0  0  0  0  0  0  0  0  0  0
   24.1663  -11.8034  -16.9493 C   0  0  0  0  0  0  0  0  0  0  0  0
   23.3691  -10.6020  -17.0925 C   0  0  0  0  0  0  0  0  0  0  0  0
   22.6439  -10.4460  -18.1019 O   0  0  0  0  0  0  0  0  0  0  0  0
   23.3719   -9.5792  -16.1221 N   0  0  0  0  0  0  0  0  0  0  0  0
   22.5650   -8.3739  -16.3072 C   0  0  1  0  0  0  0  0  0  0  0  0
   22.2305   -7.7353  -14.9646 C   0  0  0  0  0  0  0  0  0  0  0  0
   20.7707   -7.7145  -14.7356 C   0  0  0  0  0  0  0  0  0  0  0  0
   19.9895   -8.1722  -15.6231 O   0  0  0  0  0  0  0  0  0  0  0  0
   23.3318   -7.4342  -17.1276 C   0  0  0  0  0  0  0  0  0  0  0  0
   22.8351   -6.3352  -17.5260 O   0  0  0  0  0  0  0  0  0  0  0  0
   20.2255   -7.1997  -13.5589 O   0  0  0  0  0  0  0  0  0  0  0  0
   24.6460   -7.6734  -17.5267 O   0  0  0  0  0  0  0  0  0  0  0  0
  2  1  1  0
  2  3  2  0
  4  3  1  0
  5  4  2  0
  6  5  1  0
  6  7  1  0
  7  8  1  6
  9  7  1  0
  9 13  1  0
 10  9  2  0
 11 12  2  0
 11  5  1  0
 12  2  1  0
 14 13  1  0
 15 14  1  0
 16 15  2  0
 17 15  1  0
 18 19  1  1
 18 17  1  0
 19 20  1  0
 20 24  1  0
 21 20  2  0
 22 18  1  0
 23 22  2  0
 25 22  1  0
M  END
$$$$
