YGD.pdb
     RDKit          3D

 25 25  0  0  1  0  0  0  0  0999 V2000
   33.3037  -22.5990   -9.4494 O   0  0  0  0  0  0  0  0  0  0  0  0
   32.0555  -22.0183   -9.7016 C   0  0  0  0  0  0  0  0  0  0  0  0
   31.5453  -21.9763  -10.9755 C   0  0  0  0  0  0  0  0  0  0  0  0
   30.3163  -21.4076  -11.2425 C   0  0  0  0  0  0  0  0  0  0  0  0
   29.5812  -20.8682  -10.2093 C   0  0  0  0  0  0  0  0  0  0  0  0
   28.2627  -20.2587  -10.5011 C   0  0  0  0  0  0  0  0  0  0  0  0
   27.2043  -21.1376   -9.8768 C   0  0  2  0  0  0  0  0  0  0  0  0
   27.3411  -22.4505  -10.4675 N   0  0  0  0  0  0  0  0  0  0  0  0
   25.8528  -20.6188  -10.0324 C   0  0  0  0  0  0  0  0  0  0  0  0
   25.4926  -19.4395   -9.8185 O   0  0  0  0  0  0  0  0  0  0  0  0
   30.1086  -20.9177   -8.9287 C   0  0  0  0  0  0  0  0  0  0  0  0
   31.3391  -21.4847   -8.6477 C   0  0  0  0  0  0  0  0  0  0  0  0
   24.8147  -21.5153  -10.4701 N   0  0  0  0  0  0  0  0  0  0  0  0
   23.4937  -21.0578  -10.7856 C   0  0  0  0  0  0  0  0  0  0  0  0
   23.3083  -20.4300  -12.0781 C   0  0  0  0  0  0  0  0  0  0  0  0
   24.2817  -20.2911  -12.8543 O   0  0  0  0  0  0  0  0  0  0  0  0
   22.0515  -19.9606  -12.5112 N   0  0  0  0  0  0  0  0  0  0  0  0
   21.5734  -20.2486  -13.8627 C   0  0  1  0  0  0  0  0  0  0  0  0
   21.7104  -21.7326  -14.1804 C   0  0  0  0  0  0  0  0  0  0  0  0
   21.2901  -22.0197  -15.5677 C   0  0  0  0  0  0  0  0  0  0  0  0
   21.9619  -21.5530  -16.5364 O   0  0  0  0  0  0  0  0  0  0  0  0
   20.1665  -19.8506  -13.9424 C   0  0  0  0  0  0  0  0  0  0  0  0
   19.6520  -19.4267  -15.0235 O   0  0  0  0  0  0  0  0  0  0  0  0
   20.1638  -22.7967  -15.8414 O   0  0  0  0  0  0  0  0  0  0  0  0
   19.2995  -19.9070  -12.8521 O   0  0  0  0  0  0  0  0  0  0  0  0
  2  1  1  0
  2  3  2  0
  4  3  1  0
  5  4  2  0
  6  5  1  0
  6  7  1  0
  7  8  1  6
  9  7  1  0
  9 13  1  0
 10  9  2  0
 11 12  2  0
 11  5  1  0
 12  2  1  0
 14 13  1  0
 15 14  1  0
 16 15  2  0
 17 15  1  0
 18 19  1  1
 18 17  1  0
 19 20  1  0
 20 24  1  0
 21 20  2  0
 22 18  1  0
 23 22  2  0
 25 22  1  0
M  END
$$$$
