YGD.pdb
     RDKit          3D

 25 25  0  0  1  0  0  0  0  0999 V2000
   21.2309  -18.3956  -17.1658 O   0  0  0  0  0  0  0  0  0  0  0  0
   21.0608  -18.7214  -15.8154 C   0  0  0  0  0  0  0  0  0  0  0  0
   19.8092  -18.7469  -15.2518 C   0  0  0  0  0  0  0  0  0  0  0  0
   19.6227  -19.0660  -13.9219 C   0  0  0  0  0  0  0  0  0  0  0  0
   20.7156  -19.3666  -13.1382 C   0  0  0  0  0  0  0  0  0  0  0  0
   20.5103  -19.7082  -11.7113 C   0  0  0  0  0  0  0  0  0  0  0  0
   20.8357  -21.1737  -11.5404 C   0  0  2  0  0  0  0  0  0  0  0  0
   19.9120  -21.9127  -12.3724 N   0  0  0  0  0  0  0  0  0  0  0  0
   20.7857  -21.6221  -10.1561 C   0  0  0  0  0  0  0  0  0  0  0  0
   21.2649  -21.0145   -9.1725 O   0  0  0  0  0  0  0  0  0  0  0  0
   21.9728  -19.3370  -13.7206 C   0  0  0  0  0  0  0  0  0  0  0  0
   22.1732  -19.0187  -15.0521 C   0  0  0  0  0  0  0  0  0  0  0  0
   20.1343  -22.8708   -9.8574 N   0  0  0  0  0  0  0  0  0  0  0  0
   19.9680  -23.3432   -8.5146 C   0  0  0  0  0  0  0  0  0  0  0  0
   18.6091  -23.5366   -8.0511 C   0  0  0  0  0  0  0  0  0  0  0  0
   17.6846  -22.8198   -8.4990 O   0  0  0  0  0  0  0  0  0  0  0  0
   18.2738  -24.5203   -7.0984 N   0  0  0  0  0  0  0  0  0  0  0  0
   16.8874  -24.7020   -6.6706 C   0  0  1  0  0  0  0  0  0  0  0  0
   16.2895  -25.9583   -7.2922 C   0  0  0  0  0  0  0  0  0  0  0  0
   16.6258  -27.1566   -6.4955 C   0  0  0  0  0  0  0  0  0  0  0  0
   17.2728  -27.0291   -5.4127 O   0  0  0  0  0  0  0  0  0  0  0  0
   16.8723  -24.8139   -5.2107 C   0  0  0  0  0  0  0  0  0  0  0  0
   17.9023  -25.1667   -4.5567 O   0  0  0  0  0  0  0  0  0  0  0  0
   16.2472  -28.4349   -6.9076 O   0  0  0  0  0  0  0  0  0  0  0  0
   15.7413  -24.5448   -4.4412 O   0  0  0  0  0  0  0  0  0  0  0  0
  2  1  1  0
  2  3  2  0
  4  3  1  0
  5  4  2  0
  6  5  1  0
  6  7  1  0
  7  8  1  6
  9  7  1  0
  9 13  1  0
 10  9  2  0
 11 12  2  0
 11  5  1  0
 12  2  1  0
 14 13  1  0
 15 14  1  0
 16 15  2  0
 17 15  1  0
 18 19  1  6
 18 17  1  0
 19 20  1  0
 20 24  1  0
 21 20  2  0
 22 18  1  0
 23 22  2  0
 25 22  1  0
M  END
$$$$
