YGD.pdb
     RDKit          3D

 25 25  0  0  1  0  0  0  0  0999 V2000
   23.2858  -21.6894   -6.3673 O   0  0  0  0  0  0  0  0  0  0  0  0
   24.0118  -21.2517   -7.4809 C   0  0  0  0  0  0  0  0  0  0  0  0
   25.2700  -20.7220   -7.3346 C   0  0  0  0  0  0  0  0  0  0  0  0
   26.0003  -20.2854   -8.4214 C   0  0  0  0  0  0  0  0  0  0  0  0
   25.4575  -20.3814   -9.6844 C   0  0  0  0  0  0  0  0  0  0  0  0
   26.2452  -19.9112  -10.8477 C   0  0  0  0  0  0  0  0  0  0  0  0
   26.4913  -21.1016  -11.7448 C   0  0  2  0  0  0  0  0  0  0  0  0
   27.4466  -21.9513  -11.0690 N   0  0  0  0  0  0  0  0  0  0  0  0
   26.9476  -20.7388  -13.0791 C   0  0  0  0  0  0  0  0  0  0  0  0
   28.0205  -20.1550  -13.3519 O   0  0  0  0  0  0  0  0  0  0  0  0
   24.1867  -20.9182   -9.8169 C   0  0  0  0  0  0  0  0  0  0  0  0
   23.4443  -21.3593   -8.7359 C   0  0  0  0  0  0  0  0  0  0  0  0
   26.1148  -21.0663  -14.2069 N   0  0  0  0  0  0  0  0  0  0  0  0
   26.1380  -20.3039  -15.4202 C   0  0  0  0  0  0  0  0  0  0  0  0
   25.0900  -19.3191  -15.5960 C   0  0  0  0  0  0  0  0  0  0  0  0
   24.1027  -19.3081  -14.8252 O   0  0  0  0  0  0  0  0  0  0  0  0
   25.1354  -18.3491  -16.6181 N   0  0  0  0  0  0  0  0  0  0  0  0
   24.0458  -17.3878  -16.7824 C   0  0  1  0  0  0  0  0  0  0  0  0
   24.4044  -16.3366  -17.8258 C   0  0  0  0  0  0  0  0  0  0  0  0
   23.2985  -15.3742  -18.0117 C   0  0  0  0  0  0  0  0  0  0  0  0
   22.2807  -15.4344  -17.2582 O   0  0  0  0  0  0  0  0  0  0  0  0
   22.8513  -18.1214  -17.2056 C   0  0  0  0  0  0  0  0  0  0  0  0
   21.7262  -17.9484  -16.6423 O   0  0  0  0  0  0  0  0  0  0  0  0
   23.3457  -14.3935  -19.0032 O   0  0  0  0  0  0  0  0  0  0  0  0
   22.8608  -19.0514  -18.2441 O   0  0  0  0  0  0  0  0  0  0  0  0
  2  1  1  0
  2  3  2  0
  4  3  1  0
  5  4  2  0
  6  5  1  0
  6  7  1  0
  7  8  1  1
  9  7  1  0
  9 13  1  0
 10  9  2  0
 11 12  2  0
 11  5  1  0
 12  2  1  0
 14 13  1  0
 15 14  1  0
 16 15  2  0
 17 15  1  0
 18 19  1  6
 18 17  1  0
 19 20  1  0
 20 24  1  0
 21 20  2  0
 22 18  1  0
 23 22  2  0
 25 22  1  0
M  END
$$$$
