YGD.pdb
     RDKit          3D

 25 25  0  0  1  0  0  0  0  0999 V2000
   27.9770  -18.7255  -14.5408 O   0  0  0  0  0  0  0  0  0  0  0  0
   27.1455  -17.7582  -15.1166 C   0  0  0  0  0  0  0  0  0  0  0  0
   26.7411  -17.8685  -16.4240 C   0  0  0  0  0  0  0  0  0  0  0  0
   25.9213  -16.9242  -17.0082 C   0  0  0  0  0  0  0  0  0  0  0  0
   25.4966  -15.8440  -16.2654 C   0  0  0  0  0  0  0  0  0  0  0  0
   24.6169  -14.8329  -16.8970 C   0  0  0  0  0  0  0  0  0  0  0  0
   23.2530  -14.9500  -16.2578 C   0  0  2  0  0  0  0  0  0  0  0  0
   22.8773  -16.3455  -16.3134 N   0  0  0  0  0  0  0  0  0  0  0  0
   22.2465  -14.0996  -16.8772 C   0  0  0  0  0  0  0  0  0  0  0  0
   21.4570  -14.4429  -17.7855 O   0  0  0  0  0  0  0  0  0  0  0  0
   25.9126  -15.7457  -14.9471 C   0  0  0  0  0  0  0  0  0  0  0  0
   26.7341  -16.6852  -14.3498 C   0  0  0  0  0  0  0  0  0  0  0  0
   22.1216  -12.7375  -16.4281 N   0  0  0  0  0  0  0  0  0  0  0  0
   21.2193  -11.8100  -17.0442 C   0  0  0  0  0  0  0  0  0  0  0  0
   21.1892  -10.4664  -16.5030 C   0  0  0  0  0  0  0  0  0  0  0  0
   21.9171  -10.1651  -15.5290 O   0  0  0  0  0  0  0  0  0  0  0  0
   20.3599   -9.4599  -17.0385 N   0  0  0  0  0  0  0  0  0  0  0  0
   20.1936   -8.1835  -16.3446 C   0  0  1  0  0  0  0  0  0  0  0  0
   19.7530   -8.4049  -14.9027 C   0  0  0  0  0  0  0  0  0  0  0  0
   19.4406   -7.1215  -14.2400 C   0  0  0  0  0  0  0  0  0  0  0  0
   19.5080   -6.0414  -14.9004 O   0  0  0  0  0  0  0  0  0  0  0  0
   21.4779   -7.4807  -16.3701 C   0  0  0  0  0  0  0  0  0  0  0  0
   21.6218   -6.3322  -15.8472 O   0  0  0  0  0  0  0  0  0  0  0  0
   19.0710   -7.0672  -12.8956 O   0  0  0  0  0  0  0  0  0  0  0  0
   22.6222   -8.0133  -16.9621 O   0  0  0  0  0  0  0  0  0  0  0  0
  2  1  1  0
  2  3  2  0
  4  3  1  0
  5  4  2  0
  6  5  1  0
  6  7  1  0
  7  8  1  6
  9  7  1  0
  9 13  1  0
 10  9  2  0
 11 12  2  0
 11  5  1  0
 12  2  1  0
 14 13  1  0
 15 14  1  0
 16 15  2  0
 17 15  1  0
 18 19  1  1
 18 17  1  0
 19 20  1  0
 20 24  1  0
 21 20  2  0
 22 18  1  0
 23 22  2  0
 25 22  1  0
M  END
$$$$
