YGD.pdb
     RDKit          3D

 25 25  0  0  1  0  0  0  0  0999 V2000
   19.0709  -16.8904  -19.8413 O   0  0  0  0  0  0  0  0  0  0  0  0
   18.8386  -15.5174  -19.9813 C   0  0  0  0  0  0  0  0  0  0  0  0
   19.8648  -14.6598  -20.2917 C   0  0  0  0  0  0  0  0  0  0  0  0
   19.6540  -13.3031  -20.4337 C   0  0  0  0  0  0  0  0  0  0  0  0
   18.3855  -12.7935  -20.2605 C   0  0  0  0  0  0  0  0  0  0  0  0
   18.1643  -11.3366  -20.4137 C   0  0  0  0  0  0  0  0  0  0  0  0
   18.6579  -10.6640  -19.1541 C   0  0  2  0  0  0  0  0  0  0  0  0
   17.7441  -11.0274  -18.0937 N   0  0  0  0  0  0  0  0  0  0  0  0
   18.7854   -9.2190  -19.2791 C   0  0  0  0  0  0  0  0  0  0  0  0
   19.5026   -8.6169  -20.1093 O   0  0  0  0  0  0  0  0  0  0  0  0
   17.3594  -13.6708  -19.9476 C   0  0  0  0  0  0  0  0  0  0  0  0
   17.5574  -15.0325  -19.8024 C   0  0  0  0  0  0  0  0  0  0  0  0
   18.0331   -8.3790  -18.3839 N   0  0  0  0  0  0  0  0  0  0  0  0
   18.1591   -6.9515  -18.3896 C   0  0  0  0  0  0  0  0  0  0  0  0
   18.8026   -6.3453  -17.2418 C   0  0  0  0  0  0  0  0  0  0  0  0
   18.3764   -6.5780  -16.0871 O   0  0  0  0  0  0  0  0  0  0  0  0
   19.9143   -5.4878  -17.3705 N   0  0  0  0  0  0  0  0  0  0  0  0
   20.6007   -4.9742  -16.1859 C   0  0  1  0  0  0  0  0  0  0  0  0
   21.1293   -6.1176  -15.3285 C   0  0  0  0  0  0  0  0  0  0  0  0
   21.8422   -5.6046  -14.1400 C   0  0  0  0  0  0  0  0  0  0  0  0
   21.9241   -4.3540  -13.9486 O   0  0  0  0  0  0  0  0  0  0  0  0
   21.7123   -4.1325  -16.6329 C   0  0  0  0  0  0  0  0  0  0  0  0
   22.1766   -4.2095  -17.8126 O   0  0  0  0  0  0  0  0  0  0  0  0
   22.4324   -6.4676  -13.2161 O   0  0  0  0  0  0  0  0  0  0  0  0
   22.3349   -3.1970  -15.8077 O   0  0  0  0  0  0  0  0  0  0  0  0
  2  1  1  0
  2  3  2  0
  4  3  1  0
  5  4  2  0
  6  5  1  0
  6  7  1  0
  7  8  1  1
  9  7  1  0
  9 13  1  0
 10  9  2  0
 11 12  2  0
 11  5  1  0
 12  2  1  0
 14 13  1  0
 15 14  1  0
 16 15  2  0
 17 15  1  0
 18 19  1  6
 18 17  1  0
 19 20  1  0
 20 24  1  0
 21 20  2  0
 22 18  1  0
 23 22  2  0
 25 22  1  0
M  END
$$$$
