YGD.pdb
     RDKit          3D

 25 25  0  0  1  0  0  0  0  0999 V2000
   23.3315  -21.3011   -8.5767 O   0  0  0  0  0  0  0  0  0  0  0  0
   24.2690  -20.9720   -9.5624 C   0  0  0  0  0  0  0  0  0  0  0  0
   25.6111  -21.1648   -9.3469 C   0  0  0  0  0  0  0  0  0  0  0  0
   26.5496  -20.8460  -10.3075 C   0  0  0  0  0  0  0  0  0  0  0  0
   26.1340  -20.3216  -11.5121 C   0  0  0  0  0  0  0  0  0  0  0  0
   27.1452  -19.9808  -12.5399 C   0  0  0  0  0  0  0  0  0  0  0  0
   26.5363  -20.2658  -13.8929 C   0  0  2  0  0  0  0  0  0  0  0  0
   26.2352  -21.6797  -13.9328 N   0  0  0  0  0  0  0  0  0  0  0  0
   27.3847  -19.8674  -15.0071 C   0  0  0  0  0  0  0  0  0  0  0  0
   28.0723  -20.6372  -15.7148 O   0  0  0  0  0  0  0  0  0  0  0  0
   24.7763  -20.1325  -11.7157 C   0  0  0  0  0  0  0  0  0  0  0  0
   23.8255  -20.4478  -10.7612 C   0  0  0  0  0  0  0  0  0  0  0  0
   27.4621  -18.4718  -15.3521 N   0  0  0  0  0  0  0  0  0  0  0  0
   28.1541  -18.0111  -16.5194 C   0  0  0  0  0  0  0  0  0  0  0  0
   27.3916  -17.9426  -17.7495 C   0  0  0  0  0  0  0  0  0  0  0  0
   26.6600  -18.9010  -18.0891 O   0  0  0  0  0  0  0  0  0  0  0  0
   27.4362  -16.8181  -18.5987 N   0  0  0  0  0  0  0  0  0  0  0  0
   26.5323  -16.7119  -19.7432 C   0  0  1  0  0  0  0  0  0  0  0  0
   26.3971  -15.2623  -20.1933 C   0  0  0  0  0  0  0  0  0  0  0  0
   25.3355  -15.1193  -21.2113 C   0  0  0  0  0  0  0  0  0  0  0  0
   24.6718  -16.1370  -21.5733 O   0  0  0  0  0  0  0  0  0  0  0  0
   27.0804  -17.5220  -20.8329 C   0  0  0  0  0  0  0  0  0  0  0  0
   28.3249  -17.7555  -20.9315 O   0  0  0  0  0  0  0  0  0  0  0  0
   25.0427  -13.8835  -21.7893 O   0  0  0  0  0  0  0  0  0  0  0  0
   26.2871  -18.0893  -21.8292 O   0  0  0  0  0  0  0  0  0  0  0  0
  2  1  1  0
  2  3  2  0
  4  3  1  0
  5  4  2  0
  6  5  1  0
  6  7  1  0
  7  8  1  6
  9  7  1  0
  9 13  1  0
 10  9  2  0
 11 12  2  0
 11  5  1  0
 12  2  1  0
 14 13  1  0
 15 14  1  0
 16 15  2  0
 17 15  1  0
 18 19  1  6
 18 17  1  0
 19 20  1  0
 20 24  1  0
 21 20  2  0
 22 18  1  0
 23 22  2  0
 25 22  1  0
M  END
$$$$
