YGD.pdb
     RDKit          3D

 25 25  0  0  1  0  0  0  0  0999 V2000
   28.5732  -18.3522   -3.6253 O   0  0  0  0  0  0  0  0  0  0  0  0
   28.3001  -19.0772   -4.7908 C   0  0  0  0  0  0  0  0  0  0  0  0
   29.2173  -19.1383   -5.8105 C   0  0  0  0  0  0  0  0  0  0  0  0
   28.9649  -19.8485   -6.9669 C   0  0  0  0  0  0  0  0  0  0  0  0
   27.7656  -20.5129   -7.1051 C   0  0  0  0  0  0  0  0  0  0  0  0
   27.4993  -21.2735   -8.3482 C   0  0  0  0  0  0  0  0  0  0  0  0
   26.8887  -20.3184   -9.3470 C   0  0  2  0  0  0  0  0  0  0  0  0
   25.5658  -19.9890   -8.8644 N   0  0  0  0  0  0  0  0  0  0  0  0
   26.8479  -20.8449  -10.7039 C   0  0  0  0  0  0  0  0  0  0  0  0
   27.8054  -21.3721  -11.3133 O   0  0  0  0  0  0  0  0  0  0  0  0
   26.8494  -20.4424   -6.0677 C   0  0  0  0  0  0  0  0  0  0  0  0
   27.0900  -19.7341   -4.9037 C   0  0  0  0  0  0  0  0  0  0  0  0
   25.6116  -20.7682  -11.4378 N   0  0  0  0  0  0  0  0  0  0  0  0
   25.5063  -21.1924  -12.8026 C   0  0  0  0  0  0  0  0  0  0  0  0
   24.2026  -21.0821  -13.4249 C   0  0  0  0  0  0  0  0  0  0  0  0
   23.1698  -21.0448  -12.7170 O   0  0  0  0  0  0  0  0  0  0  0  0
   24.0422  -21.0107  -14.8238 N   0  0  0  0  0  0  0  0  0  0  0  0
   23.0640  -20.0996  -15.4164 C   0  0  1  0  0  0  0  0  0  0  0  0
   23.3352  -18.6621  -14.9895 C   0  0  0  0  0  0  0  0  0  0  0  0
   22.1277  -17.8248  -15.1463 C   0  0  0  0  0  0  0  0  0  0  0  0
   21.0706  -18.3319  -15.6288 O   0  0  0  0  0  0  0  0  0  0  0  0
   23.1608  -20.2125  -16.8731 C   0  0  0  0  0  0  0  0  0  0  0  0
   22.1287  -20.3219  -17.6051 O   0  0  0  0  0  0  0  0  0  0  0  0
   22.1209  -16.4799  -14.7747 O   0  0  0  0  0  0  0  0  0  0  0  0
   24.3769  -20.2082  -17.5549 O   0  0  0  0  0  0  0  0  0  0  0  0
  2  1  1  0
  2  3  2  0
  4  3  1  0
  5  4  2  0
  6  5  1  0
  6  7  1  0
  7  8  1  1
  9  7  1  0
  9 13  1  0
 10  9  2  0
 11 12  2  0
 11  5  1  0
 12  2  1  0
 14 13  1  0
 15 14  1  0
 16 15  2  0
 17 15  1  0
 18 19  1  6
 18 17  1  0
 19 20  1  0
 20 24  1  0
 21 20  2  0
 22 18  1  0
 23 22  2  0
 25 22  1  0
M  END
$$$$
