YGD.pdb
     RDKit          3D

 25 25  0  0  1  0  0  0  0  0999 V2000
   29.0862  -19.7986   -3.4522 O   0  0  0  0  0  0  0  0  0  0  0  0
   28.6966  -19.7362   -4.7950 C   0  0  0  0  0  0  0  0  0  0  0  0
   27.3908  -19.4845   -5.1360 C   0  0  0  0  0  0  0  0  0  0  0  0
   26.9888  -19.4194   -6.4549 C   0  0  0  0  0  0  0  0  0  0  0  0
   27.9166  -19.6111   -7.4556 C   0  0  0  0  0  0  0  0  0  0  0  0
   27.4802  -19.5405   -8.8696 C   0  0  0  0  0  0  0  0  0  0  0  0
   26.4118  -20.5895   -9.0715 C   0  0  2  0  0  0  0  0  0  0  0  0
   27.0478  -21.8785   -8.9112 N   0  0  0  0  0  0  0  0  0  0  0  0
   25.7301  -20.4848  -10.3538 C   0  0  0  0  0  0  0  0  0  0  0  0
   25.1192  -19.4781  -10.7775 O   0  0  0  0  0  0  0  0  0  0  0  0
   29.2310  -19.8643   -7.0965 C   0  0  0  0  0  0  0  0  0  0  0  0
   29.6468  -19.9321   -5.7786 C   0  0  0  0  0  0  0  0  0  0  0  0
   25.7408  -21.6218  -11.2368 N   0  0  0  0  0  0  0  0  0  0  0  0
   25.0408  -21.6240  -12.4874 C   0  0  0  0  0  0  0  0  0  0  0  0
   23.5936  -21.6597  -12.4288 C   0  0  0  0  0  0  0  0  0  0  0  0
   23.0009  -21.3768  -11.3621 O   0  0  0  0  0  0  0  0  0  0  0  0
   22.8054  -22.0042  -13.5459 N   0  0  0  0  0  0  0  0  0  0  0  0
   21.3694  -21.7289  -13.5584 C   0  0  1  0  0  0  0  0  0  0  0  0
   21.1038  -20.2341  -13.4280 C   0  0  0  0  0  0  0  0  0  0  0  0
   19.6555  -19.9454  -13.4819 C   0  0  0  0  0  0  0  0  0  0  0  0
   18.8981  -20.3586  -12.5529 O   0  0  0  0  0  0  0  0  0  0  0  0
   20.8221  -22.2228  -14.8236 C   0  0  0  0  0  0  0  0  0  0  0  0
   19.7718  -22.9357  -14.8645 O   0  0  0  0  0  0  0  0  0  0  0  0
   19.0955  -19.2246  -14.5373 O   0  0  0  0  0  0  0  0  0  0  0  0
   21.4059  -21.9507  -16.0600 O   0  0  0  0  0  0  0  0  0  0  0  0
  2  1  1  0
  2  3  2  0
  4  3  1  0
  5  4  2  0
  6  5  1  0
  6  7  1  0
  7  8  1  6
  9  7  1  0
  9 13  1  0
 10  9  2  0
 11 12  2  0
 11  5  1  0
 12  2  1  0
 14 13  1  0
 15 14  1  0
 16 15  2  0
 17 15  1  0
 18 19  1  6
 18 17  1  0
 19 20  1  0
 20 24  1  0
 21 20  2  0
 22 18  1  0
 23 22  2  0
 25 22  1  0
M  END
$$$$
