YGD.pdb
     RDKit          3D

 25 25  0  0  1  0  0  0  0  0999 V2000
   29.0532  -16.6015  -23.3867 O   0  0  0  0  0  0  0  0  0  0  0  0
   27.7159  -16.4041  -23.0243 C   0  0  0  0  0  0  0  0  0  0  0  0
   27.1763  -17.0616  -21.9465 C   0  0  0  0  0  0  0  0  0  0  0  0
   25.8596  -16.8790  -21.5748 C   0  0  0  0  0  0  0  0  0  0  0  0
   25.0647  -16.0179  -22.2996 C   0  0  0  0  0  0  0  0  0  0  0  0
   23.6521  -15.8255  -21.8968 C   0  0  0  0  0  0  0  0  0  0  0  0
   23.5909  -14.6012  -21.0137 C   0  0  2  0  0  0  0  0  0  0  0  0
   24.2768  -14.9310  -19.7839 N   0  0  0  0  0  0  0  0  0  0  0  0
   22.2350  -14.1341  -20.7617 C   0  0  0  0  0  0  0  0  0  0  0  0
   21.3996  -13.8077  -21.6345 O   0  0  0  0  0  0  0  0  0  0  0  0
   25.6228  -15.3611  -23.3849 C   0  0  0  0  0  0  0  0  0  0  0  0
   26.9409  -15.5352  -23.7679 C   0  0  0  0  0  0  0  0  0  0  0  0
   21.7833  -14.0269  -19.3989 N   0  0  0  0  0  0  0  0  0  0  0  0
   20.4557  -13.6022  -19.0658 C   0  0  0  0  0  0  0  0  0  0  0  0
   19.4628  -14.6405  -18.8777 C   0  0  0  0  0  0  0  0  0  0  0  0
   18.3426  -14.3580  -18.3934 O   0  0  0  0  0  0  0  0  0  0  0  0
   19.7069  -15.9846  -19.2262 N   0  0  0  0  0  0  0  0  0  0  0  0
   18.6591  -16.9942  -19.0820 C   0  0  1  0  0  0  0  0  0  0  0  0
   18.9337  -18.1916  -19.9836 C   0  0  0  0  0  0  0  0  0  0  0  0
   17.6946  -18.6563  -20.6413 C   0  0  0  0  0  0  0  0  0  0  0  0
   16.6015  -18.0544  -20.4173 O   0  0  0  0  0  0  0  0  0  0  0  0
   18.6289  -17.4223  -17.6821 C   0  0  0  0  0  0  0  0  0  0  0  0
   19.6915  -17.7044  -17.0463 O   0  0  0  0  0  0  0  0  0  0  0  0
   17.6964  -19.7492  -21.5088 O   0  0  0  0  0  0  0  0  0  0  0  0
   17.4471  -17.5500  -16.9535 O   0  0  0  0  0  0  0  0  0  0  0  0
  2  1  1  0
  2  3  2  0
  4  3  1  0
  5  4  2  0
  6  5  1  0
  6  7  1  0
  7  8  1  1
  9  7  1  0
  9 13  1  0
 10  9  2  0
 11 12  2  0
 11  5  1  0
 12  2  1  0
 14 13  1  0
 15 14  1  0
 16 15  2  0
 17 15  1  0
 18 19  1  6
 18 17  1  0
 19 20  1  0
 20 24  1  0
 21 20  2  0
 22 18  1  0
 23 22  2  0
 25 22  1  0
M  END
$$$$
