YGD.pdb
     RDKit          3D

 25 25  0  0  1  0  0  0  0  0999 V2000
   31.9485  -26.4965  -17.4716 O   0  0  0  0  0  0  0  0  0  0  0  0
   31.0270  -25.4432  -17.4765 C   0  0  0  0  0  0  0  0  0  0  0  0
   29.9333  -25.4713  -18.3059 C   0  0  0  0  0  0  0  0  0  0  0  0
   29.0143  -24.4415  -18.3238 C   0  0  0  0  0  0  0  0  0  0  0  0
   29.1953  -23.3582  -17.4916 C   0  0  0  0  0  0  0  0  0  0  0  0
   28.2063  -22.2553  -17.5147 C   0  0  0  0  0  0  0  0  0  0  0  0
   27.5628  -22.1891  -16.1494 C   0  0  2  0  0  0  0  0  0  0  0  0
   26.8156  -23.4147  -15.9732 N   0  0  0  0  0  0  0  0  0  0  0  0
   26.7204  -21.0167  -15.9607 C   0  0  0  0  0  0  0  0  0  0  0  0
   27.0711  -19.8280  -16.1347 O   0  0  0  0  0  0  0  0  0  0  0  0
   30.3036  -23.3435  -16.6598 C   0  0  0  0  0  0  0  0  0  0  0  0
   31.2320  -24.3691  -16.6322 C   0  0  0  0  0  0  0  0  0  0  0  0
   25.3576  -21.2062  -15.5369 N   0  0  0  0  0  0  0  0  0  0  0  0
   24.4602  -20.1068  -15.3373 C   0  0  0  0  0  0  0  0  0  0  0  0
   23.5819  -20.1777  -14.1872 C   0  0  0  0  0  0  0  0  0  0  0  0
   23.7564  -19.4071  -13.2151 O   0  0  0  0  0  0  0  0  0  0  0  0
   22.5137  -21.0949  -14.1139 N   0  0  0  0  0  0  0  0  0  0  0  0
   21.1969  -20.6694  -13.6413 C   0  0  1  0  0  0  0  0  0  0  0  0
   20.6041  -19.6149  -14.5680 C   0  0  0  0  0  0  0  0  0  0  0  0
   19.3019  -19.1343  -14.0611 C   0  0  0  0  0  0  0  0  0  0  0  0
   18.9038  -19.4943  -12.9124 O   0  0  0  0  0  0  0  0  0  0  0  0
   20.3250  -21.8452  -13.6035 C   0  0  0  0  0  0  0  0  0  0  0  0
   20.3724  -22.7416  -14.5021 O   0  0  0  0  0  0  0  0  0  0  0  0
   18.4924  -18.2883  -14.8201 O   0  0  0  0  0  0  0  0  0  0  0  0
   19.3911  -22.0646  -12.5920 O   0  0  0  0  0  0  0  0  0  0  0  0
  2  1  1  0
  2  3  2  0
  4  3  1  0
  5  4  2  0
  6  5  1  0
  6  7  1  0
  7  8  1  6
  9  7  1  0
  9 13  1  0
 10  9  2  0
 11 12  2  0
 11  5  1  0
 12  2  1  0
 14 13  1  0
 15 14  1  0
 16 15  2  0
 17 15  1  0
 18 19  1  6
 18 17  1  0
 19 20  1  0
 20 24  1  0
 21 20  2  0
 22 18  1  0
 23 22  2  0
 25 22  1  0
M  END
$$$$
