VFK.pdb
     RDKit          3D

 28 28  0  0  1  0  0  0  0  0999 V2000
    7.8842  -14.0393   17.4447 C   0  0  0  0  0  0  0  0  0  0  0  0
    7.7656  -13.7304   18.9216 C   0  0  2  0  0  0  0  0  0  0  0  0
    8.4062  -12.3675   19.1266 C   0  0  0  0  0  0  0  0  0  0  0  0
    8.5116  -14.7749   19.7102 C   0  0  2  0  0  0  0  0  0  0  0  0
    7.8776  -16.0677   19.5964 N   0  0  0  0  0  0  0  0  0  0  0  0
    8.6545  -14.4265   21.1342 C   0  0  0  0  0  0  0  0  0  0  0  0
    9.5428  -13.5905   21.4475 O   0  0  0  0  0  0  0  0  0  0  0  0
    7.8706  -14.9594   22.1722 N   0  0  0  0  0  0  0  0  0  0  0  0
    8.0872  -14.6745   23.5904 C   0  0  1  0  0  0  0  0  0  0  0  0
    6.8066  -14.1035   24.1055 C   0  0  0  0  0  0  0  0  0  0  0  0
    6.9264  -13.5770   25.4769 C   0  0  0  0  0  0  0  0  0  0  0  0
    7.4815  -12.3332   25.7724 C   0  0  0  0  0  0  0  0  0  0  0  0
    7.5772  -11.8680   27.0772 C   0  0  0  0  0  0  0  0  0  0  0  0
    7.1186  -12.6418   28.1034 C   0  0  0  0  0  0  0  0  0  0  0  0
    6.5693  -13.8711   27.8180 C   0  0  0  0  0  0  0  0  0  0  0  0
    6.4646  -14.3514   26.5331 C   0  0  0  0  0  0  0  0  0  0  0  0
    8.5759  -15.8587   24.3129 C   0  0  0  0  0  0  0  0  0  0  0  0
    7.9474  -16.9449   24.2304 O   0  0  0  0  0  0  0  0  0  0  0  0
    9.7474  -15.7662   25.0934 N   0  0  0  0  0  0  0  0  0  0  0  0
   10.3225  -16.9248   25.7826 C   0  0  1  0  0  0  0  0  0  0  0  0
   11.6592  -17.2518   25.1551 C   0  0  0  0  0  0  0  0  0  0  0  0
   11.8240  -18.6587   24.7171 C   0  0  0  0  0  0  0  0  0  0  0  0
   13.1619  -18.8806   24.0454 C   0  0  0  0  0  0  0  0  0  0  0  0
   13.3776  -20.3140   23.6918 C   0  0  0  0  0  0  0  0  0  0  0  0
   14.6065  -20.5045   22.9396 N   0  0  0  0  0  0  0  0  0  0  0  0
   10.3711  -16.7059   27.2360 C   0  0  0  0  0  0  0  0  0  0  0  0
   10.2391  -15.5980   27.8013 O   0  0  0  0  0  0  0  0  0  0  0  0
   10.5800  -17.7909   28.1139 O   0  0  0  0  0  0  0  0  0  0  0  0
  2  1  1  6
  3  2  1  0
  4  2  1  0
  4  5  1  1
  6  7  2  0
  6  4  1  0
  8  6  1  0
  9  8  1  0
  9 10  1  1
 10 11  1  0
 11 16  2  0
 11 12  1  0
 12 13  2  0
 13 14  1  0
 15 14  2  0
 16 15  1  0
 17  9  1  0
 18 17  2  0
 19 17  1  0
 20 21  1  6
 20 19  1  0
 21 22  1  0
 22 23  1  0
 23 24  1  0
 25 24  1  0
 26 28  1  0
 26 20  1  0
 27 26  2  0
M  END
$$$$
