VFK.pdb
     RDKit          3D

 28 28  0  0  1  0  0  0  0  0999 V2000
    7.8764  -18.4987   18.3102 C   0  0  0  0  0  0  0  0  0  0  0  0
    8.2447  -17.9994   19.6907 C   0  0  2  0  0  0  0  0  0  0  0  0
    7.0376  -18.2603   20.5766 C   0  0  0  0  0  0  0  0  0  0  0  0
    8.5276  -16.5212   19.6265 C   0  0  2  0  0  0  0  0  0  0  0  0
    9.6222  -16.2368   18.7280 N   0  0  0  0  0  0  0  0  0  0  0  0
    8.8157  -15.9333   20.9459 C   0  0  0  0  0  0  0  0  0  0  0  0
    9.9400  -16.1708   21.4613 O   0  0  0  0  0  0  0  0  0  0  0  0
    7.9262  -15.1246   21.6746 N   0  0  0  0  0  0  0  0  0  0  0  0
    8.1949  -14.6191   23.0205 C   0  0  1  0  0  0  0  0  0  0  0  0
    7.1423  -13.5981   23.3048 C   0  0  0  0  0  0  0  0  0  0  0  0
    7.1900  -13.0987   24.6905 C   0  0  0  0  0  0  0  0  0  0  0  0
    6.2245  -13.4060   25.6476 C   0  0  0  0  0  0  0  0  0  0  0  0
    6.3021  -12.9185   26.9454 C   0  0  0  0  0  0  0  0  0  0  0  0
    7.3471  -12.1167   27.3023 C   0  0  0  0  0  0  0  0  0  0  0  0
    8.3038  -11.8096   26.3617 C   0  0  0  0  0  0  0  0  0  0  0  0
    8.2467  -12.2816   25.0707 C   0  0  0  0  0  0  0  0  0  0  0  0
    8.2842  -15.7110   24.0020 C   0  0  0  0  0  0  0  0  0  0  0  0
    7.3015  -16.4759   24.1774 O   0  0  0  0  0  0  0  0  0  0  0  0
    9.4734  -15.8915   24.7393 N   0  0  0  0  0  0  0  0  0  0  0  0
    9.6913  -17.0573   25.6002 C   0  0  1  0  0  0  0  0  0  0  0  0
   10.6776  -17.9845   24.9257 C   0  0  0  0  0  0  0  0  0  0  0  0
   11.0348  -19.1978   25.6996 C   0  0  0  0  0  0  0  0  0  0  0  0
   10.5578  -20.4585   25.0116 C   0  0  0  0  0  0  0  0  0  0  0  0
   11.4154  -20.8155   23.8440 C   0  0  0  0  0  0  0  0  0  0  0  0
   12.0730  -22.0981   24.0304 N   0  0  0  0  0  0  0  0  0  0  0  0
   10.0749  -16.6474   26.9595 C   0  0  0  0  0  0  0  0  0  0  0  0
   10.5859  -15.5464   27.2615 O   0  0  0  0  0  0  0  0  0  0  0  0
    9.8760  -17.5204   28.0503 O   0  0  0  0  0  0  0  0  0  0  0  0
  2  1  1  6
  3  2  1  0
  4  2  1  0
  4  5  1  6
  6  7  2  0
  6  4  1  0
  8  6  1  0
  9  8  1  0
  9 10  1  1
 10 11  1  0
 11 16  2  0
 11 12  1  0
 12 13  2  0
 13 14  1  0
 15 14  2  0
 16 15  1  0
 17  9  1  0
 18 17  2  0
 19 17  1  0
 20 21  1  6
 20 19  1  0
 21 22  1  0
 22 23  1  0
 23 24  1  0
 25 24  1  0
 26 28  1  0
 26 20  1  0
 27 26  2  0
M  END
$$$$
