VFK.pdb
     RDKit          3D

 28 28  0  0  1  0  0  0  0  0999 V2000
    7.3467  -12.6313   19.4286 C   0  0  0  0  0  0  0  0  0  0  0  0
    8.4120  -13.4555   18.7384 C   0  0  2  0  0  0  0  0  0  0  0  0
    7.9098  -13.7083   17.3263 C   0  0  0  0  0  0  0  0  0  0  0  0
    8.5805  -14.7629   19.4677 C   0  0  2  0  0  0  0  0  0  0  0  0
    7.4351  -15.6212   19.2737 N   0  0  0  0  0  0  0  0  0  0  0  0
    8.8197  -14.5893   20.9106 C   0  0  0  0  0  0  0  0  0  0  0  0
    9.9569  -14.1870   21.2726 O   0  0  0  0  0  0  0  0  0  0  0  0
    7.8702  -14.8401   21.9164 N   0  0  0  0  0  0  0  0  0  0  0  0
    8.0878  -14.5605   23.3355 C   0  0  1  0  0  0  0  0  0  0  0  0
    6.8161  -13.9674   23.8475 C   0  0  0  0  0  0  0  0  0  0  0  0
    6.9121  -13.5359   25.2535 C   0  0  0  0  0  0  0  0  0  0  0  0
    6.5525  -14.3471   26.3283 C   0  0  0  0  0  0  0  0  0  0  0  0
    6.6575  -13.9078   27.6413 C   0  0  0  0  0  0  0  0  0  0  0  0
    7.1237  -12.6508   27.8958 C   0  0  0  0  0  0  0  0  0  0  0  0
    7.4805  -11.8450   26.8386 C   0  0  0  0  0  0  0  0  0  0  0  0
    7.3847  -12.2597   25.5304 C   0  0  0  0  0  0  0  0  0  0  0  0
    8.5534  -15.7539   24.0581 C   0  0  0  0  0  0  0  0  0  0  0  0
    7.8681  -16.8080   24.0312 O   0  0  0  0  0  0  0  0  0  0  0  0
    9.7667  -15.7061   24.7763 N   0  0  0  0  0  0  0  0  0  0  0  0
   10.2438  -16.8328   25.5830 C   0  0  1  0  0  0  0  0  0  0  0  0
   11.5062  -17.3816   24.9565 C   0  0  0  0  0  0  0  0  0  0  0  0
   11.3843  -17.7774   23.5328 C   0  0  0  0  0  0  0  0  0  0  0  0
   12.6789  -18.3535   23.0012 C   0  0  0  0  0  0  0  0  0  0  0  0
   12.5723  -18.7301   21.5614 C   0  0  0  0  0  0  0  0  0  0  0  0
   13.8231  -19.2652   21.0502 N   0  0  0  0  0  0  0  0  0  0  0  0
   10.3838  -16.4505   26.9962 C   0  0  0  0  0  0  0  0  0  0  0  0
   10.4133  -15.2755   27.4238 O   0  0  0  0  0  0  0  0  0  0  0  0
   10.4980  -17.4410   27.9949 O   0  0  0  0  0  0  0  0  0  0  0  0
  2  1  1  1
  3  2  1  0
  4  2  1  0
  4  5  1  1
  6  7  2  0
  6  4  1  0
  8  6  1  0
  9  8  1  0
  9 10  1  1
 10 11  1  0
 11 16  2  0
 11 12  1  0
 12 13  2  0
 13 14  1  0
 15 14  2  0
 16 15  1  0
 17  9  1  0
 18 17  2  0
 19 17  1  0
 20 21  1  6
 20 19  1  0
 21 22  1  0
 22 23  1  0
 23 24  1  0
 25 24  1  0
 26 28  1  0
 26 20  1  0
 27 26  2  0
M  END
$$$$
