VFK.pdb
     RDKit          3D

 28 28  0  0  1  0  0  0  0  0999 V2000
   10.3450  -17.7203   18.5512 C   0  0  0  0  0  0  0  0  0  0  0  0
   10.5045  -16.7837   19.7293 C   0  0  2  0  0  0  0  0  0  0  0  0
   11.9541  -16.8955   20.1721 C   0  0  0  0  0  0  0  0  0  0  0  0
    9.5897  -17.2235   20.8424 C   0  0  2  0  0  0  0  0  0  0  0  0
    8.2351  -17.3920   20.3703 N   0  0  0  0  0  0  0  0  0  0  0  0
    9.5940  -16.2989   21.9890 C   0  0  0  0  0  0  0  0  0  0  0  0
   10.7056  -16.0101   22.5058 O   0  0  0  0  0  0  0  0  0  0  0  0
    8.4461  -15.7133   22.5506 N   0  0  0  0  0  0  0  0  0  0  0  0
    8.4460  -14.9388   23.7914 C   0  0  1  0  0  0  0  0  0  0  0  0
    7.3250  -13.9584   23.6757 C   0  0  0  0  0  0  0  0  0  0  0  0
    7.1274  -13.1688   24.9043 C   0  0  0  0  0  0  0  0  0  0  0  0
    7.9309  -12.0848   25.2539 C   0  0  0  0  0  0  0  0  0  0  0  0
    7.7147  -11.3620   26.4195 C   0  0  0  0  0  0  0  0  0  0  0  0
    6.6915  -11.7146   27.2508 C   0  0  0  0  0  0  0  0  0  0  0  0
    5.8946  -12.7841   26.9111 C   0  0  0  0  0  0  0  0  0  0  0  0
    6.0907  -13.5139   25.7615 C   0  0  0  0  0  0  0  0  0  0  0  0
    8.3910  -15.8105   24.9748 C   0  0  0  0  0  0  0  0  0  0  0  0
    7.4318  -16.6112   25.1174 O   0  0  0  0  0  0  0  0  0  0  0  0
    9.4165  -15.7413   25.9412 N   0  0  0  0  0  0  0  0  0  0  0  0
    9.8314  -16.9067   26.7271 C   0  0  1  0  0  0  0  0  0  0  0  0
   10.4268  -17.9375   25.7943 C   0  0  0  0  0  0  0  0  0  0  0  0
   10.9263  -19.1696   26.4507 C   0  0  0  0  0  0  0  0  0  0  0  0
   11.4364  -20.1730   25.4390 C   0  0  0  0  0  0  0  0  0  0  0  0
   11.9919  -21.3928   26.0943 C   0  0  0  0  0  0  0  0  0  0  0  0
   12.5454  -22.3217   25.1232 N   0  0  0  0  0  0  0  0  0  0  0  0
   10.7120  -16.5108   27.8365 C   0  0  0  0  0  0  0  0  0  0  0  0
   10.8955  -17.1740   28.8810 O   0  0  0  0  0  0  0  0  0  0  0  0
   11.4331  -15.2992   27.7769 O   0  0  0  0  0  0  0  0  0  0  0  0
  2  1  1  6
  3  2  1  0
  4  2  1  0
  4  5  1  6
  6  7  2  0
  6  4  1  0
  8  6  1  0
  9  8  1  0
  9 10  1  6
 10 11  1  0
 11 16  2  0
 11 12  1  0
 12 13  2  0
 13 14  1  0
 15 14  2  0
 16 15  1  0
 17  9  1  0
 18 17  2  0
 19 17  1  0
 20 21  1  6
 20 19  1  0
 21 22  1  0
 22 23  1  0
 23 24  1  0
 25 24  1  0
 26 28  1  0
 26 20  1  0
 27 26  2  0
M  END
$$$$
