VFK.pdb
     RDKit          3D

 28 28  0  0  1  0  0  0  0  0999 V2000
    9.2459  -18.0813   17.7906 C   0  0  0  0  0  0  0  0  0  0  0  0
    9.6052  -17.0935   18.8796 C   0  0  2  0  0  0  0  0  0  0  0  0
   11.1114  -16.9039   18.8057 C   0  0  0  0  0  0  0  0  0  0  0  0
    9.2227  -17.6677   20.2187 C   0  0  2  0  0  0  0  0  0  0  0  0
    7.8724  -18.1801   20.2015 N   0  0  0  0  0  0  0  0  0  0  0  0
    9.3619  -16.6996   21.3201 C   0  0  0  0  0  0  0  0  0  0  0  0
   10.5166  -16.2697   21.5810 O   0  0  0  0  0  0  0  0  0  0  0  0
    8.2985  -16.2187   22.1036 N   0  0  0  0  0  0  0  0  0  0  0  0
    8.4694  -15.3740   23.2854 C   0  0  1  0  0  0  0  0  0  0  0  0
    7.2137  -14.5760   23.4177 C   0  0  0  0  0  0  0  0  0  0  0  0
    7.2020  -13.7240   24.6203 C   0  0  0  0  0  0  0  0  0  0  0  0
    7.9049  -12.5241   24.7139 C   0  0  0  0  0  0  0  0  0  0  0  0
    7.8700  -11.7455   25.8630 C   0  0  0  0  0  0  0  0  0  0  0  0
    7.1312  -12.1577   26.9337 C   0  0  0  0  0  0  0  0  0  0  0  0
    6.4349  -13.3417   26.8475 C   0  0  0  0  0  0  0  0  0  0  0  0
    6.4553  -14.1285   25.7191 C   0  0  0  0  0  0  0  0  0  0  0  0
    8.8312  -16.1664   24.4705 C   0  0  0  0  0  0  0  0  0  0  0  0
    8.0503  -17.0596   24.8876 O   0  0  0  0  0  0  0  0  0  0  0  0
   10.0531  -15.9177   25.1303 N   0  0  0  0  0  0  0  0  0  0  0  0
   10.5359  -16.7604   26.2279 C   0  0  1  0  0  0  0  0  0  0  0  0
   12.0068  -17.0419   26.0165 C   0  0  0  0  0  0  0  0  0  0  0  0
   12.3277  -18.4156   25.5601 C   0  0  0  0  0  0  0  0  0  0  0  0
   13.2436  -18.4032   24.3554 C   0  0  0  0  0  0  0  0  0  0  0  0
   13.4841  -19.7763   23.8234 C   0  0  0  0  0  0  0  0  0  0  0  0
   14.2846  -19.7519   22.6106 N   0  0  0  0  0  0  0  0  0  0  0  0
   10.2128  -16.1657   27.5336 C   0  0  0  0  0  0  0  0  0  0  0  0
    9.9657  -14.9556   27.7314 O   0  0  0  0  0  0  0  0  0  0  0  0
   10.1622  -16.9713   28.6911 O   0  0  0  0  0  0  0  0  0  0  0  0
  2  1  1  6
  3  2  1  0
  4  2  1  0
  4  5  1  6
  6  7  2  0
  6  4  1  0
  8  6  1  0
  9  8  1  0
  9 10  1  1
 10 11  1  0
 11 16  2  0
 11 12  1  0
 12 13  2  0
 13 14  1  0
 15 14  2  0
 16 15  1  0
 17  9  1  0
 18 17  2  0
 19 17  1  0
 20 21  1  6
 20 19  1  0
 21 22  1  0
 22 23  1  0
 23 24  1  0
 25 24  1  0
 26 28  1  0
 26 20  1  0
 27 26  2  0
M  END
$$$$
