VFK.pdb
     RDKit          3D

 28 28  0  0  1  0  0  0  0  0999 V2000
    9.3112  -19.2809   20.6264 C   0  0  0  0  0  0  0  0  0  0  0  0
    7.8629  -18.9094   20.3914 C   0  0  2  0  0  0  0  0  0  0  0  0
    7.3783  -19.7801   19.2439 C   0  0  0  0  0  0  0  0  0  0  0  0
    7.7779  -17.4553   20.0071 C   0  0  2  0  0  0  0  0  0  0  0  0
    8.5703  -17.1779   18.8317 N   0  0  0  0  0  0  0  0  0  0  0  0
    8.1858  -16.5488   21.0940 C   0  0  0  0  0  0  0  0  0  0  0  0
    9.3728  -16.1279   21.0927 O   0  0  0  0  0  0  0  0  0  0  0  0
    7.3460  -16.1174   22.1354 N   0  0  0  0  0  0  0  0  0  0  0  0
    7.7986  -15.3194   23.2746 C   0  0  1  0  0  0  0  0  0  0  0  0
    6.5964  -14.5949   23.7854 C   0  0  0  0  0  0  0  0  0  0  0  0
    6.8773  -13.8055   24.9979 C   0  0  0  0  0  0  0  0  0  0  0  0
    6.5925  -14.2553   26.2860 C   0  0  0  0  0  0  0  0  0  0  0  0
    6.8721  -13.4847   27.4067 C   0  0  0  0  0  0  0  0  0  0  0  0
    7.4404  -12.2536   27.2529 C   0  0  0  0  0  0  0  0  0  0  0  0
    7.7241  -11.8038   25.9834 C   0  0  0  0  0  0  0  0  0  0  0  0
    7.4556  -12.5504   24.8595 C   0  0  0  0  0  0  0  0  0  0  0  0
    8.4980  -16.1448   24.2711 C   0  0  0  0  0  0  0  0  0  0  0  0
    7.9462  -17.1803   24.7235 O   0  0  0  0  0  0  0  0  0  0  0  0
    9.7841  -15.7675   24.7115 N   0  0  0  0  0  0  0  0  0  0  0  0
   10.5750  -16.5998   25.6224 C   0  0  1  0  0  0  0  0  0  0  0  0
   11.9905  -16.6889   25.0972 C   0  0  0  0  0  0  0  0  0  0  0  0
   12.1125  -17.0940   23.6761 C   0  0  0  0  0  0  0  0  0  0  0  0
   13.5587  -17.1467   23.2334 C   0  0  0  0  0  0  0  0  0  0  0  0
   13.6984  -17.6771   21.8459 C   0  0  0  0  0  0  0  0  0  0  0  0
   15.0885  -17.7246   21.4244 N   0  0  0  0  0  0  0  0  0  0  0  0
   10.4704  -16.1158   27.0072 C   0  0  0  0  0  0  0  0  0  0  0  0
   10.2235  -14.9357   27.3400 O   0  0  0  0  0  0  0  0  0  0  0  0
   10.6528  -17.0040   28.0886 O   0  0  0  0  0  0  0  0  0  0  0  0
  2  1  1  6
  3  2  1  0
  4  2  1  0
  4  5  1  6
  6  7  2  0
  6  4  1  0
  8  6  1  0
  9  8  1  0
  9 10  1  1
 10 11  1  0
 11 16  2  0
 11 12  1  0
 12 13  2  0
 13 14  1  0
 15 14  2  0
 16 15  1  0
 17  9  1  0
 18 17  2  0
 19 17  1  0
 20 21  1  6
 20 19  1  0
 21 22  1  0
 22 23  1  0
 23 24  1  0
 25 24  1  0
 26 28  1  0
 26 20  1  0
 27 26  2  0
M  END
$$$$
