VFK.pdb
     RDKit          3D

 28 28  0  0  1  0  0  0  0  0999 V2000
    9.3121  -18.1988   18.1592 C   0  0  0  0  0  0  0  0  0  0  0  0
    9.5831  -17.2169   19.2786 C   0  0  2  0  0  0  0  0  0  0  0  0
   10.8644  -17.6792   19.9529 C   0  0  0  0  0  0  0  0  0  0  0  0
    8.4413  -17.2537   20.2606 C   0  0  2  0  0  0  0  0  0  0  0  0
    7.1696  -17.1188   19.5891 N   0  0  0  0  0  0  0  0  0  0  0  0
    8.5504  -16.2236   21.3077 C   0  0  0  0  0  0  0  0  0  0  0  0
    9.4575  -15.3583   21.1873 O   0  0  0  0  0  0  0  0  0  0  0  0
    7.7148  -16.1345   22.4346 N   0  0  0  0  0  0  0  0  0  0  0  0
    7.9822  -15.2728   23.5858 C   0  0  1  0  0  0  0  0  0  0  0  0
    6.7149  -14.5313   23.8602 C   0  0  0  0  0  0  0  0  0  0  0  0
    6.8118  -13.6502   25.0376 C   0  0  0  0  0  0  0  0  0  0  0  0
    7.4147  -12.3939   25.0047 C   0  0  0  0  0  0  0  0  0  0  0  0
    7.4869  -11.5893   26.1340 C   0  0  0  0  0  0  0  0  0  0  0  0
    6.9567  -12.0314   27.3111 C   0  0  0  0  0  0  0  0  0  0  0  0
    6.3600  -13.2711   27.3500 C   0  0  0  0  0  0  0  0  0  0  0  0
    6.2774  -14.0845   26.2435 C   0  0  0  0  0  0  0  0  0  0  0  0
    8.5146  -16.0378   24.7236 C   0  0  0  0  0  0  0  0  0  0  0  0
    7.8602  -17.0067   25.1867 O   0  0  0  0  0  0  0  0  0  0  0  0
    9.7571  -15.6778   25.2868 N   0  0  0  0  0  0  0  0  0  0  0  0
   10.3896  -16.4602   26.3525 C   0  0  1  0  0  0  0  0  0  0  0  0
   11.7803  -16.8551   25.9083 C   0  0  0  0  0  0  0  0  0  0  0  0
   11.8592  -17.4946   24.5730 C   0  0  0  0  0  0  0  0  0  0  0  0
   13.2782  -17.8912   24.2274 C   0  0  0  0  0  0  0  0  0  0  0  0
   13.3815  -18.4474   22.8468 C   0  0  0  0  0  0  0  0  0  0  0  0
   14.7485  -18.8111   22.5131 N   0  0  0  0  0  0  0  0  0  0  0  0
   10.3426  -15.7426   27.6353 C   0  0  0  0  0  0  0  0  0  0  0  0
   10.1628  -14.5116   27.7647 O   0  0  0  0  0  0  0  0  0  0  0  0
   10.5063  -16.4421   28.8500 O   0  0  0  0  0  0  0  0  0  0  0  0
  2  1  1  6
  3  2  1  0
  4  2  1  0
  4  5  1  6
  6  7  2  0
  6  4  1  0
  8  6  1  0
  9  8  1  0
  9 10  1  1
 10 11  1  0
 11 16  2  0
 11 12  1  0
 12 13  2  0
 13 14  1  0
 15 14  2  0
 16 15  1  0
 17  9  1  0
 18 17  2  0
 19 17  1  0
 20 21  1  6
 20 19  1  0
 21 22  1  0
 22 23  1  0
 23 24  1  0
 25 24  1  0
 26 28  1  0
 26 20  1  0
 27 26  2  0
M  END
$$$$
