VFK.pdb
     RDKit          3D

 28 28  0  0  1  0  0  0  0  0999 V2000
    7.5039  -13.3587   19.0296 C   0  0  0  0  0  0  0  0  0  0  0  0
    8.4376  -14.4529   18.5588 C   0  0  2  0  0  0  0  0  0  0  0  0
    7.9065  -14.9194   17.2133 C   0  0  0  0  0  0  0  0  0  0  0  0
    8.4102  -15.5900   19.5465 C   0  0  2  0  0  0  0  0  0  0  0  0
    7.1487  -16.2920   19.5008 N   0  0  0  0  0  0  0  0  0  0  0  0
    8.6763  -15.1569   20.9290 C   0  0  0  0  0  0  0  0  0  0  0  0
    9.8122  -14.6771   21.1852 O   0  0  0  0  0  0  0  0  0  0  0  0
    7.7538  -15.2396   21.9864 N   0  0  0  0  0  0  0  0  0  0  0  0
    8.0376  -14.8105   23.3556 C   0  0  1  0  0  0  0  0  0  0  0  0
    6.7852  -14.1764   23.8662 C   0  0  0  0  0  0  0  0  0  0  0  0
    6.9757  -13.4953   25.1592 C   0  0  0  0  0  0  0  0  0  0  0  0
    6.6774  -14.0863   26.3858 C   0  0  0  0  0  0  0  0  0  0  0  0
    6.8708  -13.4150   27.5857 C   0  0  0  0  0  0  0  0  0  0  0  0
    7.3653  -12.1431   27.5738 C   0  0  0  0  0  0  0  0  0  0  0  0
    7.6618  -11.5540   26.3658 C   0  0  0  0  0  0  0  0  0  0  0  0
    7.4780  -12.2006   25.1654 C   0  0  0  0  0  0  0  0  0  0  0  0
    8.5535  -15.9176   24.1749 C   0  0  0  0  0  0  0  0  0  0  0  0
    7.9090  -16.9951   24.2471 O   0  0  0  0  0  0  0  0  0  0  0  0
    9.7690  -15.7615   24.8738 N   0  0  0  0  0  0  0  0  0  0  0  0
   10.4167  -16.8731   25.5758 C   0  0  1  0  0  0  0  0  0  0  0  0
   11.8318  -17.0167   25.0616 C   0  0  0  0  0  0  0  0  0  0  0  0
   11.9619  -17.1077   23.5875 C   0  0  0  0  0  0  0  0  0  0  0  0
   12.8227  -18.2821   23.1750 C   0  0  0  0  0  0  0  0  0  0  0  0
   13.0539  -18.3140   21.7013 C   0  0  0  0  0  0  0  0  0  0  0  0
   13.9547  -19.3889   21.3202 N   0  0  0  0  0  0  0  0  0  0  0  0
   10.3139  -16.7102   27.0338 C   0  0  0  0  0  0  0  0  0  0  0  0
   10.6430  -17.5717   27.8788 O   0  0  0  0  0  0  0  0  0  0  0  0
    9.8126  -15.5111   27.5838 O   0  0  0  0  0  0  0  0  0  0  0  0
  2  1  1  1
  3  2  1  0
  4  2  1  0
  4  5  1  1
  6  7  2  0
  6  4  1  0
  8  6  1  0
  9  8  1  0
  9 10  1  1
 10 11  1  0
 11 16  2  0
 11 12  1  0
 12 13  2  0
 13 14  1  0
 15 14  2  0
 16 15  1  0
 17  9  1  0
 18 17  2  0
 19 17  1  0
 20 21  1  1
 20 19  1  0
 21 22  1  0
 22 23  1  0
 23 24  1  0
 25 24  1  0
 26 28  1  0
 26 20  1  0
 27 26  2  0
M  END
$$$$
