VFK.pdb
     RDKit          3D

 28 28  0  0  1  0  0  0  0  0999 V2000
   10.1145  -19.0298   21.0493 C   0  0  0  0  0  0  0  0  0  0  0  0
    8.8602  -18.4759   20.4085 C   0  0  2  0  0  0  0  0  0  0  0  0
    8.6700  -19.2405   19.1088 C   0  0  0  0  0  0  0  0  0  0  0  0
    9.0536  -17.0099   20.1210 C   0  0  2  0  0  0  0  0  0  0  0  0
   10.1673  -16.7949   19.2266 N   0  0  0  0  0  0  0  0  0  0  0  0
    9.2460  -16.2057   21.3399 C   0  0  0  0  0  0  0  0  0  0  0  0
   10.4085  -16.1358   21.8193 O   0  0  0  0  0  0  0  0  0  0  0  0
    8.2255  -15.5085   22.0095 N   0  0  0  0  0  0  0  0  0  0  0  0
    8.3941  -14.8602   23.3098 C   0  0  1  0  0  0  0  0  0  0  0  0
    7.1673  -14.0377   23.5324 C   0  0  0  0  0  0  0  0  0  0  0  0
    7.1768  -13.3367   24.8288 C   0  0  0  0  0  0  0  0  0  0  0  0
    6.4145  -13.7424   25.9229 C   0  0  0  0  0  0  0  0  0  0  0  0
    6.4492  -13.0582   27.1306 C   0  0  0  0  0  0  0  0  0  0  0  0
    7.2474  -11.9589   27.2593 C   0  0  0  0  0  0  0  0  0  0  0  0
    8.0026  -11.5533   26.1825 C   0  0  0  0  0  0  0  0  0  0  0  0
    7.9836  -12.2161   24.9771 C   0  0  0  0  0  0  0  0  0  0  0  0
    8.6890  -15.8375   24.3686 C   0  0  0  0  0  0  0  0  0  0  0  0
    7.9855  -16.8742   24.4762 O   0  0  0  0  0  0  0  0  0  0  0  0
    9.7606  -15.6035   25.2560 N   0  0  0  0  0  0  0  0  0  0  0  0
   10.2785  -16.6434   26.1494 C   0  0  1  0  0  0  0  0  0  0  0  0
   11.5714  -17.1796   25.5763 C   0  0  0  0  0  0  0  0  0  0  0  0
   12.2434  -18.2166   26.3958 C   0  0  0  0  0  0  0  0  0  0  0  0
   13.5361  -18.6793   25.7592 C   0  0  0  0  0  0  0  0  0  0  0  0
   14.1956  -19.7555   26.5547 C   0  0  0  0  0  0  0  0  0  0  0  0
   15.4806  -20.1326   25.9900 N   0  0  0  0  0  0  0  0  0  0  0  0
   10.3850  -16.1498   27.5307 C   0  0  0  0  0  0  0  0  0  0  0  0
   10.5059  -16.8715   28.5451 O   0  0  0  0  0  0  0  0  0  0  0  0
   10.3548  -14.7643   27.7971 O   0  0  0  0  0  0  0  0  0  0  0  0
  2  1  1  6
  3  2  1  0
  4  2  1  0
  4  5  1  6
  6  7  2  0
  6  4  1  0
  8  6  1  0
  9  8  1  0
  9 10  1  1
 10 11  1  0
 11 16  2  0
 11 12  1  0
 12 13  2  0
 13 14  1  0
 15 14  2  0
 16 15  1  0
 17  9  1  0
 18 17  2  0
 19 17  1  0
 20 21  1  6
 20 19  1  0
 21 22  1  0
 22 23  1  0
 23 24  1  0
 25 24  1  0
 26 28  1  0
 26 20  1  0
 27 26  2  0
M  END
$$$$
