VFK.pdb
     RDKit          3D

 28 28  0  0  1  0  0  0  0  0999 V2000
    8.4175  -18.4931   18.3060 C   0  0  0  0  0  0  0  0  0  0  0  0
    8.7308  -17.9320   19.6763 C   0  0  2  0  0  0  0  0  0  0  0  0
    7.6113  -18.3943   20.5945 C   0  0  0  0  0  0  0  0  0  0  0  0
    8.7515  -16.4273   19.6055 C   0  0  2  0  0  0  0  0  0  0  0  0
    9.7485  -15.9616   18.6699 N   0  0  0  0  0  0  0  0  0  0  0  0
    8.9793  -15.7934   20.9153 C   0  0  0  0  0  0  0  0  0  0  0  0
   10.1371  -15.8607   21.4063 O   0  0  0  0  0  0  0  0  0  0  0  0
    7.9975  -15.1169   21.6599 N   0  0  0  0  0  0  0  0  0  0  0  0
    8.2053  -14.6056   23.0145 C   0  0  1  0  0  0  0  0  0  0  0  0
    7.0580  -13.6930   23.3007 C   0  0  0  0  0  0  0  0  0  0  0  0
    7.0531  -13.1993   24.6893 C   0  0  0  0  0  0  0  0  0  0  0  0
    6.3143  -13.7953   25.7099 C   0  0  0  0  0  0  0  0  0  0  0  0
    6.3345  -13.3037   27.0084 C   0  0  0  0  0  0  0  0  0  0  0  0
    7.0944  -12.2089   27.3023 C   0  0  0  0  0  0  0  0  0  0  0  0
    7.8262  -11.6159   26.2988 C   0  0  0  0  0  0  0  0  0  0  0  0
    7.8209  -12.0863   25.0060 C   0  0  0  0  0  0  0  0  0  0  0  0
    8.3897  -15.6966   23.9835 C   0  0  0  0  0  0  0  0  0  0  0  0
    7.5340  -16.6148   24.0614 O   0  0  0  0  0  0  0  0  0  0  0  0
    9.5267  -15.7041   24.8186 N   0  0  0  0  0  0  0  0  0  0  0  0
    9.8759  -16.8554   25.6554 C   0  0  1  0  0  0  0  0  0  0  0  0
   10.9642  -17.6477   24.9659 C   0  0  0  0  0  0  0  0  0  0  0  0
   11.4477  -18.8361   25.7092 C   0  0  0  0  0  0  0  0  0  0  0  0
   12.5387  -19.5617   24.9519 C   0  0  0  0  0  0  0  0  0  0  0  0
   11.9884  -20.3978   23.8454 C   0  0  0  0  0  0  0  0  0  0  0  0
   13.0438  -21.0263   23.0687 N   0  0  0  0  0  0  0  0  0  0  0  0
   10.2066  -16.4337   27.0249 C   0  0  0  0  0  0  0  0  0  0  0  0
   10.4606  -15.2599   27.3745 O   0  0  0  0  0  0  0  0  0  0  0  0
   10.2571  -17.3807   28.0700 O   0  0  0  0  0  0  0  0  0  0  0  0
  2  1  1  6
  3  2  1  0
  4  2  1  0
  4  5  1  6
  6  7  2  0
  6  4  1  0
  8  6  1  0
  9  8  1  0
  9 10  1  1
 10 11  1  0
 11 16  2  0
 11 12  1  0
 12 13  2  0
 13 14  1  0
 15 14  2  0
 16 15  1  0
 17  9  1  0
 18 17  2  0
 19 17  1  0
 20 21  1  6
 20 19  1  0
 21 22  1  0
 22 23  1  0
 23 24  1  0
 25 24  1  0
 26 28  1  0
 26 20  1  0
 27 26  2  0
M  END
$$$$
