YRK.pdb
     RDKit          3D

 33 33  0  0  1  0  0  0  0  0999 V2000
    9.9849  -10.0728   -8.8613 O   0  0  0  0  0  0  0  0  0  0  0  0
   11.1952   -9.4459   -9.0585 C   0  0  0  0  0  0  0  0  0  0  0  0
   12.2098   -9.5043   -8.1265 C   0  0  0  0  0  0  0  0  0  0  0  0
   13.4108   -8.8692   -8.3468 C   0  0  0  0  0  0  0  0  0  0  0  0
   13.5845   -8.1762   -9.5083 C   0  0  0  0  0  0  0  0  0  0  0  0
   14.8597   -7.4737   -9.7969 C   0  0  0  0  0  0  0  0  0  0  0  0
   15.7768   -8.3362  -10.6566 C   0  0  2  0  0  0  0  0  0  0  0  0
   16.3434   -9.3516   -9.8019 N   0  0  0  0  0  0  0  0  0  0  0  0
   16.7873   -7.4439  -11.2418 C   0  0  0  0  0  0  0  0  0  0  0  0
   17.7807   -7.1120  -10.5736 O   0  0  0  0  0  0  0  0  0  0  0  0
   12.5838   -8.1043  -10.4541 C   0  0  0  0  0  0  0  0  0  0  0  0
   11.3996   -8.7429  -10.2137 C   0  0  0  0  0  0  0  0  0  0  0  0
   19.4239  -11.5615  -15.6672 N   0  0  0  0  0  0  0  0  0  0  0  0
   18.2572  -10.8778  -16.1410 C   0  0  0  0  0  0  0  0  0  0  0  0
   17.2842  -11.5881  -16.5762 N   0  0  0  0  0  0  0  0  0  0  0  0
   18.1689   -9.4480  -16.1342 N   0  0  0  0  0  0  0  0  0  0  0  0
   19.2810   -8.6460  -15.6148 C   0  0  0  0  0  0  0  0  0  0  0  0
   18.8605   -7.9896  -14.3118 C   0  0  0  0  0  0  0  0  0  0  0  0
   17.9301   -6.8331  -14.5324 C   0  0  0  0  0  0  0  0  0  0  0  0
   17.5757   -6.1101  -13.2400 C   0  0  2  0  0  0  0  0  0  0  0  0
   16.6302   -6.9675  -12.5528 N   0  0  0  0  0  0  0  0  0  0  0  0
   16.8589   -4.8535  -13.6634 C   0  0  0  0  0  0  0  0  0  0  0  0
   15.7629   -4.9112  -14.2831 O   0  0  0  0  0  0  0  0  0  0  0  0
   16.4070  -11.1944  -16.9472 N   0  0  0  0  0  0  0  0  0  0  0  0
   17.3814   -3.5691  -13.3852 C   0  0  1  0  0  0  0  0  0  0  0  0
   16.7067   -2.3257  -13.8075 C   0  0  0  0  0  0  0  0  0  0  0  0
   16.6283   -1.3682  -12.6697 C   0  0  0  0  0  0  0  0  0  0  0  0
   15.5905   -1.7561  -11.6564 C   0  0  0  0  0  0  0  0  0  0  0  0
   15.5869   -0.7616  -10.5210 C   0  0  0  0  0  0  0  0  0  0  0  0
   14.4775   -1.1284   -9.5658 N   0  0  0  0  0  0  0  0  0  0  0  0
   14.4797   -0.1269   -8.5011 C   0  0  0  0  0  0  0  0  0  0  0  0
   17.3623   -1.7607  -14.9927 O   0  0  0  0  0  0  0  0  0  0  0  0
   18.5925   -2.0760  -15.1799 O   0  0  0  0  0  0  0  0  0  0  0  0
  2  1  1  0
  3  2  2  0
  4  3  1  0
  5 11  1  0
  5  4  2  0
  6  5  1  0
  7  9  1  0
  7  6  1  0
  7  8  1  1
  9 10  2  0
  9 21  1  0
 11 12  2  0
 12  2  1  0
 13 14  1  0
 14 16  1  0
 14 15  2  0
 16 17  1  0
 17 18  1  0
 19 18  1  0
 20 19  1  6
 21 20  1  0
 22 24  1  0
 22 20  1  0
 23 22  2  0
 25 31  1  0
 25 24  1  0
 25 26  1  6
 26 27  1  0
 27 28  1  0
 28 29  1  0
 30 29  1  0
 31 33  1  0
 32 31  2  0
M  END
$$$$
