YRK.pdb
     RDKit          3D

 33 33  0  0  1  0  0  0  0  0999 V2000
   10.8716  -23.1241   -1.8573 O   0  0  0  0  0  0  0  0  0  0  0  0
   12.0831  -23.3293   -2.4792 C   0  0  0  0  0  0  0  0  0  0  0  0
   12.1723  -23.8387   -3.7575 C   0  0  0  0  0  0  0  0  0  0  0  0
   13.3953  -24.0347   -4.3576 C   0  0  0  0  0  0  0  0  0  0  0  0
   14.5259  -23.7156   -3.6652 C   0  0  0  0  0  0  0  0  0  0  0  0
   15.8700  -23.9062   -4.2651 C   0  0  0  0  0  0  0  0  0  0  0  0
   16.2472  -25.3828   -4.3041 C   0  0  2  0  0  0  0  0  0  0  0  0
   16.4403  -25.8168   -2.9415 N   0  0  0  0  0  0  0  0  0  0  0  0
   17.4610  -25.4981   -5.1246 C   0  0  0  0  0  0  0  0  0  0  0  0
   18.5358  -25.8283   -4.5962 O   0  0  0  0  0  0  0  0  0  0  0  0
   14.4604  -23.2050   -2.3861 C   0  0  0  0  0  0  0  0  0  0  0  0
   13.2350  -23.0189   -1.8104 C   0  0  0  0  0  0  0  0  0  0  0  0
   18.8063  -30.5490  -11.2074 N   0  0  0  0  0  0  0  0  0  0  0  0
   19.7865  -29.7511  -10.5325 C   0  0  0  0  0  0  0  0  0  0  0  0
   21.0069  -29.8627  -10.9051 N   0  0  0  0  0  0  0  0  0  0  0  0
   19.4275  -28.8546   -9.4745 N   0  0  0  0  0  0  0  0  0  0  0  0
   18.0275  -28.7371   -9.0549 C   0  0  0  0  0  0  0  0  0  0  0  0
   17.7398  -27.2983   -8.6643 C   0  0  0  0  0  0  0  0  0  0  0  0
   18.7679  -26.7496   -7.7188 C   0  0  0  0  0  0  0  0  0  0  0  0
   18.5447  -25.2779   -7.3985 C   0  0  2  0  0  0  0  0  0  0  0  0
   17.4060  -25.2355   -6.5024 N   0  0  0  0  0  0  0  0  0  0  0  0
   18.1481  -24.6360   -8.7034 C   0  0  0  0  0  0  0  0  0  0  0  0
   16.9378  -24.5631   -9.0473 O   0  0  0  0  0  0  0  0  0  0  0  0
   21.7743  -29.2799  -10.5398 N   0  0  0  0  0  0  0  0  0  0  0  0
   19.1089  -24.0933   -9.5881 C   0  0  2  0  0  0  0  0  0  0  0  0
   18.7386  -23.3672  -10.8189 C   0  0  0  0  0  0  0  0  0  0  0  0
   19.8767  -22.5283  -11.2863 C   0  0  0  0  0  0  0  0  0  0  0  0
   19.5592  -21.7684  -12.5416 C   0  0  0  0  0  0  0  0  0  0  0  0
   20.8193  -21.1531  -13.1001 C   0  0  0  0  0  0  0  0  0  0  0  0
   20.4887  -20.4954  -14.4176 N   0  0  0  0  0  0  0  0  0  0  0  0
   21.7249  -19.9005  -14.9221 C   0  0  0  0  0  0  0  0  0  0  0  0
   18.2521  -24.3007  -11.8415 O   0  0  0  0  0  0  0  0  0  0  0  0
   18.6935  -25.5048  -11.7835 O   0  0  0  0  0  0  0  0  0  0  0  0
  2  1  1  0
  3  2  2  0
  4  3  1  0
  5 11  1  0
  5  4  2  0
  6  5  1  0
  7  9  1  0
  7  6  1  0
  7  8  1  1
  9 10  2  0
  9 21  1  0
 11 12  2  0
 12  2  1  0
 13 14  1  0
 14 16  1  0
 14 15  2  0
 16 17  1  0
 17 18  1  0
 19 18  1  0
 20 19  1  6
 21 20  1  0
 22 24  1  0
 22 20  1  0
 23 22  2  0
 25 31  1  0
 25 24  1  0
 25 26  1  1
 26 27  1  0
 27 28  1  0
 28 29  1  0
 30 29  1  0
 31 33  1  0
 32 31  2  0
M  END
$$$$
