YRK.pdb
     RDKit          3D

 33 33  0  0  1  0  0  0  0  0999 V2000
   24.3241  -18.7786  -16.1023 O   0  0  0  0  0  0  0  0  0  0  0  0
   23.2182  -19.3571  -15.5201 C   0  0  0  0  0  0  0  0  0  0  0  0
   22.0463  -19.5606  -16.2179 C   0  0  0  0  0  0  0  0  0  0  0  0
   20.9544  -20.1410  -15.6137 C   0  0  0  0  0  0  0  0  0  0  0  0
   21.0484  -20.5149  -14.3057 C   0  0  0  0  0  0  0  0  0  0  0  0
   19.9017  -21.1458  -13.6058 C   0  0  0  0  0  0  0  0  0  0  0  0
   20.1620  -22.6267  -13.3544 C   0  0  2  0  0  0  0  0  0  0  0  0
   20.2983  -23.2671  -14.6404 N   0  0  0  0  0  0  0  0  0  0  0  0
   19.0287  -23.1388  -12.5712 C   0  0  0  0  0  0  0  0  0  0  0  0
   17.9075  -23.2368  -13.0971 O   0  0  0  0  0  0  0  0  0  0  0  0
   22.2101  -20.3210  -13.5887 C   0  0  0  0  0  0  0  0  0  0  0  0
   23.2815  -19.7427  -14.2095 C   0  0  0  0  0  0  0  0  0  0  0  0
   17.7585  -27.3652   -4.7980 N   0  0  0  0  0  0  0  0  0  0  0  0
   17.2605  -26.0226   -4.7479 C   0  0  0  0  0  0  0  0  0  0  0  0
   16.3421  -25.7578   -3.8951 N   0  0  0  0  0  0  0  0  0  0  0  0
   17.7637  -25.0009   -5.6167 N   0  0  0  0  0  0  0  0  0  0  0  0
   18.6140  -25.3591   -6.7562 C   0  0  0  0  0  0  0  0  0  0  0  0
   17.9127  -24.9733   -8.0464 C   0  0  0  0  0  0  0  0  0  0  0  0
   18.8601  -24.3990   -9.0586 C   0  0  0  0  0  0  0  0  0  0  0  0
   18.1750  -24.0522  -10.3734 C   0  0  2  0  0  0  0  0  0  0  0  0
   19.2129  -23.5161  -11.2318 N   0  0  0  0  0  0  0  0  0  0  0  0
   17.2083  -22.9432  -10.0452 C   0  0  0  0  0  0  0  0  0  0  0  0
   17.6222  -21.7889   -9.7543 O   0  0  0  0  0  0  0  0  0  0  0  0
   15.8657  -24.8464   -3.8289 N   0  0  0  0  0  0  0  0  0  0  0  0
   15.8092  -23.1498  -10.0503 C   0  0  2  0  0  0  0  0  0  0  0  0
   14.8421  -22.0618   -9.8051 C   0  0  0  0  0  0  0  0  0  0  0  0
   13.9926  -21.8445  -11.0087 C   0  0  0  0  0  0  0  0  0  0  0  0
   13.0518  -20.6849  -10.8523 C   0  0  0  0  0  0  0  0  0  0  0  0
   12.2691  -20.4851  -12.1274 C   0  0  0  0  0  0  0  0  0  0  0  0
   11.3449  -19.3064  -11.9430 N   0  0  0  0  0  0  0  0  0  0  0  0
   10.4964  -19.2367  -13.1313 C   0  0  0  0  0  0  0  0  0  0  0  0
   14.0633  -22.3285   -8.5901 O   0  0  0  0  0  0  0  0  0  0  0  0
   13.9018  -23.5596   -8.2642 O   0  0  0  0  0  0  0  0  0  0  0  0
  2  1  1  0
  3  2  2  0
  4  3  1  0
  5 11  1  0
  5  4  2  0
  6  5  1  0
  7  9  1  0
  7  6  1  0
  7  8  1  6
  9 10  2  0
  9 21  1  0
 11 12  2  0
 12  2  1  0
 13 14  1  0
 14 16  1  0
 14 15  2  0
 16 17  1  0
 17 18  1  0
 19 18  1  0
 20 19  1  1
 21 20  1  0
 22 24  1  0
 22 20  1  0
 23 22  2  0
 25 31  1  0
 25 24  1  0
 25 26  1  6
 26 27  1  0
 27 28  1  0
 28 29  1  0
 30 29  1  0
 31 33  1  0
 32 31  2  0
M  END
$$$$
