YRK.pdb
     RDKit          3D

 33 33  0  0  1  0  0  0  0  0999 V2000
   22.1369  -12.2386  -21.2667 O   0  0  0  0  0  0  0  0  0  0  0  0
   22.0071  -13.5984  -21.0919 C   0  0  0  0  0  0  0  0  0  0  0  0
   21.1111  -14.1383  -20.1935 C   0  0  0  0  0  0  0  0  0  0  0  0
   20.9998  -15.5011  -20.0370 C   0  0  0  0  0  0  0  0  0  0  0  0
   21.7939  -16.3161  -20.7885 C   0  0  0  0  0  0  0  0  0  0  0  0
   21.7142  -17.7926  -20.6602 C   0  0  0  0  0  0  0  0  0  0  0  0
   23.0052  -18.3619  -20.0830 C   0  0  2  0  0  0  0  0  0  0  0  0
   24.0452  -18.1566  -21.0622 N   0  0  0  0  0  0  0  0  0  0  0  0
   22.7597  -19.7809  -19.7898 C   0  0  0  0  0  0  0  0  0  0  0  0
   23.5091  -20.6496  -20.2663 O   0  0  0  0  0  0  0  0  0  0  0  0
   22.6967  -15.7982  -21.6929 C   0  0  0  0  0  0  0  0  0  0  0  0
   22.7898  -14.4418  -21.8313 C   0  0  0  0  0  0  0  0  0  0  0  0
   25.2160  -26.0029  -16.6649 N   0  0  0  0  0  0  0  0  0  0  0  0
   25.5530  -24.6864  -17.1194 C   0  0  0  0  0  0  0  0  0  0  0  0
   26.6828  -24.5266  -17.7013 N   0  0  0  0  0  0  0  0  0  0  0  0
   24.6655  -23.5772  -16.9352 N   0  0  0  0  0  0  0  0  0  0  0  0
   23.4234  -23.7487  -16.1752 C   0  0  0  0  0  0  0  0  0  0  0  0
   22.2501  -23.2858  -17.0203 C   0  0  0  0  0  0  0  0  0  0  0  0
   22.4798  -21.9280  -17.6166 C   0  0  0  0  0  0  0  0  0  0  0  0
   21.3739  -21.5144  -18.5781 C   0  0  2  0  0  0  0  0  0  0  0  0
   21.6806  -20.1537  -18.9731 N   0  0  0  0  0  0  0  0  0  0  0  0
   20.1098  -21.4986  -17.7573 C   0  0  0  0  0  0  0  0  0  0  0  0
   20.0606  -20.8873  -16.6562 O   0  0  0  0  0  0  0  0  0  0  0  0
   27.0193  -23.6223  -18.0633 N   0  0  0  0  0  0  0  0  0  0  0  0
   18.9366  -22.1628  -18.1848 C   0  0  2  0  0  0  0  0  0  0  0  0
   17.6859  -22.1553  -17.4007 C   0  0  0  0  0  0  0  0  0  0  0  0
   17.1217  -23.5307  -17.3143 C   0  0  0  0  0  0  0  0  0  0  0  0
   15.7966  -23.5703  -16.6097 C   0  0  0  0  0  0  0  0  0  0  0  0
   15.2473  -24.9761  -16.6310 C   0  0  0  0  0  0  0  0  0  0  0  0
   13.8415  -24.9500  -16.0828 N   0  0  0  0  0  0  0  0  0  0  0  0
   13.3168  -26.3106  -16.1829 C   0  0  0  0  0  0  0  0  0  0  0  0
   17.9047  -21.5381  -16.0872 O   0  0  0  0  0  0  0  0  0  0  0  0
   17.0079  -20.7166  -15.6766 O   0  0  0  0  0  0  0  0  0  0  0  0
  2  1  1  0
  3  2  2  0
  4  3  1  0
  5 11  1  0
  5  4  2  0
  6  5  1  0
  7  9  1  0
  7  6  1  0
  7  8  1  6
  9 10  2  0
  9 21  1  0
 11 12  2  0
 12  2  1  0
 13 14  1  0
 14 16  1  0
 14 15  2  0
 16 17  1  0
 17 18  1  0
 19 18  1  0
 20 19  1  1
 21 20  1  0
 22 24  1  0
 22 20  1  0
 23 22  2  0
 25 31  1  0
 25 24  1  0
 25 26  1  6
 26 27  1  0
 27 28  1  0
 28 29  1  0
 30 29  1  0
 31 33  1  0
 32 31  2  0
M  END
$$$$
