YRK.pdb
     RDKit          3D

 33 33  0  0  1  0  0  0  0  0999 V2000
   16.2602  -23.2274  -11.6888 O   0  0  0  0  0  0  0  0  0  0  0  0
   17.2981  -23.1437  -12.5902 C   0  0  0  0  0  0  0  0  0  0  0  0
   18.3679  -24.0132  -12.5570 C   0  0  0  0  0  0  0  0  0  0  0  0
   19.3933  -23.9091  -13.4690 C   0  0  0  0  0  0  0  0  0  0  0  0
   19.3360  -22.9268  -14.4131 C   0  0  0  0  0  0  0  0  0  0  0  0
   20.4143  -22.7702  -15.4209 C   0  0  0  0  0  0  0  0  0  0  0  0
   21.6892  -22.2346  -14.7792 C   0  0  2  0  0  0  0  0  0  0  0  0
   21.4167  -20.8905  -14.3303 N   0  0  0  0  0  0  0  0  0  0  0  0
   22.7470  -22.3004  -15.7972 C   0  0  0  0  0  0  0  0  0  0  0  0
   22.8632  -21.3846  -16.6287 O   0  0  0  0  0  0  0  0  0  0  0  0
   18.2761  -22.0464  -14.4650 C   0  0  0  0  0  0  0  0  0  0  0  0
   17.2694  -22.1688  -13.5490 C   0  0  0  0  0  0  0  0  0  0  0  0
   28.6696  -28.1907  -16.8304 N   0  0  0  0  0  0  0  0  0  0  0  0
   29.3382  -27.0937  -17.4650 C   0  0  0  0  0  0  0  0  0  0  0  0
   30.1123  -27.3560  -18.4512 N   0  0  0  0  0  0  0  0  0  0  0  0
   29.1562  -25.7439  -17.0212 N   0  0  0  0  0  0  0  0  0  0  0  0
   28.0565  -25.4125  -16.1098 C   0  0  0  0  0  0  0  0  0  0  0  0
   26.9482  -24.7271  -16.8891 C   0  0  0  0  0  0  0  0  0  0  0  0
   25.7778  -24.3720  -16.0196 C   0  0  0  0  0  0  0  0  0  0  0  0
   24.7343  -23.5389  -16.7514 C   0  0  2  0  0  0  0  0  0  0  0  0
   23.6242  -23.3957  -15.8302 N   0  0  0  0  0  0  0  0  0  0  0  0
   24.2828  -24.3863  -17.9133 C   0  0  0  0  0  0  0  0  0  0  0  0
   23.8179  -25.5431  -17.7286 O   0  0  0  0  0  0  0  0  0  0  0  0
   30.6256  -26.6391  -18.9846 N   0  0  0  0  0  0  0  0  0  0  0  0
   24.3611  -23.9228  -19.2472 C   0  0  1  0  0  0  0  0  0  0  0  0
   23.9159  -24.7314  -20.3993 C   0  0  0  0  0  0  0  0  0  0  0  0
   22.7788  -24.0634  -21.0908 C   0  0  0  0  0  0  0  0  0  0  0  0
   21.4527  -24.3756  -20.4597 C   0  0  0  0  0  0  0  0  0  0  0  0
   20.3530  -23.6450  -21.1912 C   0  0  0  0  0  0  0  0  0  0  0  0
   19.0393  -23.9570  -20.5172 N   0  0  0  0  0  0  0  0  0  0  0  0
   18.0236  -23.1151  -21.1467 C   0  0  0  0  0  0  0  0  0  0  0  0
   25.0439  -25.0213  -21.2922 O   0  0  0  0  0  0  0  0  0  0  0  0
   26.0428  -24.2164  -21.2437 O   0  0  0  0  0  0  0  0  0  0  0  0
  2  1  1  0
  3  2  2  0
  4  3  1  0
  5 11  1  0
  5  4  2  0
  6  5  1  0
  7  9  1  0
  7  6  1  0
  7  8  1  6
  9 10  2  0
  9 21  1  0
 11 12  2  0
 12  2  1  0
 13 14  1  0
 14 16  1  0
 14 15  2  0
 16 17  1  0
 17 18  1  0
 19 18  1  0
 20 19  1  1
 21 20  1  0
 22 24  1  0
 22 20  1  0
 23 22  2  0
 25 31  1  0
 25 24  1  0
 25 26  1  6
 26 27  1  0
 27 28  1  0
 28 29  1  0
 30 29  1  0
 31 33  1  0
 32 31  2  0
M  END
$$$$
