YRK.pdb
     RDKit          3D

 33 33  0  0  1  0  0  0  0  0999 V2000
   20.4881  -22.5813   -8.0262 O   0  0  0  0  0  0  0  0  0  0  0  0
   21.0929  -22.1421   -9.1829 C   0  0  0  0  0  0  0  0  0  0  0  0
   22.1493  -21.2559   -9.1652 C   0  0  0  0  0  0  0  0  0  0  0  0
   22.7371  -20.8318  -10.3351 C   0  0  0  0  0  0  0  0  0  0  0  0
   22.2567  -21.3036  -11.5208 C   0  0  0  0  0  0  0  0  0  0  0  0
   22.8541  -20.8797  -12.8116 C   0  0  0  0  0  0  0  0  0  0  0  0
   22.6550  -19.3859  -13.0420 C   0  0  2  0  0  0  0  0  0  0  0  0
   21.2339  -19.1350  -13.0543 N   0  0  0  0  0  0  0  0  0  0  0  0
   23.3115  -19.0526  -14.3139 C   0  0  0  0  0  0  0  0  0  0  0  0
   22.6443  -19.0057  -15.3607 O   0  0  0  0  0  0  0  0  0  0  0  0
   21.2015  -22.1902  -11.5623 C   0  0  0  0  0  0  0  0  0  0  0  0
   20.6334  -22.5974  -10.3879 C   0  0  0  0  0  0  0  0  0  0  0  0
   28.5644  -17.6760  -19.9878 N   0  0  0  0  0  0  0  0  0  0  0  0
   29.4742  -18.2149  -19.0208 C   0  0  0  0  0  0  0  0  0  0  0  0
   30.6747  -18.4535  -19.3984 N   0  0  0  0  0  0  0  0  0  0  0  0
   29.0678  -18.4831  -17.6736 N   0  0  0  0  0  0  0  0  0  0  0  0
   27.6766  -18.2598  -17.2680 C   0  0  0  0  0  0  0  0  0  0  0  0
   27.6454  -17.3070  -16.0862 C   0  0  0  0  0  0  0  0  0  0  0  0
   26.7446  -17.7924  -14.9885 C   0  0  0  0  0  0  0  0  0  0  0  0
   25.4156  -18.3213  -15.5105 C   0  0  2  0  0  0  0  0  0  0  0  0
   24.6897  -18.7879  -14.3457 N   0  0  0  0  0  0  0  0  0  0  0  0
   25.7627  -19.5138  -16.3647 C   0  0  0  0  0  0  0  0  0  0  0  0
   26.2116  -20.5717  -15.8474 O   0  0  0  0  0  0  0  0  0  0  0  0
   31.3766  -18.9299  -18.8133 N   0  0  0  0  0  0  0  0  0  0  0  0
   25.6002  -19.4954  -17.7696 C   0  0  1  0  0  0  0  0  0  0  0  0
   24.9469  -20.5923  -18.5106 C   0  0  0  0  0  0  0  0  0  0  0  0
   23.6252  -20.9110  -17.9032 C   0  0  0  0  0  0  0  0  0  0  0  0
   22.8994  -22.0029  -18.6348 C   0  0  0  0  0  0  0  0  0  0  0  0
   21.6095  -22.3275  -17.9213 C   0  0  0  0  0  0  0  0  0  0  0  0
   20.9203  -23.4471  -18.6622 N   0  0  0  0  0  0  0  0  0  0  0  0
   19.6550  -23.7007  -17.9755 C   0  0  0  0  0  0  0  0  0  0  0  0
   24.8621  -20.2699  -19.9399 O   0  0  0  0  0  0  0  0  0  0  0  0
   25.1519  -21.2104  -20.7640 O   0  0  0  0  0  0  0  0  0  0  0  0
  2  1  1  0
  3  2  2  0
  4  3  1  0
  5 11  1  0
  5  4  2  0
  6  5  1  0
  7  9  1  0
  7  6  1  0
  7  8  1  6
  9 10  2  0
  9 21  1  0
 11 12  2  0
 12  2  1  0
 13 14  1  0
 14 16  1  0
 14 15  2  0
 16 17  1  0
 17 18  1  0
 19 18  1  0
 20 19  1  1
 21 20  1  0
 22 24  1  0
 22 20  1  0
 23 22  2  0
 25 31  1  0
 25 24  1  0
 25 26  1  6
 26 27  1  0
 27 28  1  0
 28 29  1  0
 30 29  1  0
 31 33  1  0
 32 31  2  0
M  END
$$$$
