YRK.pdb
     RDKit          3D

 33 33  0  0  1  0  0  0  0  0999 V2000
   38.5913   -7.3891  -12.1643 O   0  0  0  0  0  0  0  0  0  0  0  0
   39.6203   -7.9727  -11.4593 C   0  0  0  0  0  0  0  0  0  0  0  0
   39.9903   -9.2862  -11.6577 C   0  0  0  0  0  0  0  0  0  0  0  0
   41.0225   -9.8470  -10.9404 C   0  0  0  0  0  0  0  0  0  0  0  0
   41.6790   -9.0797  -10.0241 C   0  0  0  0  0  0  0  0  0  0  0  0
   42.7997   -9.6338   -9.2242 C   0  0  0  0  0  0  0  0  0  0  0  0
   42.3001  -10.6800   -8.2343 C   0  0  2  0  0  0  0  0  0  0  0  0
   41.4559  -10.0042   -7.2788 N   0  0  0  0  0  0  0  0  0  0  0  0
   43.4849  -11.2981   -7.6227 C   0  0  0  0  0  0  0  0  0  0  0  0
   43.8097  -10.9978   -6.4619 O   0  0  0  0  0  0  0  0  0  0  0  0
   41.3261   -7.7642   -9.8093 C   0  0  0  0  0  0  0  0  0  0  0  0
   40.2980   -7.2288  -10.5331 C   0  0  0  0  0  0  0  0  0  0  0  0
   43.4687  -19.3050   -7.5416 N   0  0  0  0  0  0  0  0  0  0  0  0
   44.4135  -18.4616   -6.8715 C   0  0  0  0  0  0  0  0  0  0  0  0
   45.1379  -18.9868   -5.9549 N   0  0  0  0  0  0  0  0  0  0  0  0
   44.5533  -17.0756   -7.2052 N   0  0  0  0  0  0  0  0  0  0  0  0
   43.6286  -16.4525   -8.1574 C   0  0  0  0  0  0  0  0  0  0  0  0
   44.1664  -15.0914   -8.5616 C   0  0  0  0  0  0  0  0  0  0  0  0
   44.7467  -14.3413   -7.3987 C   0  0  0  0  0  0  0  0  0  0  0  0
   45.3451  -13.0012   -7.8042 C   0  0  2  0  0  0  0  0  0  0  0  0
   44.2481  -12.2258   -8.3490 N   0  0  0  0  0  0  0  0  0  0  0  0
   46.3100  -13.3106   -8.9202 C   0  0  0  0  0  0  0  0  0  0  0  0
   45.9019  -13.4775  -10.1009 O   0  0  0  0  0  0  0  0  0  0  0  0
   45.8994  -18.4900   -5.4699 N   0  0  0  0  0  0  0  0  0  0  0  0
   47.7009  -13.4251   -8.6910 C   0  0  2  0  0  0  0  0  0  0  0  0
   48.7023  -12.6776   -9.4770 C   0  0  0  0  0  0  0  0  0  0  0  0
   48.4194  -11.2168   -9.4187 C   0  0  0  0  0  0  0  0  0  0  0  0
   49.4303  -10.4003  -10.1707 C   0  0  0  0  0  0  0  0  0  0  0  0
   49.0771   -8.9358  -10.0776 C   0  0  0  0  0  0  0  0  0  0  0  0
   50.1081   -8.1441  -10.8443 N   0  0  0  0  0  0  0  0  0  0  0  0
   49.8162   -6.7294  -10.6203 C   0  0  0  0  0  0  0  0  0  0  0  0
   50.0608  -13.0199   -9.0398 O   0  0  0  0  0  0  0  0  0  0  0  0
   50.2394  -13.1846   -7.7793 O   0  0  0  0  0  0  0  0  0  0  0  0
  2  1  1  0
  3  2  2  0
  4  3  1  0
  5 11  1  0
  5  4  2  0
  6  5  1  0
  7  9  1  0
  7  6  1  0
  7  8  1  1
  9 10  2  0
  9 21  1  0
 11 12  2  0
 12  2  1  0
 13 14  1  0
 14 16  1  0
 14 15  2  0
 16 17  1  0
 17 18  1  0
 19 18  1  0
 20 19  1  6
 21 20  1  0
 22 24  1  0
 22 20  1  0
 23 22  2  0
 25 31  1  0
 25 24  1  0
 25 26  1  6
 26 27  1  0
 27 28  1  0
 28 29  1  0
 30 29  1  0
 31 33  1  0
 32 31  2  0
M  END
$$$$
