YRK.pdb
     RDKit          3D

 33 33  0  0  1  0  0  0  0  0999 V2000
   25.2103  -18.1015  -19.3758 O   0  0  0  0  0  0  0  0  0  0  0  0
   24.3225  -19.0377  -18.8942 C   0  0  0  0  0  0  0  0  0  0  0  0
   24.6892  -20.3488  -18.6750 C   0  0  0  0  0  0  0  0  0  0  0  0
   23.7833  -21.2660  -18.1930 C   0  0  0  0  0  0  0  0  0  0  0  0
   22.5087  -20.8570  -17.9332 C   0  0  0  0  0  0  0  0  0  0  0  0
   21.4923  -21.8044  -17.4116 C   0  0  0  0  0  0  0  0  0  0  0  0
   21.1593  -21.5020  -15.9549 C   0  0  2  0  0  0  0  0  0  0  0  0
   22.3961  -21.5346  -15.2120 N   0  0  0  0  0  0  0  0  0  0  0  0
   20.1925  -22.5164  -15.5121 C   0  0  0  0  0  0  0  0  0  0  0  0
   19.1228  -22.6613  -16.1269 O   0  0  0  0  0  0  0  0  0  0  0  0
   22.1201  -19.5511  -18.1449 C   0  0  0  0  0  0  0  0  0  0  0  0
   23.0367  -18.6579  -18.6242 C   0  0  0  0  0  0  0  0  0  0  0  0
   21.4487  -30.1998  -11.2989 N   0  0  0  0  0  0  0  0  0  0  0  0
   20.6215  -29.0675  -11.0043 C   0  0  0  0  0  0  0  0  0  0  0  0
   19.4454  -29.2896  -10.5481 N   0  0  0  0  0  0  0  0  0  0  0  0
   21.0818  -27.7265  -11.2088 N   0  0  0  0  0  0  0  0  0  0  0  0
   20.2519  -26.5931  -10.7887 C   0  0  0  0  0  0  0  0  0  0  0  0
   19.5313  -26.0236  -11.9978 C   0  0  0  0  0  0  0  0  0  0  0  0
   20.2996  -24.9082  -12.6441 C   0  0  0  0  0  0  0  0  0  0  0  0
   19.6208  -24.3785  -13.8999 C   0  0  2  0  0  0  0  0  0  0  0  0
   20.4772  -23.3196  -14.3967 N   0  0  0  0  0  0  0  0  0  0  0  0
   18.3267  -23.7640  -13.4311 C   0  0  0  0  0  0  0  0  0  0  0  0
   18.3053  -22.9643  -12.4573 O   0  0  0  0  0  0  0  0  0  0  0  0
   18.7818  -28.5464  -10.2850 N   0  0  0  0  0  0  0  0  0  0  0  0
   17.0936  -24.0564  -14.0592 C   0  0  1  0  0  0  0  0  0  0  0  0
   15.8193  -23.4416  -13.6381 C   0  0  0  0  0  0  0  0  0  0  0  0
   15.4143  -22.3805  -14.6012 C   0  0  0  0  0  0  0  0  0  0  0  0
   14.1612  -21.6666  -14.1837 C   0  0  0  0  0  0  0  0  0  0  0  0
   13.8383  -20.5763  -15.1763 C   0  0  0  0  0  0  0  0  0  0  0  0
   12.5881  -19.8659  -14.7184 N   0  0  0  0  0  0  0  0  0  0  0  0
   12.2707  -18.8606  -15.7310 C   0  0  0  0  0  0  0  0  0  0  0  0
   14.7897  -24.4697  -13.4460 O   0  0  0  0  0  0  0  0  0  0  0  0
   14.9746  -25.5926  -14.0398 O   0  0  0  0  0  0  0  0  0  0  0  0
  2  1  1  0
  3  2  2  0
  4  3  1  0
  5 11  1  0
  5  4  2  0
  6  5  1  0
  7  9  1  0
  7  6  1  0
  7  8  1  1
  9 10  2  0
  9 21  1  0
 11 12  2  0
 12  2  1  0
 13 14  1  0
 14 16  1  0
 14 15  2  0
 16 17  1  0
 17 18  1  0
 19 18  1  0
 20 19  1  1
 21 20  1  0
 22 24  1  0
 22 20  1  0
 23 22  2  0
 25 31  1  0
 25 24  1  0
 25 26  1  6
 26 27  1  0
 27 28  1  0
 28 29  1  0
 30 29  1  0
 31 33  1  0
 32 31  2  0
M  END
$$$$
