YRK.pdb
     RDKit          3D

 33 33  0  0  1  0  0  0  0  0999 V2000
   32.4918  -22.3192   -9.3231 O   0  0  0  0  0  0  0  0  0  0  0  0
   31.3358  -22.0960  -10.0376 C   0  0  0  0  0  0  0  0  0  0  0  0
   30.2742  -21.3916   -9.5101 C   0  0  0  0  0  0  0  0  0  0  0  0
   29.1292  -21.1817  -10.2443 C   0  0  0  0  0  0  0  0  0  0  0  0
   29.0588  -21.6839  -11.5102 C   0  0  0  0  0  0  0  0  0  0  0  0
   27.8482  -21.4860  -12.3458 C   0  0  0  0  0  0  0  0  0  0  0  0
   26.9271  -20.4364  -11.7342 C   0  0  2  0  0  0  0  0  0  0  0  0
   26.8810  -20.6762  -10.3119 N   0  0  0  0  0  0  0  0  0  0  0  0
   25.6176  -20.5765  -12.3864 C   0  0  0  0  0  0  0  0  0  0  0  0
   25.5375  -20.5460  -13.6258 O   0  0  0  0  0  0  0  0  0  0  0  0
   30.1081  -22.3912  -12.0578 C   0  0  0  0  0  0  0  0  0  0  0  0
   31.2351  -22.5872  -11.3100 C   0  0  0  0  0  0  0  0  0  0  0  0
   17.6208  -22.0027  -11.4241 N   0  0  0  0  0  0  0  0  0  0  0  0
   18.2725  -22.4652  -10.2348 C   0  0  0  0  0  0  0  0  0  0  0  0
   17.8550  -23.5571   -9.7112 N   0  0  0  0  0  0  0  0  0  0  0  0
   19.3558  -21.7404   -9.6405 N   0  0  0  0  0  0  0  0  0  0  0  0
   19.7931  -20.4668  -10.2208 C   0  0  0  0  0  0  0  0  0  0  0  0
   20.7305  -20.7408  -11.3834 C   0  0  0  0  0  0  0  0  0  0  0  0
   22.1738  -20.6281  -10.9884 C   0  0  0  0  0  0  0  0  0  0  0  0
   23.1227  -20.9098  -12.1454 C   0  0  2  0  0  0  0  0  0  0  0  0
   24.4599  -20.7444  -11.6106 N   0  0  0  0  0  0  0  0  0  0  0  0
   22.8724  -19.8138  -13.1495 C   0  0  0  0  0  0  0  0  0  0  0  0
   22.8267  -18.6062  -12.7916 O   0  0  0  0  0  0  0  0  0  0  0  0
   18.2935  -24.0064   -8.8940 N   0  0  0  0  0  0  0  0  0  0  0  0
   22.6803  -20.0923  -14.5228 C   0  0  2  0  0  0  0  0  0  0  0  0
   22.2733  -19.0596  -15.4960 C   0  0  0  0  0  0  0  0  0  0  0  0
   22.5399  -19.5250  -16.8852 C   0  0  0  0  0  0  0  0  0  0  0  0
   22.1666  -18.5035  -17.9202 C   0  0  0  0  0  0  0  0  0  0  0  0
   22.4204  -19.0575  -19.3011 C   0  0  0  0  0  0  0  0  0  0  0  0
   22.0466  -18.0051  -20.3162 N   0  0  0  0  0  0  0  0  0  0  0  0
   22.4015  -18.5333  -21.6321 C   0  0  0  0  0  0  0  0  0  0  0  0
   20.8761  -18.6674  -15.2773 O   0  0  0  0  0  0  0  0  0  0  0  0
   20.5924  -17.4249  -15.4312 O   0  0  0  0  0  0  0  0  0  0  0  0
  2  1  1  0
  3  2  2  0
  4  3  1  0
  5 11  1  0
  5  4  2  0
  6  5  1  0
  7  9  1  0
  7  6  1  0
  7  8  1  1
  9 10  2  0
  9 21  1  0
 11 12  2  0
 12  2  1  0
 13 14  1  0
 14 16  1  0
 14 15  2  0
 16 17  1  0
 17 18  1  0
 19 18  1  0
 20 19  1  1
 21 20  1  0
 22 24  1  0
 22 20  1  0
 23 22  2  0
 25 31  1  0
 25 24  1  0
 25 26  1  6
 26 27  1  0
 27 28  1  0
 28 29  1  0
 30 29  1  0
 31 33  1  0
 32 31  2  0
M  END
$$$$
