YRK.pdb
     RDKit          3D

 33 33  0  0  1  0  0  0  0  0999 V2000
   15.5134  -22.8073  -14.5833 O   0  0  0  0  0  0  0  0  0  0  0  0
   16.5139  -21.8885  -14.8097 C   0  0  0  0  0  0  0  0  0  0  0  0
   16.5586  -20.6782  -14.1503 C   0  0  0  0  0  0  0  0  0  0  0  0
   17.5693  -19.7763  -14.3940 C   0  0  0  0  0  0  0  0  0  0  0  0
   18.5330  -20.0988  -15.3032 C   0  0  0  0  0  0  0  0  0  0  0  0
   19.6457  -19.1635  -15.6033 C   0  0  0  0  0  0  0  0  0  0  0  0
   20.9658  -19.6887  -15.0505 C   0  0  2  0  0  0  0  0  0  0  0  0
   20.8358  -19.7623  -13.6152 N   0  0  0  0  0  0  0  0  0  0  0  0
   22.0183  -18.7613  -15.4885 C   0  0  0  0  0  0  0  0  0  0  0  0
   22.2784  -17.7550  -14.8080 O   0  0  0  0  0  0  0  0  0  0  0  0
   18.5082  -21.3031  -15.9742 C   0  0  0  0  0  0  0  0  0  0  0  0
   17.4949  -22.1831  -15.7161 C   0  0  0  0  0  0  0  0  0  0  0  0
   29.7968  -20.7704  -19.0094 N   0  0  0  0  0  0  0  0  0  0  0  0
   29.6643  -19.3516  -19.1599 C   0  0  0  0  0  0  0  0  0  0  0  0
   30.6376  -18.7145  -19.6960 N   0  0  0  0  0  0  0  0  0  0  0  0
   28.4881  -18.6564  -18.7295 N   0  0  0  0  0  0  0  0  0  0  0  0
   27.3361  -19.4072  -18.2207 C   0  0  0  0  0  0  0  0  0  0  0  0
   26.2171  -18.4391  -17.8799 C   0  0  0  0  0  0  0  0  0  0  0  0
   24.9814  -19.1441  -17.4023 C   0  0  0  0  0  0  0  0  0  0  0  0
   23.8137  -18.1934  -17.1760 C   0  0  2  0  0  0  0  0  0  0  0  0
   22.7280  -19.0119  -16.6734 N   0  0  0  0  0  0  0  0  0  0  0  0
   23.4343  -17.6865  -18.5439 C   0  0  0  0  0  0  0  0  0  0  0  0
   23.1028  -18.4848  -19.4610 O   0  0  0  0  0  0  0  0  0  0  0  0
   30.6129  -17.7081  -19.9164 N   0  0  0  0  0  0  0  0  0  0  0  0
   23.4343  -16.3062  -18.8523 C   0  0  2  0  0  0  0  0  0  0  0  0
   23.0409  -15.7856  -20.1765 C   0  0  0  0  0  0  0  0  0  0  0  0
   23.0701  -14.2967  -20.1760 C   0  0  0  0  0  0  0  0  0  0  0  0
   21.7209  -13.6906  -20.4341 C   0  0  0  0  0  0  0  0  0  0  0  0
   20.8683  -13.7919  -19.1928 C   0  0  0  0  0  0  0  0  0  0  0  0
   19.5116  -13.2032  -19.4936 N   0  0  0  0  0  0  0  0  0  0  0  0
   18.6810  -13.4126  -18.3090 C   0  0  0  0  0  0  0  0  0  0  0  0
   23.8718  -16.3784  -21.2310 O   0  0  0  0  0  0  0  0  0  0  0  0
   25.1101  -16.5712  -20.9529 O   0  0  0  0  0  0  0  0  0  0  0  0
  2  1  1  0
  3  2  2  0
  4  3  1  0
  5 11  1  0
  5  4  2  0
  6  5  1  0
  7  9  1  0
  7  6  1  0
  7  8  1  1
  9 10  2  0
  9 21  1  0
 11 12  2  0
 12  2  1  0
 13 14  1  0
 14 16  1  0
 14 15  2  0
 16 17  1  0
 17 18  1  0
 19 18  1  0
 20 19  1  6
 21 20  1  0
 22 24  1  0
 22 20  1  0
 23 22  2  0
 25 31  1  0
 25 24  1  0
 25 26  1  1
 26 27  1  0
 27 28  1  0
 28 29  1  0
 30 29  1  0
 31 33  1  0
 32 31  2  0
M  END
$$$$
