YRK.pdb
     RDKit          3D

 33 33  0  0  1  0  0  0  0  0999 V2000
   26.7625  -15.8000  -17.6656 O   0  0  0  0  0  0  0  0  0  0  0  0
   27.1028  -16.6295  -16.6203 C   0  0  0  0  0  0  0  0  0  0  0  0
   27.9895  -17.6743  -16.7742 C   0  0  0  0  0  0  0  0  0  0  0  0
   28.3137  -18.4896  -15.7139 C   0  0  0  0  0  0  0  0  0  0  0  0
   27.7415  -18.2480  -14.5000 C   0  0  0  0  0  0  0  0  0  0  0  0
   28.0565  -19.0957  -13.3231 C   0  0  0  0  0  0  0  0  0  0  0  0
   27.8712  -20.5736  -13.6482 C   0  0  2  0  0  0  0  0  0  0  0  0
   28.1300  -20.7428  -15.0578 N   0  0  0  0  0  0  0  0  0  0  0  0
   26.4983  -20.9323  -13.2658 C   0  0  0  0  0  0  0  0  0  0  0  0
   25.6498  -21.1566  -14.1451 O   0  0  0  0  0  0  0  0  0  0  0  0
   26.8523  -17.2091  -14.3231 C   0  0  0  0  0  0  0  0  0  0  0  0
   26.5453  -16.4126  -15.3904 C   0  0  0  0  0  0  0  0  0  0  0  0
   21.3314  -22.5151   -7.0568 N   0  0  0  0  0  0  0  0  0  0  0  0
   20.7320  -21.4839   -7.8509 C   0  0  0  0  0  0  0  0  0  0  0  0
   19.4574  -21.4922   -7.9773 N   0  0  0  0  0  0  0  0  0  0  0  0
   21.5202  -20.4716   -8.4880 N   0  0  0  0  0  0  0  0  0  0  0  0
   22.3387  -20.8058   -9.6577 C   0  0  0  0  0  0  0  0  0  0  0  0
   23.6707  -20.0835   -9.5609 C   0  0  0  0  0  0  0  0  0  0  0  0
   24.8241  -20.9649   -9.9413 C   0  0  0  0  0  0  0  0  0  0  0  0
   24.8189  -21.3337  -11.4186 C   0  0  2  0  0  0  0  0  0  0  0  0
   26.1465  -21.0211  -11.9098 N   0  0  0  0  0  0  0  0  0  0  0  0
   23.8371  -20.3914  -12.0669 C   0  0  0  0  0  0  0  0  0  0  0  0
   23.9731  -19.1428  -11.9629 O   0  0  0  0  0  0  0  0  0  0  0  0
   18.9334  -20.8196   -8.5561 N   0  0  0  0  0  0  0  0  0  0  0  0
   22.7324  -20.8650  -12.8124 C   0  0  2  0  0  0  0  0  0  0  0  0
   21.7461  -19.9613  -13.4366 C   0  0  0  0  0  0  0  0  0  0  0  0
   21.7917  -20.0915  -14.9194 C   0  0  0  0  0  0  0  0  0  0  0  0
   20.8316  -19.1680  -15.6120 C   0  0  0  0  0  0  0  0  0  0  0  0
   20.9432  -19.3413  -17.1072 C   0  0  0  0  0  0  0  0  0  0  0  0
   20.0634  -18.3135  -17.7760 N   0  0  0  0  0  0  0  0  0  0  0  0
   20.1707  -18.5299  -19.2177 C   0  0  0  0  0  0  0  0  0  0  0  0
   20.4088  -20.1931  -12.8781 O   0  0  0  0  0  0  0  0  0  0  0  0
   19.5589  -19.2381  -12.9946 O   0  0  0  0  0  0  0  0  0  0  0  0
  2  1  1  0
  3  2  2  0
  4  3  1  0
  5 11  1  0
  5  4  2  0
  6  5  1  0
  7  9  1  0
  7  6  1  0
  7  8  1  6
  9 10  2  0
  9 21  1  0
 11 12  2  0
 12  2  1  0
 13 14  1  0
 14 16  1  0
 14 15  2  0
 16 17  1  0
 17 18  1  0
 19 18  1  0
 20 19  1  1
 21 20  1  0
 22 24  1  0
 22 20  1  0
 23 22  2  0
 25 31  1  0
 25 24  1  0
 25 26  1  6
 26 27  1  0
 27 28  1  0
 28 29  1  0
 30 29  1  0
 31 33  1  0
 32 31  2  0
M  END
$$$$
