HNM.pdb
     RDKit          3D

 27 27  0  0  1  0  0  0  0  0999 V2000
    9.8423  -15.6583   20.5517 N   0  0  0  0  0  0  0  0  0  0  0  0
    8.9303  -14.9075   21.3732 C   0  0  1  0  0  0  0  0  0  0  0  0
    7.5781  -14.8152   20.6851 C   0  0  0  0  0  0  0  0  0  0  0  0
    7.6922  -14.2220   19.3382 C   0  0  0  0  0  0  0  0  0  0  0  0
    8.0442  -12.9319   19.0682 C   0  0  0  0  0  0  0  0  0  0  0  0
    8.0344  -12.7838   17.7309 N   0  0  0  0  0  0  0  0  0  0  0  0
    7.6829  -13.9617   17.1934 C   0  0  0  0  0  0  0  0  0  0  0  0
    7.4727  -14.8446   18.1739 N   0  0  0  0  0  0  0  0  0  0  0  0
    8.7347  -15.5927   22.6772 C   0  0  0  0  0  0  0  0  0  0  0  0
    7.7625  -15.2202   23.3975 O   0  0  0  0  0  0  0  0  0  0  0  0
   10.2098  -20.1610   22.5860 N   0  0  0  0  0  0  0  0  0  0  0  0
    9.4602  -19.5664   23.6568 C   0  0  0  0  0  0  0  0  0  0  0  0
    8.2901  -19.9444   23.8365 O   0  0  0  0  0  0  0  0  0  0  0  0
   10.1690  -18.5411   24.4571 C   0  0  0  0  0  0  0  0  0  0  0  0
    9.4540  -17.2066   24.4105 C   0  0  2  0  0  0  0  0  0  0  0  0
    9.6039  -16.6239   23.0973 N   0  0  0  0  0  0  0  0  0  0  0  0
   10.0133  -16.2613   25.4103 C   0  0  0  0  0  0  0  0  0  0  0  0
   11.2050  -15.8536   25.2250 O   0  0  0  0  0  0  0  0  0  0  0  0
    6.7786  -10.9237   25.1855 C   0  0  0  0  0  0  0  0  0  0  0  0
    7.2979  -11.7211   26.6854 S   0  0  0  0  0  0  0  0  0  0  0  0
    8.5353  -12.9835   26.4050 C   0  0  0  0  0  0  0  0  0  0  0  0
    9.0353  -13.6640   27.6143 C   0  0  0  0  0  0  0  0  0  0  0  0
    9.9482  -14.8234   27.4448 C   0  0  2  0  0  0  0  0  0  0  0  0
    9.3137  -15.8009   26.5281 N   0  0  0  0  0  0  0  0  0  0  0  0
   10.1475  -15.5853   28.6985 C   0  0  0  0  0  0  0  0  0  0  0  0
   10.7297  -15.0662   29.6700 O   0  0  0  0  0  0  0  0  0  0  0  0
    9.6975  -16.8762   28.8125 O   0  0  0  0  0  0  0  0  0  0  0  0
  2  3  1  0
  2  1  1  6
  4  3  1  0
  5  4  2  0
  6  5  1  0
  7  6  1  0
  7  8  2  0
  8  4  1  0
  9  2  1  0
 10  9  2  0
 12 11  1  0
 13 12  2  0
 14 12  1  0
 15 14  1  6
 15 16  1  0
 16  9  1  0
 17 15  1  0
 17 18  2  0
 19 20  1  0
 20 21  1  0
 23 22  1  1
 22 21  1  0
 23 24  1  0
 24 17  1  0
 25 23  1  0
 26 25  2  0
 27 25  1  0
M  END
$$$$
