HNM.pdb
     RDKit          3D

 27 27  0  0  1  0  0  0  0  0999 V2000
    9.5810  -17.8855   18.1824 N   0  0  0  0  0  0  0  0  0  0  0  0
    9.3725  -16.8058   19.1102 C   0  0  1  0  0  0  0  0  0  0  0  0
    8.3428  -15.8390   18.5484 C   0  0  0  0  0  0  0  0  0  0  0  0
    8.0740  -14.7274   19.4817 C   0  0  0  0  0  0  0  0  0  0  0  0
    8.6129  -14.5914   20.7276 C   0  0  0  0  0  0  0  0  0  0  0  0
    8.1236  -13.4546   21.2556 N   0  0  0  0  0  0  0  0  0  0  0  0
    7.3008  -12.9059   20.3490 C   0  0  0  0  0  0  0  0  0  0  0  0
    7.2678  -13.6818   19.2619 N   0  0  0  0  0  0  0  0  0  0  0  0
    8.8511  -17.3324   20.3983 C   0  0  0  0  0  0  0  0  0  0  0  0
    8.1991  -18.4171   20.3696 O   0  0  0  0  0  0  0  0  0  0  0  0
   13.5580  -17.1883   23.0816 N   0  0  0  0  0  0  0  0  0  0  0  0
   12.3386  -17.9262   22.9075 C   0  0  0  0  0  0  0  0  0  0  0  0
   12.1873  -18.9744   23.5576 O   0  0  0  0  0  0  0  0  0  0  0  0
   11.3621  -17.3545   21.9515 C   0  0  0  0  0  0  0  0  0  0  0  0
    9.9979  -17.1811   22.5865 C   0  0  2  0  0  0  0  0  0  0  0  0
    9.0760  -16.6456   21.6120 N   0  0  0  0  0  0  0  0  0  0  0  0
   10.0562  -16.2477   23.7403 C   0  0  0  0  0  0  0  0  0  0  0  0
   10.9007  -16.5056   24.6574 O   0  0  0  0  0  0  0  0  0  0  0  0
    7.4905  -10.6726   26.5503 C   0  0  0  0  0  0  0  0  0  0  0  0
    6.1576  -11.8156   26.2816 S   0  0  0  0  0  0  0  0  0  0  0  0
    6.7119  -13.5149   26.1880 C   0  0  0  0  0  0  0  0  0  0  0  0
    7.5371  -13.8510   25.0126 C   0  0  0  0  0  0  0  0  0  0  0  0
    8.7030  -14.7513   25.2035 C   0  0  2  0  0  0  0  0  0  0  0  0
    9.2466  -15.1173   23.8735 N   0  0  0  0  0  0  0  0  0  0  0  0
    8.3320  -16.0507   25.8086 C   0  0  0  0  0  0  0  0  0  0  0  0
    7.6991  -16.8985   25.1508 O   0  0  0  0  0  0  0  0  0  0  0  0
    8.6758  -16.3435   27.1040 O   0  0  0  0  0  0  0  0  0  0  0  0
  2  3  1  0
  2  1  1  6
  4  3  1  0
  5  4  2  0
  6  5  1  0
  7  6  1  0
  7  8  2  0
  8  4  1  0
  9  2  1  0
 10  9  2  0
 12 11  1  0
 13 12  2  0
 14 12  1  0
 15 14  1  6
 15 16  1  0
 16  9  1  0
 17 15  1  0
 17 18  2  0
 19 20  1  0
 20 21  1  0
 23 22  1  6
 22 21  1  0
 23 24  1  0
 24 17  1  0
 25 23  1  0
 26 25  2  0
 27 25  1  0
M  END
$$$$
