HNM.pdb
     RDKit          3D

 27 27  0  0  1  0  0  0  0  0999 V2000
    8.6073  -19.2542   18.1552 N   0  0  0  0  0  0  0  0  0  0  0  0
    8.9383  -18.0407   18.8538 C   0  0  1  0  0  0  0  0  0  0  0  0
    8.8826  -16.8646   17.8925 C   0  0  0  0  0  0  0  0  0  0  0  0
    9.9328  -16.9562   16.8592 C   0  0  0  0  0  0  0  0  0  0  0  0
   11.2711  -16.8004   17.0741 C   0  0  0  0  0  0  0  0  0  0  0  0
   11.8896  -16.9575   15.8896 N   0  0  0  0  0  0  0  0  0  0  0  0
   10.9469  -17.2047   14.9676 C   0  0  0  0  0  0  0  0  0  0  0  0
    9.7479  -17.2048   15.5571 N   0  0  0  0  0  0  0  0  0  0  0  0
    7.9547  -17.7916   19.9395 C   0  0  0  0  0  0  0  0  0  0  0  0
    6.7452  -18.0929   19.7182 O   0  0  0  0  0  0  0  0  0  0  0  0
    7.1857  -20.6782   24.3874 N   0  0  0  0  0  0  0  0  0  0  0  0
    6.8775  -19.3819   23.8521 C   0  0  0  0  0  0  0  0  0  0  0  0
    6.0938  -18.6549   24.4859 O   0  0  0  0  0  0  0  0  0  0  0  0
    7.5363  -19.0321   22.5725 C   0  0  0  0  0  0  0  0  0  0  0  0
    7.6108  -17.5319   22.3768 C   0  0  2  0  0  0  0  0  0  0  0  0
    8.3565  -17.2378   21.1753 N   0  0  0  0  0  0  0  0  0  0  0  0
    8.2877  -16.8728   23.5229 C   0  0  0  0  0  0  0  0  0  0  0  0
    9.5443  -17.0437   23.6351 O   0  0  0  0  0  0  0  0  0  0  0  0
    7.1063  -10.1829   26.6584 C   0  0  0  0  0  0  0  0  0  0  0  0
    6.5524  -11.8637   26.5056 S   0  0  0  0  0  0  0  0  0  0  0  0
    7.9019  -13.0204   26.2949 C   0  0  0  0  0  0  0  0  0  0  0  0
    7.5170  -14.4430   26.2357 C   0  0  0  0  0  0  0  0  0  0  0  0
    8.4130  -15.3869   25.5198 C   0  0  2  0  0  0  0  0  0  0  0  0
    7.6309  -16.0862   24.4720 N   0  0  0  0  0  0  0  0  0  0  0  0
    8.9066  -16.4801   26.3877 C   0  0  0  0  0  0  0  0  0  0  0  0
    8.2934  -17.5626   26.4542 O   0  0  0  0  0  0  0  0  0  0  0  0
   10.0453  -16.3204   27.1359 O   0  0  0  0  0  0  0  0  0  0  0  0
  2  3  1  0
  2  1  1  6
  4  3  1  0
  5  4  2  0
  6  5  1  0
  7  6  1  0
  7  8  2  0
  8  4  1  0
  9  2  1  0
 10  9  2  0
 12 11  1  0
 13 12  2  0
 14 12  1  0
 15 14  1  1
 15 16  1  0
 16  9  1  0
 17 15  1  0
 17 18  2  0
 19 20  1  0
 20 21  1  0
 23 22  1  1
 22 21  1  0
 23 24  1  0
 24 17  1  0
 25 23  1  0
 26 25  2  0
 27 25  1  0
M  END
$$$$
