HNM.pdb
     RDKit          3D

 27 27  0  0  1  0  0  0  0  0999 V2000
    8.6550  -17.0727   19.3864 N   0  0  0  0  0  0  0  0  0  0  0  0
    9.0230  -16.1037   20.3843 C   0  0  1  0  0  0  0  0  0  0  0  0
    7.9930  -14.9864   20.4179 C   0  0  0  0  0  0  0  0  0  0  0  0
    7.9920  -14.2091   19.1630 C   0  0  0  0  0  0  0  0  0  0  0  0
    8.6715  -13.0450   18.9519 C   0  0  0  0  0  0  0  0  0  0  0  0
    8.4154  -12.6530   17.6904 N   0  0  0  0  0  0  0  0  0  0  0  0
    7.5946  -13.5607   17.1407 C   0  0  0  0  0  0  0  0  0  0  0  0
    7.3332  -14.5148   18.0387 N   0  0  0  0  0  0  0  0  0  0  0  0
    9.0530  -16.7393   21.7272 C   0  0  0  0  0  0  0  0  0  0  0  0
    7.9677  -17.2069   22.1812 O   0  0  0  0  0  0  0  0  0  0  0  0
   12.7944  -19.6888   25.3874 N   0  0  0  0  0  0  0  0  0  0  0  0
   11.4761  -19.2401   25.0370 C   0  0  0  0  0  0  0  0  0  0  0  0
   10.5541  -19.4336   25.8475 O   0  0  0  0  0  0  0  0  0  0  0  0
   11.3422  -18.5783   23.7187 C   0  0  0  0  0  0  0  0  0  0  0  0
   10.2718  -17.5068   23.7401 C   0  0  2  0  0  0  0  0  0  0  0  0
   10.2517  -16.8186   22.4704 N   0  0  0  0  0  0  0  0  0  0  0  0
   10.5297  -16.5100   24.8106 C   0  0  0  0  0  0  0  0  0  0  0  0
   11.3926  -15.6054   24.5699 O   0  0  0  0  0  0  0  0  0  0  0  0
    6.1900  -12.9080   27.2015 C   0  0  0  0  0  0  0  0  0  0  0  0
    7.7039  -12.1457   27.7328 S   0  0  0  0  0  0  0  0  0  0  0  0
    9.0406  -13.3208   27.9229 C   0  0  0  0  0  0  0  0  0  0  0  0
    9.0084  -14.4748   27.0049 C   0  0  0  0  0  0  0  0  0  0  0  0
   10.1538  -15.4205   27.0203 C   0  0  2  0  0  0  0  0  0  0  0  0
    9.8867  -16.5099   26.0505 N   0  0  0  0  0  0  0  0  0  0  0  0
   10.3014  -16.1224   28.3155 C   0  0  0  0  0  0  0  0  0  0  0  0
    9.9728  -17.3187   28.4293 O   0  0  0  0  0  0  0  0  0  0  0  0
   10.7996  -15.4682   29.4136 O   0  0  0  0  0  0  0  0  0  0  0  0
  2  3  1  0
  2  1  1  6
  4  3  1  0
  5  4  2  0
  6  5  1  0
  7  6  1  0
  7  8  2  0
  8  4  1  0
  9  2  1  0
 10  9  2  0
 12 11  1  0
 13 12  2  0
 14 12  1  0
 15 14  1  6
 15 16  1  0
 16  9  1  0
 17 15  1  0
 17 18  2  0
 19 20  1  0
 20 21  1  0
 23 22  1  1
 22 21  1  0
 23 24  1  0
 24 17  1  0
 25 23  1  0
 26 25  2  0
 27 25  1  0
M  END
$$$$
