HNM.pdb
     RDKit          3D

 27 27  0  0  1  0  0  0  0  0999 V2000
    7.8882  -16.4955   20.2667 N   0  0  0  0  0  0  0  0  0  0  0  0
    9.2511  -16.6701   19.8398 C   0  0  1  0  0  0  0  0  0  0  0  0
    9.8328  -15.3294   19.4217 C   0  0  0  0  0  0  0  0  0  0  0  0
    8.7783  -14.3139   19.2323 C   0  0  0  0  0  0  0  0  0  0  0  0
    7.4379  -14.5293   19.3675 C   0  0  0  0  0  0  0  0  0  0  0  0
    6.8157  -13.3633   19.1149 N   0  0  0  0  0  0  0  0  0  0  0  0
    7.7585  -12.4520   18.8306 C   0  0  0  0  0  0  0  0  0  0  0  0
    8.9610  -13.0299   18.9014 N   0  0  0  0  0  0  0  0  0  0  0  0
   10.0738  -17.1969   20.9596 C   0  0  0  0  0  0  0  0  0  0  0  0
   11.2708  -17.5230   20.7075 O   0  0  0  0  0  0  0  0  0  0  0  0
   11.7593  -20.5249   21.8910 N   0  0  0  0  0  0  0  0  0  0  0  0
   11.9880  -19.6605   23.0146 C   0  0  0  0  0  0  0  0  0  0  0  0
   12.3870  -20.1686   24.0761 O   0  0  0  0  0  0  0  0  0  0  0  0
   11.7204  -18.2204   22.7936 C   0  0  0  0  0  0  0  0  0  0  0  0
   10.3659  -17.8162   23.3381 C   0  0  2  0  0  0  0  0  0  0  0  0
    9.5377  -17.3286   22.2598 N   0  0  0  0  0  0  0  0  0  0  0  0
   10.4939  -16.7412   24.3550 C   0  0  0  0  0  0  0  0  0  0  0  0
   11.5454  -16.0245   24.3173 O   0  0  0  0  0  0  0  0  0  0  0  0
    5.8018  -12.3443   26.8881 C   0  0  0  0  0  0  0  0  0  0  0  0
    7.5376  -11.9674   26.8759 S   0  0  0  0  0  0  0  0  0  0  0  0
    8.5555  -13.3825   27.2820 C   0  0  0  0  0  0  0  0  0  0  0  0
    8.6780  -14.4027   26.2238 C   0  0  0  0  0  0  0  0  0  0  0  0
    9.7751  -15.3987   26.3279 C   0  0  2  0  0  0  0  0  0  0  0  0
    9.5372  -16.4763   25.3376 N   0  0  0  0  0  0  0  0  0  0  0  0
    9.7882  -16.1046   27.6292 C   0  0  0  0  0  0  0  0  0  0  0  0
   10.0221  -15.4847   28.6842 O   0  0  0  0  0  0  0  0  0  0  0  0
    9.5459  -17.4532   27.6967 O   0  0  0  0  0  0  0  0  0  0  0  0
  2  3  1  0
  2  1  1  1
  4  3  1  0
  5  4  2  0
  6  5  1  0
  7  6  1  0
  7  8  2  0
  8  4  1  0
  9  2  1  0
 10  9  2  0
 12 11  1  0
 13 12  2  0
 14 12  1  0
 15 14  1  6
 15 16  1  0
 16  9  1  0
 17 15  1  0
 17 18  2  0
 19 20  1  0
 20 21  1  0
 23 22  1  1
 22 21  1  0
 23 24  1  0
 24 17  1  0
 25 23  1  0
 26 25  2  0
 27 25  1  0
M  END
$$$$
