HNM.pdb
     RDKit          3D

 27 27  0  0  1  0  0  0  0  0999 V2000
    8.2108  -16.9917   20.0315 N   0  0  0  0  0  0  0  0  0  0  0  0
    8.8443  -16.0277   20.8916 C   0  0  1  0  0  0  0  0  0  0  0  0
    8.0524  -14.7303   20.8778 C   0  0  0  0  0  0  0  0  0  0  0  0
    8.1852  -14.0254   19.5877 C   0  0  0  0  0  0  0  0  0  0  0  0
    8.9151  -12.8924   19.3757 C   0  0  0  0  0  0  0  0  0  0  0  0
    8.7830  -12.5659   18.0771 N   0  0  0  0  0  0  0  0  0  0  0  0
    7.9870  -13.4825   17.5058 C   0  0  0  0  0  0  0  0  0  0  0  0
    7.6190  -14.3775   18.4271 N   0  0  0  0  0  0  0  0  0  0  0  0
    8.8735  -16.5314   22.2894 C   0  0  0  0  0  0  0  0  0  0  0  0
    7.8030  -17.0124   22.7640 O   0  0  0  0  0  0  0  0  0  0  0  0
   10.2283  -18.6067   26.5755 N   0  0  0  0  0  0  0  0  0  0  0  0
   11.2956  -18.8658   25.6505 C   0  0  0  0  0  0  0  0  0  0  0  0
   12.1859  -19.6643   25.9883 O   0  0  0  0  0  0  0  0  0  0  0  0
   11.2293  -18.1418   24.3600 C   0  0  0  0  0  0  0  0  0  0  0  0
   10.1093  -17.1220   24.3510 C   0  0  2  0  0  0  0  0  0  0  0  0
   10.0556  -16.4749   23.0607 N   0  0  0  0  0  0  0  0  0  0  0  0
   10.3207  -16.0817   25.3897 C   0  0  0  0  0  0  0  0  0  0  0  0
   11.3069  -15.2920   25.2324 O   0  0  0  0  0  0  0  0  0  0  0  0
    5.8732  -11.3591   25.9893 C   0  0  0  0  0  0  0  0  0  0  0  0
    6.4807  -12.4353   27.2652 S   0  0  0  0  0  0  0  0  0  0  0  0
    8.0204  -13.2331   26.8222 C   0  0  0  0  0  0  0  0  0  0  0  0
    8.5882  -14.1320   27.8445 C   0  0  0  0  0  0  0  0  0  0  0  0
    9.8299  -14.8784   27.5163 C   0  0  2  0  0  0  0  0  0  0  0  0
    9.5083  -15.9235   26.5148 N   0  0  0  0  0  0  0  0  0  0  0  0
   10.3641  -15.6390   28.6687 C   0  0  0  0  0  0  0  0  0  0  0  0
   10.2396  -16.8774   28.7233 O   0  0  0  0  0  0  0  0  0  0  0  0
   11.0029  -14.9946   29.6976 O   0  0  0  0  0  0  0  0  0  0  0  0
  2  3  1  0
  2  1  1  6
  4  3  1  0
  5  4  2  0
  6  5  1  0
  7  6  1  0
  7  8  2  0
  8  4  1  0
  9  2  1  0
 10  9  2  0
 12 11  1  0
 13 12  2  0
 14 12  1  0
 15 14  1  6
 15 16  1  0
 16  9  1  0
 17 15  1  0
 17 18  2  0
 19 20  1  0
 20 21  1  0
 23 22  1  1
 22 21  1  0
 23 24  1  0
 24 17  1  0
 25 23  1  0
 26 25  2  0
 27 25  1  0
M  END
$$$$
