HNM.pdb
     RDKit          3D

 27 27  0  0  1  0  0  0  0  0999 V2000
    8.0161  -16.8214   18.6287 N   0  0  0  0  0  0  0  0  0  0  0  0
    8.6171  -16.1114   19.7265 C   0  0  1  0  0  0  0  0  0  0  0  0
    8.9040  -14.6770   19.3133 C   0  0  0  0  0  0  0  0  0  0  0  0
    8.5305  -14.4308   17.9066 C   0  0  0  0  0  0  0  0  0  0  0  0
    7.2585  -14.2630   17.4426 C   0  0  0  0  0  0  0  0  0  0  0  0
    7.3381  -14.0624   16.1144 N   0  0  0  0  0  0  0  0  0  0  0  0
    8.6348  -14.1069   15.7730 C   0  0  0  0  0  0  0  0  0  0  0  0
    9.3678  -14.3322   16.8670 N   0  0  0  0  0  0  0  0  0  0  0  0
    7.6856  -16.0769   20.8838 C   0  0  0  0  0  0  0  0  0  0  0  0
    6.4488  -15.9597   20.6403 O   0  0  0  0  0  0  0  0  0  0  0  0
    6.8444  -20.2185   24.3859 N   0  0  0  0  0  0  0  0  0  0  0  0
    6.3535  -18.9456   23.9378 C   0  0  0  0  0  0  0  0  0  0  0  0
    5.3000  -18.5131   24.4353 O   0  0  0  0  0  0  0  0  0  0  0  0
    7.1665  -18.2602   22.9067 C   0  0  0  0  0  0  0  0  0  0  0  0
    7.3523  -16.7920   23.2298 C   0  0  2  0  0  0  0  0  0  0  0  0
    8.1647  -16.1718   22.2092 N   0  0  0  0  0  0  0  0  0  0  0  0
    8.0261  -16.6108   24.5410 C   0  0  0  0  0  0  0  0  0  0  0  0
    7.4392  -17.0805   25.5685 O   0  0  0  0  0  0  0  0  0  0  0  0
    6.6442  -11.3457   25.6572 C   0  0  0  0  0  0  0  0  0  0  0  0
    6.9023  -12.1244   27.2328 S   0  0  0  0  0  0  0  0  0  0  0  0
    8.2507  -13.3011   27.2102 C   0  0  0  0  0  0  0  0  0  0  0  0
    8.3512  -14.1302   25.9944 C   0  0  0  0  0  0  0  0  0  0  0  0
    9.4744  -15.0967   25.8906 C   0  0  2  0  0  0  0  0  0  0  0  0
    9.2519  -15.9621   24.7073 N   0  0  0  0  0  0  0  0  0  0  0  0
    9.5213  -16.0466   27.0252 C   0  0  0  0  0  0  0  0  0  0  0  0
    8.9510  -17.1518   26.9507 O   0  0  0  0  0  0  0  0  0  0  0  0
   10.1905  -15.7265   28.1792 O   0  0  0  0  0  0  0  0  0  0  0  0
  2  3  1  0
  2  1  1  6
  4  3  1  0
  5  4  2  0
  6  5  1  0
  7  6  1  0
  7  8  2  0
  8  4  1  0
  9  2  1  0
 10  9  2  0
 12 11  1  0
 13 12  2  0
 14 12  1  0
 15 14  1  6
 15 16  1  0
 16  9  1  0
 17 15  1  0
 17 18  2  0
 19 20  1  0
 20 21  1  0
 23 22  1  1
 22 21  1  0
 23 24  1  0
 24 17  1  0
 25 23  1  0
 26 25  2  0
 27 25  1  0
M  END
$$$$
