HNM.pdb
     RDKit          3D

 27 27  0  0  1  0  0  0  0  0999 V2000
   10.0061  -15.0989   20.9815 N   0  0  0  0  0  0  0  0  0  0  0  0
    8.6577  -15.3220   21.4312 C   0  0  1  0  0  0  0  0  0  0  0  0
    7.7470  -15.5370   20.2333 C   0  0  0  0  0  0  0  0  0  0  0  0
    7.8223  -14.4097   19.2832 C   0  0  0  0  0  0  0  0  0  0  0  0
    8.6774  -13.3508   19.3769 C   0  0  0  0  0  0  0  0  0  0  0  0
    8.4366  -12.5452   18.3263 N   0  0  0  0  0  0  0  0  0  0  0  0
    7.4525  -13.1016   17.6038 C   0  0  0  0  0  0  0  0  0  0  0  0
    7.0738  -14.2429   18.1862 N   0  0  0  0  0  0  0  0  0  0  0  0
    8.5965  -16.5419   22.2775 C   0  0  0  0  0  0  0  0  0  0  0  0
    7.4652  -16.8911   22.7257 O   0  0  0  0  0  0  0  0  0  0  0  0
   11.7550  -21.4481   23.9121 N   0  0  0  0  0  0  0  0  0  0  0  0
   10.5080  -20.7678   23.7019 C   0  0  0  0  0  0  0  0  0  0  0  0
    9.4845  -21.2405   24.2248 O   0  0  0  0  0  0  0  0  0  0  0  0
   10.5652  -19.5462   22.8662 C   0  0  0  0  0  0  0  0  0  0  0  0
    9.6813  -18.4493   23.4228 C   0  0  2  0  0  0  0  0  0  0  0  0
    9.7611  -17.2856   22.5710 N   0  0  0  0  0  0  0  0  0  0  0  0
   10.1054  -18.0593   24.7917 C   0  0  0  0  0  0  0  0  0  0  0  0
    9.7783  -18.8347   25.7470 O   0  0  0  0  0  0  0  0  0  0  0  0
   10.3755  -12.9325   28.6656 C   0  0  0  0  0  0  0  0  0  0  0  0
    9.1169  -13.0390   27.4166 S   0  0  0  0  0  0  0  0  0  0  0  0
    8.5388  -14.7131   27.1581 C   0  0  0  0  0  0  0  0  0  0  0  0
    9.1708  -15.4389   26.0404 C   0  0  0  0  0  0  0  0  0  0  0  0
   10.4830  -16.0936   26.2766 C   0  0  2  0  0  0  0  0  0  0  0  0
   10.8336  -16.9042   25.0855 N   0  0  0  0  0  0  0  0  0  0  0  0
   10.4425  -17.0789   27.3810 C   0  0  0  0  0  0  0  0  0  0  0  0
    9.7931  -18.1356   27.2641 O   0  0  0  0  0  0  0  0  0  0  0  0
   11.1164  -16.8452   28.5528 O   0  0  0  0  0  0  0  0  0  0  0  0
  2  3  1  0
  2  1  1  6
  4  3  1  0
  5  4  2  0
  6  5  1  0
  7  6  1  0
  7  8  2  0
  8  4  1  0
  9  2  1  0
 10  9  2  0
 12 11  1  0
 13 12  2  0
 14 12  1  0
 15 14  1  6
 15 16  1  0
 16  9  1  0
 17 15  1  0
 17 18  2  0
 19 20  1  0
 20 21  1  0
 23 22  1  6
 22 21  1  0
 23 24  1  0
 24 17  1  0
 25 23  1  0
 26 25  2  0
 27 25  1  0
M  END
$$$$
