HNM.pdb
     RDKit          3D

 27 27  0  0  1  0  0  0  0  0999 V2000
    9.5918  -18.5899   19.9622 N   0  0  0  0  0  0  0  0  0  0  0  0
    9.5346  -17.1537   19.8962 C   0  0  1  0  0  0  0  0  0  0  0  0
    8.7200  -16.7284   18.6854 C   0  0  0  0  0  0  0  0  0  0  0  0
    9.3146  -17.2235   17.4283 C   0  0  0  0  0  0  0  0  0  0  0  0
   10.5597  -16.9132   16.9651 C   0  0  0  0  0  0  0  0  0  0  0  0
   10.7268  -17.5595   15.7967 N   0  0  0  0  0  0  0  0  0  0  0  0
    9.6044  -18.2521   15.5505 C   0  0  0  0  0  0  0  0  0  0  0  0
    8.7376  -18.0491   16.5468 N   0  0  0  0  0  0  0  0  0  0  0  0
    8.8682  -16.6127   21.1093 C   0  0  0  0  0  0  0  0  0  0  0  0
    8.7999  -15.3545   21.2314 O   0  0  0  0  0  0  0  0  0  0  0  0
    5.5936  -16.3549   25.1443 N   0  0  0  0  0  0  0  0  0  0  0  0
    6.4251  -17.5144   25.3059 C   0  0  0  0  0  0  0  0  0  0  0  0
    6.5482  -17.9958   26.4450 O   0  0  0  0  0  0  0  0  0  0  0  0
    7.0668  -18.0324   24.0755 C   0  0  0  0  0  0  0  0  0  0  0  0
    7.7336  -16.9243   23.2869 C   0  0  2  0  0  0  0  0  0  0  0  0
    8.3299  -17.4735   22.0914 N   0  0  0  0  0  0  0  0  0  0  0  0
    8.7997  -16.2640   24.0827 C   0  0  0  0  0  0  0  0  0  0  0  0
    9.2576  -15.1605   23.6428 O   0  0  0  0  0  0  0  0  0  0  0  0
    8.1870  -11.4546   26.3466 C   0  0  0  0  0  0  0  0  0  0  0  0
    8.5271  -12.3681   27.8315 S   0  0  0  0  0  0  0  0  0  0  0  0
    9.6117  -13.7642   27.5517 C   0  0  0  0  0  0  0  0  0  0  0  0
    9.1570  -14.7287   26.5327 C   0  0  0  0  0  0  0  0  0  0  0  0
   10.0342  -15.8844   26.2142 C   0  0  2  0  0  0  0  0  0  0  0  0
    9.3212  -16.7796   25.2715 N   0  0  0  0  0  0  0  0  0  0  0  0
   10.3021  -16.7430   27.3902 C   0  0  0  0  0  0  0  0  0  0  0  0
   10.9582  -16.3085   28.3561 O   0  0  0  0  0  0  0  0  0  0  0  0
    9.8356  -18.0323   27.4367 O   0  0  0  0  0  0  0  0  0  0  0  0
  2  3  1  0
  2  1  1  1
  4  3  1  0
  5  4  2  0
  6  5  1  0
  7  6  1  0
  7  8  2  0
  8  4  1  0
  9  2  1  0
 10  9  2  0
 12 11  1  0
 13 12  2  0
 14 12  1  0
 15 14  1  1
 15 16  1  0
 16  9  1  0
 17 15  1  0
 17 18  2  0
 19 20  1  0
 20 21  1  0
 23 22  1  1
 22 21  1  0
 23 24  1  0
 24 17  1  0
 25 23  1  0
 26 25  2  0
 27 25  1  0
M  END
$$$$
