HNM.pdb
     RDKit          3D

 27 27  0  0  1  0  0  0  0  0999 V2000
    8.5850  -17.2197   18.6024 N   0  0  0  0  0  0  0  0  0  0  0  0
    8.9420  -16.2842   19.6357 C   0  0  1  0  0  0  0  0  0  0  0  0
    7.9154  -15.1645   19.6901 C   0  0  0  0  0  0  0  0  0  0  0  0
    7.9885  -14.3007   18.4952 C   0  0  0  0  0  0  0  0  0  0  0  0
    8.6710  -13.1225   18.4103 C   0  0  0  0  0  0  0  0  0  0  0  0
    8.4930  -12.6434   17.1656 N   0  0  0  0  0  0  0  0  0  0  0  0
    7.7160  -13.5128   16.5020 C   0  0  0  0  0  0  0  0  0  0  0  0
    7.4051  -14.5286   17.3123 N   0  0  0  0  0  0  0  0  0  0  0  0
    8.9503  -16.9622   20.9581 C   0  0  0  0  0  0  0  0  0  0  0  0
    8.0190  -17.7836   21.2040 O   0  0  0  0  0  0  0  0  0  0  0  0
   12.5919  -19.4562   24.9319 N   0  0  0  0  0  0  0  0  0  0  0  0
   11.2869  -19.0506   24.4908 C   0  0  0  0  0  0  0  0  0  0  0  0
   10.3049  -19.3814   25.1768 O   0  0  0  0  0  0  0  0  0  0  0  0
   11.2387  -18.2627   23.2374 C   0  0  0  0  0  0  0  0  0  0  0  0
    9.9851  -17.4160   23.1603 C   0  0  2  0  0  0  0  0  0  0  0  0
    9.9631  -16.6985   21.9069 N   0  0  0  0  0  0  0  0  0  0  0  0
    9.9342  -16.4280   24.2680 C   0  0  0  0  0  0  0  0  0  0  0  0
   10.7625  -15.4621   24.2268 O   0  0  0  0  0  0  0  0  0  0  0  0
    5.6400  -11.7410   26.2566 C   0  0  0  0  0  0  0  0  0  0  0  0
    7.2643  -12.1326   26.8593 S   0  0  0  0  0  0  0  0  0  0  0  0
    7.3943  -13.8157   27.4541 C   0  0  0  0  0  0  0  0  0  0  0  0
    7.6694  -14.8350   26.4241 C   0  0  0  0  0  0  0  0  0  0  0  0
    9.0301  -15.4278   26.3641 C   0  0  2  0  0  0  0  0  0  0  0  0
    9.0397  -16.4986   25.3385 N   0  0  0  0  0  0  0  0  0  0  0  0
    9.4079  -16.1257   27.6140 C   0  0  0  0  0  0  0  0  0  0  0  0
    9.4953  -15.5001   28.6878 O   0  0  0  0  0  0  0  0  0  0  0  0
    9.6708  -17.4722   27.6121 O   0  0  0  0  0  0  0  0  0  0  0  0
  2  3  1  0
  2  1  1  6
  4  3  1  0
  5  4  2  0
  6  5  1  0
  7  6  1  0
  7  8  2  0
  8  4  1  0
  9  2  1  0
 10  9  2  0
 12 11  1  0
 13 12  2  0
 14 12  1  0
 15 14  1  1
 15 16  1  0
 16  9  1  0
 17 15  1  0
 17 18  2  0
 19 20  1  0
 20 21  1  0
 23 22  1  1
 22 21  1  0
 23 24  1  0
 24 17  1  0
 25 23  1  0
 26 25  2  0
 27 25  1  0
M  END
$$$$
