HNM.pdb
     RDKit          3D

 27 27  0  0  1  0  0  0  0  0999 V2000
    7.9928  -17.1900   19.3082 N   0  0  0  0  0  0  0  0  0  0  0  0
    8.6098  -16.2428   20.1983 C   0  0  1  0  0  0  0  0  0  0  0  0
    7.7700  -14.9774   20.2620 C   0  0  0  0  0  0  0  0  0  0  0  0
    7.8738  -14.1921   19.0164 C   0  0  0  0  0  0  0  0  0  0  0  0
    8.6136  -14.5358   17.9228 C   0  0  0  0  0  0  0  0  0  0  0  0
    8.4456  -13.5679   17.0033 N   0  0  0  0  0  0  0  0  0  0  0  0
    7.6183  -12.6496   17.5252 C   0  0  0  0  0  0  0  0  0  0  0  0
    7.2662  -13.0280   18.7572 N   0  0  0  0  0  0  0  0  0  0  0  0
    8.6904  -16.8083   21.5701 C   0  0  0  0  0  0  0  0  0  0  0  0
    7.6034  -17.0787   22.1599 O   0  0  0  0  0  0  0  0  0  0  0  0
   11.9264  -20.1047   21.7162 N   0  0  0  0  0  0  0  0  0  0  0  0
   10.9177  -19.8137   22.6959 C   0  0  0  0  0  0  0  0  0  0  0  0
    9.9295  -20.5642   22.7636 O   0  0  0  0  0  0  0  0  0  0  0  0
   11.1587  -18.6247   23.5457 C   0  0  0  0  0  0  0  0  0  0  0  0
    9.9927  -17.6591   23.4953 C   0  0  2  0  0  0  0  0  0  0  0  0
    9.9374  -17.0359   22.1935 N   0  0  0  0  0  0  0  0  0  0  0  0
   10.1320  -16.5935   24.5206 C   0  0  0  0  0  0  0  0  0  0  0  0
   11.0477  -15.7274   24.3413 O   0  0  0  0  0  0  0  0  0  0  0  0
    7.0231  -11.3733   26.3438 C   0  0  0  0  0  0  0  0  0  0  0  0
    6.4983  -13.0235   25.9477 S   0  0  0  0  0  0  0  0  0  0  0  0
    7.8709  -14.1387   25.6727 C   0  0  0  0  0  0  0  0  0  0  0  0
    8.6224  -14.5322   26.8793 C   0  0  0  0  0  0  0  0  0  0  0  0
    9.6949  -15.5506   26.7415 C   0  0  2  0  0  0  0  0  0  0  0  0
    9.3247  -16.4900   25.6557 N   0  0  0  0  0  0  0  0  0  0  0  0
    9.8218  -16.4161   27.9360 C   0  0  0  0  0  0  0  0  0  0  0  0
    9.4931  -17.6167   27.8867 O   0  0  0  0  0  0  0  0  0  0  0  0
   10.3006  -15.9116   29.1185 O   0  0  0  0  0  0  0  0  0  0  0  0
  2  3  1  0
  2  1  1  6
  4  3  1  0
  5  4  2  0
  6  5  1  0
  7  6  1  0
  7  8  2  0
  8  4  1  0
  9  2  1  0
 10  9  2  0
 12 11  1  0
 13 12  2  0
 14 12  1  0
 15 14  1  6
 15 16  1  0
 16  9  1  0
 17 15  1  0
 17 18  2  0
 19 20  1  0
 20 21  1  0
 23 22  1  1
 22 21  1  0
 23 24  1  0
 24 17  1  0
 25 23  1  0
 26 25  2  0
 27 25  1  0
M  END
$$$$
