HNM.pdb
     RDKit          3D

 27 27  0  0  1  0  0  0  0  0999 V2000
    9.8798  -16.9718   20.5359 N   0  0  0  0  0  0  0  0  0  0  0  0
    9.5175  -16.2069   21.6995 C   0  0  1  0  0  0  0  0  0  0  0  0
    8.0926  -15.6978   21.5547 C   0  0  0  0  0  0  0  0  0  0  0  0
    8.0016  -14.6102   20.5608 C   0  0  0  0  0  0  0  0  0  0  0  0
    9.0430  -14.1136   19.8326 C   0  0  0  0  0  0  0  0  0  0  0  0
    8.5539  -13.1391   19.0442 N   0  0  0  0  0  0  0  0  0  0  0  0
    7.2378  -13.0418   19.2861 C   0  0  0  0  0  0  0  0  0  0  0  0
    6.8959  -13.9405   20.2137 N   0  0  0  0  0  0  0  0  0  0  0  0
    9.5767  -17.0631   22.9126 C   0  0  0  0  0  0  0  0  0  0  0  0
    9.3317  -18.2974   22.7741 O   0  0  0  0  0  0  0  0  0  0  0  0
   14.4440  -15.6926   24.9409 N   0  0  0  0  0  0  0  0  0  0  0  0
   13.6163  -16.7267   24.3863 C   0  0  0  0  0  0  0  0  0  0  0  0
   14.0626  -17.8863   24.3593 O   0  0  0  0  0  0  0  0  0  0  0  0
   12.2866  -16.3016   23.8914 C   0  0  0  0  0  0  0  0  0  0  0  0
   11.1728  -16.8042   24.7866 C   0  0  2  0  0  0  0  0  0  0  0  0
    9.8956  -16.5176   24.1760 N   0  0  0  0  0  0  0  0  0  0  0  0
   11.2148  -16.1473   26.1180 C   0  0  0  0  0  0  0  0  0  0  0  0
   12.3101  -16.2076   26.7641 O   0  0  0  0  0  0  0  0  0  0  0  0
    6.2570  -11.6733   25.9146 C   0  0  0  0  0  0  0  0  0  0  0  0
    6.9720  -12.3817   27.3782 S   0  0  0  0  0  0  0  0  0  0  0  0
    8.4220  -13.3716   27.0302 C   0  0  0  0  0  0  0  0  0  0  0  0
    9.1405  -13.8846   28.2118 C   0  0  0  0  0  0  0  0  0  0  0  0
   10.3010  -14.7862   27.9952 C   0  0  2  0  0  0  0  0  0  0  0  0
   10.1336  -15.4757   26.6932 N   0  0  0  0  0  0  0  0  0  0  0  0
   10.3620  -15.8901   28.9798 C   0  0  0  0  0  0  0  0  0  0  0  0
    9.8376  -16.9922   28.7298 O   0  0  0  0  0  0  0  0  0  0  0  0
   10.9942  -15.7191   30.1853 O   0  0  0  0  0  0  0  0  0  0  0  0
  2  3  1  0
  2  1  1  6
  4  3  1  0
  5  4  2  0
  6  5  1  0
  7  6  1  0
  7  8  2  0
  8  4  1  0
  9  2  1  0
 10  9  2  0
 12 11  1  0
 13 12  2  0
 14 12  1  0
 15 14  1  6
 15 16  1  0
 16  9  1  0
 17 15  1  0
 17 18  2  0
 19 20  1  0
 20 21  1  0
 23 22  1  1
 22 21  1  0
 23 24  1  0
 24 17  1  0
 25 23  1  0
 26 25  2  0
 27 25  1  0
M  END
$$$$
