GGY.pdb
     RDKit          3D

 21 21  0  0  1  0  0  0  0  0999 V2000
   28.9378  -16.6737  -17.8259 N   0  0  0  0  0  0  0  0  0  0  0  0
   28.1555  -17.8706  -17.8089 C   0  0  0  0  0  0  0  0  0  0  0  0
   27.2531  -17.9307  -16.6131 C   0  0  0  0  0  0  0  0  0  0  0  0
   26.0231  -18.0990  -16.8342 O   0  0  0  0  0  0  0  0  0  0  0  0
   27.7290  -17.8082  -15.2983 N   0  0  0  0  0  0  0  0  0  0  0  0
   26.8311  -17.8230  -14.1783 C   0  0  0  0  0  0  0  0  0  0  0  0
   26.2206  -19.1820  -14.0848 C   0  0  0  0  0  0  0  0  0  0  0  0
   26.2270  -19.9349  -15.0922 O   0  0  0  0  0  0  0  0  0  0  0  0
   26.6543  -19.1486   -6.8050 O   0  0  0  0  0  0  0  0  0  0  0  0
   26.4595  -19.8063   -8.0114 C   0  0  0  0  0  0  0  0  0  0  0  0
   27.3685  -19.5831   -9.0403 C   0  0  0  0  0  0  0  0  0  0  0  0
   27.1569  -20.2416  -10.2196 C   0  0  0  0  0  0  0  0  0  0  0  0
   26.1010  -21.1048  -10.4369 C   0  0  0  0  0  0  0  0  0  0  0  0
   25.8870  -21.8049  -11.7096 C   0  0  0  0  0  0  0  0  0  0  0  0
   25.1046  -20.9596  -12.6549 C   0  0  2  0  0  0  0  0  0  0  0  0
   25.6317  -19.6386  -12.8736 N   0  0  0  0  0  0  0  0  0  0  0  0
   23.6474  -20.8883  -12.3097 C   0  0  0  0  0  0  0  0  0  0  0  0
   23.0085  -19.7039  -12.0191 O   0  0  0  0  0  0  0  0  0  0  0  0
   25.1997  -21.3207   -9.4039 C   0  0  0  0  0  0  0  0  0  0  0  0
   25.3902  -20.6644   -8.1939 C   0  0  0  0  0  0  0  0  0  0  0  0
   22.9895  -21.9595  -12.2898 O   0  0  0  0  0  0  0  0  0  0  0  0
  2  1  1  0
  3  2  1  0
  4  3  2  0
  5  3  1  0
  6  5  1  0
  7 16  1  0
  7  6  1  0
  8  7  2  0
  9 10  1  0
 10 11  2  0
 10 20  1  0
 11 12  1  0
 12 13  2  0
 13 14  1  0
 15 14  1  1
 15 16  1  0
 15 17  1  0
 17 18  1  0
 19 13  1  0
 20 19  2  0
 21 17  2  0
M  END
$$$$
