GGY.pdb
     RDKit          3D

 21 21  0  0  1  0  0  0  0  0999 V2000
   21.5085  -14.5628  -17.2140 N   0  0  0  0  0  0  0  0  0  0  0  0
   22.2858  -15.2402  -18.2048 C   0  0  0  0  0  0  0  0  0  0  0  0
   23.0775  -16.3697  -17.6170 C   0  0  0  0  0  0  0  0  0  0  0  0
   23.9240  -16.0727  -16.7308 O   0  0  0  0  0  0  0  0  0  0  0  0
   22.9044  -17.7041  -18.0163 N   0  0  0  0  0  0  0  0  0  0  0  0
   23.6815  -18.7612  -17.4336 C   0  0  0  0  0  0  0  0  0  0  0  0
   22.8959  -19.3576  -16.3132 C   0  0  0  0  0  0  0  0  0  0  0  0
   23.3177  -20.3974  -15.7451 O   0  0  0  0  0  0  0  0  0  0  0  0
   18.5516  -13.3905  -15.3836 O   0  0  0  0  0  0  0  0  0  0  0  0
   19.0956  -14.5927  -14.9543 C   0  0  0  0  0  0  0  0  0  0  0  0
   18.2670  -15.7081  -14.8905 C   0  0  0  0  0  0  0  0  0  0  0  0
   18.8244  -16.8816  -14.4648 C   0  0  0  0  0  0  0  0  0  0  0  0
   20.1499  -17.0129  -14.1003 C   0  0  0  0  0  0  0  0  0  0  0  0
   20.7341  -18.2805  -13.6450 C   0  0  0  0  0  0  0  0  0  0  0  0
   20.8756  -19.2370  -14.7789 C   0  0  2  0  0  0  0  0  0  0  0  0
   21.6772  -18.7678  -15.8779 N   0  0  0  0  0  0  0  0  0  0  0  0
   19.5597  -19.7543  -15.2776 C   0  0  0  0  0  0  0  0  0  0  0  0
   19.1386  -19.5865  -16.5777 O   0  0  0  0  0  0  0  0  0  0  0  0
   20.9683  -15.8941  -14.1676 C   0  0  0  0  0  0  0  0  0  0  0  0
   20.4284  -14.6877  -14.5968 C   0  0  0  0  0  0  0  0  0  0  0  0
   18.8184  -20.3675  -14.4684 O   0  0  0  0  0  0  0  0  0  0  0  0
  2  1  1  0
  3  2  1  0
  4  3  2  0
  5  3  1  0
  6  5  1  0
  7 16  1  0
  7  6  1  0
  8  7  2  0
  9 10  1  0
 10 11  2  0
 10 20  1  0
 11 12  1  0
 12 13  2  0
 13 14  1  0
 15 14  1  1
 15 16  1  0
 15 17  1  0
 17 18  1  0
 19 13  1  0
 20 19  2  0
 21 17  2  0
M  END
$$$$
