GGY.pdb
     RDKit          3D

 21 21  0  0  1  0  0  0  0  0999 V2000
   22.1632  -16.7877  -15.9783 N   0  0  0  0  0  0  0  0  0  0  0  0
   23.0211  -17.1063  -14.8795 C   0  0  0  0  0  0  0  0  0  0  0  0
   24.4424  -17.2958  -15.3177 C   0  0  0  0  0  0  0  0  0  0  0  0
   24.6311  -17.9692  -16.3671 O   0  0  0  0  0  0  0  0  0  0  0  0
   25.5305  -16.7595  -14.6117 N   0  0  0  0  0  0  0  0  0  0  0  0
   26.8785  -16.9482  -15.0678 C   0  0  0  0  0  0  0  0  0  0  0  0
   27.2428  -18.3826  -14.8727 C   0  0  0  0  0  0  0  0  0  0  0  0
   28.2319  -18.8598  -15.4858 O   0  0  0  0  0  0  0  0  0  0  0  0
   25.1056  -20.1979   -7.7320 O   0  0  0  0  0  0  0  0  0  0  0  0
   25.7187  -20.4045   -8.9597 C   0  0  0  0  0  0  0  0  0  0  0  0
   26.3864  -19.3382   -9.5529 C   0  0  0  0  0  0  0  0  0  0  0  0
   26.9829  -19.5646  -10.7621 C   0  0  0  0  0  0  0  0  0  0  0  0
   26.9559  -20.7815  -11.4143 C   0  0  0  0  0  0  0  0  0  0  0  0
   27.6015  -21.0092  -12.7131 C   0  0  0  0  0  0  0  0  0  0  0  0
   26.6914  -20.6323  -13.8312 C   0  0  2  0  0  0  0  0  0  0  0  0
   26.4883  -19.2183  -14.0039 N   0  0  0  0  0  0  0  0  0  0  0  0
   25.3735  -21.3454  -13.7807 C   0  0  0  0  0  0  0  0  0  0  0  0
   24.1733  -20.6829  -13.6534 O   0  0  0  0  0  0  0  0  0  0  0  0
   26.2870  -21.8390  -10.8140 C   0  0  0  0  0  0  0  0  0  0  0  0
   25.6714  -21.6375   -9.5846 C   0  0  0  0  0  0  0  0  0  0  0  0
   25.3747  -22.6000  -13.8610 O   0  0  0  0  0  0  0  0  0  0  0  0
  2  1  1  0
  3  2  1  0
  4  3  2  0
  5  3  1  0
  6  5  1  0
  7 16  1  0
  7  6  1  0
  8  7  2  0
  9 10  1  0
 10 11  2  0
 10 20  1  0
 11 12  1  0
 12 13  2  0
 13 14  1  0
 15 14  1  1
 15 16  1  0
 15 17  1  0
 17 18  1  0
 19 13  1  0
 20 19  2  0
 21 17  2  0
M  END
$$$$
