GGY.pdb
     RDKit          3D

 21 21  0  0  1  0  0  0  0  0999 V2000
   24.8959  -20.5768  -16.6411 N   0  0  0  0  0  0  0  0  0  0  0  0
   24.5461  -19.4303  -15.8614 C   0  0  0  0  0  0  0  0  0  0  0  0
   25.4876  -19.2285  -14.7121 C   0  0  0  0  0  0  0  0  0  0  0  0
   24.9716  -19.0765  -13.5716 O   0  0  0  0  0  0  0  0  0  0  0  0
   26.8820  -19.2055  -14.8706 N   0  0  0  0  0  0  0  0  0  0  0  0
   27.7581  -19.1355  -13.7355 C   0  0  0  0  0  0  0  0  0  0  0  0
   27.4743  -20.3044  -12.8516 C   0  0  0  0  0  0  0  0  0  0  0  0
   27.8932  -21.4444  -13.1780 O   0  0  0  0  0  0  0  0  0  0  0  0
   28.3252  -18.5185   -5.3482 O   0  0  0  0  0  0  0  0  0  0  0  0
   28.1346  -19.3092   -6.4726 C   0  0  0  0  0  0  0  0  0  0  0  0
   26.8367  -19.4973   -6.9361 C   0  0  0  0  0  0  0  0  0  0  0  0
   26.6727  -20.2799   -8.0451 C   0  0  0  0  0  0  0  0  0  0  0  0
   27.7163  -20.8841   -8.7181 C   0  0  0  0  0  0  0  0  0  0  0  0
   27.5241  -21.7221   -9.9082 C   0  0  0  0  0  0  0  0  0  0  0  0
   26.3966  -21.2130  -10.7390 C   0  0  2  0  0  0  0  0  0  0  0  0
   26.7372  -20.1486  -11.6454 N   0  0  0  0  0  0  0  0  0  0  0  0
   25.1918  -20.8411   -9.9280 C   0  0  0  0  0  0  0  0  0  0  0  0
   24.5102  -21.7486   -9.1487 O   0  0  0  0  0  0  0  0  0  0  0  0
   29.0074  -20.6901   -8.2476 C   0  0  0  0  0  0  0  0  0  0  0  0
   29.2038  -19.8992   -7.1220 C   0  0  0  0  0  0  0  0  0  0  0  0
   24.7966  -19.6482   -9.9659 O   0  0  0  0  0  0  0  0  0  0  0  0
  2  1  1  0
  3  2  1  0
  4  3  2  0
  5  3  1  0
  6  5  1  0
  7 16  1  0
  7  6  1  0
  8  7  2  0
  9 10  1  0
 10 11  2  0
 10 20  1  0
 11 12  1  0
 12 13  2  0
 13 14  1  0
 15 14  1  1
 15 16  1  0
 15 17  1  0
 17 18  1  0
 19 13  1  0
 20 19  2  0
 21 17  2  0
M  END
$$$$
