GGY.pdb
     RDKit          3D

 21 21  0  0  1  0  0  0  0  0999 V2000
   29.6622  -22.3306  -16.8851 N   0  0  0  0  0  0  0  0  0  0  0  0
   28.9026  -22.3748  -15.6744 C   0  0  0  0  0  0  0  0  0  0  0  0
   27.8281  -21.3294  -15.6512 C   0  0  0  0  0  0  0  0  0  0  0  0
   26.8090  -21.5427  -16.3626 O   0  0  0  0  0  0  0  0  0  0  0  0
   27.9265  -20.1591  -14.8825 N   0  0  0  0  0  0  0  0  0  0  0  0
   26.8439  -19.2184  -14.8186 C   0  0  0  0  0  0  0  0  0  0  0  0
   25.8547  -19.7098  -13.8145 C   0  0  0  0  0  0  0  0  0  0  0  0
   24.6814  -19.2574  -13.8277 O   0  0  0  0  0  0  0  0  0  0  0  0
   28.0523  -18.7172   -6.9274 O   0  0  0  0  0  0  0  0  0  0  0  0
   27.5375  -19.5618   -7.9007 C   0  0  0  0  0  0  0  0  0  0  0  0
   26.1659  -19.7921   -7.9179 C   0  0  0  0  0  0  0  0  0  0  0  0
   25.6810  -20.6275   -8.8854 C   0  0  0  0  0  0  0  0  0  0  0  0
   26.4737  -21.2452   -9.8326 C   0  0  0  0  0  0  0  0  0  0  0  0
   25.9379  -22.1402  -10.8658 C   0  0  0  0  0  0  0  0  0  0  0  0
   25.3022  -21.3606  -11.9652 C   0  0  2  0  0  0  0  0  0  0  0  0
   26.2189  -20.6822  -12.8428 N   0  0  0  0  0  0  0  0  0  0  0  0
   24.2486  -20.4117  -11.4782 C   0  0  0  0  0  0  0  0  0  0  0  0
   24.4844  -19.0674  -11.2965 O   0  0  0  0  0  0  0  0  0  0  0  0
   27.8410  -21.0089   -9.8068 C   0  0  0  0  0  0  0  0  0  0  0  0
   28.3616  -20.1638   -8.8342 C   0  0  0  0  0  0  0  0  0  0  0  0
   23.1051  -20.8715  -11.2306 O   0  0  0  0  0  0  0  0  0  0  0  0
  2  1  1  0
  3  2  1  0
  4  3  2  0
  5  3  1  0
  6  5  1  0
  7 16  1  0
  7  6  1  0
  8  7  2  0
  9 10  1  0
 10 11  2  0
 10 20  1  0
 11 12  1  0
 12 13  2  0
 13 14  1  0
 15 14  1  1
 15 16  1  0
 15 17  1  0
 17 18  1  0
 19 13  1  0
 20 19  2  0
 21 17  2  0
M  END
$$$$
