GGY.pdb
     RDKit          3D

 21 21  0  0  1  0  0  0  0  0999 V2000
   24.3315  -18.7934  -18.3417 N   0  0  0  0  0  0  0  0  0  0  0  0
   25.6674  -18.3485  -18.5913 C   0  0  0  0  0  0  0  0  0  0  0  0
   26.6808  -19.2067  -17.8951 C   0  0  0  0  0  0  0  0  0  0  0  0
   26.4833  -20.4520  -17.9138 O   0  0  0  0  0  0  0  0  0  0  0  0
   27.8054  -18.6746  -17.2454 N   0  0  0  0  0  0  0  0  0  0  0  0
   28.8318  -19.5281  -16.7171 C   0  0  0  0  0  0  0  0  0  0  0  0
   28.3544  -20.0863  -15.4177 C   0  0  0  0  0  0  0  0  0  0  0  0
   29.0645  -20.9240  -14.8046 O   0  0  0  0  0  0  0  0  0  0  0  0
   23.6279  -21.6402   -8.2286 O   0  0  0  0  0  0  0  0  0  0  0  0
   24.2041  -21.0361   -9.3371 C   0  0  0  0  0  0  0  0  0  0  0  0
   25.5653  -20.7519   -9.3022 C   0  0  0  0  0  0  0  0  0  0  0  0
   26.1115  -20.1568  -10.4052 C   0  0  0  0  0  0  0  0  0  0  0  0
   25.3896  -19.8286  -11.5357 C   0  0  0  0  0  0  0  0  0  0  0  0
   25.9907  -19.1894  -12.7129 C   0  0  0  0  0  0  0  0  0  0  0  0
   26.5326  -20.2112  -13.6525 C   0  0  2  0  0  0  0  0  0  0  0  0
   27.1083  -19.6852  -14.8619 N   0  0  0  0  0  0  0  0  0  0  0  0
   25.5471  -21.2945  -13.9731 C   0  0  0  0  0  0  0  0  0  0  0  0
   25.4932  -22.4813  -13.2771 O   0  0  0  0  0  0  0  0  0  0  0  0
   24.0322  -20.1163  -11.5605 C   0  0  0  0  0  0  0  0  0  0  0  0
   23.4502  -20.7212  -10.4531 C   0  0  0  0  0  0  0  0  0  0  0  0
   24.7390  -21.1010  -14.9165 O   0  0  0  0  0  0  0  0  0  0  0  0
  2  1  1  0
  3  2  1  0
  4  3  2  0
  5  3  1  0
  6  5  1  0
  7 16  1  0
  7  6  1  0
  8  7  2  0
  9 10  1  0
 10 11  2  0
 10 20  1  0
 11 12  1  0
 12 13  2  0
 13 14  1  0
 15 14  1  6
 15 16  1  0
 15 17  1  0
 17 18  1  0
 19 13  1  0
 20 19  2  0
 21 17  2  0
M  END
$$$$
