GGY.pdb
     RDKit          3D

 21 21  0  0  1  0  0  0  0  0999 V2000
   32.9217  -25.5129  -14.9017 N   0  0  0  0  0  0  0  0  0  0  0  0
   32.5553  -25.0083  -16.1885 C   0  0  0  0  0  0  0  0  0  0  0  0
   31.9691  -26.0774  -17.0611 C   0  0  0  0  0  0  0  0  0  0  0  0
   31.8452  -27.2247  -16.5526 O   0  0  0  0  0  0  0  0  0  0  0  0
   31.5688  -25.8394  -18.3852 N   0  0  0  0  0  0  0  0  0  0  0  0
   30.9565  -26.8710  -19.1736 C   0  0  0  0  0  0  0  0  0  0  0  0
   29.4763  -26.7697  -19.0102 C   0  0  0  0  0  0  0  0  0  0  0  0
   28.7233  -27.4678  -19.7364 O   0  0  0  0  0  0  0  0  0  0  0  0
   27.7988  -31.9614  -16.0241 O   0  0  0  0  0  0  0  0  0  0  0  0
   27.6628  -30.5819  -16.0896 C   0  0  0  0  0  0  0  0  0  0  0  0
   26.4303  -30.0561  -16.4626 C   0  0  0  0  0  0  0  0  0  0  0  0
   26.3193  -28.6946  -16.5204 C   0  0  0  0  0  0  0  0  0  0  0  0
   27.3549  -27.8281  -16.2310 C   0  0  0  0  0  0  0  0  0  0  0  0
   27.2202  -26.3677  -16.2976 C   0  0  0  0  0  0  0  0  0  0  0  0
   27.5150  -25.8699  -17.6709 C   0  0  2  0  0  0  0  0  0  0  0  0
   28.9041  -25.8955  -18.0453 N   0  0  0  0  0  0  0  0  0  0  0  0
   26.9269  -24.5180  -17.9436 C   0  0  0  0  0  0  0  0  0  0  0  0
   27.6988  -23.4152  -18.2328 O   0  0  0  0  0  0  0  0  0  0  0  0
   28.5807  -28.3628  -15.8599 C   0  0  0  0  0  0  0  0  0  0  0  0
   28.7222  -29.7436  -15.7928 C   0  0  0  0  0  0  0  0  0  0  0  0
   25.6761  -24.3970  -17.9069 O   0  0  0  0  0  0  0  0  0  0  0  0
  2  1  1  0
  3  2  1  0
  4  3  2  0
  5  3  1  0
  6  5  1  0
  7 16  1  0
  7  6  1  0
  8  7  2  0
  9 10  1  0
 10 11  2  0
 10 20  1  0
 11 12  1  0
 12 13  2  0
 13 14  1  0
 15 14  1  1
 15 16  1  0
 15 17  1  0
 17 18  1  0
 19 13  1  0
 20 19  2  0
 21 17  2  0
M  END
$$$$
