GGY.pdb
     RDKit          3D

 21 21  0  0  1  0  0  0  0  0999 V2000
   21.7134  -23.1978  -16.1062 N   0  0  0  0  0  0  0  0  0  0  0  0
   21.1228  -21.8985  -16.1942 C   0  0  0  0  0  0  0  0  0  0  0  0
   22.1508  -20.8107  -16.1041 C   0  0  0  0  0  0  0  0  0  0  0  0
   22.8230  -20.5732  -17.1443 O   0  0  0  0  0  0  0  0  0  0  0  0
   22.3748  -20.0759  -14.9294 N   0  0  0  0  0  0  0  0  0  0  0  0
   23.1403  -18.8616  -14.9467 C   0  0  0  0  0  0  0  0  0  0  0  0
   24.5795  -19.2120  -14.7622 C   0  0  0  0  0  0  0  0  0  0  0  0
   25.4287  -18.2941  -14.6279 O   0  0  0  0  0  0  0  0  0  0  0  0
   23.7352  -20.2166   -8.8250 O   0  0  0  0  0  0  0  0  0  0  0  0
   24.4195  -20.6505   -9.9515 C   0  0  0  0  0  0  0  0  0  0  0  0
   25.7721  -20.3454  -10.0617 C   0  0  0  0  0  0  0  0  0  0  0  0
   26.4260  -20.7830  -11.1799 C   0  0  0  0  0  0  0  0  0  0  0  0
   25.8192  -21.5022  -12.1906 C   0  0  0  0  0  0  0  0  0  0  0  0
   26.5350  -21.9653  -13.3858 C   0  0  0  0  0  0  0  0  0  0  0  0
   26.3574  -21.0086  -14.5144 C   0  0  2  0  0  0  0  0  0  0  0  0
   25.0054  -20.5686  -14.7358 N   0  0  0  0  0  0  0  0  0  0  0  0
   26.9634  -21.4950  -15.7966 C   0  0  0  0  0  0  0  0  0  0  0  0
   28.3112  -21.7384  -15.9374 O   0  0  0  0  0  0  0  0  0  0  0  0
   24.4692  -21.8014  -12.0710 C   0  0  0  0  0  0  0  0  0  0  0  0
   23.7793  -21.3692  -10.9449 C   0  0  0  0  0  0  0  0  0  0  0  0
   26.2008  -21.6878  -16.7773 O   0  0  0  0  0  0  0  0  0  0  0  0
  2  1  1  0
  3  2  1  0
  4  3  2  0
  5  3  1  0
  6  5  1  0
  7 16  1  0
  7  6  1  0
  8  7  2  0
  9 10  1  0
 10 11  2  0
 10 20  1  0
 11 12  1  0
 12 13  2  0
 13 14  1  0
 15 14  1  1
 15 16  1  0
 15 17  1  0
 17 18  1  0
 19 13  1  0
 20 19  2  0
 21 17  2  0
M  END
$$$$
