GGY.pdb
     RDKit          3D

 21 21  0  0  1  0  0  0  0  0999 V2000
   20.7392  -17.4869  -21.5231 N   0  0  0  0  0  0  0  0  0  0  0  0
   20.0960  -16.4441  -20.7857 C   0  0  0  0  0  0  0  0  0  0  0  0
   19.0132  -16.9761  -19.8955 C   0  0  0  0  0  0  0  0  0  0  0  0
   17.9757  -17.4175  -20.4602 O   0  0  0  0  0  0  0  0  0  0  0  0
   19.1234  -16.9937  -18.4964 N   0  0  0  0  0  0  0  0  0  0  0  0
   18.0587  -17.4929  -17.6729 C   0  0  0  0  0  0  0  0  0  0  0  0
   17.9539  -16.6234  -16.4642 C   0  0  0  0  0  0  0  0  0  0  0  0
   17.1253  -16.9119  -15.5631 O   0  0  0  0  0  0  0  0  0  0  0  0
   21.0154  -19.6276  -12.3879 O   0  0  0  0  0  0  0  0  0  0  0  0
   20.7272  -18.3580  -12.8683 C   0  0  0  0  0  0  0  0  0  0  0  0
   19.8563  -17.5565  -12.1375 C   0  0  0  0  0  0  0  0  0  0  0  0
   19.5869  -16.3098  -12.6296 C   0  0  0  0  0  0  0  0  0  0  0  0
   20.1284  -15.8138  -13.7991 C   0  0  0  0  0  0  0  0  0  0  0  0
   19.8292  -14.4721  -14.3149 C   0  0  0  0  0  0  0  0  0  0  0  0
   18.6711  -14.5101  -15.2518 C   0  0  2  0  0  0  0  0  0  0  0  0
   18.7769  -15.4732  -16.3158 N   0  0  0  0  0  0  0  0  0  0  0  0
   18.3182  -13.1614  -15.8033 C   0  0  0  0  0  0  0  0  0  0  0  0
   17.8923  -12.1207  -15.0088 O   0  0  0  0  0  0  0  0  0  0  0  0
   20.9961  -16.6213  -14.5209 C   0  0  0  0  0  0  0  0  0  0  0  0
   21.2881  -17.8935  -14.0442 C   0  0  0  0  0  0  0  0  0  0  0  0
   18.4211  -12.9823  -17.0434 O   0  0  0  0  0  0  0  0  0  0  0  0
  2  1  1  0
  3  2  1  0
  4  3  2  0
  5  3  1  0
  6  5  1  0
  7 16  1  0
  7  6  1  0
  8  7  2  0
  9 10  1  0
 10 11  2  0
 10 20  1  0
 11 12  1  0
 12 13  2  0
 13 14  1  0
 15 14  1  6
 15 16  1  0
 15 17  1  0
 17 18  1  0
 19 13  1  0
 20 19  2  0
 21 17  2  0
M  END
$$$$
