GGY.pdb
     RDKit          3D

 21 21  0  0  1  0  0  0  0  0999 V2000
   18.4062  -12.8837  -19.9181 N   0  0  0  0  0  0  0  0  0  0  0  0
   18.0319  -12.0555  -18.8142 C   0  0  0  0  0  0  0  0  0  0  0  0
   18.8675  -10.8127  -18.7404 C   0  0  0  0  0  0  0  0  0  0  0  0
   18.4991   -9.8346  -19.4460 O   0  0  0  0  0  0  0  0  0  0  0  0
   20.0109  -10.7158  -17.9321 N   0  0  0  0  0  0  0  0  0  0  0  0
   20.7896   -9.5106  -17.8872 C   0  0  0  0  0  0  0  0  0  0  0  0
   20.8046   -9.0146  -16.4794 C   0  0  0  0  0  0  0  0  0  0  0  0
   20.3814   -9.7565  -15.5563 O   0  0  0  0  0  0  0  0  0  0  0  0
   26.4137   -4.5338  -17.6961 O   0  0  0  0  0  0  0  0  0  0  0  0
   25.5324   -5.2050  -16.8603 C   0  0  0  0  0  0  0  0  0  0  0  0
   24.8049   -4.4641  -15.9348 C   0  0  0  0  0  0  0  0  0  0  0  0
   23.9428   -5.1462  -15.1219 C   0  0  0  0  0  0  0  0  0  0  0  0
   23.7610   -6.5142  -15.1733 C   0  0  0  0  0  0  0  0  0  0  0  0
   22.8310   -7.2326  -14.2933 C   0  0  0  0  0  0  0  0  0  0  0  0
   21.4441   -7.1866  -14.8364 C   0  0  2  0  0  0  0  0  0  0  0  0
   21.2904   -7.7153  -16.1658 N   0  0  0  0  0  0  0  0  0  0  0  0
   20.8220   -5.8257  -14.7419 C   0  0  0  0  0  0  0  0  0  0  0  0
   20.3919   -5.1258  -15.8467 O   0  0  0  0  0  0  0  0  0  0  0  0
   24.4916   -7.2442  -16.1003 C   0  0  0  0  0  0  0  0  0  0  0  0
   25.3755   -6.5769  -16.9396 C   0  0  0  0  0  0  0  0  0  0  0  0
   20.6898   -5.3120  -13.6021 O   0  0  0  0  0  0  0  0  0  0  0  0
  2  1  1  0
  3  2  1  0
  4  3  2  0
  5  3  1  0
  6  5  1  0
  7 16  1  0
  7  6  1  0
  8  7  2  0
  9 10  1  0
 10 11  2  0
 10 20  1  0
 11 12  1  0
 12 13  2  0
 13 14  1  0
 15 14  1  6
 15 16  1  0
 15 17  1  0
 17 18  1  0
 19 13  1  0
 20 19  2  0
 21 17  2  0
M  END
$$$$
