GGY.pdb
     RDKit          3D

 21 21  0  0  1  0  0  0  0  0999 V2000
   26.9101  -23.6524  -16.1624 N   0  0  0  0  0  0  0  0  0  0  0  0
   26.3941  -24.9828  -16.0690 C   0  0  0  0  0  0  0  0  0  0  0  0
   24.9447  -24.9936  -15.6852 C   0  0  0  0  0  0  0  0  0  0  0  0
   24.1058  -25.0441  -16.6254 O   0  0  0  0  0  0  0  0  0  0  0  0
   24.5145  -24.9503  -14.3499 N   0  0  0  0  0  0  0  0  0  0  0  0
   23.1196  -25.0104  -14.0158 C   0  0  0  0  0  0  0  0  0  0  0  0
   22.5521  -23.6341  -14.1235 C   0  0  0  0  0  0  0  0  0  0  0  0
   21.4130  -23.3944  -13.6475 O   0  0  0  0  0  0  0  0  0  0  0  0
   25.0094  -21.4899   -8.8760 O   0  0  0  0  0  0  0  0  0  0  0  0
   24.7177  -21.1790  -10.1966 C   0  0  0  0  0  0  0  0  0  0  0  0
   25.6530  -21.5023  -11.1741 C   0  0  0  0  0  0  0  0  0  0  0  0
   25.3445  -21.1867  -12.4680 C   0  0  0  0  0  0  0  0  0  0  0  0
   24.1677  -20.5718  -12.8474 C   0  0  0  0  0  0  0  0  0  0  0  0
   23.8506  -20.2391  -14.2418 C   0  0  0  0  0  0  0  0  0  0  0  0
   22.8731  -21.2099  -14.8096 C   0  0  2  0  0  0  0  0  0  0  0  0
   23.2801  -22.5891  -14.7565 N   0  0  0  0  0  0  0  0  0  0  0  0
   22.4278  -20.8514  -16.1956 C   0  0  0  0  0  0  0  0  0  0  0  0
   22.7815  -21.5868  -17.3045 O   0  0  0  0  0  0  0  0  0  0  0  0
   23.2410  -20.2533  -11.8645 C   0  0  0  0  0  0  0  0  0  0  0  0
   23.5283  -20.5626  -10.5405 C   0  0  0  0  0  0  0  0  0  0  0  0
   21.6997  -19.8369  -16.3407 O   0  0  0  0  0  0  0  0  0  0  0  0
  2  1  1  0
  3  2  1  0
  4  3  2  0
  5  3  1  0
  6  5  1  0
  7 16  1  0
  7  6  1  0
  8  7  2  0
  9 10  1  0
 10 11  2  0
 10 20  1  0
 11 12  1  0
 12 13  2  0
 13 14  1  0
 15 14  1  6
 15 16  1  0
 15 17  1  0
 17 18  1  0
 19 13  1  0
 20 19  2  0
 21 17  2  0
M  END
$$$$
