GGY.pdb
     RDKit          3D

 21 21  0  0  1  0  0  0  0  0999 V2000
   30.2695  -23.6523  -17.0824 N   0  0  0  0  0  0  0  0  0  0  0  0
   29.3507  -22.5603  -16.9913 C   0  0  0  0  0  0  0  0  0  0  0  0
   27.9258  -23.0250  -17.0314 C   0  0  0  0  0  0  0  0  0  0  0  0
   27.7327  -24.2594  -17.2029 O   0  0  0  0  0  0  0  0  0  0  0  0
   26.8390  -22.1485  -16.8874 N   0  0  0  0  0  0  0  0  0  0  0  0
   25.4978  -22.5743  -17.1715 C   0  0  0  0  0  0  0  0  0  0  0  0
   24.6316  -21.3624  -17.2669 C   0  0  0  0  0  0  0  0  0  0  0  0
   23.4084  -21.4938  -17.5280 O   0  0  0  0  0  0  0  0  0  0  0  0
   20.7601  -21.6502  -12.7170 O   0  0  0  0  0  0  0  0  0  0  0  0
   21.5900  -20.8157  -13.4525 C   0  0  0  0  0  0  0  0  0  0  0  0
   22.9658  -20.9907  -13.3460 C   0  0  0  0  0  0  0  0  0  0  0  0
   23.7639  -20.1575  -14.0794 C   0  0  0  0  0  0  0  0  0  0  0  0
   23.2791  -19.1652  -14.9086 C   0  0  0  0  0  0  0  0  0  0  0  0
   24.1494  -18.2779  -15.6902 C   0  0  0  0  0  0  0  0  0  0  0  0
   24.4027  -18.8427  -17.0457 C   0  0  2  0  0  0  0  0  0  0  0  0
   25.1685  -20.0608  -17.0669 N   0  0  0  0  0  0  0  0  0  0  0  0
   24.9875  -17.8431  -17.9978 C   0  0  0  0  0  0  0  0  0  0  0  0
   24.3478  -16.6705  -18.3313 O   0  0  0  0  0  0  0  0  0  0  0  0
   21.9049  -18.9988  -15.0077 C   0  0  0  0  0  0  0  0  0  0  0  0
   21.0695  -19.8318  -14.2734 C   0  0  0  0  0  0  0  0  0  0  0  0
   26.1100  -18.0939  -18.5054 O   0  0  0  0  0  0  0  0  0  0  0  0
  2  1  1  0
  3  2  1  0
  4  3  2  0
  5  3  1  0
  6  5  1  0
  7 16  1  0
  7  6  1  0
  8  7  2  0
  9 10  1  0
 10 11  2  0
 10 20  1  0
 11 12  1  0
 12 13  2  0
 13 14  1  0
 15 14  1  1
 15 16  1  0
 15 17  1  0
 17 18  1  0
 19 13  1  0
 20 19  2  0
 21 17  2  0
M  END
$$$$
