GGY.pdb
     RDKit          3D

 21 21  0  0  1  0  0  0  0  0999 V2000
   10.4575  -20.7156   -1.1929 N   0  0  0  0  0  0  0  0  0  0  0  0
   11.7967  -20.9843   -0.7698 C   0  0  0  0  0  0  0  0  0  0  0  0
   12.0740  -20.4256    0.5937 C   0  0  0  0  0  0  0  0  0  0  0  0
   11.0889  -19.9672    1.2337 O   0  0  0  0  0  0  0  0  0  0  0  0
   13.3602  -20.4018    1.1551 N   0  0  0  0  0  0  0  0  0  0  0  0
   13.5794  -19.9241    2.4910 C   0  0  0  0  0  0  0  0  0  0  0  0
   15.0387  -20.0210    2.7898 C   0  0  0  0  0  0  0  0  0  0  0  0
   15.8221  -20.4705    1.9146 O   0  0  0  0  0  0  0  0  0  0  0  0
   17.4106  -13.9492    1.8059 O   0  0  0  0  0  0  0  0  0  0  0  0
   17.4162  -15.0623    2.6345 C   0  0  0  0  0  0  0  0  0  0  0  0
   18.3678  -16.0510    2.4071 C   0  0  0  0  0  0  0  0  0  0  0  0
   18.3545  -17.1385    3.2356 C   0  0  0  0  0  0  0  0  0  0  0  0
   17.4566  -17.3018    4.2719 C   0  0  0  0  0  0  0  0  0  0  0  0
   17.4550  -18.4758    5.1534 C   0  0  0  0  0  0  0  0  0  0  0  0
   16.9416  -19.6769    4.4363 C   0  0  2  0  0  0  0  0  0  0  0  0
   15.5570  -19.6126    4.0496 N   0  0  0  0  0  0  0  0  0  0  0  0
   17.2203  -20.9580    5.1635 C   0  0  0  0  0  0  0  0  0  0  0  0
   18.4962  -21.3886    5.4501 O   0  0  0  0  0  0  0  0  0  0  0  0
   16.5111  -16.3096    4.4905 C   0  0  0  0  0  0  0  0  0  0  0  0
   16.5013  -15.1928    3.6636 C   0  0  0  0  0  0  0  0  0  0  0  0
   16.2418  -21.6600    5.5245 O   0  0  0  0  0  0  0  0  0  0  0  0
  2  1  1  0
  3  2  1  0
  4  3  2  0
  5  3  1  0
  6  5  1  0
  7 16  1  0
  7  6  1  0
  8  7  2  0
  9 10  1  0
 10 11  2  0
 10 20  1  0
 11 12  1  0
 12 13  2  0
 13 14  1  0
 15 14  1  1
 15 16  1  0
 15 17  1  0
 17 18  1  0
 19 13  1  0
 20 19  2  0
 21 17  2  0
M  END
$$$$
