MEN.pdb
     RDKit          3D

 26 25  0  0  1  0  0  0  0  0999 V2000
   20.2774  -14.7157  -17.0614 C   0  0  0  0  0  0  0  0  0  0  0  0
   19.8060  -13.2180  -16.2257 S   0  0  0  0  0  0  0  0  0  0  0  0
   19.7915  -11.7886  -17.2677 C   0  0  0  0  0  0  0  0  0  0  0  0
   19.3528  -10.5185  -16.6826 C   0  0  0  0  0  0  0  0  0  0  0  0
   19.3774   -9.3123  -17.5492 C   0  0  2  0  0  0  0  0  0  0  0  0
   20.5963   -9.1416  -18.2786 N   0  0  0  0  0  0  0  0  0  0  0  0
   19.0553   -8.0641  -16.7586 C   0  0  0  0  0  0  0  0  0  0  0  0
   18.0004   -8.0708  -16.1074 O   0  0  0  0  0  0  0  0  0  0  0  0
   19.9020   -6.9358  -16.7496 N   0  0  0  0  0  0  0  0  0  0  0  0
   19.7324   -5.7820  -15.8678 C   0  0  1  0  0  0  0  0  0  0  0  0
   20.9580   -5.4814  -15.0972 C   0  0  0  0  0  0  0  0  0  0  0  0
   20.8236   -5.8214  -13.6509 C   0  0  0  0  0  0  0  0  0  0  0  0
   22.0050   -5.4353  -12.8587 C   0  0  0  0  0  0  0  0  0  0  0  0
   23.0057   -4.9036  -13.3637 O   0  0  0  0  0  0  0  0  0  0  0  0
   19.4568   -4.6215  -16.7607 C   0  0  0  0  0  0  0  0  0  0  0  0
   19.7835   -4.5559  -17.9720 O   0  0  0  0  0  0  0  0  0  0  0  0
   22.0349   -5.6622  -11.4785 O   0  0  0  0  0  0  0  0  0  0  0  0
   15.5735    0.0518  -16.7880 N   0  0  0  0  0  0  0  0  0  0  0  0
   16.8830   -0.4156  -17.0855 C   0  0  0  0  0  0  0  0  0  0  0  0
   17.5875    0.2930  -17.8304 O   0  0  0  0  0  0  0  0  0  0  0  0
   17.3144   -1.6776  -16.5083 C   0  0  0  0  0  0  0  0  0  0  0  0
   18.5701   -2.2820  -17.0300 C   0  0  2  0  0  0  0  0  0  0  0  0
   18.7809   -3.5013  -16.2311 N   0  0  0  0  0  0  0  0  0  0  0  0
   19.7618   -1.4379  -16.9885 C   0  0  0  0  0  0  0  0  0  0  0  0
   20.3420   -1.1675  -15.9257 O   0  0  0  0  0  0  0  0  0  0  0  0
   20.2660   -0.9192  -18.1691 O   0  0  0  0  0  0  0  0  0  0  0  0
  2  1  1  0
  3  4  1  0
  3  2  1  0
  4  5  1  0
  5  6  1  1
  7  9  1  0
  7  5  1  0
  8  7  2  0
 10  9  1  0
 10 11  1  6
 11 12  1  0
 13 17  1  0
 13 12  1  0
 14 13  2  0
 15 10  1  0
 16 15  2  0
 18 19  1  0
 19 20  2  0
 19 21  1  0
 22 21  1  1
 22 23  1  0
 23 15  1  0
 24 22  1  0
 25 24  2  0
 26 24  1  0
M  END
$$$$
