MEN.pdb
     RDKit          3D

 26 25  0  0  1  0  0  0  0  0999 V2000
   28.7493  -11.0943  -16.1468 C   0  0  0  0  0  0  0  0  0  0  0  0
   28.7180  -12.8570  -15.9109 S   0  0  0  0  0  0  0  0  0  0  0  0
   27.1271  -13.4944  -15.4728 C   0  0  0  0  0  0  0  0  0  0  0  0
   25.9469  -12.8540  -16.0601 C   0  0  0  0  0  0  0  0  0  0  0  0
   24.6128  -13.3994  -15.7008 C   0  0  2  0  0  0  0  0  0  0  0  0
   24.4408  -14.7826  -16.0237 N   0  0  0  0  0  0  0  0  0  0  0  0
   23.5020  -12.5726  -16.3084 C   0  0  0  0  0  0  0  0  0  0  0  0
   23.3786  -12.6210  -17.5411 O   0  0  0  0  0  0  0  0  0  0  0  0
   22.6371  -11.7780  -15.5271 N   0  0  0  0  0  0  0  0  0  0  0  0
   21.5328  -10.9844  -16.0639 C   0  0  1  0  0  0  0  0  0  0  0  0
   20.2269  -11.3897  -15.5013 C   0  0  0  0  0  0  0  0  0  0  0  0
   19.8063  -12.7487  -15.9501 C   0  0  0  0  0  0  0  0  0  0  0  0
   18.4558  -13.1137  -15.4858 C   0  0  0  0  0  0  0  0  0  0  0  0
   17.7300  -12.3304  -14.8546 O   0  0  0  0  0  0  0  0  0  0  0  0
   21.7963   -9.5795  -15.6435 C   0  0  0  0  0  0  0  0  0  0  0  0
   22.2969   -9.2432  -14.5415 O   0  0  0  0  0  0  0  0  0  0  0  0
   17.9382  -14.3865  -15.7495 O   0  0  0  0  0  0  0  0  0  0  0  0
   23.6187   -6.7858  -19.3435 N   0  0  0  0  0  0  0  0  0  0  0  0
   23.4311   -6.7136  -17.9358 C   0  0  0  0  0  0  0  0  0  0  0  0
   24.4336   -6.8864  -17.2158 O   0  0  0  0  0  0  0  0  0  0  0  0
   22.0958   -6.4454  -17.4291 C   0  0  0  0  0  0  0  0  0  0  0  0
   21.6874   -7.1207  -16.1676 C   0  0  2  0  0  0  0  0  0  0  0  0
   21.4683   -8.5314  -16.5301 N   0  0  0  0  0  0  0  0  0  0  0  0
   20.5070   -6.5817  -15.4965 C   0  0  0  0  0  0  0  0  0  0  0  0
   19.3877   -7.1050  -15.6090 O   0  0  0  0  0  0  0  0  0  0  0  0
   20.6333   -5.4508  -14.7078 O   0  0  0  0  0  0  0  0  0  0  0  0
  2  1  1  0
  3  4  1  0
  3  2  1  0
  4  5  1  0
  5  6  1  6
  7  9  1  0
  7  5  1  0
  8  7  2  0
 10  9  1  0
 10 11  1  1
 11 12  1  0
 13 17  1  0
 13 12  1  0
 14 13  2  0
 15 10  1  0
 16 15  2  0
 18 19  1  0
 19 20  2  0
 19 21  1  0
 22 21  1  6
 22 23  1  0
 23 15  1  0
 24 22  1  0
 25 24  2  0
 26 24  1  0
M  END
$$$$
