MEN.pdb
     RDKit          3D

 26 25  0  0  1  0  0  0  0  0999 V2000
   25.7762  -15.4616  -18.0234 C   0  0  0  0  0  0  0  0  0  0  0  0
   24.2952  -14.5255  -17.7163 S   0  0  0  0  0  0  0  0  0  0  0  0
   24.1626  -13.0529  -18.6873 C   0  0  0  0  0  0  0  0  0  0  0  0
   22.9840  -12.2048  -18.4883 C   0  0  0  0  0  0  0  0  0  0  0  0
   22.9084  -11.4076  -17.2371 C   0  0  2  0  0  0  0  0  0  0  0  0
   22.7728  -12.1948  -16.0501 N   0  0  0  0  0  0  0  0  0  0  0  0
   21.8085  -10.3727  -17.3134 C   0  0  0  0  0  0  0  0  0  0  0  0
   21.8818   -9.5451  -18.2336 O   0  0  0  0  0  0  0  0  0  0  0  0
   20.7416  -10.3342  -16.3913 N   0  0  0  0  0  0  0  0  0  0  0  0
   19.6334   -9.3823  -16.4485 C   0  0  1  0  0  0  0  0  0  0  0  0
   18.3272  -10.0281  -16.1975 C   0  0  0  0  0  0  0  0  0  0  0  0
   18.4282  -11.1771  -15.2515 C   0  0  0  0  0  0  0  0  0  0  0  0
   17.1144  -11.7365  -14.8861 C   0  0  0  0  0  0  0  0  0  0  0  0
   16.0462  -11.2703  -15.3109 O   0  0  0  0  0  0  0  0  0  0  0  0
   19.8781   -8.4030  -15.3526 C   0  0  0  0  0  0  0  0  0  0  0  0
   20.4552   -8.6696  -14.2690 O   0  0  0  0  0  0  0  0  0  0  0  0
   17.0297  -12.8380  -14.0275 O   0  0  0  0  0  0  0  0  0  0  0  0
   21.4256   -3.9739  -13.3640 N   0  0  0  0  0  0  0  0  0  0  0  0
   22.1475   -4.9332  -14.1259 C   0  0  0  0  0  0  0  0  0  0  0  0
   23.3892   -4.8289  -14.1477 O   0  0  0  0  0  0  0  0  0  0  0  0
   21.4003   -5.9654  -14.8246 C   0  0  0  0  0  0  0  0  0  0  0  0
   19.9230   -5.9878  -14.6475 C   0  0  2  0  0  0  0  0  0  0  0  0
   19.4391   -7.0720  -15.5192 N   0  0  0  0  0  0  0  0  0  0  0  0
   19.2154   -4.7450  -14.9459 C   0  0  0  0  0  0  0  0  0  0  0  0
   19.2088   -4.2459  -16.0818 O   0  0  0  0  0  0  0  0  0  0  0  0
   18.5276   -4.0972  -13.9337 O   0  0  0  0  0  0  0  0  0  0  0  0
  2  1  1  0
  3  4  1  0
  3  2  1  0
  4  5  1  0
  5  6  1  1
  7  9  1  0
  7  5  1  0
  8  7  2  0
 10  9  1  0
 10 11  1  1
 11 12  1  0
 13 17  1  0
 13 12  1  0
 14 13  2  0
 15 10  1  0
 16 15  2  0
 18 19  1  0
 19 20  2  0
 19 21  1  0
 22 21  1  6
 22 23  1  0
 23 15  1  0
 24 22  1  0
 25 24  2  0
 26 24  1  0
M  END
$$$$
