MEN.pdb
     RDKit          3D

 26 25  0  0  1  0  0  0  0  0999 V2000
   21.8540  -19.3476  -15.0139 C   0  0  0  0  0  0  0  0  0  0  0  0
   21.6494  -17.5826  -15.0942 S   0  0  0  0  0  0  0  0  0  0  0  0
   21.7429  -16.9230  -16.7329 C   0  0  0  0  0  0  0  0  0  0  0  0
   21.7661  -15.4654  -16.8845 C   0  0  0  0  0  0  0  0  0  0  0  0
   21.8579  -14.9142  -18.2608 C   0  0  2  0  0  0  0  0  0  0  0  0
   23.0149  -15.3421  -18.9856 N   0  0  0  0  0  0  0  0  0  0  0  0
   21.7675  -13.4047  -18.2528 C   0  0  0  0  0  0  0  0  0  0  0  0
   22.8343  -12.7798  -18.3449 O   0  0  0  0  0  0  0  0  0  0  0  0
   20.5378  -12.7218  -18.1464 N   0  0  0  0  0  0  0  0  0  0  0  0
   20.3816  -11.2744  -18.2814 C   0  0  1  0  0  0  0  0  0  0  0  0
   19.0634  -10.9032  -18.8389 C   0  0  0  0  0  0  0  0  0  0  0  0
   18.8399  -11.4626  -20.2035 C   0  0  0  0  0  0  0  0  0  0  0  0
   17.9488  -12.6367  -20.2034 C   0  0  0  0  0  0  0  0  0  0  0  0
   17.1069  -12.8387  -21.0919 O   0  0  0  0  0  0  0  0  0  0  0  0
   20.4663  -10.7230  -16.8999 C   0  0  0  0  0  0  0  0  0  0  0  0
   20.1161  -11.3362  -15.8609 O   0  0  0  0  0  0  0  0  0  0  0  0
   18.0270  -13.5828  -19.1758 O   0  0  0  0  0  0  0  0  0  0  0  0
   23.1120  -10.3343  -12.4955 N   0  0  0  0  0  0  0  0  0  0  0  0
   22.2584   -9.4625  -13.2256 C   0  0  0  0  0  0  0  0  0  0  0  0
   21.7840   -8.4842  -12.6164 O   0  0  0  0  0  0  0  0  0  0  0  0
   21.9949   -9.7630  -14.6228 C   0  0  0  0  0  0  0  0  0  0  0  0
   21.1154   -8.8286  -15.3760 C   0  0  2  0  0  0  0  0  0  0  0  0
   20.9732   -9.4183  -16.7182 N   0  0  0  0  0  0  0  0  0  0  0  0
   21.5749   -7.4454  -15.4774 C   0  0  0  0  0  0  0  0  0  0  0  0
   22.4112   -7.0883  -16.3213 O   0  0  0  0  0  0  0  0  0  0  0  0
   21.0653   -6.4968  -14.6070 O   0  0  0  0  0  0  0  0  0  0  0  0
  2  1  1  0
  3  4  1  0
  3  2  1  0
  4  5  1  0
  5  6  1  1
  7  9  1  0
  7  5  1  0
  8  7  2  0
 10  9  1  0
 10 11  1  1
 11 12  1  0
 13 17  1  0
 13 12  1  0
 14 13  2  0
 15 10  1  0
 16 15  2  0
 18 19  1  0
 19 20  2  0
 19 21  1  0
 22 21  1  1
 22 23  1  0
 23 15  1  0
 24 22  1  0
 25 24  2  0
 26 24  1  0
M  END
$$$$
