MEN.pdb
     RDKit          3D

 26 25  0  0  1  0  0  0  0  0999 V2000
   13.4321   -9.3913  -16.7817 C   0  0  0  0  0  0  0  0  0  0  0  0
   14.0893  -10.9476  -17.3384 S   0  0  0  0  0  0  0  0  0  0  0  0
   15.8037  -11.1766  -16.9678 C   0  0  0  0  0  0  0  0  0  0  0  0
   16.2909  -10.7140  -15.6652 C   0  0  0  0  0  0  0  0  0  0  0  0
   17.7455  -10.8326  -15.3886 C   0  0  2  0  0  0  0  0  0  0  0  0
   18.2369  -12.1761  -15.4110 N   0  0  0  0  0  0  0  0  0  0  0  0
   18.1114  -10.1577  -14.0858 C   0  0  0  0  0  0  0  0  0  0  0  0
   18.0353  -10.8467  -13.0580 O   0  0  0  0  0  0  0  0  0  0  0  0
   18.5221   -8.8096  -14.0223 N   0  0  0  0  0  0  0  0  0  0  0  0
   18.9068   -8.1196  -12.7920 C   0  0  1  0  0  0  0  0  0  0  0  0
   19.9105   -7.0612  -13.0342 C   0  0  0  0  0  0  0  0  0  0  0  0
   20.3494   -6.3890  -11.7769 C   0  0  0  0  0  0  0  0  0  0  0  0
   21.2725   -5.2658  -12.0190 C   0  0  0  0  0  0  0  0  0  0  0  0
   22.4835   -5.3254  -11.7566 O   0  0  0  0  0  0  0  0  0  0  0  0
   17.6672   -7.4675  -12.2839 C   0  0  0  0  0  0  0  0  0  0  0  0
   16.8375   -6.8510  -12.9980 O   0  0  0  0  0  0  0  0  0  0  0  0
   20.7995   -4.0680  -12.5659 O   0  0  0  0  0  0  0  0  0  0  0  0
   15.0650   -6.5947   -6.9993 N   0  0  0  0  0  0  0  0  0  0  0  0
   14.7704   -7.1364   -8.2806 C   0  0  0  0  0  0  0  0  0  0  0  0
   13.5741   -7.1627   -8.6289 O   0  0  0  0  0  0  0  0  0  0  0  0
   15.8714   -7.6206   -9.0962 C   0  0  0  0  0  0  0  0  0  0  0  0
   16.2055   -6.8568  -10.3288 C   0  0  2  0  0  0  0  0  0  0  0  0
   17.3814   -7.5325  -10.9033 N   0  0  0  0  0  0  0  0  0  0  0  0
   16.4758   -5.4316  -10.1550 C   0  0  0  0  0  0  0  0  0  0  0  0
   17.5851   -5.0099   -9.7933 O   0  0  0  0  0  0  0  0  0  0  0  0
   15.4666   -4.5159  -10.3998 O   0  0  0  0  0  0  0  0  0  0  0  0
  2  1  1  0
  3  4  1  0
  3  2  1  0
  4  5  1  0
  5  6  1  1
  7  9  1  0
  7  5  1  0
  8  7  2  0
 10  9  1  0
 10 11  1  6
 11 12  1  0
 13 17  1  0
 13 12  1  0
 14 13  2  0
 15 10  1  0
 16 15  2  0
 18 19  1  0
 19 20  2  0
 19 21  1  0
 22 21  1  1
 22 23  1  0
 23 15  1  0
 24 22  1  0
 25 24  2  0
 26 24  1  0
M  END
$$$$
