MEN.pdb
     RDKit          3D

 26 25  0  0  1  0  0  0  0  0999 V2000
   27.1842  -20.4641  -19.6091 C   0  0  0  0  0  0  0  0  0  0  0  0
   28.1505  -19.0478  -19.1361 S   0  0  0  0  0  0  0  0  0  0  0  0
   28.9479  -19.2147  -17.5660 C   0  0  0  0  0  0  0  0  0  0  0  0
   28.1967  -19.8511  -16.4802 C   0  0  0  0  0  0  0  0  0  0  0  0
   26.9420  -19.1956  -16.0301 C   0  0  2  0  0  0  0  0  0  0  0  0
   27.1064  -17.8320  -15.6293 N   0  0  0  0  0  0  0  0  0  0  0  0
   26.2720  -19.9919  -14.9329 C   0  0  0  0  0  0  0  0  0  0  0  0
   26.1087  -21.2032  -15.1405 O   0  0  0  0  0  0  0  0  0  0  0  0
   25.8462  -19.4030  -13.7238 N   0  0  0  0  0  0  0  0  0  0  0  0
   24.9802  -20.0583  -12.7451 C   0  0  1  0  0  0  0  0  0  0  0  0
   25.1774  -19.5277  -11.3791 C   0  0  0  0  0  0  0  0  0  0  0  0
   24.2988  -20.1926  -10.3735 C   0  0  0  0  0  0  0  0  0  0  0  0
   24.8216  -21.4968   -9.9281 C   0  0  0  0  0  0  0  0  0  0  0  0
   25.9665  -21.8883  -10.2016 O   0  0  0  0  0  0  0  0  0  0  0  0
   23.5838  -19.7461  -13.1603 C   0  0  0  0  0  0  0  0  0  0  0  0
   23.1109  -18.5875  -13.2701 O   0  0  0  0  0  0  0  0  0  0  0  0
   24.0228  -22.3544   -9.1640 O   0  0  0  0  0  0  0  0  0  0  0  0
   22.4236  -21.6706  -17.1114 N   0  0  0  0  0  0  0  0  0  0  0  0
   21.6604  -20.7956  -16.2906 C   0  0  0  0  0  0  0  0  0  0  0  0
   21.5420  -19.6143  -16.6696 O   0  0  0  0  0  0  0  0  0  0  0  0
   21.0718  -21.3277  -15.0731 C   0  0  0  0  0  0  0  0  0  0  0  0
   21.2980  -20.5740  -13.8102 C   0  0  2  0  0  0  0  0  0  0  0  0
   22.7081  -20.8125  -13.4575 N   0  0  0  0  0  0  0  0  0  0  0  0
   20.4305  -20.9174  -12.6860 C   0  0  0  0  0  0  0  0  0  0  0  0
   19.2830  -20.4591  -12.5744 O   0  0  0  0  0  0  0  0  0  0  0  0
   20.8967  -21.7813  -11.7097 O   0  0  0  0  0  0  0  0  0  0  0  0
  2  1  1  0
  3  4  1  0
  3  2  1  0
  4  5  1  0
  5  6  1  1
  7  9  1  0
  7  5  1  0
  8  7  2  0
 10  9  1  0
 10 11  1  1
 11 12  1  0
 13 17  1  0
 13 12  1  0
 14 13  2  0
 15 10  1  0
 16 15  2  0
 18 19  1  0
 19 20  2  0
 19 21  1  0
 22 21  1  6
 22 23  1  0
 23 15  1  0
 24 22  1  0
 25 24  2  0
 26 24  1  0
M  END
$$$$
