MEN.pdb
     RDKit          3D

 26 25  0  0  1  0  0  0  0  0999 V2000
   14.8436  -14.3026  -18.4950 C   0  0  0  0  0  0  0  0  0  0  0  0
   15.6153  -13.8757  -16.9504 S   0  0  0  0  0  0  0  0  0  0  0  0
   16.2455  -12.2237  -16.8951 C   0  0  0  0  0  0  0  0  0  0  0  0
   16.8966  -11.7797  -15.6594 C   0  0  0  0  0  0  0  0  0  0  0  0
   18.3587  -11.5212  -15.7020 C   0  0  2  0  0  0  0  0  0  0  0  0
   19.1577  -12.7023  -15.8200 N   0  0  0  0  0  0  0  0  0  0  0  0
   18.8036  -10.6987  -14.5137 C   0  0  0  0  0  0  0  0  0  0  0  0
   19.1421  -11.3220  -13.4969 O   0  0  0  0  0  0  0  0  0  0  0  0
   18.8390   -9.2887  -14.5411 N   0  0  0  0  0  0  0  0  0  0  0  0
   19.2419   -8.4497  -13.4137 C   0  0  1  0  0  0  0  0  0  0  0  0
   20.1540   -7.3607  -13.8241 C   0  0  0  0  0  0  0  0  0  0  0  0
   20.4948   -6.4435  -12.6981 C   0  0  0  0  0  0  0  0  0  0  0  0
   21.3949   -5.3486  -13.1024 C   0  0  0  0  0  0  0  0  0  0  0  0
   22.6232   -5.3945  -12.9343 O   0  0  0  0  0  0  0  0  0  0  0  0
   17.9898   -7.8283  -12.8979 C   0  0  0  0  0  0  0  0  0  0  0  0
   17.0623   -7.3815  -13.6179 O   0  0  0  0  0  0  0  0  0  0  0  0
   20.8789   -4.1953  -13.7032 O   0  0  0  0  0  0  0  0  0  0  0  0
   14.6375   -6.0656   -9.1889 N   0  0  0  0  0  0  0  0  0  0  0  0
   15.3453   -7.2221   -8.7606 C   0  0  0  0  0  0  0  0  0  0  0  0
   15.0275   -7.7118   -7.6595 O   0  0  0  0  0  0  0  0  0  0  0  0
   16.3847   -7.7560   -9.6246 C   0  0  0  0  0  0  0  0  0  0  0  0
   16.6137   -7.0781  -10.9292 C   0  0  2  0  0  0  0  0  0  0  0  0
   17.8082   -7.7217  -11.5023 N   0  0  0  0  0  0  0  0  0  0  0  0
   16.7927   -5.6288  -10.8841 C   0  0  0  0  0  0  0  0  0  0  0  0
   17.8523   -5.1064  -10.5054 O   0  0  0  0  0  0  0  0  0  0  0  0
   15.7507   -4.8051  -11.2751 O   0  0  0  0  0  0  0  0  0  0  0  0
  2  1  1  0
  3  4  1  0
  3  2  1  0
  4  5  1  0
  5  6  1  1
  7  9  1  0
  7  5  1  0
  8  7  2  0
 10  9  1  0
 10 11  1  6
 11 12  1  0
 13 17  1  0
 13 12  1  0
 14 13  2  0
 15 10  1  0
 16 15  2  0
 18 19  1  0
 19 20  2  0
 19 21  1  0
 22 21  1  1
 22 23  1  0
 23 15  1  0
 24 22  1  0
 25 24  2  0
 26 24  1  0
M  END
$$$$
