MEN.pdb
     RDKit          3D

 26 25  0  0  1  0  0  0  0  0999 V2000
   30.4628  -21.2179  -10.5277 C   0  0  0  0  0  0  0  0  0  0  0  0
   31.1435  -21.0839  -12.1655 S   0  0  0  0  0  0  0  0  0  0  0  0
   30.3281  -19.8915  -13.1864 C   0  0  0  0  0  0  0  0  0  0  0  0
   28.8710  -19.9825  -13.3160 C   0  0  0  0  0  0  0  0  0  0  0  0
   28.2812  -21.3220  -13.5700 C   0  0  2  0  0  0  0  0  0  0  0  0
   28.7356  -21.9411  -14.7772 N   0  0  0  0  0  0  0  0  0  0  0  0
   26.7703  -21.2691  -13.5394 C   0  0  0  0  0  0  0  0  0  0  0  0
   26.1838  -21.3977  -14.6241 O   0  0  0  0  0  0  0  0  0  0  0  0
   26.0445  -21.0833  -12.3441 N   0  0  0  0  0  0  0  0  0  0  0  0
   24.5873  -20.9940  -12.2671 C   0  0  1  0  0  0  0  0  0  0  0  0
   24.1016  -20.9584  -10.8709 C   0  0  0  0  0  0  0  0  0  0  0  0
   22.6133  -21.0012  -10.7805 C   0  0  0  0  0  0  0  0  0  0  0  0
   22.1199  -20.9103   -9.3945 C   0  0  0  0  0  0  0  0  0  0  0  0
   22.8725  -20.7214   -8.4266 O   0  0  0  0  0  0  0  0  0  0  0  0
   24.2218  -19.7017  -12.9121 C   0  0  0  0  0  0  0  0  0  0  0  0
   25.0451  -18.8315  -13.2904 O   0  0  0  0  0  0  0  0  0  0  0  0
   20.7537  -21.0375   -9.1213 O   0  0  0  0  0  0  0  0  0  0  0  0
   21.9389  -18.4208  -17.1710 N   0  0  0  0  0  0  0  0  0  0  0  0
   23.1807  -19.0127  -16.8110 C   0  0  0  0  0  0  0  0  0  0  0  0
   23.9862  -19.2555  -17.7305 O   0  0  0  0  0  0  0  0  0  0  0  0
   23.4311  -19.2947  -15.4076 C   0  0  0  0  0  0  0  0  0  0  0  0
   22.3665  -18.9382  -14.4311 C   0  0  2  0  0  0  0  0  0  0  0  0
   22.8574  -19.4096  -13.1249 N   0  0  0  0  0  0  0  0  0  0  0  0
   21.0357  -19.4795  -14.6966 C   0  0  0  0  0  0  0  0  0  0  0  0
   20.8155  -20.6998  -14.7351 O   0  0  0  0  0  0  0  0  0  0  0  0
   19.9811  -18.6088  -14.9133 O   0  0  0  0  0  0  0  0  0  0  0  0
  2  1  1  0
  3  4  1  0
  3  2  1  0
  4  5  1  0
  5  6  1  6
  7  9  1  0
  7  5  1  0
  8  7  2  0
 10  9  1  0
 10 11  1  1
 11 12  1  0
 13 17  1  0
 13 12  1  0
 14 13  2  0
 15 10  1  0
 16 15  2  0
 18 19  1  0
 19 20  2  0
 19 21  1  0
 22 21  1  6
 22 23  1  0
 23 15  1  0
 24 22  1  0
 25 24  2  0
 26 24  1  0
M  END
$$$$
