MEN.pdb
     RDKit          3D

 26 25  0  0  1  0  0  0  0  0999 V2000
   22.1107  -14.6101  -13.6229 C   0  0  0  0  0  0  0  0  0  0  0  0
   22.3637  -13.8070  -15.1897 S   0  0  0  0  0  0  0  0  0  0  0  0
   23.6819  -12.6274  -15.1871 C   0  0  0  0  0  0  0  0  0  0  0  0
   23.4357  -11.3262  -14.5593 C   0  0  0  0  0  0  0  0  0  0  0  0
   22.1792  -10.6155  -14.9096 C   0  0  2  0  0  0  0  0  0  0  0  0
   22.0410  -10.3257  -16.3039 N   0  0  0  0  0  0  0  0  0  0  0  0
   22.0163   -9.3556  -14.0893 C   0  0  0  0  0  0  0  0  0  0  0  0
   22.1714   -9.4618  -12.8639 O   0  0  0  0  0  0  0  0  0  0  0  0
   21.7032   -8.1096  -14.6719 N   0  0  0  0  0  0  0  0  0  0  0  0
   21.3813   -6.9007  -13.9153 C   0  0  1  0  0  0  0  0  0  0  0  0
   21.5025   -5.6773  -14.7368 C   0  0  0  0  0  0  0  0  0  0  0  0
   21.2710   -4.4322  -13.9484 C   0  0  0  0  0  0  0  0  0  0  0  0
   21.4900   -3.2056  -14.7357 C   0  0  0  0  0  0  0  0  0  0  0  0
   21.0115   -2.1077  -14.4123 O   0  0  0  0  0  0  0  0  0  0  0  0
   19.9546   -7.0400  -13.5091 C   0  0  0  0  0  0  0  0  0  0  0  0
   19.0671   -7.6086  -14.1926 O   0  0  0  0  0  0  0  0  0  0  0  0
   22.2635   -3.2428  -15.9009 O   0  0  0  0  0  0  0  0  0  0  0  0
   15.7047   -6.6519  -10.4181 N   0  0  0  0  0  0  0  0  0  0  0  0
   16.8868   -7.0191   -9.7183 C   0  0  0  0  0  0  0  0  0  0  0  0
   16.7654   -7.3411   -8.5205 O   0  0  0  0  0  0  0  0  0  0  0  0
   18.1502   -6.9967  -10.4360 C   0  0  0  0  0  0  0  0  0  0  0  0
   18.1335   -6.5304  -11.8489 C   0  0  2  0  0  0  0  0  0  0  0  0
   19.5445   -6.5021  -12.2703 N   0  0  0  0  0  0  0  0  0  0  0  0
   17.5056   -5.2347  -12.0965 C   0  0  0  0  0  0  0  0  0  0  0  0
   18.1682   -4.1926  -12.2162 O   0  0  0  0  0  0  0  0  0  0  0  0
   16.1271   -5.1590  -12.2023 O   0  0  0  0  0  0  0  0  0  0  0  0
  2  1  1  0
  3  4  1  0
  3  2  1  0
  4  5  1  0
  5  6  1  6
  7  9  1  0
  7  5  1  0
  8  7  2  0
 10  9  1  0
 10 11  1  6
 11 12  1  0
 13 17  1  0
 13 12  1  0
 14 13  2  0
 15 10  1  0
 16 15  2  0
 18 19  1  0
 19 20  2  0
 19 21  1  0
 22 21  1  1
 22 23  1  0
 23 15  1  0
 24 22  1  0
 25 24  2  0
 26 24  1  0
M  END
$$$$
