MEN.pdb
     RDKit          3D

 26 25  0  0  1  0  0  0  0  0999 V2000
   25.4801  -19.1620   -7.8010 C   0  0  0  0  0  0  0  0  0  0  0  0
   26.5437  -20.5367   -8.1785 S   0  0  0  0  0  0  0  0  0  0  0  0
   26.1897  -21.3140   -9.7275 C   0  0  0  0  0  0  0  0  0  0  0  0
   25.6192  -20.4870  -10.7945 C   0  0  0  0  0  0  0  0  0  0  0  0
   25.3613  -21.1325  -12.1073 C   0  0  2  0  0  0  0  0  0  0  0  0
   26.4069  -22.0057  -12.5445 N   0  0  0  0  0  0  0  0  0  0  0  0
   25.0524  -20.1035  -13.1715 C   0  0  0  0  0  0  0  0  0  0  0  0
   24.0921  -19.3489  -12.9583 O   0  0  0  0  0  0  0  0  0  0  0  0
   25.8089  -19.9917  -14.3569 N   0  0  0  0  0  0  0  0  0  0  0  0
   25.5722  -18.9923  -15.3975 C   0  0  1  0  0  0  0  0  0  0  0  0
   26.7043  -18.8900  -16.3432 C   0  0  0  0  0  0  0  0  0  0  0  0
   26.5627  -17.7415  -17.2846 C   0  0  0  0  0  0  0  0  0  0  0  0
   27.6966  -17.6223  -18.2187 C   0  0  0  0  0  0  0  0  0  0  0  0
   28.0763  -18.5616  -18.9346 O   0  0  0  0  0  0  0  0  0  0  0  0
   24.3820  -19.4671  -16.1577 C   0  0  0  0  0  0  0  0  0  0  0  0
   24.1717  -20.6610  -16.4872 O   0  0  0  0  0  0  0  0  0  0  0  0
   28.3967  -16.4161  -18.3296 O   0  0  0  0  0  0  0  0  0  0  0  0
   19.5867  -19.3592  -18.2623 N   0  0  0  0  0  0  0  0  0  0  0  0
   19.7203  -18.8451  -16.9433 C   0  0  0  0  0  0  0  0  0  0  0  0
   18.6719  -18.5722  -16.3271 O   0  0  0  0  0  0  0  0  0  0  0  0
   21.0573  -18.6717  -16.4010 C   0  0  0  0  0  0  0  0  0  0  0  0
   22.2088  -18.9302  -17.3072 C   0  0  2  0  0  0  0  0  0  0  0  0
   23.4048  -18.5265  -16.5481 N   0  0  0  0  0  0  0  0  0  0  0  0
   22.1794  -18.2539  -18.6019 C   0  0  0  0  0  0  0  0  0  0  0  0
   22.4058  -17.0396  -18.7172 O   0  0  0  0  0  0  0  0  0  0  0  0
   21.8903  -18.9851  -19.7416 O   0  0  0  0  0  0  0  0  0  0  0  0
  2  1  1  0
  3  4  1  0
  3  2  1  0
  4  5  1  0
  5  6  1  6
  7  9  1  0
  7  5  1  0
  8  7  2  0
 10  9  1  0
 10 11  1  6
 11 12  1  0
 13 17  1  0
 13 12  1  0
 14 13  2  0
 15 10  1  0
 16 15  2  0
 18 19  1  0
 19 20  2  0
 19 21  1  0
 22 21  1  1
 22 23  1  0
 23 15  1  0
 24 22  1  0
 25 24  2  0
 26 24  1  0
M  END
$$$$
