MEN.pdb
     RDKit          3D

 26 25  0  0  1  0  0  0  0  0999 V2000
   29.0625  -11.5264  -18.8964 C   0  0  0  0  0  0  0  0  0  0  0  0
   29.3703  -12.0718  -17.2316 S   0  0  0  0  0  0  0  0  0  0  0  0
   27.9483  -12.0092  -16.1813 C   0  0  0  0  0  0  0  0  0  0  0  0
   26.8279  -11.1597  -16.5948 C   0  0  0  0  0  0  0  0  0  0  0  0
   25.6764  -11.0321  -15.6651 C   0  0  2  0  0  0  0  0  0  0  0  0
   25.1228  -12.2829  -15.2455 N   0  0  0  0  0  0  0  0  0  0  0  0
   24.5984  -10.1460  -16.2479 C   0  0  0  0  0  0  0  0  0  0  0  0
   24.9210   -8.9818  -16.5263 O   0  0  0  0  0  0  0  0  0  0  0  0
   23.2829  -10.6036  -16.4716 N   0  0  0  0  0  0  0  0  0  0  0  0
   22.2131   -9.7931  -17.0512 C   0  0  1  0  0  0  0  0  0  0  0  0
   21.0486  -10.6097  -17.4557 C   0  0  0  0  0  0  0  0  0  0  0  0
   21.4246  -11.7375  -18.3568 C   0  0  0  0  0  0  0  0  0  0  0  0
   20.2933  -12.6331  -18.6576 C   0  0  0  0  0  0  0  0  0  0  0  0
   19.5462  -12.4641  -19.6335 O   0  0  0  0  0  0  0  0  0  0  0  0
   21.7700   -8.8673  -15.9712 C   0  0  0  0  0  0  0  0  0  0  0  0
   22.0085   -9.0268  -14.7481 O   0  0  0  0  0  0  0  0  0  0  0  0
   20.0205  -13.7286  -17.8312 O   0  0  0  0  0  0  0  0  0  0  0  0
   20.9665   -4.4127  -13.6315 N   0  0  0  0  0  0  0  0  0  0  0  0
   22.1821   -5.0521  -13.9994 C   0  0  0  0  0  0  0  0  0  0  0  0
   23.2375   -4.5910  -13.5232 O   0  0  0  0  0  0  0  0  0  0  0  0
   22.1191   -6.1920  -14.8985 C   0  0  0  0  0  0  0  0  0  0  0  0
   20.7746   -6.6409  -15.3510 C   0  0  2  0  0  0  0  0  0  0  0  0
   21.0265   -7.7199  -16.3215 N   0  0  0  0  0  0  0  0  0  0  0  0
   19.9151   -5.6186  -15.9430 C   0  0  0  0  0  0  0  0  0  0  0  0
   20.0240   -5.2712  -17.1290 O   0  0  0  0  0  0  0  0  0  0  0  0
   18.9454   -5.0134  -15.1617 O   0  0  0  0  0  0  0  0  0  0  0  0
  2  1  1  0
  3  4  1  0
  3  2  1  0
  4  5  1  0
  5  6  1  6
  7  9  1  0
  7  5  1  0
  8  7  2  0
 10  9  1  0
 10 11  1  1
 11 12  1  0
 13 17  1  0
 13 12  1  0
 14 13  2  0
 15 10  1  0
 16 15  2  0
 18 19  1  0
 19 20  2  0
 19 21  1  0
 22 21  1  6
 22 23  1  0
 23 15  1  0
 24 22  1  0
 25 24  2  0
 26 24  1  0
M  END
$$$$
