MEN.pdb
     RDKit          3D

 26 25  0  0  1  0  0  0  0  0999 V2000
   26.8291  -18.7996   -8.0426 C   0  0  0  0  0  0  0  0  0  0  0  0
   26.7130  -20.4819   -7.4770 S   0  0  0  0  0  0  0  0  0  0  0  0
   25.3555  -21.3800   -8.1695 C   0  0  0  0  0  0  0  0  0  0  0  0
   25.2213  -21.4014   -9.6288 C   0  0  0  0  0  0  0  0  0  0  0  0
   24.5139  -20.2664  -10.2753 C   0  0  2  0  0  0  0  0  0  0  0  0
   23.3118  -19.8707   -9.6078 N   0  0  0  0  0  0  0  0  0  0  0  0
   24.2384  -20.5531  -11.7343 C   0  0  0  0  0  0  0  0  0  0  0  0
   25.1494  -21.0910  -12.3806 O   0  0  0  0  0  0  0  0  0  0  0  0
   23.0100  -20.2317  -12.3489 N   0  0  0  0  0  0  0  0  0  0  0  0
   22.7065  -20.4622  -13.7603 C   0  0  1  0  0  0  0  0  0  0  0  0
   21.2850  -20.2055  -14.0764 C   0  0  0  0  0  0  0  0  0  0  0  0
   20.9512  -20.5041  -15.4993 C   0  0  0  0  0  0  0  0  0  0  0  0
   19.5289  -20.2798  -15.8142 C   0  0  0  0  0  0  0  0  0  0  0  0
   18.6093  -20.8218  -15.1821 O   0  0  0  0  0  0  0  0  0  0  0  0
   23.5293  -19.4806  -14.5215 C   0  0  0  0  0  0  0  0  0  0  0  0
   23.6489  -18.2651  -14.2273 O   0  0  0  0  0  0  0  0  0  0  0  0
   19.1631  -19.4274  -16.8616 O   0  0  0  0  0  0  0  0  0  0  0  0
   26.9922  -17.9030  -18.1996 N   0  0  0  0  0  0  0  0  0  0  0  0
   27.3774  -19.0452  -17.4452 C   0  0  0  0  0  0  0  0  0  0  0  0
   28.5461  -19.4550  -17.5846 O   0  0  0  0  0  0  0  0  0  0  0  0
   26.3944  -19.6575  -16.5672 C   0  0  0  0  0  0  0  0  0  0  0  0
   25.0628  -19.0024  -16.4585 C   0  0  2  0  0  0  0  0  0  0  0  0
   24.2357  -19.9234  -15.6604 N   0  0  0  0  0  0  0  0  0  0  0  0
   24.3930  -18.6825  -17.7168 C   0  0  0  0  0  0  0  0  0  0  0  0
   23.5570  -19.4415  -18.2307 O   0  0  0  0  0  0  0  0  0  0  0  0
   24.6957  -17.4958  -18.3627 O   0  0  0  0  0  0  0  0  0  0  0  0
  2  1  1  0
  3  4  1  0
  3  2  1  0
  4  5  1  0
  5  6  1  1
  7  9  1  0
  7  5  1  0
  8  7  2  0
 10  9  1  0
 10 11  1  1
 11 12  1  0
 13 17  1  0
 13 12  1  0
 14 13  2  0
 15 10  1  0
 16 15  2  0
 18 19  1  0
 19 20  2  0
 19 21  1  0
 22 21  1  6
 22 23  1  0
 23 15  1  0
 24 22  1  0
 25 24  2  0
 26 24  1  0
M  END
$$$$
