MEN.pdb
     RDKit          3D

 26 25  0  0  1  0  0  0  0  0999 V2000
   26.1508  -19.0425   -6.6801 C   0  0  0  0  0  0  0  0  0  0  0  0
   27.2404  -20.4375   -6.8543 S   0  0  0  0  0  0  0  0  0  0  0  0
   27.1179  -21.2530   -8.4192 C   0  0  0  0  0  0  0  0  0  0  0  0
   26.1512  -20.7317   -9.3897 C   0  0  0  0  0  0  0  0  0  0  0  0
   26.0445  -21.4233  -10.7000 C   0  0  2  0  0  0  0  0  0  0  0  0
   27.3009  -21.8329  -11.2484 N   0  0  0  0  0  0  0  0  0  0  0  0
   25.2793  -20.5858  -11.6999 C   0  0  0  0  0  0  0  0  0  0  0  0
   24.2458  -20.0347  -11.2935 O   0  0  0  0  0  0  0  0  0  0  0  0
   25.7048  -20.4269  -13.0354 N   0  0  0  0  0  0  0  0  0  0  0  0
   25.0034  -19.6249  -14.0366 C   0  0  1  0  0  0  0  0  0  0  0  0
   25.7824  -19.4819  -15.2852 C   0  0  0  0  0  0  0  0  0  0  0  0
   27.1187  -18.8586  -15.0589 C   0  0  0  0  0  0  0  0  0  0  0  0
   27.9042  -18.7196  -16.2984 C   0  0  0  0  0  0  0  0  0  0  0  0
   28.6060  -19.6360  -16.7529 O   0  0  0  0  0  0  0  0  0  0  0  0
   23.7554  -20.3724  -14.3587 C   0  0  0  0  0  0  0  0  0  0  0  0
   23.6341  -21.6216  -14.3044 O   0  0  0  0  0  0  0  0  0  0  0  0
   27.8817  -17.5201  -17.0181 O   0  0  0  0  0  0  0  0  0  0  0  0
   19.6042  -22.4389  -12.4975 N   0  0  0  0  0  0  0  0  0  0  0  0
   19.7502  -21.0704  -12.8547 C   0  0  0  0  0  0  0  0  0  0  0  0
   18.7315  -20.3542  -12.8029 O   0  0  0  0  0  0  0  0  0  0  0  0
   21.0646  -20.5964  -13.2539 C   0  0  0  0  0  0  0  0  0  0  0  0
   21.2638  -20.2363  -14.6839 C   0  0  2  0  0  0  0  0  0  0  0  0
   22.6118  -19.6472  -14.7568 N   0  0  0  0  0  0  0  0  0  0  0  0
   20.2814  -19.3249  -15.2658 C   0  0  0  0  0  0  0  0  0  0  0  0
   19.3962  -19.7170  -16.0416 O   0  0  0  0  0  0  0  0  0  0  0  0
   20.3335  -17.9787  -14.9462 O   0  0  0  0  0  0  0  0  0  0  0  0
  2  1  1  0
  3  4  1  0
  3  2  1  0
  4  5  1  0
  5  6  1  6
  7  9  1  0
  7  5  1  0
  8  7  2  0
 10  9  1  0
 10 11  1  6
 11 12  1  0
 13 17  1  0
 13 12  1  0
 14 13  2  0
 15 10  1  0
 16 15  2  0
 18 19  1  0
 19 20  2  0
 19 21  1  0
 22 21  1  1
 22 23  1  0
 23 15  1  0
 24 22  1  0
 25 24  2  0
 26 24  1  0
M  END
$$$$
