MEN.pdb
     RDKit          3D

 26 25  0  0  1  0  0  0  0  0999 V2000
   29.4407  -17.2754  -17.2923 C   0  0  0  0  0  0  0  0  0  0  0  0
   28.0282  -17.9733  -16.4670 S   0  0  0  0  0  0  0  0  0  0  0  0
   26.8585  -18.7271  -17.5592 C   0  0  0  0  0  0  0  0  0  0  0  0
   25.7058  -19.4089  -16.9639 C   0  0  0  0  0  0  0  0  0  0  0  0
   25.9280  -20.1813  -15.7147 C   0  0  2  0  0  0  0  0  0  0  0  0
   26.9230  -21.2031  -15.8287 N   0  0  0  0  0  0  0  0  0  0  0  0
   24.6327  -20.7610  -15.1922 C   0  0  0  0  0  0  0  0  0  0  0  0
   24.3476  -21.9114  -15.5558 O   0  0  0  0  0  0  0  0  0  0  0  0
   23.7763  -20.0429  -14.3313 N   0  0  0  0  0  0  0  0  0  0  0  0
   22.5403  -20.5765  -13.7612 C   0  0  1  0  0  0  0  0  0  0  0  0
   22.1115  -19.8314  -12.5581 C   0  0  0  0  0  0  0  0  0  0  0  0
   20.9034  -20.4260  -11.9160 C   0  0  0  0  0  0  0  0  0  0  0  0
   20.4861  -19.7046  -10.7003 C   0  0  0  0  0  0  0  0  0  0  0  0
   21.0461  -18.6684  -10.3109 O   0  0  0  0  0  0  0  0  0  0  0  0
   21.4955  -20.3961  -14.8080 C   0  0  0  0  0  0  0  0  0  0  0  0
   21.4487  -19.4350  -15.6156 O   0  0  0  0  0  0  0  0  0  0  0  0
   19.4191  -20.1780   -9.9292 O   0  0  0  0  0  0  0  0  0  0  0  0
   17.4779  -21.4839  -17.9590 N   0  0  0  0  0  0  0  0  0  0  0  0
   18.3277  -22.5948  -17.7027 C   0  0  0  0  0  0  0  0  0  0  0  0
   18.1537  -23.6187  -18.3917 O   0  0  0  0  0  0  0  0  0  0  0  0
   19.3362  -22.4686  -16.6641 C   0  0  0  0  0  0  0  0  0  0  0  0
   19.3679  -21.2027  -15.8827 C   0  0  2  0  0  0  0  0  0  0  0  0
   20.4723  -21.3617  -14.9213 N   0  0  0  0  0  0  0  0  0  0  0  0
   18.1369  -20.8413  -15.1837 C   0  0  0  0  0  0  0  0  0  0  0  0
   17.3696  -19.9643  -15.6096 O   0  0  0  0  0  0  0  0  0  0  0  0
   17.8093  -21.4940  -14.0074 O   0  0  0  0  0  0  0  0  0  0  0  0
  2  1  1  0
  3  4  1  0
  3  2  1  0
  4  5  1  0
  5  6  1  6
  7  9  1  0
  7  5  1  0
  8  7  2  0
 10  9  1  0
 10 11  1  1
 11 12  1  0
 13 17  1  0
 13 12  1  0
 14 13  2  0
 15 10  1  0
 16 15  2  0
 18 19  1  0
 19 20  2  0
 19 21  1  0
 22 21  1  1
 22 23  1  0
 23 15  1  0
 24 22  1  0
 25 24  2  0
 26 24  1  0
M  END
$$$$
