VFW.pdb
     RDKit          3D

 33 35  0  0  1  0  0  0  0  0999 V2000
   25.8353  -20.6662  -18.7515 C   0  0  0  0  0  0  0  0  0  0  0  0
   27.2260  -20.3882  -18.3084 C   0  0  2  0  0  0  0  0  0  0  0  0
   28.1156  -20.2508  -19.5518 C   0  0  0  0  0  0  0  0  0  0  0  0
   27.7903  -21.4989  -17.4947 C   0  0  2  0  0  0  0  0  0  0  0  0
   27.7212  -22.7649  -18.1820 N   0  0  0  0  0  0  0  0  0  0  0  0
   27.0407  -21.6319  -16.2102 C   0  0  0  0  0  0  0  0  0  0  0  0
   26.0471  -22.3984  -16.0978 O   0  0  0  0  0  0  0  0  0  0  0  0
   27.4053  -20.9044  -15.0509 N   0  0  0  0  0  0  0  0  0  0  0  0
   26.6747  -20.9339  -13.8104 C   0  0  1  0  0  0  0  0  0  0  0  0
   27.5010  -20.6351  -12.6122 C   0  0  0  0  0  0  0  0  0  0  0  0
   26.7744  -20.5543  -11.3446 C   0  0  0  0  0  0  0  0  0  0  0  0
   26.4051  -19.3262  -10.8353 C   0  0  0  0  0  0  0  0  0  0  0  0
   25.7086  -19.2428   -9.6249 C   0  0  0  0  0  0  0  0  0  0  0  0
   25.3784  -20.3974   -8.9176 C   0  0  0  0  0  0  0  0  0  0  0  0
   25.7498  -21.6223   -9.4309 C   0  0  0  0  0  0  0  0  0  0  0  0
   26.4436  -21.6838  -10.6388 C   0  0  0  0  0  0  0  0  0  0  0  0
   25.4185  -20.1335  -13.8979 C   0  0  0  0  0  0  0  0  0  0  0  0
   25.5066  -18.9673  -14.3327 O   0  0  0  0  0  0  0  0  0  0  0  0
   24.1814  -20.6525  -13.5126 N   0  0  0  0  0  0  0  0  0  0  0  0
   22.8727  -20.1822  -13.9092 C   0  0  1  0  0  0  0  0  0  0  0  0
   22.7371  -19.9597  -15.3615 C   0  0  0  0  0  0  0  0  0  0  0  0
   21.4594  -19.2937  -15.7021 C   0  0  0  0  0  0  0  0  0  0  0  0
   20.8810  -18.1848  -15.1213 C   0  0  0  0  0  0  0  0  0  0  0  0
   19.7188  -17.9593  -15.7472 N   0  0  0  0  0  0  0  0  0  0  0  0
   19.5071  -18.8665  -16.7099 C   0  0  0  0  0  0  0  0  0  0  0  0
   18.4726  -19.0633  -17.6214 C   0  0  0  0  0  0  0  0  0  0  0  0
   18.5036  -20.0986  -18.5243 C   0  0  0  0  0  0  0  0  0  0  0  0
   19.5969  -20.9533  -18.5108 C   0  0  0  0  0  0  0  0  0  0  0  0
   20.6130  -20.7428  -17.6001 C   0  0  0  0  0  0  0  0  0  0  0  0
   20.5815  -19.7170  -16.7061 C   0  0  0  0  0  0  0  0  0  0  0  0
   21.7582  -21.0324  -13.4077 C   0  0  0  0  0  0  0  0  0  0  0  0
   21.7900  -22.4145  -13.3309 O   0  0  0  0  0  0  0  0  0  0  0  0
   20.7127  -20.4397  -13.0240 O   0  0  0  0  0  0  0  0  0  0  0  0
  2  3  1  6
  2  1  1  0
  4  2  1  0
  4  5  1  6
  6  4  1  0
  6  7  2  0
  8  6  1  0
  9 10  1  1
  9  8  1  0
 11 16  1  0
 11 10  1  0
 12 11  2  0
 13 14  2  0
 13 12  1  0
 14 15  1  0
 15 16  2  0
 17  9  1  0
 18 17  2  0
 19 17  1  0
 20 21  1  6
 20 19  1  0
 21 22  1  0
 22 30  1  0
 23 22  2  0
 23 24  1  0
 24 25  1  0
 25 26  1  0
 26 27  2  0
 28 27  1  0
 29 28  2  0
 30 25  2  0
 30 29  1  0
 31 32  1  0
 31 20  1  0
 33 31  2  0
M  END
$$$$
