VFW.pdb
     RDKit          3D

 33 35  0  0  1  0  0  0  0  0999 V2000
   29.3310  -18.8303  -15.1715 C   0  0  0  0  0  0  0  0  0  0  0  0
   28.1696  -19.2517  -14.3462 C   0  0  2  0  0  0  0  0  0  0  0  0
   27.4618  -17.9943  -13.8225 C   0  0  0  0  0  0  0  0  0  0  0  0
   28.5825  -20.0422  -13.1550 C   0  0  2  0  0  0  0  0  0  0  0  0
   29.3667  -21.1977  -13.5153 N   0  0  0  0  0  0  0  0  0  0  0  0
   27.3805  -20.5174  -12.4075 C   0  0  0  0  0  0  0  0  0  0  0  0
   26.7072  -21.5094  -12.7949 O   0  0  0  0  0  0  0  0  0  0  0  0
   26.9328  -19.8795  -11.2247 N   0  0  0  0  0  0  0  0  0  0  0  0
   25.7372  -20.2424  -10.5090 C   0  0  1  0  0  0  0  0  0  0  0  0
   25.6943  -19.7473   -9.1087 C   0  0  0  0  0  0  0  0  0  0  0  0
   26.8893  -20.0098   -8.3060 C   0  0  0  0  0  0  0  0  0  0  0  0
   27.6311  -21.1530   -8.5220 C   0  0  0  0  0  0  0  0  0  0  0  0
   28.7757  -21.4082   -7.7591 C   0  0  0  0  0  0  0  0  0  0  0  0
   29.1820  -20.5126   -6.7716 C   0  0  0  0  0  0  0  0  0  0  0  0
   28.4371  -19.3716   -6.5595 C   0  0  0  0  0  0  0  0  0  0  0  0
   27.2996  -19.1358   -7.3307 C   0  0  0  0  0  0  0  0  0  0  0  0
   24.5116  -19.9322  -11.3016 C   0  0  0  0  0  0  0  0  0  0  0  0
   24.6324  -19.1553  -12.2703 O   0  0  0  0  0  0  0  0  0  0  0  0
   23.2675  -20.4810  -10.9865 N   0  0  0  0  0  0  0  0  0  0  0  0
   22.1395  -20.6599  -11.8735 C   0  0  1  0  0  0  0  0  0  0  0  0
   22.4463  -21.4709  -13.0674 C   0  0  0  0  0  0  0  0  0  0  0  0
   22.2915  -20.6943  -14.3183 C   0  0  0  0  0  0  0  0  0  0  0  0
   22.9739  -19.5676  -14.7263 C   0  0  0  0  0  0  0  0  0  0  0  0
   22.4816  -19.2049  -15.9177 N   0  0  0  0  0  0  0  0  0  0  0  0
   21.5096  -20.0388  -16.3105 C   0  0  0  0  0  0  0  0  0  0  0  0
   20.7016  -20.0923  -17.4436 C   0  0  0  0  0  0  0  0  0  0  0  0
   19.7572  -21.0778  -17.6016 C   0  0  0  0  0  0  0  0  0  0  0  0
   19.6223  -22.0290  -16.6000 C   0  0  0  0  0  0  0  0  0  0  0  0
   20.4319  -21.9602  -15.4838 C   0  0  0  0  0  0  0  0  0  0  0  0
   21.3672  -20.9837  -15.3282 C   0  0  0  0  0  0  0  0  0  0  0  0
   20.9231  -21.1801  -11.1909 C   0  0  0  0  0  0  0  0  0  0  0  0
   19.6267  -20.7845  -11.4736 O   0  0  0  0  0  0  0  0  0  0  0  0
   21.0970  -22.0475  -10.2914 O   0  0  0  0  0  0  0  0  0  0  0  0
  2  3  1  1
  2  1  1  0
  4  2  1  0
  4  5  1  6
  6  4  1  0
  6  7  2  0
  8  6  1  0
  9 10  1  1
  9  8  1  0
 11 16  1  0
 11 10  1  0
 12 11  2  0
 13 14  2  0
 13 12  1  0
 14 15  1  0
 15 16  2  0
 17  9  1  0
 18 17  2  0
 19 17  1  0
 20 21  1  6
 20 19  1  0
 21 22  1  0
 22 30  1  0
 23 22  2  0
 23 24  1  0
 24 25  1  0
 25 26  1  0
 26 27  2  0
 28 27  1  0
 29 28  2  0
 30 25  2  0
 30 29  1  0
 31 32  1  0
 31 20  1  0
 33 31  2  0
M  END
$$$$
