VFW.pdb
     RDKit          3D

 33 35  0  0  1  0  0  0  0  0999 V2000
   28.4370  -20.7754  -18.7641 C   0  0  0  0  0  0  0  0  0  0  0  0
   27.7479  -20.8616  -17.4506 C   0  0  2  0  0  0  0  0  0  0  0  0
   27.4333  -19.4378  -16.9708 C   0  0  0  0  0  0  0  0  0  0  0  0
   28.6021  -21.4899  -16.4067 C   0  0  2  0  0  0  0  0  0  0  0  0
   29.0438  -22.8088  -16.7880 N   0  0  0  0  0  0  0  0  0  0  0  0
   27.8470  -21.6111  -15.1243 C   0  0  0  0  0  0  0  0  0  0  0  0
   26.8537  -22.3776  -15.0087 O   0  0  0  0  0  0  0  0  0  0  0  0
   28.2056  -20.8717  -13.9706 N   0  0  0  0  0  0  0  0  0  0  0  0
   27.4757  -20.8983  -12.7297 C   0  0  1  0  0  0  0  0  0  0  0  0
   28.2556  -20.4256  -11.5566 C   0  0  0  0  0  0  0  0  0  0  0  0
   27.5121  -20.3215  -10.3005 C   0  0  0  0  0  0  0  0  0  0  0  0
   27.5749  -21.3404   -9.3723 C   0  0  0  0  0  0  0  0  0  0  0  0
   26.8679  -21.2455   -8.1688 C   0  0  0  0  0  0  0  0  0  0  0  0
   26.0914  -20.1220   -7.8911 C   0  0  0  0  0  0  0  0  0  0  0  0
   26.0319  -19.1064   -8.8222 C   0  0  0  0  0  0  0  0  0  0  0  0
   26.7441  -19.2204  -10.0156 C   0  0  0  0  0  0  0  0  0  0  0  0
   26.1375  -20.2534  -12.8700 C   0  0  0  0  0  0  0  0  0  0  0  0
   26.1084  -19.0515  -13.2036 O   0  0  0  0  0  0  0  0  0  0  0  0
   24.9511  -20.9523  -12.6410 N   0  0  0  0  0  0  0  0  0  0  0  0
   23.6018  -20.4404  -12.7329 C   0  0  1  0  0  0  0  0  0  0  0  0
   23.0541  -20.4539  -14.1030 C   0  0  0  0  0  0  0  0  0  0  0  0
   21.7382  -19.7798  -14.1792 C   0  0  0  0  0  0  0  0  0  0  0  0
   21.3511  -18.5750  -13.6314 C   0  0  0  0  0  0  0  0  0  0  0  0
   20.0640  -18.3814  -13.9464 N   0  0  0  0  0  0  0  0  0  0  0  0
   19.5884  -19.4007  -14.6739 C   0  0  0  0  0  0  0  0  0  0  0  0
   18.3420  -19.6704  -15.2339 C   0  0  0  0  0  0  0  0  0  0  0  0
   18.1150  -20.8201  -15.9514 C   0  0  0  0  0  0  0  0  0  0  0  0
   19.1624  -21.7169  -16.1093 C   0  0  0  0  0  0  0  0  0  0  0  0
   20.3910  -21.4329  -15.5472 C   0  0  0  0  0  0  0  0  0  0  0  0
   20.6149  -20.2938  -14.8366 C   0  0  0  0  0  0  0  0  0  0  0  0
   22.6533  -21.0916  -11.7880 C   0  0  0  0  0  0  0  0  0  0  0  0
   21.6433  -20.4369  -11.1038 O   0  0  0  0  0  0  0  0  0  0  0  0
   22.7865  -22.3329  -11.6064 O   0  0  0  0  0  0  0  0  0  0  0  0
  2  3  1  1
  2  1  1  0
  4  2  1  0
  4  5  1  6
  6  4  1  0
  6  7  2  0
  8  6  1  0
  9 10  1  1
  9  8  1  0
 11 16  1  0
 11 10  1  0
 12 11  2  0
 13 14  2  0
 13 12  1  0
 14 15  1  0
 15 16  2  0
 17  9  1  0
 18 17  2  0
 19 17  1  0
 20 21  1  6
 20 19  1  0
 21 22  1  0
 22 30  1  0
 23 22  2  0
 23 24  1  0
 24 25  1  0
 25 26  1  0
 26 27  2  0
 28 27  1  0
 29 28  2  0
 30 25  2  0
 30 29  1  0
 31 32  1  0
 31 20  1  0
 33 31  2  0
M  END
$$$$
