VFW.pdb
     RDKit          3D

 33 35  0  0  1  0  0  0  0  0999 V2000
   12.4102  -15.0301    6.8458 C   0  0  0  0  0  0  0  0  0  0  0  0
   13.6392  -15.0980    7.6779 C   0  0  2  0  0  0  0  0  0  0  0  0
   13.3147  -14.5455    9.0729 C   0  0  0  0  0  0  0  0  0  0  0  0
   14.7390  -14.2604    7.1272 C   0  0  2  0  0  0  0  0  0  0  0  0
   14.3169  -12.9035    6.8810 N   0  0  0  0  0  0  0  0  0  0  0  0
   15.2274  -14.8311    5.8368 C   0  0  0  0  0  0  0  0  0  0  0  0
   14.7702  -14.4489    4.7267 O   0  0  0  0  0  0  0  0  0  0  0  0
   16.2291  -15.8315    5.7910 N   0  0  0  0  0  0  0  0  0  0  0  0
   16.6799  -16.4747    4.5843 C   0  0  1  0  0  0  0  0  0  0  0  0
   18.1163  -16.2507    4.2775 C   0  0  0  0  0  0  0  0  0  0  0  0
   18.4934  -14.8686    3.9789 C   0  0  0  0  0  0  0  0  0  0  0  0
   18.7643  -13.9876    5.0057 C   0  0  0  0  0  0  0  0  0  0  0  0
   19.1272  -12.6657    4.7263 C   0  0  0  0  0  0  0  0  0  0  0  0
   19.2202  -12.2209    3.4088 C   0  0  0  0  0  0  0  0  0  0  0  0
   18.9483  -13.1054    2.3862 C   0  0  0  0  0  0  0  0  0  0  0  0
   18.5882  -14.4187    2.6859 C   0  0  0  0  0  0  0  0  0  0  0  0
   16.2652  -17.9075    4.5420 C   0  0  0  0  0  0  0  0  0  0  0  0
   16.5399  -18.6169    5.5310 O   0  0  0  0  0  0  0  0  0  0  0  0
   15.5943  -18.4522    3.4460 N   0  0  0  0  0  0  0  0  0  0  0  0
   15.3105  -19.8484    3.1986 C   0  0  1  0  0  0  0  0  0  0  0  0
   14.5387  -20.0873    1.9638 C   0  0  0  0  0  0  0  0  0  0  0  0
   14.1981  -21.5178    1.7926 C   0  0  0  0  0  0  0  0  0  0  0  0
   13.5063  -22.3500    2.6473 C   0  0  0  0  0  0  0  0  0  0  0  0
   13.4581  -23.5627    2.0813 N   0  0  0  0  0  0  0  0  0  0  0  0
   14.0847  -23.5661    0.8973 C   0  0  0  0  0  0  0  0  0  0  0  0
   14.3085  -24.5543   -0.0583 C   0  0  0  0  0  0  0  0  0  0  0  0
   14.9999  -24.2858   -1.2150 C   0  0  0  0  0  0  0  0  0  0  0  0
   15.4760  -22.9976   -1.4152 C   0  0  0  0  0  0  0  0  0  0  0  0
   15.2446  -22.0309   -0.4570 C   0  0  0  0  0  0  0  0  0  0  0  0
   14.5595  -22.2978    0.6884 C   0  0  0  0  0  0  0  0  0  0  0  0
   16.5202  -20.7157    3.2309 C   0  0  0  0  0  0  0  0  0  0  0  0
   16.6064  -21.9292    3.8919 O   0  0  0  0  0  0  0  0  0  0  0  0
   17.5358  -20.3067    2.6041 O   0  0  0  0  0  0  0  0  0  0  0  0
  2  3  1  1
  2  1  1  0
  4  2  1  0
  4  5  1  6
  6  4  1  0
  6  7  2  0
  8  6  1  0
  9 10  1  1
  9  8  1  0
 11 16  1  0
 11 10  1  0
 12 11  2  0
 13 14  2  0
 13 12  1  0
 14 15  1  0
 15 16  2  0
 17  9  1  0
 18 17  2  0
 19 17  1  0
 20 21  1  6
 20 19  1  0
 21 22  1  0
 22 30  1  0
 23 22  2  0
 23 24  1  0
 24 25  1  0
 25 26  1  0
 26 27  2  0
 28 27  1  0
 29 28  2  0
 30 25  2  0
 30 29  1  0
 31 32  1  0
 31 20  1  0
 33 31  2  0
M  END
$$$$
