VFW.pdb
     RDKit          3D

 33 35  0  0  1  0  0  0  0  0999 V2000
   19.5802  -11.3945    7.4436 C   0  0  0  0  0  0  0  0  0  0  0  0
   20.4404  -10.7752    8.4848 C   0  0  2  0  0  0  0  0  0  0  0  0
   20.3552   -9.2491    8.3431 C   0  0  0  0  0  0  0  0  0  0  0  0
   21.8730  -11.1441    8.3241 C   0  0  2  0  0  0  0  0  0  0  0  0
   22.3955  -10.7461    7.0402 N   0  0  0  0  0  0  0  0  0  0  0  0
   22.0440  -12.6220    8.4517 C   0  0  0  0  0  0  0  0  0  0  0  0
   22.2782  -13.3519    7.4518 O   0  0  0  0  0  0  0  0  0  0  0  0
   21.9520  -13.2820    9.7016 N   0  0  0  0  0  0  0  0  0  0  0  0
   22.0378  -14.7089    9.8747 C   0  0  1  0  0  0  0  0  0  0  0  0
   22.4734  -15.1305   11.2312 C   0  0  0  0  0  0  0  0  0  0  0  0
   22.5147  -16.5747   11.4640 C   0  0  0  0  0  0  0  0  0  0  0  0
   21.4757  -17.1997   12.1226 C   0  0  0  0  0  0  0  0  0  0  0  0
   21.5086  -18.5803   12.3462 C   0  0  0  0  0  0  0  0  0  0  0  0
   22.5898  -19.3425   11.9075 C   0  0  0  0  0  0  0  0  0  0  0  0
   23.6256  -18.7130   11.2499 C   0  0  0  0  0  0  0  0  0  0  0  0
   23.5736  -17.3360   11.0370 C   0  0  0  0  0  0  0  0  0  0  0  0
   20.8017  -15.3921    9.3932 C   0  0  0  0  0  0  0  0  0  0  0  0
   19.7692  -14.7014    9.2760 O   0  0  0  0  0  0  0  0  0  0  0  0
   20.7815  -16.7523    9.0804 N   0  0  0  0  0  0  0  0  0  0  0  0
   19.8204  -17.4460    8.2521 C   0  0  1  0  0  0  0  0  0  0  0  0
   19.6197  -16.8247    6.9288 C   0  0  0  0  0  0  0  0  0  0  0  0
   18.4419  -17.3845    6.2279 C   0  0  0  0  0  0  0  0  0  0  0  0
   17.1128  -17.0426    6.3624 C   0  0  0  0  0  0  0  0  0  0  0  0
   16.4068  -17.8295    5.5404 N   0  0  0  0  0  0  0  0  0  0  0  0
   17.2084  -18.6706    4.8737 C   0  0  0  0  0  0  0  0  0  0  0  0
   16.9695  -19.6634    3.9265 C   0  0  0  0  0  0  0  0  0  0  0  0
   17.9974  -20.3997    3.3887 C   0  0  0  0  0  0  0  0  0  0  0  0
   19.2920  -20.1324    3.8115 C   0  0  0  0  0  0  0  0  0  0  0  0
   19.5098  -19.1446    4.7512 C   0  0  0  0  0  0  0  0  0  0  0  0
   18.4909  -18.4157    5.2833 C   0  0  0  0  0  0  0  0  0  0  0  0
   20.1020  -18.9005    8.1055 C   0  0  0  0  0  0  0  0  0  0  0  0
   21.3394  -19.4905    8.3000 O   0  0  0  0  0  0  0  0  0  0  0  0
   19.1340  -19.6422    7.7826 O   0  0  0  0  0  0  0  0  0  0  0  0
  2  3  1  6
  2  1  1  0
  4  2  1  0
  4  5  1  6
  6  4  1  0
  6  7  2  0
  8  6  1  0
  9 10  1  1
  9  8  1  0
 11 16  1  0
 11 10  1  0
 12 11  2  0
 13 14  2  0
 13 12  1  0
 14 15  1  0
 15 16  2  0
 17  9  1  0
 18 17  2  0
 19 17  1  0
 20 21  1  6
 20 19  1  0
 21 22  1  0
 22 30  1  0
 23 22  2  0
 23 24  1  0
 24 25  1  0
 25 26  1  0
 26 27  2  0
 28 27  1  0
 29 28  2  0
 30 25  2  0
 30 29  1  0
 31 32  1  0
 31 20  1  0
 33 31  2  0
M  END
$$$$
