VFW.pdb
     RDKit          3D

 33 35  0  0  1  0  0  0  0  0999 V2000
   27.7293  -19.2460  -17.4229 C   0  0  0  0  0  0  0  0  0  0  0  0
   27.1514  -19.6590  -16.1179 C   0  0  2  0  0  0  0  0  0  0  0  0
   27.2339  -18.4703  -15.1500 C   0  0  0  0  0  0  0  0  0  0  0  0
   27.9107  -20.7766  -15.4943 C   0  0  2  0  0  0  0  0  0  0  0  0
   28.0007  -21.9236  -16.3640 N   0  0  0  0  0  0  0  0  0  0  0  0
   27.2470  -21.2103  -14.2290 C   0  0  0  0  0  0  0  0  0  0  0  0
   26.2751  -22.0121  -14.2303 O   0  0  0  0  0  0  0  0  0  0  0  0
   27.6733  -20.7442  -12.9612 N   0  0  0  0  0  0  0  0  0  0  0  0
   26.9762  -20.9965  -11.7268 C   0  0  1  0  0  0  0  0  0  0  0  0
   27.8401  -20.9389  -10.5193 C   0  0  0  0  0  0  0  0  0  0  0  0
   27.1576  -20.6163   -9.2656 C   0  0  0  0  0  0  0  0  0  0  0  0
   26.1279  -21.4151   -8.8125 C   0  0  0  0  0  0  0  0  0  0  0  0
   25.4731  -21.1128   -7.6137 C   0  0  0  0  0  0  0  0  0  0  0  0
   25.8513  -20.0021   -6.8615 C   0  0  0  0  0  0  0  0  0  0  0  0
   26.8810  -19.2069   -7.3189 C   0  0  0  0  0  0  0  0  0  0  0  0
   27.5206  -19.5255   -8.5162 C   0  0  0  0  0  0  0  0  0  0  0  0
   25.7333  -20.1771  -11.6249 C   0  0  0  0  0  0  0  0  0  0  0  0
   25.8642  -18.9535  -11.4195 O   0  0  0  0  0  0  0  0  0  0  0  0
   24.4626  -20.7405  -11.7520 N   0  0  0  0  0  0  0  0  0  0  0  0
   23.1897  -20.0836  -11.5532 C   0  0  1  0  0  0  0  0  0  0  0  0
   22.9361  -18.9820  -12.5016 C   0  0  0  0  0  0  0  0  0  0  0  0
   22.7609  -19.4741  -13.8869 C   0  0  0  0  0  0  0  0  0  0  0  0
   21.8083  -20.3389  -14.3831 C   0  0  0  0  0  0  0  0  0  0  0  0
   22.0557  -20.5087  -15.6882 N   0  0  0  0  0  0  0  0  0  0  0  0
   23.1241  -19.7975  -16.0717 C   0  0  0  0  0  0  0  0  0  0  0  0
   23.7731  -19.6386  -17.2937 C   0  0  0  0  0  0  0  0  0  0  0  0
   24.8771  -18.8297  -17.4163 C   0  0  0  0  0  0  0  0  0  0  0  0
   25.3380  -18.1670  -16.2874 C   0  0  0  0  0  0  0  0  0  0  0  0
   24.6820  -18.3364  -15.0844 C   0  0  0  0  0  0  0  0  0  0  0  0
   23.5885  -19.1378  -14.9640 C   0  0  0  0  0  0  0  0  0  0  0  0
   22.0343  -21.0220  -11.5261 C   0  0  0  0  0  0  0  0  0  0  0  0
   20.7414  -20.6753  -11.1721 O   0  0  0  0  0  0  0  0  0  0  0  0
   22.2599  -22.2190  -11.8543 O   0  0  0  0  0  0  0  0  0  0  0  0
  2  3  1  1
  2  1  1  0
  4  2  1  0
  4  5  1  6
  6  4  1  0
  6  7  2  0
  8  6  1  0
  9 10  1  1
  9  8  1  0
 11 16  1  0
 11 10  1  0
 12 11  2  0
 13 14  2  0
 13 12  1  0
 14 15  1  0
 15 16  2  0
 17  9  1  0
 18 17  2  0
 19 17  1  0
 20 21  1  6
 20 19  1  0
 21 22  1  0
 22 30  1  0
 23 22  2  0
 23 24  1  0
 24 25  1  0
 25 26  1  0
 26 27  2  0
 28 27  1  0
 29 28  2  0
 30 25  2  0
 30 29  1  0
 31 32  1  0
 31 20  1  0
 33 31  2  0
M  END
$$$$
