VFW.pdb
     RDKit          3D

 33 35  0  0  1  0  0  0  0  0999 V2000
   25.6857  -26.9637  -16.5438 C   0  0  0  0  0  0  0  0  0  0  0  0
   26.0401  -26.1841  -17.7580 C   0  0  2  0  0  0  0  0  0  0  0  0
   25.9607  -27.1154  -18.9757 C   0  0  0  0  0  0  0  0  0  0  0  0
   27.4322  -25.6611  -17.7049 C   0  0  2  0  0  0  0  0  0  0  0  0
   28.3894  -26.6950  -17.3972 N   0  0  0  0  0  0  0  0  0  0  0  0
   27.5473  -24.6021  -16.6585 C   0  0  0  0  0  0  0  0  0  0  0  0
   28.0603  -24.8354  -15.5316 O   0  0  0  0  0  0  0  0  0  0  0  0
   27.0865  -23.2804  -16.8759 N   0  0  0  0  0  0  0  0  0  0  0  0
   27.2164  -22.2083  -15.9236 C   0  0  1  0  0  0  0  0  0  0  0  0
   27.6313  -20.9127  -16.5212 C   0  0  0  0  0  0  0  0  0  0  0  0
   27.6391  -19.7674  -15.6104 C   0  0  0  0  0  0  0  0  0  0  0  0
   28.8106  -19.3836  -14.9906 C   0  0  0  0  0  0  0  0  0  0  0  0
   28.8246  -18.2882  -14.1205 C   0  0  0  0  0  0  0  0  0  0  0  0
   27.6571  -17.5703  -13.8680 C   0  0  0  0  0  0  0  0  0  0  0  0
   26.4888  -17.9580  -14.4898 C   0  0  0  0  0  0  0  0  0  0  0  0
   26.4961  -19.0526  -15.3535 C   0  0  0  0  0  0  0  0  0  0  0  0
   26.0171  -22.1144  -15.0408 C   0  0  0  0  0  0  0  0  0  0  0  0
   24.8952  -22.1825  -15.5826 O   0  0  0  0  0  0  0  0  0  0  0  0
   26.1259  -21.9563  -13.6582 N   0  0  0  0  0  0  0  0  0  0  0  0
   25.0581  -22.0077  -12.6844 C   0  0  1  0  0  0  0  0  0  0  0  0
   25.5029  -22.4127  -11.3370 C   0  0  0  0  0  0  0  0  0  0  0  0
   26.1167  -21.2877  -10.5958 C   0  0  0  0  0  0  0  0  0  0  0  0
   25.4982  -20.2815   -9.8842 C   0  0  0  0  0  0  0  0  0  0  0  0
   26.4555  -19.4793   -9.4011 N   0  0  0  0  0  0  0  0  0  0  0  0
   27.6715  -19.9105   -9.7616 C   0  0  0  0  0  0  0  0  0  0  0  0
   28.9592  -19.4380   -9.5202 C   0  0  0  0  0  0  0  0  0  0  0  0
   30.0631  -20.0854  -10.0206 C   0  0  0  0  0  0  0  0  0  0  0  0
   29.8685  -21.2314  -10.7789 C   0  0  0  0  0  0  0  0  0  0  0  0
   28.5848  -21.6851  -11.0078 C   0  0  0  0  0  0  0  0  0  0  0  0
   27.4920  -21.0431  -10.5118 C   0  0  0  0  0  0  0  0  0  0  0  0
   24.2583  -20.7541  -12.6123 C   0  0  0  0  0  0  0  0  0  0  0  0
   24.7024  -19.5075  -13.0193 O   0  0  0  0  0  0  0  0  0  0  0  0
   23.0893  -20.8458  -12.1469 O   0  0  0  0  0  0  0  0  0  0  0  0
  2  3  1  6
  2  1  1  0
  4  2  1  0
  4  5  1  1
  6  4  1  0
  6  7  2  0
  8  6  1  0
  9 10  1  6
  9  8  1  0
 11 16  1  0
 11 10  1  0
 12 11  2  0
 13 14  2  0
 13 12  1  0
 14 15  1  0
 15 16  2  0
 17  9  1  0
 18 17  2  0
 19 17  1  0
 20 21  1  1
 20 19  1  0
 21 22  1  0
 22 30  1  0
 23 22  2  0
 23 24  1  0
 24 25  1  0
 25 26  1  0
 26 27  2  0
 28 27  1  0
 29 28  2  0
 30 25  2  0
 30 29  1  0
 31 32  1  0
 31 20  1  0
 33 31  2  0
M  END
$$$$
