VFW.pdb
     RDKit          3D

 33 35  0  0  1  0  0  0  0  0999 V2000
   25.9911  -30.1300  -16.0946 C   0  0  0  0  0  0  0  0  0  0  0  0
   26.9913  -30.1389  -17.1932 C   0  0  2  0  0  0  0  0  0  0  0  0
   27.4970  -31.5762  -17.3805 C   0  0  0  0  0  0  0  0  0  0  0  0
   28.1801  -29.3008  -16.8792 C   0  0  2  0  0  0  0  0  0  0  0  0
   28.7817  -29.6621  -15.6193 N   0  0  0  0  0  0  0  0  0  0  0  0
   27.7931  -27.8604  -16.8074 C   0  0  0  0  0  0  0  0  0  0  0  0
   27.6386  -27.2687  -15.7058 O   0  0  0  0  0  0  0  0  0  0  0  0
   27.5789  -27.0829  -17.9718 N   0  0  0  0  0  0  0  0  0  0  0  0
   27.2401  -25.6835  -17.9629 C   0  0  1  0  0  0  0  0  0  0  0  0
   28.3797  -24.7812  -18.2711 C   0  0  0  0  0  0  0  0  0  0  0  0
   29.5556  -24.9283  -17.4126 C   0  0  0  0  0  0  0  0  0  0  0  0
   30.4715  -25.9305  -17.6585 C   0  0  0  0  0  0  0  0  0  0  0  0
   31.5986  -26.0746  -16.8424 C   0  0  0  0  0  0  0  0  0  0  0  0
   31.8118  -25.2090  -15.7711 C   0  0  0  0  0  0  0  0  0  0  0  0
   30.8934  -24.2091  -15.5295 C   0  0  0  0  0  0  0  0  0  0  0  0
   29.7766  -24.0824  -16.3547 C   0  0  0  0  0  0  0  0  0  0  0  0
   26.0150  -25.4135  -18.7709 C   0  0  0  0  0  0  0  0  0  0  0  0
   25.9413  -25.9390  -19.9001 O   0  0  0  0  0  0  0  0  0  0  0  0
   24.9793  -24.6060  -18.2981 N   0  0  0  0  0  0  0  0  0  0  0  0
   23.7491  -24.2710  -18.9805 C   0  0  1  0  0  0  0  0  0  0  0  0
   22.9495  -25.4471  -19.3738 C   0  0  0  0  0  0  0  0  0  0  0  0
   22.4856  -26.2186  -18.1985 C   0  0  0  0  0  0  0  0  0  0  0  0
   21.9931  -25.7523  -16.9979 C   0  0  0  0  0  0  0  0  0  0  0  0
   21.7200  -26.8159  -16.2313 N   0  0  0  0  0  0  0  0  0  0  0  0
   22.0096  -27.9567  -16.8710 C   0  0  0  0  0  0  0  0  0  0  0  0
   21.9095  -29.2994  -16.5148 C   0  0  0  0  0  0  0  0  0  0  0  0
   22.2859  -30.2980  -17.3804 C   0  0  0  0  0  0  0  0  0  0  0  0
   22.7728  -29.9394  -18.6296 C   0  0  0  0  0  0  0  0  0  0  0  0
   22.8650  -28.6034  -18.9653 C   0  0  0  0  0  0  0  0  0  0  0  0
   22.4918  -27.6150  -18.1073 C   0  0  0  0  0  0  0  0  0  0  0  0
   22.9054  -23.2936  -18.2394 C   0  0  0  0  0  0  0  0  0  0  0  0
   21.7549  -22.7047  -18.7360 O   0  0  0  0  0  0  0  0  0  0  0  0
   23.2732  -22.9880  -17.0720 O   0  0  0  0  0  0  0  0  0  0  0  0
  2  3  1  1
  2  1  1  0
  4  2  1  0
  4  5  1  1
  6  4  1  0
  6  7  2  0
  8  6  1  0
  9 10  1  6
  9  8  1  0
 11 16  1  0
 11 10  1  0
 12 11  2  0
 13 14  2  0
 13 12  1  0
 14 15  1  0
 15 16  2  0
 17  9  1  0
 18 17  2  0
 19 17  1  0
 20 21  1  1
 20 19  1  0
 21 22  1  0
 22 30  1  0
 23 22  2  0
 23 24  1  0
 24 25  1  0
 25 26  1  0
 26 27  2  0
 28 27  1  0
 29 28  2  0
 30 25  2  0
 30 29  1  0
 31 32  1  0
 31 20  1  0
 33 31  2  0
M  END
$$$$
