VFW.pdb
     RDKit          3D

 33 35  0  0  1  0  0  0  0  0999 V2000
   29.8641  -22.4122  -15.6887 C   0  0  0  0  0  0  0  0  0  0  0  0
   28.5536  -22.4062  -16.3888 C   0  0  2  0  0  0  0  0  0  0  0  0
   28.7167  -23.1256  -17.7350 C   0  0  0  0  0  0  0  0  0  0  0  0
   28.0829  -21.0272  -16.6908 C   0  0  2  0  0  0  0  0  0  0  0  0
   29.0008  -20.3150  -17.5451 N   0  0  0  0  0  0  0  0  0  0  0  0
   27.9291  -20.2450  -15.4282 C   0  0  0  0  0  0  0  0  0  0  0  0
   28.7934  -19.4065  -15.0574 O   0  0  0  0  0  0  0  0  0  0  0  0
   26.8055  -20.4034  -14.5805 N   0  0  0  0  0  0  0  0  0  0  0  0
   26.6424  -19.7359  -13.3151 C   0  0  1  0  0  0  0  0  0  0  0  0
   25.7070  -18.5821  -13.3537 C   0  0  0  0  0  0  0  0  0  0  0  0
   26.0684  -17.5028  -14.2734 C   0  0  0  0  0  0  0  0  0  0  0  0
   25.5549  -17.4835  -15.5540 C   0  0  0  0  0  0  0  0  0  0  0  0
   25.8952  -16.4531  -16.4370 C   0  0  0  0  0  0  0  0  0  0  0  0
   26.7563  -15.4332  -16.0361 C   0  0  0  0  0  0  0  0  0  0  0  0
   27.2668  -15.4573  -14.7553 C   0  0  0  0  0  0  0  0  0  0  0  0
   26.9153  -16.4931  -13.8906 C   0  0  0  0  0  0  0  0  0  0  0  0
   26.3643  -20.7078  -12.2175 C   0  0  0  0  0  0  0  0  0  0  0  0
   25.6729  -21.7088  -12.4948 O   0  0  0  0  0  0  0  0  0  0  0  0
   26.8507  -20.5214  -10.9225 N   0  0  0  0  0  0  0  0  0  0  0  0
   26.6619  -21.3911   -9.7828 C   0  0  1  0  0  0  0  0  0  0  0  0
   27.7934  -21.3822   -8.8357 C   0  0  0  0  0  0  0  0  0  0  0  0
   27.6333  -20.3439   -7.7925 C   0  0  0  0  0  0  0  0  0  0  0  0
   26.8638  -19.2000   -7.8223 C   0  0  0  0  0  0  0  0  0  0  0  0
   27.0486  -18.5569   -6.6623 N   0  0  0  0  0  0  0  0  0  0  0  0
   27.9018  -19.2235   -5.8736 C   0  0  0  0  0  0  0  0  0  0  0  0
   28.4101  -18.9789   -4.6001 C   0  0  0  0  0  0  0  0  0  0  0  0
   29.2949  -19.8459   -4.0056 C   0  0  0  0  0  0  0  0  0  0  0  0
   29.6765  -20.9820   -4.7054 C   0  0  0  0  0  0  0  0  0  0  0  0
   29.1625  -21.2081   -5.9667 C   0  0  0  0  0  0  0  0  0  0  0  0
   28.2860  -20.3487   -6.5548 C   0  0  0  0  0  0  0  0  0  0  0  0
   25.3800  -21.1574   -9.0626 C   0  0  0  0  0  0  0  0  0  0  0  0
   24.8754  -21.9697   -8.0613 O   0  0  0  0  0  0  0  0  0  0  0  0
   24.7129  -20.1396   -9.3950 O   0  0  0  0  0  0  0  0  0  0  0  0
  2  3  1  6
  2  1  1  0
  4  2  1  0
  4  5  1  6
  6  4  1  0
  6  7  2  0
  8  6  1  0
  9 10  1  6
  9  8  1  0
 11 16  1  0
 11 10  1  0
 12 11  2  0
 13 14  2  0
 13 12  1  0
 14 15  1  0
 15 16  2  0
 17  9  1  0
 18 17  2  0
 19 17  1  0
 20 21  1  1
 20 19  1  0
 21 22  1  0
 22 30  1  0
 23 22  2  0
 23 24  1  0
 24 25  1  0
 25 26  1  0
 26 27  2  0
 28 27  1  0
 29 28  2  0
 30 25  2  0
 30 29  1  0
 31 32  1  0
 31 20  1  0
 33 31  2  0
M  END
$$$$
