VFW.pdb
     RDKit          3D

 33 35  0  0  1  0  0  0  0  0999 V2000
   27.7104  -19.8613  -17.8099 C   0  0  0  0  0  0  0  0  0  0  0  0
   29.0016  -20.4139  -17.3253 C   0  0  2  0  0  0  0  0  0  0  0  0
   29.6582  -21.1958  -18.4715 C   0  0  0  0  0  0  0  0  0  0  0  0
   28.8180  -21.3703  -16.2002 C   0  0  2  0  0  0  0  0  0  0  0  0
   27.8063  -22.3575  -16.4863 N   0  0  0  0  0  0  0  0  0  0  0  0
   28.4113  -20.6410  -14.9623 C   0  0  0  0  0  0  0  0  0  0  0  0
   29.1767  -19.8155  -14.3965 O   0  0  0  0  0  0  0  0  0  0  0  0
   27.1453  -20.8378  -14.3582 N   0  0  0  0  0  0  0  0  0  0  0  0
   26.6664  -20.1008  -13.2177 C   0  0  1  0  0  0  0  0  0  0  0  0
   25.5865  -19.1300  -13.5322 C   0  0  0  0  0  0  0  0  0  0  0  0
   25.9566  -18.0399  -14.4357 C   0  0  0  0  0  0  0  0  0  0  0  0
   25.5124  -18.0424  -15.7420 C   0  0  0  0  0  0  0  0  0  0  0  0
   25.8612  -17.0019  -16.6097 C   0  0  0  0  0  0  0  0  0  0  0  0
   26.6611  -15.9498  -16.1673 C   0  0  0  0  0  0  0  0  0  0  0  0
   27.1025  -15.9522  -14.8609 C   0  0  0  0  0  0  0  0  0  0  0  0
   26.7436  -16.9986  -14.0121 C   0  0  0  0  0  0  0  0  0  0  0  0
   26.3552  -21.0072  -12.0739 C   0  0  0  0  0  0  0  0  0  0  0  0
   25.8565  -22.1198  -12.3388 O   0  0  0  0  0  0  0  0  0  0  0  0
   26.6055  -20.6419  -10.7502 N   0  0  0  0  0  0  0  0  0  0  0  0
   26.1906  -21.3424   -9.5552 C   0  0  1  0  0  0  0  0  0  0  0  0
   27.2741  -21.5311   -8.5715 C   0  0  0  0  0  0  0  0  0  0  0  0
   27.5328  -20.3000   -7.7908 C   0  0  0  0  0  0  0  0  0  0  0  0
   27.0817  -19.0180   -8.0237 C   0  0  0  0  0  0  0  0  0  0  0  0
   27.5872  -18.2303   -7.0658 N   0  0  0  0  0  0  0  0  0  0  0  0
   28.3477  -18.9336   -6.2165 C   0  0  0  0  0  0  0  0  0  0  0  0
   29.0779  -18.5870   -5.0822 C   0  0  0  0  0  0  0  0  0  0  0  0
   29.7902  -19.5267   -4.3767 C   0  0  0  0  0  0  0  0  0  0  0  0
   29.7678  -20.8416   -4.8203 C   0  0  0  0  0  0  0  0  0  0  0  0
   29.0384  -21.1666   -5.9466 C   0  0  0  0  0  0  0  0  0  0  0  0
   28.3332  -20.2352   -6.6448 C   0  0  0  0  0  0  0  0  0  0  0  0
   24.9937  -20.7454   -8.9014 C   0  0  0  0  0  0  0  0  0  0  0  0
   24.2743  -21.3363   -7.8765 O   0  0  0  0  0  0  0  0  0  0  0  0
   24.6168  -19.6156   -9.3175 O   0  0  0  0  0  0  0  0  0  0  0  0
  2  3  1  6
  2  1  1  0
  4  2  1  0
  4  5  1  6
  6  4  1  0
  6  7  2  0
  8  6  1  0
  9 10  1  6
  9  8  1  0
 11 16  1  0
 11 10  1  0
 12 11  2  0
 13 14  2  0
 13 12  1  0
 14 15  1  0
 15 16  2  0
 17  9  1  0
 18 17  2  0
 19 17  1  0
 20 21  1  1
 20 19  1  0
 21 22  1  0
 22 30  1  0
 23 22  2  0
 23 24  1  0
 24 25  1  0
 25 26  1  0
 26 27  2  0
 28 27  1  0
 29 28  2  0
 30 25  2  0
 30 29  1  0
 31 32  1  0
 31 20  1  0
 33 31  2  0
M  END
$$$$
