VFW.pdb
     RDKit          3D

 33 35  0  0  1  0  0  0  0  0999 V2000
   42.7701  -10.5573   -6.4932 C   0  0  0  0  0  0  0  0  0  0  0  0
   43.9553   -9.6667   -6.5916 C   0  0  2  0  0  0  0  0  0  0  0  0
   45.2163  -10.5392   -6.6620 C   0  0  0  0  0  0  0  0  0  0  0  0
   44.1025   -8.7912   -5.3974 C   0  0  2  0  0  0  0  0  0  0  0  0
   44.1005   -9.5450   -4.1679 N   0  0  0  0  0  0  0  0  0  0  0  0
   42.9805   -7.8079   -5.3353 C   0  0  0  0  0  0  0  0  0  0  0  0
   41.9701   -7.9989   -4.6073 O   0  0  0  0  0  0  0  0  0  0  0  0
   42.9913   -6.6097   -6.0906 N   0  0  0  0  0  0  0  0  0  0  0  0
   41.9332   -5.6331   -6.0794 C   0  0  1  0  0  0  0  0  0  0  0  0
   42.3413   -4.3021   -5.5604 C   0  0  0  0  0  0  0  0  0  0  0  0
   42.6923   -4.2550   -4.1406 C   0  0  0  0  0  0  0  0  0  0  0  0
   41.7133   -4.0408   -3.1921 C   0  0  0  0  0  0  0  0  0  0  0  0
   42.0426   -3.9970   -1.8331 C   0  0  0  0  0  0  0  0  0  0  0  0
   43.3621   -4.1688   -1.4189 C   0  0  0  0  0  0  0  0  0  0  0  0
   44.3368   -4.3825   -2.3708 C   0  0  0  0  0  0  0  0  0  0  0  0
   43.9879   -4.4227   -3.7202 C   0  0  0  0  0  0  0  0  0  0  0  0
   41.2233   -5.5829   -7.3910 C   0  0  0  0  0  0  0  0  0  0  0  0
   41.8734   -5.1994   -8.3845 O   0  0  0  0  0  0  0  0  0  0  0  0
   39.8823   -5.9475   -7.5215 N   0  0  0  0  0  0  0  0  0  0  0  0
   39.0684   -5.8783   -8.7147 C   0  0  1  0  0  0  0  0  0  0  0  0
   37.9838   -6.8781   -8.7519 C   0  0  0  0  0  0  0  0  0  0  0  0
   37.2519   -6.9482   -7.4669 C   0  0  0  0  0  0  0  0  0  0  0  0
   36.6272   -5.9344   -6.7715 C   0  0  0  0  0  0  0  0  0  0  0  0
   36.1156   -6.4654   -5.6535 N   0  0  0  0  0  0  0  0  0  0  0  0
   36.3746   -7.7777   -5.5822 C   0  0  0  0  0  0  0  0  0  0  0  0
   36.0677   -8.7588   -4.6424 C   0  0  0  0  0  0  0  0  0  0  0  0
   36.4644  -10.0628   -4.8157 C   0  0  0  0  0  0  0  0  0  0  0  0
   37.1843  -10.3874   -5.9570 C   0  0  0  0  0  0  0  0  0  0  0  0
   37.4794   -9.4018   -6.8777 C   0  0  0  0  0  0  0  0  0  0  0  0
   37.0860   -8.1103   -6.7052 C   0  0  0  0  0  0  0  0  0  0  0  0
   38.5301   -4.5177   -8.9891 C   0  0  0  0  0  0  0  0  0  0  0  0
   38.0044   -4.1042  -10.2014 O   0  0  0  0  0  0  0  0  0  0  0  0
   38.5570   -3.6881   -8.0391 O   0  0  0  0  0  0  0  0  0  0  0  0
  2  3  1  1
  2  1  1  0
  4  2  1  0
  4  5  1  1
  6  4  1  0
  6  7  2  0
  8  6  1  0
  9 10  1  6
  9  8  1  0
 11 16  1  0
 11 10  1  0
 12 11  2  0
 13 14  2  0
 13 12  1  0
 14 15  1  0
 15 16  2  0
 17  9  1  0
 18 17  2  0
 19 17  1  0
 20 21  1  1
 20 19  1  0
 21 22  1  0
 22 30  1  0
 23 22  2  0
 23 24  1  0
 24 25  1  0
 25 26  1  0
 26 27  2  0
 28 27  1  0
 29 28  2  0
 30 25  2  0
 30 29  1  0
 31 32  1  0
 31 20  1  0
 33 31  2  0
M  END
$$$$
