VFW.pdb
     RDKit          3D

 33 35  0  0  1  0  0  0  0  0999 V2000
   24.7188  -22.2166  -17.5205 C   0  0  0  0  0  0  0  0  0  0  0  0
   25.6916  -21.0954  -17.4558 C   0  0  2  0  0  0  0  0  0  0  0  0
   26.1915  -20.8011  -18.8771 C   0  0  0  0  0  0  0  0  0  0  0  0
   26.8882  -21.4345  -16.6390 C   0  0  2  0  0  0  0  0  0  0  0  0
   27.5295  -22.6444  -17.0916 N   0  0  0  0  0  0  0  0  0  0  0  0
   26.5015  -21.6264  -15.2096 C   0  0  0  0  0  0  0  0  0  0  0  0
   26.4422  -22.7708  -14.6859 O   0  0  0  0  0  0  0  0  0  0  0  0
   26.1805  -20.5341  -14.3669 N   0  0  0  0  0  0  0  0  0  0  0  0
   25.9351  -20.6445  -12.9524 C   0  0  1  0  0  0  0  0  0  0  0  0
   26.9426  -19.9546  -12.1059 C   0  0  0  0  0  0  0  0  0  0  0  0
   26.7292  -20.0488  -10.6613 C   0  0  0  0  0  0  0  0  0  0  0  0
   27.4336  -20.9720   -9.9161 C   0  0  0  0  0  0  0  0  0  0  0  0
   27.2352  -21.0653   -8.5344 C   0  0  0  0  0  0  0  0  0  0  0  0
   26.3247  -20.2280   -7.8922 C   0  0  0  0  0  0  0  0  0  0  0  0
   25.6232  -19.3071   -8.6415 C   0  0  0  0  0  0  0  0  0  0  0  0
   25.8355  -19.2302  -10.0175 C   0  0  0  0  0  0  0  0  0  0  0  0
   24.5219  -20.3037  -12.6156 C   0  0  0  0  0  0  0  0  0  0  0  0
   24.2087  -20.2699  -11.4084 O   0  0  0  0  0  0  0  0  0  0  0  0
   23.5715  -20.0298  -13.6004 N   0  0  0  0  0  0  0  0  0  0  0  0
   22.2031  -20.4946  -13.6499 C   0  0  1  0  0  0  0  0  0  0  0  0
   21.5669  -20.3272  -14.9708 C   0  0  0  0  0  0  0  0  0  0  0  0
   21.7813  -18.9691  -15.5197 C   0  0  0  0  0  0  0  0  0  0  0  0
   22.1610  -17.8197  -14.8591 C   0  0  0  0  0  0  0  0  0  0  0  0
   22.2082  -16.8308  -15.7609 N   0  0  0  0  0  0  0  0  0  0  0  0
   21.8778  -17.2759  -16.9804 C   0  0  0  0  0  0  0  0  0  0  0  0
   21.7771  -16.6576  -18.2244 C   0  0  0  0  0  0  0  0  0  0  0  0
   21.4071  -17.3623  -19.3444 C   0  0  0  0  0  0  0  0  0  0  0  0
   21.1330  -18.7163  -19.2113 C   0  0  0  0  0  0  0  0  0  0  0  0
   21.2381  -19.3123  -17.9704 C   0  0  0  0  0  0  0  0  0  0  0  0
   21.6047  -18.6135  -16.8615 C   0  0  0  0  0  0  0  0  0  0  0  0
   22.0318  -21.8915  -13.1643 C   0  0  0  0  0  0  0  0  0  0  0  0
   21.2105  -22.2698  -12.1158 O   0  0  0  0  0  0  0  0  0  0  0  0
   22.6859  -22.7902  -13.7610 O   0  0  0  0  0  0  0  0  0  0  0  0
  2  3  1  6
  2  1  1  0
  4  2  1  0
  4  5  1  6
  6  4  1  0
  6  7  2  0
  8  6  1  0
  9 10  1  1
  9  8  1  0
 11 16  1  0
 11 10  1  0
 12 11  2  0
 13 14  2  0
 13 12  1  0
 14 15  1  0
 15 16  2  0
 17  9  1  0
 18 17  2  0
 19 17  1  0
 20 21  1  6
 20 19  1  0
 21 22  1  0
 22 30  1  0
 23 22  2  0
 23 24  1  0
 24 25  1  0
 25 26  1  0
 26 27  2  0
 28 27  1  0
 29 28  2  0
 30 25  2  0
 30 29  1  0
 31 32  1  0
 31 20  1  0
 33 31  2  0
M  END
$$$$
