LIP.pdb
     RDKit          3D

 24 24  0  0  1  0  0  0  0  0999 V2000
   19.0542  -12.1591  -20.0026 C   0  0  0  0  0  0  0  0  0  0  0  0
   17.7275  -12.6863  -19.5008 C   0  0  2  0  0  0  0  0  0  0  0  0
   16.6077  -12.4059  -20.4644 C   0  0  0  0  0  0  0  0  0  0  0  0
   17.4368  -12.1719  -18.1063 C   0  0  0  0  0  0  0  0  0  0  0  0
   18.6635  -12.3858  -17.2756 C   0  0  2  0  0  0  0  0  0  0  0  0
   18.5400  -13.6672  -16.6058 N   0  0  0  0  0  0  0  0  0  0  0  0
   18.8810  -11.3112  -16.2761 C   0  0  0  0  0  0  0  0  0  0  0  0
   18.1583  -11.2634  -15.2471 O   0  0  0  0  0  0  0  0  0  0  0  0
   23.3961  -10.6538  -14.1958 C   0  0  0  0  0  0  0  0  0  0  0  0
   21.8744  -10.6590  -14.3932 C   0  0  0  0  0  0  0  0  0  0  0  0
   21.5685   -9.3572  -15.1066 C   0  0  2  0  0  0  0  0  0  0  0  0
   21.9609   -8.2314  -14.1720 C   0  0  0  0  0  0  0  0  0  0  0  0
   20.0779   -9.2465  -15.4647 C   0  0  2  0  0  0  0  0  0  0  0  0
   19.8784  -10.3274  -16.4341 N   0  0  0  0  0  0  0  0  0  0  0  0
   19.7920   -7.9349  -16.0594 C   0  0  0  0  0  0  0  0  0  0  0  0
   20.3549   -7.6765  -17.1783 O   0  0  0  0  0  0  0  0  0  0  0  0
   18.9437   -6.9592  -15.4739 N   0  0  0  0  0  0  0  0  0  0  0  0
   18.2160   -6.9837  -14.2240 C   0  0  0  0  0  0  0  0  0  0  0  0
   16.8404   -6.4744  -14.6802 C   0  0  0  0  0  0  0  0  0  0  0  0
   17.2609   -5.2817  -15.5253 C   0  0  0  0  0  0  0  0  0  0  0  0
   18.6285   -5.6644  -16.0514 C   0  0  1  0  0  0  0  0  0  0  0  0
   19.6462   -4.6440  -15.6787 C   0  0  0  0  0  0  0  0  0  0  0  0
   20.5282   -4.8729  -14.8264 O   0  0  0  0  0  0  0  0  0  0  0  0
   19.6218   -3.4068  -16.2874 O   0  0  0  0  0  0  0  0  0  0  0  0
  2  1  1  6
  2  3  1  0
  4  2  1  0
  5  4  1  0
  5  6  1  1
  7  5  1  0
  7  8  2  0
  9 10  1  0
 10 11  1  0
 11 13  1  0
 11 12  1  1
 13 14  1  6
 13 15  1  0
 14  7  1  0
 15 17  1  0
 16 15  2  0
 17 18  1  0
 17 21  1  0
 18 19  1  0
 19 20  1  0
 21 22  1  1
 21 20  1  0
 22 24  1  0
 23 22  2  0
M  END
$$$$
