LIP.pdb
     RDKit          3D

 24 24  0  0  1  0  0  0  0  0999 V2000
   23.0162  -20.5148  -10.1434 C   0  0  0  0  0  0  0  0  0  0  0  0
   24.0263  -20.9614  -11.1779 C   0  0  2  0  0  0  0  0  0  0  0  0
   23.5988  -22.2224  -11.8767 C   0  0  0  0  0  0  0  0  0  0  0  0
   25.4076  -21.0749  -10.5674 C   0  0  0  0  0  0  0  0  0  0  0  0
   25.8025  -19.7174  -10.0755 C   0  0  2  0  0  0  0  0  0  0  0  0
   25.8267  -18.8131  -11.2101 N   0  0  0  0  0  0  0  0  0  0  0  0
   27.1199  -19.7089   -9.3934 C   0  0  0  0  0  0  0  0  0  0  0  0
   28.1703  -19.5657  -10.0712 O   0  0  0  0  0  0  0  0  0  0  0  0
   28.0045  -17.4839   -4.5189 C   0  0  0  0  0  0  0  0  0  0  0  0
   28.2490  -17.9064   -5.9736 C   0  0  0  0  0  0  0  0  0  0  0  0
   28.3053  -19.4206   -5.9364 C   0  0  2  0  0  0  0  0  0  0  0  0
   29.4431  -19.8038   -5.0125 C   0  0  0  0  0  0  0  0  0  0  0  0
   28.5436  -20.0111   -7.3354 C   0  0  2  0  0  0  0  0  0  0  0  0
   27.2450  -19.8569   -7.9969 N   0  0  0  0  0  0  0  0  0  0  0  0
   28.9279  -21.4245   -7.2338 C   0  0  0  0  0  0  0  0  0  0  0  0
   27.9783  -22.2692   -7.0907 O   0  0  0  0  0  0  0  0  0  0  0  0
   30.2660  -21.8951   -7.2849 N   0  0  0  0  0  0  0  0  0  0  0  0
   31.5114  -21.1625   -7.3545 C   0  0  0  0  0  0  0  0  0  0  0  0
   32.2408  -21.9367   -8.4628 C   0  0  0  0  0  0  0  0  0  0  0  0
   31.9892  -23.3651   -8.0046 C   0  0  0  0  0  0  0  0  0  0  0  0
   30.6669  -23.2909   -7.2699 C   0  0  1  0  0  0  0  0  0  0  0  0
   30.8032  -23.7993   -5.8774 C   0  0  0  0  0  0  0  0  0  0  0  0
   30.8649  -23.0297   -4.8974 O   0  0  0  0  0  0  0  0  0  0  0  0
   30.8638  -25.1588   -5.6539 O   0  0  0  0  0  0  0  0  0  0  0  0
  2  1  1  1
  2  3  1  0
  4  2  1  0
  5  4  1  0
  5  6  1  6
  7  5  1  0
  7  8  2  0
  9 10  1  0
 10 11  1  0
 11 13  1  0
 11 12  1  1
 13 14  1  6
 13 15  1  0
 14  7  1  0
 15 17  1  0
 16 15  2  0
 17 18  1  0
 17 21  1  0
 18 19  1  0
 19 20  1  0
 21 22  1  1
 21 20  1  0
 22 24  1  0
 23 22  2  0
M  END
$$$$
