LIP.pdb
     RDKit          3D

 24 24  0  0  1  0  0  0  0  0999 V2000
   27.9657  -16.3415  -15.6844 C   0  0  0  0  0  0  0  0  0  0  0  0
   28.1156  -17.5965  -16.5165 C   0  0  2  0  0  0  0  0  0  0  0  0
   28.1237  -17.2990  -17.9905 C   0  0  0  0  0  0  0  0  0  0  0  0
   27.0685  -18.6225  -16.1363 C   0  0  0  0  0  0  0  0  0  0  0  0
   27.6555  -19.5042  -15.0787 C   0  0  2  0  0  0  0  0  0  0  0  0
   28.6986  -20.3092  -15.6868 N   0  0  0  0  0  0  0  0  0  0  0  0
   26.6497  -20.3829  -14.4330 C   0  0  0  0  0  0  0  0  0  0  0  0
   26.3966  -21.5099  -14.9320 O   0  0  0  0  0  0  0  0  0  0  0  0
   26.1347  -20.5567   -9.1332 C   0  0  0  0  0  0  0  0  0  0  0  0
   26.1453  -21.0769  -10.5767 C   0  0  0  0  0  0  0  0  0  0  0  0
   24.9026  -20.4876  -11.2134 C   0  0  2  0  0  0  0  0  0  0  0  0
   23.7069  -21.1053  -10.5177 C   0  0  0  0  0  0  0  0  0  0  0  0
   24.8447  -20.7858  -12.7202 C   0  0  2  0  0  0  0  0  0  0  0  0
   25.9558  -20.0017  -13.2663 N   0  0  0  0  0  0  0  0  0  0  0  0
   23.5580  -20.3505  -13.2774 C   0  0  0  0  0  0  0  0  0  0  0  0
   23.3205  -19.0939  -13.2612 O   0  0  0  0  0  0  0  0  0  0  0  0
   22.5842  -21.2281  -13.8215 N   0  0  0  0  0  0  0  0  0  0  0  0
   22.5898  -22.6697  -13.9418 C   0  0  0  0  0  0  0  0  0  0  0  0
   22.1209  -22.8404  -15.3947 C   0  0  0  0  0  0  0  0  0  0  0  0
   20.9431  -21.8781  -15.4130 C   0  0  0  0  0  0  0  0  0  0  0  0
   21.3121  -20.8217  -14.3924 C   0  0  1  0  0  0  0  0  0  0  0  0
   20.2616  -20.7054  -13.3441 C   0  0  0  0  0  0  0  0  0  0  0  0
   20.3922  -21.2279  -12.2186 O   0  0  0  0  0  0  0  0  0  0  0  0
   19.1070  -20.0018  -13.6152 O   0  0  0  0  0  0  0  0  0  0  0  0
  2  1  1  1
  2  3  1  0
  4  2  1  0
  5  4  1  0
  5  6  1  6
  7  5  1  0
  7  8  2  0
  9 10  1  0
 10 11  1  0
 11 13  1  0
 11 12  1  1
 13 14  1  6
 13 15  1  0
 14  7  1  0
 15 17  1  0
 16 15  2  0
 17 18  1  0
 17 21  1  0
 18 19  1  0
 19 20  1  0
 21 22  1  1
 21 20  1  0
 22 24  1  0
 23 22  2  0
M  END
$$$$
