LIP.pdb
     RDKit          3D

 24 24  0  0  1  0  0  0  0  0999 V2000
   20.1287  -22.8873  -15.2089 C   0  0  0  0  0  0  0  0  0  0  0  0
   19.8650  -21.5061  -15.7681 C   0  0  2  0  0  0  0  0  0  0  0  0
   19.5011  -21.5475  -17.2265 C   0  0  0  0  0  0  0  0  0  0  0  0
   21.0294  -20.5798  -15.4856 C   0  0  0  0  0  0  0  0  0  0  0  0
   21.3461  -20.6761  -14.0258 C   0  0  2  0  0  0  0  0  0  0  0  0
   20.3181  -19.9630  -13.2906 N   0  0  0  0  0  0  0  0  0  0  0  0
   22.6828  -20.1299  -13.6856 C   0  0  0  0  0  0  0  0  0  0  0  0
   22.9156  -18.9050  -13.8554 O   0  0  0  0  0  0  0  0  0  0  0  0
   25.2663  -21.0955   -9.2764 C   0  0  0  0  0  0  0  0  0  0  0  0
   24.7862  -20.3650  -10.5375 C   0  0  0  0  0  0  0  0  0  0  0  0
   25.5400  -21.0186  -11.6784 C   0  0  2  0  0  0  0  0  0  0  0  0
   27.0130  -20.7398  -11.4598 C   0  0  0  0  0  0  0  0  0  0  0  0
   25.0969  -20.4609  -13.0405 C   0  0  2  0  0  0  0  0  0  0  0  0
   23.7176  -20.9383  -13.1725 N   0  0  0  0  0  0  0  0  0  0  0  0
   25.9511  -20.9903  -14.1108 C   0  0  0  0  0  0  0  0  0  0  0  0
   25.7708  -22.2135  -14.4378 O   0  0  0  0  0  0  0  0  0  0  0  0
   26.9443  -20.2359  -14.7883 N   0  0  0  0  0  0  0  0  0  0  0  0
   27.5758  -18.9858  -14.4264 C   0  0  0  0  0  0  0  0  0  0  0  0
   27.4958  -18.2250  -15.7585 C   0  0  0  0  0  0  0  0  0  0  0  0
   27.9777  -19.3047  -16.7154 C   0  0  0  0  0  0  0  0  0  0  0  0
   27.5602  -20.6006  -16.0519 C   0  0  1  0  0  0  0  0  0  0  0  0
   28.7332  -21.4932  -15.8438 C   0  0  0  0  0  0  0  0  0  0  0  0
   29.2536  -21.6473  -14.7204 O   0  0  0  0  0  0  0  0  0  0  0  0
   29.2673  -22.1739  -16.9177 O   0  0  0  0  0  0  0  0  0  0  0  0
  2  1  1  6
  2  3  1  0
  4  2  1  0
  5  4  1  0
  5  6  1  1
  7  5  1  0
  7  8  2  0
  9 10  1  0
 10 11  1  0
 11 13  1  0
 11 12  1  1
 13 14  1  6
 13 15  1  0
 14  7  1  0
 15 17  1  0
 16 15  2  0
 17 18  1  0
 17 21  1  0
 18 19  1  0
 19 20  1  0
 21 22  1  1
 21 20  1  0
 22 24  1  0
 23 22  2  0
M  END
$$$$
