LIP.pdb
     RDKit          3D

 24 24  0  0  1  0  0  0  0  0999 V2000
   20.5286  -22.9740  -15.1905 C   0  0  0  0  0  0  0  0  0  0  0  0
   19.8630  -21.6304  -15.3944 C   0  0  2  0  0  0  0  0  0  0  0  0
   19.3055  -21.4814  -16.7830 C   0  0  0  0  0  0  0  0  0  0  0  0
   20.8022  -20.5025  -15.0209 C   0  0  0  0  0  0  0  0  0  0  0  0
   21.3952  -20.8252  -13.6850 C   0  0  2  0  0  0  0  0  0  0  0  0
   20.4685  -20.3847  -12.6589 N   0  0  0  0  0  0  0  0  0  0  0  0
   22.7218  -20.1960  -13.4727 C   0  0  0  0  0  0  0  0  0  0  0  0
   22.8016  -18.9496  -13.3195 O   0  0  0  0  0  0  0  0  0  0  0  0
   25.8776  -21.2381   -9.7114 C   0  0  0  0  0  0  0  0  0  0  0  0
   25.1894  -20.4684  -10.8465 C   0  0  0  0  0  0  0  0  0  0  0  0
   25.8664  -20.9522  -12.1132 C   0  0  2  0  0  0  0  0  0  0  0  0
   27.3274  -20.5631  -12.0168 C   0  0  0  0  0  0  0  0  0  0  0  0
   25.2371  -20.3218  -13.3658 C   0  0  2  0  0  0  0  0  0  0  0  0
   23.9139  -20.9479  -13.4350 N   0  0  0  0  0  0  0  0  0  0  0  0
   26.0406  -20.6360  -14.5537 C   0  0  0  0  0  0  0  0  0  0  0  0
   25.9245  -21.8174  -15.0297 O   0  0  0  0  0  0  0  0  0  0  0  0
   26.9198  -19.7210  -15.1895 N   0  0  0  0  0  0  0  0  0  0  0  0
   27.4539  -18.4608  -14.7215 C   0  0  0  0  0  0  0  0  0  0  0  0
   27.2280  -17.5746  -15.9558 C   0  0  0  0  0  0  0  0  0  0  0  0
   27.7510  -18.4949  -17.0481 C   0  0  0  0  0  0  0  0  0  0  0  0
   27.4929  -19.8882  -16.5135 C   0  0  1  0  0  0  0  0  0  0  0  0
   28.7527  -20.6794  -16.4613 C   0  0  0  0  0  0  0  0  0  0  0  0
   29.2950  -20.9855  -15.3801 O   0  0  0  0  0  0  0  0  0  0  0  0
   29.3453  -21.0907  -17.6366 O   0  0  0  0  0  0  0  0  0  0  0  0
  2  1  1  6
  2  3  1  0
  4  2  1  0
  5  4  1  0
  5  6  1  1
  7  5  1  0
  7  8  2  0
  9 10  1  0
 10 11  1  0
 11 13  1  0
 11 12  1  1
 13 14  1  6
 13 15  1  0
 14  7  1  0
 15 17  1  0
 16 15  2  0
 17 18  1  0
 17 21  1  0
 18 19  1  0
 19 20  1  0
 21 22  1  1
 21 20  1  0
 22 24  1  0
 23 22  2  0
M  END
$$$$
