LIP.pdb
     RDKit          3D

 24 24  0  0  1  0  0  0  0  0999 V2000
   23.8161  -14.9691  -14.5452 C   0  0  0  0  0  0  0  0  0  0  0  0
   24.1450  -15.5331  -15.9104 C   0  0  2  0  0  0  0  0  0  0  0  0
   22.9425  -15.5645  -16.8128 C   0  0  0  0  0  0  0  0  0  0  0  0
   24.8145  -16.8859  -15.7867 C   0  0  0  0  0  0  0  0  0  0  0  0
   25.9347  -16.7530  -14.8028 C   0  0  2  0  0  0  0  0  0  0  0  0
   26.9943  -15.9799  -15.4235 N   0  0  0  0  0  0  0  0  0  0  0  0
   26.4637  -18.0618  -14.3468 C   0  0  0  0  0  0  0  0  0  0  0  0
   27.4039  -18.6075  -14.9804 O   0  0  0  0  0  0  0  0  0  0  0  0
   25.9052  -19.5400   -9.1856 C   0  0  0  0  0  0  0  0  0  0  0  0
   26.6161  -19.4454  -10.5422 C   0  0  0  0  0  0  0  0  0  0  0  0
   25.7939  -20.3115  -11.4754 C   0  0  2  0  0  0  0  0  0  0  0  0
   25.9912  -21.7497  -11.0419 C   0  0  0  0  0  0  0  0  0  0  0  0
   26.2327  -20.1395  -12.9384 C   0  0  2  0  0  0  0  0  0  0  0  0
   25.9487  -18.7289  -13.2165 N   0  0  0  0  0  0  0  0  0  0  0  0
   25.4529  -21.0247  -13.8124 C   0  0  0  0  0  0  0  0  0  0  0  0
   24.2041  -20.7706  -13.9206 O   0  0  0  0  0  0  0  0  0  0  0  0
   25.9964  -22.1229  -14.5286 N   0  0  0  0  0  0  0  0  0  0  0  0
   27.3540  -22.6189  -14.5880 C   0  0  0  0  0  0  0  0  0  0  0  0
   27.5223  -22.8204  -16.1016 C   0  0  0  0  0  0  0  0  0  0  0  0
   26.2208  -23.5383  -16.4246 C   0  0  0  0  0  0  0  0  0  0  0  0
   25.2450  -23.0197  -15.3890 C   0  0  1  0  0  0  0  0  0  0  0  0
   24.6486  -24.1408  -14.6122 C   0  0  0  0  0  0  0  0  0  0  0  0
   23.8052  -24.9133  -15.1107 O   0  0  0  0  0  0  0  0  0  0  0  0
   25.0330  -24.3393  -13.3028 O   0  0  0  0  0  0  0  0  0  0  0  0
  2  1  1  1
  2  3  1  0
  4  2  1  0
  5  4  1  0
  5  6  1  6
  7  5  1  0
  7  8  2  0
  9 10  1  0
 10 11  1  0
 11 13  1  0
 11 12  1  1
 13 14  1  6
 13 15  1  0
 14  7  1  0
 15 17  1  0
 16 15  2  0
 17 18  1  0
 17 21  1  0
 18 19  1  0
 19 20  1  0
 21 22  1  1
 21 20  1  0
 22 24  1  0
 23 22  2  0
M  END
$$$$
