LIP.pdb
     RDKit          3D

 24 24  0  0  1  0  0  0  0  0999 V2000
   25.7998  -17.3941  -18.0919 C   0  0  0  0  0  0  0  0  0  0  0  0
   27.1286  -18.0521  -17.7897 C   0  0  2  0  0  0  0  0  0  0  0  0
   28.2356  -17.5103  -18.6512 C   0  0  0  0  0  0  0  0  0  0  0  0
   27.0134  -19.5599  -17.8714 C   0  0  0  0  0  0  0  0  0  0  0  0
   27.9666  -20.1455  -16.8768 C   0  0  2  0  0  0  0  0  0  0  0  0
   28.8863  -21.0145  -17.5873 N   0  0  0  0  0  0  0  0  0  0  0  0
   27.2858  -20.9029  -15.7981 C   0  0  0  0  0  0  0  0  0  0  0  0
   26.8031  -22.0384  -16.0448 O   0  0  0  0  0  0  0  0  0  0  0  0
   29.3215  -20.8055  -10.9768 C   0  0  0  0  0  0  0  0  0  0  0  0
   28.6088  -21.3737  -12.2112 C   0  0  0  0  0  0  0  0  0  0  0  0
   27.2143  -20.7821  -12.1639 C   0  0  2  0  0  0  0  0  0  0  0  0
   26.5172  -21.3744  -10.9563 C   0  0  0  0  0  0  0  0  0  0  0  0
   26.4202  -21.1060  -13.4395 C   0  0  2  0  0  0  0  0  0  0  0  0
   27.1556  -20.3954  -14.4892 N   0  0  0  0  0  0  0  0  0  0  0  0
   25.0428  -20.6111  -13.3225 C   0  0  0  0  0  0  0  0  0  0  0  0
   24.8955  -19.3473  -13.1927 O   0  0  0  0  0  0  0  0  0  0  0  0
   23.8907  -21.4396  -13.3452 N   0  0  0  0  0  0  0  0  0  0  0  0
   23.7780  -22.8814  -13.3776 C   0  0  0  0  0  0  0  0  0  0  0  0
   22.7186  -23.0642  -14.4749 C   0  0  0  0  0  0  0  0  0  0  0  0
   21.6943  -22.0288  -14.0362 C   0  0  0  0  0  0  0  0  0  0  0  0
   22.5168  -20.9690  -13.3333 C   0  0  1  0  0  0  0  0  0  0  0  0
   22.0308  -20.7544  -11.9427 C   0  0  0  0  0  0  0  0  0  0  0  0
   22.6298  -21.2253  -10.9547 O   0  0  0  0  0  0  0  0  0  0  0  0
   20.8863  -20.0151  -11.7300 O   0  0  0  0  0  0  0  0  0  0  0  0
  2  1  1  6
  2  3  1  0
  4  2  1  0
  5  4  1  0
  5  6  1  6
  7  5  1  0
  7  8  2  0
  9 10  1  0
 10 11  1  0
 11 13  1  0
 11 12  1  1
 13 14  1  6
 13 15  1  0
 14  7  1  0
 15 17  1  0
 16 15  2  0
 17 18  1  0
 17 21  1  0
 18 19  1  0
 19 20  1  0
 21 22  1  1
 21 20  1  0
 22 24  1  0
 23 22  2  0
M  END
$$$$
