LIP.pdb
     RDKit          3D

 24 24  0  0  1  0  0  0  0  0999 V2000
   22.5578  -10.7606  -22.2247 C   0  0  0  0  0  0  0  0  0  0  0  0
   21.1131  -10.9462  -21.8143 C   0  0  2  0  0  0  0  0  0  0  0  0
   20.1677  -10.2250  -22.7347 C   0  0  0  0  0  0  0  0  0  0  0  0
   20.9133  -10.5665  -20.3619 C   0  0  0  0  0  0  0  0  0  0  0  0
   21.8881  -11.3560  -19.5450 C   0  0  2  0  0  0  0  0  0  0  0  0
   21.4532  -12.7403  -19.5328 N   0  0  0  0  0  0  0  0  0  0  0  0
   22.0192  -10.8544  -18.1550 C   0  0  0  0  0  0  0  0  0  0  0  0
   21.2049  -11.2383  -17.2760 O   0  0  0  0  0  0  0  0  0  0  0  0
   26.4353  -11.0743  -15.5689 C   0  0  0  0  0  0  0  0  0  0  0  0
   24.9329  -11.0504  -15.8802 C   0  0  0  0  0  0  0  0  0  0  0  0
   24.5909   -9.5827  -16.0420 C   0  0  2  0  0  0  0  0  0  0  0  0
   24.8763   -8.9076  -14.7161 C   0  0  0  0  0  0  0  0  0  0  0  0
   23.1151   -9.3859  -16.4241 C   0  0  2  0  0  0  0  0  0  0  0  0
   23.0333   -9.9524  -17.7732 N   0  0  0  0  0  0  0  0  0  0  0  0
   22.7735   -7.9580  -16.4217 C   0  0  0  0  0  0  0  0  0  0  0  0
   23.3594   -7.2257  -17.2913 O   0  0  0  0  0  0  0  0  0  0  0  0
   21.8489   -7.3584  -15.5272 N   0  0  0  0  0  0  0  0  0  0  0  0
   21.0195   -7.9550  -14.5031 C   0  0  0  0  0  0  0  0  0  0  0  0
   19.6721   -7.2752  -14.7899 C   0  0  0  0  0  0  0  0  0  0  0  0
   20.1251   -5.8310  -14.9406 C   0  0  0  0  0  0  0  0  0  0  0  0
   21.5435   -5.9401  -15.4603 C   0  0  1  0  0  0  0  0  0  0  0  0
   22.4940   -5.2240  -14.5660 C   0  0  0  0  0  0  0  0  0  0  0  0
   23.2342   -5.8330  -13.7673 O   0  0  0  0  0  0  0  0  0  0  0  0
   22.5657   -3.8477  -14.6143 O   0  0  0  0  0  0  0  0  0  0  0  0
  2  1  1  6
  2  3  1  0
  4  2  1  0
  5  4  1  0
  5  6  1  1
  7  5  1  0
  7  8  2  0
  9 10  1  0
 10 11  1  0
 11 13  1  0
 11 12  1  1
 13 14  1  6
 13 15  1  0
 14  7  1  0
 15 17  1  0
 16 15  2  0
 17 18  1  0
 17 21  1  0
 18 19  1  0
 19 20  1  0
 21 22  1  1
 21 20  1  0
 22 24  1  0
 23 22  2  0
M  END
$$$$
