LIP.pdb
     RDKit          3D

 24 24  0  0  1  0  0  0  0  0999 V2000
   23.0402  -19.8910  -11.1262 C   0  0  0  0  0  0  0  0  0  0  0  0
   24.0371  -20.8458  -11.7464 C   0  0  2  0  0  0  0  0  0  0  0  0
   23.3875  -22.1236  -12.2007 C   0  0  0  0  0  0  0  0  0  0  0  0
   25.2041  -21.0873  -10.8117 C   0  0  0  0  0  0  0  0  0  0  0  0
   25.8735  -19.7710  -10.5671 C   0  0  2  0  0  0  0  0  0  0  0  0
   26.3761  -19.2751  -11.8348 N   0  0  0  0  0  0  0  0  0  0  0  0
   26.9802  -19.8578   -9.5830 C   0  0  0  0  0  0  0  0  0  0  0  0
   28.1413  -20.1416   -9.9763 O   0  0  0  0  0  0  0  0  0  0  0  0
   29.0049  -17.0626   -6.1453 C   0  0  0  0  0  0  0  0  0  0  0  0
   27.5295  -17.3969   -6.4019 C   0  0  0  0  0  0  0  0  0  0  0  0
   27.3973  -18.8679   -6.0615 C   0  0  2  0  0  0  0  0  0  0  0  0
   28.2544  -19.1233   -4.8387 C   0  0  0  0  0  0  0  0  0  0  0  0
   27.8620  -19.7602   -7.2236 C   0  0  2  0  0  0  0  0  0  0  0  0
   26.7816  -19.6322   -8.2055 N   0  0  0  0  0  0  0  0  0  0  0  0
   28.0127  -21.1490   -6.7718 C   0  0  0  0  0  0  0  0  0  0  0  0
   26.9408  -21.8389   -6.6683 O   0  0  0  0  0  0  0  0  0  0  0  0
   29.2553  -21.7552   -6.4508 N   0  0  0  0  0  0  0  0  0  0  0  0
   30.5950  -21.2102   -6.4791 C   0  0  0  0  0  0  0  0  0  0  0  0
   31.3520  -22.3406   -7.1925 C   0  0  0  0  0  0  0  0  0  0  0  0
   30.8192  -23.5447   -6.4311 C   0  0  0  0  0  0  0  0  0  0  0  0
   29.4304  -23.1239   -5.9977 C   0  0  1  0  0  0  0  0  0  0  0  0
   29.2801  -23.2277   -4.5203 C   0  0  0  0  0  0  0  0  0  0  0  0
   29.2256  -22.2173   -3.7904 O   0  0  0  0  0  0  0  0  0  0  0  0
   29.1980  -24.4723   -3.9321 O   0  0  0  0  0  0  0  0  0  0  0  0
  2  1  1  1
  2  3  1  0
  4  2  1  0
  5  4  1  0
  5  6  1  6
  7  5  1  0
  7  8  2  0
  9 10  1  0
 10 11  1  0
 11 13  1  0
 11 12  1  1
 13 14  1  6
 13 15  1  0
 14  7  1  0
 15 17  1  0
 16 15  2  0
 17 18  1  0
 17 21  1  0
 18 19  1  0
 19 20  1  0
 21 22  1  1
 21 20  1  0
 22 24  1  0
 23 22  2  0
M  END
$$$$
