LIP.pdb
     RDKit          3D

 24 24  0  0  1  0  0  0  0  0999 V2000
   24.1578  -22.3608  -11.5281 C   0  0  0  0  0  0  0  0  0  0  0  0
   24.0043  -20.8861  -11.8312 C   0  0  2  0  0  0  0  0  0  0  0  0
   23.8993  -20.6213  -13.3077 C   0  0  0  0  0  0  0  0  0  0  0  0
   25.1080  -20.0840  -11.1738 C   0  0  0  0  0  0  0  0  0  0  0  0
   25.1179  -20.4288   -9.7173 C   0  0  2  0  0  0  0  0  0  0  0  0
   23.9123  -19.8903   -9.1154 N   0  0  0  0  0  0  0  0  0  0  0  0
   26.3130  -19.9106   -9.0073 C   0  0  0  0  0  0  0  0  0  0  0  0
   26.8186  -18.8136   -9.3596 O   0  0  0  0  0  0  0  0  0  0  0  0
   27.5550  -19.0205   -4.0462 C   0  0  0  0  0  0  0  0  0  0  0  0
   27.5853  -18.9626   -5.5793 C   0  0  0  0  0  0  0  0  0  0  0  0
   28.2233  -20.2692   -6.0069 C   0  0  2  0  0  0  0  0  0  0  0  0
   29.6154  -20.3043   -5.4101 C   0  0  0  0  0  0  0  0  0  0  0  0
   28.3057  -20.3828   -7.5376 C   0  0  2  0  0  0  0  0  0  0  0  0
   26.9141  -20.6068   -7.9387 N   0  0  0  0  0  0  0  0  0  0  0  0
   29.1613  -21.5129   -7.9200 C   0  0  0  0  0  0  0  0  0  0  0  0
   28.6729  -22.6838   -7.7581 O   0  0  0  0  0  0  0  0  0  0  0  0
   30.4720  -21.3808   -8.4484 N   0  0  0  0  0  0  0  0  0  0  0  0
   31.2867  -20.2010   -8.6405 C   0  0  0  0  0  0  0  0  0  0  0  0
   31.7998  -20.4334  -10.0696 C   0  0  0  0  0  0  0  0  0  0  0  0
   32.2250  -21.8904   -9.9701 C   0  0  0  0  0  0  0  0  0  0  0  0
   31.3014  -22.4750   -8.9218 C   0  0  1  0  0  0  0  0  0  0  0  0
   32.0790  -23.0848   -7.8085 C   0  0  0  0  0  0  0  0  0  0  0  0
   32.1704  -22.5378   -6.6909 O   0  0  0  0  0  0  0  0  0  0  0  0
   32.7207  -24.2890   -8.0086 O   0  0  0  0  0  0  0  0  0  0  0  0
  2  1  1  6
  2  3  1  0
  4  2  1  0
  5  4  1  0
  5  6  1  1
  7  5  1  0
  7  8  2  0
  9 10  1  0
 10 11  1  0
 11 13  1  0
 11 12  1  1
 13 14  1  1
 13 15  1  0
 14  7  1  0
 15 17  1  0
 16 15  2  0
 17 18  1  0
 17 21  1  0
 18 19  1  0
 19 20  1  0
 21 22  1  1
 21 20  1  0
 22 24  1  0
 23 22  2  0
M  END
$$$$
