LIP.pdb
     RDKit          3D

 24 24  0  0  1  0  0  0  0  0999 V2000
   24.4865  -22.5522  -11.1168 C   0  0  0  0  0  0  0  0  0  0  0  0
   24.8045  -21.1804  -11.6712 C   0  0  2  0  0  0  0  0  0  0  0  0
   25.0944  -21.2210  -13.1461 C   0  0  0  0  0  0  0  0  0  0  0  0
   25.9152  -20.5238  -10.8782 C   0  0  0  0  0  0  0  0  0  0  0  0
   25.4242  -20.3312   -9.4774 C   0  0  2  0  0  0  0  0  0  0  0  0
   24.2933  -19.4227   -9.5140 N   0  0  0  0  0  0  0  0  0  0  0  0
   26.4681  -19.8033   -8.5649 C   0  0  0  0  0  0  0  0  0  0  0  0
   26.8945  -18.6298   -8.7205 O   0  0  0  0  0  0  0  0  0  0  0  0
   28.2363  -18.3453   -4.2319 C   0  0  0  0  0  0  0  0  0  0  0  0
   27.2556  -19.3105   -4.9110 C   0  0  0  0  0  0  0  0  0  0  0  0
   28.1199  -20.4376   -5.4399 C   0  0  2  0  0  0  0  0  0  0  0  0
   29.4490  -20.3598   -4.7169 C   0  0  0  0  0  0  0  0  0  0  0  0
   28.3396  -20.3165   -6.9563 C   0  0  2  0  0  0  0  0  0  0  0  0
   27.0097  -20.5737   -7.5156 N   0  0  0  0  0  0  0  0  0  0  0  0
   29.3141  -21.3157   -7.4120 C   0  0  0  0  0  0  0  0  0  0  0  0
   28.9732  -22.5433   -7.3000 O   0  0  0  0  0  0  0  0  0  0  0  0
   30.5858  -21.0015   -7.9584 N   0  0  0  0  0  0  0  0  0  0  0  0
   31.2512  -19.7250   -8.1008 C   0  0  0  0  0  0  0  0  0  0  0  0
   31.7500  -19.8191   -9.5507 C   0  0  0  0  0  0  0  0  0  0  0  0
   32.3455  -21.2186   -9.5410 C   0  0  0  0  0  0  0  0  0  0  0  0
   31.5249  -21.9631   -8.5085 C   0  0  1  0  0  0  0  0  0  0  0  0
   32.3979  -22.5345   -7.4467 C   0  0  0  0  0  0  0  0  0  0  0  0
   32.3983  -22.0875   -6.2819 O   0  0  0  0  0  0  0  0  0  0  0  0
   33.2338  -23.5886   -7.7496 O   0  0  0  0  0  0  0  0  0  0  0  0
  2  1  1  1
  2  3  1  0
  4  2  1  0
  5  4  1  0
  5  6  1  6
  7  5  1  0
  7  8  2  0
  9 10  1  0
 10 11  1  0
 11 13  1  0
 11 12  1  1
 13 14  1  6
 13 15  1  0
 14  7  1  0
 15 17  1  0
 16 15  2  0
 17 18  1  0
 17 21  1  0
 18 19  1  0
 19 20  1  0
 21 22  1  1
 21 20  1  0
 22 24  1  0
 23 22  2  0
M  END
$$$$
