DQW.pdb
     RDKit          3D

 32 33  0  0  1  0  0  0  0  0999 V2000
    8.1759  -19.1067   20.9051 N   0  0  0  0  0  0  0  0  0  0  0  0
    9.5001  -18.8392   20.3834 C   0  0  1  0  0  0  0  0  0  0  0  0
    9.5099  -19.1149   18.9144 C   0  0  0  0  0  0  0  0  0  0  0  0
    9.1691  -20.5315   18.6154 C   0  0  0  0  0  0  0  0  0  0  0  0
    9.4462  -21.3797   19.5009 O   0  0  0  0  0  0  0  0  0  0  0  0
    9.8837  -17.4175   20.6417 C   0  0  0  0  0  0  0  0  0  0  0  0
   10.9666  -16.9549   20.2476 O   0  0  0  0  0  0  0  0  0  0  0  0
    8.5759  -20.9123   17.4225 O   0  0  0  0  0  0  0  0  0  0  0  0
    8.6426  -12.4824   19.2733 N   0  0  0  0  0  0  0  0  0  0  0  0
    7.7683  -13.5469   19.0041 C   0  0  0  0  0  0  0  0  0  0  0  0
    7.2646  -13.6455   17.8570 O   0  0  0  0  0  0  0  0  0  0  0  0
    7.4163  -14.5598   20.0172 C   0  0  0  0  0  0  0  0  0  0  0  0
    8.0007  -14.3325   21.3605 C   0  0  0  0  0  0  0  0  0  0  0  0
    9.1925  -15.2081   21.6987 C   0  0  2  0  0  0  0  0  0  0  0  0
    8.9846  -16.5975   21.3506 N   0  0  0  0  0  0  0  0  0  0  0  0
    9.5014  -15.0421   23.1255 C   0  0  0  0  0  0  0  0  0  0  0  0
    9.7978  -13.9277   23.5788 O   0  0  0  0  0  0  0  0  0  0  0  0
    9.4568  -16.1678   23.9900 N   0  0  0  0  0  0  0  0  0  0  0  0
    9.9464  -16.0890   25.3422 C   0  0  1  0  0  0  0  0  0  0  0  0
    8.8620  -16.2571   26.3328 C   0  0  0  0  0  0  0  0  0  0  0  0
    7.6548  -15.4847   26.0084 C   0  0  0  0  0  0  0  0  0  0  0  0
    6.4387  -15.8130   25.4722 C   0  0  0  0  0  0  0  0  0  0  0  0
    5.6564  -14.7037   25.3600 N   0  0  0  0  0  0  0  0  0  0  0  0
    6.3553  -13.6527   25.8195 C   0  0  0  0  0  0  0  0  0  0  0  0
    6.0640  -12.2893   25.9402 C   0  0  0  0  0  0  0  0  0  0  0  0
    6.9860  -11.4036   26.4535 C   0  0  0  0  0  0  0  0  0  0  0  0
    8.2294  -11.8708   26.8603 C   0  0  0  0  0  0  0  0  0  0  0  0
    8.4917  -13.1947   26.7352 C   0  0  0  0  0  0  0  0  0  0  0  0
    7.5893  -14.1113   26.2236 C   0  0  0  0  0  0  0  0  0  0  0  0
   11.0725  -17.0530   25.5660 C   0  0  0  0  0  0  0  0  0  0  0  0
   11.7309  -17.0719   26.7616 O   0  0  0  0  0  0  0  0  0  0  0  0
   11.4149  -17.8487   24.6569 O   0  0  0  0  0  0  0  0  0  0  0  0
  2  1  1  6
  2  6  1  0
  3  4  1  0
  3  2  1  0
  4  5  2  0
  6  7  2  0
  8  4  1  0
 10 11  2  0
 10  9  1  0
 12 10  1  0
 13 12  1  0
 14 13  1  1
 14 16  1  0
 15  6  1  0
 15 14  1  0
 16 17  2  0
 18 16  1  0
 19 30  1  0
 19 18  1  0
 19 20  1  1
 21 20  1  0
 21 29  1  0
 22 23  1  0
 22 21  2  0
 23 24  1  0
 24 29  2  0
 24 25  1  0
 25 26  2  0
 26 27  1  0
 28 27  2  0
 29 28  1  0
 30 31  1  0
 32 30  2  0
M  END
$$$$
