DQW.pdb
     RDKit          3D

 32 33  0  0  1  0  0  0  0  0999 V2000
   10.2235  -17.1853   19.3839 N   0  0  0  0  0  0  0  0  0  0  0  0
    9.0416  -17.1560   20.2201 C   0  0  1  0  0  0  0  0  0  0  0  0
    8.0292  -18.1059   19.6661 C   0  0  0  0  0  0  0  0  0  0  0  0
    7.0057  -17.4061   18.8447 C   0  0  0  0  0  0  0  0  0  0  0  0
    7.4270  -16.5658   18.0100 O   0  0  0  0  0  0  0  0  0  0  0  0
    9.3879  -17.5355   21.6240 C   0  0  0  0  0  0  0  0  0  0  0  0
    8.7527  -18.4095   22.2362 O   0  0  0  0  0  0  0  0  0  0  0  0
    5.6500  -17.6573   18.9829 O   0  0  0  0  0  0  0  0  0  0  0  0
   14.2845  -18.3559   20.1953 N   0  0  0  0  0  0  0  0  0  0  0  0
   14.3550  -18.0778   21.5692 C   0  0  0  0  0  0  0  0  0  0  0  0
   15.3780  -17.5059   22.0226 O   0  0  0  0  0  0  0  0  0  0  0  0
   13.2717  -18.4302   22.5063 C   0  0  0  0  0  0  0  0  0  0  0  0
   12.6853  -17.2869   23.2456 C   0  0  0  0  0  0  0  0  0  0  0  0
   11.1794  -17.3400   23.4208 C   0  0  2  0  0  0  0  0  0  0  0  0
   10.4620  -16.8763   22.2524 N   0  0  0  0  0  0  0  0  0  0  0  0
   10.8236  -16.5717   24.6217 C   0  0  0  0  0  0  0  0  0  0  0  0
   11.0546  -15.3559   24.6810 O   0  0  0  0  0  0  0  0  0  0  0  0
   10.2081  -17.2287   25.7199 N   0  0  0  0  0  0  0  0  0  0  0  0
   10.0075  -16.5526   26.9756 C   0  0  1  0  0  0  0  0  0  0  0  0
    8.5858  -16.5514   27.3812 C   0  0  0  0  0  0  0  0  0  0  0  0
    7.7366  -15.7204   26.5167 C   0  0  0  0  0  0  0  0  0  0  0  0
    6.8540  -16.0005   25.5084 C   0  0  0  0  0  0  0  0  0  0  0  0
    6.3260  -14.8488   25.0086 N   0  0  0  0  0  0  0  0  0  0  0  0
    6.8593  -13.8181   25.6849 C   0  0  0  0  0  0  0  0  0  0  0  0
    6.6935  -12.4311   25.6014 C   0  0  0  0  0  0  0  0  0  0  0  0
    7.3840  -11.5768   26.4330 C   0  0  0  0  0  0  0  0  0  0  0  0
    8.2622  -12.1003   27.3735 C   0  0  0  0  0  0  0  0  0  0  0  0
    8.4084  -13.4461   27.4383 C   0  0  0  0  0  0  0  0  0  0  0  0
    7.7312  -14.3324   26.6184 C   0  0  0  0  0  0  0  0  0  0  0  0
   10.8999  -17.1154   28.0408 C   0  0  0  0  0  0  0  0  0  0  0  0
   10.9979  -16.4933   29.2518 O   0  0  0  0  0  0  0  0  0  0  0  0
   11.5600  -18.1618   27.8259 O   0  0  0  0  0  0  0  0  0  0  0  0
  2  1  1  6
  2  6  1  0
  3  4  1  0
  3  2  1  0
  4  5  2  0
  6  7  2  0
  8  4  1  0
 10 11  2  0
 10  9  1  0
 12 10  1  0
 13 12  1  0
 14 13  1  6
 14 16  1  0
 15  6  1  0
 15 14  1  0
 16 17  2  0
 18 16  1  0
 19 30  1  0
 19 18  1  0
 19 20  1  1
 21 20  1  0
 21 29  1  0
 22 23  1  0
 22 21  2  0
 23 24  1  0
 24 29  2  0
 24 25  1  0
 25 26  2  0
 26 27  1  0
 28 27  2  0
 29 28  1  0
 30 31  1  0
 32 30  2  0
M  END
$$$$
