DQW.pdb
     RDKit          3D

 32 33  0  0  1  0  0  0  0  0999 V2000
    9.6680  -15.5252   18.1123 N   0  0  0  0  0  0  0  0  0  0  0  0
    9.0773  -14.4996   18.9467 C   0  0  1  0  0  0  0  0  0  0  0  0
    8.0404  -13.7671   18.1579 C   0  0  0  0  0  0  0  0  0  0  0  0
    8.2992  -13.8475   16.6954 C   0  0  0  0  0  0  0  0  0  0  0  0
    7.4757  -13.2692   15.9419 O   0  0  0  0  0  0  0  0  0  0  0  0
    8.4604  -15.1103   20.1639 C   0  0  0  0  0  0  0  0  0  0  0  0
    7.2516  -15.3914   20.2081 O   0  0  0  0  0  0  0  0  0  0  0  0
    9.3904  -14.5244   16.1747 O   0  0  0  0  0  0  0  0  0  0  0  0
   10.2076  -20.4626   20.6540 N   0  0  0  0  0  0  0  0  0  0  0  0
    9.3817  -20.2979   21.7768 C   0  0  0  0  0  0  0  0  0  0  0  0
    8.7905  -21.3009   22.2497 O   0  0  0  0  0  0  0  0  0  0  0  0
    9.1798  -18.9897   22.4278 C   0  0  0  0  0  0  0  0  0  0  0  0
    9.4460  -17.8129   21.5665 C   0  0  0  0  0  0  0  0  0  0  0  0
    9.1446  -16.4696   22.2036 C   0  0  2  0  0  0  0  0  0  0  0  0
    9.2833  -15.3658   21.2777 N   0  0  0  0  0  0  0  0  0  0  0  0
   10.0097  -16.3084   23.3802 C   0  0  0  0  0  0  0  0  0  0  0  0
   11.2167  -16.0637   23.2439 O   0  0  0  0  0  0  0  0  0  0  0  0
    9.4561  -16.4316   24.6821 N   0  0  0  0  0  0  0  0  0  0  0  0
   10.2599  -16.2152   25.8574 C   0  0  1  0  0  0  0  0  0  0  0  0
    9.5494  -15.4073   26.8713 C   0  0  0  0  0  0  0  0  0  0  0  0
    8.1438  -15.1510   26.5281 C   0  0  0  0  0  0  0  0  0  0  0  0
    7.0934  -15.9578   26.1819 C   0  0  0  0  0  0  0  0  0  0  0  0
    5.9808  -15.2093   25.9430 N   0  0  0  0  0  0  0  0  0  0  0  0
    6.2992  -13.9180   26.1309 C   0  0  0  0  0  0  0  0  0  0  0  0
    5.5704  -12.7281   26.0254 C   0  0  0  0  0  0  0  0  0  0  0  0
    6.1559  -11.5062   26.2748 C   0  0  0  0  0  0  0  0  0  0  0  0
    7.4955  -11.4519   26.6387 C   0  0  0  0  0  0  0  0  0  0  0  0
    8.1836  -12.6156   26.7354 C   0  0  0  0  0  0  0  0  0  0  0  0
    7.6270  -13.8593   26.4914 C   0  0  0  0  0  0  0  0  0  0  0  0
   10.7600  -17.5134   26.4163 C   0  0  0  0  0  0  0  0  0  0  0  0
   11.7020  -17.5164   27.4041 O   0  0  0  0  0  0  0  0  0  0  0  0
   10.3146  -18.6036   25.9808 O   0  0  0  0  0  0  0  0  0  0  0  0
  2  1  1  6
  2  6  1  0
  3  4  1  0
  3  2  1  0
  4  5  2  0
  6  7  2  0
  8  4  1  0
 10 11  2  0
 10  9  1  0
 12 10  1  0
 13 12  1  0
 14 13  1  6
 14 16  1  0
 15  6  1  0
 15 14  1  0
 16 17  2  0
 18 16  1  0
 19 30  1  0
 19 18  1  0
 19 20  1  1
 21 20  1  0
 21 29  1  0
 22 23  1  0
 22 21  2  0
 23 24  1  0
 24 29  2  0
 24 25  1  0
 25 26  2  0
 26 27  1  0
 28 27  2  0
 29 28  1  0
 30 31  1  0
 32 30  2  0
M  END
$$$$
