DQW.pdb
     RDKit          3D

 32 33  0  0  1  0  0  0  0  0999 V2000
    9.1711  -16.1418   17.9491 N   0  0  0  0  0  0  0  0  0  0  0  0
    8.6831  -14.9926   18.6827 C   0  0  1  0  0  0  0  0  0  0  0  0
    7.4438  -14.4824   18.0210 C   0  0  0  0  0  0  0  0  0  0  0  0
    7.7125  -14.0020   16.6393 C   0  0  0  0  0  0  0  0  0  0  0  0
    8.0437  -14.8698   15.7922 O   0  0  0  0  0  0  0  0  0  0  0  0
    8.3918  -15.3658   20.1008 C   0  0  0  0  0  0  0  0  0  0  0  0
    7.9108  -14.5482   20.9021 O   0  0  0  0  0  0  0  0  0  0  0  0
    7.6077  -12.6655   16.2887 O   0  0  0  0  0  0  0  0  0  0  0  0
    8.0082  -21.6070   21.5879 N   0  0  0  0  0  0  0  0  0  0  0  0
    9.2565  -21.0018   21.8013 C   0  0  0  0  0  0  0  0  0  0  0  0
   10.2659  -21.7315   21.9683 O   0  0  0  0  0  0  0  0  0  0  0  0
    9.4324  -19.5376   21.8363 C   0  0  0  0  0  0  0  0  0  0  0  0
    8.1765  -18.7532   21.7656 C   0  0  0  0  0  0  0  0  0  0  0  0
    8.3562  -17.2477   21.8136 C   0  0  2  0  0  0  0  0  0  0  0  0
    8.6761  -16.6794   20.5214 N   0  0  0  0  0  0  0  0  0  0  0  0
    9.3816  -16.9336   22.8181 C   0  0  0  0  0  0  0  0  0  0  0  0
   10.5841  -16.9746   22.5224 O   0  0  0  0  0  0  0  0  0  0  0  0
    8.9893  -16.5781   24.1357 N   0  0  0  0  0  0  0  0  0  0  0  0
    9.9675  -16.2709   25.1473 C   0  0  1  0  0  0  0  0  0  0  0  0
    9.6393  -15.0250   25.8723 C   0  0  0  0  0  0  0  0  0  0  0  0
    8.2026  -14.7171   25.8761 C   0  0  0  0  0  0  0  0  0  0  0  0
    7.0721  -15.4813   25.7663 C   0  0  0  0  0  0  0  0  0  0  0  0
    5.9621  -14.6935   25.8150 N   0  0  0  0  0  0  0  0  0  0  0  0
    6.3617  -13.4189   25.9554 C   0  0  0  0  0  0  0  0  0  0  0  0
    5.6715  -12.2055   26.0546 C   0  0  0  0  0  0  0  0  0  0  0  0
    6.3425  -11.0100   26.1903 C   0  0  0  0  0  0  0  0  0  0  0  0
    7.7312  -11.0065   26.2300 C   0  0  0  0  0  0  0  0  0  0  0  0
    8.3806  -12.1921   26.1325 C   0  0  0  0  0  0  0  0  0  0  0  0
    7.7381  -13.4105   25.9949 C   0  0  0  0  0  0  0  0  0  0  0  0
   10.1670  -17.4309   26.0758 C   0  0  0  0  0  0  0  0  0  0  0  0
   11.2249  -17.4441   26.9382 O   0  0  0  0  0  0  0  0  0  0  0  0
    9.3623  -18.3948   26.0667 O   0  0  0  0  0  0  0  0  0  0  0  0
  2  1  1  6
  2  6  1  0
  3  4  1  0
  3  2  1  0
  4  5  2  0
  6  7  2  0
  8  4  1  0
 10 11  2  0
 10  9  1  0
 12 10  1  0
 13 12  1  0
 14 13  1  6
 14 16  1  0
 15  6  1  0
 15 14  1  0
 16 17  2  0
 18 16  1  0
 19 30  1  0
 19 18  1  0
 19 20  1  1
 21 20  1  0
 21 29  1  0
 22 23  1  0
 22 21  2  0
 23 24  1  0
 24 29  2  0
 24 25  1  0
 25 26  2  0
 26 27  1  0
 28 27  2  0
 29 28  1  0
 30 31  1  0
 32 30  2  0
M  END
$$$$
