DQW.pdb
     RDKit          3D

 32 33  0  0  1  0  0  0  0  0999 V2000
    9.7275  -16.0843   17.7106 N   0  0  0  0  0  0  0  0  0  0  0  0
    9.2203  -14.9688   18.4823 C   0  0  1  0  0  0  0  0  0  0  0  0
    8.0216  -14.4034   17.7915 C   0  0  0  0  0  0  0  0  0  0  0  0
    8.3607  -13.8654   16.4470 C   0  0  0  0  0  0  0  0  0  0  0  0
    8.8685  -14.6709   15.6262 O   0  0  0  0  0  0  0  0  0  0  0  0
    8.8557  -15.4137   19.8623 C   0  0  0  0  0  0  0  0  0  0  0  0
    8.2799  -14.6546   20.6587 O   0  0  0  0  0  0  0  0  0  0  0  0
    8.1346  -12.5424   16.1024 O   0  0  0  0  0  0  0  0  0  0  0  0
    9.0374  -21.7005   21.1627 N   0  0  0  0  0  0  0  0  0  0  0  0
    8.2872  -20.9417   20.2508 C   0  0  0  0  0  0  0  0  0  0  0  0
    7.6542  -21.5347   19.3415 O   0  0  0  0  0  0  0  0  0  0  0  0
    8.2105  -19.4701   20.3178 C   0  0  0  0  0  0  0  0  0  0  0  0
    8.9107  -18.8575   21.4720 C   0  0  0  0  0  0  0  0  0  0  0  0
    8.8605  -17.3422   21.5228 C   0  0  2  0  0  0  0  0  0  0  0  0
    9.1805  -16.7273   20.2522 N   0  0  0  0  0  0  0  0  0  0  0  0
    9.7558  -16.8829   22.5935 C   0  0  0  0  0  0  0  0  0  0  0  0
   10.9642  -16.7185   22.3747 O   0  0  0  0  0  0  0  0  0  0  0  0
    9.2299  -16.6235   23.8868 N   0  0  0  0  0  0  0  0  0  0  0  0
   10.0789  -16.1757   24.9605 C   0  0  1  0  0  0  0  0  0  0  0  0
    9.6713  -14.8491   25.4702 C   0  0  0  0  0  0  0  0  0  0  0  0
    8.2292  -14.7464   25.7326 C   0  0  0  0  0  0  0  0  0  0  0  0
    7.2082  -15.6576   25.7693 C   0  0  0  0  0  0  0  0  0  0  0  0
    6.0292  -15.0357   26.0493 N   0  0  0  0  0  0  0  0  0  0  0  0
    6.2748  -13.7233   26.1951 C   0  0  0  0  0  0  0  0  0  0  0  0
    5.4580  -12.6231   26.4793 C   0  0  0  0  0  0  0  0  0  0  0  0
    5.9780  -11.3506   26.5703 C   0  0  0  0  0  0  0  0  0  0  0  0
    7.3395  -11.1534   26.3769 C   0  0  0  0  0  0  0  0  0  0  0  0
    8.1132  -12.2320   26.1029 C   0  0  0  0  0  0  0  0  0  0  0  0
    7.6237  -13.5230   26.0038 C   0  0  0  0  0  0  0  0  0  0  0  0
   10.1575  -17.2017   26.0508 C   0  0  0  0  0  0  0  0  0  0  0  0
   11.1097  -17.0966   27.0232 O   0  0  0  0  0  0  0  0  0  0  0  0
    9.3480  -18.1613   26.0768 O   0  0  0  0  0  0  0  0  0  0  0  0
  2  1  1  6
  2  6  1  0
  3  4  1  0
  3  2  1  0
  4  5  2  0
  6  7  2  0
  8  4  1  0
 10 11  2  0
 10  9  1  0
 12 10  1  0
 13 12  1  0
 14 13  1  6
 14 16  1  0
 15  6  1  0
 15 14  1  0
 16 17  2  0
 18 16  1  0
 19 30  1  0
 19 18  1  0
 19 20  1  1
 21 20  1  0
 21 29  1  0
 22 23  1  0
 22 21  2  0
 23 24  1  0
 24 29  2  0
 24 25  1  0
 25 26  2  0
 26 27  1  0
 28 27  2  0
 29 28  1  0
 30 31  1  0
 32 30  2  0
M  END
$$$$
