DQW.pdb
     RDKit          3D

 32 33  0  0  1  0  0  0  0  0999 V2000
   11.6164  -19.0455   19.5574 N   0  0  0  0  0  0  0  0  0  0  0  0
   10.6260  -18.0020   19.3921 C   0  0  1  0  0  0  0  0  0  0  0  0
    9.6951  -18.3843   18.2870 C   0  0  0  0  0  0  0  0  0  0  0  0
    8.6888  -17.3223   18.0194 C   0  0  0  0  0  0  0  0  0  0  0  0
    8.7961  -16.2601   18.6830 O   0  0  0  0  0  0  0  0  0  0  0  0
    9.8620  -17.8039   20.6618 C   0  0  0  0  0  0  0  0  0  0  0  0
    9.0330  -16.8875   20.7850 O   0  0  0  0  0  0  0  0  0  0  0  0
    7.6759  -17.4827   17.0875 O   0  0  0  0  0  0  0  0  0  0  0  0
    9.0001  -22.6477   24.7189 N   0  0  0  0  0  0  0  0  0  0  0  0
   10.2760  -22.1502   24.4112 C   0  0  0  0  0  0  0  0  0  0  0  0
   11.2807  -22.8703   24.6374 O   0  0  0  0  0  0  0  0  0  0  0  0
   10.4860  -20.8110   23.8294 C   0  0  0  0  0  0  0  0  0  0  0  0
    9.2533  -20.0101   23.6379 C   0  0  0  0  0  0  0  0  0  0  0  0
    9.4685  -18.6349   23.0348 C   0  0  2  0  0  0  0  0  0  0  0  0
   10.1005  -18.6856   21.7337 N   0  0  0  0  0  0  0  0  0  0  0  0
   10.2411  -17.8252   23.9868 C   0  0  0  0  0  0  0  0  0  0  0  0
   11.4617  -17.6739   23.8373 O   0  0  0  0  0  0  0  0  0  0  0  0
    9.5817  -17.2104   25.0840 N   0  0  0  0  0  0  0  0  0  0  0  0
   10.3244  -16.5318   26.1147 C   0  0  1  0  0  0  0  0  0  0  0  0
    9.8457  -15.1483   26.3203 C   0  0  0  0  0  0  0  0  0  0  0  0
    8.3869  -15.0157   26.2037 C   0  0  0  0  0  0  0  0  0  0  0  0
    7.3615  -15.9167   26.0995 C   0  0  0  0  0  0  0  0  0  0  0  0
    6.1688  -15.2664   26.0005 N   0  0  0  0  0  0  0  0  0  0  0  0
    6.4100  -13.9457   26.0390 C   0  0  0  0  0  0  0  0  0  0  0  0
    5.5814  -12.8198   25.9745 C   0  0  0  0  0  0  0  0  0  0  0  0
    6.1007  -11.5451   26.0331 C   0  0  0  0  0  0  0  0  0  0  0  0
    7.4733  -11.3716   26.1591 C   0  0  0  0  0  0  0  0  0  0  0  0
    8.2583  -12.4748   26.2201 C   0  0  0  0  0  0  0  0  0  0  0  0
    7.7699  -13.7688   26.1635 C   0  0  0  0  0  0  0  0  0  0  0  0
   10.3299  -17.3243   27.3873 C   0  0  0  0  0  0  0  0  0  0  0  0
   11.1583  -16.9688   28.4123 O   0  0  0  0  0  0  0  0  0  0  0  0
    9.5724  -18.3172   27.5181 O   0  0  0  0  0  0  0  0  0  0  0  0
  2  1  1  1
  2  6  1  0
  3  4  1  0
  3  2  1  0
  4  5  2  0
  6  7  2  0
  8  4  1  0
 10 11  2  0
 10  9  1  0
 12 10  1  0
 13 12  1  0
 14 13  1  1
 14 16  1  0
 15  6  1  0
 15 14  1  0
 16 17  2  0
 18 16  1  0
 19 30  1  0
 19 18  1  0
 19 20  1  1
 21 20  1  0
 21 29  1  0
 22 23  1  0
 22 21  2  0
 23 24  1  0
 24 29  2  0
 24 25  1  0
 25 26  2  0
 26 27  1  0
 28 27  2  0
 29 28  1  0
 30 31  1  0
 32 30  2  0
M  END
$$$$
