DQW.pdb
     RDKit          3D

 32 33  0  0  1  0  0  0  0  0999 V2000
    9.3646  -17.5893   19.2955 N   0  0  0  0  0  0  0  0  0  0  0  0
    9.2733  -16.4349   20.1651 C   0  0  1  0  0  0  0  0  0  0  0  0
    8.0409  -15.6622   19.8213 C   0  0  0  0  0  0  0  0  0  0  0  0
    8.0834  -15.1451   18.4274 C   0  0  0  0  0  0  0  0  0  0  0  0
    9.0939  -15.4451   17.7425 O   0  0  0  0  0  0  0  0  0  0  0  0
    9.2280  -16.8639   21.5965 C   0  0  0  0  0  0  0  0  0  0  0  0
    8.2207  -16.6788   22.2987 O   0  0  0  0  0  0  0  0  0  0  0  0
    7.0660  -14.3682   17.8967 O   0  0  0  0  0  0  0  0  0  0  0  0
   14.1758  -20.1983   24.6890 N   0  0  0  0  0  0  0  0  0  0  0  0
   12.8894  -20.5643   25.1149 C   0  0  0  0  0  0  0  0  0  0  0  0
   12.7255  -21.6825   25.6642 O   0  0  0  0  0  0  0  0  0  0  0  0
   11.7174  -19.6849   24.9442 C   0  0  0  0  0  0  0  0  0  0  0  0
   11.6191  -19.0206   23.6226 C   0  0  0  0  0  0  0  0  0  0  0  0
   10.4699  -18.0405   23.4806 C   0  0  2  0  0  0  0  0  0  0  0  0
   10.3631  -17.4907   22.1460 N   0  0  0  0  0  0  0  0  0  0  0  0
   10.6278  -16.9887   24.4943 C   0  0  0  0  0  0  0  0  0  0  0  0
   11.3862  -16.0300   24.2921 O   0  0  0  0  0  0  0  0  0  0  0  0
    9.9031  -17.0719   25.7126 N   0  0  0  0  0  0  0  0  0  0  0  0
   10.1494  -16.1495   26.7910 C   0  0  1  0  0  0  0  0  0  0  0  0
    8.9031  -15.7734   27.4915 C   0  0  0  0  0  0  0  0  0  0  0  0
    7.8399  -15.3232   26.5826 C   0  0  0  0  0  0  0  0  0  0  0  0
    6.9292  -15.9766   25.7966 C   0  0  0  0  0  0  0  0  0  0  0  0
    6.1581  -15.0799   25.1209 N   0  0  0  0  0  0  0  0  0  0  0  0
    6.5607  -13.8445   25.4612 C   0  0  0  0  0  0  0  0  0  0  0  0
    6.1420  -12.5640   25.0827 C   0  0  0  0  0  0  0  0  0  0  0  0
    6.7449  -11.4347   25.5918 C   0  0  0  0  0  0  0  0  0  0  0  0
    7.7887  -11.5673   26.4990 C   0  0  0  0  0  0  0  0  0  0  0  0
    8.1790  -12.8162   26.8526 C   0  0  0  0  0  0  0  0  0  0  0  0
    7.5960  -13.9711   26.3603 C   0  0  0  0  0  0  0  0  0  0  0  0
   11.1888  -16.6824   27.7309 C   0  0  0  0  0  0  0  0  0  0  0  0
   11.6565  -15.9025   28.7488 O   0  0  0  0  0  0  0  0  0  0  0  0
   11.6331  -17.8482   27.5884 O   0  0  0  0  0  0  0  0  0  0  0  0
  2  1  1  6
  2  6  1  0
  3  4  1  0
  3  2  1  0
  4  5  2  0
  6  7  2  0
  8  4  1  0
 10 11  2  0
 10  9  1  0
 12 10  1  0
 13 12  1  0
 14 13  1  6
 14 16  1  0
 15  6  1  0
 15 14  1  0
 16 17  2  0
 18 16  1  0
 19 30  1  0
 19 18  1  0
 19 20  1  1
 21 20  1  0
 21 29  1  0
 22 23  1  0
 22 21  2  0
 23 24  1  0
 24 29  2  0
 24 25  1  0
 25 26  2  0
 26 27  1  0
 28 27  2  0
 29 28  1  0
 30 31  1  0
 32 30  2  0
M  END
$$$$
