DQW.pdb
     RDKit          3D

 32 33  0  0  1  0  0  0  0  0999 V2000
    9.0595  -17.0707   18.8661 N   0  0  0  0  0  0  0  0  0  0  0  0
    8.9622  -15.7691   19.4933 C   0  0  1  0  0  0  0  0  0  0  0  0
    7.9651  -14.9422   18.7476 C   0  0  0  0  0  0  0  0  0  0  0  0
    8.2810  -14.8710   17.2959 C   0  0  0  0  0  0  0  0  0  0  0  0
    9.2210  -15.5973   16.8845 O   0  0  0  0  0  0  0  0  0  0  0  0
    8.5466  -15.9098   20.9225 C   0  0  0  0  0  0  0  0  0  0  0  0
    8.3408  -14.9174   21.6400 O   0  0  0  0  0  0  0  0  0  0  0  0
    7.5822  -14.0478   16.4276 O   0  0  0  0  0  0  0  0  0  0  0  0
    6.8362  -21.6914   23.4401 N   0  0  0  0  0  0  0  0  0  0  0  0
    6.6698  -20.7435   24.4619 C   0  0  0  0  0  0  0  0  0  0  0  0
    6.1536  -21.1050   25.5490 O   0  0  0  0  0  0  0  0  0  0  0  0
    7.0794  -19.3345   24.3108 C   0  0  0  0  0  0  0  0  0  0  0  0
    7.6857  -18.9945   23.0014 C   0  0  0  0  0  0  0  0  0  0  0  0
    8.0371  -17.5303   22.8175 C   0  0  2  0  0  0  0  0  0  0  0  0
    8.3898  -17.2054   21.4518 N   0  0  0  0  0  0  0  0  0  0  0  0
    9.1146  -17.1892   23.7564 C   0  0  0  0  0  0  0  0  0  0  0  0
   10.3012  -17.3340   23.4306 O   0  0  0  0  0  0  0  0  0  0  0  0
    8.7915  -16.6875   25.0450 N   0  0  0  0  0  0  0  0  0  0  0  0
    9.8196  -16.2492   25.9534 C   0  0  1  0  0  0  0  0  0  0  0  0
    9.2815  -15.3712   27.0141 C   0  0  0  0  0  0  0  0  0  0  0  0
    7.9069  -14.9219   26.7536 C   0  0  0  0  0  0  0  0  0  0  0  0
    6.7150  -15.5745   26.5876 C   0  0  0  0  0  0  0  0  0  0  0  0
    5.7155  -14.6803   26.3497 N   0  0  0  0  0  0  0  0  0  0  0  0
    6.2484  -13.4475   26.3590 C   0  0  0  0  0  0  0  0  0  0  0  0
    5.7079  -12.1704   26.1713 C   0  0  0  0  0  0  0  0  0  0  0  0
    6.4984  -11.0435   26.2289 C   0  0  0  0  0  0  0  0  0  0  0  0
    7.8587  -11.1752   26.4785 C   0  0  0  0  0  0  0  0  0  0  0  0
    8.3624  -12.4206   26.6575 C   0  0  0  0  0  0  0  0  0  0  0  0
    7.5973  -13.5731   26.6057 C   0  0  0  0  0  0  0  0  0  0  0  0
   10.5784  -17.4146   26.5135 C   0  0  0  0  0  0  0  0  0  0  0  0
   10.1983  -18.6897   26.2090 O   0  0  0  0  0  0  0  0  0  0  0  0
   11.5674  -17.2247   27.2636 O   0  0  0  0  0  0  0  0  0  0  0  0
  2  1  1  6
  2  6  1  0
  3  4  1  0
  3  2  1  0
  4  5  2  0
  6  7  2  0
  8  4  1  0
 10 11  2  0
 10  9  1  0
 12 10  1  0
 13 12  1  0
 14 13  1  6
 14 16  1  0
 15  6  1  0
 15 14  1  0
 16 17  2  0
 18 16  1  0
 19 30  1  0
 19 18  1  0
 19 20  1  1
 21 20  1  0
 21 29  1  0
 22 23  1  0
 22 21  2  0
 23 24  1  0
 24 29  2  0
 24 25  1  0
 25 26  2  0
 26 27  1  0
 28 27  2  0
 29 28  1  0
 30 31  1  0
 32 30  2  0
M  END
$$$$
