DQW.pdb
     RDKit          3D

 32 33  0  0  1  0  0  0  0  0999 V2000
    9.6443  -15.5286   17.2132 N   0  0  0  0  0  0  0  0  0  0  0  0
    8.9881  -14.4695   17.9513 C   0  0  1  0  0  0  0  0  0  0  0  0
    7.8020  -13.9967   17.1744 C   0  0  0  0  0  0  0  0  0  0  0  0
    8.1358  -13.7618   15.7441 C   0  0  0  0  0  0  0  0  0  0  0  0
    9.2032  -14.2730   15.3202 O   0  0  0  0  0  0  0  0  0  0  0  0
    8.5583  -14.9615   19.2961 C   0  0  0  0  0  0  0  0  0  0  0  0
    7.9150  -14.2409   20.0764 O   0  0  0  0  0  0  0  0  0  0  0  0
    7.3197  -13.0167   14.9081 O   0  0  0  0  0  0  0  0  0  0  0  0
    8.7346  -21.2521   20.4664 N   0  0  0  0  0  0  0  0  0  0  0  0
    7.8569  -20.4806   19.6889 C   0  0  0  0  0  0  0  0  0  0  0  0
    7.1082  -21.0589   18.8618 O   0  0  0  0  0  0  0  0  0  0  0  0
    7.7767  -19.0122   19.8048 C   0  0  0  0  0  0  0  0  0  0  0  0
    8.6263  -18.4195   20.8652 C   0  0  0  0  0  0  0  0  0  0  0  0
    8.5974  -16.9045   20.9391 C   0  0  2  0  0  0  0  0  0  0  0  0
    8.8998  -16.2752   19.6712 N   0  0  0  0  0  0  0  0  0  0  0  0
    9.5204  -16.4729   21.9977 C   0  0  0  0  0  0  0  0  0  0  0  0
   10.7018  -16.2099   21.7326 O   0  0  0  0  0  0  0  0  0  0  0  0
    9.0524  -16.3545   23.3332 N   0  0  0  0  0  0  0  0  0  0  0  0
    9.9346  -15.9555   24.3995 C   0  0  1  0  0  0  0  0  0  0  0  0
    9.5529  -14.6468   24.9714 C   0  0  0  0  0  0  0  0  0  0  0  0
    8.1670  -14.6082   25.4581 C   0  0  0  0  0  0  0  0  0  0  0  0
    7.2060  -15.5641   25.6501 C   0  0  0  0  0  0  0  0  0  0  0  0
    6.0593  -14.9951   26.1156 N   0  0  0  0  0  0  0  0  0  0  0  0
    6.2663  -13.6728   26.2280 C   0  0  0  0  0  0  0  0  0  0  0  0
    5.4564  -12.6098   26.6433 C   0  0  0  0  0  0  0  0  0  0  0  0
    5.9272  -11.3152   26.6582 C   0  0  0  0  0  0  0  0  0  0  0  0
    7.2311  -11.0576   26.2540 C   0  0  0  0  0  0  0  0  0  0  0  0
    7.9991  -12.1009   25.8557 C   0  0  0  0  0  0  0  0  0  0  0  0
    7.5580  -13.4127   25.8278 C   0  0  0  0  0  0  0  0  0  0  0  0
   10.0342  -17.0239   25.4465 C   0  0  0  0  0  0  0  0  0  0  0  0
   11.0306  -16.9792   26.3784 O   0  0  0  0  0  0  0  0  0  0  0  0
    9.2018  -17.9636   25.4733 O   0  0  0  0  0  0  0  0  0  0  0  0
  2  1  1  6
  2  6  1  0
  3  4  1  0
  3  2  1  0
  4  5  2  0
  6  7  2  0
  8  4  1  0
 10 11  2  0
 10  9  1  0
 12 10  1  0
 13 12  1  0
 14 13  1  6
 14 16  1  0
 15  6  1  0
 15 14  1  0
 16 17  2  0
 18 16  1  0
 19 30  1  0
 19 18  1  0
 19 20  1  1
 21 20  1  0
 21 29  1  0
 22 23  1  0
 22 21  2  0
 23 24  1  0
 24 29  2  0
 24 25  1  0
 25 26  2  0
 26 27  1  0
 28 27  2  0
 29 28  1  0
 30 31  1  0
 32 30  2  0
M  END
$$$$
