DQW.pdb
     RDKit          3D

 32 33  0  0  1  0  0  0  0  0999 V2000
    8.2041  -17.3262   17.8139 N   0  0  0  0  0  0  0  0  0  0  0  0
    9.0668  -16.3580   18.4585 C   0  0  1  0  0  0  0  0  0  0  0  0
    8.3621  -15.0414   18.5187 C   0  0  0  0  0  0  0  0  0  0  0  0
    8.0800  -14.5027   17.1613 C   0  0  0  0  0  0  0  0  0  0  0  0
    8.4510  -15.2031   16.1855 O   0  0  0  0  0  0  0  0  0  0  0  0
    9.4219  -16.8141   19.8372 C   0  0  0  0  0  0  0  0  0  0  0  0
    8.5765  -17.3231   20.5910 O   0  0  0  0  0  0  0  0  0  0  0  0
    7.4409  -13.2886   16.9668 O   0  0  0  0  0  0  0  0  0  0  0  0
   14.5405  -18.6333   18.5958 N   0  0  0  0  0  0  0  0  0  0  0  0
   14.4743  -18.2841   19.9537 C   0  0  0  0  0  0  0  0  0  0  0  0
   15.4851  -17.7770   20.5015 O   0  0  0  0  0  0  0  0  0  0  0  0
   13.2604  -18.4878   20.7667 C   0  0  0  0  0  0  0  0  0  0  0  0
   12.7939  -17.2917   21.5078 C   0  0  0  0  0  0  0  0  0  0  0  0
   11.2889  -17.1041   21.5421 C   0  0  2  0  0  0  0  0  0  0  0  0
   10.7506  -16.6548   20.2759 N   0  0  0  0  0  0  0  0  0  0  0  0
   10.9604  -16.1789   22.6352 C   0  0  0  0  0  0  0  0  0  0  0  0
   10.9125  -14.9576   22.4317 O   0  0  0  0  0  0  0  0  0  0  0  0
   10.6935  -16.6902   23.9328 N   0  0  0  0  0  0  0  0  0  0  0  0
    9.7604  -16.0367   24.8141 C   0  0  1  0  0  0  0  0  0  0  0  0
    8.4889  -15.7152   24.1317 C   0  0  0  0  0  0  0  0  0  0  0  0
    7.4633  -15.1801   25.0377 C   0  0  0  0  0  0  0  0  0  0  0  0
    6.3191  -15.6992   25.5815 C   0  0  0  0  0  0  0  0  0  0  0  0
    5.7019  -14.7687   26.3615 N   0  0  0  0  0  0  0  0  0  0  0  0
    6.4366  -13.6448   26.3296 C   0  0  0  0  0  0  0  0  0  0  0  0
    6.2883  -12.3878   26.9267 C   0  0  0  0  0  0  0  0  0  0  0  0
    7.2087  -11.3841   26.7188 C   0  0  0  0  0  0  0  0  0  0  0  0
    8.3064  -11.6221   25.9012 C   0  0  0  0  0  0  0  0  0  0  0  0
    8.4317  -12.8460   25.3326 C   0  0  0  0  0  0  0  0  0  0  0  0
    7.5260  -13.8760   25.5197 C   0  0  0  0  0  0  0  0  0  0  0  0
    9.5460  -16.8371   26.0635 C   0  0  0  0  0  0  0  0  0  0  0  0
    9.4546  -16.2093   27.2721 O   0  0  0  0  0  0  0  0  0  0  0  0
    9.4478  -18.0876   26.0052 O   0  0  0  0  0  0  0  0  0  0  0  0
  2  1  1  1
  2  6  1  0
  3  4  1  0
  3  2  1  0
  4  5  2  0
  6  7  2  0
  8  4  1  0
 10 11  2  0
 10  9  1  0
 12 10  1  0
 13 12  1  0
 14 13  1  6
 14 16  1  0
 15  6  1  0
 15 14  1  0
 16 17  2  0
 18 16  1  0
 19 30  1  0
 19 18  1  0
 19 20  1  6
 21 20  1  0
 21 29  1  0
 22 23  1  0
 22 21  2  0
 23 24  1  0
 24 29  2  0
 24 25  1  0
 25 26  2  0
 26 27  1  0
 28 27  2  0
 29 28  1  0
 30 31  1  0
 32 30  2  0
M  END
$$$$
