DQW.pdb
     RDKit          3D

 32 33  0  0  1  0  0  0  0  0999 V2000
   10.1952  -14.8467   18.7182 N   0  0  0  0  0  0  0  0  0  0  0  0
    9.2229  -14.2304   19.5968 C   0  0  1  0  0  0  0  0  0  0  0  0
    7.9948  -13.9025   18.8106 C   0  0  0  0  0  0  0  0  0  0  0  0
    8.2878  -13.7649   17.3589 C   0  0  0  0  0  0  0  0  0  0  0  0
    9.4777  -13.9551   17.0008 O   0  0  0  0  0  0  0  0  0  0  0  0
    8.8810  -15.1524   20.7229 C   0  0  0  0  0  0  0  0  0  0  0  0
    7.9410  -14.9111   21.4976 O   0  0  0  0  0  0  0  0  0  0  0  0
    7.3070  -13.4419   16.4349 O   0  0  0  0  0  0  0  0  0  0  0  0
   11.4030  -21.0660   20.9822 N   0  0  0  0  0  0  0  0  0  0  0  0
   10.2983  -20.5798   20.2657 C   0  0  0  0  0  0  0  0  0  0  0  0
    9.8788  -21.2329   19.2774 O   0  0  0  0  0  0  0  0  0  0  0  0
    9.6061  -19.3287   20.6282 C   0  0  0  0  0  0  0  0  0  0  0  0
   10.2282  -18.5665   21.7371 C   0  0  0  0  0  0  0  0  0  0  0  0
    9.5933  -17.2193   22.0256 C   0  0  2  0  0  0  0  0  0  0  0  0
    9.6535  -16.3172   20.8953 N   0  0  0  0  0  0  0  0  0  0  0  0
   10.2366  -16.6475   23.2165 C   0  0  0  0  0  0  0  0  0  0  0  0
   11.3406  -16.0919   23.1286 O   0  0  0  0  0  0  0  0  0  0  0  0
    9.5854  -16.7308   24.4757 N   0  0  0  0  0  0  0  0  0  0  0  0
   10.1842  -16.1767   25.6625 C   0  0  1  0  0  0  0  0  0  0  0  0
    9.7617  -14.7788   25.8931 C   0  0  0  0  0  0  0  0  0  0  0  0
    8.3029  -14.6036   25.8782 C   0  0  0  0  0  0  0  0  0  0  0  0
    7.2486  -15.4680   25.7539 C   0  0  0  0  0  0  0  0  0  0  0  0
    6.0706  -14.7851   25.7881 N   0  0  0  0  0  0  0  0  0  0  0  0
    6.3501  -13.4794   25.9335 C   0  0  0  0  0  0  0  0  0  0  0  0
    5.5506  -12.3344   26.0236 C   0  0  0  0  0  0  0  0  0  0  0  0
    6.1076  -11.0826   26.1678 C   0  0  0  0  0  0  0  0  0  0  0  0
    7.4895  -10.9521   26.2255 C   0  0  0  0  0  0  0  0  0  0  0  0
    8.2458  -12.0732   26.1367 C   0  0  0  0  0  0  0  0  0  0  0  0
    7.7194  -13.3452   25.9908 C   0  0  0  0  0  0  0  0  0  0  0  0
    9.9289  -17.0495   26.8544 C   0  0  0  0  0  0  0  0  0  0  0  0
   10.5907  -16.8202   28.0260 O   0  0  0  0  0  0  0  0  0  0  0  0
    9.1047  -17.9942   26.7824 O   0  0  0  0  0  0  0  0  0  0  0  0
  2  1  1  6
  2  6  1  0
  3  4  1  0
  3  2  1  0
  4  5  2  0
  6  7  2  0
  8  4  1  0
 10 11  2  0
 10  9  1  0
 12 10  1  0
 13 12  1  0
 14 13  1  6
 14 16  1  0
 15  6  1  0
 15 14  1  0
 16 17  2  0
 18 16  1  0
 19 30  1  0
 19 18  1  0
 19 20  1  1
 21 20  1  0
 21 29  1  0
 22 23  1  0
 22 21  2  0
 23 24  1  0
 24 29  2  0
 24 25  1  0
 25 26  2  0
 26 27  1  0
 28 27  2  0
 29 28  1  0
 30 31  1  0
 32 30  2  0
M  END
$$$$
