DQW.pdb
     RDKit          3D

 32 33  0  0  1  0  0  0  0  0999 V2000
    7.2144  -15.7260   18.9019 N   0  0  0  0  0  0  0  0  0  0  0  0
    8.2363  -15.2112   19.7895 C   0  0  1  0  0  0  0  0  0  0  0  0
    8.0345  -13.7406   19.9638 C   0  0  0  0  0  0  0  0  0  0  0  0
    8.3087  -12.9922   18.7080 C   0  0  0  0  0  0  0  0  0  0  0  0
    8.7332  -13.6605   17.7315 O   0  0  0  0  0  0  0  0  0  0  0  0
    8.1693  -15.8995   21.1149 C   0  0  0  0  0  0  0  0  0  0  0  0
    7.1906  -15.7662   21.8675 O   0  0  0  0  0  0  0  0  0  0  0  0
    8.1115  -11.6244   18.6054 O   0  0  0  0  0  0  0  0  0  0  0  0
   11.2377  -21.4392   22.0532 N   0  0  0  0  0  0  0  0  0  0  0  0
   10.7747  -21.0724   23.3265 C   0  0  0  0  0  0  0  0  0  0  0  0
   10.9221  -21.8752   24.2820 O   0  0  0  0  0  0  0  0  0  0  0  0
   10.1206  -19.7767   23.5897 C   0  0  0  0  0  0  0  0  0  0  0  0
   10.0303  -18.8708   22.4198 C   0  0  0  0  0  0  0  0  0  0  0  0
    9.2959  -17.5675   22.6722 C   0  0  2  0  0  0  0  0  0  0  0  0
    9.2502  -16.7141   21.5041 N   0  0  0  0  0  0  0  0  0  0  0  0
    9.9239  -16.8942   23.8172 C   0  0  0  0  0  0  0  0  0  0  0  0
   10.9936  -16.2847   23.6784 O   0  0  0  0  0  0  0  0  0  0  0  0
    9.2972  -16.9412   25.0906 N   0  0  0  0  0  0  0  0  0  0  0  0
    9.9808  -16.4887   26.2748 C   0  0  1  0  0  0  0  0  0  0  0  0
    9.0606  -15.8294   27.2257 C   0  0  0  0  0  0  0  0  0  0  0  0
    7.8574  -15.2821   26.5839 C   0  0  0  0  0  0  0  0  0  0  0  0
    6.8014  -15.8459   25.9196 C   0  0  0  0  0  0  0  0  0  0  0  0
    5.9388  -14.8802   25.4969 N   0  0  0  0  0  0  0  0  0  0  0  0
    6.4261  -13.6890   25.8811 C   0  0  0  0  0  0  0  0  0  0  0  0
    5.9739  -12.3743   25.7221 C   0  0  0  0  0  0  0  0  0  0  0  0
    6.6870  -11.3071   26.2228 C   0  0  0  0  0  0  0  0  0  0  0  0
    7.8781  -11.5383   26.8993 C   0  0  0  0  0  0  0  0  0  0  0  0
    8.2985  -12.8188   27.0426 C   0  0  0  0  0  0  0  0  0  0  0  0
    7.6076  -13.9134   26.5520 C   0  0  0  0  0  0  0  0  0  0  0  0
   10.7510  -17.6051   26.9137 C   0  0  0  0  0  0  0  0  0  0  0  0
   11.5969  -17.3467   27.9533 O   0  0  0  0  0  0  0  0  0  0  0  0
   10.6213  -18.7828   26.4978 O   0  0  0  0  0  0  0  0  0  0  0  0
  2  1  1  6
  2  6  1  0
  3  4  1  0
  3  2  1  0
  4  5  2  0
  6  7  2  0
  8  4  1  0
 10 11  2  0
 10  9  1  0
 12 10  1  0
 13 12  1  0
 14 13  1  6
 14 16  1  0
 15  6  1  0
 15 14  1  0
 16 17  2  0
 18 16  1  0
 19 30  1  0
 19 18  1  0
 19 20  1  1
 21 20  1  0
 21 29  1  0
 22 23  1  0
 22 21  2  0
 23 24  1  0
 24 29  2  0
 24 25  1  0
 25 26  2  0
 26 27  1  0
 28 27  2  0
 29 28  1  0
 30 31  1  0
 32 30  2  0
M  END
$$$$
