DQW.pdb
     RDKit          3D

 32 33  0  0  1  0  0  0  0  0999 V2000
    6.3939  -21.5199   22.6283 N   0  0  0  0  0  0  0  0  0  0  0  0
    6.2668  -20.1845   23.1738 C   0  0  1  0  0  0  0  0  0  0  0  0
    6.3968  -20.2514   24.6613 C   0  0  0  0  0  0  0  0  0  0  0  0
    5.3402  -21.1023   25.2710 C   0  0  0  0  0  0  0  0  0  0  0  0
    4.5679  -21.7004   24.4797 O   0  0  0  0  0  0  0  0  0  0  0  0
    7.3198  -19.2880   22.6059 C   0  0  0  0  0  0  0  0  0  0  0  0
    8.5132  -19.6293   22.5697 O   0  0  0  0  0  0  0  0  0  0  0  0
    5.2015  -21.2376   26.6431 O   0  0  0  0  0  0  0  0  0  0  0  0
    6.1335  -13.4499   20.0587 N   0  0  0  0  0  0  0  0  0  0  0  0
    7.4797  -13.7281   19.7751 C   0  0  0  0  0  0  0  0  0  0  0  0
    8.1855  -12.8368   19.2398 O   0  0  0  0  0  0  0  0  0  0  0  0
    8.1024  -15.0295   20.0824 C   0  0  0  0  0  0  0  0  0  0  0  0
    7.1878  -16.0403   20.6651 C   0  0  0  0  0  0  0  0  0  0  0  0
    7.8231  -16.9714   21.6804 C   0  0  2  0  0  0  0  0  0  0  0  0
    6.9322  -18.0301   22.1051 N   0  0  0  0  0  0  0  0  0  0  0  0
    8.2977  -16.1679   22.8153 C   0  0  0  0  0  0  0  0  0  0  0  0
    7.5366  -15.3723   23.3837 O   0  0  0  0  0  0  0  0  0  0  0  0
    9.6377  -16.3075   23.2640 N   0  0  0  0  0  0  0  0  0  0  0  0
   10.1661  -15.4658   24.3065 C   0  0  1  0  0  0  0  0  0  0  0  0
    9.5307  -15.7401   25.6129 C   0  0  0  0  0  0  0  0  0  0  0  0
    8.1382  -15.2774   25.6894 C   0  0  0  0  0  0  0  0  0  0  0  0
    6.9267  -15.9005   25.5543 C   0  0  0  0  0  0  0  0  0  0  0  0
    5.9137  -15.0024   25.7044 N   0  0  0  0  0  0  0  0  0  0  0  0
    6.4573  -13.7962   25.9363 C   0  0  0  0  0  0  0  0  0  0  0  0
    5.9104  -12.5273   26.1580 C   0  0  0  0  0  0  0  0  0  0  0  0
    6.7146  -11.4289   26.3697 C   0  0  0  0  0  0  0  0  0  0  0  0
    8.0954  -11.5816   26.3638 C   0  0  0  0  0  0  0  0  0  0  0  0
    8.6049  -12.8187   26.1474 C   0  0  0  0  0  0  0  0  0  0  0  0
    7.8265  -13.9427   25.9309 C   0  0  0  0  0  0  0  0  0  0  0  0
   11.6608  -15.5615   24.3724 C   0  0  0  0  0  0  0  0  0  0  0  0
   12.3647  -14.7322   25.1970 O   0  0  0  0  0  0  0  0  0  0  0  0
   12.2728  -16.4048   23.6717 O   0  0  0  0  0  0  0  0  0  0  0  0
  2  1  1  6
  2  6  1  0
  3  4  1  0
  3  2  1  0
  4  5  2  0
  6  7  2  0
  8  4  1  0
 10 11  2  0
 10  9  1  0
 12 10  1  0
 13 12  1  0
 14 13  1  6
 14 16  1  0
 15  6  1  0
 15 14  1  0
 16 17  2  0
 18 16  1  0
 19 30  1  0
 19 18  1  0
 19 20  1  1
 21 20  1  0
 21 29  1  0
 22 23  1  0
 22 21  2  0
 23 24  1  0
 24 29  2  0
 24 25  1  0
 25 26  2  0
 26 27  1  0
 28 27  2  0
 29 28  1  0
 30 31  1  0
 32 30  2  0
M  END
$$$$
