DQW.pdb
     RDKit          3D

 32 33  0  0  1  0  0  0  0  0999 V2000
    9.7814  -14.5908   18.1471 N   0  0  0  0  0  0  0  0  0  0  0  0
    9.0566  -13.8241   19.1390 C   0  0  1  0  0  0  0  0  0  0  0  0
    7.7528  -13.3828   18.5566 C   0  0  0  0  0  0  0  0  0  0  0  0
    7.6262  -13.7716   17.1265 C   0  0  0  0  0  0  0  0  0  0  0  0
    8.5698  -14.4420   16.6362 O   0  0  0  0  0  0  0  0  0  0  0  0
    8.8194  -14.6490   20.3631 C   0  0  0  0  0  0  0  0  0  0  0  0
    8.1750  -14.2082   21.3288 O   0  0  0  0  0  0  0  0  0  0  0  0
    6.5276  -13.4180   16.3595 O   0  0  0  0  0  0  0  0  0  0  0  0
   10.1759  -21.0409   20.4606 N   0  0  0  0  0  0  0  0  0  0  0  0
    9.6306  -20.7305   21.7161 C   0  0  0  0  0  0  0  0  0  0  0  0
    9.4009  -21.6626   22.5270 O   0  0  0  0  0  0  0  0  0  0  0  0
    9.3163  -19.3483   22.1244 C   0  0  0  0  0  0  0  0  0  0  0  0
    9.5707  -18.3160   21.0914 C   0  0  0  0  0  0  0  0  0  0  0  0
    9.1834  -16.9034   21.4863 C   0  0  2  0  0  0  0  0  0  0  0  0
    9.3465  -15.9542   20.4058 N   0  0  0  0  0  0  0  0  0  0  0  0
    9.9629  -16.5217   22.6718 C   0  0  0  0  0  0  0  0  0  0  0  0
   11.1529  -16.1940   22.5626 O   0  0  0  0  0  0  0  0  0  0  0  0
    9.3455  -16.5263   23.9506 N   0  0  0  0  0  0  0  0  0  0  0  0
   10.0897  -16.1964   25.1388 C   0  0  1  0  0  0  0  0  0  0  0  0
    9.7200  -14.8675   25.6706 C   0  0  0  0  0  0  0  0  0  0  0  0
    8.2678  -14.6637   25.7646 C   0  0  0  0  0  0  0  0  0  0  0  0
    7.1899  -15.5057   25.7091 C   0  0  0  0  0  0  0  0  0  0  0  0
    6.0317  -14.8004   25.8367 N   0  0  0  0  0  0  0  0  0  0  0  0
    6.3476  -13.5022   25.9748 C   0  0  0  0  0  0  0  0  0  0  0  0
    5.5803  -12.3430   26.1353 C   0  0  0  0  0  0  0  0  0  0  0  0
    6.1717  -11.1041   26.2512 C   0  0  0  0  0  0  0  0  0  0  0  0
    7.5565  -11.0013   26.2087 C   0  0  0  0  0  0  0  0  0  0  0  0
    8.2814  -12.1359   26.0529 C   0  0  0  0  0  0  0  0  0  0  0  0
    7.7199  -13.3954   25.9329 C   0  0  0  0  0  0  0  0  0  0  0  0
    9.9636  -17.2753   26.1721 C   0  0  0  0  0  0  0  0  0  0  0  0
   10.7864  -17.2804   27.2612 O   0  0  0  0  0  0  0  0  0  0  0  0
    9.1005  -18.1781   26.0427 O   0  0  0  0  0  0  0  0  0  0  0  0
  2  1  1  6
  2  6  1  0
  3  4  1  0
  3  2  1  0
  4  5  2  0
  6  7  2  0
  8  4  1  0
 10 11  2  0
 10  9  1  0
 12 10  1  0
 13 12  1  0
 14 13  1  6
 14 16  1  0
 15  6  1  0
 15 14  1  0
 16 17  2  0
 18 16  1  0
 19 30  1  0
 19 18  1  0
 19 20  1  1
 21 20  1  0
 21 29  1  0
 22 23  1  0
 22 21  2  0
 23 24  1  0
 24 29  2  0
 24 25  1  0
 25 26  2  0
 26 27  1  0
 28 27  2  0
 29 28  1  0
 30 31  1  0
 32 30  2  0
M  END
$$$$
