DQW.pdb
     RDKit          3D

 32 33  0  0  1  0  0  0  0  0999 V2000
   11.7132  -17.1464   19.8790 N   0  0  0  0  0  0  0  0  0  0  0  0
   10.2903  -16.9599   20.0730 C   0  0  1  0  0  0  0  0  0  0  0  0
    9.5510  -17.7273   19.0250 C   0  0  0  0  0  0  0  0  0  0  0  0
    9.9304  -17.2959   17.6530 C   0  0  0  0  0  0  0  0  0  0  0  0
    9.1366  -17.5952   16.7253 O   0  0  0  0  0  0  0  0  0  0  0  0
    9.8850  -17.4277   21.4339 C   0  0  0  0  0  0  0  0  0  0  0  0
    8.6910  -17.4994   21.7674 O   0  0  0  0  0  0  0  0  0  0  0  0
   11.0996  -16.5984   17.3951 O   0  0  0  0  0  0  0  0  0  0  0  0
   13.3990  -21.6014   24.8213 N   0  0  0  0  0  0  0  0  0  0  0  0
   12.8002  -21.5662   23.5523 C   0  0  0  0  0  0  0  0  0  0  0  0
   13.1450  -22.4157   22.6929 O   0  0  0  0  0  0  0  0  0  0  0  0
   11.7772  -20.5687   23.1855 C   0  0  0  0  0  0  0  0  0  0  0  0
   11.7336  -19.3671   24.0527 C   0  0  0  0  0  0  0  0  0  0  0  0
   10.6866  -18.3377   23.6713 C   0  0  2  0  0  0  0  0  0  0  0  0
   10.8936  -17.7912   22.3471 N   0  0  0  0  0  0  0  0  0  0  0  0
   10.6700  -17.2883   24.6996 C   0  0  0  0  0  0  0  0  0  0  0  0
   11.4546  -16.3316   24.6336 O   0  0  0  0  0  0  0  0  0  0  0  0
    9.7457  -17.3717   25.7743 N   0  0  0  0  0  0  0  0  0  0  0  0
    9.7350  -16.3879   26.8262 C   0  0  1  0  0  0  0  0  0  0  0  0
    8.3715  -15.8859   27.0989 C   0  0  0  0  0  0  0  0  0  0  0  0
    7.7522  -15.2294   25.9393 C   0  0  0  0  0  0  0  0  0  0  0  0
    7.4063  -15.6559   24.6852 C   0  0  0  0  0  0  0  0  0  0  0  0
    6.8649  -14.6311   23.9698 N   0  0  0  0  0  0  0  0  0  0  0  0
    6.8557  -13.5377   24.7498 C   0  0  0  0  0  0  0  0  0  0  0  0
    6.4284  -12.2208   24.5459 C   0  0  0  0  0  0  0  0  0  0  0  0
    6.5407  -11.2707   25.5372 C   0  0  0  0  0  0  0  0  0  0  0  0
    7.0882  -11.6246   26.7640 C   0  0  0  0  0  0  0  0  0  0  0  0
    7.4958  -12.9050   26.9412 C   0  0  0  0  0  0  0  0  0  0  0  0
    7.3982  -13.8838   25.9673 C   0  0  0  0  0  0  0  0  0  0  0  0
   10.4036  -16.9111   28.0619 C   0  0  0  0  0  0  0  0  0  0  0  0
   10.6488  -16.0765   29.1138 O   0  0  0  0  0  0  0  0  0  0  0  0
   10.7399  -18.1186   28.1368 O   0  0  0  0  0  0  0  0  0  0  0  0
  2  1  1  6
  2  6  1  0
  3  4  1  0
  3  2  1  0
  4  5  2  0
  6  7  2  0
  8  4  1  0
 10 11  2  0
 10  9  1  0
 12 10  1  0
 13 12  1  0
 14 13  1  1
 14 16  1  0
 15  6  1  0
 15 14  1  0
 16 17  2  0
 18 16  1  0
 19 30  1  0
 19 18  1  0
 19 20  1  1
 21 20  1  0
 21 29  1  0
 22 23  1  0
 22 21  2  0
 23 24  1  0
 24 29  2  0
 24 25  1  0
 25 26  2  0
 26 27  1  0
 28 27  2  0
 29 28  1  0
 30 31  1  0
 32 30  2  0
M  END
$$$$
