DQW.pdb
     RDKit          3D

 32 33  0  0  1  0  0  0  0  0999 V2000
    9.4227  -15.4537   18.9221 N   0  0  0  0  0  0  0  0  0  0  0  0
    8.8183  -14.5545   19.8829 C   0  0  1  0  0  0  0  0  0  0  0  0
    7.5839  -13.9605   19.2849 C   0  0  0  0  0  0  0  0  0  0  0  0
    7.7901  -13.5710   17.8643 C   0  0  0  0  0  0  0  0  0  0  0  0
    8.9126  -13.8326   17.3624 O   0  0  0  0  0  0  0  0  0  0  0  0
    8.4779  -15.2885   21.1400 C   0  0  0  0  0  0  0  0  0  0  0  0
    7.6243  -14.8583   21.9328 O   0  0  0  0  0  0  0  0  0  0  0  0
    6.8021  -12.9484   17.1184 O   0  0  0  0  0  0  0  0  0  0  0  0
    8.9346  -21.9073   22.1210 N   0  0  0  0  0  0  0  0  0  0  0  0
    9.4924  -21.1329   23.1502 C   0  0  0  0  0  0  0  0  0  0  0  0
   10.3759  -21.6422   23.8844 O   0  0  0  0  0  0  0  0  0  0  0  0
    9.0826  -19.7389   23.4050 C   0  0  0  0  0  0  0  0  0  0  0  0
    9.3514  -18.7934   22.2952 C   0  0  0  0  0  0  0  0  0  0  0  0
    8.9079  -17.3648   22.5474 C   0  0  2  0  0  0  0  0  0  0  0  0
    9.1508  -16.4942   21.4168 N   0  0  0  0  0  0  0  0  0  0  0  0
    9.5730  -16.8793   23.7642 C   0  0  0  0  0  0  0  0  0  0  0  0
   10.7353  -16.4526   23.7174 O   0  0  0  0  0  0  0  0  0  0  0  0
    8.8760  -16.8975   25.0013 N   0  0  0  0  0  0  0  0  0  0  0  0
    9.4867  -16.4027   26.2082 C   0  0  1  0  0  0  0  0  0  0  0  0
    8.4916  -15.8132   27.1290 C   0  0  0  0  0  0  0  0  0  0  0  0
    7.4665  -15.0156   26.4421 C   0  0  0  0  0  0  0  0  0  0  0  0
    6.3274  -15.3330   25.7522 C   0  0  0  0  0  0  0  0  0  0  0  0
    5.7244  -14.2028   25.2894 N   0  0  0  0  0  0  0  0  0  0  0  0
    6.4638  -13.1491   25.6729 C   0  0  0  0  0  0  0  0  0  0  0  0
    6.3336  -11.7690   25.4821 C   0  0  0  0  0  0  0  0  0  0  0  0
    7.2606  -10.8858   25.9908 C   0  0  0  0  0  0  0  0  0  0  0  0
    8.3463  -11.3726   26.7078 C   0  0  0  0  0  0  0  0  0  0  0  0
    8.4541  -12.7124   26.8815 C   0  0  0  0  0  0  0  0  0  0  0  0
    7.5419  -13.6271   26.3839 C   0  0  0  0  0  0  0  0  0  0  0  0
   10.3121  -17.4647   26.8706 C   0  0  0  0  0  0  0  0  0  0  0  0
   11.0749  -17.1592   27.9606 O   0  0  0  0  0  0  0  0  0  0  0  0
   10.3052  -18.6398   26.4281 O   0  0  0  0  0  0  0  0  0  0  0  0
  2  1  1  6
  2  6  1  0
  3  4  1  0
  3  2  1  0
  4  5  2  0
  6  7  2  0
  8  4  1  0
 10 11  2  0
 10  9  1  0
 12 10  1  0
 13 12  1  0
 14 13  1  6
 14 16  1  0
 15  6  1  0
 15 14  1  0
 16 17  2  0
 18 16  1  0
 19 30  1  0
 19 18  1  0
 19 20  1  1
 21 20  1  0
 21 29  1  0
 22 23  1  0
 22 21  2  0
 23 24  1  0
 24 29  2  0
 24 25  1  0
 25 26  2  0
 26 27  1  0
 28 27  2  0
 29 28  1  0
 30 31  1  0
 32 30  2  0
M  END
$$$$
