SAR.pdb
     RDKit          3D

 23 22  0  0  1  0  0  0  0  0999 V2000
   18.6959  -24.6467  -10.5121 O   0  0  0  0  0  0  0  0  0  0  0  0
   18.0329  -25.7151  -11.0708 C   0  0  0  0  0  0  0  0  0  0  0  0
   18.7094  -27.0371  -10.8688 C   0  0  2  0  0  0  0  0  0  0  0  0
   19.0180  -27.1645   -9.4498 N   0  0  0  0  0  0  0  0  0  0  0  0
   19.9510  -27.0775  -11.6858 C   0  0  0  0  0  0  0  0  0  0  0  0
   21.0668  -26.8669  -11.1552 O   0  0  0  0  0  0  0  0  0  0  0  0
   20.9109  -27.9648  -15.2441 C   0  0  0  0  0  0  0  0  0  0  0  0
   21.0978  -27.3098  -13.9195 C   0  0  2  0  0  0  0  0  0  0  0  0
   19.9359  -27.3515  -13.0786 N   0  0  0  0  0  0  0  0  0  0  0  0
   21.5795  -25.8929  -14.0943 C   0  0  0  0  0  0  0  0  0  0  0  0
   20.7708  -24.9359  -13.9922 O   0  0  0  0  0  0  0  0  0  0  0  0
   29.5905  -24.5638  -16.8284 N   0  0  0  0  0  0  0  0  0  0  0  0
   28.7650  -25.5659  -17.4214 C   0  0  0  0  0  0  0  0  0  0  0  0
   29.2518  -26.4812  -18.2263 N   0  0  0  0  0  0  0  0  0  0  0  0
   27.3621  -25.6285  -17.1726 N   0  0  0  0  0  0  0  0  0  0  0  0
   26.7346  -24.8707  -16.1393 C   0  0  0  0  0  0  0  0  0  0  0  0
   25.2473  -24.9846  -16.0612 C   0  0  0  0  0  0  0  0  0  0  0  0
   24.7965  -24.1130  -14.8932 C   0  0  0  0  0  0  0  0  0  0  0  0
   23.3271  -24.2401  -14.6360 C   0  0  2  0  0  0  0  0  0  0  0  0
   22.9421  -25.6272  -14.3749 N   0  0  0  0  0  0  0  0  0  0  0  0
   22.5969  -23.8403  -15.8894 C   0  0  0  0  0  0  0  0  0  0  0  0
   22.2530  -24.8057  -16.8218 O   0  0  0  0  0  0  0  0  0  0  0  0
   22.2771  -22.6517  -16.1391 O   0  0  0  0  0  0  0  0  0  0  0  0
  1  2  1  0
  3  4  1  1
  3  5  1  0
  3  2  1  0
  5  9  1  0
  5  6  2  0
  8  7  1  6
  8 10  1  0
  9  8  1  0
 10 20  1  0
 10 11  2  0
 13 12  1  0
 13 14  2  0
 15 16  1  0
 15 13  1  0
 16 17  1  0
 17 18  1  0
 19 18  1  6
 20 19  1  0
 21 19  1  0
 21 22  1  0
 23 21  2  0
M  END
$$$$
