SAR.pdb
     RDKit          3D

 23 22  0  0  1  0  0  0  0  0999 V2000
   26.7492  -12.7029  -17.8536 O   0  0  0  0  0  0  0  0  0  0  0  0
   26.4307  -14.0329  -18.0054 C   0  0  0  0  0  0  0  0  0  0  0  0
   25.0450  -14.3916  -17.5612 C   0  0  2  0  0  0  0  0  0  0  0  0
   24.6311  -13.4106  -16.5656 N   0  0  0  0  0  0  0  0  0  0  0  0
   25.0600  -15.7604  -16.9807 C   0  0  0  0  0  0  0  0  0  0  0  0
   25.0886  -15.9223  -15.7382 O   0  0  0  0  0  0  0  0  0  0  0  0
   24.6125  -19.2899  -18.2924 C   0  0  0  0  0  0  0  0  0  0  0  0
   24.9536  -18.2633  -17.2685 C   0  0  2  0  0  0  0  0  0  0  0  0
   25.0423  -16.9284  -17.7873 N   0  0  0  0  0  0  0  0  0  0  0  0
   26.2203  -18.6399  -16.5447 C   0  0  0  0  0  0  0  0  0  0  0  0
   27.3282  -18.2007  -16.9446 O   0  0  0  0  0  0  0  0  0  0  0  0
   25.7956  -20.8274   -8.3163 N   0  0  0  0  0  0  0  0  0  0  0  0
   24.7401  -21.0699   -9.2461 C   0  0  0  0  0  0  0  0  0  0  0  0
   23.4943  -21.2185   -8.8608 N   0  0  0  0  0  0  0  0  0  0  0  0
   24.9807  -21.1651  -10.6487 N   0  0  0  0  0  0  0  0  0  0  0  0
   26.0232  -20.4376  -11.2964 C   0  0  0  0  0  0  0  0  0  0  0  0
   26.1393  -20.6422  -12.7715 C   0  0  0  0  0  0  0  0  0  0  0  0
   27.2936  -19.7677  -13.2511 C   0  0  0  0  0  0  0  0  0  0  0  0
   27.4371  -19.7997  -14.7410 C   0  0  2  0  0  0  0  0  0  0  0  0
   26.1747  -19.4894  -15.4123 N   0  0  0  0  0  0  0  0  0  0  0  0
   27.7829  -21.2067  -15.1470 C   0  0  0  0  0  0  0  0  0  0  0  0
   29.0781  -21.6705  -14.9831 O   0  0  0  0  0  0  0  0  0  0  0  0
   26.9403  -21.9984  -15.6375 O   0  0  0  0  0  0  0  0  0  0  0  0
  1  2  1  0
  3  4  1  1
  3  5  1  0
  3  2  1  0
  5  9  1  0
  5  6  2  0
  8  7  1  6
  8 10  1  0
  9  8  1  0
 10 20  1  0
 10 11  2  0
 13 12  1  0
 13 14  2  0
 15 16  1  0
 15 13  1  0
 16 17  1  0
 17 18  1  0
 19 18  1  1
 20 19  1  0
 21 19  1  0
 21 22  1  0
 23 21  2  0
M  END
$$$$
