SAR.pdb
     RDKit          3D

 23 22  0  0  1  0  0  0  0  0999 V2000
   24.8591  -19.2000  -17.4611 O   0  0  0  0  0  0  0  0  0  0  0  0
   26.1273  -19.0733  -16.9425 C   0  0  0  0  0  0  0  0  0  0  0  0
   26.1679  -18.7478  -15.4802 C   0  0  2  0  0  0  0  0  0  0  0  0
   25.5134  -19.8369  -14.7656 N   0  0  0  0  0  0  0  0  0  0  0  0
   25.4585  -17.4617  -15.2488 C   0  0  0  0  0  0  0  0  0  0  0  0
   24.2360  -17.4522  -14.9725 O   0  0  0  0  0  0  0  0  0  0  0  0
   26.4044  -13.7896  -15.0202 C   0  0  0  0  0  0  0  0  0  0  0  0
   25.4675  -14.9435  -15.1167 C   0  0  2  0  0  0  0  0  0  0  0  0
   26.1161  -16.2061  -15.3270 N   0  0  0  0  0  0  0  0  0  0  0  0
   24.4292  -14.6934  -16.1795 C   0  0  0  0  0  0  0  0  0  0  0  0
   24.5549  -15.2133  -17.3171 O   0  0  0  0  0  0  0  0  0  0  0  0
   16.4727  -13.8490  -13.7469 N   0  0  0  0  0  0  0  0  0  0  0  0
   17.1069  -15.1276  -13.7266 C   0  0  0  0  0  0  0  0  0  0  0  0
   16.5502  -16.1712  -13.1578 N   0  0  0  0  0  0  0  0  0  0  0  0
   18.3841  -15.3429  -14.3237 N   0  0  0  0  0  0  0  0  0  0  0  0
   19.0626  -14.3290  -15.0636 C   0  0  0  0  0  0  0  0  0  0  0  0
   20.3887  -14.7161  -15.6316 C   0  0  0  0  0  0  0  0  0  0  0  0
   20.9307  -13.4935  -16.3656 C   0  0  0  0  0  0  0  0  0  0  0  0
   22.2861  -13.7473  -16.9485 C   0  0  2  0  0  0  0  0  0  0  0  0
   23.3071  -13.8729  -15.9081 N   0  0  0  0  0  0  0  0  0  0  0  0
   22.6768  -12.5446  -17.7640 C   0  0  0  0  0  0  0  0  0  0  0  0
   22.0256  -12.2833  -18.9586 O   0  0  0  0  0  0  0  0  0  0  0  0
   23.5821  -11.7493  -17.4100 O   0  0  0  0  0  0  0  0  0  0  0  0
  1  2  1  0
  3  4  1  1
  3  5  1  0
  3  2  1  0
  5  9  1  0
  5  6  2  0
  8  7  1  6
  8 10  1  0
  9  8  1  0
 10 20  1  0
 10 11  2  0
 13 12  1  0
 13 14  2  0
 15 16  1  0
 15 13  1  0
 16 17  1  0
 17 18  1  0
 19 18  1  1
 20 19  1  0
 21 19  1  0
 21 22  1  0
 23 21  2  0
M  END
$$$$
