SAR.pdb
     RDKit          3D

 23 22  0  0  1  0  0  0  0  0999 V2000
   28.4832  -18.8563  -17.1097 O   0  0  0  0  0  0  0  0  0  0  0  0
   27.5798  -17.8554  -16.8353 C   0  0  0  0  0  0  0  0  0  0  0  0
   27.4944  -16.7932  -17.8891 C   0  0  2  0  0  0  0  0  0  0  0  0
   28.8496  -16.5152  -18.3485 N   0  0  0  0  0  0  0  0  0  0  0  0
   26.8745  -15.5756  -17.3027 C   0  0  0  0  0  0  0  0  0  0  0  0
   25.7063  -15.6135  -16.8502 O   0  0  0  0  0  0  0  0  0  0  0  0
   27.9383  -12.0154  -16.5244 C   0  0  0  0  0  0  0  0  0  0  0  0
   26.9613  -13.1109  -16.7771 C   0  0  2  0  0  0  0  0  0  0  0  0
   27.5601  -14.3349  -17.2267 N   0  0  0  0  0  0  0  0  0  0  0  0
   25.8935  -12.6550  -17.7374 C   0  0  0  0  0  0  0  0  0  0  0  0
   26.0512  -12.8113  -18.9747 O   0  0  0  0  0  0  0  0  0  0  0  0
   17.3693  -13.4808  -18.2715 N   0  0  0  0  0  0  0  0  0  0  0  0
   17.6417  -12.5326  -19.3030 C   0  0  0  0  0  0  0  0  0  0  0  0
   16.7273  -12.1669  -20.1707 N   0  0  0  0  0  0  0  0  0  0  0  0
   18.9255  -11.9288  -19.4495 N   0  0  0  0  0  0  0  0  0  0  0  0
   20.0375  -12.2894  -18.6315 C   0  0  0  0  0  0  0  0  0  0  0  0
   21.3304  -11.6169  -18.9587 C   0  0  0  0  0  0  0  0  0  0  0  0
   22.3757  -12.1734  -17.9969 C   0  0  0  0  0  0  0  0  0  0  0  0
   23.7303  -11.5851  -18.2427 C   0  0  2  0  0  0  0  0  0  0  0  0
   24.7074  -12.0480  -17.2570 N   0  0  0  0  0  0  0  0  0  0  0  0
   23.6335  -10.0952  -18.0564 C   0  0  0  0  0  0  0  0  0  0  0  0
   23.0080   -9.3214  -19.0205 O   0  0  0  0  0  0  0  0  0  0  0  0
   24.1007   -9.5048  -17.0512 O   0  0  0  0  0  0  0  0  0  0  0  0
  1  2  1  0
  3  4  1  1
  3  5  1  0
  3  2  1  0
  5  9  1  0
  5  6  2  0
  8  7  1  6
  8 10  1  0
  9  8  1  0
 10 20  1  0
 10 11  2  0
 13 12  1  0
 13 14  2  0
 15 16  1  0
 15 13  1  0
 16 17  1  0
 17 18  1  0
 19 18  1  1
 20 19  1  0
 21 19  1  0
 21 22  1  0
 23 21  2  0
M  END
$$$$
