SAR.pdb
     RDKit          3D

 23 22  0  0  1  0  0  0  0  0999 V2000
   27.8754  -25.8390  -19.0959 O   0  0  0  0  0  0  0  0  0  0  0  0
   27.7606  -24.8940  -18.1024 C   0  0  0  0  0  0  0  0  0  0  0  0
   29.0439  -24.2023  -17.7553 C   0  0  2  0  0  0  0  0  0  0  0  0
   29.9255  -25.1870  -17.1402 N   0  0  0  0  0  0  0  0  0  0  0  0
   28.7563  -23.0884  -16.8135 C   0  0  0  0  0  0  0  0  0  0  0  0
   28.8692  -23.2580  -15.5768 O   0  0  0  0  0  0  0  0  0  0  0  0
   27.9502  -19.3890  -17.0878 C   0  0  0  0  0  0  0  0  0  0  0  0
   28.0889  -20.6948  -16.3846 C   0  0  2  0  0  0  0  0  0  0  0  0
   28.3483  -21.8034  -17.2579 N   0  0  0  0  0  0  0  0  0  0  0  0
   26.8802  -20.9632  -15.5260 C   0  0  0  0  0  0  0  0  0  0  0  0
   25.9337  -21.6601  -15.9716 O   0  0  0  0  0  0  0  0  0  0  0  0
   25.8137  -21.2187   -7.1191 N   0  0  0  0  0  0  0  0  0  0  0  0
   25.9407  -19.9628   -7.7855 C   0  0  0  0  0  0  0  0  0  0  0  0
   26.5584  -18.9433   -7.2362 N   0  0  0  0  0  0  0  0  0  0  0  0
   25.4017  -19.7447   -9.0879 N   0  0  0  0  0  0  0  0  0  0  0  0
   24.8225  -20.7948   -9.8610 C   0  0  0  0  0  0  0  0  0  0  0  0
   24.4112  -20.4290  -11.2495 C   0  0  0  0  0  0  0  0  0  0  0  0
   25.6919  -20.1907  -12.0432 C   0  0  0  0  0  0  0  0  0  0  0  0
   25.5777  -20.6885  -13.4505 C   0  0  2  0  0  0  0  0  0  0  0  0
   26.7993  -20.4343  -14.2146 N   0  0  0  0  0  0  0  0  0  0  0  0
   24.4932  -19.9035  -14.1373 C   0  0  0  0  0  0  0  0  0  0  0  0
   24.8189  -18.7635  -14.8541 O   0  0  0  0  0  0  0  0  0  0  0  0
   23.2827  -20.2354  -14.0927 O   0  0  0  0  0  0  0  0  0  0  0  0
  1  2  1  0
  3  4  1  1
  3  5  1  0
  3  2  1  0
  5  9  1  0
  5  6  2  0
  8  7  1  6
  8 10  1  0
  9  8  1  0
 10 20  1  0
 10 11  2  0
 13 12  1  0
 13 14  2  0
 15 16  1  0
 15 13  1  0
 16 17  1  0
 17 18  1  0
 19 18  1  1
 20 19  1  0
 21 19  1  0
 21 22  1  0
 23 21  2  0
M  END
$$$$
