SAR.pdb
     RDKit          3D

 23 22  0  0  1  0  0  0  0  0999 V2000
   15.2388  -14.0849  -17.0592 O   0  0  0  0  0  0  0  0  0  0  0  0
   15.7630  -13.2030  -16.1423 C   0  0  0  0  0  0  0  0  0  0  0  0
   17.2037  -13.4434  -15.8065 C   0  0  2  0  0  0  0  0  0  0  0  0
   17.2631  -14.5854  -14.9023 N   0  0  0  0  0  0  0  0  0  0  0  0
   17.7614  -12.2266  -15.1591 C   0  0  0  0  0  0  0  0  0  0  0  0
   17.4598  -11.9424  -13.9763 O   0  0  0  0  0  0  0  0  0  0  0  0
   20.4658   -9.7061  -15.9731 C   0  0  0  0  0  0  0  0  0  0  0  0
   19.2959  -10.2263  -15.2120 C   0  0  2  0  0  0  0  0  0  0  0  0
   18.6454  -11.3442  -15.8336 N   0  0  0  0  0  0  0  0  0  0  0  0
   18.3102   -9.1203  -14.9378 C   0  0  0  0  0  0  0  0  0  0  0  0
   17.3318   -8.9438  -15.7071 O   0  0  0  0  0  0  0  0  0  0  0  0
   15.2059   -7.1549   -7.3685 N   0  0  0  0  0  0  0  0  0  0  0  0
   14.3497   -7.8875   -8.2446 C   0  0  0  0  0  0  0  0  0  0  0  0
   13.1974   -8.3729   -7.8457 N   0  0  0  0  0  0  0  0  0  0  0  0
   14.6995   -8.1344   -9.6050 N   0  0  0  0  0  0  0  0  0  0  0  0
   15.8228   -7.5149  -10.2298 C   0  0  0  0  0  0  0  0  0  0  0  0
   16.0031   -7.8100  -11.6829 C   0  0  0  0  0  0  0  0  0  0  0  0
   17.2051   -6.9976  -12.1546 C   0  0  0  0  0  0  0  0  0  0  0  0
   17.4889   -7.2128  -13.6087 C   0  0  2  0  0  0  0  0  0  0  0  0
   18.4765   -8.2722  -13.8157 N   0  0  0  0  0  0  0  0  0  0  0  0
   18.1134   -5.9570  -14.1538 C   0  0  0  0  0  0  0  0  0  0  0  0
   17.3430   -4.8153  -14.3031 O   0  0  0  0  0  0  0  0  0  0  0  0
   19.3223   -5.8897  -14.4879 O   0  0  0  0  0  0  0  0  0  0  0  0
  1  2  1  0
  3  4  1  1
  3  5  1  0
  3  2  1  0
  5  9  1  0
  5  6  2  0
  8  7  1  6
  8 10  1  0
  9  8  1  0
 10 20  1  0
 10 11  2  0
 13 12  1  0
 13 14  2  0
 15 16  1  0
 15 13  1  0
 16 17  1  0
 17 18  1  0
 19 18  1  1
 20 19  1  0
 21 19  1  0
 21 22  1  0
 23 21  2  0
M  END
$$$$
