SAR.pdb
     RDKit          3D

 23 22  0  0  1  0  0  0  0  0999 V2000
   23.7720  -15.0952  -19.0697 O   0  0  0  0  0  0  0  0  0  0  0  0
   23.9065  -13.8618  -18.4749 C   0  0  0  0  0  0  0  0  0  0  0  0
   24.7017  -13.8710  -17.2047 C   0  0  2  0  0  0  0  0  0  0  0  0
   24.5352  -15.1810  -16.5873 N   0  0  0  0  0  0  0  0  0  0  0  0
   24.1988  -12.7963  -16.3087 C   0  0  0  0  0  0  0  0  0  0  0  0
   23.0654  -12.8884  -15.7815 O   0  0  0  0  0  0  0  0  0  0  0  0
   25.5445   -9.5433  -14.8726 C   0  0  0  0  0  0  0  0  0  0  0  0
   24.5050  -10.5686  -15.1674 C   0  0  2  0  0  0  0  0  0  0  0  0
   24.9609  -11.6362  -16.0109 N   0  0  0  0  0  0  0  0  0  0  0  0
   23.2733   -9.9210  -15.7450 C   0  0  0  0  0  0  0  0  0  0  0  0
   23.1188   -9.8615  -16.9911 O   0  0  0  0  0  0  0  0  0  0  0  0
   14.9777  -10.7805  -13.7982 N   0  0  0  0  0  0  0  0  0  0  0  0
   14.9379   -9.7763  -14.8118 C   0  0  0  0  0  0  0  0  0  0  0  0
   13.8142   -9.4046  -15.3789 N   0  0  0  0  0  0  0  0  0  0  0  0
   16.1196   -9.1199  -15.2666 N   0  0  0  0  0  0  0  0  0  0  0  0
   17.4112   -9.4188  -14.7391 C   0  0  0  0  0  0  0  0  0  0  0  0
   18.5638   -8.7755  -15.4380 C   0  0  0  0  0  0  0  0  0  0  0  0
   19.8333   -9.3988  -14.8661 C   0  0  0  0  0  0  0  0  0  0  0  0
   21.0663   -8.8467  -15.5113 C   0  0  2  0  0  0  0  0  0  0  0  0
   22.2826   -9.3747  -14.8928 N   0  0  0  0  0  0  0  0  0  0  0  0
   21.0947   -7.3617  -15.2706 C   0  0  0  0  0  0  0  0  0  0  0  0
   20.2925   -6.5268  -16.0314 O   0  0  0  0  0  0  0  0  0  0  0  0
   21.8240   -6.8292  -14.3976 O   0  0  0  0  0  0  0  0  0  0  0  0
  1  2  1  0
  3  4  1  1
  3  5  1  0
  3  2  1  0
  5  9  1  0
  5  6  2  0
  8  7  1  6
  8 10  1  0
  9  8  1  0
 10 20  1  0
 10 11  2  0
 13 12  1  0
 13 14  2  0
 15 16  1  0
 15 13  1  0
 16 17  1  0
 17 18  1  0
 19 18  1  1
 20 19  1  0
 21 19  1  0
 21 22  1  0
 23 21  2  0
M  END
$$$$
