SAR.pdb
     RDKit          3D

 23 22  0  0  1  0  0  0  0  0999 V2000
   24.5974  -26.7798  -16.6718 O   0  0  0  0  0  0  0  0  0  0  0  0
   25.3517  -26.6142  -17.8105 C   0  0  0  0  0  0  0  0  0  0  0  0
   26.5998  -25.8082  -17.6138 C   0  0  2  0  0  0  0  0  0  0  0  0
   27.4109  -26.4856  -16.6097 N   0  0  0  0  0  0  0  0  0  0  0  0
   26.2292  -24.4415  -17.1604 C   0  0  0  0  0  0  0  0  0  0  0  0
   26.4520  -24.0823  -15.9804 O   0  0  0  0  0  0  0  0  0  0  0  0
   24.7244  -21.3224  -18.7313 C   0  0  0  0  0  0  0  0  0  0  0  0
   25.2080  -22.1810  -17.6144 C   0  0  2  0  0  0  0  0  0  0  0  0
   25.6178  -23.4941  -18.0228 N   0  0  0  0  0  0  0  0  0  0  0  0
   24.1724  -22.2606  -16.5229 C   0  0  0  0  0  0  0  0  0  0  0  0
   23.3266  -23.1905  -16.5240 O   0  0  0  0  0  0  0  0  0  0  0  0
   24.7602  -19.8529   -8.3553 N   0  0  0  0  0  0  0  0  0  0  0  0
   25.3751  -20.4691   -9.4865 C   0  0  0  0  0  0  0  0  0  0  0  0
   26.6677  -20.6895   -9.5415 N   0  0  0  0  0  0  0  0  0  0  0  0
   24.6177  -20.8799  -10.6231 N   0  0  0  0  0  0  0  0  0  0  0  0
   23.2236  -20.6055  -10.7524 C   0  0  0  0  0  0  0  0  0  0  0  0
   22.5862  -21.0621  -12.0237 C   0  0  0  0  0  0  0  0  0  0  0  0
   23.6543  -20.9800  -13.1098 C   0  0  0  0  0  0  0  0  0  0  0  0
   23.1407  -21.4504  -14.4351 C   0  0  2  0  0  0  0  0  0  0  0  0
   24.1420  -21.2918  -15.4900 N   0  0  0  0  0  0  0  0  0  0  0  0
   21.9866  -20.5688  -14.8287 C   0  0  0  0  0  0  0  0  0  0  0  0
   20.7077  -20.8760  -14.3935 O   0  0  0  0  0  0  0  0  0  0  0  0
   22.1262  -19.5479  -15.5467 O   0  0  0  0  0  0  0  0  0  0  0  0
  1  2  1  0
  3  4  1  1
  3  5  1  0
  3  2  1  0
  5  9  1  0
  5  6  2  0
  8  7  1  6
  8 10  1  0
  9  8  1  0
 10 20  1  0
 10 11  2  0
 13 12  1  0
 13 14  2  0
 15 16  1  0
 15 13  1  0
 16 17  1  0
 17 18  1  0
 19 18  1  1
 20 19  1  0
 21 19  1  0
 21 22  1  0
 23 21  2  0
M  END
$$$$
