SAR.pdb
     RDKit          3D

 23 22  0  0  1  0  0  0  0  0999 V2000
   18.3774   -9.0210  -16.1854 O   0  0  0  0  0  0  0  0  0  0  0  0
   19.5649   -8.5357  -16.6830 C   0  0  0  0  0  0  0  0  0  0  0  0
   20.7694   -8.8911  -15.8652 C   0  0  2  0  0  0  0  0  0  0  0  0
   20.8552  -10.3453  -15.8117 N   0  0  0  0  0  0  0  0  0  0  0  0
   20.6163   -8.3198  -14.5010 C   0  0  0  0  0  0  0  0  0  0  0  0
   20.0819   -8.9919  -13.5880 O   0  0  0  0  0  0  0  0  0  0  0  0
   21.6742   -5.1337  -12.7180 C   0  0  0  0  0  0  0  0  0  0  0  0
   20.9800   -6.4444  -12.8550 C   0  0  2  0  0  0  0  0  0  0  0  0
   21.0589   -7.0121  -14.1704 N   0  0  0  0  0  0  0  0  0  0  0  0
   19.5456   -6.3316  -12.4076 C   0  0  0  0  0  0  0  0  0  0  0  0
   18.6615   -5.9539  -13.2174 O   0  0  0  0  0  0  0  0  0  0  0  0
   13.5488  -11.3977   -9.4446 N   0  0  0  0  0  0  0  0  0  0  0  0
   12.9034  -10.1251   -9.4079 C   0  0  0  0  0  0  0  0  0  0  0  0
   11.6077  -10.0071   -9.2356 N   0  0  0  0  0  0  0  0  0  0  0  0
   13.6318   -8.9080   -9.5575 N   0  0  0  0  0  0  0  0  0  0  0  0
   15.0290   -8.8840   -9.8454 C   0  0  0  0  0  0  0  0  0  0  0  0
   15.6380   -7.5288   -9.9988 C   0  0  0  0  0  0  0  0  0  0  0  0
   17.0840   -7.7393  -10.4370 C   0  0  0  0  0  0  0  0  0  0  0  0
   17.7882   -6.4410  -10.6817 C   0  0  2  0  0  0  0  0  0  0  0  0
   19.1819   -6.6479  -11.0758 N   0  0  0  0  0  0  0  0  0  0  0  0
   17.8371   -5.6838   -9.3823 C   0  0  0  0  0  0  0  0  0  0  0  0
   16.7232   -4.9793   -8.9552 O   0  0  0  0  0  0  0  0  0  0  0  0
   18.8572   -5.6567   -8.6503 O   0  0  0  0  0  0  0  0  0  0  0  0
  1  2  1  0
  3  4  1  1
  3  5  1  0
  3  2  1  0
  5  9  1  0
  5  6  2  0
  8  7  1  6
  8 10  1  0
  9  8  1  0
 10 20  1  0
 10 11  2  0
 13 12  1  0
 13 14  2  0
 15 16  1  0
 15 13  1  0
 16 17  1  0
 17 18  1  0
 19 18  1  1
 20 19  1  0
 21 19  1  0
 21 22  1  0
 23 21  2  0
M  END
$$$$
