SAR.pdb
     RDKit          3D

 23 22  0  0  1  0  0  0  0  0999 V2000
   22.6139  -20.7525  -17.8721 O   0  0  0  0  0  0  0  0  0  0  0  0
   23.3836  -19.6378  -17.6309 C   0  0  0  0  0  0  0  0  0  0  0  0
   23.9676  -19.5758  -16.2521 C   0  0  2  0  0  0  0  0  0  0  0  0
   24.8580  -20.7196  -16.0965 N   0  0  0  0  0  0  0  0  0  0  0  0
   22.8656  -19.6239  -15.2550 C   0  0  0  0  0  0  0  0  0  0  0  0
   22.6728  -20.6568  -14.5718 O   0  0  0  0  0  0  0  0  0  0  0  0
   20.3153  -17.1813  -13.8523 C   0  0  0  0  0  0  0  0  0  0  0  0
   20.9491  -18.5149  -14.0485 C   0  0  2  0  0  0  0  0  0  0  0  0
   21.9950  -18.5253  -15.0308 N   0  0  0  0  0  0  0  0  0  0  0  0
   19.9057  -19.5535  -14.3689 C   0  0  0  0  0  0  0  0  0  0  0  0
   19.8451  -20.0501  -15.5221 O   0  0  0  0  0  0  0  0  0  0  0  0
   18.4073  -25.7882   -9.2393 N   0  0  0  0  0  0  0  0  0  0  0  0
   18.4640  -24.4401   -8.7738 C   0  0  0  0  0  0  0  0  0  0  0  0
   18.7214  -24.1473   -7.5206 N   0  0  0  0  0  0  0  0  0  0  0  0
   18.2426  -23.3335   -9.6460 N   0  0  0  0  0  0  0  0  0  0  0  0
   17.5246  -23.4589  -10.8725 C   0  0  0  0  0  0  0  0  0  0  0  0
   17.3071  -22.1907  -11.6311 C   0  0  0  0  0  0  0  0  0  0  0  0
   18.2179  -22.2435  -12.8538 C   0  0  0  0  0  0  0  0  0  0  0  0
   18.0466  -21.0419  -13.7302 C   0  0  2  0  0  0  0  0  0  0  0  0
   18.9867  -19.9776  -13.3781 N   0  0  0  0  0  0  0  0  0  0  0  0
   16.6744  -20.4757  -13.4840 C   0  0  0  0  0  0  0  0  0  0  0  0
   15.5647  -21.1027  -14.0270 O   0  0  0  0  0  0  0  0  0  0  0  0
   16.4796  -19.4420  -12.7977 O   0  0  0  0  0  0  0  0  0  0  0  0
  1  2  1  0
  3  4  1  1
  3  5  1  0
  3  2  1  0
  5  9  1  0
  5  6  2  0
  8  7  1  6
  8 10  1  0
  9  8  1  0
 10 20  1  0
 10 11  2  0
 13 12  1  0
 13 14  2  0
 15 16  1  0
 15 13  1  0
 16 17  1  0
 17 18  1  0
 19 18  1  1
 20 19  1  0
 21 19  1  0
 21 22  1  0
 23 21  2  0
M  END
$$$$
