SAR.pdb
     RDKit          3D

 23 22  0  0  1  0  0  0  0  0999 V2000
   24.9197  -21.1256   -7.9237 O   0  0  0  0  0  0  0  0  0  0  0  0
   24.8080  -20.7211   -9.2341 C   0  0  0  0  0  0  0  0  0  0  0  0
   25.8087  -21.3424  -10.1607 C   0  0  2  0  0  0  0  0  0  0  0  0
   27.1367  -20.9447   -9.7096 N   0  0  0  0  0  0  0  0  0  0  0  0
   25.5541  -20.8613  -11.5443 C   0  0  0  0  0  0  0  0  0  0  0  0
   25.8896  -19.7028  -11.8850 O   0  0  0  0  0  0  0  0  0  0  0  0
   24.7000  -22.3725  -14.8683 C   0  0  0  0  0  0  0  0  0  0  0  0
   24.6935  -21.2569  -13.8813 C   0  0  2  0  0  0  0  0  0  0  0  0
   24.9316  -21.6728  -12.5288 N   0  0  0  0  0  0  0  0  0  0  0  0
   23.4113  -20.4718  -13.9803 C   0  0  0  0  0  0  0  0  0  0  0  0
   22.4379  -20.7599  -13.2389 O   0  0  0  0  0  0  0  0  0  0  0  0
   18.2083  -15.0393  -15.9364 N   0  0  0  0  0  0  0  0  0  0  0  0
   19.3087  -14.1310  -15.8985 C   0  0  0  0  0  0  0  0  0  0  0  0
   19.2008  -12.9288  -15.3830 N   0  0  0  0  0  0  0  0  0  0  0  0
   20.5895  -14.4793  -16.4204 N   0  0  0  0  0  0  0  0  0  0  0  0
   20.8543  -15.7510  -17.0107 C   0  0  0  0  0  0  0  0  0  0  0  0
   20.6632  -16.9340  -16.1191 C   0  0  0  0  0  0  0  0  0  0  0  0
   22.0439  -17.5370  -15.8802 C   0  0  0  0  0  0  0  0  0  0  0  0
   21.9706  -18.8025  -15.0836 C   0  0  2  0  0  0  0  0  0  0  0  0
   23.2912  -19.4068  -14.9062 N   0  0  0  0  0  0  0  0  0  0  0  0
   21.1637  -19.8019  -15.8672 C   0  0  0  0  0  0  0  0  0  0  0  0
   19.8314  -20.0100  -15.5492 O   0  0  0  0  0  0  0  0  0  0  0  0
   21.6462  -20.4713  -16.8140 O   0  0  0  0  0  0  0  0  0  0  0  0
  1  2  1  0
  3  4  1  1
  3  5  1  0
  3  2  1  0
  5  9  1  0
  5  6  2  0
  8  7  1  6
  8 10  1  0
  9  8  1  0
 10 20  1  0
 10 11  2  0
 13 12  1  0
 13 14  2  0
 15 16  1  0
 15 13  1  0
 16 17  1  0
 17 18  1  0
 19 18  1  6
 20 19  1  0
 21 19  1  0
 21 22  1  0
 23 21  2  0
M  END
$$$$
