SAR.pdb
     RDKit          3D

 23 22  0  0  1  0  0  0  0  0999 V2000
   26.9976  -23.0952  -18.0688 O   0  0  0  0  0  0  0  0  0  0  0  0
   27.9624  -22.3715  -18.7311 C   0  0  0  0  0  0  0  0  0  0  0  0
   29.1741  -22.0568  -17.9072 C   0  0  2  0  0  0  0  0  0  0  0  0
   29.7997  -23.3210  -17.5388 N   0  0  0  0  0  0  0  0  0  0  0  0
   28.7559  -21.3012  -16.6969 C   0  0  0  0  0  0  0  0  0  0  0  0
   28.9258  -21.7882  -15.5546 O   0  0  0  0  0  0  0  0  0  0  0  0
   27.2934  -17.8711  -15.9546 C   0  0  0  0  0  0  0  0  0  0  0  0
   27.7414  -19.2540  -15.6298 C   0  0  2  0  0  0  0  0  0  0  0  0
   28.1563  -20.0167  -16.7723 N   0  0  0  0  0  0  0  0  0  0  0  0
   26.6751  -19.9868  -14.8576 C   0  0  0  0  0  0  0  0  0  0  0  0
   25.8947  -20.7725  -15.4524 O   0  0  0  0  0  0  0  0  0  0  0  0
   21.5349  -20.3217   -9.6236 N   0  0  0  0  0  0  0  0  0  0  0  0
   22.0608  -21.1761   -8.6083 C   0  0  0  0  0  0  0  0  0  0  0  0
   21.2948  -21.9854   -7.9149 N   0  0  0  0  0  0  0  0  0  0  0  0
   23.4507  -21.1976   -8.2893 N   0  0  0  0  0  0  0  0  0  0  0  0
   24.4393  -20.6200   -9.1407 C   0  0  0  0  0  0  0  0  0  0  0  0
   24.2870  -20.9033  -10.5993 C   0  0  0  0  0  0  0  0  0  0  0  0
   25.4730  -20.2519  -11.3038 C   0  0  0  0  0  0  0  0  0  0  0  0
   25.4205  -20.4518  -12.7866 C   0  0  2  0  0  0  0  0  0  0  0  0
   26.5423  -19.7974  -13.4602 N   0  0  0  0  0  0  0  0  0  0  0  0
   24.1798  -19.7770  -13.3055 C   0  0  0  0  0  0  0  0  0  0  0  0
   22.9887  -20.4820  -13.3670 O   0  0  0  0  0  0  0  0  0  0  0  0
   24.1685  -18.5828  -13.6943 O   0  0  0  0  0  0  0  0  0  0  0  0
  1  2  1  0
  3  4  1  1
  3  5  1  0
  3  2  1  0
  5  9  1  0
  5  6  2  0
  8  7  1  6
  8 10  1  0
  9  8  1  0
 10 20  1  0
 10 11  2  0
 13 12  1  0
 13 14  2  0
 15 16  1  0
 15 13  1  0
 16 17  1  0
 17 18  1  0
 19 18  1  1
 20 19  1  0
 21 19  1  0
 21 22  1  0
 23 21  2  0
M  END
$$$$
