SAR.pdb
     RDKit          3D

 23 22  0  0  1  0  0  0  0  0999 V2000
   21.3260  -20.4923  -11.5166 O   0  0  0  0  0  0  0  0  0  0  0  0
   21.3650  -19.6957  -12.6378 C   0  0  0  0  0  0  0  0  0  0  0  0
   20.6804  -20.2802  -13.8360 C   0  0  2  0  0  0  0  0  0  0  0  0
   20.2142  -21.6130  -13.4734 N   0  0  0  0  0  0  0  0  0  0  0  0
   21.6471  -20.3467  -14.9637 C   0  0  0  0  0  0  0  0  0  0  0  0
   22.3173  -21.3866  -15.1644 O   0  0  0  0  0  0  0  0  0  0  0  0
   22.5137  -18.2176  -17.9727 C   0  0  0  0  0  0  0  0  0  0  0  0
   22.7519  -19.2942  -16.9713 C   0  0  2  0  0  0  0  0  0  0  0  0
   21.8551  -19.2589  -15.8517 N   0  0  0  0  0  0  0  0  0  0  0  0
   24.1854  -19.2764  -16.5076 C   0  0  0  0  0  0  0  0  0  0  0  0
   24.5058  -18.6313  -15.4774 O   0  0  0  0  0  0  0  0  0  0  0  0
   29.6630  -25.6398  -16.1137 N   0  0  0  0  0  0  0  0  0  0  0  0
   28.3366  -25.1460  -16.2989 C   0  0  0  0  0  0  0  0  0  0  0  0
   27.3347  -25.9392  -16.5982 N   0  0  0  0  0  0  0  0  0  0  0  0
   28.0253  -23.7601  -16.1698 N   0  0  0  0  0  0  0  0  0  0  0  0
   29.0338  -22.7525  -16.1115 C   0  0  0  0  0  0  0  0  0  0  0  0
   28.5424  -21.3428  -16.0649 C   0  0  0  0  0  0  0  0  0  0  0  0
   27.1228  -21.3492  -16.6234 C   0  0  0  0  0  0  0  0  0  0  0  0
   26.5440  -19.9703  -16.6939 C   0  0  2  0  0  0  0  0  0  0  0  0
   25.1811  -19.9827  -17.2257 N   0  0  0  0  0  0  0  0  0  0  0  0
   27.3597  -19.1705  -17.6732 C   0  0  0  0  0  0  0  0  0  0  0  0
   28.5766  -18.6375  -17.2802 O   0  0  0  0  0  0  0  0  0  0  0  0
   26.9858  -18.9566  -18.8530 O   0  0  0  0  0  0  0  0  0  0  0  0
  1  2  1  0
  3  4  1  1
  3  5  1  0
  3  2  1  0
  5  9  1  0
  5  6  2  0
  8  7  1  6
  8 10  1  0
  9  8  1  0
 10 20  1  0
 10 11  2  0
 13 12  1  0
 13 14  2  0
 15 16  1  0
 15 13  1  0
 16 17  1  0
 17 18  1  0
 19 18  1  6
 20 19  1  0
 21 19  1  0
 21 22  1  0
 23 21  2  0
M  END
$$$$
