SAR.pdb
     RDKit          3D

 23 22  0  0  1  0  0  0  0  0999 V2000
   24.8028  -22.8939  -16.3040 O   0  0  0  0  0  0  0  0  0  0  0  0
   25.2610  -21.6264  -16.5812 C   0  0  0  0  0  0  0  0  0  0  0  0
   25.4747  -20.7677  -15.3717 C   0  0  2  0  0  0  0  0  0  0  0  0
   26.3441  -21.4983  -14.4577 N   0  0  0  0  0  0  0  0  0  0  0  0
   24.1596  -20.4848  -14.7381 C   0  0  0  0  0  0  0  0  0  0  0  0
   23.7875  -21.1331  -13.7321 O   0  0  0  0  0  0  0  0  0  0  0  0
   21.3844  -17.9303  -15.1390 C   0  0  0  0  0  0  0  0  0  0  0  0
   21.9831  -19.2130  -14.6755 C   0  0  2  0  0  0  0  0  0  0  0  0
   23.2779  -19.4869  -15.2300 N   0  0  0  0  0  0  0  0  0  0  0  0
   21.0395  -20.3592  -14.9318 C   0  0  0  0  0  0  0  0  0  0  0  0
   21.2190  -21.1133  -15.9214 O   0  0  0  0  0  0  0  0  0  0  0  0
   19.7357  -25.9749  -11.7943 N   0  0  0  0  0  0  0  0  0  0  0  0
   19.0368  -25.7495  -10.5703 C   0  0  0  0  0  0  0  0  0  0  0  0
   18.6972  -26.7343   -9.7719 N   0  0  0  0  0  0  0  0  0  0  0  0
   18.6670  -24.4391  -10.1459 N   0  0  0  0  0  0  0  0  0  0  0  0
   18.1905  -23.4475  -11.0545 C   0  0  0  0  0  0  0  0  0  0  0  0
   19.0289  -23.2229  -12.2700 C   0  0  0  0  0  0  0  0  0  0  0  0
   18.3219  -22.1609  -13.1065 C   0  0  0  0  0  0  0  0  0  0  0  0
   19.1200  -21.7782  -14.3140 C   0  0  2  0  0  0  0  0  0  0  0  0
   19.9454  -20.5964  -14.0640 N   0  0  0  0  0  0  0  0  0  0  0  0
   18.1596  -21.3852  -15.4036 C   0  0  0  0  0  0  0  0  0  0  0  0
   17.7481  -22.3293  -16.3303 O   0  0  0  0  0  0  0  0  0  0  0  0
   17.7028  -20.2210  -15.5187 O   0  0  0  0  0  0  0  0  0  0  0  0
  1  2  1  0
  3  4  1  1
  3  5  1  0
  3  2  1  0
  5  9  1  0
  5  6  2  0
  8  7  1  6
  8 10  1  0
  9  8  1  0
 10 20  1  0
 10 11  2  0
 13 12  1  0
 13 14  2  0
 15 16  1  0
 15 13  1  0
 16 17  1  0
 17 18  1  0
 19 18  1  1
 20 19  1  0
 21 19  1  0
 21 22  1  0
 23 21  2  0
M  END
$$$$
