SAR.pdb
     RDKit          3D

 23 22  0  0  1  0  0  0  0  0999 V2000
   23.4053  -13.6635  -19.0324 O   0  0  0  0  0  0  0  0  0  0  0  0
   24.7161  -14.0504  -18.8737 C   0  0  0  0  0  0  0  0  0  0  0  0
   25.0453  -14.5751  -17.5090 C   0  0  2  0  0  0  0  0  0  0  0  0
   24.2011  -15.7385  -17.2662 N   0  0  0  0  0  0  0  0  0  0  0  0
   24.7827  -13.5119  -16.5033 C   0  0  0  0  0  0  0  0  0  0  0  0
   23.6513  -13.4037  -15.9751 O   0  0  0  0  0  0  0  0  0  0  0  0
   26.7541  -10.6734  -14.9110 C   0  0  0  0  0  0  0  0  0  0  0  0
   25.5408  -11.4839  -15.2106 C   0  0  2  0  0  0  0  0  0  0  0  0
   25.7793  -12.5855  -16.0985 N   0  0  0  0  0  0  0  0  0  0  0  0
   24.4351  -10.6052  -15.7354 C   0  0  0  0  0  0  0  0  0  0  0  0
   24.3178  -10.4119  -16.9719 O   0  0  0  0  0  0  0  0  0  0  0  0
   16.1781  -11.4286  -15.6672 N   0  0  0  0  0  0  0  0  0  0  0  0
   16.2822  -10.0991  -16.1761 C   0  0  0  0  0  0  0  0  0  0  0  0
   15.2373   -9.4405  -16.6199 N   0  0  0  0  0  0  0  0  0  0  0  0
   17.5301   -9.4108  -16.2315 N   0  0  0  0  0  0  0  0  0  0  0  0
   18.7608  -10.0283  -15.8576 C   0  0  0  0  0  0  0  0  0  0  0  0
   19.9744   -9.1613  -15.9395 C   0  0  0  0  0  0  0  0  0  0  0  0
   21.1569  -10.0093  -15.4815 C   0  0  0  0  0  0  0  0  0  0  0  0
   22.4239   -9.2141  -15.4200 C   0  0  2  0  0  0  0  0  0  0  0  0
   23.5220   -9.9907  -14.8439 N   0  0  0  0  0  0  0  0  0  0  0  0
   22.2042   -8.0568  -14.4838 C   0  0  0  0  0  0  0  0  0  0  0  0
   21.4838   -6.9537  -14.9121 O   0  0  0  0  0  0  0  0  0  0  0  0
   22.6502   -8.0391  -13.3098 O   0  0  0  0  0  0  0  0  0  0  0  0
  1  2  1  0
  3  4  1  1
  3  5  1  0
  3  2  1  0
  5  9  1  0
  5  6  2  0
  8  7  1  6
  8 10  1  0
  9  8  1  0
 10 20  1  0
 10 11  2  0
 13 12  1  0
 13 14  2  0
 15 16  1  0
 15 13  1  0
 16 17  1  0
 17 18  1  0
 19 18  1  1
 20 19  1  0
 21 19  1  0
 21 22  1  0
 23 21  2  0
M  END
$$$$
