SWF.pdb
     RDKit          3D

 32 34  0  0  1  0  0  0  0  0999 V2000
   25.9213  -24.2789  -19.3286 O   0  0  0  0  0  0  0  0  0  0  0  0
   26.4140  -23.1903  -20.0126 C   0  0  0  0  0  0  0  0  0  0  0  0
   27.6584  -22.6712  -19.3724 C   0  0  2  0  0  0  0  0  0  0  0  0
   28.6500  -23.6582  -19.0878 N   0  0  0  0  0  0  0  0  0  0  0  0
   27.2659  -21.9977  -18.0905 C   0  0  0  0  0  0  0  0  0  0  0  0
   27.8460  -22.3864  -17.0502 O   0  0  0  0  0  0  0  0  0  0  0  0
   26.3014  -20.9918  -18.0790 N   0  0  0  0  0  0  0  0  0  0  0  0
   26.1595  -20.1461  -16.8783 C   0  0  1  0  0  0  0  0  0  0  0  0
   25.6120  -18.8469  -17.3341 C   0  0  0  0  0  0  0  0  0  0  0  0
   25.3174  -17.8406  -16.3225 C   0  0  0  0  0  0  0  0  0  0  0  0
   26.1688  -17.2356  -15.4234 C   0  0  0  0  0  0  0  0  0  0  0  0
   25.4775  -16.3802  -14.6490 N   0  0  0  0  0  0  0  0  0  0  0  0
   24.1863  -16.4279  -15.0409 C   0  0  0  0  0  0  0  0  0  0  0  0
   23.0785  -15.7505  -14.5770 C   0  0  0  0  0  0  0  0  0  0  0  0
   21.8415  -15.9542  -15.1313 C   0  0  0  0  0  0  0  0  0  0  0  0
   21.6994  -16.8521  -16.1717 C   0  0  0  0  0  0  0  0  0  0  0  0
   22.8075  -17.5228  -16.6280 C   0  0  0  0  0  0  0  0  0  0  0  0
   24.0684  -17.3179  -16.0661 C   0  0  0  0  0  0  0  0  0  0  0  0
   25.1910  -20.8559  -15.9994 C   0  0  0  0  0  0  0  0  0  0  0  0
   24.2339  -21.5386  -16.5245 O   0  0  0  0  0  0  0  0  0  0  0  0
   25.2443  -20.8432  -14.5819 N   0  0  0  0  0  0  0  0  0  0  0  0
   24.2344  -21.6083  -13.8405 C   0  0  1  0  0  0  0  0  0  0  0  0
   24.9513  -22.3464  -12.6986 C   0  0  0  0  0  0  0  0  0  0  0  0
   25.7179  -21.3698  -11.9109 C   0  0  0  0  0  0  0  0  0  0  0  0
   26.9963  -20.9766  -12.3175 C   0  0  0  0  0  0  0  0  0  0  0  0
   27.7212  -20.0416  -11.6206 C   0  0  0  0  0  0  0  0  0  0  0  0
   27.2097  -19.4497  -10.4819 C   0  0  0  0  0  0  0  0  0  0  0  0
   25.9372  -19.8380  -10.0731 C   0  0  0  0  0  0  0  0  0  0  0  0
   25.2118  -20.7736  -10.7708 C   0  0  0  0  0  0  0  0  0  0  0  0
   23.2173  -20.7366  -13.2353 C   0  0  0  0  0  0  0  0  0  0  0  0
   22.1484  -21.1877  -12.7855 O   0  0  0  0  0  0  0  0  0  0  0  0
   23.4465  -19.3819  -13.1590 O   0  0  0  0  0  0  0  0  0  0  0  0
  1  2  1  0
  3  2  1  0
  3  4  1  1
  5  6  2  0
  5  3  1  0
  7  5  1  0
  8  7  1  0
  8  9  1  6
 10  9  1  0
 11 10  2  0
 12 13  1  0
 12 11  1  0
 13 18  2  0
 14 13  1  0
 14 15  2  0
 15 16  1  0
 16 17  2  0
 18 10  1  0
 18 17  1  0
 19  8  1  0
 19 21  1  0
 20 19  2  0
 22 21  1  0
 22 30  1  0
 22 23  1  1
 24 23  1  0
 25 24  2  0
 26 25  1  0
 27 26  2  0
 27 28  1  0
 28 29  2  0
 29 24  1  0
 30 31  2  0
 30 32  1  0
M  END
$$$$
