SWF.pdb
     RDKit          3D

 32 34  0  0  1  0  0  0  0  0999 V2000
   26.9376  -20.0658  -16.8864 O   0  0  0  0  0  0  0  0  0  0  0  0
   28.2529  -20.1545  -16.4888 C   0  0  0  0  0  0  0  0  0  0  0  0
   28.5514  -21.4993  -15.9144 C   0  0  2  0  0  0  0  0  0  0  0  0
   28.3417  -22.5973  -16.8026 N   0  0  0  0  0  0  0  0  0  0  0  0
   27.6817  -21.6832  -14.7058 C   0  0  0  0  0  0  0  0  0  0  0  0
   26.7121  -22.4678  -14.8244 O   0  0  0  0  0  0  0  0  0  0  0  0
   27.9559  -21.0053  -13.5194 N   0  0  0  0  0  0  0  0  0  0  0  0
   27.1313  -21.2811  -12.3272 C   0  0  1  0  0  0  0  0  0  0  0  0
   27.8323  -20.6703  -11.1735 C   0  0  0  0  0  0  0  0  0  0  0  0
   27.1015  -20.5523   -9.9186 C   0  0  0  0  0  0  0  0  0  0  0  0
   25.7409  -20.5672   -9.6994 C   0  0  0  0  0  0  0  0  0  0  0  0
   25.4908  -20.4029   -8.3880 N   0  0  0  0  0  0  0  0  0  0  0  0
   26.6790  -20.2820   -7.7585 C   0  0  0  0  0  0  0  0  0  0  0  0
   26.9773  -20.0988   -6.4248 C   0  0  0  0  0  0  0  0  0  0  0  0
   28.2761  -20.0025   -5.9972 C   0  0  0  0  0  0  0  0  0  0  0  0
   29.3050  -20.0900   -6.9152 C   0  0  0  0  0  0  0  0  0  0  0  0
   28.9997  -20.2726   -8.2416 C   0  0  0  0  0  0  0  0  0  0  0  0
   27.6786  -20.3711   -8.6804 C   0  0  0  0  0  0  0  0  0  0  0  0
   25.8271  -20.6098  -12.5771 C   0  0  0  0  0  0  0  0  0  0  0  0
   25.7954  -19.4965  -13.2231 O   0  0  0  0  0  0  0  0  0  0  0  0
   24.5741  -21.1196  -12.1497 N   0  0  0  0  0  0  0  0  0  0  0  0
   23.3538  -20.5323  -12.7163 C   0  0  1  0  0  0  0  0  0  0  0  0
   23.3764  -20.7789  -14.2333 C   0  0  0  0  0  0  0  0  0  0  0  0
   22.1673  -20.1896  -14.8271 C   0  0  0  0  0  0  0  0  0  0  0  0
   22.1650  -18.8609  -15.2617 C   0  0  0  0  0  0  0  0  0  0  0  0
   21.0616  -18.2945  -15.8507 C   0  0  0  0  0  0  0  0  0  0  0  0
   19.9026  -19.0230  -16.0374 C   0  0  0  0  0  0  0  0  0  0  0  0
   19.9000  -20.3464  -15.6063 C   0  0  0  0  0  0  0  0  0  0  0  0
   21.0045  -20.9130  -15.0171 C   0  0  0  0  0  0  0  0  0  0  0  0
   22.1389  -21.1643  -12.1824 C   0  0  0  0  0  0  0  0  0  0  0  0
   22.0524  -22.3960  -12.0278 O   0  0  0  0  0  0  0  0  0  0  0  0
   21.0624  -20.3785  -11.8401 O   0  0  0  0  0  0  0  0  0  0  0  0
  1  2  1  0
  3  2  1  0
  3  4  1  6
  5  6  2  0
  5  3  1  0
  7  5  1  0
  8  7  1  0
  8  9  1  1
 10  9  1  0
 11 10  2  0
 12 13  1  0
 12 11  1  0
 13 18  2  0
 14 13  1  0
 14 15  2  0
 15 16  1  0
 16 17  2  0
 18 10  1  0
 18 17  1  0
 19  8  1  0
 19 21  1  0
 20 19  2  0
 22 21  1  0
 22 30  1  0
 22 23  1  6
 24 23  1  0
 25 24  2  0
 26 25  1  0
 27 26  2  0
 27 28  1  0
 28 29  2  0
 29 24  1  0
 30 31  2  0
 30 32  1  0
M  END
$$$$
