SWF.pdb
     RDKit          3D

 32 34  0  0  1  0  0  0  0  0999 V2000
   11.7482  -16.0995   10.0672 O   0  0  0  0  0  0  0  0  0  0  0  0
   12.2641  -16.2315    8.7975 C   0  0  0  0  0  0  0  0  0  0  0  0
   12.2559  -14.9253    8.0754 C   0  0  2  0  0  0  0  0  0  0  0  0
   11.1270  -14.7085    7.2287 N   0  0  0  0  0  0  0  0  0  0  0  0
   13.5031  -14.8548    7.2443 C   0  0  0  0  0  0  0  0  0  0  0  0
   13.4212  -15.2822    6.0693 O   0  0  0  0  0  0  0  0  0  0  0  0
   14.6841  -14.3364    7.7721 N   0  0  0  0  0  0  0  0  0  0  0  0
   15.8817  -14.2591    6.9137 C   0  0  1  0  0  0  0  0  0  0  0  0
   16.7107  -13.1482    7.4374 C   0  0  0  0  0  0  0  0  0  0  0  0
   17.7382  -12.5963    6.5642 C   0  0  0  0  0  0  0  0  0  0  0  0
   17.6583  -12.2623    5.2295 C   0  0  0  0  0  0  0  0  0  0  0  0
   18.8504  -11.8079    4.8034 N   0  0  0  0  0  0  0  0  0  0  0  0
   19.6997  -11.8458    5.8523 C   0  0  0  0  0  0  0  0  0  0  0  0
   21.0285  -11.4904    5.9487 C   0  0  0  0  0  0  0  0  0  0  0  0
   21.7087  -11.6109    7.1326 C   0  0  0  0  0  0  0  0  0  0  0  0
   21.0550  -12.0962    8.2489 C   0  0  0  0  0  0  0  0  0  0  0  0
   19.7316  -12.4479    8.1447 C   0  0  0  0  0  0  0  0  0  0  0  0
   19.0359  -12.3265    6.9410 C   0  0  0  0  0  0  0  0  0  0  0  0
   16.5754  -15.5657    7.0737 C   0  0  0  0  0  0  0  0  0  0  0  0
   16.6375  -16.1176    8.2354 O   0  0  0  0  0  0  0  0  0  0  0  0
   17.1896  -16.2769    6.0109 N   0  0  0  0  0  0  0  0  0  0  0  0
   17.8152  -17.5709    6.3094 C   0  0  1  0  0  0  0  0  0  0  0  0
   17.2711  -18.5972    5.3027 C   0  0  0  0  0  0  0  0  0  0  0  0
   17.3634  -18.0289    3.9499 C   0  0  0  0  0  0  0  0  0  0  0  0
   18.5342  -18.1701    3.1989 C   0  0  0  0  0  0  0  0  0  0  0  0
   18.6370  -17.6795    1.9206 C   0  0  0  0  0  0  0  0  0  0  0  0
   17.5782  -17.0223    1.3240 C   0  0  0  0  0  0  0  0  0  0  0  0
   16.4106  -16.8792    2.0677 C   0  0  0  0  0  0  0  0  0  0  0  0
   16.3078  -17.3705    3.3469 C   0  0  0  0  0  0  0  0  0  0  0  0
   19.2759  -17.5262    6.1513 C   0  0  0  0  0  0  0  0  0  0  0  0
   19.9946  -18.5107    6.4017 O   0  0  0  0  0  0  0  0  0  0  0  0
   19.8735  -16.3667    5.7132 O   0  0  0  0  0  0  0  0  0  0  0  0
  1  2  1  0
  3  2  1  0
  3  4  1  6
  5  6  2  0
  5  3  1  0
  7  5  1  0
  8  7  1  0
  8  9  1  1
 10  9  1  0
 11 10  2  0
 12 13  1  0
 12 11  1  0
 13 18  2  0
 14 13  1  0
 14 15  2  0
 15 16  1  0
 16 17  2  0
 18 10  1  0
 18 17  1  0
 19  8  1  0
 19 21  1  0
 20 19  2  0
 22 21  1  0
 22 30  1  0
 22 23  1  6
 24 23  1  0
 25 24  2  0
 26 25  1  0
 27 26  2  0
 27 28  1  0
 28 29  2  0
 29 24  1  0
 30 31  2  0
 30 32  1  0
M  END
$$$$
