SWF.pdb
     RDKit          3D

 32 34  0  0  1  0  0  0  0  0999 V2000
   16.2284  -11.1694  -18.2549 O   0  0  0  0  0  0  0  0  0  0  0  0
   17.2710  -10.8643  -17.4089 C   0  0  0  0  0  0  0  0  0  0  0  0
   18.0370  -12.0899  -17.0359 C   0  0  2  0  0  0  0  0  0  0  0  0
   17.3071  -13.0513  -16.2734 N   0  0  0  0  0  0  0  0  0  0  0  0
   19.2360  -11.6562  -16.2451 C   0  0  0  0  0  0  0  0  0  0  0  0
   19.0936  -11.5817  -15.0025 O   0  0  0  0  0  0  0  0  0  0  0  0
   20.4393  -11.3555  -16.8806 N   0  0  0  0  0  0  0  0  0  0  0  0
   21.5724  -10.8595  -16.0760 C   0  0  1  0  0  0  0  0  0  0  0  0
   22.8026  -11.4245  -16.6784 C   0  0  0  0  0  0  0  0  0  0  0  0
   24.0821  -11.0441  -16.0946 C   0  0  0  0  0  0  0  0  0  0  0  0
   24.5076  -11.1483  -14.7878 C   0  0  0  0  0  0  0  0  0  0  0  0
   25.7538  -10.6547  -14.6757 N   0  0  0  0  0  0  0  0  0  0  0  0
   26.1367  -10.2326  -15.8997 C   0  0  0  0  0  0  0  0  0  0  0  0
   27.3135   -9.6539  -16.3256 C   0  0  0  0  0  0  0  0  0  0  0  0
   27.4930   -9.2991  -17.6375 C   0  0  0  0  0  0  0  0  0  0  0  0
   26.4800   -9.5237  -18.5499 C   0  0  0  0  0  0  0  0  0  0  0  0
   25.3110  -10.1005  -18.1178 C   0  0  0  0  0  0  0  0  0  0  0  0
   25.1249  -10.4630  -16.7830 C   0  0  0  0  0  0  0  0  0  0  0  0
   21.5425   -9.3779  -16.2109 C   0  0  0  0  0  0  0  0  0  0  0  0
   21.2216   -8.8458  -17.3386 O   0  0  0  0  0  0  0  0  0  0  0  0
   21.8448   -8.4761  -15.1585 N   0  0  0  0  0  0  0  0  0  0  0  0
   21.8741   -7.0396  -15.4597 C   0  0  1  0  0  0  0  0  0  0  0  0
   21.0791   -6.3148  -14.3617 C   0  0  0  0  0  0  0  0  0  0  0  0
   21.0714   -4.8741  -14.6550 C   0  0  0  0  0  0  0  0  0  0  0  0
   20.1088   -4.3287  -15.5097 C   0  0  0  0  0  0  0  0  0  0  0  0
   20.0564   -2.9825  -15.7748 C   0  0  0  0  0  0  0  0  0  0  0  0
   20.9611   -2.1094  -15.2019 C   0  0  0  0  0  0  0  0  0  0  0  0
   21.9214   -2.6477  -14.3504 C   0  0  0  0  0  0  0  0  0  0  0  0
   21.9734   -3.9950  -14.0850 C   0  0  0  0  0  0  0  0  0  0  0  0
   23.2418   -6.5014  -15.4453 C   0  0  0  0  0  0  0  0  0  0  0  0
   24.0056   -6.6732  -14.4780 O   0  0  0  0  0  0  0  0  0  0  0  0
   23.6988   -5.7870  -16.5289 O   0  0  0  0  0  0  0  0  0  0  0  0
  1  2  1  0
  3  2  1  0
  3  4  1  1
  5  6  2  0
  5  3  1  0
  7  5  1  0
  8  7  1  0
  8  9  1  6
 10  9  1  0
 11 10  2  0
 12 13  1  0
 12 11  1  0
 13 18  2  0
 14 13  1  0
 14 15  2  0
 15 16  1  0
 16 17  2  0
 18 10  1  0
 18 17  1  0
 19  8  1  0
 19 21  1  0
 20 19  2  0
 22 21  1  0
 22 30  1  0
 22 23  1  1
 24 23  1  0
 25 24  2  0
 26 25  1  0
 27 26  2  0
 27 28  1  0
 28 29  2  0
 29 24  1  0
 30 31  2  0
 30 32  1  0
M  END
$$$$
