SWF.pdb
     RDKit          3D

 32 34  0  0  1  0  0  0  0  0999 V2000
   26.2614  -18.9676  -14.8539 O   0  0  0  0  0  0  0  0  0  0  0  0
   27.4120  -18.9182  -14.0992 C   0  0  0  0  0  0  0  0  0  0  0  0
   27.8573  -20.2878  -13.7074 C   0  0  2  0  0  0  0  0  0  0  0  0
   28.0299  -21.2014  -14.7909 N   0  0  0  0  0  0  0  0  0  0  0  0
   26.8355  -20.8476  -12.7622 C   0  0  0  0  0  0  0  0  0  0  0  0
   26.2329  -21.8817  -13.1329 O   0  0  0  0  0  0  0  0  0  0  0  0
   26.5836  -20.2324  -11.5373 N   0  0  0  0  0  0  0  0  0  0  0  0
   25.7507  -20.9315  -10.5399 C   0  0  1  0  0  0  0  0  0  0  0  0
   26.1502  -20.4114   -9.2112 C   0  0  0  0  0  0  0  0  0  0  0  0
   27.4908  -20.7235   -8.7338 C   0  0  0  0  0  0  0  0  0  0  0  0
   28.5054  -21.4037   -9.3721 C   0  0  0  0  0  0  0  0  0  0  0  0
   29.5741  -21.4911   -8.5600 N   0  0  0  0  0  0  0  0  0  0  0  0
   29.2578  -20.8728   -7.4022 C   0  0  0  0  0  0  0  0  0  0  0  0
   29.9949  -20.6815   -6.2527 C   0  0  0  0  0  0  0  0  0  0  0  0
   29.4689  -20.0120   -5.1784 C   0  0  0  0  0  0  0  0  0  0  0  0
   28.1795  -19.5200   -5.2456 C   0  0  0  0  0  0  0  0  0  0  0  0
   27.4520  -19.7146   -6.3940 C   0  0  0  0  0  0  0  0  0  0  0  0
   27.9844  -20.3956   -7.4897 C   0  0  0  0  0  0  0  0  0  0  0  0
   24.3456  -20.5604  -10.8593 C   0  0  0  0  0  0  0  0  0  0  0  0
   23.8421  -19.4827  -10.3666 O   0  0  0  0  0  0  0  0  0  0  0  0
   23.4907  -21.3235  -11.6956 N   0  0  0  0  0  0  0  0  0  0  0  0
   22.1376  -20.8168  -11.9552 C   0  0  1  0  0  0  0  0  0  0  0  0
   22.2725  -19.5031  -12.7417 C   0  0  0  0  0  0  0  0  0  0  0  0
   22.6306  -19.8181  -14.1325 C   0  0  0  0  0  0  0  0  0  0  0  0
   21.8027  -20.6314  -14.9119 C   0  0  0  0  0  0  0  0  0  0  0  0
   22.0943  -20.9146  -16.2234 C   0  0  0  0  0  0  0  0  0  0  0  0
   23.2265  -20.4019  -16.8267 C   0  0  0  0  0  0  0  0  0  0  0  0
   24.0540  -19.5916  -16.0547 C   0  0  0  0  0  0  0  0  0  0  0  0
   23.7617  -19.3082  -14.7422 C   0  0  0  0  0  0  0  0  0  0  0  0
   21.3494  -21.7465  -12.7768 C   0  0  0  0  0  0  0  0  0  0  0  0
   20.1548  -21.5310  -13.0505 O   0  0  0  0  0  0  0  0  0  0  0  0
   21.9423  -22.8896  -13.2620 O   0  0  0  0  0  0  0  0  0  0  0  0
  1  2  1  0
  3  2  1  0
  3  4  1  6
  5  6  2  0
  5  3  1  0
  7  5  1  0
  8  7  1  0
  8  9  1  1
 10  9  1  0
 11 10  2  0
 12 13  1  0
 12 11  1  0
 13 18  2  0
 14 13  1  0
 14 15  2  0
 15 16  1  0
 16 17  2  0
 18 10  1  0
 18 17  1  0
 19  8  1  0
 19 21  1  0
 20 19  2  0
 22 21  1  0
 22 30  1  0
 22 23  1  6
 24 23  1  0
 25 24  2  0
 26 25  1  0
 27 26  2  0
 27 28  1  0
 28 29  2  0
 29 24  1  0
 30 31  2  0
 30 32  1  0
M  END
$$$$
