SWF.pdb
     RDKit          3D

 32 34  0  0  1  0  0  0  0  0999 V2000
   26.8923  -21.7766  -18.4559 O   0  0  0  0  0  0  0  0  0  0  0  0
   26.4103  -22.5164  -17.3994 C   0  0  0  0  0  0  0  0  0  0  0  0
   27.4782  -22.7674  -16.3873 C   0  0  2  0  0  0  0  0  0  0  0  0
   28.1609  -24.0139  -16.5237 N   0  0  0  0  0  0  0  0  0  0  0  0
   26.8429  -22.7111  -15.0293 C   0  0  0  0  0  0  0  0  0  0  0  0
   26.4060  -23.7907  -14.5673 O   0  0  0  0  0  0  0  0  0  0  0  0
   26.7529  -21.5073  -14.3328 N   0  0  0  0  0  0  0  0  0  0  0  0
   26.0518  -21.4790  -13.0348 C   0  0  1  0  0  0  0  0  0  0  0  0
   26.6225  -20.3477  -12.2666 C   0  0  0  0  0  0  0  0  0  0  0  0
   27.6868  -20.6398  -11.3154 C   0  0  0  0  0  0  0  0  0  0  0  0
   28.9976  -20.9903  -11.5569 C   0  0  0  0  0  0  0  0  0  0  0  0
   29.6345  -21.1961  -10.3903 N   0  0  0  0  0  0  0  0  0  0  0  0
   28.7455  -20.9814   -9.3971 C   0  0  0  0  0  0  0  0  0  0  0  0
   28.8890  -21.0568   -8.0278 C   0  0  0  0  0  0  0  0  0  0  0  0
   27.8365  -20.7916   -7.1906 C   0  0  0  0  0  0  0  0  0  0  0  0
   26.6108  -20.4430   -7.7247 C   0  0  0  0  0  0  0  0  0  0  0  0
   26.4760  -20.3700   -9.0894 C   0  0  0  0  0  0  0  0  0  0  0  0
   27.5454  -20.6393   -9.9447 C   0  0  0  0  0  0  0  0  0  0  0  0
   24.6193  -21.2378  -13.3574 C   0  0  0  0  0  0  0  0  0  0  0  0
   24.3057  -20.4008  -14.2840 O   0  0  0  0  0  0  0  0  0  0  0  0
   23.5367  -21.8829  -12.7060 N   0  0  0  0  0  0  0  0  0  0  0  0
   22.1709  -21.5423  -13.1229 C   0  0  1  0  0  0  0  0  0  0  0  0
   21.2614  -22.7269  -12.7593 C   0  0  0  0  0  0  0  0  0  0  0  0
   19.8809  -22.4004  -13.1458 C   0  0  0  0  0  0  0  0  0  0  0  0
   18.9765  -21.9083  -12.2001 C   0  0  0  0  0  0  0  0  0  0  0  0
   17.6916  -21.5629  -12.5395 C   0  0  0  0  0  0  0  0  0  0  0  0
   17.2410  -21.6902  -13.8393 C   0  0  0  0  0  0  0  0  0  0  0  0
   18.1378  -22.1798  -14.7844 C   0  0  0  0  0  0  0  0  0  0  0  0
   19.4237  -22.5251  -14.4445 C   0  0  0  0  0  0  0  0  0  0  0  0
   21.6592  -20.3580  -12.4187 C   0  0  0  0  0  0  0  0  0  0  0  0
   20.9740  -19.4947  -12.9966 O   0  0  0  0  0  0  0  0  0  0  0  0
   21.9402  -20.1920  -11.0819 O   0  0  0  0  0  0  0  0  0  0  0  0
  1  2  1  0
  3  2  1  0
  3  4  1  6
  5  6  2  0
  5  3  1  0
  7  5  1  0
  8  7  1  0
  8  9  1  1
 10  9  1  0
 11 10  2  0
 12 13  1  0
 12 11  1  0
 13 18  2  0
 14 13  1  0
 14 15  2  0
 15 16  1  0
 16 17  2  0
 18 10  1  0
 18 17  1  0
 19  8  1  0
 19 21  1  0
 20 19  2  0
 22 21  1  0
 22 30  1  0
 22 23  1  1
 24 23  1  0
 25 24  2  0
 26 25  1  0
 27 26  2  0
 27 28  1  0
 28 29  2  0
 29 24  1  0
 30 31  2  0
 30 32  1  0
M  END
$$$$
