SWF.pdb
     RDKit          3D

 32 34  0  0  1  0  0  0  0  0999 V2000
   27.5250  -18.5734  -14.1887 O   0  0  0  0  0  0  0  0  0  0  0  0
   28.6384  -18.7840  -13.4066 C   0  0  0  0  0  0  0  0  0  0  0  0
   29.0226  -20.2262  -13.3952 C   0  0  2  0  0  0  0  0  0  0  0  0
   29.1777  -20.8217  -14.6835 N   0  0  0  0  0  0  0  0  0  0  0  0
   27.9634  -20.9752  -12.6416 C   0  0  0  0  0  0  0  0  0  0  0  0
   27.2754  -21.7906  -13.2987 O   0  0  0  0  0  0  0  0  0  0  0  0
   27.7701  -20.7598  -11.2783 N   0  0  0  0  0  0  0  0  0  0  0  0
   26.7378  -21.5382  -10.5671 C   0  0  1  0  0  0  0  0  0  0  0  0
   27.2260  -21.7273   -9.1810 C   0  0  0  0  0  0  0  0  0  0  0  0
   26.9907  -20.6535   -8.2248 C   0  0  0  0  0  0  0  0  0  0  0  0
   26.1827  -19.5434   -8.3444 C   0  0  0  0  0  0  0  0  0  0  0  0
   26.2773  -18.7915   -7.2331 N   0  0  0  0  0  0  0  0  0  0  0  0
   27.1400  -19.4071   -6.3966 C   0  0  0  0  0  0  0  0  0  0  0  0
   27.5801  -19.0558   -5.1380 C   0  0  0  0  0  0  0  0  0  0  0  0
   28.4720  -19.8418   -4.4556 C   0  0  0  0  0  0  0  0  0  0  0  0
   28.9392  -21.0055   -5.0358 C   0  0  0  0  0  0  0  0  0  0  0  0
   28.4960  -21.3484   -6.2896 C   0  0  0  0  0  0  0  0  0  0  0  0
   27.5880  -20.5506   -6.9872 C   0  0  0  0  0  0  0  0  0  0  0  0
   25.5115  -20.6957  -10.5921 C   0  0  0  0  0  0  0  0  0  0  0  0
   25.6184  -19.4126  -10.5992 O   0  0  0  0  0  0  0  0  0  0  0  0
   24.1905  -21.2124  -10.6146 N   0  0  0  0  0  0  0  0  0  0  0  0
   23.1869  -20.5219  -11.4336 C   0  0  1  0  0  0  0  0  0  0  0  0
   23.6537  -20.5838  -12.8969 C   0  0  0  0  0  0  0  0  0  0  0  0
   22.6586  -19.9060  -13.7407 C   0  0  0  0  0  0  0  0  0  0  0  0
   21.6160  -20.6285  -14.3284 C   0  0  0  0  0  0  0  0  0  0  0  0
   20.6534  -20.0169  -15.0930 C   0  0  0  0  0  0  0  0  0  0  0  0
   20.6798  -18.6530  -15.3120 C   0  0  0  0  0  0  0  0  0  0  0  0
   21.7160  -17.9294  -14.7290 C   0  0  0  0  0  0  0  0  0  0  0  0
   22.6791  -18.5418  -13.9636 C   0  0  0  0  0  0  0  0  0  0  0  0
   21.8718  -21.1743  -11.3598 C   0  0  0  0  0  0  0  0  0  0  0  0
   21.7323  -22.3957  -11.5528 O   0  0  0  0  0  0  0  0  0  0  0  0
   20.7583  -20.4203  -11.0683 O   0  0  0  0  0  0  0  0  0  0  0  0
  1  2  1  0
  3  2  1  0
  3  4  1  6
  5  6  2  0
  5  3  1  0
  7  5  1  0
  8  7  1  0
  8  9  1  1
 10  9  1  0
 11 10  2  0
 12 13  1  0
 12 11  1  0
 13 18  2  0
 14 13  1  0
 14 15  2  0
 15 16  1  0
 16 17  2  0
 18 10  1  0
 18 17  1  0
 19  8  1  0
 19 21  1  0
 20 19  2  0
 22 21  1  0
 22 30  1  0
 22 23  1  6
 24 23  1  0
 25 24  2  0
 26 25  1  0
 27 26  2  0
 27 28  1  0
 28 29  2  0
 29 24  1  0
 30 31  2  0
 30 32  1  0
M  END
$$$$
