SWF.pdb
     RDKit          3D

 32 34  0  0  1  0  0  0  0  0999 V2000
   27.2569  -26.0470  -17.7491 O   0  0  0  0  0  0  0  0  0  0  0  0
   27.7719  -24.8704  -18.2453 C   0  0  0  0  0  0  0  0  0  0  0  0
   29.0623  -24.5251  -17.5794 C   0  0  2  0  0  0  0  0  0  0  0  0
   29.7341  -25.6201  -16.9564 N   0  0  0  0  0  0  0  0  0  0  0  0
   28.7754  -23.4810  -16.5409 C   0  0  0  0  0  0  0  0  0  0  0  0
   28.8050  -23.8537  -15.3450 O   0  0  0  0  0  0  0  0  0  0  0  0
   28.4920  -22.1670  -16.9092 N   0  0  0  0  0  0  0  0  0  0  0  0
   28.2369  -21.1650  -15.8566 C   0  0  1  0  0  0  0  0  0  0  0  0
   28.3481  -19.8343  -16.4989 C   0  0  0  0  0  0  0  0  0  0  0  0
   27.9095  -18.6726  -15.7369 C   0  0  0  0  0  0  0  0  0  0  0  0
   27.7527  -18.5342  -14.3746 C   0  0  0  0  0  0  0  0  0  0  0  0
   27.3021  -17.2985  -14.0930 N   0  0  0  0  0  0  0  0  0  0  0  0
   27.1668  -16.6376  -15.2625 C   0  0  0  0  0  0  0  0  0  0  0  0
   26.7443  -15.3520  -15.5270 C   0  0  0  0  0  0  0  0  0  0  0  0
   26.6844  -14.8774  -16.8116 C   0  0  0  0  0  0  0  0  0  0  0  0
   27.0525  -15.6983  -17.8603 C   0  0  0  0  0  0  0  0  0  0  0  0
   27.4721  -16.9774  -17.5885 C   0  0  0  0  0  0  0  0  0  0  0  0
   27.5345  -17.4638  -16.2820 C   0  0  0  0  0  0  0  0  0  0  0  0
   26.8473  -21.4187  -15.3890 C   0  0  0  0  0  0  0  0  0  0  0  0
   25.9612  -21.8436  -16.2210 O   0  0  0  0  0  0  0  0  0  0  0  0
   26.4089  -21.2276  -14.0534 N   0  0  0  0  0  0  0  0  0  0  0  0
   25.0043  -21.5112  -13.7345 C   0  0  1  0  0  0  0  0  0  0  0  0
   24.9146  -21.7943  -12.2264 C   0  0  0  0  0  0  0  0  0  0  0  0
   23.4976  -21.8523  -11.8386 C   0  0  0  0  0  0  0  0  0  0  0  0
   22.7297  -22.9855  -12.1227 C   0  0  0  0  0  0  0  0  0  0  0  0
   21.4138  -23.0813  -11.7425 C   0  0  0  0  0  0  0  0  0  0  0  0
   20.7944  -22.0525  -11.0593 C   0  0  0  0  0  0  0  0  0  0  0  0
   21.5549  -20.9221  -10.7743 C   0  0  0  0  0  0  0  0  0  0  0  0
   22.8719  -20.8267  -11.1547 C   0  0  0  0  0  0  0  0  0  0  0  0
   24.1314  -20.3644  -14.0231 C   0  0  0  0  0  0  0  0  0  0  0  0
   23.1347  -20.4663  -14.7612 O   0  0  0  0  0  0  0  0  0  0  0  0
   24.4168  -19.1398  -13.4641 O   0  0  0  0  0  0  0  0  0  0  0  0
  1  2  1  0
  3  2  1  0
  3  4  1  1
  5  6  2  0
  5  3  1  0
  7  5  1  0
  8  7  1  0
  8  9  1  6
 10  9  1  0
 11 10  2  0
 12 13  1  0
 12 11  1  0
 13 18  2  0
 14 13  1  0
 14 15  2  0
 15 16  1  0
 16 17  2  0
 18 10  1  0
 18 17  1  0
 19  8  1  0
 19 21  1  0
 20 19  2  0
 22 21  1  0
 22 30  1  0
 22 23  1  1
 24 23  1  0
 25 24  2  0
 26 25  1  0
 27 26  2  0
 27 28  1  0
 28 29  2  0
 29 24  1  0
 30 31  2  0
 30 32  1  0
M  END
$$$$
