SWF.pdb
     RDKit          3D

 32 34  0  0  1  0  0  0  0  0999 V2000
   29.1897  -25.3067  -15.9432 O   0  0  0  0  0  0  0  0  0  0  0  0
   29.4480  -24.2095  -16.7339 C   0  0  0  0  0  0  0  0  0  0  0  0
   30.5042  -23.3465  -16.1276 C   0  0  2  0  0  0  0  0  0  0  0  0
   31.4470  -24.0323  -15.3035 N   0  0  0  0  0  0  0  0  0  0  0  0
   29.8189  -22.2954  -15.3052 C   0  0  0  0  0  0  0  0  0  0  0  0
   30.1415  -22.2278  -14.0963 O   0  0  0  0  0  0  0  0  0  0  0  0
   28.8730  -21.4462  -15.8766 N   0  0  0  0  0  0  0  0  0  0  0  0
   28.2597  -20.3917  -15.0467 C   0  0  1  0  0  0  0  0  0  0  0  0
   27.5754  -19.4620  -15.9757 C   0  0  0  0  0  0  0  0  0  0  0  0
   26.6746  -18.4699  -15.4039 C   0  0  0  0  0  0  0  0  0  0  0  0
   26.9752  -17.2760  -14.7846 C   0  0  0  0  0  0  0  0  0  0  0  0
   25.8411  -16.6765  -14.3802 N   0  0  0  0  0  0  0  0  0  0  0  0
   24.8103  -17.4736  -14.7334 C   0  0  0  0  0  0  0  0  0  0  0  0
   23.4515  -17.3214  -14.5548 C   0  0  0  0  0  0  0  0  0  0  0  0
   22.5688  -18.2700  -15.0018 C   0  0  0  0  0  0  0  0  0  0  0  0
   23.0452  -19.3978  -15.6421 C   0  0  0  0  0  0  0  0  0  0  0  0
   24.3998  -19.5420  -15.8161 C   0  0  0  0  0  0  0  0  0  0  0  0
   25.3014  -18.5783  -15.3624 C   0  0  0  0  0  0  0  0  0  0  0  0
   27.2803  -21.0892  -14.1702 C   0  0  0  0  0  0  0  0  0  0  0  0
   26.8317  -22.2474  -14.5094 O   0  0  0  0  0  0  0  0  0  0  0  0
   26.7898  -20.5631  -12.9475 N   0  0  0  0  0  0  0  0  0  0  0  0
   25.8387  -21.3708  -12.1740 C   0  0  1  0  0  0  0  0  0  0  0  0
   26.6479  -22.2406  -11.1987 C   0  0  0  0  0  0  0  0  0  0  0  0
   27.2568  -21.3708  -10.1816 C   0  0  0  0  0  0  0  0  0  0  0  0
   26.4559  -20.5834   -9.3492 C   0  0  0  0  0  0  0  0  0  0  0  0
   26.9948  -19.7879   -8.3684 C   0  0  0  0  0  0  0  0  0  0  0  0
   28.3606  -19.7356   -8.1661 C   0  0  0  0  0  0  0  0  0  0  0  0
   29.1621  -20.5177   -8.9924 C   0  0  0  0  0  0  0  0  0  0  0  0
   28.6224  -21.3140   -9.9737 C   0  0  0  0  0  0  0  0  0  0  0  0
   24.9298  -20.5366  -11.3749 C   0  0  0  0  0  0  0  0  0  0  0  0
   23.9423  -21.0160  -10.7887 O   0  0  0  0  0  0  0  0  0  0  0  0
   25.1713  -19.1864  -11.2657 O   0  0  0  0  0  0  0  0  0  0  0  0
  1  2  1  0
  3  2  1  0
  3  4  1  1
  5  6  2  0
  5  3  1  0
  7  5  1  0
  8  7  1  0
  8  9  1  6
 10  9  1  0
 11 10  2  0
 12 13  1  0
 12 11  1  0
 13 18  2  0
 14 13  1  0
 14 15  2  0
 15 16  1  0
 16 17  2  0
 18 10  1  0
 18 17  1  0
 19  8  1  0
 19 21  1  0
 20 19  2  0
 22 21  1  0
 22 30  1  0
 22 23  1  1
 24 23  1  0
 25 24  2  0
 26 25  1  0
 27 26  2  0
 27 28  1  0
 28 29  2  0
 29 24  1  0
 30 31  2  0
 30 32  1  0
M  END
$$$$
