SWF.pdb
     RDKit          3D

 32 34  0  0  1  0  0  0  0  0999 V2000
   23.4831  -21.5494  -19.5492 O   0  0  0  0  0  0  0  0  0  0  0  0
   23.8757  -20.3505  -20.1009 C   0  0  0  0  0  0  0  0  0  0  0  0
   25.1892  -19.9082  -19.5468 C   0  0  2  0  0  0  0  0  0  0  0  0
   26.2952  -20.7542  -19.8621 N   0  0  0  0  0  0  0  0  0  0  0  0
   25.0522  -19.8287  -18.0549 C   0  0  0  0  0  0  0  0  0  0  0  0
   25.9242  -20.4208  -17.3774 O   0  0  0  0  0  0  0  0  0  0  0  0
   23.9996  -19.1262  -17.4712 N   0  0  0  0  0  0  0  0  0  0  0  0
   24.0285  -18.8636  -16.0195 C   0  0  1  0  0  0  0  0  0  0  0  0
   23.3017  -17.5907  -15.8020 C   0  0  0  0  0  0  0  0  0  0  0  0
   21.8866  -17.5483  -16.1463 C   0  0  0  0  0  0  0  0  0  0  0  0
   20.7992  -17.9668  -15.4104 C   0  0  0  0  0  0  0  0  0  0  0  0
   19.6708  -17.7678  -16.1149 N   0  0  0  0  0  0  0  0  0  0  0  0
   20.0208  -17.2239  -17.3000 C   0  0  0  0  0  0  0  0  0  0  0  0
   19.2498  -16.8307  -18.3735 C   0  0  0  0  0  0  0  0  0  0  0  0
   19.8227  -16.2915  -19.4959 C   0  0  0  0  0  0  0  0  0  0  0  0
   21.1946  -16.1383  -19.5556 C   0  0  0  0  0  0  0  0  0  0  0  0
   21.9554  -16.5324  -18.4823 C   0  0  0  0  0  0  0  0  0  0  0  0
   21.3755  -17.0817  -17.3379 C   0  0  0  0  0  0  0  0  0  0  0  0
   23.3092  -20.0043  -15.3908 C   0  0  0  0  0  0  0  0  0  0  0  0
   22.5242  -20.7349  -16.1033 O   0  0  0  0  0  0  0  0  0  0  0  0
   23.4285  -20.3650  -14.0239 N   0  0  0  0  0  0  0  0  0  0  0  0
   22.6712  -21.5267  -13.5420 C   0  0  1  0  0  0  0  0  0  0  0  0
   23.6120  -22.3673  -12.6639 C   0  0  0  0  0  0  0  0  0  0  0  0
   24.2523  -21.4858  -11.6767 C   0  0  0  0  0  0  0  0  0  0  0  0
   23.5641  -21.0912  -10.5255 C   0  0  0  0  0  0  0  0  0  0  0  0
   24.1485  -20.2967   -9.5702 C   0  0  0  0  0  0  0  0  0  0  0  0
   25.4495  -19.8538   -9.7125 C   0  0  0  0  0  0  0  0  0  0  0  0
   26.1386  -20.2440  -10.8571 C   0  0  0  0  0  0  0  0  0  0  0  0
   25.5536  -21.0394  -11.8128 C   0  0  0  0  0  0  0  0  0  0  0  0
   21.5249  -21.1310  -12.7114 C   0  0  0  0  0  0  0  0  0  0  0  0
   20.6857  -21.9587  -12.3123 O   0  0  0  0  0  0  0  0  0  0  0  0
   21.3686  -19.8100  -12.3596 O   0  0  0  0  0  0  0  0  0  0  0  0
  1  2  1  0
  3  2  1  0
  3  4  1  1
  5  6  2  0
  5  3  1  0
  7  5  1  0
  8  7  1  0
  8  9  1  6
 10  9  1  0
 11 10  2  0
 12 13  1  0
 12 11  1  0
 13 18  2  0
 14 13  1  0
 14 15  2  0
 15 16  1  0
 16 17  2  0
 18 10  1  0
 18 17  1  0
 19  8  1  0
 19 21  1  0
 20 19  2  0
 22 21  1  0
 22 30  1  0
 22 23  1  1
 24 23  1  0
 25 24  2  0
 26 25  1  0
 27 26  2  0
 27 28  1  0
 28 29  2  0
 29 24  1  0
 30 31  2  0
 30 32  1  0
M  END
$$$$
