SWF.pdb
     RDKit          3D

 32 34  0  0  1  0  0  0  0  0999 V2000
   28.0000  -19.7241  -14.0503 O   0  0  0  0  0  0  0  0  0  0  0  0
   28.7231  -19.1446  -13.0319 C   0  0  0  0  0  0  0  0  0  0  0  0
   29.2343  -20.1755  -12.0813 C   0  0  2  0  0  0  0  0  0  0  0  0
   29.8968  -21.2844  -12.6894 N   0  0  0  0  0  0  0  0  0  0  0  0
   28.0666  -20.6860  -11.2896 C   0  0  0  0  0  0  0  0  0  0  0  0
   27.8226  -21.9120  -11.3737 O   0  0  0  0  0  0  0  0  0  0  0  0
   27.3036  -19.8224  -10.5057 N   0  0  0  0  0  0  0  0  0  0  0  0
   26.1089  -20.3451   -9.8154 C   0  0  1  0  0  0  0  0  0  0  0  0
   26.0038  -19.6127   -8.5316 C   0  0  0  0  0  0  0  0  0  0  0  0
   27.2179  -19.4427   -7.7444 C   0  0  0  0  0  0  0  0  0  0  0  0
   28.3251  -18.6660   -8.0094 C   0  0  0  0  0  0  0  0  0  0  0  0
   29.2330  -18.8206   -7.0291 N   0  0  0  0  0  0  0  0  0  0  0  0
   28.7210  -19.6909   -6.1329 C   0  0  0  0  0  0  0  0  0  0  0  0
   29.2433  -20.1832   -4.9555 C   0  0  0  0  0  0  0  0  0  0  0  0
   28.5385  -21.0723   -4.1863 C   0  0  0  0  0  0  0  0  0  0  0  0
   27.2844  -21.4838   -4.5948 C   0  0  0  0  0  0  0  0  0  0  0  0
   26.7712  -20.9889   -5.7687 C   0  0  0  0  0  0  0  0  0  0  0  0
   27.4859  -20.0835   -6.5542 C   0  0  0  0  0  0  0  0  0  0  0  0
   24.9599  -20.0297  -10.7067 C   0  0  0  0  0  0  0  0  0  0  0  0
   25.1357  -19.2676  -11.7295 O   0  0  0  0  0  0  0  0  0  0  0  0
   23.6439  -20.5232  -10.5145 N   0  0  0  0  0  0  0  0  0  0  0  0
   22.7700  -20.6501  -11.6872 C   0  0  1  0  0  0  0  0  0  0  0  0
   23.4027  -21.6835  -12.6330 C   0  0  0  0  0  0  0  0  0  0  0  0
   22.5124  -21.8775  -13.7868 C   0  0  0  0  0  0  0  0  0  0  0  0
   21.6638  -22.9867  -13.8502 C   0  0  0  0  0  0  0  0  0  0  0  0
   20.7976  -23.1757  -14.8986 C   0  0  0  0  0  0  0  0  0  0  0  0
   20.7320  -22.2689  -15.9389 C   0  0  0  0  0  0  0  0  0  0  0  0
   21.5750  -21.1630  -15.8804 C   0  0  0  0  0  0  0  0  0  0  0  0
   22.4416  -20.9740  -14.8308 C   0  0  0  0  0  0  0  0  0  0  0  0
   21.4318  -21.1400  -11.3267 C   0  0  0  0  0  0  0  0  0  0  0  0
   21.2707  -22.1384  -10.6016 O   0  0  0  0  0  0  0  0  0  0  0  0
   20.3203  -20.4808  -11.7995 O   0  0  0  0  0  0  0  0  0  0  0  0
  1  2  1  0
  3  2  1  0
  3  4  1  6
  5  6  2  0
  5  3  1  0
  7  5  1  0
  8  7  1  0
  8  9  1  1
 10  9  1  0
 11 10  2  0
 12 13  1  0
 12 11  1  0
 13 18  2  0
 14 13  1  0
 14 15  2  0
 15 16  1  0
 16 17  2  0
 18 10  1  0
 18 17  1  0
 19  8  1  0
 19 21  1  0
 20 19  2  0
 22 21  1  0
 22 30  1  0
 22 23  1  6
 24 23  1  0
 25 24  2  0
 26 25  1  0
 27 26  2  0
 27 28  1  0
 28 29  2  0
 29 24  1  0
 30 31  2  0
 30 32  1  0
M  END
$$$$
