DYM.pdb
     RDKit          3D

 29 29  0  0  1  0  0  0  0  0999 V2000
   22.6085  -12.5445  -18.7826 N   0  0  0  0  0  0  0  0  0  0  0  0
   23.0338  -11.1623  -18.5824 C   0  0  1  0  0  0  0  0  0  0  0  0
   23.8983  -10.7906  -19.7605 C   0  0  0  0  0  0  0  0  0  0  0  0
   25.1557  -11.5664  -19.7230 C   0  0  0  0  0  0  0  0  0  0  0  0
   25.5744  -12.2851  -20.6813 O   0  0  0  0  0  0  0  0  0  0  0  0
   21.8517  -10.2759  -18.4159 C   0  0  0  0  0  0  0  0  0  0  0  0
   20.8790  -10.2741  -19.2101 O   0  0  0  0  0  0  0  0  0  0  0  0
   25.9317  -11.5112  -18.5738 O   0  0  0  0  0  0  0  0  0  0  0  0
   16.9133  -13.8216  -16.8494 O   0  0  0  0  0  0  0  0  0  0  0  0
   17.6647  -12.6621  -16.5817 C   0  0  0  0  0  0  0  0  0  0  0  0
   18.8963  -12.7273  -15.9790 C   0  0  0  0  0  0  0  0  0  0  0  0
   19.6045  -11.5460  -15.7341 C   0  0  0  0  0  0  0  0  0  0  0  0
   19.0869  -10.3212  -16.0873 C   0  0  0  0  0  0  0  0  0  0  0  0
   19.8199   -9.0946  -15.8322 C   0  0  0  0  0  0  0  0  0  0  0  0
   20.5819   -8.5728  -17.0341 C   0  0  2  0  0  0  0  0  0  0  0  0
   21.7496   -9.3553  -17.3213 N   0  0  0  0  0  0  0  0  0  0  0  0
   20.9444   -7.1290  -16.8429 C   0  0  0  0  0  0  0  0  0  0  0  0
   21.9146   -6.7945  -16.1198 O   0  0  0  0  0  0  0  0  0  0  0  0
   17.8535  -10.2780  -16.6889 C   0  0  0  0  0  0  0  0  0  0  0  0
   17.1359  -11.4415  -16.9398 C   0  0  0  0  0  0  0  0  0  0  0  0
   19.6300    0.2141  -19.7900 C   0  0  0  0  0  0  0  0  0  0  0  0
   19.4165   -1.5672  -19.8627 S   0  0  0  0  0  0  0  0  0  0  0  0
   20.1443   -2.4335  -18.4944 C   0  0  0  0  0  0  0  0  0  0  0  0
   19.9806   -3.9078  -18.4425 C   0  0  0  0  0  0  0  0  0  0  0  0
   20.5458   -4.6712  -17.3084 C   0  0  2  0  0  0  0  0  0  0  0  0
   20.2112   -6.1095  -17.4666 N   0  0  0  0  0  0  0  0  0  0  0  0
   20.1282   -4.2458  -15.9856 C   0  0  0  0  0  0  0  0  0  0  0  0
   19.1469   -5.0342  -15.3200 O   0  0  0  0  0  0  0  0  0  0  0  0
   20.5331   -3.2473  -15.3412 O   0  0  0  0  0  0  0  0  0  0  0  0
  2  1  1  6
  2  3  1  0
  3  4  1  0
  4  5  2  0
  4  8  1  0
  6  7  2  0
  6  2  1  0
  9 10  1  0
 10 11  2  0
 11 12  1  0
 13 12  2  0
 13 14  1  0
 15 14  1  1
 15 16  1  0
 16  6  1  0
 17 18  2  0
 17 15  1  0
 19 13  1  0
 20 10  1  0
 20 19  2  0
 21 22  1  0
 23 22  1  0
 24 23  1  0
 25 24  1  6
 25 26  1  0
 26 17  1  0
 27 25  1  0
 28 27  1  0
 29 27  2  0
M  END
$$$$
