DYM.pdb
     RDKit          3D

 29 29  0  0  1  0  0  0  0  0999 V2000
   25.8947  -20.3993  -16.8750 N   0  0  0  0  0  0  0  0  0  0  0  0
   26.8389  -20.7589  -15.8212 C   0  0  1  0  0  0  0  0  0  0  0  0
   28.1688  -20.1539  -16.1937 C   0  0  0  0  0  0  0  0  0  0  0  0
   28.7811  -20.9294  -17.2927 C   0  0  0  0  0  0  0  0  0  0  0  0
   28.2049  -21.8896  -17.8898 O   0  0  0  0  0  0  0  0  0  0  0  0
   26.3352  -20.3052  -14.4978 C   0  0  0  0  0  0  0  0  0  0  0  0
   26.2459  -19.0945  -14.1767 O   0  0  0  0  0  0  0  0  0  0  0  0
   30.0637  -20.5940  -17.7030 O   0  0  0  0  0  0  0  0  0  0  0  0
   20.4039  -18.7254  -15.7842 O   0  0  0  0  0  0  0  0  0  0  0  0
   21.2741  -19.3948  -14.9037 C   0  0  0  0  0  0  0  0  0  0  0  0
   21.9449  -20.5312  -15.2822 C   0  0  0  0  0  0  0  0  0  0  0  0
   22.7991  -21.1603  -14.3703 C   0  0  0  0  0  0  0  0  0  0  0  0
   22.9774  -20.6589  -13.1016 C   0  0  0  0  0  0  0  0  0  0  0  0
   23.8621  -21.3117  -12.1539 C   0  0  0  0  0  0  0  0  0  0  0  0
   25.3059  -20.8602  -12.2495 C   0  0  2  0  0  0  0  0  0  0  0  0
   25.9141  -21.2374  -13.4929 N   0  0  0  0  0  0  0  0  0  0  0  0
   26.1006  -21.3847  -11.0894 C   0  0  0  0  0  0  0  0  0  0  0  0
   26.3114  -22.6145  -10.9511 O   0  0  0  0  0  0  0  0  0  0  0  0
   22.2972  -19.5215  -12.7431 C   0  0  0  0  0  0  0  0  0  0  0  0
   21.4445  -18.8834  -13.6361 C   0  0  0  0  0  0  0  0  0  0  0  0
   30.3452  -19.2748   -5.6639 C   0  0  0  0  0  0  0  0  0  0  0  0
   28.6293  -18.7461   -5.6655 S   0  0  0  0  0  0  0  0  0  0  0  0
   27.5284  -19.8845   -6.4683 C   0  0  0  0  0  0  0  0  0  0  0  0
   27.4222  -19.8185   -7.9473 C   0  0  0  0  0  0  0  0  0  0  0  0
   26.6312  -20.8355   -8.6741 C   0  0  2  0  0  0  0  0  0  0  0  0
   26.6326  -20.5172  -10.1248 N   0  0  0  0  0  0  0  0  0  0  0  0
   25.2560  -20.9986   -8.2416 C   0  0  0  0  0  0  0  0  0  0  0  0
   25.0081  -21.8873   -7.1570 O   0  0  0  0  0  0  0  0  0  0  0  0
   24.2352  -20.4416   -8.7151 O   0  0  0  0  0  0  0  0  0  0  0  0
  2  1  1  6
  2  3  1  0
  3  4  1  0
  4  5  2  0
  4  8  1  0
  6  7  2  0
  6  2  1  0
  9 10  1  0
 10 11  2  0
 11 12  1  0
 13 12  2  0
 13 14  1  0
 15 14  1  6
 15 16  1  0
 16  6  1  0
 17 18  2  0
 17 15  1  0
 19 13  1  0
 20 10  1  0
 20 19  2  0
 21 22  1  0
 23 22  1  0
 24 23  1  0
 25 24  1  1
 25 26  1  0
 26 17  1  0
 27 25  1  0
 28 27  1  0
 29 27  2  0
M  END
$$$$
