DYM.pdb
     RDKit          3D

 29 29  0  0  1  0  0  0  0  0999 V2000
   21.3255  -20.3261  -11.7048 N   0  0  0  0  0  0  0  0  0  0  0  0
   22.4110  -21.1711  -12.1936 C   0  0  1  0  0  0  0  0  0  0  0  0
   22.1979  -21.3517  -13.6753 C   0  0  0  0  0  0  0  0  0  0  0  0
   20.9172  -22.0492  -13.9153 C   0  0  0  0  0  0  0  0  0  0  0  0
   20.0400  -21.6561  -14.7438 O   0  0  0  0  0  0  0  0  0  0  0  0
   23.7280  -20.5687  -11.8568 C   0  0  0  0  0  0  0  0  0  0  0  0
   23.9783  -19.3461  -11.9963 O   0  0  0  0  0  0  0  0  0  0  0  0
   20.6496  -23.2049  -13.1953 O   0  0  0  0  0  0  0  0  0  0  0  0
   27.7205  -18.2770   -5.4759 O   0  0  0  0  0  0  0  0  0  0  0  0
   27.4702  -19.0764   -6.6068 C   0  0  0  0  0  0  0  0  0  0  0  0
   26.3688  -18.8735   -7.4006 C   0  0  0  0  0  0  0  0  0  0  0  0
   26.1641  -19.6951   -8.5142 C   0  0  0  0  0  0  0  0  0  0  0  0
   27.0481  -20.7021   -8.8262 C   0  0  0  0  0  0  0  0  0  0  0  0
   26.8360  -21.5564   -9.9804 C   0  0  0  0  0  0  0  0  0  0  0  0
   26.1393  -20.8661  -11.1361 C   0  0  2  0  0  0  0  0  0  0  0  0
   24.8084  -21.3599  -11.3441 N   0  0  0  0  0  0  0  0  0  0  0  0
   26.9529  -20.9882  -12.3914 C   0  0  0  0  0  0  0  0  0  0  0  0
   26.9861  -22.0622  -13.0405 O   0  0  0  0  0  0  0  0  0  0  0  0
   28.1432  -20.8882   -8.0193 C   0  0  0  0  0  0  0  0  0  0  0  0
   28.3624  -20.0816   -6.9090 C   0  0  0  0  0  0  0  0  0  0  0  0
   31.8195  -23.2181  -12.7473 C   0  0  0  0  0  0  0  0  0  0  0  0
   31.6963  -22.8073  -14.4907 S   0  0  0  0  0  0  0  0  0  0  0  0
   30.5777  -21.4724  -14.8360 C   0  0  0  0  0  0  0  0  0  0  0  0
   29.6047  -21.0941  -13.7809 C   0  0  0  0  0  0  0  0  0  0  0  0
   28.6162  -20.0247  -14.0412 C   0  0  2  0  0  0  0  0  0  0  0  0
   27.7002  -19.9062  -12.8781 N   0  0  0  0  0  0  0  0  0  0  0  0
   27.8159  -20.1782  -15.2416 C   0  0  0  0  0  0  0  0  0  0  0  0
   27.7347  -19.0647  -16.1253 O   0  0  0  0  0  0  0  0  0  0  0  0
   27.1719  -21.1927  -15.6057 O   0  0  0  0  0  0  0  0  0  0  0  0
  2  1  1  6
  2  3  1  0
  3  4  1  0
  4  5  2  0
  4  8  1  0
  6  7  2  0
  6  2  1  0
  9 10  1  0
 10 11  2  0
 11 12  1  0
 13 12  2  0
 13 14  1  0
 15 14  1  1
 15 16  1  0
 16  6  1  0
 17 18  2  0
 17 15  1  0
 19 13  1  0
 20 10  1  0
 20 19  2  0
 21 22  1  0
 23 22  1  0
 24 23  1  0
 25 24  1  1
 25 26  1  0
 26 17  1  0
 27 25  1  0
 28 27  1  0
 29 27  2  0
M  END
$$$$
