DYM.pdb
     RDKit          3D

 29 29  0  0  1  0  0  0  0  0999 V2000
   21.2250  -13.7251  -18.9051 N   0  0  0  0  0  0  0  0  0  0  0  0
   20.1561  -13.0088  -18.2153 C   0  0  1  0  0  0  0  0  0  0  0  0
   20.1437  -13.4989  -16.7895 C   0  0  0  0  0  0  0  0  0  0  0  0
   19.5775  -14.8629  -16.7342 C   0  0  0  0  0  0  0  0  0  0  0  0
   18.5415  -15.2270  -17.3701 O   0  0  0  0  0  0  0  0  0  0  0  0
   20.3580  -11.5403  -18.3319 C   0  0  0  0  0  0  0  0  0  0  0  0
   21.4923  -11.0016  -18.3251 O   0  0  0  0  0  0  0  0  0  0  0  0
   20.2109  -15.8092  -15.9410 O   0  0  0  0  0  0  0  0  0  0  0  0
   18.5838   -2.9788  -19.8477 O   0  0  0  0  0  0  0  0  0  0  0  0
   18.5175   -4.3806  -19.7412 C   0  0  0  0  0  0  0  0  0  0  0  0
   19.2659   -5.1988  -20.5504 C   0  0  0  0  0  0  0  0  0  0  0  0
   19.1648   -6.5865  -20.4057 C   0  0  0  0  0  0  0  0  0  0  0  0
   18.3281   -7.1437  -19.4665 C   0  0  0  0  0  0  0  0  0  0  0  0
   18.2209   -8.5835  -19.3165 C   0  0  0  0  0  0  0  0  0  0  0  0
   19.3860   -9.2129  -18.5788 C   0  0  2  0  0  0  0  0  0  0  0  0
   19.2522  -10.6365  -18.4614 N   0  0  0  0  0  0  0  0  0  0  0  0
   19.5571   -8.5828  -17.2273 C   0  0  0  0  0  0  0  0  0  0  0  0
   18.7988   -8.8810  -16.2723 O   0  0  0  0  0  0  0  0  0  0  0  0
   17.5883   -6.3078  -18.6673 C   0  0  0  0  0  0  0  0  0  0  0  0
   17.6761   -4.9268  -18.7971 C   0  0  0  0  0  0  0  0  0  0  0  0
   22.1895  -10.9376  -12.9282 C   0  0  0  0  0  0  0  0  0  0  0  0
   21.6740   -9.2849  -13.4039 S   0  0  0  0  0  0  0  0  0  0  0  0
   22.6355   -8.5849  -14.7222 C   0  0  0  0  0  0  0  0  0  0  0  0
   22.2174   -7.2657  -15.2589 C   0  0  0  0  0  0  0  0  0  0  0  0
   20.8085   -7.0442  -15.6515 C   0  0  2  0  0  0  0  0  0  0  0  0
   20.5696   -7.6424  -16.9898 N   0  0  0  0  0  0  0  0  0  0  0  0
   20.3673   -5.6624  -15.6813 C   0  0  0  0  0  0  0  0  0  0  0  0
   20.2195   -4.9917  -14.4339 O   0  0  0  0  0  0  0  0  0  0  0  0
   20.0934   -4.9696  -16.6919 O   0  0  0  0  0  0  0  0  0  0  0  0
  2  1  1  6
  2  3  1  0
  3  4  1  0
  4  5  2  0
  4  8  1  0
  6  7  2  0
  6  2  1  0
  9 10  1  0
 10 11  2  0
 11 12  1  0
 13 12  2  0
 13 14  1  0
 15 14  1  1
 15 16  1  0
 16  6  1  0
 17 18  2  0
 17 15  1  0
 19 13  1  0
 20 10  1  0
 20 19  2  0
 21 22  1  0
 23 22  1  0
 24 23  1  0
 25 24  1  6
 25 26  1  0
 26 17  1  0
 27 25  1  0
 28 27  1  0
 29 27  2  0
M  END
$$$$
