DYM.pdb
     RDKit          3D

 29 29  0  0  1  0  0  0  0  0999 V2000
   24.8558  -22.8462  -14.9889 N   0  0  0  0  0  0  0  0  0  0  0  0
   24.5698  -21.6184  -14.2526 C   0  0  1  0  0  0  0  0  0  0  0  0
   23.1038  -21.3210  -14.4412 C   0  0  0  0  0  0  0  0  0  0  0  0
   22.8509  -20.9180  -15.8405 C   0  0  0  0  0  0  0  0  0  0  0  0
   23.7410  -20.4537  -16.6166 O   0  0  0  0  0  0  0  0  0  0  0  0
   24.9622  -21.7669  -12.8261 C   0  0  0  0  0  0  0  0  0  0  0  0
   24.7287  -22.8023  -12.1552 O   0  0  0  0  0  0  0  0  0  0  0  0
   21.5648  -21.0522  -16.3443 O   0  0  0  0  0  0  0  0  0  0  0  0
   28.6702  -19.9128   -4.9686 O   0  0  0  0  0  0  0  0  0  0  0  0
   28.3162  -19.9235   -6.3307 C   0  0  0  0  0  0  0  0  0  0  0  0
   28.8980  -20.7949   -7.2175 C   0  0  0  0  0  0  0  0  0  0  0  0
   28.5121  -20.7664   -8.5618 C   0  0  0  0  0  0  0  0  0  0  0  0
   27.5598  -19.8798   -9.0088 C   0  0  0  0  0  0  0  0  0  0  0  0
   27.1596  -19.8480  -10.4037 C   0  0  0  0  0  0  0  0  0  0  0  0
   26.0296  -20.8004  -10.7407 C   0  0  2  0  0  0  0  0  0  0  0  0
   25.6417  -20.7203  -12.1197 N   0  0  0  0  0  0  0  0  0  0  0  0
   24.8511  -20.5594   -9.8431 C   0  0  0  0  0  0  0  0  0  0  0  0
   24.0639  -19.6035  -10.0493 O   0  0  0  0  0  0  0  0  0  0  0  0
   26.9903  -19.0167   -8.1057 C   0  0  0  0  0  0  0  0  0  0  0  0
   27.3616  -19.0310   -6.7664 C   0  0  0  0  0  0  0  0  0  0  0  0
   18.3449  -23.1632   -6.8715 C   0  0  0  0  0  0  0  0  0  0  0  0
   19.8915  -23.3768   -7.7582 S   0  0  0  0  0  0  0  0  0  0  0  0
   21.1279  -22.1715   -7.3448 C   0  0  0  0  0  0  0  0  0  0  0  0
   22.3757  -22.1561   -8.1486 C   0  0  0  0  0  0  0  0  0  0  0  0
   23.4429  -21.1819   -7.8317 C   0  0  2  0  0  0  0  0  0  0  0  0
   24.5928  -21.3950   -8.7472 N   0  0  0  0  0  0  0  0  0  0  0  0
   23.9339  -21.1995   -6.4666 C   0  0  0  0  0  0  0  0  0  0  0  0
   23.2852  -20.3532   -5.5229 O   0  0  0  0  0  0  0  0  0  0  0  0
   24.8802  -21.8828   -6.0040 O   0  0  0  0  0  0  0  0  0  0  0  0
  2  1  1  6
  2  3  1  0
  3  4  1  0
  4  5  2  0
  4  8  1  0
  6  7  2  0
  6  2  1  0
  9 10  1  0
 10 11  2  0
 11 12  1  0
 13 12  2  0
 13 14  1  0
 15 14  1  1
 15 16  1  0
 16  6  1  0
 17 18  2  0
 17 15  1  0
 19 13  1  0
 20 10  1  0
 20 19  2  0
 21 22  1  0
 23 22  1  0
 24 23  1  0
 25 24  1  1
 25 26  1  0
 26 17  1  0
 27 25  1  0
 28 27  1  0
 29 27  2  0
M  END
$$$$
