DYM.pdb
     RDKit          3D

 29 29  0  0  1  0  0  0  0  0999 V2000
   31.9790  -37.0400   -4.6189 N   0  0  0  0  0  0  0  0  0  0  0  0
   31.0730  -36.9529   -3.4774 C   0  0  1  0  0  0  0  0  0  0  0  0
   31.8994  -37.1860   -2.2380 C   0  0  0  0  0  0  0  0  0  0  0  0
   31.0281  -37.1661   -1.0445 C   0  0  0  0  0  0  0  0  0  0  0  0
   29.7668  -37.0339   -1.0893 O   0  0  0  0  0  0  0  0  0  0  0  0
   30.3655  -35.6451   -3.4766 C   0  0  0  0  0  0  0  0  0  0  0  0
   30.9468  -34.5512   -3.6823 O   0  0  0  0  0  0  0  0  0  0  0  0
   31.6167  -37.2993    0.2052 O   0  0  0  0  0  0  0  0  0  0  0  0
   24.7233  -31.3145   -8.2512 O   0  0  0  0  0  0  0  0  0  0  0  0
   25.4843  -32.2399   -7.5127 C   0  0  0  0  0  0  0  0  0  0  0  0
   24.9396  -32.9499   -6.4718 C   0  0  0  0  0  0  0  0  0  0  0  0
   25.7376  -33.8583   -5.7682 C   0  0  0  0  0  0  0  0  0  0  0  0
   27.0582  -34.0511   -6.1023 C   0  0  0  0  0  0  0  0  0  0  0  0
   27.8877  -34.9920   -5.3719 C   0  0  0  0  0  0  0  0  0  0  0  0
   28.0825  -34.6348   -3.9118 C   0  0  2  0  0  0  0  0  0  0  0  0
   28.9547  -35.5528   -3.2373 N   0  0  0  0  0  0  0  0  0  0  0  0
   26.7591  -34.5467   -3.2092 C   0  0  0  0  0  0  0  0  0  0  0  0
   26.0348  -35.5613   -3.0613 O   0  0  0  0  0  0  0  0  0  0  0  0
   27.5835  -33.3309   -7.1465 C   0  0  0  0  0  0  0  0  0  0  0  0
   26.8055  -32.4242   -7.8566 C   0  0  0  0  0  0  0  0  0  0  0  0
   23.2263  -30.4073    2.5593 C   0  0  0  0  0  0  0  0  0  0  0  0
   24.4241  -30.4857    1.2241 S   0  0  0  0  0  0  0  0  0  0  0  0
   24.2129  -31.8850    0.1518 C   0  0  0  0  0  0  0  0  0  0  0  0
   25.1894  -32.0653   -0.9514 C   0  0  0  0  0  0  0  0  0  0  0  0
   25.0706  -33.2299   -1.8559 C   0  0  2  0  0  0  0  0  0  0  0  0
   26.2916  -33.3286   -2.6957 N   0  0  0  0  0  0  0  0  0  0  0  0
   23.9115  -33.2406   -2.7284 C   0  0  0  0  0  0  0  0  0  0  0  0
   23.9747  -32.4579   -3.9163 O   0  0  0  0  0  0  0  0  0  0  0  0
   22.8364  -33.8675   -2.5627 O   0  0  0  0  0  0  0  0  0  0  0  0
  2  1  1  6
  2  3  1  0
  3  4  1  0
  4  5  2  0
  4  8  1  0
  6  7  2  0
  6  2  1  0
  9 10  1  0
 10 11  2  0
 11 12  1  0
 13 12  2  0
 13 14  1  0
 15 14  1  6
 15 16  1  0
 16  6  1  0
 17 18  2  0
 17 15  1  0
 19 13  1  0
 20 10  1  0
 20 19  2  0
 21 22  1  0
 23 22  1  0
 24 23  1  0
 25 24  1  6
 25 26  1  0
 26 17  1  0
 27 25  1  0
 28 27  1  0
 29 27  2  0
M  END
$$$$
