DYM.pdb
     RDKit          3D

 29 29  0  0  1  0  0  0  0  0999 V2000
   27.5570  -22.4306  -15.6208 N   0  0  0  0  0  0  0  0  0  0  0  0
   26.2672  -22.8843  -16.1327 C   0  0  1  0  0  0  0  0  0  0  0  0
   26.2529  -24.3881  -16.0249 C   0  0  0  0  0  0  0  0  0  0  0  0
   27.2961  -24.9625  -16.9001 C   0  0  0  0  0  0  0  0  0  0  0  0
   27.9999  -24.2805  -17.7063 O   0  0  0  0  0  0  0  0  0  0  0  0
   25.1568  -22.2297  -15.3914 C   0  0  0  0  0  0  0  0  0  0  0  0
   24.3030  -22.8703  -14.7299 O   0  0  0  0  0  0  0  0  0  0  0  0
   27.5264  -26.3298  -16.8435 O   0  0  0  0  0  0  0  0  0  0  0  0
   26.3542  -21.3442   -8.8367 O   0  0  0  0  0  0  0  0  0  0  0  0
   25.9349  -20.7856  -10.0585 C   0  0  0  0  0  0  0  0  0  0  0  0
   26.8233  -20.5259  -11.0722 C   0  0  0  0  0  0  0  0  0  0  0  0
   26.3571  -19.9698  -12.2683 C   0  0  0  0  0  0  0  0  0  0  0  0
   25.0240  -19.6794  -12.4446 C   0  0  0  0  0  0  0  0  0  0  0  0
   24.5392  -19.1009  -13.6844 C   0  0  0  0  0  0  0  0  0  0  0  0
   23.9685  -20.1162  -14.6545 C   0  0  2  0  0  0  0  0  0  0  0  0
   24.9915  -20.8054  -15.3872 N   0  0  0  0  0  0  0  0  0  0  0  0
   22.9945  -19.4620  -15.5905 C   0  0  0  0  0  0  0  0  0  0  0  0
   23.3875  -18.6924  -16.5011 O   0  0  0  0  0  0  0  0  0  0  0  0
   24.1521  -19.9468  -11.4183 C   0  0  0  0  0  0  0  0  0  0  0  0
   24.5976  -20.4990  -10.2232 C   0  0  0  0  0  0  0  0  0  0  0  0
   21.7609  -18.7037  -21.9471 C   0  0  0  0  0  0  0  0  0  0  0  0
   21.6076  -19.8415  -20.5667 S   0  0  0  0  0  0  0  0  0  0  0  0
   21.2495  -19.0481  -19.0192 C   0  0  0  0  0  0  0  0  0  0  0  0
   21.0715  -19.9102  -17.8242 C   0  0  0  0  0  0  0  0  0  0  0  0
   20.6510  -19.3091  -16.5396 C   0  0  2  0  0  0  0  0  0  0  0  0
   21.6159  -19.6910  -15.4771 N   0  0  0  0  0  0  0  0  0  0  0  0
   19.3141  -19.6466  -16.0881 C   0  0  0  0  0  0  0  0  0  0  0  0
   18.2811  -18.6943  -16.3201 O   0  0  0  0  0  0  0  0  0  0  0  0
   18.9469  -20.6964  -15.5054 O   0  0  0  0  0  0  0  0  0  0  0  0
  2  1  1  1
  2  3  1  0
  3  4  1  0
  4  5  2  0
  4  8  1  0
  6  7  2  0
  6  2  1  0
  9 10  1  0
 10 11  2  0
 11 12  1  0
 13 12  2  0
 13 14  1  0
 15 14  1  6
 15 16  1  0
 16  6  1  0
 17 18  2  0
 17 15  1  0
 19 13  1  0
 20 10  1  0
 20 19  2  0
 21 22  1  0
 23 22  1  0
 24 23  1  0
 25 24  1  6
 25 26  1  0
 26 17  1  0
 27 25  1  0
 28 27  1  0
 29 27  2  0
M  END
$$$$
