DYM.pdb
     RDKit          3D

 29 29  0  0  1  0  0  0  0  0999 V2000
   28.0613  -19.2591  -14.0521 N   0  0  0  0  0  0  0  0  0  0  0  0
   27.3416  -20.3146  -14.7587 C   0  0  1  0  0  0  0  0  0  0  0  0
   28.3734  -21.2894  -15.2673 C   0  0  0  0  0  0  0  0  0  0  0  0
   29.0314  -20.7390  -16.4708 C   0  0  0  0  0  0  0  0  0  0  0  0
   28.8016  -19.5817  -16.9381 O   0  0  0  0  0  0  0  0  0  0  0  0
   26.3306  -20.9395  -13.8652 C   0  0  0  0  0  0  0  0  0  0  0  0
   25.8139  -22.0609  -14.0935 O   0  0  0  0  0  0  0  0  0  0  0  0
   29.9581  -21.5289  -17.1364 O   0  0  0  0  0  0  0  0  0  0  0  0
   29.6443  -21.2255   -7.5510 O   0  0  0  0  0  0  0  0  0  0  0  0
   28.4520  -20.9399   -8.2421 C   0  0  0  0  0  0  0  0  0  0  0  0
   27.5276  -20.0554   -7.7446 C   0  0  0  0  0  0  0  0  0  0  0  0
   26.3574  -19.8050   -8.4693 C   0  0  0  0  0  0  0  0  0  0  0  0
   26.1187  -20.4303   -9.6713 C   0  0  0  0  0  0  0  0  0  0  0  0
   24.9043  -20.1727  -10.4234 C   0  0  0  0  0  0  0  0  0  0  0  0
   24.8786  -20.8251  -11.7913 C   0  0  2  0  0  0  0  0  0  0  0  0
   25.8779  -20.2890  -12.6702 N   0  0  0  0  0  0  0  0  0  0  0  0
   23.5141  -20.7090  -12.4057 C   0  0  0  0  0  0  0  0  0  0  0  0
   23.1317  -19.6382  -12.9378 O   0  0  0  0  0  0  0  0  0  0  0  0
   27.0560  -21.3114  -10.1510 C   0  0  0  0  0  0  0  0  0  0  0  0
   28.2241  -21.5722   -9.4445 C   0  0  0  0  0  0  0  0  0  0  0  0
   20.7347  -25.3032  -16.1705 C   0  0  0  0  0  0  0  0  0  0  0  0
   19.3652  -24.7866  -15.1307 S   0  0  0  0  0  0  0  0  0  0  0  0
   19.6426  -23.2468  -14.2913 C   0  0  0  0  0  0  0  0  0  0  0  0
   20.9736  -23.0255  -13.6728 C   0  0  0  0  0  0  0  0  0  0  0  0
   21.2815  -21.7270  -13.0345 C   0  0  2  0  0  0  0  0  0  0  0  0
   22.6250  -21.7932  -12.4049 N   0  0  0  0  0  0  0  0  0  0  0  0
   20.3308  -21.2673  -12.0396 C   0  0  0  0  0  0  0  0  0  0  0  0
   20.6139  -21.5586  -10.6748 O   0  0  0  0  0  0  0  0  0  0  0  0
   19.2664  -20.6312  -12.2367 O   0  0  0  0  0  0  0  0  0  0  0  0
  2  1  1  1
  2  3  1  0
  3  4  1  0
  4  5  2  0
  4  8  1  0
  6  7  2  0
  6  2  1  0
  9 10  1  0
 10 11  2  0
 11 12  1  0
 13 12  2  0
 13 14  1  0
 15 14  1  1
 15 16  1  0
 16  6  1  0
 17 18  2  0
 17 15  1  0
 19 13  1  0
 20 10  1  0
 20 19  2  0
 21 22  1  0
 23 22  1  0
 24 23  1  0
 25 24  1  1
 25 26  1  0
 26 17  1  0
 27 25  1  0
 28 27  1  0
 29 27  2  0
M  END
$$$$
