DYM.pdb
     RDKit          3D

 29 29  0  0  1  0  0  0  0  0999 V2000
   15.9489  -18.6545    4.0951 N   0  0  0  0  0  0  0  0  0  0  0  0
   15.8235  -17.8354    5.2970 C   0  0  1  0  0  0  0  0  0  0  0  0
   15.6289  -18.7789    6.4569 C   0  0  0  0  0  0  0  0  0  0  0  0
   14.2938  -19.4070    6.3724 C   0  0  0  0  0  0  0  0  0  0  0  0
   13.3133  -18.9066    5.7411 O   0  0  0  0  0  0  0  0  0  0  0  0
   17.0105  -16.9528    5.4481 C   0  0  0  0  0  0  0  0  0  0  0  0
   18.1274  -17.2125    4.9363 O   0  0  0  0  0  0  0  0  0  0  0  0
   14.0913  -20.6177    7.0199 O   0  0  0  0  0  0  0  0  0  0  0  0
   22.0972   -9.9292    7.0563 O   0  0  0  0  0  0  0  0  0  0  0  0
   20.9949  -10.7948    6.9277 C   0  0  0  0  0  0  0  0  0  0  0  0
   20.2357  -11.1573    8.0124 C   0  0  0  0  0  0  0  0  0  0  0  0
   19.1497  -12.0207    7.8329 C   0  0  0  0  0  0  0  0  0  0  0  0
   18.8309  -12.5118    6.5879 C   0  0  0  0  0  0  0  0  0  0  0  0
   17.7054  -13.4091    6.4005 C   0  0  0  0  0  0  0  0  0  0  0  0
   18.0779  -14.8779    6.4371 C   0  0  2  0  0  0  0  0  0  0  0  0
   16.9504  -15.7326    6.1990 N   0  0  0  0  0  0  0  0  0  0  0  0
   18.7389  -15.2222    7.7399 C   0  0  0  0  0  0  0  0  0  0  0  0
   18.0592  -15.4853    8.7621 O   0  0  0  0  0  0  0  0  0  0  0  0
   19.6030  -12.1369    5.5163 C   0  0  0  0  0  0  0  0  0  0  0  0
   20.6856  -11.2801    5.6762 C   0  0  0  0  0  0  0  0  0  0  0  0
   21.3661  -21.0769    7.7676 C   0  0  0  0  0  0  0  0  0  0  0  0
   22.1810  -19.4873    7.9481 S   0  0  0  0  0  0  0  0  0  0  0  0
   21.1355  -18.2166    8.6151 C   0  0  0  0  0  0  0  0  0  0  0  0
   21.7098  -16.8564    8.7667 C   0  0  0  0  0  0  0  0  0  0  0  0
   20.8247  -15.7160    9.0898 C   0  0  2  0  0  0  0  0  0  0  0  0
   20.1357  -15.2613    7.8551 N   0  0  0  0  0  0  0  0  0  0  0  0
   21.4655  -14.5695    9.7063 C   0  0  0  0  0  0  0  0  0  0  0  0
   21.7677  -14.6525   11.0953 O   0  0  0  0  0  0  0  0  0  0  0  0
   21.7934  -13.4900    9.1554 O   0  0  0  0  0  0  0  0  0  0  0  0
  2  1  1  6
  2  3  1  0
  3  4  1  0
  4  5  2  0
  4  8  1  0
  6  7  2  0
  6  2  1  0
  9 10  1  0
 10 11  2  0
 11 12  1  0
 13 12  2  0
 13 14  1  0
 15 14  1  1
 15 16  1  0
 16  6  1  0
 17 18  2  0
 17 15  1  0
 19 13  1  0
 20 10  1  0
 20 19  2  0
 21 22  1  0
 23 22  1  0
 24 23  1  0
 25 24  1  6
 25 26  1  0
 26 17  1  0
 27 25  1  0
 28 27  1  0
 29 27  2  0
M  END
$$$$
