DYM.pdb
     RDKit          3D

 29 29  0  0  1  0  0  0  0  0999 V2000
   25.9820  -19.3086  -17.2599 N   0  0  0  0  0  0  0  0  0  0  0  0
   26.7798  -19.7989  -16.1398 C   0  0  1  0  0  0  0  0  0  0  0  0
   28.0969  -19.0660  -16.1807 C   0  0  0  0  0  0  0  0  0  0  0  0
   28.9283  -19.5924  -17.2832 C   0  0  0  0  0  0  0  0  0  0  0  0
   28.6464  -20.6357  -17.9484 O   0  0  0  0  0  0  0  0  0  0  0  0
   26.0435  -19.6167  -14.8609 C   0  0  0  0  0  0  0  0  0  0  0  0
   25.7301  -18.4894  -14.4050 O   0  0  0  0  0  0  0  0  0  0  0  0
   30.0897  -18.9105  -17.6181 O   0  0  0  0  0  0  0  0  0  0  0  0
   19.2964  -18.9957  -15.4579 O   0  0  0  0  0  0  0  0  0  0  0  0
   20.3692  -19.5958  -14.7726 C   0  0  0  0  0  0  0  0  0  0  0  0
   20.5371  -19.4356  -13.4196 C   0  0  0  0  0  0  0  0  0  0  0  0
   21.6198  -20.0527  -12.7841 C   0  0  0  0  0  0  0  0  0  0  0  0
   22.5180  -20.8168  -13.4926 C   0  0  0  0  0  0  0  0  0  0  0  0
   23.6428  -21.4563  -12.8347 C   0  0  0  0  0  0  0  0  0  0  0  0
   24.9079  -20.6214  -12.8303 C   0  0  2  0  0  0  0  0  0  0  0  0
   25.6405  -20.7348  -14.0586 N   0  0  0  0  0  0  0  0  0  0  0  0
   25.7750  -20.9836  -11.6600 C   0  0  0  0  0  0  0  0  0  0  0  0
   26.4046  -22.0693  -11.6310 O   0  0  0  0  0  0  0  0  0  0  0  0
   22.3320  -20.9644  -14.8448 C   0  0  0  0  0  0  0  0  0  0  0  0
   21.2621  -20.3585  -15.4928 C   0  0  0  0  0  0  0  0  0  0  0  0
   30.1180  -19.5440   -6.0375 C   0  0  0  0  0  0  0  0  0  0  0  0
   28.4745  -18.8474   -6.2297 S   0  0  0  0  0  0  0  0  0  0  0  0
   27.3209  -19.9387   -7.0240 C   0  0  0  0  0  0  0  0  0  0  0  0
   27.0667  -19.7416   -8.4730 C   0  0  0  0  0  0  0  0  0  0  0  0
   26.0990  -20.6127   -9.1752 C   0  0  2  0  0  0  0  0  0  0  0  0
   25.9090  -20.1201  -10.5634 N   0  0  0  0  0  0  0  0  0  0  0  0
   24.7951  -20.7443   -8.5527 C   0  0  0  0  0  0  0  0  0  0  0  0
   24.7076  -21.5299   -7.3682 O   0  0  0  0  0  0  0  0  0  0  0  0
   23.7109  -20.2411   -8.9369 O   0  0  0  0  0  0  0  0  0  0  0  0
  2  1  1  6
  2  3  1  0
  3  4  1  0
  4  5  2  0
  4  8  1  0
  6  7  2  0
  6  2  1  0
  9 10  1  0
 10 11  2  0
 11 12  1  0
 13 12  2  0
 13 14  1  0
 15 14  1  6
 15 16  1  0
 16  6  1  0
 17 18  2  0
 17 15  1  0
 19 13  1  0
 20 10  1  0
 20 19  2  0
 21 22  1  0
 23 22  1  0
 24 23  1  0
 25 24  1  1
 25 26  1  0
 26 17  1  0
 27 25  1  0
 28 27  1  0
 29 27  2  0
M  END
$$$$
