DYM.pdb
     RDKit          3D

 29 29  0  0  1  0  0  0  0  0999 V2000
   27.1450  -24.2456  -16.4852 N   0  0  0  0  0  0  0  0  0  0  0  0
   26.8574  -22.8152  -16.4326 C   0  0  1  0  0  0  0  0  0  0  0  0
   26.1896  -22.4504  -17.7343 C   0  0  0  0  0  0  0  0  0  0  0  0
   26.8724  -21.2871  -18.3382 C   0  0  0  0  0  0  0  0  0  0  0  0
   28.1330  -21.1739  -18.4304 O   0  0  0  0  0  0  0  0  0  0  0  0
   26.0324  -22.4966  -15.2374 C   0  0  0  0  0  0  0  0  0  0  0  0
   25.2291  -23.3125  -14.7217 O   0  0  0  0  0  0  0  0  0  0  0  0
   26.0955  -20.2511  -18.8372 O   0  0  0  0  0  0  0  0  0  0  0  0
   28.0128  -21.6963   -7.7014 O   0  0  0  0  0  0  0  0  0  0  0  0
   27.5391  -21.2273   -8.9409 C   0  0  0  0  0  0  0  0  0  0  0  0
   28.3257  -21.2493  -10.0657 C   0  0  0  0  0  0  0  0  0  0  0  0
   27.8088  -20.7716  -11.2747 C   0  0  0  0  0  0  0  0  0  0  0  0
   26.5261  -20.2805  -11.3542 C   0  0  0  0  0  0  0  0  0  0  0  0
   25.9891  -19.7830  -12.6077 C   0  0  0  0  0  0  0  0  0  0  0  0
   25.3160  -20.8460  -13.4529 C   0  0  2  0  0  0  0  0  0  0  0  0
   26.1055  -21.2186  -14.5913 N   0  0  0  0  0  0  0  0  0  0  0  0
   23.9498  -20.3939  -13.8796 C   0  0  0  0  0  0  0  0  0  0  0  0
   23.8050  -19.4777  -14.7256 O   0  0  0  0  0  0  0  0  0  0  0  0
   25.7561  -20.2673  -10.2177 C   0  0  0  0  0  0  0  0  0  0  0  0
   26.2531  -20.7378   -9.0081 C   0  0  0  0  0  0  0  0  0  0  0  0
   18.4205  -22.1642  -18.1113 C   0  0  0  0  0  0  0  0  0  0  0  0
   19.2276  -22.6537  -16.5840 S   0  0  0  0  0  0  0  0  0  0  0  0
   20.0744  -21.3267  -15.7626 C   0  0  0  0  0  0  0  0  0  0  0  0
   20.7564  -21.6298  -14.4796 C   0  0  0  0  0  0  0  0  0  0  0  0
   21.4258  -20.5455  -13.7283 C   0  0  2  0  0  0  0  0  0  0  0  0
   22.7935  -20.9814  -13.3470 N   0  0  0  0  0  0  0  0  0  0  0  0
   20.7420  -20.0839  -12.5349 C   0  0  0  0  0  0  0  0  0  0  0  0
   19.4166  -19.5860  -12.6869 O   0  0  0  0  0  0  0  0  0  0  0  0
   21.1832  -20.0682  -11.3596 O   0  0  0  0  0  0  0  0  0  0  0  0
  2  1  1  6
  2  3  1  0
  3  4  1  0
  4  5  2  0
  4  8  1  0
  6  7  2  0
  6  2  1  0
  9 10  1  0
 10 11  2  0
 11 12  1  0
 13 12  2  0
 13 14  1  0
 15 14  1  6
 15 16  1  0
 16  6  1  0
 17 18  2  0
 17 15  1  0
 19 13  1  0
 20 10  1  0
 20 19  2  0
 21 22  1  0
 23 22  1  0
 24 23  1  0
 25 24  1  1
 25 26  1  0
 26 17  1  0
 27 25  1  0
 28 27  1  0
 29 27  2  0
M  END
$$$$
