IGC.pdb
     RDKit          3D

 19 18  0  0  1  0  0  0  0  0999 V2000
   15.4241  -14.2993  -17.1834 C   0  0  0  0  0  0  0  0  0  0  0  0
   16.5950  -13.4160  -17.5464 C   0  0  0  0  0  0  0  0  0  0  0  0
   16.4948  -12.1536  -16.7263 C   0  0  2  0  0  0  0  0  0  0  0  0
   15.2370  -11.4292  -17.1625 C   0  0  0  0  0  0  0  0  0  0  0  0
   17.6592  -11.2209  -16.9754 C   0  0  2  0  0  0  0  0  0  0  0  0
   18.9051  -11.8170  -16.5322 N   0  0  0  0  0  0  0  0  0  0  0  0
   17.5065   -9.9228  -16.3237 C   0  0  0  0  0  0  0  0  0  0  0  0
   16.4431   -9.2594  -16.4379 O   0  0  0  0  0  0  0  0  0  0  0  0
   18.5268   -9.3095  -15.5199 N   0  0  0  0  0  0  0  0  0  0  0  0
   18.3071   -8.0553  -14.8412 C   0  0  0  0  0  0  0  0  0  0  0  0
   19.4446   -7.5247  -14.1143 C   0  0  0  0  0  0  0  0  0  0  0  0
   20.1363   -8.3583  -13.4331 O   0  0  0  0  0  0  0  0  0  0  0  0
   19.8987   -6.1892  -14.0565 N   0  0  0  0  0  0  0  0  0  0  0  0
   21.2975   -5.8274  -13.8858 C   0  0  1  0  0  0  0  0  0  0  0  0
   22.0436   -6.3981  -15.0764 C   0  0  0  0  0  0  0  0  0  0  0  0
   23.8114   -6.1180  -14.9968 S   0  0  0  0  0  0  0  0  0  0  0  0
   21.4752   -4.3641  -13.7864 C   0  0  0  0  0  0  0  0  0  0  0  0
   20.6343   -3.6312  -14.3641 O   0  0  0  0  0  0  0  0  0  0  0  0
   22.4991   -3.7575  -13.1040 O   0  0  0  0  0  0  0  0  0  0  0  0
  2  3  1  0
  2  1  1  0
  3  4  1  6
  5  6  1  1
  5  3  1  0
  7  5  1  0
  8  7  2  0
  9  7  1  0
 10  9  1  0
 11 13  1  0
 11 10  1  0
 12 11  2  0
 14 15  1  6
 14 17  1  0
 14 13  1  0
 15 16  1  0
 17 19  1  0
 18 17  2  0
M  END
$$$$
