IGC.pdb
     RDKit          3D

 19 18  0  0  1  0  0  0  0  0999 V2000
   25.3037  -15.1249  -17.2068 C   0  0  0  0  0  0  0  0  0  0  0  0
   24.3078  -14.8090  -16.1153 C   0  0  0  0  0  0  0  0  0  0  0  0
   24.2410  -13.3089  -15.9691 C   0  0  2  0  0  0  0  0  0  0  0  0
   25.5682  -12.8502  -15.3987 C   0  0  0  0  0  0  0  0  0  0  0  0
   23.1632  -12.8805  -14.9982 C   0  0  2  0  0  0  0  0  0  0  0  0
   21.8538  -13.3028  -15.4577 N   0  0  0  0  0  0  0  0  0  0  0  0
   23.1338  -11.4382  -14.7705 C   0  0  0  0  0  0  0  0  0  0  0  0
   24.0154  -10.8723  -14.0732 O   0  0  0  0  0  0  0  0  0  0  0  0
   22.1258  -10.5669  -15.3071 N   0  0  0  0  0  0  0  0  0  0  0  0
   22.2003   -9.1342  -15.1533 C   0  0  0  0  0  0  0  0  0  0  0  0
   21.1061   -8.3804  -15.7351 C   0  0  0  0  0  0  0  0  0  0  0  0
   20.3075   -9.0192  -16.5042 O   0  0  0  0  0  0  0  0  0  0  0  0
   20.7989   -7.0131  -15.5638 N   0  0  0  0  0  0  0  0  0  0  0  0
   19.6554   -6.3665  -16.1891 C   0  0  1  0  0  0  0  0  0  0  0  0
   19.3202   -5.1565  -15.3386 C   0  0  0  0  0  0  0  0  0  0  0  0
   19.0454   -5.5639  -13.6157 S   0  0  0  0  0  0  0  0  0  0  0  0
   19.9412   -5.9833  -17.5870 C   0  0  0  0  0  0  0  0  0  0  0  0
   18.9915   -5.5382  -18.2784 O   0  0  0  0  0  0  0  0  0  0  0  0
   21.1765   -6.0830  -18.1754 O   0  0  0  0  0  0  0  0  0  0  0  0
  2  3  1  0
  2  1  1  0
  3  4  1  1
  5  6  1  6
  5  3  1  0
  7  5  1  0
  8  7  2  0
  9  7  1  0
 10  9  1  0
 11 13  1  0
 11 10  1  0
 12 11  2  0
 14 15  1  1
 14 17  1  0
 14 13  1  0
 15 16  1  0
 17 19  1  0
 18 17  2  0
M  END
$$$$
