IGC.pdb
     RDKit          3D

 19 18  0  0  1  0  0  0  0  0999 V2000
   16.3198  -13.8004  -19.1384 C   0  0  0  0  0  0  0  0  0  0  0  0
   15.8720  -12.8604  -18.0435 C   0  0  0  0  0  0  0  0  0  0  0  0
   16.9129  -11.7766  -17.9088 C   0  0  2  0  0  0  0  0  0  0  0  0
   17.6300  -11.6699  -19.2397 C   0  0  0  0  0  0  0  0  0  0  0  0
   17.9532  -12.1154  -16.8644 C   0  0  2  0  0  0  0  0  0  0  0  0
   17.3681  -12.1362  -15.5373 N   0  0  0  0  0  0  0  0  0  0  0  0
   19.0855  -11.1928  -16.8595 C   0  0  0  0  0  0  0  0  0  0  0  0
   19.8939  -11.1511  -17.8231 O   0  0  0  0  0  0  0  0  0  0  0  0
   19.3656  -10.2805  -15.7860 N   0  0  0  0  0  0  0  0  0  0  0  0
   20.4931   -9.3811  -15.8286 C   0  0  0  0  0  0  0  0  0  0  0  0
   20.3131   -8.1126  -15.1485 C   0  0  0  0  0  0  0  0  0  0  0  0
   19.1822   -7.5323  -15.2954 O   0  0  0  0  0  0  0  0  0  0  0  0
   21.2341   -7.4206  -14.3323 N   0  0  0  0  0  0  0  0  0  0  0  0
   20.9010   -6.2062  -13.6038 C   0  0  1  0  0  0  0  0  0  0  0  0
   21.0560   -6.5261  -12.1295 C   0  0  0  0  0  0  0  0  0  0  0  0
   20.0094   -7.8766  -11.5905 S   0  0  0  0  0  0  0  0  0  0  0  0
   21.7616   -5.0745  -14.0056 C   0  0  0  0  0  0  0  0  0  0  0  0
   22.7644   -5.3257  -14.7192 O   0  0  0  0  0  0  0  0  0  0  0  0
   21.5340   -3.7696  -13.6485 O   0  0  0  0  0  0  0  0  0  0  0  0
  2  3  1  0
  2  1  1  0
  3  4  1  6
  5  6  1  1
  5  3  1  0
  7  5  1  0
  8  7  2  0
  9  7  1  0
 10  9  1  0
 11 13  1  0
 11 10  1  0
 12 11  2  0
 14 15  1  1
 14 17  1  0
 14 13  1  0
 15 16  1  0
 17 19  1  0
 18 17  2  0
M  END
$$$$
