IGC.pdb
     RDKit          3D

 19 18  0  0  1  0  0  0  0  0999 V2000
   22.3231  -15.9666  -16.9191 C   0  0  0  0  0  0  0  0  0  0  0  0
   23.4430  -14.9981  -16.6177 C   0  0  0  0  0  0  0  0  0  0  0  0
   22.9224  -13.6012  -16.8499 C   0  0  2  0  0  0  0  0  0  0  0  0
   22.5471  -13.4957  -18.3146 C   0  0  0  0  0  0  0  0  0  0  0  0
   23.9763  -12.5505  -16.5799 C   0  0  2  0  0  0  0  0  0  0  0  0
   24.2930  -12.4851  -15.1658 N   0  0  0  0  0  0  0  0  0  0  0  0
   23.5888  -11.2170  -17.0323 C   0  0  0  0  0  0  0  0  0  0  0  0
   23.6839  -10.8884  -18.2434 O   0  0  0  0  0  0  0  0  0  0  0  0
   23.0806  -10.1956  -16.1594 N   0  0  0  0  0  0  0  0  0  0  0  0
   22.6841   -8.9003  -16.6564 C   0  0  0  0  0  0  0  0  0  0  0  0
   22.1713   -7.9748  -15.6643 C   0  0  0  0  0  0  0  0  0  0  0  0
   21.6053   -8.4838  -14.6357 O   0  0  0  0  0  0  0  0  0  0  0  0
   22.2137   -6.5638  -15.6815 N   0  0  0  0  0  0  0  0  0  0  0  0
   21.6682   -5.7348  -14.6175 C   0  0  1  0  0  0  0  0  0  0  0  0
   22.7646   -4.7686  -14.2123 C   0  0  0  0  0  0  0  0  0  0  0  0
   22.3162   -3.7454  -12.8117 S   0  0  0  0  0  0  0  0  0  0  0  0
   20.4502   -5.0202  -15.0516 C   0  0  0  0  0  0  0  0  0  0  0  0
   20.3955   -4.6259  -16.2431 O   0  0  0  0  0  0  0  0  0  0  0  0
   19.3778   -4.7612  -14.2362 O   0  0  0  0  0  0  0  0  0  0  0  0
  2  3  1  0
  2  1  1  0
  3  4  1  6
  5  6  1  1
  5  3  1  0
  7  5  1  0
  8  7  2  0
  9  7  1  0
 10  9  1  0
 11 13  1  0
 11 10  1  0
 12 11  2  0
 14 15  1  6
 14 17  1  0
 14 13  1  0
 15 16  1  0
 17 19  1  0
 18 17  2  0
M  END
$$$$
