IGC.pdb
     RDKit          3D

 19 18  0  0  1  0  0  0  0  0999 V2000
   17.2443  -11.5999  -17.6620 C   0  0  0  0  0  0  0  0  0  0  0  0
   18.0183  -10.3822  -17.2138 C   0  0  0  0  0  0  0  0  0  0  0  0
   17.9769  -10.3360  -15.7063 C   0  0  2  0  0  0  0  0  0  0  0  0
   16.5275  -10.1634  -15.2984 C   0  0  0  0  0  0  0  0  0  0  0  0
   18.7425   -9.1544  -15.1534 C   0  0  2  0  0  0  0  0  0  0  0  0
   20.1254   -9.1821  -15.5904 N   0  0  0  0  0  0  0  0  0  0  0  0
   18.7165   -9.0834  -13.6948 C   0  0  0  0  0  0  0  0  0  0  0  0
   19.5619   -9.7038  -12.9989 O   0  0  0  0  0  0  0  0  0  0  0  0
   17.7523   -8.3218  -12.9509 N   0  0  0  0  0  0  0  0  0  0  0  0
   17.7693   -8.2768  -11.5088 C   0  0  0  0  0  0  0  0  0  0  0  0
   16.7356   -7.4679  -10.8915 C   0  0  0  0  0  0  0  0  0  0  0  0
   16.0969   -6.6635  -11.6548 O   0  0  0  0  0  0  0  0  0  0  0  0
   16.3328   -7.4486   -9.5386 N   0  0  0  0  0  0  0  0  0  0  0  0
   15.2340   -6.6337   -9.0434 C   0  0  1  0  0  0  0  0  0  0  0  0
   14.5477   -7.4406   -7.9582 C   0  0  0  0  0  0  0  0  0  0  0  0
   14.2234   -9.1349   -8.4422 S   0  0  0  0  0  0  0  0  0  0  0  0
   15.7071   -5.3309   -8.5320 C   0  0  0  0  0  0  0  0  0  0  0  0
   16.8974   -5.2535   -8.1380 O   0  0  0  0  0  0  0  0  0  0  0  0
   14.9291   -4.2033   -8.4607 O   0  0  0  0  0  0  0  0  0  0  0  0
  2  3  1  0
  2  1  1  0
  3  4  1  6
  5  6  1  1
  5  3  1  0
  7  5  1  0
  8  7  2  0
  9  7  1  0
 10  9  1  0
 11 13  1  0
 11 10  1  0
 12 11  2  0
 14 15  1  1
 14 17  1  0
 14 13  1  0
 15 16  1  0
 17 19  1  0
 18 17  2  0
M  END
$$$$
