IGC.pdb
     RDKit          3D

 19 18  0  0  1  0  0  0  0  0999 V2000
   16.5706  -14.3721  -19.9665 C   0  0  0  0  0  0  0  0  0  0  0  0
   17.1945  -14.0674  -18.6246 C   0  0  0  0  0  0  0  0  0  0  0  0
   17.7746  -12.6761  -18.6886 C   0  0  2  0  0  0  0  0  0  0  0  0
   18.9120  -12.7057  -19.6899 C   0  0  0  0  0  0  0  0  0  0  0  0
   18.3562  -12.2419  -17.3616 C   0  0  2  0  0  0  0  0  0  0  0  0
   17.3160  -12.1031  -16.3602 N   0  0  0  0  0  0  0  0  0  0  0  0
   19.0964  -10.9854  -17.4412 C   0  0  0  0  0  0  0  0  0  0  0  0
   20.1687  -10.9031  -18.0949 O   0  0  0  0  0  0  0  0  0  0  0  0
   18.6767   -9.7710  -16.7990 N   0  0  0  0  0  0  0  0  0  0  0  0
   19.4136   -8.5394  -16.9480 C   0  0  0  0  0  0  0  0  0  0  0  0
   20.1066   -8.0726  -15.7623 C   0  0  0  0  0  0  0  0  0  0  0  0
   19.4879   -8.1858  -14.6480 O   0  0  0  0  0  0  0  0  0  0  0  0
   21.3939   -7.5003  -15.6714 N   0  0  0  0  0  0  0  0  0  0  0  0
   22.0096   -7.1142  -14.4110 C   0  0  1  0  0  0  0  0  0  0  0  0
   23.3205   -7.8709  -14.3167 C   0  0  0  0  0  0  0  0  0  0  0  0
   23.1000   -9.6195  -13.9946 S   0  0  0  0  0  0  0  0  0  0  0  0
   22.2203   -5.6542  -14.3305 C   0  0  0  0  0  0  0  0  0  0  0  0
   22.2418   -5.0051  -15.4058 O   0  0  0  0  0  0  0  0  0  0  0  0
   22.3936   -4.9649  -13.1570 O   0  0  0  0  0  0  0  0  0  0  0  0
  2  3  1  0
  2  1  1  0
  3  4  1  6
  5  6  1  1
  5  3  1  0
  7  5  1  0
  8  7  2  0
  9  7  1  0
 10  9  1  0
 11 13  1  0
 11 10  1  0
 12 11  2  0
 14 15  1  6
 14 17  1  0
 14 13  1  0
 15 16  1  0
 17 19  1  0
 18 17  2  0
M  END
$$$$
