IGC.pdb
     RDKit          3D

 19 18  0  0  1  0  0  0  0  0999 V2000
   26.5749  -17.0440  -18.2134 C   0  0  0  0  0  0  0  0  0  0  0  0
   25.8064  -15.8555  -17.6845 C   0  0  0  0  0  0  0  0  0  0  0  0
   26.7931  -14.7441  -17.4249 C   0  0  2  0  0  0  0  0  0  0  0  0
   27.6505  -15.1657  -16.2484 C   0  0  0  0  0  0  0  0  0  0  0  0
   26.1056  -13.4532  -17.0393 C   0  0  2  0  0  0  0  0  0  0  0  0
   25.2775  -12.9625  -18.1244 N   0  0  0  0  0  0  0  0  0  0  0  0
   27.0381  -12.3981  -16.6515 C   0  0  0  0  0  0  0  0  0  0  0  0
   28.2624  -12.4774  -16.9320 O   0  0  0  0  0  0  0  0  0  0  0  0
   26.6495  -11.2137  -15.9377 N   0  0  0  0  0  0  0  0  0  0  0  0
   27.6030  -10.1860  -15.5958 C   0  0  0  0  0  0  0  0  0  0  0  0
   28.2365   -9.5167  -16.7159 C   0  0  0  0  0  0  0  0  0  0  0  0
   29.0254   -8.5476  -16.4402 O   0  0  0  0  0  0  0  0  0  0  0  0
   28.0971   -9.7957  -18.0928 N   0  0  0  0  0  0  0  0  0  0  0  0
   28.7812   -9.0440  -19.1337 C   0  0  1  0  0  0  0  0  0  0  0  0
   30.2512   -9.4040  -19.0366 C   0  0  0  0  0  0  0  0  0  0  0  0
   30.5556  -11.1620  -19.1999 S   0  0  0  0  0  0  0  0  0  0  0  0
   28.2372   -9.3467  -20.4735 C   0  0  0  0  0  0  0  0  0  0  0  0
   28.6239   -8.6388  -21.4365 O   0  0  0  0  0  0  0  0  0  0  0  0
   27.3381  -10.3504  -20.7306 O   0  0  0  0  0  0  0  0  0  0  0  0
  2  3  1  0
  2  1  1  0
  3  4  1  1
  5  6  1  6
  5  3  1  0
  7  5  1  0
  8  7  2  0
  9  7  1  0
 10  9  1  0
 11 13  1  0
 11 10  1  0
 12 11  2  0
 14 15  1  6
 14 17  1  0
 14 13  1  0
 15 16  1  0
 17 19  1  0
 18 17  2  0
M  END
$$$$
