IGC.pdb
     RDKit          3D

 19 18  0  0  1  0  0  0  0  0999 V2000
   25.5138  -15.7647  -18.1397 C   0  0  0  0  0  0  0  0  0  0  0  0
   24.7138  -16.5750  -17.1466 C   0  0  0  0  0  0  0  0  0  0  0  0
   25.5657  -17.7394  -16.7055 C   0  0  2  0  0  0  0  0  0  0  0  0
   24.9719  -18.9922  -17.3179 C   0  0  0  0  0  0  0  0  0  0  0  0
   25.5456  -17.9210  -15.2040 C   0  0  2  0  0  0  0  0  0  0  0  0
   26.1183  -16.7685  -14.5347 N   0  0  0  0  0  0  0  0  0  0  0  0
   26.2550  -19.1176  -14.7594 C   0  0  0  0  0  0  0  0  0  0  0  0
   25.8544  -20.2670  -15.0791 O   0  0  0  0  0  0  0  0  0  0  0  0
   27.4365  -19.0867  -13.9430 N   0  0  0  0  0  0  0  0  0  0  0  0
   28.0625  -20.2965  -13.4672 C   0  0  0  0  0  0  0  0  0  0  0  0
   27.5191  -20.8465  -12.2400 C   0  0  0  0  0  0  0  0  0  0  0  0
   27.9727  -21.9824  -11.8640 O   0  0  0  0  0  0  0  0  0  0  0  0
   26.5402  -20.2872  -11.3903 N   0  0  0  0  0  0  0  0  0  0  0  0
   25.9057  -21.0243  -10.3082 C   0  0  1  0  0  0  0  0  0  0  0  0
   26.5606  -20.5596   -9.0218 C   0  0  0  0  0  0  0  0  0  0  0  0
   26.1689  -18.8608   -8.6086 S   0  0  0  0  0  0  0  0  0  0  0  0
   24.4448  -20.8060  -10.2815 C   0  0  0  0  0  0  0  0  0  0  0  0
   23.9606  -19.9813  -11.0960 O   0  0  0  0  0  0  0  0  0  0  0  0
   23.5862  -21.4465   -9.4243 O   0  0  0  0  0  0  0  0  0  0  0  0
  2  3  1  0
  2  1  1  0
  3  4  1  6
  5  6  1  1
  5  3  1  0
  7  5  1  0
  8  7  2  0
  9  7  1  0
 10  9  1  0
 11 13  1  0
 11 10  1  0
 12 11  2  0
 14 15  1  1
 14 17  1  0
 14 13  1  0
 15 16  1  0
 17 19  1  0
 18 17  2  0
M  END
$$$$
