IGC.pdb
     RDKit          3D

 19 18  0  0  1  0  0  0  0  0999 V2000
   26.7420  -21.0713   -9.9064 C   0  0  0  0  0  0  0  0  0  0  0  0
   25.8402  -21.8744  -10.8146 C   0  0  0  0  0  0  0  0  0  0  0  0
   25.3771  -20.9673  -11.9276 C   0  0  2  0  0  0  0  0  0  0  0  0
   24.4526  -19.9345  -11.3147 C   0  0  0  0  0  0  0  0  0  0  0  0
   24.5830  -21.7147  -12.9758 C   0  0  2  0  0  0  0  0  0  0  0  0
   25.3549  -22.8128  -13.5258 N   0  0  0  0  0  0  0  0  0  0  0  0
   24.1363  -20.8632  -14.0751 C   0  0  0  0  0  0  0  0  0  0  0  0
   24.9210  -20.5340  -15.0023 O   0  0  0  0  0  0  0  0  0  0  0  0
   22.8021  -20.3435  -14.1893 N   0  0  0  0  0  0  0  0  0  0  0  0
   22.4284  -19.4371  -15.2479 C   0  0  0  0  0  0  0  0  0  0  0  0
   23.1698  -18.1915  -15.3019 C   0  0  0  0  0  0  0  0  0  0  0  0
   22.9780  -17.3619  -14.3467 O   0  0  0  0  0  0  0  0  0  0  0  0
   24.0901  -17.7645  -16.2835 N   0  0  0  0  0  0  0  0  0  0  0  0
   24.7316  -16.4588  -16.2634 C   0  0  1  0  0  0  0  0  0  0  0  0
   25.7921  -16.5109  -15.1807 C   0  0  0  0  0  0  0  0  0  0  0  0
   26.8187  -15.0433  -15.1324 S   0  0  0  0  0  0  0  0  0  0  0  0
   25.3152  -16.1164  -17.5768 C   0  0  0  0  0  0  0  0  0  0  0  0
   25.6873  -17.0610  -18.3166 O   0  0  0  0  0  0  0  0  0  0  0  0
   25.4756  -14.8342  -18.0373 O   0  0  0  0  0  0  0  0  0  0  0  0
  2  3  1  0
  2  1  1  0
  3  4  1  1
  5  6  1  6
  5  3  1  0
  7  5  1  0
  8  7  2  0
  9  7  1  0
 10  9  1  0
 11 13  1  0
 11 10  1  0
 12 11  2  0
 14 15  1  1
 14 17  1  0
 14 13  1  0
 15 16  1  0
 17 19  1  0
 18 17  2  0
M  END
$$$$
