IGC.pdb
     RDKit          3D

 19 18  0  0  1  0  0  0  0  0999 V2000
   31.4630  -30.5227  -18.1408 C   0  0  0  0  0  0  0  0  0  0  0  0
   30.5036  -30.5691  -16.9745 C   0  0  0  0  0  0  0  0  0  0  0  0
   29.6170  -31.7770  -17.1517 C   0  0  2  0  0  0  0  0  0  0  0  0
   28.8996  -31.6212  -18.4776 C   0  0  0  0  0  0  0  0  0  0  0  0
   28.5575  -31.8661  -16.0760 C   0  0  2  0  0  0  0  0  0  0  0  0
   29.1573  -32.0938  -14.7750 N   0  0  0  0  0  0  0  0  0  0  0  0
   27.5721  -32.9152  -16.3242 C   0  0  0  0  0  0  0  0  0  0  0  0
   26.8479  -32.8961  -17.3533 O   0  0  0  0  0  0  0  0  0  0  0  0
   27.3512  -34.0263  -15.4411 N   0  0  0  0  0  0  0  0  0  0  0  0
   26.3942  -35.0616  -15.7482 C   0  0  0  0  0  0  0  0  0  0  0  0
   26.8283  -36.4198  -15.4819 C   0  0  0  0  0  0  0  0  0  0  0  0
   25.9784  -37.3519  -15.6972 O   0  0  0  0  0  0  0  0  0  0  0  0
   28.0840  -36.8588  -15.0091 N   0  0  0  0  0  0  0  0  0  0  0  0
   28.3805  -38.2495  -14.7016 C   0  0  1  0  0  0  0  0  0  0  0  0
   29.5625  -38.6444  -15.5659 C   0  0  0  0  0  0  0  0  0  0  0  0
   30.1560  -40.3009  -15.2289 S   0  0  0  0  0  0  0  0  0  0  0  0
   28.6715  -38.4417  -13.2660 C   0  0  0  0  0  0  0  0  0  0  0  0
   28.6222  -37.4336  -12.5181 O   0  0  0  0  0  0  0  0  0  0  0  0
   28.9915  -39.6499  -12.7003 O   0  0  0  0  0  0  0  0  0  0  0  0
  2  3  1  0
  2  1  1  0
  3  4  1  6
  5  6  1  1
  5  3  1  0
  7  5  1  0
  8  7  2  0
  9  7  1  0
 10  9  1  0
 11 13  1  0
 11 10  1  0
 12 11  2  0
 14 15  1  6
 14 17  1  0
 14 13  1  0
 15 16  1  0
 17 19  1  0
 18 17  2  0
M  END
$$$$
