IGC.pdb
     RDKit          3D

 19 18  0  0  1  0  0  0  0  0999 V2000
   18.8566  -14.5637  -16.2433 C   0  0  0  0  0  0  0  0  0  0  0  0
   18.0250  -13.6643  -17.1278 C   0  0  0  0  0  0  0  0  0  0  0  0
   18.8636  -12.4621  -17.4851 C   0  0  2  0  0  0  0  0  0  0  0  0
   20.2331  -12.9697  -17.8900 C   0  0  0  0  0  0  0  0  0  0  0  0
   19.0591  -11.5356  -16.3057 C   0  0  2  0  0  0  0  0  0  0  0  0
   17.7886  -11.0112  -15.8420 N   0  0  0  0  0  0  0  0  0  0  0  0
   19.9475  -10.4134  -16.5965 C   0  0  0  0  0  0  0  0  0  0  0  0
   21.1979  -10.5412  -16.5334 O   0  0  0  0  0  0  0  0  0  0  0  0
   19.4843   -9.1056  -16.9685 N   0  0  0  0  0  0  0  0  0  0  0  0
   20.3962   -8.0055  -17.1686 C   0  0  0  0  0  0  0  0  0  0  0  0
   20.2893   -6.9173  -16.2155 C   0  0  0  0  0  0  0  0  0  0  0  0
   19.2824   -6.1372  -16.3382 O   0  0  0  0  0  0  0  0  0  0  0  0
   21.1619   -6.5980  -15.1527 N   0  0  0  0  0  0  0  0  0  0  0  0
   20.9057   -5.5262  -14.2028 C   0  0  1  0  0  0  0  0  0  0  0  0
   20.4469   -6.1848  -12.9161 C   0  0  0  0  0  0  0  0  0  0  0  0
   21.6071   -7.4023  -12.2983 S   0  0  0  0  0  0  0  0  0  0  0  0
   22.1044   -4.6904  -13.9855 C   0  0  0  0  0  0  0  0  0  0  0  0
   23.1578   -5.0082  -14.5916 O   0  0  0  0  0  0  0  0  0  0  0  0
   22.1383   -3.5915  -13.1650 O   0  0  0  0  0  0  0  0  0  0  0  0
  2  3  1  0
  2  1  1  0
  3  4  1  1
  5  6  1  6
  5  3  1  0
  7  5  1  0
  8  7  2  0
  9  7  1  0
 10  9  1  0
 11 13  1  0
 11 10  1  0
 12 11  2  0
 14 15  1  1
 14 17  1  0
 14 13  1  0
 15 16  1  0
 17 19  1  0
 18 17  2  0
M  END
$$$$
