IGC.pdb
     RDKit          3D

 19 18  0  0  1  0  0  0  0  0999 V2000
   20.3536  -18.8686  -13.6112 C   0  0  0  0  0  0  0  0  0  0  0  0
   19.4939  -20.0826  -13.3466 C   0  0  0  0  0  0  0  0  0  0  0  0
   19.9800  -20.7254  -12.0712 C   0  0  2  0  0  0  0  0  0  0  0  0
   21.3835  -21.2365  -12.3284 C   0  0  0  0  0  0  0  0  0  0  0  0
   19.1341  -21.9159  -11.6773 C   0  0  2  0  0  0  0  0  0  0  0  0
   17.8313  -21.4914  -11.2012 N   0  0  0  0  0  0  0  0  0  0  0  0
   19.7557  -22.7495  -10.6518 C   0  0  0  0  0  0  0  0  0  0  0  0
   20.8188  -23.3815  -10.8843 O   0  0  0  0  0  0  0  0  0  0  0  0
   19.2227  -22.9149   -9.3282 N   0  0  0  0  0  0  0  0  0  0  0  0
   19.7899  -23.8565   -8.3935 C   0  0  0  0  0  0  0  0  0  0  0  0
   18.8567  -24.7953   -7.8004 C   0  0  0  0  0  0  0  0  0  0  0  0
   18.7058  -25.9169   -8.3976 O   0  0  0  0  0  0  0  0  0  0  0  0
   18.0794  -24.6348   -6.6329 N   0  0  0  0  0  0  0  0  0  0  0  0
   17.2496  -25.6910   -6.0739 C   0  0  1  0  0  0  0  0  0  0  0  0
   17.0653  -25.3683   -4.6036 C   0  0  0  0  0  0  0  0  0  0  0  0
   16.3924  -23.7317   -4.3232 S   0  0  0  0  0  0  0  0  0  0  0  0
   15.9517  -25.7936   -6.7723 C   0  0  0  0  0  0  0  0  0  0  0  0
   15.5726  -24.8075   -7.4519 O   0  0  0  0  0  0  0  0  0  0  0  0
   15.1370  -26.8963   -6.7248 O   0  0  0  0  0  0  0  0  0  0  0  0
  2  3  1  0
  2  1  1  0
  3  4  1  6
  5  6  1  1
  5  3  1  0
  7  5  1  0
  8  7  2  0
  9  7  1  0
 10  9  1  0
 11 13  1  0
 11 10  1  0
 12 11  2  0
 14 15  1  1
 14 17  1  0
 14 13  1  0
 15 16  1  0
 17 19  1  0
 18 17  2  0
M  END
$$$$
