IGC.pdb
     RDKit          3D

 19 18  0  0  1  0  0  0  0  0999 V2000
   24.3205  -14.4966  -19.9025 C   0  0  0  0  0  0  0  0  0  0  0  0
   24.5285  -13.9184  -18.5222 C   0  0  0  0  0  0  0  0  0  0  0  0
   24.4923  -12.4147  -18.6394 C   0  0  2  0  0  0  0  0  0  0  0  0
   25.6685  -11.9994  -19.5003 C   0  0  0  0  0  0  0  0  0  0  0  0
   24.6568  -11.7366  -17.2975 C   0  0  2  0  0  0  0  0  0  0  0  0
   23.5441  -12.0465  -16.4200 N   0  0  0  0  0  0  0  0  0  0  0  0
   24.7802  -10.2847  -17.3976 C   0  0  0  0  0  0  0  0  0  0  0  0
   25.8071   -9.7525  -17.8937 O   0  0  0  0  0  0  0  0  0  0  0  0
   23.7699   -9.3662  -16.9516 N   0  0  0  0  0  0  0  0  0  0  0  0
   23.8824   -7.9455  -17.1771 C   0  0  0  0  0  0  0  0  0  0  0  0
   22.8182   -7.1329  -16.6193 C   0  0  0  0  0  0  0  0  0  0  0  0
   22.9462   -5.8636  -16.7191 O   0  0  0  0  0  0  0  0  0  0  0  0
   21.6402   -7.5618  -15.9701 N   0  0  0  0  0  0  0  0  0  0  0  0
   20.5852   -6.6538  -15.5469 C   0  0  1  0  0  0  0  0  0  0  0  0
   19.4578   -6.7976  -16.5510 C   0  0  0  0  0  0  0  0  0  0  0  0
   18.9445   -8.4971  -16.7914 S   0  0  0  0  0  0  0  0  0  0  0  0
   20.1279   -6.9498  -14.1735 C   0  0  0  0  0  0  0  0  0  0  0  0
   20.6460   -7.9294  -13.5819 O   0  0  0  0  0  0  0  0  0  0  0  0
   19.1749   -6.2230  -13.5060 O   0  0  0  0  0  0  0  0  0  0  0  0
  2  3  1  0
  2  1  1  0
  3  4  1  6
  5  6  1  1
  5  3  1  0
  7  5  1  0
  8  7  2  0
  9  7  1  0
 10  9  1  0
 11 13  1  0
 11 10  1  0
 12 11  2  0
 14 15  1  6
 14 17  1  0
 14 13  1  0
 15 16  1  0
 17 19  1  0
 18 17  2  0
M  END
$$$$
