IGC.pdb
     RDKit          3D

 19 18  0  0  1  0  0  0  0  0999 V2000
   30.4684  -21.0651  -10.6252 C   0  0  0  0  0  0  0  0  0  0  0  0
   29.8093  -21.3203  -11.9606 C   0  0  0  0  0  0  0  0  0  0  0  0
   28.4618  -20.6417  -11.9494 C   0  0  2  0  0  0  0  0  0  0  0  0
   27.6179  -21.3287  -10.8944 C   0  0  0  0  0  0  0  0  0  0  0  0
   27.7395  -20.7921  -13.2697 C   0  0  2  0  0  0  0  0  0  0  0  0
   28.5803  -20.3659  -14.3722 N   0  0  0  0  0  0  0  0  0  0  0  0
   26.4841  -20.0479  -13.3270 C   0  0  0  0  0  0  0  0  0  0  0  0
   26.4729  -18.8081  -13.5427 O   0  0  0  0  0  0  0  0  0  0  0  0
   25.1921  -20.6493  -13.1473 N   0  0  0  0  0  0  0  0  0  0  0  0
   23.9961  -19.8533  -13.0136 C   0  0  0  0  0  0  0  0  0  0  0  0
   22.7571  -20.5955  -12.8793 C   0  0  0  0  0  0  0  0  0  0  0  0
   22.8039  -21.8499  -13.1280 O   0  0  0  0  0  0  0  0  0  0  0  0
   21.4849  -20.1115  -12.5048 N   0  0  0  0  0  0  0  0  0  0  0  0
   20.3575  -20.9791  -12.2003 C   0  0  1  0  0  0  0  0  0  0  0  0
   19.6637  -20.3836  -10.9904 C   0  0  0  0  0  0  0  0  0  0  0  0
   20.8053  -19.8714   -9.7082 S   0  0  0  0  0  0  0  0  0  0  0  0
   19.4353  -21.0999  -13.3482 C   0  0  0  0  0  0  0  0  0  0  0  0
   19.5307  -20.2501  -14.2684 O   0  0  0  0  0  0  0  0  0  0  0  0
   18.4835  -22.0803  -13.4713 O   0  0  0  0  0  0  0  0  0  0  0  0
  2  3  1  0
  2  1  1  0
  3  4  1  1
  5  6  1  6
  5  3  1  0
  7  5  1  0
  8  7  2  0
  9  7  1  0
 10  9  1  0
 11 13  1  0
 11 10  1  0
 12 11  2  0
 14 15  1  1
 14 17  1  0
 14 13  1  0
 15 16  1  0
 17 19  1  0
 18 17  2  0
M  END
$$$$
