EDE.pdb
     RDKit          3D

 27 26  0  0  1  0  0  0  0  0999 V2000
   17.7724  -12.5139  -17.6033 N   0  0  0  0  0  0  0  0  0  0  0  0
   17.0383  -12.0752  -16.4541 C   0  0  1  0  0  0  0  0  0  0  0  0
   16.6054  -13.1326  -15.5089 C   0  0  0  0  0  0  0  0  0  0  0  0
   17.2632  -14.4600  -15.6355 C   0  0  0  0  0  0  0  0  0  0  0  0
   16.7662  -15.4415  -14.6629 C   0  0  0  0  0  0  0  0  0  0  0  0
   15.8716  -15.1543  -13.8525 O   0  0  0  0  0  0  0  0  0  0  0  0
   17.8134  -10.9885  -15.7676 C   0  0  0  0  0  0  0  0  0  0  0  0
   17.3162  -10.4255  -14.7538 O   0  0  0  0  0  0  0  0  0  0  0  0
   17.3168  -16.7350  -14.6507 O   0  0  0  0  0  0  0  0  0  0  0  0
   19.1066  -10.5572  -16.2103 N   0  0  0  0  0  0  0  0  0  0  0  0
   19.6853   -9.3894  -15.5644 C   0  0  1  0  0  0  0  0  0  0  0  0
   21.2165   -9.6012  -15.5698 C   0  0  0  0  0  0  0  0  0  0  0  0
   21.8809   -8.4397  -14.8832 C   0  0  0  0  0  0  0  0  0  0  0  0
   21.6069   -8.1429  -13.6737 O   0  0  0  0  0  0  0  0  0  0  0  0
   19.2917   -8.1351  -16.2054 C   0  0  0  0  0  0  0  0  0  0  0  0
   19.2995   -8.0029  -17.4545 O   0  0  0  0  0  0  0  0  0  0  0  0
   22.8214   -7.6255  -15.5158 O   0  0  0  0  0  0  0  0  0  0  0  0
   18.8730   -6.9800  -15.4599 N   0  0  0  0  0  0  0  0  0  0  0  0
   18.4825   -5.7151  -16.0912 C   0  0  1  0  0  0  0  0  0  0  0  0
   17.3387   -5.1968  -15.2602 C   0  0  0  0  0  0  0  0  0  0  0  0
   16.7675   -3.8923  -15.6722 C   0  0  0  0  0  0  0  0  0  0  0  0
   15.6460   -3.3927  -14.8468 C   0  0  0  0  0  0  0  0  0  0  0  0
   15.4766   -2.1548  -14.7427 O   0  0  0  0  0  0  0  0  0  0  0  0
   19.6284   -4.7842  -16.1309 C   0  0  0  0  0  0  0  0  0  0  0  0
   19.7382   -3.8726  -17.1610 O   0  0  0  0  0  0  0  0  0  0  0  0
   14.7532   -4.2313  -14.1736 O   0  0  0  0  0  0  0  0  0  0  0  0
   20.4968   -4.8151  -15.2450 O   0  0  0  0  0  0  0  0  0  0  0  0
  2  1  1  6
  2  7  1  0
  3  2  1  0
  4  3  1  0
  5  4  1  0
  5  6  2  0
  7 10  1  0
  7  8  2  0
  9  5  1  0
 10 11  1  0
 11 12  1  6
 13 12  1  0
 13 17  1  0
 14 13  2  0
 15 11  1  0
 15 16  2  0
 18 15  1  0
 19 18  1  0
 19 20  1  1
 20 21  1  0
 21 22  1  0
 22 23  2  0
 22 26  1  0
 24 19  1  0
 25 24  1  0
 27 24  2  0
M  END
$$$$
