EDE.pdb
     RDKit          3D

 27 26  0  0  1  0  0  0  0  0999 V2000
   26.3569  -20.7273  -14.1262 N   0  0  0  0  0  0  0  0  0  0  0  0
   25.6901  -20.9906  -15.3664 C   0  0  1  0  0  0  0  0  0  0  0  0
   26.1708  -22.1650  -16.1334 C   0  0  0  0  0  0  0  0  0  0  0  0
   27.2457  -21.9237  -17.1319 C   0  0  0  0  0  0  0  0  0  0  0  0
   26.7312  -21.4696  -18.4302 C   0  0  0  0  0  0  0  0  0  0  0  0
   25.5156  -21.3192  -18.6282 O   0  0  0  0  0  0  0  0  0  0  0  0
   24.2102  -21.0449  -15.1210 C   0  0  0  0  0  0  0  0  0  0  0  0
   23.4336  -21.2563  -16.0926 O   0  0  0  0  0  0  0  0  0  0  0  0
   27.6369  -21.1994  -19.4709 O   0  0  0  0  0  0  0  0  0  0  0  0
   23.6306  -20.8700  -13.8219 N   0  0  0  0  0  0  0  0  0  0  0  0
   22.1797  -20.9007  -13.7215 C   0  0  1  0  0  0  0  0  0  0  0  0
   21.8505  -21.1783  -12.2369 C   0  0  0  0  0  0  0  0  0  0  0  0
   20.3630  -21.3347  -12.0790 C   0  0  0  0  0  0  0  0  0  0  0  0
   19.6964  -22.1114  -12.8395 O   0  0  0  0  0  0  0  0  0  0  0  0
   21.5526  -19.6746  -14.2139 C   0  0  0  0  0  0  0  0  0  0  0  0
   21.9177  -18.5413  -13.8136 O   0  0  0  0  0  0  0  0  0  0  0  0
   19.6301  -20.6498  -11.1088 O   0  0  0  0  0  0  0  0  0  0  0  0
   20.4877  -19.6805  -15.1789 N   0  0  0  0  0  0  0  0  0  0  0  0
   19.7576  -18.4723  -15.5765 C   0  0  1  0  0  0  0  0  0  0  0  0
   20.0841  -18.2762  -17.0333 C   0  0  0  0  0  0  0  0  0  0  0  0
   21.2096  -17.3597  -17.3352 C   0  0  0  0  0  0  0  0  0  0  0  0
   20.8982  -15.9151  -17.2648 C   0  0  0  0  0  0  0  0  0  0  0  0
   20.0723  -15.4344  -18.0765 O   0  0  0  0  0  0  0  0  0  0  0  0
   18.3108  -18.6412  -15.3323 C   0  0  0  0  0  0  0  0  0  0  0  0
   17.5760  -17.5985  -14.8061 O   0  0  0  0  0  0  0  0  0  0  0  0
   21.4752  -15.0484  -16.3324 O   0  0  0  0  0  0  0  0  0  0  0  0
   17.7484  -19.7157  -15.5950 O   0  0  0  0  0  0  0  0  0  0  0  0
  2  1  1  1
  2  7  1  0
  3  2  1  0
  4  3  1  0
  5  4  1  0
  5  6  2  0
  7 10  1  0
  7  8  2  0
  9  5  1  0
 10 11  1  0
 11 12  1  1
 13 12  1  0
 13 17  1  0
 14 13  2  0
 15 11  1  0
 15 16  2  0
 18 15  1  0
 19 18  1  0
 19 20  1  6
 20 21  1  0
 21 22  1  0
 22 23  2  0
 22 26  1  0
 24 19  1  0
 25 24  1  0
 27 24  2  0
M  END
$$$$
