EDE.pdb
     RDKit          3D

 27 26  0  0  1  0  0  0  0  0999 V2000
   25.8113  -22.6204  -14.3900 N   0  0  0  0  0  0  0  0  0  0  0  0
   26.0892  -21.2282  -14.1985 C   0  0  1  0  0  0  0  0  0  0  0  0
   27.1241  -20.6381  -15.0815 C   0  0  0  0  0  0  0  0  0  0  0  0
   27.2222  -21.1822  -16.4617 C   0  0  0  0  0  0  0  0  0  0  0  0
   28.2320  -20.4965  -17.2781 C   0  0  0  0  0  0  0  0  0  0  0  0
   28.4037  -19.2702  -17.2003 O   0  0  0  0  0  0  0  0  0  0  0  0
   24.7992  -20.4628  -14.2522 C   0  0  0  0  0  0  0  0  0  0  0  0
   24.3233  -19.9849  -13.1859 O   0  0  0  0  0  0  0  0  0  0  0  0
   29.0212  -21.2473  -18.1669 O   0  0  0  0  0  0  0  0  0  0  0  0
   24.0758  -20.2428  -15.4699 N   0  0  0  0  0  0  0  0  0  0  0  0
   22.8813  -19.4153  -15.4041 C   0  0  1  0  0  0  0  0  0  0  0  0
   23.1413  -18.1994  -16.3225 C   0  0  0  0  0  0  0  0  0  0  0  0
   21.9583  -17.2724  -16.2658 C   0  0  0  0  0  0  0  0  0  0  0  0
   20.9905  -17.4853  -15.4634 O   0  0  0  0  0  0  0  0  0  0  0  0
   21.6674  -20.1441  -15.7708 C   0  0  0  0  0  0  0  0  0  0  0  0
   21.5922  -20.8046  -16.8366 O   0  0  0  0  0  0  0  0  0  0  0  0
   21.8454  -16.1413  -17.0755 O   0  0  0  0  0  0  0  0  0  0  0  0
   20.4899  -20.1555  -14.9471 N   0  0  0  0  0  0  0  0  0  0  0  0
   19.2707  -20.8909  -15.2991 C   0  0  1  0  0  0  0  0  0  0  0  0
   19.2937  -22.1264  -14.4386 C   0  0  0  0  0  0  0  0  0  0  0  0
   18.4358  -22.0994  -13.2299 C   0  0  0  0  0  0  0  0  0  0  0  0
   18.3398  -23.3721  -12.4817 C   0  0  0  0  0  0  0  0  0  0  0  0
   17.6107  -23.4209  -11.4629 O   0  0  0  0  0  0  0  0  0  0  0  0
   18.0778  -20.0525  -15.0644 C   0  0  0  0  0  0  0  0  0  0  0  0
   16.9197  -20.2899  -15.7763 O   0  0  0  0  0  0  0  0  0  0  0  0
   19.0191  -24.5357  -12.8530 O   0  0  0  0  0  0  0  0  0  0  0  0
   18.1074  -19.1328  -14.2318 O   0  0  0  0  0  0  0  0  0  0  0  0
  2  1  1  6
  2  7  1  0
  3  2  1  0
  4  3  1  0
  5  4  1  0
  5  6  2  0
  7 10  1  0
  7  8  2  0
  9  5  1  0
 10 11  1  0
 11 12  1  6
 13 12  1  0
 13 17  1  0
 14 13  2  0
 15 11  1  0
 15 16  2  0
 18 15  1  0
 19 18  1  0
 19 20  1  1
 20 21  1  0
 21 22  1  0
 22 23  2  0
 22 26  1  0
 24 19  1  0
 25 24  1  0
 27 24  2  0
M  END
$$$$
