EDE.pdb
     RDKit          3D

 27 26  0  0  1  0  0  0  0  0999 V2000
   16.3652  -12.0183  -14.2680 N   0  0  0  0  0  0  0  0  0  0  0  0
   17.4912  -11.6930  -15.0916 C   0  0  1  0  0  0  0  0  0  0  0  0
   17.8122  -12.6544  -16.1739 C   0  0  0  0  0  0  0  0  0  0  0  0
   17.1575  -13.9877  -16.1069 C   0  0  0  0  0  0  0  0  0  0  0  0
   17.6019  -14.8990  -17.1691 C   0  0  0  0  0  0  0  0  0  0  0  0
   18.4656  -14.5606  -17.9932 O   0  0  0  0  0  0  0  0  0  0  0  0
   17.3262  -10.2943  -15.6107 C   0  0  0  0  0  0  0  0  0  0  0  0
   18.2722   -9.7619  -16.2538 O   0  0  0  0  0  0  0  0  0  0  0  0
   17.0359  -16.1831  -17.2530 O   0  0  0  0  0  0  0  0  0  0  0  0
   16.1318   -9.5272  -15.4124 N   0  0  0  0  0  0  0  0  0  0  0  0
   16.1253   -8.1540  -15.8923 C   0  0  1  0  0  0  0  0  0  0  0  0
   14.6413   -7.7641  -16.0798 C   0  0  0  0  0  0  0  0  0  0  0  0
   14.0230   -8.6514  -17.1250 C   0  0  0  0  0  0  0  0  0  0  0  0
   14.4551   -8.6584  -18.3247 O   0  0  0  0  0  0  0  0  0  0  0  0
   16.8357   -7.2393  -14.9992 C   0  0  0  0  0  0  0  0  0  0  0  0
   16.6544   -7.2588  -13.7563 O   0  0  0  0  0  0  0  0  0  0  0  0
   12.9541   -9.5066  -16.8538 O   0  0  0  0  0  0  0  0  0  0  0  0
   17.7798   -6.2660  -15.4753 N   0  0  0  0  0  0  0  0  0  0  0  0
   18.4787   -5.3264  -14.5923 C   0  0  1  0  0  0  0  0  0  0  0  0
   19.9237   -5.7479  -14.6334 C   0  0  0  0  0  0  0  0  0  0  0  0
   20.8714   -4.9163  -13.8537 C   0  0  0  0  0  0  0  0  0  0  0  0
   22.2935   -5.3159  -13.9347 C   0  0  0  0  0  0  0  0  0  0  0  0
   22.6411   -6.4164  -13.4446 O   0  0  0  0  0  0  0  0  0  0  0  0
   18.2745   -3.9381  -15.0529 C   0  0  0  0  0  0  0  0  0  0  0  0
   18.5606   -2.8846  -14.2089 O   0  0  0  0  0  0  0  0  0  0  0  0
   23.2803   -4.5302  -14.5366 O   0  0  0  0  0  0  0  0  0  0  0  0
   17.8452   -3.7093  -16.1945 O   0  0  0  0  0  0  0  0  0  0  0  0
  2  1  1  6
  2  7  1  0
  3  2  1  0
  4  3  1  0
  5  4  1  0
  5  6  2  0
  7 10  1  0
  7  8  2  0
  9  5  1  0
 10 11  1  0
 11 12  1  1
 13 12  1  0
 13 17  1  0
 14 13  2  0
 15 11  1  0
 15 16  2  0
 18 15  1  0
 19 18  1  0
 19 20  1  6
 20 21  1  0
 21 22  1  0
 22 23  2  0
 22 26  1  0
 24 19  1  0
 25 24  1  0
 27 24  2  0
M  END
$$$$
