EDE.pdb
     RDKit          3D

 27 26  0  0  1  0  0  0  0  0999 V2000
   19.8233  -11.9931  -16.3191 N   0  0  0  0  0  0  0  0  0  0  0  0
   20.7907  -11.0123  -16.7120 C   0  0  1  0  0  0  0  0  0  0  0  0
   20.8795  -10.7229  -18.1636 C   0  0  0  0  0  0  0  0  0  0  0  0
   19.7441  -11.1736  -19.0112 C   0  0  0  0  0  0  0  0  0  0  0  0
   19.4013  -10.2140  -20.0686 C   0  0  0  0  0  0  0  0  0  0  0  0
   19.6695  -10.4390  -21.2589 O   0  0  0  0  0  0  0  0  0  0  0  0
   20.5781   -9.7673  -15.9010 C   0  0  0  0  0  0  0  0  0  0  0  0
   19.4305   -9.5253  -15.4359 O   0  0  0  0  0  0  0  0  0  0  0  0
   18.7548   -9.0143  -19.7233 O   0  0  0  0  0  0  0  0  0  0  0  0
   21.6279   -8.8318  -15.6231 N   0  0  0  0  0  0  0  0  0  0  0  0
   21.2691   -7.6005  -14.9366 C   0  0  1  0  0  0  0  0  0  0  0  0
   22.5250   -7.1556  -14.1530 C   0  0  0  0  0  0  0  0  0  0  0  0
   22.2055   -5.9139  -13.3666 C   0  0  0  0  0  0  0  0  0  0  0  0
   21.4623   -5.9609  -12.3315 O   0  0  0  0  0  0  0  0  0  0  0  0
   20.7826   -6.5656  -15.8485 C   0  0  0  0  0  0  0  0  0  0  0  0
   21.2413   -6.4439  -17.0115 O   0  0  0  0  0  0  0  0  0  0  0  0
   22.6916   -4.6530  -13.7151 O   0  0  0  0  0  0  0  0  0  0  0  0
   19.7580   -5.6270  -15.4821 N   0  0  0  0  0  0  0  0  0  0  0  0
   19.2021   -4.6405  -16.4142 C   0  0  1  0  0  0  0  0  0  0  0  0
   18.1600   -5.3879  -17.2034 C   0  0  0  0  0  0  0  0  0  0  0  0
   17.3514   -4.5821  -18.1493 C   0  0  0  0  0  0  0  0  0  0  0  0
   16.3140   -5.3228  -18.9002 C   0  0  0  0  0  0  0  0  0  0  0  0
   15.2738   -4.7174  -19.2517 O   0  0  0  0  0  0  0  0  0  0  0  0
   18.6438   -3.4906  -15.6745 C   0  0  0  0  0  0  0  0  0  0  0  0
   18.4223   -2.2952  -16.3272 O   0  0  0  0  0  0  0  0  0  0  0  0
   16.4314   -6.6717  -19.2473 O   0  0  0  0  0  0  0  0  0  0  0  0
   18.3726   -3.5890  -14.4676 O   0  0  0  0  0  0  0  0  0  0  0  0
  2  1  1  6
  2  7  1  0
  3  2  1  0
  4  3  1  0
  5  4  1  0
  5  6  2  0
  7 10  1  0
  7  8  2  0
  9  5  1  0
 10 11  1  0
 11 12  1  6
 13 12  1  0
 13 17  1  0
 14 13  2  0
 15 11  1  0
 15 16  2  0
 18 15  1  0
 19 18  1  0
 19 20  1  1
 20 21  1  0
 21 22  1  0
 22 23  2  0
 22 26  1  0
 24 19  1  0
 25 24  1  0
 27 24  2  0
M  END
$$$$
