EDE.pdb
     RDKit          3D

 27 26  0  0  1  0  0  0  0  0999 V2000
   18.7558  -12.7660  -17.2707 N   0  0  0  0  0  0  0  0  0  0  0  0
   17.4952  -12.1632  -16.9555 C   0  0  1  0  0  0  0  0  0  0  0  0
   16.9167  -12.5047  -15.6336 C   0  0  0  0  0  0  0  0  0  0  0  0
   16.6756  -13.9453  -15.3555 C   0  0  0  0  0  0  0  0  0  0  0  0
   16.2431  -14.1985  -13.9752 C   0  0  0  0  0  0  0  0  0  0  0  0
   16.0691  -15.3520  -13.5525 O   0  0  0  0  0  0  0  0  0  0  0  0
   17.6011  -10.6797  -17.1581 C   0  0  0  0  0  0  0  0  0  0  0  0
   18.7328  -10.1695  -17.3836 O   0  0  0  0  0  0  0  0  0  0  0  0
   16.0221  -13.1092  -13.1145 O   0  0  0  0  0  0  0  0  0  0  0  0
   16.4662   -9.8055  -17.1108 N   0  0  0  0  0  0  0  0  0  0  0  0
   16.6955   -8.3897  -17.3535 C   0  0  1  0  0  0  0  0  0  0  0  0
   15.3924   -7.8364  -17.9741 C   0  0  0  0  0  0  0  0  0  0  0  0
   15.5812   -6.3829  -18.3115 C   0  0  0  0  0  0  0  0  0  0  0  0
   16.6098   -5.9813  -18.9492 O   0  0  0  0  0  0  0  0  0  0  0  0
   17.0916   -7.6656  -16.1460 C   0  0  0  0  0  0  0  0  0  0  0  0
   16.6022   -7.9411  -15.0224 O   0  0  0  0  0  0  0  0  0  0  0  0
   14.6600   -5.3981  -17.9522 O   0  0  0  0  0  0  0  0  0  0  0  0
   18.0572   -6.6013  -16.1604 N   0  0  0  0  0  0  0  0  0  0  0  0
   18.5069   -5.9088  -14.9483 C   0  0  1  0  0  0  0  0  0  0  0  0
   19.9934   -6.1420  -14.8901 C   0  0  0  0  0  0  0  0  0  0  0  0
   20.7275   -5.4274  -13.8186 C   0  0  0  0  0  0  0  0  0  0  0  0
   22.1938   -5.6233  -13.8038 C   0  0  0  0  0  0  0  0  0  0  0  0
   22.9003   -4.8495  -13.1153 O   0  0  0  0  0  0  0  0  0  0  0  0
   18.1548   -4.4759  -15.0134 C   0  0  0  0  0  0  0  0  0  0  0  0
   18.1587   -3.7141  -13.8629 O   0  0  0  0  0  0  0  0  0  0  0  0
   22.8419   -6.6353  -14.5176 O   0  0  0  0  0  0  0  0  0  0  0  0
   17.8531   -3.9494  -16.0958 O   0  0  0  0  0  0  0  0  0  0  0  0
  2  1  1  1
  2  7  1  0
  3  2  1  0
  4  3  1  0
  5  4  1  0
  5  6  2  0
  7 10  1  0
  7  8  2  0
  9  5  1  0
 10 11  1  0
 11 12  1  1
 13 12  1  0
 13 17  1  0
 14 13  2  0
 15 11  1  0
 15 16  2  0
 18 15  1  0
 19 18  1  0
 19 20  1  6
 20 21  1  0
 21 22  1  0
 22 23  2  0
 22 26  1  0
 24 19  1  0
 25 24  1  0
 27 24  2  0
M  END
$$$$
