EDE.pdb
     RDKit          3D

 27 26  0  0  1  0  0  0  0  0999 V2000
   17.3568  -12.9675  -15.0568 N   0  0  0  0  0  0  0  0  0  0  0  0
   16.4577  -11.8536  -15.0007 C   0  0  1  0  0  0  0  0  0  0  0  0
   15.0492  -12.1638  -14.6564 C   0  0  0  0  0  0  0  0  0  0  0  0
   14.3905  -13.2506  -15.4283 C   0  0  0  0  0  0  0  0  0  0  0  0
   12.9793  -13.4365  -15.0673 C   0  0  0  0  0  0  0  0  0  0  0  0
   12.5853  -14.4704  -14.5058 O   0  0  0  0  0  0  0  0  0  0  0  0
   17.0399  -10.8034  -14.1002 C   0  0  0  0  0  0  0  0  0  0  0  0
   17.4139  -11.1276  -12.9396 O   0  0  0  0  0  0  0  0  0  0  0  0
   12.0552  -12.4196  -15.3646 O   0  0  0  0  0  0  0  0  0  0  0  0
   17.1968   -9.4360  -14.5003 N   0  0  0  0  0  0  0  0  0  0  0  0
   17.7766   -8.5139  -13.5361 C   0  0  1  0  0  0  0  0  0  0  0  0
   18.6402   -7.5206  -14.3466 C   0  0  0  0  0  0  0  0  0  0  0  0
   19.2922   -6.5461  -13.4047 C   0  0  0  0  0  0  0  0  0  0  0  0
   19.9851   -6.9493  -12.4130 O   0  0  0  0  0  0  0  0  0  0  0  0
   16.7671   -7.8406  -12.7195 C   0  0  0  0  0  0  0  0  0  0  0  0
   15.7488   -7.3138  -13.2329 O   0  0  0  0  0  0  0  0  0  0  0  0
   19.1803   -5.1629  -13.5519 O   0  0  0  0  0  0  0  0  0  0  0  0
   16.8682   -7.7363  -11.2898 N   0  0  0  0  0  0  0  0  0  0  0  0
   15.9059   -6.9940  -10.4688 C   0  0  1  0  0  0  0  0  0  0  0  0
   15.9039   -7.6934   -9.1353 C   0  0  0  0  0  0  0  0  0  0  0  0
   15.0877   -7.0670   -8.0679 C   0  0  0  0  0  0  0  0  0  0  0  0
   13.6851   -7.5286   -7.9775 C   0  0  0  0  0  0  0  0  0  0  0  0
   13.3718   -8.6192   -8.5109 O   0  0  0  0  0  0  0  0  0  0  0  0
   16.3009   -5.5744  -10.3696 C   0  0  0  0  0  0  0  0  0  0  0  0
   15.3478   -4.6125  -10.1039 O   0  0  0  0  0  0  0  0  0  0  0  0
   12.6805   -6.8125   -7.3205 O   0  0  0  0  0  0  0  0  0  0  0  0
   17.4849   -5.2371  -10.5250 O   0  0  0  0  0  0  0  0  0  0  0  0
  2  1  1  1
  2  7  1  0
  3  2  1  0
  4  3  1  0
  5  4  1  0
  5  6  2  0
  7 10  1  0
  7  8  2  0
  9  5  1  0
 10 11  1  0
 11 12  1  6
 13 12  1  0
 13 17  1  0
 14 13  2  0
 15 11  1  0
 15 16  2  0
 18 15  1  0
 19 18  1  0
 19 20  1  1
 20 21  1  0
 21 22  1  0
 22 23  2  0
 22 26  1  0
 24 19  1  0
 25 24  1  0
 27 24  2  0
M  END
$$$$
