EDE.pdb
     RDKit          3D

 27 26  0  0  1  0  0  0  0  0999 V2000
   14.3132   -9.9029  -14.4680 N   0  0  0  0  0  0  0  0  0  0  0  0
   15.3656  -10.2573  -13.5630 C   0  0  1  0  0  0  0  0  0  0  0  0
   16.2913  -11.3226  -14.0180 C   0  0  0  0  0  0  0  0  0  0  0  0
   17.0399  -11.0719  -15.2778 C   0  0  0  0  0  0  0  0  0  0  0  0
   18.0484  -12.1012  -15.5604 C   0  0  0  0  0  0  0  0  0  0  0  0
   18.2862  -13.0134  -14.7536 O   0  0  0  0  0  0  0  0  0  0  0  0
   16.0968   -9.0115  -13.1553 C   0  0  0  0  0  0  0  0  0  0  0  0
   16.2269   -8.0743  -13.9899 O   0  0  0  0  0  0  0  0  0  0  0  0
   18.7593  -12.0512  -16.7722 O   0  0  0  0  0  0  0  0  0  0  0  0
   16.6572   -8.8314  -11.8484 N   0  0  0  0  0  0  0  0  0  0  0  0
   17.2378   -7.5345  -11.5370 C   0  0  1  0  0  0  0  0  0  0  0  0
   17.1125   -7.3562  -10.0066 C   0  0  0  0  0  0  0  0  0  0  0  0
   17.6127   -5.9906   -9.6233 C   0  0  0  0  0  0  0  0  0  0  0  0
   17.9622   -5.1427  -10.5092 O   0  0  0  0  0  0  0  0  0  0  0  0
   18.6176   -7.4055  -12.0043 C   0  0  0  0  0  0  0  0  0  0  0  0
   19.4890   -8.2681  -11.7311 O   0  0  0  0  0  0  0  0  0  0  0  0
   17.7267   -5.5727   -8.2966 O   0  0  0  0  0  0  0  0  0  0  0  0
   19.0678   -6.2962  -12.7993 N   0  0  0  0  0  0  0  0  0  0  0  0
   20.4282   -6.1937  -13.3375 C   0  0  1  0  0  0  0  0  0  0  0  0
   20.2849   -5.4302  -14.6275 C   0  0  0  0  0  0  0  0  0  0  0  0
   21.5437   -5.1047  -15.3398 C   0  0  0  0  0  0  0  0  0  0  0  0
   21.3883   -4.3811  -16.6207 C   0  0  0  0  0  0  0  0  0  0  0  0
   20.2330   -4.1103  -17.0259 O   0  0  0  0  0  0  0  0  0  0  0  0
   21.3156   -5.5188  -12.3689 C   0  0  0  0  0  0  0  0  0  0  0  0
   22.6837   -5.6683  -12.4698 O   0  0  0  0  0  0  0  0  0  0  0  0
   22.4675   -3.9743  -17.4103 O   0  0  0  0  0  0  0  0  0  0  0  0
   20.8412   -4.8178  -11.4615 O   0  0  0  0  0  0  0  0  0  0  0  0
  2  1  1  6
  2  7  1  0
  3  2  1  0
  4  3  1  0
  5  4  1  0
  5  6  2  0
  7 10  1  0
  7  8  2  0
  9  5  1  0
 10 11  1  0
 11 12  1  1
 13 12  1  0
 13 17  1  0
 14 13  2  0
 15 11  1  0
 15 16  2  0
 18 15  1  0
 19 18  1  0
 19 20  1  6
 20 21  1  0
 21 22  1  0
 22 23  2  0
 22 26  1  0
 24 19  1  0
 25 24  1  0
 27 24  2  0
M  END
$$$$
