EDE.pdb
     RDKit          3D

 27 26  0  0  1  0  0  0  0  0999 V2000
   16.8302  -11.2165  -14.8698 N   0  0  0  0  0  0  0  0  0  0  0  0
   17.5172  -10.6154  -15.9738 C   0  0  1  0  0  0  0  0  0  0  0  0
   16.7397  -10.4655  -17.2275 C   0  0  0  0  0  0  0  0  0  0  0  0
   16.2593  -11.7144  -17.8758 C   0  0  0  0  0  0  0  0  0  0  0  0
   15.4790  -11.4646  -19.0945 C   0  0  0  0  0  0  0  0  0  0  0  0
   15.9264  -11.7421  -20.2180 O   0  0  0  0  0  0  0  0  0  0  0  0
   18.1170   -9.3151  -15.5237 C   0  0  0  0  0  0  0  0  0  0  0  0
   17.5244   -8.6386  -14.6389 O   0  0  0  0  0  0  0  0  0  0  0  0
   14.1968  -10.8987  -18.9845 O   0  0  0  0  0  0  0  0  0  0  0  0
   19.3457   -8.8011  -16.0535 N   0  0  0  0  0  0  0  0  0  0  0  0
   19.8339   -7.5390  -15.5199 C   0  0  1  0  0  0  0  0  0  0  0  0
   21.3496   -7.7238  -15.2791 C   0  0  0  0  0  0  0  0  0  0  0  0
   21.5597   -8.4870  -14.0002 C   0  0  0  0  0  0  0  0  0  0  0  0
   21.0306   -8.1008  -12.9063 O   0  0  0  0  0  0  0  0  0  0  0  0
   19.5406   -6.4038  -16.3942 C   0  0  0  0  0  0  0  0  0  0  0  0
   19.7323   -6.4609  -17.6344 O   0  0  0  0  0  0  0  0  0  0  0  0
   22.3357   -9.6449  -13.9303 O   0  0  0  0  0  0  0  0  0  0  0  0
   19.0185   -5.1588  -15.9017 N   0  0  0  0  0  0  0  0  0  0  0  0
   18.5940   -4.0629  -16.7791 C   0  0  1  0  0  0  0  0  0  0  0  0
   17.3022   -3.5633  -16.1882 C   0  0  0  0  0  0  0  0  0  0  0  0
   16.6960   -2.3799  -16.8438 C   0  0  0  0  0  0  0  0  0  0  0  0
   15.4416   -1.8820  -16.2378 C   0  0  0  0  0  0  0  0  0  0  0  0
   14.3945   -1.8837  -16.9276 O   0  0  0  0  0  0  0  0  0  0  0  0
   19.6367   -3.0188  -16.8400 C   0  0  0  0  0  0  0  0  0  0  0  0
   19.6781   -2.1502  -17.9115 O   0  0  0  0  0  0  0  0  0  0  0  0
   15.3560   -1.4094  -14.9252 O   0  0  0  0  0  0  0  0  0  0  0  0
   20.4794   -2.9158  -15.9350 O   0  0  0  0  0  0  0  0  0  0  0  0
  2  1  1  1
  2  7  1  0
  3  2  1  0
  4  3  1  0
  5  4  1  0
  5  6  2  0
  7 10  1  0
  7  8  2  0
  9  5  1  0
 10 11  1  0
 11 12  1  6
 13 12  1  0
 13 17  1  0
 14 13  2  0
 15 11  1  0
 15 16  2  0
 18 15  1  0
 19 18  1  0
 19 20  1  1
 20 21  1  0
 21 22  1  0
 22 23  2  0
 22 26  1  0
 24 19  1  0
 25 24  1  0
 27 24  2  0
M  END
$$$$
