EDE.pdb
     RDKit          3D

 27 26  0  0  1  0  0  0  0  0999 V2000
   16.0240  -11.1597  -16.8511 N   0  0  0  0  0  0  0  0  0  0  0  0
   17.2093  -11.2740  -16.0548 C   0  0  1  0  0  0  0  0  0  0  0  0
   18.4198  -11.7766  -16.7483 C   0  0  0  0  0  0  0  0  0  0  0  0
   19.0046  -10.9040  -17.8006 C   0  0  0  0  0  0  0  0  0  0  0  0
   20.2684  -11.4230  -18.3391 C   0  0  0  0  0  0  0  0  0  0  0  0
   20.3055  -12.0616  -19.4023 O   0  0  0  0  0  0  0  0  0  0  0  0
   17.4586   -9.9656  -15.3628 C   0  0  0  0  0  0  0  0  0  0  0  0
   17.6671   -8.9331  -16.0573 O   0  0  0  0  0  0  0  0  0  0  0  0
   21.4620  -11.1903  -17.6336 O   0  0  0  0  0  0  0  0  0  0  0  0
   17.4675   -9.8300  -13.9360 N   0  0  0  0  0  0  0  0  0  0  0  0
   17.7715   -8.5183  -13.3855 C   0  0  1  0  0  0  0  0  0  0  0  0
   17.3772   -8.5696  -11.8917 C   0  0  0  0  0  0  0  0  0  0  0  0
   17.4772   -7.1887  -11.3041 C   0  0  0  0  0  0  0  0  0  0  0  0
   17.2122   -6.9732  -10.0756 O   0  0  0  0  0  0  0  0  0  0  0  0
   19.1683   -8.1320  -13.5825 C   0  0  0  0  0  0  0  0  0  0  0  0
   20.1064   -8.9540  -13.4332 O   0  0  0  0  0  0  0  0  0  0  0  0
   17.8573   -6.0745  -12.0535 O   0  0  0  0  0  0  0  0  0  0  0  0
   19.5606   -6.8011  -13.9566 N   0  0  0  0  0  0  0  0  0  0  0  0
   20.9588   -6.3969  -14.1375 C   0  0  1  0  0  0  0  0  0  0  0  0
   21.1177   -6.1806  -15.6192 C   0  0  0  0  0  0  0  0  0  0  0  0
   22.4351   -5.6713  -16.0696 C   0  0  0  0  0  0  0  0  0  0  0  0
   22.5456   -5.3634  -17.5124 C   0  0  0  0  0  0  0  0  0  0  0  0
   23.6017   -4.8399  -17.9398 O   0  0  0  0  0  0  0  0  0  0  0  0
   21.2503   -5.1835  -13.3477 C   0  0  0  0  0  0  0  0  0  0  0  0
   22.5530   -4.8811  -13.0074 O   0  0  0  0  0  0  0  0  0  0  0  0
   21.5307   -5.6300  -18.4358 O   0  0  0  0  0  0  0  0  0  0  0  0
   20.3321   -4.4318  -12.9848 O   0  0  0  0  0  0  0  0  0  0  0  0
  2  1  1  6
  2  7  1  0
  3  2  1  0
  4  3  1  0
  5  4  1  0
  5  6  2  0
  7 10  1  0
  7  8  2  0
  9  5  1  0
 10 11  1  0
 11 12  1  1
 13 12  1  0
 13 17  1  0
 14 13  2  0
 15 11  1  0
 15 16  2  0
 18 15  1  0
 19 18  1  0
 19 20  1  6
 20 21  1  0
 21 22  1  0
 22 23  2  0
 22 26  1  0
 24 19  1  0
 25 24  1  0
 27 24  2  0
M  END
$$$$
