EDE.pdb
     RDKit          3D

 27 26  0  0  1  0  0  0  0  0999 V2000
   15.7482  -11.1155  -13.6487 N   0  0  0  0  0  0  0  0  0  0  0  0
   16.8741  -11.1842  -14.5316 C   0  0  1  0  0  0  0  0  0  0  0  0
   16.6597  -11.8967  -15.8143 C   0  0  0  0  0  0  0  0  0  0  0  0
   15.2509  -12.1397  -16.2227 C   0  0  0  0  0  0  0  0  0  0  0  0
   15.1395  -12.8851  -17.4831 C   0  0  0  0  0  0  0  0  0  0  0  0
   14.0376  -13.1083  -18.0080 O   0  0  0  0  0  0  0  0  0  0  0  0
   17.4145   -9.7994  -14.7396 C   0  0  0  0  0  0  0  0  0  0  0  0
   18.3738   -9.6280  -15.5410 O   0  0  0  0  0  0  0  0  0  0  0  0
   16.3078  -13.3553  -18.1079 O   0  0  0  0  0  0  0  0  0  0  0  0
   16.8855   -8.6493  -14.0674 N   0  0  0  0  0  0  0  0  0  0  0  0
   17.4384   -7.3502  -14.4177 C   0  0  1  0  0  0  0  0  0  0  0  0
   16.4692   -6.2932  -13.8409 C   0  0  0  0  0  0  0  0  0  0  0  0
   15.2119   -6.2697  -14.6659 C   0  0  0  0  0  0  0  0  0  0  0  0
   14.0620   -6.2309  -14.1162 O   0  0  0  0  0  0  0  0  0  0  0  0
   18.8094   -7.1717  -13.9408 C   0  0  0  0  0  0  0  0  0  0  0  0
   19.1236   -7.3864  -12.7437 O   0  0  0  0  0  0  0  0  0  0  0  0
   15.2234   -6.2909  -16.0613 O   0  0  0  0  0  0  0  0  0  0  0  0
   19.8803   -6.7436  -14.7982 N   0  0  0  0  0  0  0  0  0  0  0  0
   21.2876   -6.7415  -14.3853 C   0  0  1  0  0  0  0  0  0  0  0  0
   22.0098   -7.5323  -15.4439 C   0  0  0  0  0  0  0  0  0  0  0  0
   23.4871   -7.5830  -15.3305 C   0  0  0  0  0  0  0  0  0  0  0  0
   24.1914   -8.2888  -16.4235 C   0  0  0  0  0  0  0  0  0  0  0  0
   25.4431   -8.2352  -16.4699 O   0  0  0  0  0  0  0  0  0  0  0  0
   21.7869   -5.3567  -14.2655 C   0  0  0  0  0  0  0  0  0  0  0  0
   22.8371   -5.0756  -13.4156 O   0  0  0  0  0  0  0  0  0  0  0  0
   23.5336   -9.0230  -17.4144 O   0  0  0  0  0  0  0  0  0  0  0  0
   21.2685   -4.4405  -14.9226 O   0  0  0  0  0  0  0  0  0  0  0  0
  2  1  1  6
  2  7  1  0
  3  2  1  0
  4  3  1  0
  5  4  1  0
  5  6  2  0
  7 10  1  0
  7  8  2  0
  9  5  1  0
 10 11  1  0
 11 12  1  1
 13 12  1  0
 13 17  1  0
 14 13  2  0
 15 11  1  0
 15 16  2  0
 18 15  1  0
 19 18  1  0
 19 20  1  6
 20 21  1  0
 21 22  1  0
 22 23  2  0
 22 26  1  0
 24 19  1  0
 25 24  1  0
 27 24  2  0
M  END
$$$$
