EDE.pdb
     RDKit          3D

 27 26  0  0  1  0  0  0  0  0999 V2000
   16.2175  -10.8623  -17.5069 N   0  0  0  0  0  0  0  0  0  0  0  0
   16.6295  -10.6965  -16.1450 C   0  0  1  0  0  0  0  0  0  0  0  0
   17.6009  -11.6903  -15.6276 C   0  0  0  0  0  0  0  0  0  0  0  0
   17.1604  -13.1100  -15.5964 C   0  0  0  0  0  0  0  0  0  0  0  0
   16.0410  -13.3431  -14.6749 C   0  0  0  0  0  0  0  0  0  0  0  0
   15.9522  -12.7348  -13.5971 O   0  0  0  0  0  0  0  0  0  0  0  0
   17.1070   -9.2870  -15.9494 C   0  0  0  0  0  0  0  0  0  0  0  0
   17.8539   -8.7645  -16.8217 O   0  0  0  0  0  0  0  0  0  0  0  0
   15.0487  -14.2762  -15.0227 O   0  0  0  0  0  0  0  0  0  0  0  0
   16.7486   -8.4958  -14.8092 N   0  0  0  0  0  0  0  0  0  0  0  0
   17.3210   -7.1624  -14.7072 C   0  0  1  0  0  0  0  0  0  0  0  0
   16.3876   -6.3568  -13.7749 C   0  0  0  0  0  0  0  0  0  0  0  0
   15.0470   -6.1917  -14.4364 C   0  0  0  0  0  0  0  0  0  0  0  0
   14.9517   -5.8095  -15.6492 O   0  0  0  0  0  0  0  0  0  0  0  0
   18.7058   -7.1758  -14.2370 C   0  0  0  0  0  0  0  0  0  0  0  0
   19.0864   -7.9585  -13.3312 O   0  0  0  0  0  0  0  0  0  0  0  0
   13.8429   -6.4396  -13.7758 O   0  0  0  0  0  0  0  0  0  0  0  0
   19.7160   -6.3049  -14.7721 N   0  0  0  0  0  0  0  0  0  0  0  0
   21.1275   -6.3765  -14.3804 C   0  0  1  0  0  0  0  0  0  0  0  0
   21.8161   -7.0854  -15.5166 C   0  0  0  0  0  0  0  0  0  0  0  0
   23.2921   -7.1889  -15.4261 C   0  0  0  0  0  0  0  0  0  0  0  0
   23.9662   -7.7974  -16.5941 C   0  0  0  0  0  0  0  0  0  0  0  0
   23.2650   -8.2307  -17.5389 O   0  0  0  0  0  0  0  0  0  0  0  0
   21.6650   -5.0217  -14.1419 C   0  0  0  0  0  0  0  0  0  0  0  0
   22.7420   -4.8482  -13.2968 O   0  0  0  0  0  0  0  0  0  0  0  0
   25.3545   -7.9133  -16.7069 O   0  0  0  0  0  0  0  0  0  0  0  0
   21.1548   -4.0347  -14.6947 O   0  0  0  0  0  0  0  0  0  0  0  0
  2  1  1  6
  2  7  1  0
  3  2  1  0
  4  3  1  0
  5  4  1  0
  5  6  2  0
  7 10  1  0
  7  8  2  0
  9  5  1  0
 10 11  1  0
 11 12  1  1
 13 12  1  0
 13 17  1  0
 14 13  2  0
 15 11  1  0
 15 16  2  0
 18 15  1  0
 19 18  1  0
 19 20  1  6
 20 21  1  0
 21 22  1  0
 22 23  2  0
 22 26  1  0
 24 19  1  0
 25 24  1  0
 27 24  2  0
M  END
$$$$
