EDE.pdb
     RDKit          3D

 27 26  0  0  1  0  0  0  0  0999 V2000
   15.3141  -12.6171  -18.1096 N   0  0  0  0  0  0  0  0  0  0  0  0
   15.4469  -12.0784  -16.7889 C   0  0  1  0  0  0  0  0  0  0  0  0
   15.6849  -13.0580  -15.7014 C   0  0  0  0  0  0  0  0  0  0  0  0
   16.7268  -14.0912  -15.9413 C   0  0  0  0  0  0  0  0  0  0  0  0
   16.8310  -15.0656  -14.8476 C   0  0  0  0  0  0  0  0  0  0  0  0
   17.5357  -14.8464  -13.8502 O   0  0  0  0  0  0  0  0  0  0  0  0
   16.4848  -10.9942  -16.8079 C   0  0  0  0  0  0  0  0  0  0  0  0
   17.5035  -11.1314  -17.5394 O   0  0  0  0  0  0  0  0  0  0  0  0
   16.1159  -16.2729  -14.9337 O   0  0  0  0  0  0  0  0  0  0  0  0
   16.3716   -9.7958  -16.0297 N   0  0  0  0  0  0  0  0  0  0  0  0
   17.3586   -8.7510  -16.2537 C   0  0  1  0  0  0  0  0  0  0  0  0
   16.6584   -7.4119  -15.9283 C   0  0  0  0  0  0  0  0  0  0  0  0
   17.5972   -6.2754  -16.2265 C   0  0  0  0  0  0  0  0  0  0  0  0
   17.7026   -5.2810  -15.4351 O   0  0  0  0  0  0  0  0  0  0  0  0
   18.5789   -8.9487  -15.4723 C   0  0  0  0  0  0  0  0  0  0  0  0
   18.5442   -9.3912  -14.2972 O   0  0  0  0  0  0  0  0  0  0  0  0
   18.3970   -6.2361  -17.3695 O   0  0  0  0  0  0  0  0  0  0  0  0
   19.8876   -8.6543  -15.9881 N   0  0  0  0  0  0  0  0  0  0  0  0
   21.1171   -8.8354  -15.2094 C   0  0  1  0  0  0  0  0  0  0  0  0
   22.2026   -9.0484  -16.2310 C   0  0  0  0  0  0  0  0  0  0  0  0
   23.5728   -9.2451  -15.7003 C   0  0  0  0  0  0  0  0  0  0  0  0
   24.6419   -9.3753  -16.7145 C   0  0  0  0  0  0  0  0  0  0  0  0
   24.3268   -9.3810  -17.9280 O   0  0  0  0  0  0  0  0  0  0  0  0
   21.3616   -7.6580  -14.3520 C   0  0  0  0  0  0  0  0  0  0  0  0
   21.1143   -6.3904  -14.8379 O   0  0  0  0  0  0  0  0  0  0  0  0
   25.9974   -9.4891  -16.3930 O   0  0  0  0  0  0  0  0  0  0  0  0
   21.7901   -7.7981  -13.1958 O   0  0  0  0  0  0  0  0  0  0  0  0
  2  1  1  6
  2  7  1  0
  3  2  1  0
  4  3  1  0
  5  4  1  0
  5  6  2  0
  7 10  1  0
  7  8  2  0
  9  5  1  0
 10 11  1  0
 11 12  1  1
 13 12  1  0
 13 17  1  0
 14 13  2  0
 15 11  1  0
 15 16  2  0
 18 15  1  0
 19 18  1  0
 19 20  1  6
 20 21  1  0
 21 22  1  0
 22 23  2  0
 22 26  1  0
 24 19  1  0
 25 24  1  0
 27 24  2  0
M  END
$$$$
