EDE.pdb
     RDKit          3D

 27 26  0  0  1  0  0  0  0  0999 V2000
   17.0504  -11.9022  -14.7769 N   0  0  0  0  0  0  0  0  0  0  0  0
   17.7646  -11.3860  -15.9063 C   0  0  1  0  0  0  0  0  0  0  0  0
   17.1922  -11.6904  -17.2398 C   0  0  0  0  0  0  0  0  0  0  0  0
   15.7098  -11.6832  -17.3544 C   0  0  0  0  0  0  0  0  0  0  0  0
   15.2375  -11.9974  -18.7089 C   0  0  0  0  0  0  0  0  0  0  0  0
   14.1786  -11.5256  -19.1511 O   0  0  0  0  0  0  0  0  0  0  0  0
   17.9861   -9.9144  -15.7105 C   0  0  0  0  0  0  0  0  0  0  0  0
   18.6951   -9.2837  -16.5420 O   0  0  0  0  0  0  0  0  0  0  0  0
   16.0032  -12.8516  -19.5217 O   0  0  0  0  0  0  0  0  0  0  0  0
   17.4220   -9.1822  -14.6150 N   0  0  0  0  0  0  0  0  0  0  0  0
   17.6971   -7.7555  -14.5451 C   0  0  1  0  0  0  0  0  0  0  0  0
   16.6688   -7.1604  -13.5562 C   0  0  0  0  0  0  0  0  0  0  0  0
   15.3033   -7.1832  -14.1863 C   0  0  0  0  0  0  0  0  0  0  0  0
   14.3327   -7.8012  -13.6367 O   0  0  0  0  0  0  0  0  0  0  0  0
   19.0775   -7.4638  -14.1599 C   0  0  0  0  0  0  0  0  0  0  0  0
   19.6455   -8.0826  -13.2259 O   0  0  0  0  0  0  0  0  0  0  0  0
   15.0172   -6.5428  -15.3928 O   0  0  0  0  0  0  0  0  0  0  0  0
   19.8713   -6.4609  -14.8152 N   0  0  0  0  0  0  0  0  0  0  0  0
   21.2859   -6.2280  -14.5062 C   0  0  1  0  0  0  0  0  0  0  0  0
   22.0265   -6.5654  -15.7732 C   0  0  0  0  0  0  0  0  0  0  0  0
   23.4882   -6.3180  -15.7637 C   0  0  0  0  0  0  0  0  0  0  0  0
   24.1799   -6.5058  -17.0579 C   0  0  0  0  0  0  0  0  0  0  0  0
   23.6151   -7.1773  -17.9534 O   0  0  0  0  0  0  0  0  0  0  0  0
   21.4956   -4.8308  -14.0759 C   0  0  0  0  0  0  0  0  0  0  0  0
   22.5896   -4.5074  -13.2995 O   0  0  0  0  0  0  0  0  0  0  0  0
   25.4380   -5.9676  -17.3428 O   0  0  0  0  0  0  0  0  0  0  0  0
   20.6942   -3.9426  -14.4054 O   0  0  0  0  0  0  0  0  0  0  0  0
  2  1  1  1
  2  7  1  0
  3  2  1  0
  4  3  1  0
  5  4  1  0
  5  6  2  0
  7 10  1  0
  7  8  2  0
  9  5  1  0
 10 11  1  0
 11 12  1  1
 13 12  1  0
 13 17  1  0
 14 13  2  0
 15 11  1  0
 15 16  2  0
 18 15  1  0
 19 18  1  0
 19 20  1  6
 20 21  1  0
 21 22  1  0
 22 23  2  0
 22 26  1  0
 24 19  1  0
 25 24  1  0
 27 24  2  0
M  END
$$$$
