CEQ.pdb
     RDKit          3D

 25 24  0  0  1  0  0  0  0  0999 V2000
   26.0799  -22.2348  -12.1456 N   0  0  0  0  0  0  0  0  0  0  0  0
   26.1146  -20.9998  -12.8993 C   0  0  1  0  0  0  0  0  0  0  0  0
   27.3993  -21.0126  -13.7003 C   0  0  0  0  0  0  0  0  0  0  0  0
   28.8378  -20.9906  -12.5664 S   0  0  0  0  0  0  0  0  0  0  0  0
   24.9223  -20.9728  -13.8087 C   0  0  0  0  0  0  0  0  0  0  0  0
   24.8314  -21.8169  -14.7039 O   0  0  0  0  0  0  0  0  0  0  0  0
   23.9057  -20.0122  -13.6689 N   0  0  0  0  0  0  0  0  0  0  0  0
   22.6966  -19.8025  -14.3404 C   0  0  1  0  0  0  0  0  0  0  0  0
   21.3873  -20.1035  -13.7058 C   0  0  0  0  0  0  0  0  0  0  0  0
   21.1524  -21.4660  -13.1677 C   0  0  0  0  0  0  0  0  0  0  0  0
   19.7259  -21.5083  -12.6463 C   0  0  0  0  0  0  0  0  0  0  0  0
   19.0277  -20.4494  -12.7112 O   0  0  0  0  0  0  0  0  0  0  0  0
   22.5897  -18.5881  -15.1659 C   0  0  0  0  0  0  0  0  0  0  0  0
   22.8656  -17.4344  -14.7312 O   0  0  0  0  0  0  0  0  0  0  0  0
   19.2023  -22.6519  -12.1236 O   0  0  0  0  0  0  0  0  0  0  0  0
   22.2885  -18.8798  -21.5125 N   0  0  0  0  0  0  0  0  0  0  0  0
   22.1545  -17.4926  -21.2442 C   0  0  0  0  0  0  0  0  0  0  0  0
   22.0135  -16.7149  -22.2133 O   0  0  0  0  0  0  0  0  0  0  0  0
   22.1806  -16.9805  -19.8741 C   0  0  0  0  0  0  0  0  0  0  0  0
   22.2114  -18.0194  -18.8003 C   0  0  0  0  0  0  0  0  0  0  0  0
   22.1645  -17.4880  -17.3968 C   0  0  2  0  0  0  0  0  0  0  0  0
   22.1609  -18.6668  -16.5225 N   0  0  0  0  0  0  0  0  0  0  0  0
   20.9413  -16.7197  -17.1194 C   0  0  0  0  0  0  0  0  0  0  0  0
   19.9242  -17.2940  -16.6727 O   0  0  0  0  0  0  0  0  0  0  0  0
   20.8705  -15.3531  -17.3385 O   0  0  0  0  0  0  0  0  0  0  0  0
  2  1  1  6
  3  2  1  0
  4  3  1  0
  5  7  1  0
  5  2  1  0
  6  5  2  0
  8  7  1  0
  8  9  1  1
  9 10  1  0
 10 11  1  0
 11 15  1  0
 11 12  2  0
 13  8  1  0
 14 13  2  0
 16 17  1  0
 17 19  1  0
 18 17  2  0
 19 20  1  0
 21 20  1  6
 21 23  1  0
 21 22  1  0
 22 13  1  0
 23 25  1  0
 24 23  2  0
M  END
$$$$
