CEQ.pdb
     RDKit          3D

 25 24  0  0  1  0  0  0  0  0999 V2000
   17.0857  -11.2992  -17.0262 N   0  0  0  0  0  0  0  0  0  0  0  0
   17.1373  -10.5116  -15.8132 C   0  0  1  0  0  0  0  0  0  0  0  0
   17.6617  -11.4219  -14.7229 C   0  0  0  0  0  0  0  0  0  0  0  0
   16.3264  -12.5379  -14.1508 S   0  0  0  0  0  0  0  0  0  0  0  0
   18.0735   -9.3622  -16.0409 C   0  0  0  0  0  0  0  0  0  0  0  0
   19.1027   -9.5474  -16.6954 O   0  0  0  0  0  0  0  0  0  0  0  0
   17.8102   -8.0798  -15.5289 N   0  0  0  0  0  0  0  0  0  0  0  0
   18.5625   -6.9013  -15.4831 C   0  0  1  0  0  0  0  0  0  0  0  0
   17.9273   -5.5765  -15.2621 C   0  0  0  0  0  0  0  0  0  0  0  0
   16.8458   -5.1424  -16.1804 C   0  0  0  0  0  0  0  0  0  0  0  0
   17.4986   -4.3856  -17.3248 C   0  0  0  0  0  0  0  0  0  0  0  0
   17.1820   -4.6990  -18.5142 O   0  0  0  0  0  0  0  0  0  0  0  0
   19.8601   -6.9604  -14.7901 C   0  0  0  0  0  0  0  0  0  0  0  0
   19.9770   -7.2879  -13.5755 O   0  0  0  0  0  0  0  0  0  0  0  0
   18.3998   -3.3924  -17.0870 O   0  0  0  0  0  0  0  0  0  0  0  0
   24.2408  -10.2223  -16.9165 N   0  0  0  0  0  0  0  0  0  0  0  0
   24.9407   -9.5613  -15.8736 C   0  0  0  0  0  0  0  0  0  0  0  0
   26.0479  -10.0231  -15.5205 O   0  0  0  0  0  0  0  0  0  0  0  0
   24.3870   -8.3726  -15.2252 C   0  0  0  0  0  0  0  0  0  0  0  0
   23.0059   -7.9927  -15.6514 C   0  0  0  0  0  0  0  0  0  0  0  0
   22.3810   -6.8749  -14.8674 C   0  0  2  0  0  0  0  0  0  0  0  0
   21.0669   -6.6435  -15.4786 N   0  0  0  0  0  0  0  0  0  0  0  0
   23.1444   -5.6209  -14.9562 C   0  0  0  0  0  0  0  0  0  0  0  0
   22.9496   -4.8305  -15.9056 O   0  0  0  0  0  0  0  0  0  0  0  0
   24.0925   -5.2730  -14.0072 O   0  0  0  0  0  0  0  0  0  0  0  0
  2  1  1  6
  3  2  1  0
  4  3  1  0
  5  7  1  0
  5  2  1  0
  6  5  2  0
  8  7  1  0
  8  9  1  1
  9 10  1  0
 10 11  1  0
 11 15  1  0
 11 12  2  0
 13  8  1  0
 14 13  2  0
 16 17  1  0
 17 19  1  0
 18 17  2  0
 19 20  1  0
 21 20  1  6
 21 23  1  0
 21 22  1  0
 22 13  1  0
 23 25  1  0
 24 23  2  0
M  END
$$$$
