CEQ.pdb
     RDKit          3D

 25 24  0  0  1  0  0  0  0  0999 V2000
   26.6116  -32.7699  -17.5433 N   0  0  0  0  0  0  0  0  0  0  0  0
   27.8286  -32.0883  -17.1577 C   0  0  1  0  0  0  0  0  0  0  0  0
   28.3297  -32.7663  -15.9001 C   0  0  0  0  0  0  0  0  0  0  0  0
   29.8328  -31.9138  -15.2924 S   0  0  0  0  0  0  0  0  0  0  0  0
   28.8213  -32.2365  -18.2721 C   0  0  0  0  0  0  0  0  0  0  0  0
   28.8667  -33.2988  -18.8978 O   0  0  0  0  0  0  0  0  0  0  0  0
   29.7013  -31.1980  -18.6232 N   0  0  0  0  0  0  0  0  0  0  0  0
   30.7839  -31.1267  -19.5062 C   0  0  1  0  0  0  0  0  0  0  0  0
   30.9943  -29.9525  -20.3920 C   0  0  0  0  0  0  0  0  0  0  0  0
   29.8805  -29.5111  -21.2671 C   0  0  0  0  0  0  0  0  0  0  0  0
   30.3395  -28.2543  -21.9869 C   0  0  0  0  0  0  0  0  0  0  0  0
   29.8103  -27.1460  -21.6635 O   0  0  0  0  0  0  0  0  0  0  0  0
   32.0793  -31.6313  -19.0213 C   0  0  0  0  0  0  0  0  0  0  0  0
   32.4099  -31.6179  -17.8021 O   0  0  0  0  0  0  0  0  0  0  0  0
   31.2970  -28.3083  -22.9541 O   0  0  0  0  0  0  0  0  0  0  0  0
   35.0185  -37.5958  -18.2275 N   0  0  0  0  0  0  0  0  0  0  0  0
   34.3474  -36.4649  -18.7612 C   0  0  0  0  0  0  0  0  0  0  0  0
   33.5776  -36.6387  -19.7312 O   0  0  0  0  0  0  0  0  0  0  0  0
   34.5470  -35.1300  -18.1970 C   0  0  0  0  0  0  0  0  0  0  0  0
   33.5766  -34.0885  -18.6518 C   0  0  0  0  0  0  0  0  0  0  0  0
   34.1713  -32.9722  -19.4609 C   0  0  2  0  0  0  0  0  0  0  0  0
   33.0360  -32.1693  -19.9302 N   0  0  0  0  0  0  0  0  0  0  0  0
   34.9009  -33.4527  -20.6443 C   0  0  0  0  0  0  0  0  0  0  0  0
   36.0117  -34.0127  -20.5153 O   0  0  0  0  0  0  0  0  0  0  0  0
   34.3937  -33.3059  -21.9256 O   0  0  0  0  0  0  0  0  0  0  0  0
  2  1  1  6
  3  2  1  0
  4  3  1  0
  5  7  1  0
  5  2  1  0
  6  5  2  0
  8  7  1  0
  8  9  1  1
  9 10  1  0
 10 11  1  0
 11 15  1  0
 11 12  2  0
 13  8  1  0
 14 13  2  0
 16 17  1  0
 17 19  1  0
 18 17  2  0
 19 20  1  0
 21 20  1  6
 21 23  1  0
 21 22  1  0
 22 13  1  0
 23 25  1  0
 24 23  2  0
M  END
$$$$
