CEQ.pdb
     RDKit          3D

 25 24  0  0  1  0  0  0  0  0999 V2000
   12.5106  -12.0479  -10.5261 N   0  0  0  0  0  0  0  0  0  0  0  0
   12.0763  -10.6872  -10.7589 C   0  0  1  0  0  0  0  0  0  0  0  0
   10.9718  -10.4044   -9.7627 C   0  0  0  0  0  0  0  0  0  0  0  0
    9.5071  -11.4334  -10.1517 S   0  0  0  0  0  0  0  0  0  0  0  0
   13.2455   -9.7767  -10.5277 C   0  0  0  0  0  0  0  0  0  0  0  0
   13.7990   -9.7792   -9.4251 O   0  0  0  0  0  0  0  0  0  0  0  0
   13.7278   -8.9206  -11.5330 N   0  0  0  0  0  0  0  0  0  0  0  0
   14.7439   -7.9595  -11.5567 C   0  0  1  0  0  0  0  0  0  0  0  0
   15.8073   -7.9715  -12.5943 C   0  0  0  0  0  0  0  0  0  0  0  0
   16.9388   -7.0204  -12.4664 C   0  0  0  0  0  0  0  0  0  0  0  0
   17.8751   -7.2690  -13.6369 C   0  0  0  0  0  0  0  0  0  0  0  0
   18.2297   -8.4634  -13.8832 O   0  0  0  0  0  0  0  0  0  0  0  0
   14.3630   -6.5728  -11.2407 C   0  0  0  0  0  0  0  0  0  0  0  0
   13.5222   -5.9187  -11.9198 O   0  0  0  0  0  0  0  0  0  0  0  0
   18.3242   -6.2403  -14.4085 O   0  0  0  0  0  0  0  0  0  0  0  0
   13.2840   -4.4691   -5.6783 N   0  0  0  0  0  0  0  0  0  0  0  0
   12.3453   -4.2203   -6.7133 C   0  0  0  0  0  0  0  0  0  0  0  0
   11.1501   -4.0366   -6.3948 O   0  0  0  0  0  0  0  0  0  0  0  0
   12.7583   -4.1794   -8.1161 C   0  0  0  0  0  0  0  0  0  0  0  0
   14.1973   -4.4917   -8.3717 C   0  0  0  0  0  0  0  0  0  0  0  0
   14.6008   -4.5023   -9.8179 C   0  0  2  0  0  0  0  0  0  0  0  0
   14.9412   -5.8959  -10.1281 N   0  0  0  0  0  0  0  0  0  0  0  0
   15.7910   -3.6798  -10.0830 C   0  0  0  0  0  0  0  0  0  0  0  0
   15.7486   -2.4402   -9.9232 O   0  0  0  0  0  0  0  0  0  0  0  0
   16.9846   -4.2377  -10.5125 O   0  0  0  0  0  0  0  0  0  0  0  0
  2  1  1  1
  3  2  1  0
  4  3  1  0
  5  7  1  0
  5  2  1  0
  6  5  2  0
  8  7  1  0
  8  9  1  6
  9 10  1  0
 10 11  1  0
 11 15  1  0
 11 12  2  0
 13  8  1  0
 14 13  2  0
 16 17  1  0
 17 19  1  0
 18 17  2  0
 19 20  1  0
 21 20  1  1
 21 23  1  0
 21 22  1  0
 22 13  1  0
 23 25  1  0
 24 23  2  0
M  END
$$$$
