CEQ.pdb
     RDKit          3D

 25 24  0  0  1  0  0  0  0  0999 V2000
   26.5713  -13.6341  -18.3343 N   0  0  0  0  0  0  0  0  0  0  0  0
   25.6096  -13.5210  -17.2588 C   0  0  1  0  0  0  0  0  0  0  0  0
   26.3986  -13.5067  -15.9667 C   0  0  0  0  0  0  0  0  0  0  0  0
   27.0454  -15.1843  -15.6161 S   0  0  0  0  0  0  0  0  0  0  0  0
   24.8583  -12.2352  -17.4361 C   0  0  0  0  0  0  0  0  0  0  0  0
   25.4815  -11.2118  -17.7300 O   0  0  0  0  0  0  0  0  0  0  0  0
   23.4634  -12.1642  -17.2766 N   0  0  0  0  0  0  0  0  0  0  0  0
   22.5404  -11.1245  -17.4304 C   0  0  1  0  0  0  0  0  0  0  0  0
   21.3346  -11.2698  -18.2863 C   0  0  0  0  0  0  0  0  0  0  0  0
   20.5014  -10.0716  -18.5535 C   0  0  0  0  0  0  0  0  0  0  0  0
   19.3719  -10.5004  -19.4748 C   0  0  0  0  0  0  0  0  0  0  0  0
   19.4879  -10.2724  -20.7188 O   0  0  0  0  0  0  0  0  0  0  0  0
   22.2160  -10.3328  -16.2322 C   0  0  0  0  0  0  0  0  0  0  0  0
   21.9441  -10.8560  -15.1149 O   0  0  0  0  0  0  0  0  0  0  0  0
   18.2610  -11.1175  -18.9846 O   0  0  0  0  0  0  0  0  0  0  0  0
   23.3420   -4.0767  -15.8243 N   0  0  0  0  0  0  0  0  0  0  0  0
   22.6368   -4.3573  -14.6251 C   0  0  0  0  0  0  0  0  0  0  0  0
   22.4777   -3.4288  -13.8027 O   0  0  0  0  0  0  0  0  0  0  0  0
   22.1089   -5.6941  -14.3524 C   0  0  0  0  0  0  0  0  0  0  0  0
   22.3185   -6.7012  -15.4366 C   0  0  0  0  0  0  0  0  0  0  0  0
   21.8988   -8.1020  -15.0960 C   0  0  2  0  0  0  0  0  0  0  0  0
   22.1958   -8.9089  -16.2854 N   0  0  0  0  0  0  0  0  0  0  0  0
   20.4574   -8.2147  -14.8256 C   0  0  0  0  0  0  0  0  0  0  0  0
   20.0527   -8.8185  -13.8079 O   0  0  0  0  0  0  0  0  0  0  0  0
   19.5090   -7.6653  -15.6735 O   0  0  0  0  0  0  0  0  0  0  0  0
  2  1  1  6
  3  2  1  0
  4  3  1  0
  5  7  1  0
  5  2  1  0
  6  5  2  0
  8  7  1  0
  8  9  1  1
  9 10  1  0
 10 11  1  0
 11 15  1  0
 11 12  2  0
 13  8  1  0
 14 13  2  0
 16 17  1  0
 17 19  1  0
 18 17  2  0
 19 20  1  0
 21 20  1  6
 21 23  1  0
 21 22  1  0
 22 13  1  0
 23 25  1  0
 24 23  2  0
M  END
$$$$
