CEQ.pdb
     RDKit          3D

 25 24  0  0  1  0  0  0  0  0999 V2000
   16.7064  -14.2609  -15.0023 N   0  0  0  0  0  0  0  0  0  0  0  0
   16.3559  -12.8961  -15.3321 C   0  0  1  0  0  0  0  0  0  0  0  0
   14.8443  -12.8145  -15.3060 C   0  0  0  0  0  0  0  0  0  0  0  0
   14.1473  -13.7647  -16.7085 S   0  0  0  0  0  0  0  0  0  0  0  0
   16.9541  -11.9951  -14.2931 C   0  0  0  0  0  0  0  0  0  0  0  0
   16.8957  -12.3265  -13.1062 O   0  0  0  0  0  0  0  0  0  0  0  0
   17.5794  -10.7833  -14.6347 N   0  0  0  0  0  0  0  0  0  0  0  0
   18.1755   -9.7730  -13.8727 C   0  0  1  0  0  0  0  0  0  0  0  0
   19.5416   -9.2711  -14.1716 C   0  0  0  0  0  0  0  0  0  0  0  0
   20.1236   -8.2238  -13.2966 C   0  0  0  0  0  0  0  0  0  0  0  0
   21.4350   -7.7841  -13.9255 C   0  0  0  0  0  0  0  0  0  0  0  0
   21.6844   -6.5407  -13.9949 O   0  0  0  0  0  0  0  0  0  0  0  0
   17.3127   -8.6607  -13.4413 C   0  0  0  0  0  0  0  0  0  0  0  0
   16.7502   -7.8720  -14.2522 O   0  0  0  0  0  0  0  0  0  0  0  0
   22.3266   -8.6968  -14.4023 O   0  0  0  0  0  0  0  0  0  0  0  0
   13.9592   -6.4629   -7.2184 N   0  0  0  0  0  0  0  0  0  0  0  0
   14.1566   -7.3476   -8.3105 C   0  0  0  0  0  0  0  0  0  0  0  0
   13.8337   -8.5468   -8.1646 O   0  0  0  0  0  0  0  0  0  0  0  0
   14.7223   -6.8757   -9.5744 C   0  0  0  0  0  0  0  0  0  0  0  0
   15.6470   -7.8288  -10.2600 C   0  0  0  0  0  0  0  0  0  0  0  0
   16.1325   -7.3868  -11.6103 C   0  0  2  0  0  0  0  0  0  0  0  0
   17.0705   -8.4234  -12.0572 N   0  0  0  0  0  0  0  0  0  0  0  0
   16.8626   -6.1108  -11.5634 C   0  0  0  0  0  0  0  0  0  0  0  0
   18.0794   -6.0914  -11.2752 O   0  0  0  0  0  0  0  0  0  0  0  0
   16.2408   -4.9020  -11.8325 O   0  0  0  0  0  0  0  0  0  0  0  0
  2  1  1  1
  3  2  1  0
  4  3  1  0
  5  7  1  0
  5  2  1  0
  6  5  2  0
  8  7  1  0
  8  9  1  6
  9 10  1  0
 10 11  1  0
 11 15  1  0
 11 12  2  0
 13  8  1  0
 14 13  2  0
 16 17  1  0
 17 19  1  0
 18 17  2  0
 19 20  1  0
 21 20  1  1
 21 23  1  0
 21 22  1  0
 22 13  1  0
 23 25  1  0
 24 23  2  0
M  END
$$$$
