CEQ.pdb
     RDKit          3D

 25 24  0  0  1  0  0  0  0  0999 V2000
   18.5295   -9.9253  -16.2957 N   0  0  0  0  0  0  0  0  0  0  0  0
   17.8478  -10.6396  -15.2377 C   0  0  1  0  0  0  0  0  0  0  0  0
   18.5105  -11.9965  -15.1289 C   0  0  0  0  0  0  0  0  0  0  0  0
   18.1968  -12.9642  -16.6523 S   0  0  0  0  0  0  0  0  0  0  0  0
   18.0156   -9.8634  -13.9654 C   0  0  0  0  0  0  0  0  0  0  0  0
   17.4560  -10.2626  -12.9409 O   0  0  0  0  0  0  0  0  0  0  0  0
   18.7931   -8.6937  -13.9084 N   0  0  0  0  0  0  0  0  0  0  0  0
   19.0289   -7.7570  -12.8965 C   0  0  1  0  0  0  0  0  0  0  0  0
   20.1635   -6.8001  -12.9659 C   0  0  0  0  0  0  0  0  0  0  0  0
   20.4020   -5.8928  -11.8166 C   0  0  0  0  0  0  0  0  0  0  0  0
   21.6078   -5.0341  -12.1589 C   0  0  0  0  0  0  0  0  0  0  0  0
   21.4073   -3.8570  -12.5918 O   0  0  0  0  0  0  0  0  0  0  0  0
   17.8523   -7.1020  -12.3014 C   0  0  0  0  0  0  0  0  0  0  0  0
   17.0659   -6.3673  -12.9631 O   0  0  0  0  0  0  0  0  0  0  0  0
   22.8752   -5.5086  -12.0045 O   0  0  0  0  0  0  0  0  0  0  0  0
   13.6978   -9.8781   -9.0819 N   0  0  0  0  0  0  0  0  0  0  0  0
   13.3749   -8.5361   -8.7518 C   0  0  0  0  0  0  0  0  0  0  0  0
   12.3439   -8.3260   -8.0760 O   0  0  0  0  0  0  0  0  0  0  0  0
   14.2205   -7.4248   -9.1876 C   0  0  0  0  0  0  0  0  0  0  0  0
   15.4858   -7.8138   -9.8814 C   0  0  0  0  0  0  0  0  0  0  0  0
   16.3514   -6.6680  -10.3197 C   0  0  2  0  0  0  0  0  0  0  0  0
   17.5447   -7.2752  -10.9208 N   0  0  0  0  0  0  0  0  0  0  0  0
   16.7930   -5.8261   -9.1974 C   0  0  0  0  0  0  0  0  0  0  0  0
   15.9807   -5.0729   -8.6170 O   0  0  0  0  0  0  0  0  0  0  0  0
   18.1038   -5.8354   -8.7477 O   0  0  0  0  0  0  0  0  0  0  0  0
  2  1  1  6
  3  2  1  0
  4  3  1  0
  5  7  1  0
  5  2  1  0
  6  5  2  0
  8  7  1  0
  8  9  1  6
  9 10  1  0
 10 11  1  0
 11 15  1  0
 11 12  2  0
 13  8  1  0
 14 13  2  0
 16 17  1  0
 17 19  1  0
 18 17  2  0
 19 20  1  0
 21 20  1  1
 21 23  1  0
 21 22  1  0
 22 13  1  0
 23 25  1  0
 24 23  2  0
M  END
$$$$
