CEQ.pdb
     RDKit          3D

 25 24  0  0  1  0  0  0  0  0999 V2000
   16.5024  -13.6815  -14.7391 N   0  0  0  0  0  0  0  0  0  0  0  0
   17.6895  -13.0052  -15.2163 C   0  0  1  0  0  0  0  0  0  0  0  0
   18.2772  -13.8725  -16.3093 C   0  0  0  0  0  0  0  0  0  0  0  0
   19.3642  -15.1490  -15.5716 S   0  0  0  0  0  0  0  0  0  0  0  0
   17.2800  -11.6693  -15.7612 C   0  0  0  0  0  0  0  0  0  0  0  0
   16.8462  -11.5990  -16.9140 O   0  0  0  0  0  0  0  0  0  0  0  0
   17.3770  -10.4952  -14.9944 N   0  0  0  0  0  0  0  0  0  0  0  0
   17.0199   -9.1655  -15.2419 C   0  0  1  0  0  0  0  0  0  0  0  0
   15.8974   -8.5104  -14.5219 C   0  0  0  0  0  0  0  0  0  0  0  0
   15.4730   -7.1538  -14.9468 C   0  0  0  0  0  0  0  0  0  0  0  0
   14.2642   -6.7731  -14.1088 C   0  0  0  0  0  0  0  0  0  0  0  0
   14.4146   -5.9101  -13.1892 O   0  0  0  0  0  0  0  0  0  0  0  0
   18.1156   -8.2042  -15.4491 C   0  0  0  0  0  0  0  0  0  0  0  0
   19.0619   -8.0519  -14.6260 O   0  0  0  0  0  0  0  0  0  0  0  0
   13.0457   -7.3380  -14.3356 O   0  0  0  0  0  0  0  0  0  0  0  0
   18.8014   -4.8612  -20.8729 N   0  0  0  0  0  0  0  0  0  0  0  0
   19.9432   -4.5086  -20.1073 C   0  0  0  0  0  0  0  0  0  0  0  0
   20.7924   -3.7524  -20.6277 O   0  0  0  0  0  0  0  0  0  0  0  0
   20.1277   -5.0132  -18.7466 C   0  0  0  0  0  0  0  0  0  0  0  0
   19.0549   -5.9272  -18.2493 C   0  0  0  0  0  0  0  0  0  0  0  0
   19.2514   -6.4408  -16.8522 C   0  0  2  0  0  0  0  0  0  0  0  0
   18.1546   -7.3870  -16.6158 N   0  0  0  0  0  0  0  0  0  0  0  0
   19.1562   -5.3806  -15.8371 C   0  0  0  0  0  0  0  0  0  0  0  0
   18.0395   -4.9309  -15.4985 O   0  0  0  0  0  0  0  0  0  0  0  0
   20.2812   -4.8490  -15.2271 O   0  0  0  0  0  0  0  0  0  0  0  0
  2  1  1  6
  3  2  1  0
  4  3  1  0
  5  7  1  0
  5  2  1  0
  6  5  2  0
  8  7  1  0
  8  9  1  1
  9 10  1  0
 10 11  1  0
 11 15  1  0
 11 12  2  0
 13  8  1  0
 14 13  2  0
 16 17  1  0
 17 19  1  0
 18 17  2  0
 19 20  1  0
 21 20  1  6
 21 23  1  0
 21 22  1  0
 22 13  1  0
 23 25  1  0
 24 23  2  0
M  END
$$$$
