CEQ.pdb
     RDKit          3D

 25 24  0  0  1  0  0  0  0  0999 V2000
   27.3088  -21.1395  -15.7924 N   0  0  0  0  0  0  0  0  0  0  0  0
   26.5233  -19.9448  -16.0165 C   0  0  1  0  0  0  0  0  0  0  0  0
   26.5405  -19.6837  -17.5077 C   0  0  0  0  0  0  0  0  0  0  0  0
   27.9925  -18.6542  -17.9406 S   0  0  0  0  0  0  0  0  0  0  0  0
   25.1258  -20.2072  -15.5397 C   0  0  0  0  0  0  0  0  0  0  0  0
   24.2588  -20.5136  -16.3623 O   0  0  0  0  0  0  0  0  0  0  0  0
   24.7767  -20.1136  -14.1812 N   0  0  0  0  0  0  0  0  0  0  0  0
   23.5900  -20.3654  -13.4848 C   0  0  1  0  0  0  0  0  0  0  0  0
   23.5955  -20.8515  -12.0808 C   0  0  0  0  0  0  0  0  0  0  0  0
   24.5316  -21.9402  -11.7070 C   0  0  0  0  0  0  0  0  0  0  0  0
   25.1295  -21.5812  -10.3572 C   0  0  0  0  0  0  0  0  0  0  0  0
   24.4134  -20.9322   -9.5330 O   0  0  0  0  0  0  0  0  0  0  0  0
   22.4802  -19.4192  -13.6866 C   0  0  0  0  0  0  0  0  0  0  0  0
   22.6119  -18.1686  -13.5650 O   0  0  0  0  0  0  0  0  0  0  0  0
   26.4008  -21.9462  -10.0321 O   0  0  0  0  0  0  0  0  0  0  0  0
   18.4940  -19.4089  -18.2181 N   0  0  0  0  0  0  0  0  0  0  0  0
   17.9372  -18.4271  -17.3577 C   0  0  0  0  0  0  0  0  0  0  0  0
   17.0292  -17.6943  -17.8076 O   0  0  0  0  0  0  0  0  0  0  0  0
   18.4086  -18.2713  -15.9816 C   0  0  0  0  0  0  0  0  0  0  0  0
   19.5502  -19.1527  -15.5899 C   0  0  0  0  0  0  0  0  0  0  0  0
   20.0487  -18.9649  -14.1861 C   0  0  2  0  0  0  0  0  0  0  0  0
   21.1806  -19.8872  -14.0367 N   0  0  0  0  0  0  0  0  0  0  0  0
   19.0437  -19.3200  -13.1726 C   0  0  0  0  0  0  0  0  0  0  0  0
   18.9814  -20.4876  -12.7290 O   0  0  0  0  0  0  0  0  0  0  0  0
   18.1429  -18.3899  -12.6785 O   0  0  0  0  0  0  0  0  0  0  0  0
  2  1  1  6
  3  2  1  0
  4  3  1  0
  5  7  1  0
  5  2  1  0
  6  5  2  0
  8  7  1  0
  8  9  1  1
  9 10  1  0
 10 11  1  0
 11 15  1  0
 11 12  2  0
 13  8  1  0
 14 13  2  0
 16 17  1  0
 17 19  1  0
 18 17  2  0
 19 20  1  0
 21 20  1  6
 21 23  1  0
 21 22  1  0
 22 13  1  0
 23 25  1  0
 24 23  2  0
M  END
$$$$
