CEQ.pdb
     RDKit          3D

 25 24  0  0  1  0  0  0  0  0999 V2000
   22.0926  -12.6829  -18.7604 N   0  0  0  0  0  0  0  0  0  0  0  0
   22.4221  -12.1513  -17.4553 C   0  0  1  0  0  0  0  0  0  0  0  0
   23.8984  -11.8163  -17.4799 C   0  0  0  0  0  0  0  0  0  0  0  0
   24.2585  -10.7019  -18.8884 S   0  0  0  0  0  0  0  0  0  0  0  0
   21.6012  -10.9161  -17.2321 C   0  0  0  0  0  0  0  0  0  0  0  0
   21.3340  -10.1915  -18.1942 O   0  0  0  0  0  0  0  0  0  0  0  0
   21.1281  -10.5616  -15.9568 N   0  0  0  0  0  0  0  0  0  0  0  0
   20.3710   -9.4821  -15.4896 C   0  0  1  0  0  0  0  0  0  0  0  0
   19.3452   -9.6480  -14.4277 C   0  0  0  0  0  0  0  0  0  0  0  0
   18.4548   -8.5041  -14.1117 C   0  0  0  0  0  0  0  0  0  0  0  0
   17.4956   -8.9620  -13.0260 C   0  0  0  0  0  0  0  0  0  0  0  0
   17.6144  -10.1430  -12.5742 O   0  0  0  0  0  0  0  0  0  0  0  0
   21.0688   -8.1968  -15.3204 C   0  0  0  0  0  0  0  0  0  0  0  0
   22.1776   -8.0893  -14.7244 O   0  0  0  0  0  0  0  0  0  0  0  0
   16.5316   -8.1297  -12.5431 O   0  0  0  0  0  0  0  0  0  0  0  0
   24.5594   -5.9120  -18.4678 N   0  0  0  0  0  0  0  0  0  0  0  0
   23.2449   -6.1497  -18.9472 C   0  0  0  0  0  0  0  0  0  0  0  0
   23.0992   -6.4275  -20.1577 O   0  0  0  0  0  0  0  0  0  0  0  0
   22.0881   -6.0725  -18.0550 C   0  0  0  0  0  0  0  0  0  0  0  0
   22.4013   -5.8032  -16.6187 C   0  0  0  0  0  0  0  0  0  0  0  0
   21.2080   -5.7078  -15.7125 C   0  0  2  0  0  0  0  0  0  0  0  0
   20.5084   -6.9922  -15.8356 N   0  0  0  0  0  0  0  0  0  0  0  0
   20.2718   -4.6466  -16.1135 C   0  0  0  0  0  0  0  0  0  0  0  0
   20.3312   -4.1547  -17.2618 O   0  0  0  0  0  0  0  0  0  0  0  0
   19.3043   -4.1597  -15.2490 O   0  0  0  0  0  0  0  0  0  0  0  0
  2  1  1  6
  3  2  1  0
  4  3  1  0
  5  7  1  0
  5  2  1  0
  6  5  2  0
  8  7  1  0
  8  9  1  1
  9 10  1  0
 10 11  1  0
 11 15  1  0
 11 12  2  0
 13  8  1  0
 14 13  2  0
 16 17  1  0
 17 19  1  0
 18 17  2  0
 19 20  1  0
 21 20  1  6
 21 23  1  0
 21 22  1  0
 22 13  1  0
 23 25  1  0
 24 23  2  0
M  END
$$$$
