CEQ.pdb
     RDKit          3D

 25 24  0  0  1  0  0  0  0  0999 V2000
   25.9864  -12.2817  -18.1213 N   0  0  0  0  0  0  0  0  0  0  0  0
   25.6553  -11.8163  -16.7916 C   0  0  1  0  0  0  0  0  0  0  0  0
   26.9303  -11.2612  -16.1927 C   0  0  0  0  0  0  0  0  0  0  0  0
   28.0971  -12.6288  -15.8408 S   0  0  0  0  0  0  0  0  0  0  0  0
   24.6162  -10.7421  -16.9170 C   0  0  0  0  0  0  0  0  0  0  0  0
   24.6766   -9.9569  -17.8667 O   0  0  0  0  0  0  0  0  0  0  0  0
   23.5755  -10.6055  -15.9820 N   0  0  0  0  0  0  0  0  0  0  0  0
   22.4910   -9.7270  -15.8878 C   0  0  1  0  0  0  0  0  0  0  0  0
   21.1400  -10.1934  -15.4818 C   0  0  0  0  0  0  0  0  0  0  0  0
   20.0098   -9.2335  -15.5310 C   0  0  0  0  0  0  0  0  0  0  0  0
   18.7627   -9.9774  -15.0840 C   0  0  0  0  0  0  0  0  0  0  0  0
   17.8547   -9.3259  -14.4806 O   0  0  0  0  0  0  0  0  0  0  0  0
   22.7552   -8.3934  -15.3226 C   0  0  0  0  0  0  0  0  0  0  0  0
   23.3343   -8.2189  -14.2135 O   0  0  0  0  0  0  0  0  0  0  0  0
   18.6152  -11.3100  -15.3245 O   0  0  0  0  0  0  0  0  0  0  0  0
   21.9901   -3.0324  -18.7095 N   0  0  0  0  0  0  0  0  0  0  0  0
   22.4114   -2.5633  -17.4380 C   0  0  0  0  0  0  0  0  0  0  0  0
   22.5847   -1.3337  -17.2900 O   0  0  0  0  0  0  0  0  0  0  0  0
   22.6390   -3.4878  -16.3272 C   0  0  0  0  0  0  0  0  0  0  0  0
   22.3389   -4.9234  -16.6144 C   0  0  0  0  0  0  0  0  0  0  0  0
   22.6637   -5.8779  -15.5019 C   0  0  2  0  0  0  0  0  0  0  0  0
   22.3593   -7.2164  -16.0215 N   0  0  0  0  0  0  0  0  0  0  0  0
   21.8354   -5.6617  -14.3059 C   0  0  0  0  0  0  0  0  0  0  0  0
   20.6510   -6.0624  -14.2788 O   0  0  0  0  0  0  0  0  0  0  0  0
   22.3274   -5.0170  -13.1822 O   0  0  0  0  0  0  0  0  0  0  0  0
  2  1  1  6
  3  2  1  0
  4  3  1  0
  5  7  1  0
  5  2  1  0
  6  5  2  0
  8  7  1  0
  8  9  1  1
  9 10  1  0
 10 11  1  0
 11 15  1  0
 11 12  2  0
 13  8  1  0
 14 13  2  0
 16 17  1  0
 17 19  1  0
 18 17  2  0
 19 20  1  0
 21 20  1  6
 21 23  1  0
 21 22  1  0
 22 13  1  0
 23 25  1  0
 24 23  2  0
M  END
$$$$
