CEQ.pdb
     RDKit          3D

 25 24  0  0  1  0  0  0  0  0999 V2000
   17.8151  -12.8463  -15.0796 N   0  0  0  0  0  0  0  0  0  0  0  0
   17.5070  -11.8428  -16.0759 C   0  0  1  0  0  0  0  0  0  0  0  0
   16.1036  -12.1300  -16.5661 C   0  0  0  0  0  0  0  0  0  0  0  0
   16.1569  -13.3841  -17.9003 S   0  0  0  0  0  0  0  0  0  0  0  0
   17.5748  -10.4958  -15.4199 C   0  0  0  0  0  0  0  0  0  0  0  0
   16.7827  -10.2300  -14.5122 O   0  0  0  0  0  0  0  0  0  0  0  0
   18.5163   -9.5280  -15.8111 N   0  0  0  0  0  0  0  0  0  0  0  0
   18.8171   -8.2473  -15.3356 C   0  0  1  0  0  0  0  0  0  0  0  0
   20.1787   -7.8896  -14.8605 C   0  0  0  0  0  0  0  0  0  0  0  0
   20.4030   -6.5377  -14.2919 C   0  0  0  0  0  0  0  0  0  0  0  0
   21.8245   -6.5006  -13.7567 C   0  0  0  0  0  0  0  0  0  0  0  0
   22.5473   -7.5362  -13.8907 O   0  0  0  0  0  0  0  0  0  0  0  0
   18.2168   -7.1085  -16.0501 C   0  0  0  0  0  0  0  0  0  0  0  0
   18.3144   -6.9519  -17.2999 O   0  0  0  0  0  0  0  0  0  0  0  0
   22.3180   -5.3856  -13.1497 O   0  0  0  0  0  0  0  0  0  0  0  0
   12.9728   -4.4454  -14.0139 N   0  0  0  0  0  0  0  0  0  0  0  0
   13.3492   -3.5707  -15.0663 C   0  0  0  0  0  0  0  0  0  0  0  0
   12.5956   -2.6089  -15.3325 O   0  0  0  0  0  0  0  0  0  0  0  0
   14.5829   -3.7836  -15.8230 C   0  0  0  0  0  0  0  0  0  0  0  0
   15.4412   -4.9113  -15.3485 C   0  0  0  0  0  0  0  0  0  0  0  0
   16.7621   -5.0464  -16.0494 C   0  0  2  0  0  0  0  0  0  0  0  0
   17.4825   -6.1125  -15.3433 N   0  0  0  0  0  0  0  0  0  0  0  0
   17.5771   -3.8246  -15.9691 C   0  0  0  0  0  0  0  0  0  0  0  0
   17.6122   -3.0263  -16.9311 O   0  0  0  0  0  0  0  0  0  0  0  0
   18.3241   -3.5164  -14.8433 O   0  0  0  0  0  0  0  0  0  0  0  0
  2  1  1  1
  3  2  1  0
  4  3  1  0
  5  7  1  0
  5  2  1  0
  6  5  2  0
  8  7  1  0
  8  9  1  6
  9 10  1  0
 10 11  1  0
 11 15  1  0
 11 12  2  0
 13  8  1  0
 14 13  2  0
 16 17  1  0
 17 19  1  0
 18 17  2  0
 19 20  1  0
 21 20  1  1
 21 23  1  0
 21 22  1  0
 22 13  1  0
 23 25  1  0
 24 23  2  0
M  END
$$$$
