CEQ.pdb
     RDKit          3D

 25 24  0  0  1  0  0  0  0  0999 V2000
   17.9370  -11.8880  -15.5620 N   0  0  0  0  0  0  0  0  0  0  0  0
   18.1710  -10.8147  -16.5042 C   0  0  1  0  0  0  0  0  0  0  0  0
   16.8580  -10.0775  -16.6618 C   0  0  0  0  0  0  0  0  0  0  0  0
   15.6717  -11.1155  -17.5948 S   0  0  0  0  0  0  0  0  0  0  0  0
   19.2220   -9.9106  -15.9322 C   0  0  0  0  0  0  0  0  0  0  0  0
   19.0580   -9.4383  -14.8043 O   0  0  0  0  0  0  0  0  0  0  0  0
   20.3889   -9.5867  -16.6460 N   0  0  0  0  0  0  0  0  0  0  0  0
   21.5640   -8.9149  -16.2929 C   0  0  1  0  0  0  0  0  0  0  0  0
   22.9033   -9.5293  -16.4838 C   0  0  0  0  0  0  0  0  0  0  0  0
   23.1856  -10.8371  -15.8426 C   0  0  0  0  0  0  0  0  0  0  0  0
   24.5901  -11.2487  -16.2504 C   0  0  0  0  0  0  0  0  0  0  0  0
   25.0537  -12.3418  -15.7996 O   0  0  0  0  0  0  0  0  0  0  0  0
   21.6248   -7.4726  -16.5823 C   0  0  0  0  0  0  0  0  0  0  0  0
   21.5332   -7.0010  -17.7508 O   0  0  0  0  0  0  0  0  0  0  0  0
   25.3375  -10.4698  -17.0811 O   0  0  0  0  0  0  0  0  0  0  0  0
   18.6780   -2.5579  -16.3750 N   0  0  0  0  0  0  0  0  0  0  0  0
   18.4017   -3.6734  -15.5423 C   0  0  0  0  0  0  0  0  0  0  0  0
   17.3450   -3.6637  -14.8737 O   0  0  0  0  0  0  0  0  0  0  0  0
   19.3242   -4.8061  -15.4633 C   0  0  0  0  0  0  0  0  0  0  0  0
   20.4837   -4.7572  -16.4049 C   0  0  0  0  0  0  0  0  0  0  0  0
   21.8159   -5.0831  -15.7938 C   0  0  2  0  0  0  0  0  0  0  0  0
   21.7928   -6.5266  -15.5299 N   0  0  0  0  0  0  0  0  0  0  0  0
   22.0380   -4.3960  -14.5124 C   0  0  0  0  0  0  0  0  0  0  0  0
   21.9681   -5.0304  -13.4369 O   0  0  0  0  0  0  0  0  0  0  0  0
   22.3287   -3.0425  -14.4490 O   0  0  0  0  0  0  0  0  0  0  0  0
  2  1  1  1
  3  2  1  0
  4  3  1  0
  5  7  1  0
  5  2  1  0
  6  5  2  0
  8  7  1  0
  8  9  1  6
  9 10  1  0
 10 11  1  0
 11 15  1  0
 11 12  2  0
 13  8  1  0
 14 13  2  0
 16 17  1  0
 17 19  1  0
 18 17  2  0
 19 20  1  0
 21 20  1  1
 21 23  1  0
 21 22  1  0
 22 13  1  0
 23 25  1  0
 24 23  2  0
M  END
$$$$
