MNK.pdb
     RDKit          3D

 26 25  0  0  1  0  0  0  0  0999 V2000
    7.2580  -10.8252   26.3213 C   0  0  0  0  0  0  0  0  0  0  0  0
    6.5106  -12.0011   27.4465 S   0  0  0  0  0  0  0  0  0  0  0  0
    5.7377  -13.3612   26.4983 C   0  0  0  0  0  0  0  0  0  0  0  0
    6.7814  -13.9820   25.6001 C   0  0  0  0  0  0  0  0  0  0  0  0
    6.3000  -15.1222   24.7732 C   0  0  2  0  0  0  0  0  0  0  0  0
    5.8452  -16.2069   25.6309 N   0  0  0  0  0  0  0  0  0  0  0  0
    7.4147  -15.5822   23.8905 C   0  0  0  0  0  0  0  0  0  0  0  0
    7.9760  -16.6805   24.1315 O   0  0  0  0  0  0  0  0  0  0  0  0
    7.0909  -13.1178   19.4996 N   0  0  0  0  0  0  0  0  0  0  0  0
    7.8107  -14.3118   19.8776 C   0  0  0  0  0  0  0  0  0  0  0  0
    7.3753  -15.4240   19.5060 O   0  0  0  0  0  0  0  0  0  0  0  0
    9.0295  -14.1984   20.6823 C   0  0  0  0  0  0  0  0  0  0  0  0
    8.9496  -15.0701   21.9255 C   0  0  2  0  0  0  0  0  0  0  0  0
    7.8502  -14.8035   22.7854 N   0  0  0  0  0  0  0  0  0  0  0  0
   10.2392  -15.2472   22.6169 C   0  0  0  0  0  0  0  0  0  0  0  0
   10.5625  -14.5214   23.6032 O   0  0  0  0  0  0  0  0  0  0  0  0
   11.1996  -16.2240   22.2379 N   0  0  0  0  0  0  0  0  0  0  0  0
   12.1264  -16.8271   23.2027 C   0  0  1  0  0  0  0  0  0  0  0  0
   11.3851  -17.5809   24.2490 C   0  0  0  0  0  0  0  0  0  0  0  0
   12.2235  -18.3244   25.2388 C   0  0  0  0  0  0  0  0  0  0  0  0
   11.3889  -19.1169   26.2297 C   0  0  0  0  0  0  0  0  0  0  0  0
   12.2366  -19.9227   27.1779 C   0  0  0  0  0  0  0  0  0  0  0  0
   11.8543  -19.5695   28.5475 N   0  0  0  0  0  0  0  0  0  0  0  0
   13.1058  -17.6801   22.4966 C   0  0  0  0  0  0  0  0  0  0  0  0
   12.7736  -18.3368   21.4919 O   0  0  0  0  0  0  0  0  0  0  0  0
   14.4221  -17.7337   22.9871 O   0  0  0  0  0  0  0  0  0  0  0  0
  2  1  1  0
  3  2  1  0
  4  3  1  0
  4  5  1  0
  5  7  1  0
  5  6  1  1
  7  8  2  0
 10  9  1  0
 11 10  2  0
 13 12  1  6
 12 10  1  0
 14 13  1  0
 14  7  1  0
 15 17  1  0
 15 13  1  0
 16 15  2  0
 18 17  1  0
 18 19  1  1
 19 20  1  0
 21 20  1  0
 22 21  1  0
 23 22  1  0
 24 26  1  0
 24 18  1  0
 25 24  2  0
M  END
$$$$
