MNK.pdb
     RDKit          3D

 26 25  0  0  1  0  0  0  0  0999 V2000
    8.7950  -11.7952   21.0402 C   0  0  0  0  0  0  0  0  0  0  0  0
    7.2166  -12.1649   20.2793 S   0  0  0  0  0  0  0  0  0  0  0  0
    6.8077  -13.9307   20.5263 C   0  0  0  0  0  0  0  0  0  0  0  0
    7.9231  -14.7728   19.9533 C   0  0  0  0  0  0  0  0  0  0  0  0
    7.7147  -16.2431   20.0538 C   0  0  2  0  0  0  0  0  0  0  0  0
    6.2916  -16.5497   20.0468 N   0  0  0  0  0  0  0  0  0  0  0  0
    8.3523  -16.7357   21.3123 C   0  0  0  0  0  0  0  0  0  0  0  0
    7.6302  -16.9840   22.3105 O   0  0  0  0  0  0  0  0  0  0  0  0
   11.5852  -20.3961   21.3100 N   0  0  0  0  0  0  0  0  0  0  0  0
   11.7926  -18.9948   21.0272 C   0  0  0  0  0  0  0  0  0  0  0  0
   11.9102  -18.6285   19.8369 O   0  0  0  0  0  0  0  0  0  0  0  0
   11.8596  -18.0353   22.1320 C   0  0  0  0  0  0  0  0  0  0  0  0
   10.4787  -17.5037   22.4820 C   0  0  2  0  0  0  0  0  0  0  0  0
    9.7566  -16.9293   21.4014 N   0  0  0  0  0  0  0  0  0  0  0  0
   10.4363  -16.7224   23.7310 C   0  0  0  0  0  0  0  0  0  0  0  0
   11.1846  -15.7151   23.9032 O   0  0  0  0  0  0  0  0  0  0  0  0
    9.5724  -17.0328   24.8161 N   0  0  0  0  0  0  0  0  0  0  0  0
    9.7008  -16.3891   26.1287 C   0  0  1  0  0  0  0  0  0  0  0  0
    8.5248  -15.5233   26.4111 C   0  0  0  0  0  0  0  0  0  0  0  0
    8.6097  -14.1181   25.9075 C   0  0  0  0  0  0  0  0  0  0  0  0
    7.3751  -13.3019   26.2484 C   0  0  0  0  0  0  0  0  0  0  0  0
    7.5073  -11.8612   25.8317 C   0  0  0  0  0  0  0  0  0  0  0  0
    6.2353  -11.1868   26.1037 N   0  0  0  0  0  0  0  0  0  0  0  0
    9.8969  -17.4136   27.1763 C   0  0  0  0  0  0  0  0  0  0  0  0
    9.7335  -18.6226   26.9260 O   0  0  0  0  0  0  0  0  0  0  0  0
   10.2715  -16.9905   28.4635 O   0  0  0  0  0  0  0  0  0  0  0  0
  2  1  1  0
  3  2  1  0
  4  3  1  0
  4  5  1  0
  5  7  1  0
  5  6  1  1
  7  8  2  0
 10  9  1  0
 11 10  2  0
 13 12  1  6
 12 10  1  0
 14 13  1  0
 14  7  1  0
 15 17  1  0
 15 13  1  0
 16 15  2  0
 18 17  1  0
 18 19  1  1
 19 20  1  0
 21 20  1  0
 22 21  1  0
 23 22  1  0
 24 26  1  0
 24 18  1  0
 25 24  2  0
M  END
$$$$
