MNK.pdb
     RDKit          3D

 26 25  0  0  1  0  0  0  0  0999 V2000
    7.9283  -12.1654   21.7703 C   0  0  0  0  0  0  0  0  0  0  0  0
    7.8837  -12.4630   20.0049 S   0  0  0  0  0  0  0  0  0  0  0  0
    6.9662  -14.0075   19.6597 C   0  0  0  0  0  0  0  0  0  0  0  0
    7.6670  -15.1539   20.3498 C   0  0  0  0  0  0  0  0  0  0  0  0
    8.9235  -15.6078   19.6936 C   0  0  2  0  0  0  0  0  0  0  0  0
    8.6372  -16.1185   18.3608 N   0  0  0  0  0  0  0  0  0  0  0  0
    9.5531  -16.6676   20.5385 C   0  0  0  0  0  0  0  0  0  0  0  0
    9.0553  -16.9347   21.6611 O   0  0  0  0  0  0  0  0  0  0  0  0
   10.6558  -20.9856   18.8893 N   0  0  0  0  0  0  0  0  0  0  0  0
   11.5120  -19.8336   18.7266 C   0  0  0  0  0  0  0  0  0  0  0  0
   11.6049  -19.3033   17.5974 O   0  0  0  0  0  0  0  0  0  0  0  0
   12.2494  -19.3107   19.8793 C   0  0  0  0  0  0  0  0  0  0  0  0
   11.3552  -18.4518   20.7593 C   0  0  2  0  0  0  0  0  0  0  0  0
   10.7009  -17.3782   20.0970 N   0  0  0  0  0  0  0  0  0  0  0  0
   11.9559  -18.0957   22.0573 C   0  0  0  0  0  0  0  0  0  0  0  0
   12.6989  -17.0775   22.1817 O   0  0  0  0  0  0  0  0  0  0  0  0
   11.7536  -18.8515   23.2438 N   0  0  0  0  0  0  0  0  0  0  0  0
   12.3409  -18.4614   24.5309 C   0  0  1  0  0  0  0  0  0  0  0  0
   11.7616  -19.2630   25.6419 C   0  0  0  0  0  0  0  0  0  0  0  0
   12.3804  -19.0605   26.9878 C   0  0  0  0  0  0  0  0  0  0  0  0
   11.7746  -19.9627   28.0487 C   0  0  0  0  0  0  0  0  0  0  0  0
   12.4029  -19.7587   29.4017 C   0  0  0  0  0  0  0  0  0  0  0  0
   11.8634  -20.7695   30.3148 N   0  0  0  0  0  0  0  0  0  0  0  0
   13.8131  -18.5826   24.4714 C   0  0  0  0  0  0  0  0  0  0  0  0
   14.3523  -19.5243   23.8601 O   0  0  0  0  0  0  0  0  0  0  0  0
   14.5910  -17.6096   25.1227 O   0  0  0  0  0  0  0  0  0  0  0  0
  2  1  1  0
  3  2  1  0
  4  3  1  0
  4  5  1  0
  5  7  1  0
  5  6  1  6
  7  8  2  0
 10  9  1  0
 11 10  2  0
 13 12  1  6
 12 10  1  0
 14 13  1  0
 14  7  1  0
 15 17  1  0
 15 13  1  0
 16 15  2  0
 18 17  1  0
 18 19  1  1
 19 20  1  0
 21 20  1  0
 22 21  1  0
 23 22  1  0
 24 26  1  0
 24 18  1  0
 25 24  2  0
M  END
$$$$
