MNK.pdb
     RDKit          3D

 26 25  0  0  1  0  0  0  0  0999 V2000
    7.3546  -10.9122   25.7901 C   0  0  0  0  0  0  0  0  0  0  0  0
    5.9891  -11.5163   26.7788 S   0  0  0  0  0  0  0  0  0  0  0  0
    6.2107  -13.3002   27.1178 C   0  0  0  0  0  0  0  0  0  0  0  0
    6.2700  -14.0412   25.8030 C   0  0  0  0  0  0  0  0  0  0  0  0
    7.5222  -14.8124   25.5729 C   0  0  2  0  0  0  0  0  0  0  0  0
    8.6727  -13.9209   25.6014 N   0  0  0  0  0  0  0  0  0  0  0  0
    7.4263  -15.5049   24.2521 C   0  0  0  0  0  0  0  0  0  0  0  0
    6.5952  -16.4362   24.1056 O   0  0  0  0  0  0  0  0  0  0  0  0
    6.4148  -14.8295   20.5913 N   0  0  0  0  0  0  0  0  0  0  0  0
    7.7897  -14.3888   20.5448 C   0  0  0  0  0  0  0  0  0  0  0  0
    8.0312  -13.1823   20.3194 O   0  0  0  0  0  0  0  0  0  0  0  0
    8.8679  -15.3563   20.7623 C   0  0  0  0  0  0  0  0  0  0  0  0
    8.7764  -15.9782   22.1467 C   0  0  2  0  0  0  0  0  0  0  0  0
    8.2546  -15.1305   23.1608 N   0  0  0  0  0  0  0  0  0  0  0  0
    9.9749  -16.7397   22.5418 C   0  0  0  0  0  0  0  0  0  0  0  0
   10.9974  -16.1600   23.0136 O   0  0  0  0  0  0  0  0  0  0  0  0
   10.0746  -18.1527   22.4252 N   0  0  0  0  0  0  0  0  0  0  0  0
   11.1805  -18.9118   23.0204 C   0  0  1  0  0  0  0  0  0  0  0  0
   10.7007  -20.2131   23.5579 C   0  0  0  0  0  0  0  0  0  0  0  0
   11.7485  -21.1101   24.1349 C   0  0  0  0  0  0  0  0  0  0  0  0
   11.1902  -22.4551   24.5660 C   0  0  0  0  0  0  0  0  0  0  0  0
   12.2342  -23.3302   25.2074 C   0  0  0  0  0  0  0  0  0  0  0  0
   11.5656  -24.5099   25.7621 N   0  0  0  0  0  0  0  0  0  0  0  0
   12.2625  -19.0890   22.0287 C   0  0  0  0  0  0  0  0  0  0  0  0
   12.0160  -19.0913   20.8079 O   0  0  0  0  0  0  0  0  0  0  0  0
   13.5776  -19.2560   22.4966 O   0  0  0  0  0  0  0  0  0  0  0  0
  2  1  1  0
  3  2  1  0
  4  3  1  0
  4  5  1  0
  5  7  1  0
  5  6  1  6
  7  8  2  0
 10  9  1  0
 11 10  2  0
 13 12  1  6
 12 10  1  0
 14 13  1  0
 14  7  1  0
 15 17  1  0
 15 13  1  0
 16 15  2  0
 18 17  1  0
 18 19  1  6
 19 20  1  0
 21 20  1  0
 22 21  1  0
 23 22  1  0
 24 26  1  0
 24 18  1  0
 25 24  2  0
M  END
$$$$
