MNK.pdb
     RDKit          3D

 26 25  0  0  1  0  0  0  0  0999 V2000
    6.8285  -10.9459   25.8349 C   0  0  0  0  0  0  0  0  0  0  0  0
    7.0135  -12.4639   26.7668 S   0  0  0  0  0  0  0  0  0  0  0  0
    5.6369  -13.6033   26.3752 C   0  0  0  0  0  0  0  0  0  0  0  0
    6.0059  -14.4093   25.1522 C   0  0  0  0  0  0  0  0  0  0  0  0
    7.2473  -15.2196   25.2855 C   0  0  2  0  0  0  0  0  0  0  0  0
    8.3177  -14.4086   25.8474 N   0  0  0  0  0  0  0  0  0  0  0  0
    7.6324  -15.7373   23.9375 C   0  0  0  0  0  0  0  0  0  0  0  0
    6.9087  -16.6014   23.3815 O   0  0  0  0  0  0  0  0  0  0  0  0
   10.4105  -16.4388   19.1953 N   0  0  0  0  0  0  0  0  0  0  0  0
   11.0834  -15.9448   20.3742 C   0  0  0  0  0  0  0  0  0  0  0  0
   12.2879  -16.2333   20.5491 O   0  0  0  0  0  0  0  0  0  0  0  0
   10.3479  -15.1198   21.3356 C   0  0  0  0  0  0  0  0  0  0  0  0
    9.5971  -15.9822   22.3378 C   0  0  2  0  0  0  0  0  0  0  0  0
    8.7981  -15.2713   23.2734 N   0  0  0  0  0  0  0  0  0  0  0  0
   10.4084  -17.0647   22.9229 C   0  0  0  0  0  0  0  0  0  0  0  0
   11.0498  -17.8758   22.1915 O   0  0  0  0  0  0  0  0  0  0  0  0
   10.5303  -17.2786   24.3227 N   0  0  0  0  0  0  0  0  0  0  0  0
   11.4992  -18.2239   24.8894 C   0  0  1  0  0  0  0  0  0  0  0  0
   11.7094  -17.9618   26.3384 C   0  0  0  0  0  0  0  0  0  0  0  0
   12.5741  -18.9430   27.0630 C   0  0  0  0  0  0  0  0  0  0  0  0
   12.3710  -18.8979   28.5674 C   0  0  0  0  0  0  0  0  0  0  0  0
   13.2121  -19.9164   29.2902 C   0  0  0  0  0  0  0  0  0  0  0  0
   12.9517  -19.7896   30.7264 N   0  0  0  0  0  0  0  0  0  0  0  0
   11.0570  -19.6119   24.6375 C   0  0  0  0  0  0  0  0  0  0  0  0
    9.8975  -19.9730   24.9137 O   0  0  0  0  0  0  0  0  0  0  0  0
   11.9774  -20.5160   24.0792 O   0  0  0  0  0  0  0  0  0  0  0  0
  2  1  1  0
  3  2  1  0
  4  3  1  0
  4  5  1  0
  5  7  1  0
  5  6  1  6
  7  8  2  0
 10  9  1  0
 11 10  2  0
 13 12  1  1
 12 10  1  0
 14 13  1  0
 14  7  1  0
 15 17  1  0
 15 13  1  0
 16 15  2  0
 18 17  1  0
 18 19  1  1
 19 20  1  0
 21 20  1  0
 22 21  1  0
 23 22  1  0
 24 26  1  0
 24 18  1  0
 25 24  2  0
M  END
$$$$
