MNK.pdb
     RDKit          3D

 26 25  0  0  1  0  0  0  0  0999 V2000
    7.7519  -12.2374   22.3164 C   0  0  0  0  0  0  0  0  0  0  0  0
    7.7624  -12.1432   20.5281 S   0  0  0  0  0  0  0  0  0  0  0  0
    7.2243  -13.7418   19.8200 C   0  0  0  0  0  0  0  0  0  0  0  0
    7.5431  -14.8418   20.8048 C   0  0  0  0  0  0  0  0  0  0  0  0
    8.6498  -15.7492   20.3959 C   0  0  2  0  0  0  0  0  0  0  0  0
    8.3023  -16.4398   19.1624 N   0  0  0  0  0  0  0  0  0  0  0  0
    8.9002  -16.7303   21.4950 C   0  0  0  0  0  0  0  0  0  0  0  0
    7.9432  -17.0930   22.2245 O   0  0  0  0  0  0  0  0  0  0  0  0
   13.4818  -19.9104   24.2475 N   0  0  0  0  0  0  0  0  0  0  0  0
   12.2120  -19.8373   23.5627 C   0  0  0  0  0  0  0  0  0  0  0  0
   11.3355  -20.6918   23.8203 O   0  0  0  0  0  0  0  0  0  0  0  0
   11.9757  -18.7704   22.5871 C   0  0  0  0  0  0  0  0  0  0  0  0
   10.5751  -18.1964   22.7298 C   0  0  2  0  0  0  0  0  0  0  0  0
   10.1967  -17.2606   21.7297 N   0  0  0  0  0  0  0  0  0  0  0  0
   10.2289  -17.7961   24.1055 C   0  0  0  0  0  0  0  0  0  0  0  0
   10.3862  -16.6041   24.5036 O   0  0  0  0  0  0  0  0  0  0  0  0
    9.7045  -18.6974   25.0713 N   0  0  0  0  0  0  0  0  0  0  0  0
    9.3587  -18.2727   26.4328 C   0  0  1  0  0  0  0  0  0  0  0  0
    7.9727  -18.6860   26.7804 C   0  0  0  0  0  0  0  0  0  0  0  0
    7.7654  -20.1471   27.0201 C   0  0  0  0  0  0  0  0  0  0  0  0
    6.3407  -20.4727   27.4335 C   0  0  0  0  0  0  0  0  0  0  0  0
    6.1261  -21.9490   27.6374 C   0  0  0  0  0  0  0  0  0  0  0  0
    4.7253  -22.1613   28.0105 N   0  0  0  0  0  0  0  0  0  0  0  0
   10.3502  -18.8011   27.3936 C   0  0  0  0  0  0  0  0  0  0  0  0
   11.1095  -19.7366   27.0785 O   0  0  0  0  0  0  0  0  0  0  0  0
   10.4152  -18.2229   28.6733 O   0  0  0  0  0  0  0  0  0  0  0  0
  2  1  1  0
  3  2  1  0
  4  3  1  0
  4  5  1  0
  5  7  1  0
  5  6  1  6
  7  8  2  0
 10  9  1  0
 11 10  2  0
 13 12  1  1
 12 10  1  0
 14 13  1  0
 14  7  1  0
 15 17  1  0
 15 13  1  0
 16 15  2  0
 18 17  1  0
 18 19  1  1
 19 20  1  0
 21 20  1  0
 22 21  1  0
 23 22  1  0
 24 26  1  0
 24 18  1  0
 25 24  2  0
M  END
$$$$
