MNK.pdb
     RDKit          3D

 26 25  0  0  1  0  0  0  0  0999 V2000
    5.2008  -12.2548   27.0752 C   0  0  0  0  0  0  0  0  0  0  0  0
    6.8354  -11.6447   26.6718 S   0  0  0  0  0  0  0  0  0  0  0  0
    7.1720  -11.9033   24.8925 C   0  0  0  0  0  0  0  0  0  0  0  0
    6.4812  -13.1701   24.4461 C   0  0  0  0  0  0  0  0  0  0  0  0
    7.3314  -14.3916   24.4728 C   0  0  2  0  0  0  0  0  0  0  0  0
    8.7059  -14.0389   24.7974 N   0  0  0  0  0  0  0  0  0  0  0  0
    7.2611  -15.0574   23.1367 C   0  0  0  0  0  0  0  0  0  0  0  0
    6.2342  -15.7143   22.8309 O   0  0  0  0  0  0  0  0  0  0  0  0
    6.8924  -13.6525   19.4851 N   0  0  0  0  0  0  0  0  0  0  0  0
    8.3122  -13.7469   19.7338 C   0  0  0  0  0  0  0  0  0  0  0  0
    8.9708  -12.6946   19.8880 O   0  0  0  0  0  0  0  0  0  0  0  0
    8.9495  -15.0641   19.8016 C   0  0  0  0  0  0  0  0  0  0  0  0
    8.5679  -15.7934   21.0800 C   0  0  2  0  0  0  0  0  0  0  0  0
    8.3306  -14.9612   22.2071 N   0  0  0  0  0  0  0  0  0  0  0  0
    9.3918  -16.9832   21.3598 C   0  0  0  0  0  0  0  0  0  0  0  0
    9.6253  -17.8477   20.4641 O   0  0  0  0  0  0  0  0  0  0  0  0
    9.9742  -17.2475   22.6290 N   0  0  0  0  0  0  0  0  0  0  0  0
   10.6671  -18.5065   22.9261 C   0  0  1  0  0  0  0  0  0  0  0  0
   11.1692  -18.5170   24.3262 C   0  0  0  0  0  0  0  0  0  0  0  0
   11.9157  -19.7428   24.7454 C   0  0  0  0  0  0  0  0  0  0  0  0
   12.4020  -19.6652   26.1821 C   0  0  0  0  0  0  0  0  0  0  0  0
   13.1419  -20.9067   26.6046 C   0  0  0  0  0  0  0  0  0  0  0  0
   13.5175  -20.7593   28.0131 N   0  0  0  0  0  0  0  0  0  0  0  0
    9.7735  -19.6517   22.6511 C   0  0  0  0  0  0  0  0  0  0  0  0
    8.6266  -19.6974   23.1344 O   0  0  0  0  0  0  0  0  0  0  0  0
   10.2496  -20.6896   21.8312 O   0  0  0  0  0  0  0  0  0  0  0  0
  2  1  1  0
  3  2  1  0
  4  3  1  0
  4  5  1  0
  5  7  1  0
  5  6  1  6
  7  8  2  0
 10  9  1  0
 11 10  2  0
 13 12  1  6
 12 10  1  0
 14 13  1  0
 14  7  1  0
 15 17  1  0
 15 13  1  0
 16 15  2  0
 18 17  1  0
 18 19  1  1
 19 20  1  0
 21 20  1  0
 22 21  1  0
 23 22  1  0
 24 26  1  0
 24 18  1  0
 25 24  2  0
M  END
$$$$
