MNK.pdb
     RDKit          3D

 26 25  0  0  1  0  0  0  0  0999 V2000
    7.3509  -11.6543   19.7571 C   0  0  0  0  0  0  0  0  0  0  0  0
    7.2320  -12.4212   18.1432 S   0  0  0  0  0  0  0  0  0  0  0  0
    8.5519  -13.6734   17.9532 C   0  0  0  0  0  0  0  0  0  0  0  0
    8.8491  -14.2757   19.3061 C   0  0  0  0  0  0  0  0  0  0  0  0
    9.9345  -15.2941   19.3152 C   0  0  2  0  0  0  0  0  0  0  0  0
    9.7893  -16.1922   18.1788 N   0  0  0  0  0  0  0  0  0  0  0  0
    9.8700  -16.0563   20.5990 C   0  0  0  0  0  0  0  0  0  0  0  0
    9.8582  -15.4274   21.6871 O   0  0  0  0  0  0  0  0  0  0  0  0
   11.5270  -21.4581   21.2617 N   0  0  0  0  0  0  0  0  0  0  0  0
   10.8046  -20.3244   20.7332 C   0  0  0  0  0  0  0  0  0  0  0  0
   11.1916  -19.8058   19.6626 O   0  0  0  0  0  0  0  0  0  0  0  0
    9.6395  -19.8075   21.4552 C   0  0  0  0  0  0  0  0  0  0  0  0
    9.7914  -18.3242   21.7524 C   0  0  2  0  0  0  0  0  0  0  0  0
    9.8208  -17.4757   20.6129 N   0  0  0  0  0  0  0  0  0  0  0  0
   10.8129  -18.0186   22.7700 C   0  0  0  0  0  0  0  0  0  0  0  0
   11.9573  -17.5845   22.4445 O   0  0  0  0  0  0  0  0  0  0  0  0
   10.5981  -18.1851   24.1651 N   0  0  0  0  0  0  0  0  0  0  0  0
   11.3371  -17.4113   25.1694 C   0  0  1  0  0  0  0  0  0  0  0  0
   10.4030  -16.6945   26.0784 C   0  0  0  0  0  0  0  0  0  0  0  0
   11.0254  -16.0212   27.2593 C   0  0  0  0  0  0  0  0  0  0  0  0
    9.9986  -15.3506   28.1551 C   0  0  0  0  0  0  0  0  0  0  0  0
   10.6342  -14.6135   29.3039 C   0  0  0  0  0  0  0  0  0  0  0  0
    9.5663  -14.0601   30.1404 N   0  0  0  0  0  0  0  0  0  0  0  0
   12.2590  -18.2973   25.9114 C   0  0  0  0  0  0  0  0  0  0  0  0
   13.3167  -17.8551   26.3981 O   0  0  0  0  0  0  0  0  0  0  0  0
   11.9140  -19.6526   26.0539 O   0  0  0  0  0  0  0  0  0  0  0  0
  2  1  1  0
  3  2  1  0
  4  3  1  0
  4  5  1  0
  5  7  1  0
  5  6  1  6
  7  8  2  0
 10  9  1  0
 11 10  2  0
 13 12  1  6
 12 10  1  0
 14 13  1  0
 14  7  1  0
 15 17  1  0
 15 13  1  0
 16 15  2  0
 18 17  1  0
 18 19  1  1
 19 20  1  0
 21 20  1  0
 22 21  1  0
 23 22  1  0
 24 26  1  0
 24 18  1  0
 25 24  2  0
M  END
$$$$
