MNK.pdb
     RDKit          3D

 26 25  0  0  1  0  0  0  0  0999 V2000
    7.2894  -11.0479   25.6955 C   0  0  0  0  0  0  0  0  0  0  0  0
    6.5148  -12.1399   26.8849 S   0  0  0  0  0  0  0  0  0  0  0  0
    5.8310  -13.6044   26.0282 C   0  0  0  0  0  0  0  0  0  0  0  0
    6.9744  -14.4234   25.4774 C   0  0  0  0  0  0  0  0  0  0  0  0
    6.5678  -15.6194   24.6901 C   0  0  2  0  0  0  0  0  0  0  0  0
    5.8958  -16.5819   25.5510 N   0  0  0  0  0  0  0  0  0  0  0  0
    7.7854  -16.2270   24.0724 C   0  0  0  0  0  0  0  0  0  0  0  0
    8.3073  -17.2369   24.6083 O   0  0  0  0  0  0  0  0  0  0  0  0
   10.6663  -17.5830   19.4218 N   0  0  0  0  0  0  0  0  0  0  0  0
   10.7967  -16.3186   20.1078 C   0  0  0  0  0  0  0  0  0  0  0  0
   11.9147  -15.7581   20.1367 O   0  0  0  0  0  0  0  0  0  0  0  0
    9.6249  -15.7196   20.7514 C   0  0  0  0  0  0  0  0  0  0  0  0
    9.5113  -16.1587   22.2027 C   0  0  2  0  0  0  0  0  0  0  0  0
    8.3624  -15.6863   22.8926 N   0  0  0  0  0  0  0  0  0  0  0  0
   10.7698  -16.0493   22.9620 C   0  0  0  0  0  0  0  0  0  0  0  0
   11.2844  -14.9222   23.2247 O   0  0  0  0  0  0  0  0  0  0  0  0
   11.4887  -17.1756   23.4466 N   0  0  0  0  0  0  0  0  0  0  0  0
   12.6981  -17.0395   24.2665 C   0  0  1  0  0  0  0  0  0  0  0  0
   12.7701  -18.1191   25.2872 C   0  0  0  0  0  0  0  0  0  0  0  0
   11.6278  -18.1883   26.2494 C   0  0  0  0  0  0  0  0  0  0  0  0
   11.7775  -19.3209   27.2501 C   0  0  0  0  0  0  0  0  0  0  0  0
   10.7473  -19.2572   28.3463 C   0  0  0  0  0  0  0  0  0  0  0  0
   11.0082  -20.3517   29.2847 N   0  0  0  0  0  0  0  0  0  0  0  0
   13.8957  -17.0176   23.4001 C   0  0  0  0  0  0  0  0  0  0  0  0
   15.0050  -16.6766   23.8521 O   0  0  0  0  0  0  0  0  0  0  0  0
   13.7527  -17.3900   22.0521 O   0  0  0  0  0  0  0  0  0  0  0  0
  2  1  1  0
  3  2  1  0
  4  3  1  0
  4  5  1  0
  5  7  1  0
  5  6  1  1
  7  8  2  0
 10  9  1  0
 11 10  2  0
 13 12  1  6
 12 10  1  0
 14 13  1  0
 14  7  1  0
 15 17  1  0
 15 13  1  0
 16 15  2  0
 18 17  1  0
 18 19  1  1
 19 20  1  0
 21 20  1  0
 22 21  1  0
 23 22  1  0
 24 26  1  0
 24 18  1  0
 25 24  2  0
M  END
$$$$
