MNK.pdb
     RDKit          3D

 26 25  0  0  1  0  0  0  0  0999 V2000
    7.3626  -11.1602   25.9541 C   0  0  0  0  0  0  0  0  0  0  0  0
    6.5409  -12.4195   26.9268 S   0  0  0  0  0  0  0  0  0  0  0  0
    5.9453  -13.7582   25.8316 C   0  0  0  0  0  0  0  0  0  0  0  0
    7.1274  -14.5900   25.3934 C   0  0  0  0  0  0  0  0  0  0  0  0
    6.8134  -15.6527   24.3997 C   0  0  2  0  0  0  0  0  0  0  0  0
    5.9091  -16.6332   24.9829 N   0  0  0  0  0  0  0  0  0  0  0  0
    8.0883  -16.3035   23.9704 C   0  0  0  0  0  0  0  0  0  0  0  0
    8.4338  -17.3885   24.5025 O   0  0  0  0  0  0  0  0  0  0  0  0
   11.5584  -17.7910   19.8263 N   0  0  0  0  0  0  0  0  0  0  0  0
   11.6265  -16.5170   20.5038 C   0  0  0  0  0  0  0  0  0  0  0  0
   12.7430  -15.9772   20.6670 O   0  0  0  0  0  0  0  0  0  0  0  0
   10.3948  -15.8847   20.9825 C   0  0  0  0  0  0  0  0  0  0  0  0
   10.1144  -16.2554   22.4302 C   0  0  2  0  0  0  0  0  0  0  0  0
    8.9151  -15.7208   22.9733 N   0  0  0  0  0  0  0  0  0  0  0  0
   11.2886  -16.1474   23.3145 C   0  0  0  0  0  0  0  0  0  0  0  0
   11.8257  -15.0274   23.5620 O   0  0  0  0  0  0  0  0  0  0  0  0
   11.8969  -17.2675   23.9434 N   0  0  0  0  0  0  0  0  0  0  0  0
   13.0391  -17.1299   24.8545 C   0  0  1  0  0  0  0  0  0  0  0  0
   13.1625  -18.3238   25.7331 C   0  0  0  0  0  0  0  0  0  0  0  0
   12.2293  -18.3778   26.9000 C   0  0  0  0  0  0  0  0  0  0  0  0
   12.4040  -19.6396   27.7270 C   0  0  0  0  0  0  0  0  0  0  0  0
   11.5520  -19.6338   28.9684 C   0  0  0  0  0  0  0  0  0  0  0  0
   11.8596  -20.8401   29.7410 N   0  0  0  0  0  0  0  0  0  0  0  0
   14.2746  -16.8828   24.0814 C   0  0  0  0  0  0  0  0  0  0  0  0
   14.5222  -17.5324   23.0480 O   0  0  0  0  0  0  0  0  0  0  0  0
   15.1652  -15.8971   24.5411 O   0  0  0  0  0  0  0  0  0  0  0  0
  2  1  1  0
  3  2  1  0
  4  3  1  0
  4  5  1  0
  5  7  1  0
  5  6  1  1
  7  8  2  0
 10  9  1  0
 11 10  2  0
 13 12  1  6
 12 10  1  0
 14 13  1  0
 14  7  1  0
 15 17  1  0
 15 13  1  0
 16 15  2  0
 18 17  1  0
 18 19  1  6
 19 20  1  0
 21 20  1  0
 22 21  1  0
 23 22  1  0
 24 26  1  0
 24 18  1  0
 25 24  2  0
M  END
$$$$
