MNK.pdb
     RDKit          3D

 26 25  0  0  1  0  0  0  0  0999 V2000
    7.5431  -12.5546   21.3302 C   0  0  0  0  0  0  0  0  0  0  0  0
    7.3337  -11.7048   19.7678 S   0  0  0  0  0  0  0  0  0  0  0  0
    8.3374  -12.5248   18.4768 C   0  0  0  0  0  0  0  0  0  0  0  0
    9.1256  -13.6456   19.1126 C   0  0  0  0  0  0  0  0  0  0  0  0
   10.0250  -14.3850   18.1854 C   0  0  2  0  0  0  0  0  0  0  0  0
    9.2673  -14.8949   17.0517 N   0  0  0  0  0  0  0  0  0  0  0  0
   10.6716  -15.5062   18.9325 C   0  0  0  0  0  0  0  0  0  0  0  0
   10.2568  -15.7981   20.0824 O   0  0  0  0  0  0  0  0  0  0  0  0
   12.2737  -19.6031   16.5374 N   0  0  0  0  0  0  0  0  0  0  0  0
   12.8908  -18.3163   16.7614 C   0  0  0  0  0  0  0  0  0  0  0  0
   12.9150  -17.4857   15.8264 O   0  0  0  0  0  0  0  0  0  0  0  0
   13.4716  -18.0099   18.0709 C   0  0  0  0  0  0  0  0  0  0  0  0
   12.4613  -17.3159   18.9706 C   0  0  2  0  0  0  0  0  0  0  0  0
   11.7435  -16.2478   18.3681 N   0  0  0  0  0  0  0  0  0  0  0  0
   12.9643  -17.0282   20.3259 C   0  0  0  0  0  0  0  0  0  0  0  0
   13.6671  -16.0017   20.5632 O   0  0  0  0  0  0  0  0  0  0  0  0
   12.7064  -17.8631   21.4469 N   0  0  0  0  0  0  0  0  0  0  0  0
   13.1318  -17.5048   22.8049 C   0  0  1  0  0  0  0  0  0  0  0  0
   12.3496  -18.2586   23.8211 C   0  0  0  0  0  0  0  0  0  0  0  0
   12.7904  -18.0955   25.2404 C   0  0  0  0  0  0  0  0  0  0  0  0
   11.9827  -18.9491   26.2024 C   0  0  0  0  0  0  0  0  0  0  0  0
   12.3821  -18.7296   27.6375 C   0  0  0  0  0  0  0  0  0  0  0  0
   11.4332  -19.4477   28.4923 N   0  0  0  0  0  0  0  0  0  0  0  0
   14.5863  -17.7245   22.9528 C   0  0  0  0  0  0  0  0  0  0  0  0
   15.1456  -18.6910   22.4013 O   0  0  0  0  0  0  0  0  0  0  0  0
   15.3239  -16.8165   23.7322 O   0  0  0  0  0  0  0  0  0  0  0  0
  2  1  1  0
  3  2  1  0
  4  3  1  0
  4  5  1  0
  5  7  1  0
  5  6  1  6
  7  8  2  0
 10  9  1  0
 11 10  2  0
 13 12  1  6
 12 10  1  0
 14 13  1  0
 14  7  1  0
 15 17  1  0
 15 13  1  0
 16 15  2  0
 18 17  1  0
 18 19  1  1
 19 20  1  0
 21 20  1  0
 22 21  1  0
 23 22  1  0
 24 26  1  0
 24 18  1  0
 25 24  2  0
M  END
$$$$
