MNK.pdb
     RDKit          3D

 26 25  0  0  1  0  0  0  0  0999 V2000
    7.0972  -11.5043   23.0580 C   0  0  0  0  0  0  0  0  0  0  0  0
    5.9362  -11.7877   21.7242 S   0  0  0  0  0  0  0  0  0  0  0  0
    6.6983  -12.8653   20.4575 C   0  0  0  0  0  0  0  0  0  0  0  0
    7.3608  -14.0339   21.1481 C   0  0  0  0  0  0  0  0  0  0  0  0
    8.6204  -14.5071   20.5119 C   0  0  2  0  0  0  0  0  0  0  0  0
    8.3519  -14.9879   19.1643 N   0  0  0  0  0  0  0  0  0  0  0  0
    9.2053  -15.5962   21.3517 C   0  0  0  0  0  0  0  0  0  0  0  0
    8.9674  -15.6156   22.5856 O   0  0  0  0  0  0  0  0  0  0  0  0
   10.9333  -19.1048   18.2214 N   0  0  0  0  0  0  0  0  0  0  0  0
   10.6653  -19.2011   19.6375 C   0  0  0  0  0  0  0  0  0  0  0  0
    9.6640  -19.8452   20.0215 O   0  0  0  0  0  0  0  0  0  0  0  0
   11.5657  -18.5484   20.5910 C   0  0  0  0  0  0  0  0  0  0  0  0
   10.8119  -17.5668   21.4742 C   0  0  2  0  0  0  0  0  0  0  0  0
   10.0227  -16.6087   20.7825 N   0  0  0  0  0  0  0  0  0  0  0  0
   11.6165  -17.0150   22.5790 C   0  0  0  0  0  0  0  0  0  0  0  0
   12.6815  -16.3662   22.3576 O   0  0  0  0  0  0  0  0  0  0  0  0
   11.2680  -17.1659   23.9486 N   0  0  0  0  0  0  0  0  0  0  0  0
   11.9119  -16.3853   25.0115 C   0  0  1  0  0  0  0  0  0  0  0  0
   10.9867  -16.1900   26.1597 C   0  0  0  0  0  0  0  0  0  0  0  0
   11.5792  -15.5583   27.3784 C   0  0  0  0  0  0  0  0  0  0  0  0
   10.5493  -15.3175   28.4683 C   0  0  0  0  0  0  0  0  0  0  0  0
   11.1270  -14.5875   29.6517 C   0  0  0  0  0  0  0  0  0  0  0  0
   10.0363  -14.2893   30.5834 N   0  0  0  0  0  0  0  0  0  0  0  0
   13.1733  -17.0372   25.4231 C   0  0  0  0  0  0  0  0  0  0  0  0
   14.1269  -16.3652   25.8592 O   0  0  0  0  0  0  0  0  0  0  0  0
   13.2718  -18.4349   25.3095 O   0  0  0  0  0  0  0  0  0  0  0  0
  2  1  1  0
  3  2  1  0
  4  3  1  0
  4  5  1  0
  5  7  1  0
  5  6  1  6
  7  8  2  0
 10  9  1  0
 11 10  2  0
 13 12  1  6
 12 10  1  0
 14 13  1  0
 14  7  1  0
 15 17  1  0
 15 13  1  0
 16 15  2  0
 18 17  1  0
 18 19  1  1
 19 20  1  0
 21 20  1  0
 22 21  1  0
 23 22  1  0
 24 26  1  0
 24 18  1  0
 25 24  2  0
M  END
$$$$
