MNK.pdb
     RDKit          3D

 26 25  0  0  1  0  0  0  0  0999 V2000
    7.4686  -11.3015   19.5044 C   0  0  0  0  0  0  0  0  0  0  0  0
    7.9343  -12.9537   20.0147 S   0  0  0  0  0  0  0  0  0  0  0  0
    6.4939  -14.0733   19.8796 C   0  0  0  0  0  0  0  0  0  0  0  0
    6.9018  -15.4493   20.3503 C   0  0  0  0  0  0  0  0  0  0  0  0
    7.6339  -16.2656   19.3439 C   0  0  2  0  0  0  0  0  0  0  0  0
    6.7009  -17.0980   18.5984 N   0  0  0  0  0  0  0  0  0  0  0  0
    8.6434  -17.1110   20.0507 C   0  0  0  0  0  0  0  0  0  0  0  0
    8.3205  -18.2644   20.4314 O   0  0  0  0  0  0  0  0  0  0  0  0
   12.9781  -20.1421   21.0390 N   0  0  0  0  0  0  0  0  0  0  0  0
   13.0205  -18.7889   20.5352 C   0  0  0  0  0  0  0  0  0  0  0  0
   14.0768  -18.1302   20.6580 O   0  0  0  0  0  0  0  0  0  0  0  0
   11.8341  -18.2178   19.8931 C   0  0  0  0  0  0  0  0  0  0  0  0
   11.0412  -17.3614   20.8676 C   0  0  2  0  0  0  0  0  0  0  0  0
    9.9590  -16.6370   20.2990 N   0  0  0  0  0  0  0  0  0  0  0  0
   11.8775  -16.5828   21.7987 C   0  0  0  0  0  0  0  0  0  0  0  0
   13.0115  -16.1387   21.4509 O   0  0  0  0  0  0  0  0  0  0  0  0
   11.4854  -16.2778   23.1304 N   0  0  0  0  0  0  0  0  0  0  0  0
   12.3209  -16.6130   24.2893 C   0  0  1  0  0  0  0  0  0  0  0  0
   11.7291  -17.7387   25.0608 C   0  0  0  0  0  0  0  0  0  0  0  0
   12.5760  -18.2968   26.1593 C   0  0  0  0  0  0  0  0  0  0  0  0
   11.8673  -19.3872   26.9438 C   0  0  0  0  0  0  0  0  0  0  0  0
   12.7227  -19.9457   28.0499 C   0  0  0  0  0  0  0  0  0  0  0  0
   11.8938  -20.8383   28.8641 N   0  0  0  0  0  0  0  0  0  0  0  0
   13.7002  -16.9104   23.8482 C   0  0  0  0  0  0  0  0  0  0  0  0
   14.6392  -16.1404   24.1248 O   0  0  0  0  0  0  0  0  0  0  0  0
   13.9272  -18.0833   23.1074 O   0  0  0  0  0  0  0  0  0  0  0  0
  2  1  1  0
  3  2  1  0
  4  3  1  0
  4  5  1  0
  5  7  1  0
  5  6  1  1
  7  8  2  0
 10  9  1  0
 11 10  2  0
 13 12  1  6
 12 10  1  0
 14 13  1  0
 14  7  1  0
 15 17  1  0
 15 13  1  0
 16 15  2  0
 18 17  1  0
 18 19  1  6
 19 20  1  0
 21 20  1  0
 22 21  1  0
 23 22  1  0
 24 26  1  0
 24 18  1  0
 25 24  2  0
M  END
$$$$
