HYW.pdb
     RDKit          3D

 37 40  0  0  1  0  0  0  0  0999 V2000
    9.1498  -16.1270   19.1126 N   0  0  0  0  0  0  0  0  0  0  0  0
    8.3488  -15.2031   19.8843 C   0  0  1  0  0  0  0  0  0  0  0  0
    7.1174  -14.8640   19.1104 C   0  0  0  0  0  0  0  0  0  0  0  0
    7.4922  -14.3804   17.7576 C   0  0  0  0  0  0  0  0  0  0  0  0
    7.8864  -13.0923   17.4341 C   0  0  0  0  0  0  0  0  0  0  0  0
    8.1409  -13.0501   16.1193 N   0  0  0  0  0  0  0  0  0  0  0  0
    7.9235  -14.2682   15.5873 C   0  0  0  0  0  0  0  0  0  0  0  0
    7.5292  -15.0691   16.5938 N   0  0  0  0  0  0  0  0  0  0  0  0
    8.0275  -15.7425   21.2307 C   0  0  0  0  0  0  0  0  0  0  0  0
    7.2191  -15.1286   21.9553 O   0  0  0  0  0  0  0  0  0  0  0  0
    8.2781  -21.7895   27.9115 O   0  0  0  0  0  0  0  0  0  0  0  0
    8.3411  -21.0841   26.7161 C   0  0  0  0  0  0  0  0  0  0  0  0
    7.1348  -20.6164   26.2088 C   0  0  0  0  0  0  0  0  0  0  0  0
    7.1771  -19.9169   25.0275 C   0  0  0  0  0  0  0  0  0  0  0  0
    8.3399  -19.6476   24.3108 C   0  0  0  0  0  0  0  0  0  0  0  0
    8.3528  -18.9303   23.0440 C   0  0  0  0  0  0  0  0  0  0  0  0
    8.3543  -17.4484   23.0766 C   0  0  2  0  0  0  0  0  0  0  0  0
    8.6017  -16.9280   21.7291 N   0  0  0  0  0  0  0  0  0  0  0  0
    9.3062  -16.7781   23.9572 C   0  0  0  0  0  0  0  0  0  0  0  0
   10.5445  -16.8989   23.7305 O   0  0  0  0  0  0  0  0  0  0  0  0
    9.5120  -20.1303   24.8506 C   0  0  0  0  0  0  0  0  0  0  0  0
    9.5098  -20.8360   26.0332 C   0  0  0  0  0  0  0  0  0  0  0  0
    8.9965  -15.9687   25.0818 N   0  0  0  0  0  0  0  0  0  0  0  0
    9.9488  -15.7295   26.1484 C   0  0  1  0  0  0  0  0  0  0  0  0
    9.5365  -14.6018   27.0628 C   0  0  0  0  0  0  0  0  0  0  0  0
    8.1784  -14.0905   26.7684 C   0  0  0  0  0  0  0  0  0  0  0  0
    7.0172  -14.7943   27.0379 C   0  0  0  0  0  0  0  0  0  0  0  0
    6.0044  -14.0190   26.6347 N   0  0  0  0  0  0  0  0  0  0  0  0
    6.4798  -12.8657   26.1276 C   0  0  0  0  0  0  0  0  0  0  0  0
    5.8328  -11.7758   25.5967 C   0  0  0  0  0  0  0  0  0  0  0  0
    6.5583  -10.7034   25.1383 C   0  0  0  0  0  0  0  0  0  0  0  0
    7.9368  -10.7120   25.2069 C   0  0  0  0  0  0  0  0  0  0  0  0
    8.5974  -11.8036   25.7386 C   0  0  0  0  0  0  0  0  0  0  0  0
    7.8575  -12.8774   26.1969 C   0  0  0  0  0  0  0  0  0  0  0  0
   10.2639  -16.8994   26.9684 C   0  0  0  0  0  0  0  0  0  0  0  0
    9.5809  -17.9744   26.8643 O   0  0  0  0  0  0  0  0  0  0  0  0
   11.3031  -16.8648   27.8696 O   0  0  0  0  0  0  0  0  0  0  0  0
  2  1  1  6
  2  3  1  0
  3  4  1  0
  4  8  1  0
  4  5  2  0
  5  6  1  0
  7  6  1  0
  8  7  2  0
  9  2  1  0
  9 10  2  0
 11 12  1  0
 12 22  2  0
 13 14  2  0
 13 12  1  0
 14 15  1  0
 15 21  2  0
 16 15  1  0
 17 18  1  0
 17 16  1  6
 18  9  1  0
 19 17  1  0
 20 19  2  0
 21 22  1  0
 23 19  1  0
 24 25  1  1
 24 23  1  0
 25 26  1  0
 26 27  2  0
 26 34  1  0
 27 28  1  0
 28 29  1  0
 29 30  2  0
 30 31  1  0
 32 31  2  0
 33 32  1  0
 34 33  2  0
 34 29  1  0
 35 24  1  0
 36 35  2  0
 37 35  1  0
M  END
$$$$
