HYW.pdb
     RDKit          3D

 37 40  0  0  1  0  0  0  0  0999 V2000
   10.2680  -17.0685   18.5457 N   0  0  0  0  0  0  0  0  0  0  0  0
   10.3121  -16.1134   19.6303 C   0  0  1  0  0  0  0  0  0  0  0  0
    9.0808  -15.2695   19.5848 C   0  0  0  0  0  0  0  0  0  0  0  0
    9.0584  -14.4818   18.3265 C   0  0  0  0  0  0  0  0  0  0  0  0
    9.4998  -13.1774   18.1749 C   0  0  0  0  0  0  0  0  0  0  0  0
    9.3164  -12.8192   16.8970 N   0  0  0  0  0  0  0  0  0  0  0  0
    8.7719  -13.8501   16.2223 C   0  0  0  0  0  0  0  0  0  0  0  0
    8.6196  -14.8558   17.1027 N   0  0  0  0  0  0  0  0  0  0  0  0
   10.4797  -16.7807   20.9470 C   0  0  0  0  0  0  0  0  0  0  0  0
    9.8148  -17.8054   21.1990 O   0  0  0  0  0  0  0  0  0  0  0  0
   13.2772  -17.6926   29.4253 O   0  0  0  0  0  0  0  0  0  0  0  0
   13.1461  -17.4081   28.0717 C   0  0  0  0  0  0  0  0  0  0  0  0
   12.6205  -16.1628   27.7487 C   0  0  0  0  0  0  0  0  0  0  0  0
   12.4832  -15.8636   26.4153 C   0  0  0  0  0  0  0  0  0  0  0  0
   12.8333  -16.7192   25.3742 C   0  0  0  0  0  0  0  0  0  0  0  0
   12.6479  -16.3890   23.9684 C   0  0  0  0  0  0  0  0  0  0  0  0
   11.3728  -16.7756   23.3189 C   0  0  2  0  0  0  0  0  0  0  0  0
   11.3650  -16.3020   21.9321 N   0  0  0  0  0  0  0  0  0  0  0  0
   10.1247  -16.3131   23.9183 C   0  0  0  0  0  0  0  0  0  0  0  0
    9.5951  -15.2471   23.4912 O   0  0  0  0  0  0  0  0  0  0  0  0
   13.3499  -17.9427   25.7406 C   0  0  0  0  0  0  0  0  0  0  0  0
   13.5028  -18.2788   27.0673 C   0  0  0  0  0  0  0  0  0  0  0  0
    9.4003  -16.9450   24.9631 N   0  0  0  0  0  0  0  0  0  0  0  0
    8.3266  -16.2781   25.6730 C   0  0  1  0  0  0  0  0  0  0  0  0
    7.2798  -15.7030   24.7502 C   0  0  0  0  0  0  0  0  0  0  0  0
    6.3307  -14.8048   25.4467 C   0  0  0  0  0  0  0  0  0  0  0  0
    5.1759  -15.2429   26.0719 C   0  0  0  0  0  0  0  0  0  0  0  0
    4.5853  -14.1546   26.5781 N   0  0  0  0  0  0  0  0  0  0  0  0
    5.3178  -13.0599   26.2983 C   0  0  0  0  0  0  0  0  0  0  0  0
    5.1188  -11.7353   26.6048 C   0  0  0  0  0  0  0  0  0  0  0  0
    6.0302  -10.7922   26.1969 C   0  0  0  0  0  0  0  0  0  0  0  0
    7.1482  -11.1660   25.4790 C   0  0  0  0  0  0  0  0  0  0  0  0
    7.3576  -12.4957   25.1649 C   0  0  0  0  0  0  0  0  0  0  0  0
    6.4340  -13.4364   25.5803 C   0  0  0  0  0  0  0  0  0  0  0  0
    7.6548  -17.0942   26.6844 C   0  0  0  0  0  0  0  0  0  0  0  0
    7.5403  -18.3581   26.5346 O   0  0  0  0  0  0  0  0  0  0  0  0
    7.1320  -16.5160   27.8183 O   0  0  0  0  0  0  0  0  0  0  0  0
  2  1  1  6
  2  3  1  0
  3  4  1  0
  4  8  1  0
  4  5  2  0
  5  6  1  0
  7  6  1  0
  8  7  2  0
  9  2  1  0
  9 10  2  0
 11 12  1  0
 12 22  2  0
 13 14  2  0
 13 12  1  0
 14 15  1  0
 15 21  2  0
 16 15  1  0
 17 18  1  0
 17 16  1  1
 18  9  1  0
 19 17  1  0
 20 19  2  0
 21 22  1  0
 23 19  1  0
 24 25  1  6
 24 23  1  0
 25 26  1  0
 26 27  2  0
 26 34  1  0
 27 28  1  0
 28 29  1  0
 29 30  2  0
 30 31  1  0
 32 31  2  0
 33 32  1  0
 34 33  2  0
 34 29  1  0
 35 24  1  0
 36 35  2  0
 37 35  1  0
M  END
$$$$
