HYW.pdb
     RDKit          3D

 37 40  0  0  1  0  0  0  0  0999 V2000
    9.2173  -16.9919   19.2099 N   0  0  0  0  0  0  0  0  0  0  0  0
    9.3924  -16.0165   20.2628 C   0  0  1  0  0  0  0  0  0  0  0  0
    8.1331  -15.2270   20.4079 C   0  0  0  0  0  0  0  0  0  0  0  0
    7.9182  -14.3976   19.1953 C   0  0  0  0  0  0  0  0  0  0  0  0
    8.2315  -13.0548   19.0618 C   0  0  0  0  0  0  0  0  0  0  0  0
    7.8909  -12.6663   17.8256 N   0  0  0  0  0  0  0  0  0  0  0  0
    7.3691  -13.7148   17.1604 C   0  0  0  0  0  0  0  0  0  0  0  0
    7.3910  -14.7624   18.0041 N   0  0  0  0  0  0  0  0  0  0  0  0
    9.7997  -16.6524   21.5421 C   0  0  0  0  0  0  0  0  0  0  0  0
    9.2044  -17.6779   21.9288 O   0  0  0  0  0  0  0  0  0  0  0  0
   15.7403  -19.2145   27.6651 O   0  0  0  0  0  0  0  0  0  0  0  0
   15.0300  -18.6096   26.6356 C   0  0  0  0  0  0  0  0  0  0  0  0
   14.9201  -17.2252   26.6891 C   0  0  0  0  0  0  0  0  0  0  0  0
   14.2211  -16.6093   25.6799 C   0  0  0  0  0  0  0  0  0  0  0  0
   13.6204  -17.2755   24.6151 C   0  0  0  0  0  0  0  0  0  0  0  0
   12.8580  -16.6003   23.5747 C   0  0  0  0  0  0  0  0  0  0  0  0
   11.3994  -16.8523   23.4979 C   0  0  2  0  0  0  0  0  0  0  0  0
   10.8386  -16.1427   22.3448 N   0  0  0  0  0  0  0  0  0  0  0  0
   10.5744  -16.4878   24.6458 C   0  0  0  0  0  0  0  0  0  0  0  0
    9.8395  -15.4611   24.5740 O   0  0  0  0  0  0  0  0  0  0  0  0
   13.7545  -18.6466   24.6027 C   0  0  0  0  0  0  0  0  0  0  0  0
   14.4480  -19.2999   25.5970 C   0  0  0  0  0  0  0  0  0  0  0  0
   10.4900  -17.1788   25.8832 N   0  0  0  0  0  0  0  0  0  0  0  0
    9.7212  -16.6702   27.0021 C   0  0  1  0  0  0  0  0  0  0  0  0
    8.2384  -16.9088   26.8535 C   0  0  0  0  0  0  0  0  0  0  0  0
    7.5468  -15.8059   26.1478 C   0  0  0  0  0  0  0  0  0  0  0  0
    6.6718  -15.9981   25.0924 C   0  0  0  0  0  0  0  0  0  0  0  0
    6.2568  -14.7820   24.7206 N   0  0  0  0  0  0  0  0  0  0  0  0
    6.8313  -13.8419   25.4946 C   0  0  0  0  0  0  0  0  0  0  0  0
    6.7154  -12.4727   25.4919 C   0  0  0  0  0  0  0  0  0  0  0  0
    7.4200  -11.7226   26.4014 C   0  0  0  0  0  0  0  0  0  0  0  0
    8.2467  -12.3355   27.3213 C   0  0  0  0  0  0  0  0  0  0  0  0
    8.3709  -13.7122   27.3322 C   0  0  0  0  0  0  0  0  0  0  0  0
    7.6572  -14.4573   26.4124 C   0  0  0  0  0  0  0  0  0  0  0  0
   10.1407  -17.1632   28.3141 C   0  0  0  0  0  0  0  0  0  0  0  0
   11.0051  -18.0988   28.4157 O   0  0  0  0  0  0  0  0  0  0  0  0
    9.6115  -16.6285   29.4663 O   0  0  0  0  0  0  0  0  0  0  0  0
  2  1  1  6
  2  3  1  0
  3  4  1  0
  4  8  1  0
  4  5  2  0
  5  6  1  0
  7  6  1  0
  8  7  2  0
  9  2  1  0
  9 10  2  0
 11 12  1  0
 12 22  2  0
 13 14  2  0
 13 12  1  0
 14 15  1  0
 15 21  2  0
 16 15  1  0
 17 18  1  0
 17 16  1  1
 18  9  1  0
 19 17  1  0
 20 19  2  0
 21 22  1  0
 23 19  1  0
 24 25  1  6
 24 23  1  0
 25 26  1  0
 26 27  2  0
 26 34  1  0
 27 28  1  0
 28 29  1  0
 29 30  2  0
 30 31  1  0
 32 31  2  0
 33 32  1  0
 34 33  2  0
 34 29  1  0
 35 24  1  0
 36 35  2  0
 37 35  1  0
M  END
$$$$
