HYW.pdb
     RDKit          3D

 37 40  0  0  1  0  0  0  0  0999 V2000
    8.5629  -16.7877   18.5355 N   0  0  0  0  0  0  0  0  0  0  0  0
    8.4025  -15.7183   19.4953 C   0  0  1  0  0  0  0  0  0  0  0  0
    7.3524  -14.7774   19.0033 C   0  0  0  0  0  0  0  0  0  0  0  0
    7.7383  -14.2466   17.6715 C   0  0  0  0  0  0  0  0  0  0  0  0
    8.3206  -13.0141   17.4241 C   0  0  0  0  0  0  0  0  0  0  0  0
    8.5184  -12.9020   16.1037 N   0  0  0  0  0  0  0  0  0  0  0  0
    8.0826  -14.0214   15.4944 C   0  0  0  0  0  0  0  0  0  0  0  0
    7.6102  -14.8320   16.4586 N   0  0  0  0  0  0  0  0  0  0  0  0
    8.0918  -16.2367   20.8525 C   0  0  0  0  0  0  0  0  0  0  0  0
    7.0175  -15.9123   21.3967 O   0  0  0  0  0  0  0  0  0  0  0  0
    8.3456  -21.9086   27.7245 O   0  0  0  0  0  0  0  0  0  0  0  0
    8.4135  -21.2298   26.5141 C   0  0  0  0  0  0  0  0  0  0  0  0
    9.6848  -20.9034   26.0576 C   0  0  0  0  0  0  0  0  0  0  0  0
    9.7719  -20.2319   24.8626 C   0  0  0  0  0  0  0  0  0  0  0  0
    8.6788  -19.8598   24.0847 C   0  0  0  0  0  0  0  0  0  0  0  0
    8.7979  -19.1203   22.8364 C   0  0  0  0  0  0  0  0  0  0  0  0
    8.6684  -17.6444   22.8798 C   0  0  2  0  0  0  0  0  0  0  0  0
    8.9659  -17.0864   21.5578 N   0  0  0  0  0  0  0  0  0  0  0  0
    9.4927  -16.9068   23.8323 C   0  0  0  0  0  0  0  0  0  0  0  0
   10.7258  -16.7593   23.5938 O   0  0  0  0  0  0  0  0  0  0  0  0
    7.4383  -20.2036   24.5758 C   0  0  0  0  0  0  0  0  0  0  0  0
    7.3107  -20.8771   25.7702 C   0  0  0  0  0  0  0  0  0  0  0  0
    9.0578  -16.3051   25.0425 N   0  0  0  0  0  0  0  0  0  0  0  0
    9.9877  -15.7819   26.0239 C   0  0  1  0  0  0  0  0  0  0  0  0
    9.6159  -14.4019   26.5091 C   0  0  0  0  0  0  0  0  0  0  0  0
    8.1833  -14.0876   26.3050 C   0  0  0  0  0  0  0  0  0  0  0  0
    7.1968  -15.0497   26.1729 C   0  0  0  0  0  0  0  0  0  0  0  0
    6.0463  -14.3888   26.0027 N   0  0  0  0  0  0  0  0  0  0  0  0
    6.2696  -13.0611   26.0230 C   0  0  0  0  0  0  0  0  0  0  0  0
    5.4105  -11.9968   25.8906 C   0  0  0  0  0  0  0  0  0  0  0  0
    5.8947  -10.7128   25.9486 C   0  0  0  0  0  0  0  0  0  0  0  0
    7.2422  -10.4825   26.1394 C   0  0  0  0  0  0  0  0  0  0  0  0
    8.1150  -11.5460   26.2733 C   0  0  0  0  0  0  0  0  0  0  0  0
    7.6169  -12.8340   26.2134 C   0  0  0  0  0  0  0  0  0  0  0  0
   10.2035  -16.6401   27.1888 C   0  0  0  0  0  0  0  0  0  0  0  0
    9.4328  -17.6324   27.4222 O   0  0  0  0  0  0  0  0  0  0  0  0
   11.2421  -16.3952   28.0577 O   0  0  0  0  0  0  0  0  0  0  0  0
  2  1  1  6
  2  3  1  0
  3  4  1  0
  4  8  1  0
  4  5  2  0
  5  6  1  0
  7  6  1  0
  8  7  2  0
  9  2  1  0
  9 10  2  0
 11 12  1  0
 12 22  2  0
 13 14  2  0
 13 12  1  0
 14 15  1  0
 15 21  2  0
 16 15  1  0
 17 18  1  0
 17 16  1  6
 18  9  1  0
 19 17  1  0
 20 19  2  0
 21 22  1  0
 23 19  1  0
 24 25  1  1
 24 23  1  0
 25 26  1  0
 26 27  2  0
 26 34  1  0
 27 28  1  0
 28 29  1  0
 29 30  2  0
 30 31  1  0
 32 31  2  0
 33 32  1  0
 34 33  2  0
 34 29  1  0
 35 24  1  0
 36 35  2  0
 37 35  1  0
M  END
$$$$
