HYW.pdb
     RDKit          3D

 37 40  0  0  1  0  0  0  0  0999 V2000
   10.4854  -16.8391   19.8111 N   0  0  0  0  0  0  0  0  0  0  0  0
   10.2330  -15.9429   20.9173 C   0  0  1  0  0  0  0  0  0  0  0  0
    8.8463  -15.4017   20.7974 C   0  0  0  0  0  0  0  0  0  0  0  0
    8.6993  -14.6790   19.5088 C   0  0  0  0  0  0  0  0  0  0  0  0
    9.1631  -13.4028   19.2339 C   0  0  0  0  0  0  0  0  0  0  0  0
    8.8395  -13.1033   17.9687 N   0  0  0  0  0  0  0  0  0  0  0  0
    8.1833  -14.1445   17.4215 C   0  0  0  0  0  0  0  0  0  0  0  0
    8.1042  -15.0971   18.3681 N   0  0  0  0  0  0  0  0  0  0  0  0
   10.4590  -16.6059   22.2275 C   0  0  0  0  0  0  0  0  0  0  0  0
   10.1183  -17.7967   22.3739 O   0  0  0  0  0  0  0  0  0  0  0  0
   11.3234  -16.2379   31.1939 O   0  0  0  0  0  0  0  0  0  0  0  0
   11.3857  -16.0275   29.8219 C   0  0  0  0  0  0  0  0  0  0  0  0
   11.9930  -17.0255   29.0693 C   0  0  0  0  0  0  0  0  0  0  0  0
   12.0641  -16.8350   27.7110 C   0  0  0  0  0  0  0  0  0  0  0  0
   11.5715  -15.7167   27.0438 C   0  0  0  0  0  0  0  0  0  0  0  0
   11.6881  -15.5255   25.6053 C   0  0  0  0  0  0  0  0  0  0  0  0
   10.7543  -16.2628   24.7213 C   0  0  2  0  0  0  0  0  0  0  0  0
   11.0467  -15.9418   23.3216 N   0  0  0  0  0  0  0  0  0  0  0  0
    9.3212  -16.0511   24.9008 C   0  0  0  0  0  0  0  0  0  0  0  0
    8.6403  -15.5999   23.9353 O   0  0  0  0  0  0  0  0  0  0  0  0
   10.9779  -14.7530   27.8294 C   0  0  0  0  0  0  0  0  0  0  0  0
   10.8877  -14.9083   29.1947 C   0  0  0  0  0  0  0  0  0  0  0  0
    8.5668  -16.3061   26.0762 N   0  0  0  0  0  0  0  0  0  0  0  0
    7.3194  -17.0442   26.0496 C   0  0  1  0  0  0  0  0  0  0  0  0
    6.4371  -16.6660   24.8850 C   0  0  0  0  0  0  0  0  0  0  0  0
    6.4576  -15.2138   24.5962 C   0  0  0  0  0  0  0  0  0  0  0  0
    6.5674  -14.6853   23.3215 C   0  0  0  0  0  0  0  0  0  0  0  0
    6.5540  -13.3551   23.4626 N   0  0  0  0  0  0  0  0  0  0  0  0
    6.4406  -13.0304   24.7645 C   0  0  0  0  0  0  0  0  0  0  0  0
    6.3854  -11.8087   25.3910 C   0  0  0  0  0  0  0  0  0  0  0  0
    6.2666  -11.7432   26.7577 C   0  0  0  0  0  0  0  0  0  0  0  0
    6.2020  -12.8990   27.5094 C   0  0  0  0  0  0  0  0  0  0  0  0
    6.2571  -14.1331   26.8891 C   0  0  0  0  0  0  0  0  0  0  0  0
    6.3768  -14.1874   25.5132 C   0  0  0  0  0  0  0  0  0  0  0  0
    7.4630  -18.5000   26.0687 C   0  0  0  0  0  0  0  0  0  0  0  0
    8.6185  -19.0440   26.0255 O   0  0  0  0  0  0  0  0  0  0  0  0
    6.3549  -19.3133   26.1332 O   0  0  0  0  0  0  0  0  0  0  0  0
  2  1  1  6
  2  3  1  0
  3  4  1  0
  4  8  1  0
  4  5  2  0
  5  6  1  0
  7  6  1  0
  8  7  2  0
  9  2  1  0
  9 10  2  0
 11 12  1  0
 12 22  2  0
 13 14  2  0
 13 12  1  0
 14 15  1  0
 15 21  2  0
 16 15  1  0
 17 18  1  0
 17 16  1  1
 18  9  1  0
 19 17  1  0
 20 19  2  0
 21 22  1  0
 23 19  1  0
 24 25  1  6
 24 23  1  0
 25 26  1  0
 26 27  2  0
 26 34  1  0
 27 28  1  0
 28 29  1  0
 29 30  2  0
 30 31  1  0
 32 31  2  0
 33 32  1  0
 34 33  2  0
 34 29  1  0
 35 24  1  0
 36 35  2  0
 37 35  1  0
M  END
$$$$
