HYW.pdb
     RDKit          3D

 37 40  0  0  1  0  0  0  0  0999 V2000
    9.5201  -17.0024   20.1871 N   0  0  0  0  0  0  0  0  0  0  0  0
    9.7514  -16.2331   21.3892 C   0  0  1  0  0  0  0  0  0  0  0  0
    8.6893  -15.1902   21.5105 C   0  0  0  0  0  0  0  0  0  0  0  0
    8.5937  -14.4217   20.2438 C   0  0  0  0  0  0  0  0  0  0  0  0
    9.3698  -14.6168   19.1129 C   0  0  0  0  0  0  0  0  0  0  0  0
    8.9844  -13.7325   18.1830 N   0  0  0  0  0  0  0  0  0  0  0  0
    7.9865  -12.9758   18.6787 C   0  0  0  0  0  0  0  0  0  0  0  0
    7.7577  -13.4045   19.9331 N   0  0  0  0  0  0  0  0  0  0  0  0
    9.8194  -17.0992   22.5944 C   0  0  0  0  0  0  0  0  0  0  0  0
    8.7931  -17.6991   22.9715 O   0  0  0  0  0  0  0  0  0  0  0  0
   10.8383  -13.5962   30.2853 O   0  0  0  0  0  0  0  0  0  0  0  0
   10.9193  -14.0767   28.9842 C   0  0  0  0  0  0  0  0  0  0  0  0
   12.0593  -14.8034   28.6622 C   0  0  0  0  0  0  0  0  0  0  0  0
   12.1573  -15.2864   27.3802 C   0  0  0  0  0  0  0  0  0  0  0  0
   11.1970  -15.0973   26.3899 C   0  0  0  0  0  0  0  0  0  0  0  0
   11.3405  -15.5939   25.0289 C   0  0  0  0  0  0  0  0  0  0  0  0
   11.1029  -17.0354   24.7790 C   0  0  2  0  0  0  0  0  0  0  0  0
   11.0036  -17.2737   23.3364 N   0  0  0  0  0  0  0  0  0  0  0  0
    9.9259  -17.6554   25.3800 C   0  0  0  0  0  0  0  0  0  0  0  0
    9.7920  -17.6310   26.6373 O   0  0  0  0  0  0  0  0  0  0  0  0
   10.0840  -14.3711   26.7534 C   0  0  0  0  0  0  0  0  0  0  0  0
    9.9499  -13.8707   28.0293 C   0  0  0  0  0  0  0  0  0  0  0  0
    8.8662  -18.3054   24.6942 N   0  0  0  0  0  0  0  0  0  0  0  0
    7.7350  -18.8857   25.3909 C   0  0  1  0  0  0  0  0  0  0  0  0
    6.9316  -17.8652   26.1598 C   0  0  0  0  0  0  0  0  0  0  0  0
    6.6041  -16.6664   25.3546 C   0  0  0  0  0  0  0  0  0  0  0  0
    6.1409  -16.7192   24.0512 C   0  0  0  0  0  0  0  0  0  0  0  0
    5.9633  -15.4516   23.6627 N   0  0  0  0  0  0  0  0  0  0  0  0
    6.2933  -14.6121   24.6624 C   0  0  0  0  0  0  0  0  0  0  0  0
    6.2768  -13.2400   24.7346 C   0  0  0  0  0  0  0  0  0  0  0  0
    6.6688  -12.6089   25.8898 C   0  0  0  0  0  0  0  0  0  0  0  0
    7.0806  -13.3448   26.9826 C   0  0  0  0  0  0  0  0  0  0  0  0
    7.1013  -14.7255   26.9203 C   0  0  0  0  0  0  0  0  0  0  0  0
    6.7049  -15.3503   25.7528 C   0  0  0  0  0  0  0  0  0  0  0  0
    6.8204  -19.6564   24.5485 C   0  0  0  0  0  0  0  0  0  0  0  0
    5.7858  -20.2162   25.0478 O   0  0  0  0  0  0  0  0  0  0  0  0
    7.0567  -19.7942   23.2000 O   0  0  0  0  0  0  0  0  0  0  0  0
  2  1  1  6
  2  3  1  0
  3  4  1  0
  4  8  1  0
  4  5  2  0
  5  6  1  0
  7  6  1  0
  8  7  2  0
  9  2  1  0
  9 10  2  0
 11 12  1  0
 12 22  2  0
 13 14  2  0
 13 12  1  0
 14 15  1  0
 15 21  2  0
 16 15  1  0
 17 18  1  0
 17 16  1  6
 18  9  1  0
 19 17  1  0
 20 19  2  0
 21 22  1  0
 23 19  1  0
 24 25  1  6
 24 23  1  0
 25 26  1  0
 26 27  2  0
 26 34  1  0
 27 28  1  0
 28 29  1  0
 29 30  2  0
 30 31  1  0
 32 31  2  0
 33 32  1  0
 34 33  2  0
 34 29  1  0
 35 24  1  0
 36 35  2  0
 37 35  1  0
M  END
$$$$
