HYW.pdb
     RDKit          3D

 37 40  0  0  1  0  0  0  0  0999 V2000
   10.7154  -18.4934   18.8613 N   0  0  0  0  0  0  0  0  0  0  0  0
    9.7538  -17.6462   19.5308 C   0  0  1  0  0  0  0  0  0  0  0  0
    8.4561  -17.7082   18.7944 C   0  0  0  0  0  0  0  0  0  0  0  0
    8.6321  -17.1715   17.4214 C   0  0  0  0  0  0  0  0  0  0  0  0
    8.5997  -15.8346   17.0597 C   0  0  0  0  0  0  0  0  0  0  0  0
    8.7993  -15.7536   15.7373 N   0  0  0  0  0  0  0  0  0  0  0  0
    8.9588  -16.9941   15.2372 C   0  0  0  0  0  0  0  0  0  0  0  0
    8.8550  -17.8482   16.2713 N   0  0  0  0  0  0  0  0  0  0  0  0
    9.5981  -18.0121   20.9623 C   0  0  0  0  0  0  0  0  0  0  0  0
    8.8023  -18.9199   21.2754 O   0  0  0  0  0  0  0  0  0  0  0  0
    7.7982  -11.7717   18.1437 O   0  0  0  0  0  0  0  0  0  0  0  0
    8.0391  -12.7337   19.1169 C   0  0  0  0  0  0  0  0  0  0  0  0
    6.9276  -13.4042   19.6134 C   0  0  0  0  0  0  0  0  0  0  0  0
    7.1460  -14.3587   20.5764 C   0  0  0  0  0  0  0  0  0  0  0  0
    8.3979  -14.6961   21.0839 C   0  0  0  0  0  0  0  0  0  0  0  0
    8.5981  -15.6907   22.1280 C   0  0  0  0  0  0  0  0  0  0  0  0
    9.9878  -16.0406   22.5068 C   0  0  2  0  0  0  0  0  0  0  0  0
   10.3168  -17.3721   21.9906 N   0  0  0  0  0  0  0  0  0  0  0  0
   10.3348  -16.0521   23.9246 C   0  0  0  0  0  0  0  0  0  0  0  0
   11.4108  -15.5031   24.2991 O   0  0  0  0  0  0  0  0  0  0  0  0
    9.4708  -14.0062   20.5632 C   0  0  0  0  0  0  0  0  0  0  0  0
    9.2916  -13.0421   19.5963 C   0  0  0  0  0  0  0  0  0  0  0  0
    9.5758  -16.6248   24.9790 N   0  0  0  0  0  0  0  0  0  0  0  0
   10.0385  -16.6260   26.3529 C   0  0  1  0  0  0  0  0  0  0  0  0
    8.9280  -16.3906   27.3475 C   0  0  0  0  0  0  0  0  0  0  0  0
    7.8555  -15.5190   26.8159 C   0  0  0  0  0  0  0  0  0  0  0  0
    6.6986  -15.9974   26.2251 C   0  0  0  0  0  0  0  0  0  0  0  0
    5.9834  -14.9233   25.8728 N   0  0  0  0  0  0  0  0  0  0  0  0
    6.6397  -13.7990   26.2166 C   0  0  0  0  0  0  0  0  0  0  0  0
    6.3086  -12.4744   26.0612 C   0  0  0  0  0  0  0  0  0  0  0  0
    7.1649  -11.4965   26.5049 C   0  0  0  0  0  0  0  0  0  0  0  0
    8.3595  -11.8351   27.1077 C   0  0  0  0  0  0  0  0  0  0  0  0
    8.7023  -13.1645   27.2685 C   0  0  0  0  0  0  0  0  0  0  0  0
    7.8332  -14.1404   26.8182 C   0  0  0  0  0  0  0  0  0  0  0  0
   10.7746  -17.8245   26.7553 C   0  0  0  0  0  0  0  0  0  0  0  0
   10.8338  -18.8444   25.9877 O   0  0  0  0  0  0  0  0  0  0  0  0
   11.4184  -17.8773   27.9703 O   0  0  0  0  0  0  0  0  0  0  0  0
  2  1  1  6
  2  3  1  0
  3  4  1  0
  4  8  1  0
  4  5  2  0
  5  6  1  0
  7  6  1  0
  8  7  2  0
  9  2  1  0
  9 10  2  0
 11 12  1  0
 12 22  2  0
 13 14  2  0
 13 12  1  0
 14 15  1  0
 15 21  2  0
 16 15  1  0
 17 18  1  0
 17 16  1  1
 18  9  1  0
 19 17  1  0
 20 19  2  0
 21 22  1  0
 23 19  1  0
 24 25  1  1
 24 23  1  0
 25 26  1  0
 26 27  2  0
 26 34  1  0
 27 28  1  0
 28 29  1  0
 29 30  2  0
 30 31  1  0
 32 31  2  0
 33 32  1  0
 34 33  2  0
 34 29  1  0
 35 24  1  0
 36 35  2  0
 37 35  1  0
M  END
$$$$
