HYW.pdb
     RDKit          3D

 37 40  0  0  1  0  0  0  0  0999 V2000
    7.8730  -19.0438   17.4439 N   0  0  0  0  0  0  0  0  0  0  0  0
    8.4732  -17.9233   18.1329 C   0  0  1  0  0  0  0  0  0  0  0  0
    8.1007  -16.6619   17.4254 C   0  0  0  0  0  0  0  0  0  0  0  0
    8.7336  -16.6339   16.0827 C   0  0  0  0  0  0  0  0  0  0  0  0
   10.0058  -16.1688   15.7922 C   0  0  0  0  0  0  0  0  0  0  0  0
   10.2128  -16.3101   14.4760 N   0  0  0  0  0  0  0  0  0  0  0  0
    9.1160  -16.8505   13.9111 C   0  0  0  0  0  0  0  0  0  0  0  0
    8.2229  -17.0430   14.8986 N   0  0  0  0  0  0  0  0  0  0  0  0
    8.0910  -17.8887   19.5681 C   0  0  0  0  0  0  0  0  0  0  0  0
    7.0525  -17.2868   19.9070 O   0  0  0  0  0  0  0  0  0  0  0  0
    7.9857  -20.5557   28.0954 O   0  0  0  0  0  0  0  0  0  0  0  0
    8.0494  -20.3900   26.7174 C   0  0  0  0  0  0  0  0  0  0  0  0
    9.3079  -20.4985   26.1381 C   0  0  0  0  0  0  0  0  0  0  0  0
    9.3907  -20.3375   24.7766 C   0  0  0  0  0  0  0  0  0  0  0  0
    8.3051  -20.0748   23.9453 C   0  0  0  0  0  0  0  0  0  0  0  0
    8.4255  -19.8772   22.5080 C   0  0  0  0  0  0  0  0  0  0  0  0
    8.5082  -18.4891   21.9949 C   0  0  2  0  0  0  0  0  0  0  0  0
    8.8576  -18.5117   20.5718 N   0  0  0  0  0  0  0  0  0  0  0  0
    9.4466  -17.5716   22.6340 C   0  0  0  0  0  0  0  0  0  0  0  0
   10.6829  -17.6916   22.3962 O   0  0  0  0  0  0  0  0  0  0  0  0
    7.0773  -19.9753   24.5624 C   0  0  0  0  0  0  0  0  0  0  0  0
    6.9543  -20.1308   25.9251 C   0  0  0  0  0  0  0  0  0  0  0  0
    9.1250  -16.5128   23.5235 N   0  0  0  0  0  0  0  0  0  0  0  0
   10.1420  -15.7704   24.2420 C   0  0  1  0  0  0  0  0  0  0  0  0
    9.7482  -14.3373   24.5050 C   0  0  0  0  0  0  0  0  0  0  0  0
    8.3668  -14.2065   25.0219 C   0  0  0  0  0  0  0  0  0  0  0  0
    7.5266  -15.2828   25.2502 C   0  0  0  0  0  0  0  0  0  0  0  0
    6.3770  -14.7733   25.7066 N   0  0  0  0  0  0  0  0  0  0  0  0
    6.4617  -13.4311   25.7738 C   0  0  0  0  0  0  0  0  0  0  0  0
    5.5489  -12.4858   26.1753 C   0  0  0  0  0  0  0  0  0  0  0  0
    5.8842  -11.1541   26.1504 C   0  0  0  0  0  0  0  0  0  0  0  0
    7.1352  -10.7567   25.7235 C   0  0  0  0  0  0  0  0  0  0  0  0
    8.0606  -11.6996   25.3170 C   0  0  0  0  0  0  0  0  0  0  0  0
    7.7127  -13.0370   25.3461 C   0  0  0  0  0  0  0  0  0  0  0  0
   10.5695  -16.3727   25.5048 C   0  0  0  0  0  0  0  0  0  0  0  0
   11.6047  -15.9418   26.1178 O   0  0  0  0  0  0  0  0  0  0  0  0
    9.8644  -17.4168   26.0581 O   0  0  0  0  0  0  0  0  0  0  0  0
  2  1  1  6
  2  3  1  0
  3  4  1  0
  4  8  1  0
  4  5  2  0
  5  6  1  0
  7  6  1  0
  8  7  2  0
  9  2  1  0
  9 10  2  0
 11 12  1  0
 12 22  2  0
 13 14  2  0
 13 12  1  0
 14 15  1  0
 15 21  2  0
 16 15  1  0
 17 18  1  0
 17 16  1  1
 18  9  1  0
 19 17  1  0
 20 19  2  0
 21 22  1  0
 23 19  1  0
 24 25  1  1
 24 23  1  0
 25 26  1  0
 26 27  2  0
 26 34  1  0
 27 28  1  0
 28 29  1  0
 29 30  2  0
 30 31  1  0
 32 31  2  0
 33 32  1  0
 34 33  2  0
 34 29  1  0
 35 24  1  0
 36 35  2  0
 37 35  1  0
M  END
$$$$
