HYW.pdb
     RDKit          3D

 37 40  0  0  1  0  0  0  0  0999 V2000
    9.2518  -19.1144   19.3465 N   0  0  0  0  0  0  0  0  0  0  0  0
    8.6731  -18.6924   20.6025 C   0  0  1  0  0  0  0  0  0  0  0  0
    8.7889  -19.8071   21.5896 C   0  0  0  0  0  0  0  0  0  0  0  0
    7.8601  -20.9044   21.2188 C   0  0  0  0  0  0  0  0  0  0  0  0
    7.0662  -20.9501   20.0844 C   0  0  0  0  0  0  0  0  0  0  0  0
    6.3728  -22.0964   20.1046 N   0  0  0  0  0  0  0  0  0  0  0  0
    6.6948  -22.7887   21.2142 C   0  0  0  0  0  0  0  0  0  0  0  0
    7.6004  -22.0533   21.8841 N   0  0  0  0  0  0  0  0  0  0  0  0
    9.2952  -17.4399   21.1038 C   0  0  0  0  0  0  0  0  0  0  0  0
   10.4864  -17.1978   20.8245 O   0  0  0  0  0  0  0  0  0  0  0  0
    7.3476  -13.0854   16.4717 O   0  0  0  0  0  0  0  0  0  0  0  0
    7.5183  -13.3684   17.8212 C   0  0  0  0  0  0  0  0  0  0  0  0
    8.4780  -12.6217   18.4940 C   0  0  0  0  0  0  0  0  0  0  0  0
    8.6611  -12.8876   19.8290 C   0  0  0  0  0  0  0  0  0  0  0  0
    7.9539  -13.8483   20.5468 C   0  0  0  0  0  0  0  0  0  0  0  0
    8.1900  -14.1317   21.9551 C   0  0  0  0  0  0  0  0  0  0  0  0
    9.1427  -15.2124   22.3035 C   0  0  2  0  0  0  0  0  0  0  0  0
    8.5917  -16.5053   21.8880 N   0  0  0  0  0  0  0  0  0  0  0  0
    9.5349  -15.3629   23.7014 C   0  0  0  0  0  0  0  0  0  0  0  0
   10.1594  -14.4216   24.2700 O   0  0  0  0  0  0  0  0  0  0  0  0
    7.0130  -14.5646   19.8397 C   0  0  0  0  0  0  0  0  0  0  0  0
    6.8008  -14.3267   18.5001 C   0  0  0  0  0  0  0  0  0  0  0  0
    9.2849  -16.4835   24.5366 N   0  0  0  0  0  0  0  0  0  0  0  0
    9.7901  -16.5653   25.8930 C   0  0  1  0  0  0  0  0  0  0  0  0
    8.6951  -16.5330   26.9312 C   0  0  0  0  0  0  0  0  0  0  0  0
    7.7032  -15.4609   26.6872 C   0  0  0  0  0  0  0  0  0  0  0  0
    6.4165  -15.6934   26.2325 C   0  0  0  0  0  0  0  0  0  0  0  0
    5.8299  -14.4954   26.1326 N   0  0  0  0  0  0  0  0  0  0  0  0
    6.6899  -13.5282   26.5040 C   0  0  0  0  0  0  0  0  0  0  0  0
    6.5444  -12.1633   26.5671 C   0  0  0  0  0  0  0  0  0  0  0  0
    7.5919  -11.3802   26.9867 C   0  0  0  0  0  0  0  0  0  0  0  0
    8.7937  -11.9557   27.3467 C   0  0  0  0  0  0  0  0  0  0  0  0
    8.9507  -13.3278   27.2864 C   0  0  0  0  0  0  0  0  0  0  0  0
    7.8900  -14.1062   26.8627 C   0  0  0  0  0  0  0  0  0  0  0  0
   10.6506  -17.7172   26.1628 C   0  0  0  0  0  0  0  0  0  0  0  0
   10.8137  -18.6318   25.2854 O   0  0  0  0  0  0  0  0  0  0  0  0
   11.3019  -17.8388   27.3688 O   0  0  0  0  0  0  0  0  0  0  0  0
  2  1  1  6
  2  3  1  0
  3  4  1  0
  4  8  1  0
  4  5  2  0
  5  6  1  0
  7  6  1  0
  8  7  2  0
  9  2  1  0
  9 10  2  0
 11 12  1  0
 12 22  2  0
 13 14  2  0
 13 12  1  0
 14 15  1  0
 15 21  2  0
 16 15  1  0
 17 18  1  0
 17 16  1  1
 18  9  1  0
 19 17  1  0
 20 19  2  0
 21 22  1  0
 23 19  1  0
 24 25  1  1
 24 23  1  0
 25 26  1  0
 26 27  2  0
 26 34  1  0
 27 28  1  0
 28 29  1  0
 29 30  2  0
 30 31  1  0
 32 31  2  0
 33 32  1  0
 34 33  2  0
 34 29  1  0
 35 24  1  0
 36 35  2  0
 37 35  1  0
M  END
$$$$
