HYW.pdb
     RDKit          3D

 37 40  0  0  1  0  0  0  0  0999 V2000
   10.1343  -19.1110   19.6267 N   0  0  0  0  0  0  0  0  0  0  0  0
    9.3207  -18.6805   20.7417 C   0  0  1  0  0  0  0  0  0  0  0  0
    9.2187  -19.7970   21.7283 C   0  0  0  0  0  0  0  0  0  0  0  0
    8.2938  -20.8383   21.2139 C   0  0  0  0  0  0  0  0  0  0  0  0
    7.5588  -20.7668   20.0417 C   0  0  0  0  0  0  0  0  0  0  0  0
    6.8482  -21.8964   19.9235 N   0  0  0  0  0  0  0  0  0  0  0  0
    7.1020  -22.6914   20.9808 C   0  0  0  0  0  0  0  0  0  0  0  0
    7.9829  -22.0369   21.7588 N   0  0  0  0  0  0  0  0  0  0  0  0
    9.8477  -17.4377   21.3622 C   0  0  0  0  0  0  0  0  0  0  0  0
   11.0663  -17.1856   21.2795 O   0  0  0  0  0  0  0  0  0  0  0  0
    7.4064  -13.3061   16.7410 O   0  0  0  0  0  0  0  0  0  0  0  0
    7.7312  -13.5158   18.0755 C   0  0  0  0  0  0  0  0  0  0  0  0
    6.6900  -13.8951   18.9141 C   0  0  0  0  0  0  0  0  0  0  0  0
    6.9919  -14.1067   20.2372 C   0  0  0  0  0  0  0  0  0  0  0  0
    8.2626  -13.9673   20.7889 C   0  0  0  0  0  0  0  0  0  0  0  0
    8.5492  -14.1674   22.2022 C   0  0  0  0  0  0  0  0  0  0  0  0
    9.4956  -15.2435   22.5809 C   0  0  2  0  0  0  0  0  0  0  0  0
    9.0231  -16.5235   22.0461 N   0  0  0  0  0  0  0  0  0  0  0  0
    9.7594  -15.4631   23.9997 C   0  0  0  0  0  0  0  0  0  0  0  0
   10.3477  -14.5611   24.6629 O   0  0  0  0  0  0  0  0  0  0  0  0
    9.2639  -13.5897   19.9211 C   0  0  0  0  0  0  0  0  0  0  0  0
    9.0000  -13.3685   18.5878 C   0  0  0  0  0  0  0  0  0  0  0  0
    9.4163  -16.6132   24.7582 N   0  0  0  0  0  0  0  0  0  0  0  0
    9.7508  -16.7414   26.1629 C   0  0  1  0  0  0  0  0  0  0  0  0
    8.5425  -16.6661   27.0643 C   0  0  0  0  0  0  0  0  0  0  0  0
    7.5807  -15.6193   26.6498 C   0  0  0  0  0  0  0  0  0  0  0  0
    6.4018  -15.8831   25.9739 C   0  0  0  0  0  0  0  0  0  0  0  0
    5.8096  -14.7005   25.7734 N   0  0  0  0  0  0  0  0  0  0  0  0
    6.5636  -13.7130   26.2927 C   0  0  0  0  0  0  0  0  0  0  0  0
    6.3721  -12.3529   26.3310 C   0  0  0  0  0  0  0  0  0  0  0  0
    7.3069  -11.5449   26.9308 C   0  0  0  0  0  0  0  0  0  0  0  0
    8.4412  -12.0905   27.4973 C   0  0  0  0  0  0  0  0  0  0  0  0
    8.6437  -13.4575   27.4638 C   0  0  0  0  0  0  0  0  0  0  0  0
    7.6965  -14.2612   26.8576 C   0  0  0  0  0  0  0  0  0  0  0  0
   10.5130  -17.9412   26.5090 C   0  0  0  0  0  0  0  0  0  0  0  0
   10.7761  -18.8265   25.6258 O   0  0  0  0  0  0  0  0  0  0  0  0
   10.9619  -18.1404   27.7943 O   0  0  0  0  0  0  0  0  0  0  0  0
  2  1  1  6
  2  3  1  0
  3  4  1  0
  4  8  1  0
  4  5  2  0
  5  6  1  0
  7  6  1  0
  8  7  2  0
  9  2  1  0
  9 10  2  0
 11 12  1  0
 12 22  2  0
 13 14  2  0
 13 12  1  0
 14 15  1  0
 15 21  2  0
 16 15  1  0
 17 18  1  0
 17 16  1  1
 18  9  1  0
 19 17  1  0
 20 19  2  0
 21 22  1  0
 23 19  1  0
 24 25  1  1
 24 23  1  0
 25 26  1  0
 26 27  2  0
 26 34  1  0
 27 28  1  0
 28 29  1  0
 29 30  2  0
 30 31  1  0
 32 31  2  0
 33 32  1  0
 34 33  2  0
 34 29  1  0
 35 24  1  0
 36 35  2  0
 37 35  1  0
M  END
$$$$
