HYW.pdb
     RDKit          3D

 37 40  0  0  1  0  0  0  0  0999 V2000
    7.1660  -17.0165   18.6376 N   0  0  0  0  0  0  0  0  0  0  0  0
    7.9032  -16.1836   19.5614 C   0  0  1  0  0  0  0  0  0  0  0  0
    7.4637  -14.7661   19.3943 C   0  0  0  0  0  0  0  0  0  0  0  0
    7.8411  -14.2795   18.0434 C   0  0  0  0  0  0  0  0  0  0  0  0
    7.5419  -13.0348   17.5137 C   0  0  0  0  0  0  0  0  0  0  0  0
    8.0520  -12.9728   16.2763 N   0  0  0  0  0  0  0  0  0  0  0  0
    8.6690  -14.1362   15.9933 C   0  0  0  0  0  0  0  0  0  0  0  0
    8.5339  -14.9231   17.0760 N   0  0  0  0  0  0  0  0  0  0  0  0
    7.7544  -16.6495   20.9642 C   0  0  0  0  0  0  0  0  0  0  0  0
    6.6900  -16.4199   21.5721 O   0  0  0  0  0  0  0  0  0  0  0  0
    9.0741  -22.1168   27.9074 O   0  0  0  0  0  0  0  0  0  0  0  0
    9.0860  -21.4199   26.7054 C   0  0  0  0  0  0  0  0  0  0  0  0
    7.8523  -21.2007   26.1044 C   0  0  0  0  0  0  0  0  0  0  0  0
    7.8441  -20.5136   24.9152 C   0  0  0  0  0  0  0  0  0  0  0  0
    8.9816  -20.0260   24.2774 C   0  0  0  0  0  0  0  0  0  0  0  0
    8.9475  -19.3277   23.0005 C   0  0  0  0  0  0  0  0  0  0  0  0
    8.6279  -17.8803   23.0004 C   0  0  2  0  0  0  0  0  0  0  0  0
    8.7729  -17.3456   21.6436 N   0  0  0  0  0  0  0  0  0  0  0  0
    9.4016  -17.0024   23.8730 C   0  0  0  0  0  0  0  0  0  0  0  0
   10.5820  -16.6911   23.5424 O   0  0  0  0  0  0  0  0  0  0  0  0
   10.1824  -20.2664   24.9087 C   0  0  0  0  0  0  0  0  0  0  0  0
   10.2309  -20.9517   26.1022 C   0  0  0  0  0  0  0  0  0  0  0  0
    8.9690  -16.4273   25.0969 N   0  0  0  0  0  0  0  0  0  0  0  0
    9.8939  -15.8324   26.0415 C   0  0  1  0  0  0  0  0  0  0  0  0
    9.6103  -14.3731   26.3024 C   0  0  0  0  0  0  0  0  0  0  0  0
    8.1946  -14.0109   26.0628 C   0  0  0  0  0  0  0  0  0  0  0  0
    7.1845  -14.9394   25.8788 C   0  0  0  0  0  0  0  0  0  0  0  0
    6.0598  -14.2403   25.6896 N   0  0  0  0  0  0  0  0  0  0  0  0
    6.3217  -12.9207   25.7477 C   0  0  0  0  0  0  0  0  0  0  0  0
    5.4990  -11.8282   25.6146 C   0  0  0  0  0  0  0  0  0  0  0  0
    6.0191  -10.5611   25.7171 C   0  0  0  0  0  0  0  0  0  0  0  0
    7.3663  -10.3761   25.9535 C   0  0  0  0  0  0  0  0  0  0  0  0
    8.2026  -11.4683   26.0886 C   0  0  0  0  0  0  0  0  0  0  0  0
    7.6687  -12.7389   25.9836 C   0  0  0  0  0  0  0  0  0  0  0  0
    9.9918  -16.5225   27.3277 C   0  0  0  0  0  0  0  0  0  0  0  0
    9.1169  -17.3870   27.6745 O   0  0  0  0  0  0  0  0  0  0  0  0
   11.0293  -16.2537   28.1907 O   0  0  0  0  0  0  0  0  0  0  0  0
  2  1  1  6
  2  3  1  0
  3  4  1  0
  4  8  1  0
  4  5  2  0
  5  6  1  0
  7  6  1  0
  8  7  2  0
  9  2  1  0
  9 10  2  0
 11 12  1  0
 12 22  2  0
 13 14  2  0
 13 12  1  0
 14 15  1  0
 15 21  2  0
 16 15  1  0
 17 18  1  0
 17 16  1  6
 18  9  1  0
 19 17  1  0
 20 19  2  0
 21 22  1  0
 23 19  1  0
 24 25  1  1
 24 23  1  0
 25 26  1  0
 26 27  2  0
 26 34  1  0
 27 28  1  0
 28 29  1  0
 29 30  2  0
 30 31  1  0
 32 31  2  0
 33 32  1  0
 34 33  2  0
 34 29  1  0
 35 24  1  0
 36 35  2  0
 37 35  1  0
M  END
$$$$
