HYW.pdb
     RDKit          3D

 37 40  0  0  1  0  0  0  0  0999 V2000
    9.1191  -16.4768   19.0451 N   0  0  0  0  0  0  0  0  0  0  0  0
    8.3730  -15.5157   19.8261 C   0  0  1  0  0  0  0  0  0  0  0  0
    7.1960  -15.0531   19.0318 C   0  0  0  0  0  0  0  0  0  0  0  0
    7.6486  -14.5513   17.7098 C   0  0  0  0  0  0  0  0  0  0  0  0
    8.1115  -13.2739   17.4392 C   0  0  0  0  0  0  0  0  0  0  0  0
    8.4235  -13.2086   16.1378 N   0  0  0  0  0  0  0  0  0  0  0  0
    8.1765  -14.4016   15.5632 C   0  0  0  0  0  0  0  0  0  0  0  0
    7.7053  -15.2102   16.5296 N   0  0  0  0  0  0  0  0  0  0  0  0
    7.9702  -16.0693   21.1446 C   0  0  0  0  0  0  0  0  0  0  0  0
    7.2025  -15.4094   21.8730 O   0  0  0  0  0  0  0  0  0  0  0  0
    7.8658  -21.9369   27.9382 O   0  0  0  0  0  0  0  0  0  0  0  0
    7.8991  -21.2924   26.7077 C   0  0  0  0  0  0  0  0  0  0  0  0
    9.1546  -21.0959   26.1454 C   0  0  0  0  0  0  0  0  0  0  0  0
    9.2076  -20.4601   24.9291 C   0  0  0  0  0  0  0  0  0  0  0  0
    8.0948  -20.0032   24.2281 C   0  0  0  0  0  0  0  0  0  0  0  0
    8.1815  -19.3038   22.9542 C   0  0  0  0  0  0  0  0  0  0  0  0
    8.1689  -17.8217   22.9650 C   0  0  2  0  0  0  0  0  0  0  0  0
    8.4219  -17.3187   21.6120 N   0  0  0  0  0  0  0  0  0  0  0  0
    9.1075  -17.1296   23.8430 C   0  0  0  0  0  0  0  0  0  0  0  0
   10.3103  -16.9968   23.4752 O   0  0  0  0  0  0  0  0  0  0  0  0
    6.8710  -20.2192   24.8230 C   0  0  0  0  0  0  0  0  0  0  0  0
    6.7776  -20.8532   26.0419 C   0  0  0  0  0  0  0  0  0  0  0  0
    8.8200  -16.5591   25.1109 N   0  0  0  0  0  0  0  0  0  0  0  0
    9.8463  -15.9561   25.9383 C   0  0  1  0  0  0  0  0  0  0  0  0
    9.5415  -14.5234   26.3023 C   0  0  0  0  0  0  0  0  0  0  0  0
    8.0936  -14.2159   26.2624 C   0  0  0  0  0  0  0  0  0  0  0  0
    7.1031  -15.1826   26.2375 C   0  0  0  0  0  0  0  0  0  0  0  0
    5.9375  -14.5271   26.2012 N   0  0  0  0  0  0  0  0  0  0  0  0
    6.1553  -13.1983   26.2028 C   0  0  0  0  0  0  0  0  0  0  0  0
    5.2817  -12.1381   26.1732 C   0  0  0  0  0  0  0  0  0  0  0  0
    5.7632  -10.8518   26.1826 C   0  0  0  0  0  0  0  0  0  0  0  0
    7.1224  -10.6151   26.2217 C   0  0  0  0  0  0  0  0  0  0  0  0
    8.0098  -11.6745   26.2511 C   0  0  0  0  0  0  0  0  0  0  0  0
    7.5144  -12.9649   26.2413 C   0  0  0  0  0  0  0  0  0  0  0  0
   10.1602  -16.6891   27.1649 C   0  0  0  0  0  0  0  0  0  0  0  0
    9.3868  -17.6129   27.5909 O   0  0  0  0  0  0  0  0  0  0  0  0
   11.2958  -16.3975   27.8851 O   0  0  0  0  0  0  0  0  0  0  0  0
  2  1  1  6
  2  3  1  0
  3  4  1  0
  4  8  1  0
  4  5  2  0
  5  6  1  0
  7  6  1  0
  8  7  2  0
  9  2  1  0
  9 10  2  0
 11 12  1  0
 12 22  2  0
 13 14  2  0
 13 12  1  0
 14 15  1  0
 15 21  2  0
 16 15  1  0
 17 18  1  0
 17 16  1  6
 18  9  1  0
 19 17  1  0
 20 19  2  0
 21 22  1  0
 23 19  1  0
 24 25  1  1
 24 23  1  0
 25 26  1  0
 26 27  2  0
 26 34  1  0
 27 28  1  0
 28 29  1  0
 29 30  2  0
 30 31  1  0
 32 31  2  0
 33 32  1  0
 34 33  2  0
 34 29  1  0
 35 24  1  0
 36 35  2  0
 37 35  1  0
M  END
$$$$
