HYW.pdb
     RDKit          3D

 37 40  0  0  1  0  0  0  0  0999 V2000
    9.4609  -21.2691   19.0890 N   0  0  0  0  0  0  0  0  0  0  0  0
   10.3562  -20.8486   20.1437 C   0  0  1  0  0  0  0  0  0  0  0  0
   11.6653  -21.5476   19.9770 C   0  0  0  0  0  0  0  0  0  0  0  0
   11.4548  -23.0172   19.9897 C   0  0  0  0  0  0  0  0  0  0  0  0
   11.1176  -23.7816   21.0948 C   0  0  0  0  0  0  0  0  0  0  0  0
   11.0161  -25.0594   20.7049 N   0  0  0  0  0  0  0  0  0  0  0  0
   11.2769  -25.1416   19.3860 C   0  0  0  0  0  0  0  0  0  0  0  0
   11.5423  -23.8928   18.9621 N   0  0  0  0  0  0  0  0  0  0  0  0
   10.5154  -19.3719   20.1766 C   0  0  0  0  0  0  0  0  0  0  0  0
   11.4108  -18.8408   19.4899 O   0  0  0  0  0  0  0  0  0  0  0  0
    7.6574  -10.9665   20.1307 O   0  0  0  0  0  0  0  0  0  0  0  0
    7.8336  -12.3377   20.2698 C   0  0  0  0  0  0  0  0  0  0  0  0
    8.3556  -13.0096   19.1710 C   0  0  0  0  0  0  0  0  0  0  0  0
    8.5367  -14.3659   19.2896 C   0  0  0  0  0  0  0  0  0  0  0  0
    8.2342  -15.1059   20.4295 C   0  0  0  0  0  0  0  0  0  0  0  0
    8.4068  -16.5488   20.5177 C   0  0  0  0  0  0  0  0  0  0  0  0
    9.7364  -17.0740   20.9092 C   0  0  2  0  0  0  0  0  0  0  0  0
    9.6913  -18.5380   20.9570 N   0  0  0  0  0  0  0  0  0  0  0  0
   10.3033  -16.6385   22.1819 C   0  0  0  0  0  0  0  0  0  0  0  0
   11.0330  -15.6059   22.2092 O   0  0  0  0  0  0  0  0  0  0  0  0
    7.7190  -14.3990   21.4940 C   0  0  0  0  0  0  0  0  0  0  0  0
    7.5232  -13.0383   21.4129 C   0  0  0  0  0  0  0  0  0  0  0  0
   10.1226  -17.2571   23.4470 N   0  0  0  0  0  0  0  0  0  0  0  0
    9.9229  -16.4908   24.6613 C   0  0  1  0  0  0  0  0  0  0  0  0
    8.7246  -15.5760   24.5889 C   0  0  0  0  0  0  0  0  0  0  0  0
    8.5645  -14.7416   25.8017 C   0  0  0  0  0  0  0  0  0  0  0  0
    9.3823  -14.8384   26.9145 C   0  0  0  0  0  0  0  0  0  0  0  0
    8.9300  -13.9376   27.7940 N   0  0  0  0  0  0  0  0  0  0  0  0
    7.8700  -13.2843   27.2814 C   0  0  0  0  0  0  0  0  0  0  0  0
    7.0822  -12.2873   27.8043 C   0  0  0  0  0  0  0  0  0  0  0  0
    6.0410  -11.7779   27.0674 C   0  0  0  0  0  0  0  0  0  0  0  0
    5.7790  -12.2615   25.8015 C   0  0  0  0  0  0  0  0  0  0  0  0
    6.5651  -13.2647   25.2664 C   0  0  0  0  0  0  0  0  0  0  0  0
    7.6102  -13.7700   26.0166 C   0  0  0  0  0  0  0  0  0  0  0  0
    9.8249  -17.2870   25.8847 C   0  0  0  0  0  0  0  0  0  0  0  0
    9.2580  -18.4322   25.8762 O   0  0  0  0  0  0  0  0  0  0  0  0
   10.3416  -16.8174   27.0704 O   0  0  0  0  0  0  0  0  0  0  0  0
  2  1  1  6
  2  3  1  0
  3  4  1  0
  4  8  1  0
  4  5  2  0
  5  6  1  0
  7  6  1  0
  8  7  2  0
  9  2  1  0
  9 10  2  0
 11 12  1  0
 12 22  2  0
 13 14  2  0
 13 12  1  0
 14 15  1  0
 15 21  2  0
 16 15  1  0
 17 18  1  0
 17 16  1  1
 18  9  1  0
 19 17  1  0
 20 19  2  0
 21 22  1  0
 23 19  1  0
 24 25  1  6
 24 23  1  0
 25 26  1  0
 26 27  2  0
 26 34  1  0
 27 28  1  0
 28 29  1  0
 29 30  2  0
 30 31  1  0
 32 31  2  0
 33 32  1  0
 34 33  2  0
 34 29  1  0
 35 24  1  0
 36 35  2  0
 37 35  1  0
M  END
$$$$
