HYW.pdb
     RDKit          3D

 37 40  0  0  1  0  0  0  0  0999 V2000
   10.9224  -17.3818   19.8632 N   0  0  0  0  0  0  0  0  0  0  0  0
   10.4950  -16.4016   20.8364 C   0  0  1  0  0  0  0  0  0  0  0  0
    9.0380  -16.1332   20.6480 C   0  0  0  0  0  0  0  0  0  0  0  0
    8.8480  -15.1275   19.5724 C   0  0  0  0  0  0  0  0  0  0  0  0
    9.5216  -13.9224   19.4568 C   0  0  0  0  0  0  0  0  0  0  0  0
    9.0756  -13.2972   18.3589 N   0  0  0  0  0  0  0  0  0  0  0  0
    8.1380  -14.0604   17.7652 C   0  0  0  0  0  0  0  0  0  0  0  0
    8.0082  -15.1714   18.5127 N   0  0  0  0  0  0  0  0  0  0  0  0
   10.8057  -16.8301   22.2245 C   0  0  0  0  0  0  0  0  0  0  0  0
   10.9579  -18.0440   22.4672 O   0  0  0  0  0  0  0  0  0  0  0  0
   11.4146  -15.7482   31.1518 O   0  0  0  0  0  0  0  0  0  0  0  0
   11.3915  -15.5835   29.7724 C   0  0  0  0  0  0  0  0  0  0  0  0
   12.0832  -16.5285   29.0242 C   0  0  0  0  0  0  0  0  0  0  0  0
   12.0720  -16.3820   27.6587 C   0  0  0  0  0  0  0  0  0  0  0  0
   11.4181  -15.3570   26.9801 C   0  0  0  0  0  0  0  0  0  0  0  0
   11.4484  -15.2073   25.5323 C   0  0  0  0  0  0  0  0  0  0  0  0
   10.8903  -16.3008   24.7018 C   0  0  2  0  0  0  0  0  0  0  0  0
   10.9371  -15.9165   23.2883 N   0  0  0  0  0  0  0  0  0  0  0  0
    9.5223  -16.7375   24.9639 C   0  0  0  0  0  0  0  0  0  0  0  0
    9.2295  -17.1900   26.1080 O   0  0  0  0  0  0  0  0  0  0  0  0
   10.7457  -14.4431   27.7616 C   0  0  0  0  0  0  0  0  0  0  0  0
   10.7341  -14.5568   29.1340 C   0  0  0  0  0  0  0  0  0  0  0  0
    8.4338  -16.7096   24.0528 N   0  0  0  0  0  0  0  0  0  0  0  0
    7.0882  -17.0811   24.4439 C   0  0  1  0  0  0  0  0  0  0  0  0
    6.0426  -16.1142   23.9442 C   0  0  0  0  0  0  0  0  0  0  0  0
    6.4698  -14.7003   24.0502 C   0  0  0  0  0  0  0  0  0  0  0  0
    7.0329  -13.9874   23.0057 C   0  0  0  0  0  0  0  0  0  0  0  0
    7.2860  -12.7621   23.4790 N   0  0  0  0  0  0  0  0  0  0  0  0
    6.9066  -12.6781   24.7683 C   0  0  0  0  0  0  0  0  0  0  0  0
    6.9665  -11.6371   25.6632 C   0  0  0  0  0  0  0  0  0  0  0  0
    6.5057  -11.8076   26.9458 C   0  0  0  0  0  0  0  0  0  0  0  0
    5.9813  -13.0206   27.3441 C   0  0  0  0  0  0  0  0  0  0  0  0
    5.9170  -14.0744   26.4519 C   0  0  0  0  0  0  0  0  0  0  0  0
    6.3836  -13.8918   25.1637 C   0  0  0  0  0  0  0  0  0  0  0  0
    6.6864  -18.4354   24.0636 C   0  0  0  0  0  0  0  0  0  0  0  0
    7.4130  -19.1379   23.2816 O   0  0  0  0  0  0  0  0  0  0  0  0
    5.5164  -18.9800   24.5409 O   0  0  0  0  0  0  0  0  0  0  0  0
  2  1  1  6
  2  3  1  0
  3  4  1  0
  4  8  1  0
  4  5  2  0
  5  6  1  0
  7  6  1  0
  8  7  2  0
  9  2  1  0
  9 10  2  0
 11 12  1  0
 12 22  2  0
 13 14  2  0
 13 12  1  0
 14 15  1  0
 15 21  2  0
 16 15  1  0
 17 18  1  0
 17 16  1  1
 18  9  1  0
 19 17  1  0
 20 19  2  0
 21 22  1  0
 23 19  1  0
 24 25  1  6
 24 23  1  0
 25 26  1  0
 26 27  2  0
 26 34  1  0
 27 28  1  0
 28 29  1  0
 29 30  2  0
 30 31  1  0
 32 31  2  0
 33 32  1  0
 34 33  2  0
 34 29  1  0
 35 24  1  0
 36 35  2  0
 37 35  1  0
M  END
$$$$
