HYW.pdb
     RDKit          3D

 37 40  0  0  1  0  0  0  0  0999 V2000
    8.5100  -16.8492   18.7576 N   0  0  0  0  0  0  0  0  0  0  0  0
    8.5555  -15.8546   19.8060 C   0  0  1  0  0  0  0  0  0  0  0  0
    7.5006  -14.8292   19.5488 C   0  0  0  0  0  0  0  0  0  0  0  0
    7.7217  -14.2040   18.2205 C   0  0  0  0  0  0  0  0  0  0  0  0
    8.4892  -13.0786   17.9682 C   0  0  0  0  0  0  0  0  0  0  0  0
    8.4446  -12.8276   16.6529 N   0  0  0  0  0  0  0  0  0  0  0  0
    7.6740  -13.7542   16.0515 C   0  0  0  0  0  0  0  0  0  0  0  0
    7.2398  -14.5861   17.0155 N   0  0  0  0  0  0  0  0  0  0  0  0
    8.4190  -16.4659   21.1531 C   0  0  0  0  0  0  0  0  0  0  0  0
    7.2873  -16.5542   21.6697 O   0  0  0  0  0  0  0  0  0  0  0  0
    8.1481  -22.4700   19.0804 O   0  0  0  0  0  0  0  0  0  0  0  0
    8.6494  -21.6015   20.0420 C   0  0  0  0  0  0  0  0  0  0  0  0
    7.9882  -21.5823   21.2642 C   0  0  0  0  0  0  0  0  0  0  0  0
    8.4693  -20.7296   22.2274 C   0  0  0  0  0  0  0  0  0  0  0  0
    9.5673  -19.8899   22.0612 C   0  0  0  0  0  0  0  0  0  0  0  0
   10.0376  -18.9722   23.0889 C   0  0  0  0  0  0  0  0  0  0  0  0
    9.4099  -17.6321   23.1736 C   0  0  2  0  0  0  0  0  0  0  0  0
    9.5226  -16.9545   21.8790 N   0  0  0  0  0  0  0  0  0  0  0  0
    9.9144  -16.6953   24.1730 C   0  0  0  0  0  0  0  0  0  0  0  0
    9.7626  -15.4540   23.9848 O   0  0  0  0  0  0  0  0  0  0  0  0
   10.1918  -19.9418   20.8341 C   0  0  0  0  0  0  0  0  0  0  0  0
    9.7386  -20.7840   19.8434 C   0  0  0  0  0  0  0  0  0  0  0  0
   10.5781  -17.0235   25.3845 N   0  0  0  0  0  0  0  0  0  0  0  0
   10.0953  -16.5771   26.6764 C   0  0  1  0  0  0  0  0  0  0  0  0
    8.6409  -16.9081   26.9070 C   0  0  0  0  0  0  0  0  0  0  0  0
    7.7294  -15.8237   26.4760 C   0  0  0  0  0  0  0  0  0  0  0  0
    6.6598  -16.0144   25.6181 C   0  0  0  0  0  0  0  0  0  0  0  0
    6.0825  -14.8176   25.4636 N   0  0  0  0  0  0  0  0  0  0  0  0
    6.7415  -13.8910   26.1849 C   0  0  0  0  0  0  0  0  0  0  0  0
    6.5250  -12.5430   26.3403 C   0  0  0  0  0  0  0  0  0  0  0  0
    7.3548  -11.8033   27.1470 C   0  0  0  0  0  0  0  0  0  0  0  0
    8.4081  -12.4056   27.8050 C   0  0  0  0  0  0  0  0  0  0  0  0
    8.6349  -13.7609   27.6551 C   0  0  0  0  0  0  0  0  0  0  0  0
    7.7937  -14.4957   26.8409 C   0  0  0  0  0  0  0  0  0  0  0  0
   10.8670  -17.0564   27.8231 C   0  0  0  0  0  0  0  0  0  0  0  0
   11.4783  -18.1777   27.7777 O   0  0  0  0  0  0  0  0  0  0  0  0
   10.9495  -16.3083   28.9751 O   0  0  0  0  0  0  0  0  0  0  0  0
  2  1  1  6
  2  3  1  0
  3  4  1  0
  4  8  1  0
  4  5  2  0
  5  6  1  0
  7  6  1  0
  8  7  2  0
  9  2  1  0
  9 10  2  0
 11 12  1  0
 12 22  2  0
 13 14  2  0
 13 12  1  0
 14 15  1  0
 15 21  2  0
 16 15  1  0
 17 18  1  0
 17 16  1  6
 18  9  1  0
 19 17  1  0
 20 19  2  0
 21 22  1  0
 23 19  1  0
 24 25  1  1
 24 23  1  0
 25 26  1  0
 26 27  2  0
 26 34  1  0
 27 28  1  0
 28 29  1  0
 29 30  2  0
 30 31  1  0
 32 31  2  0
 33 32  1  0
 34 33  2  0
 34 29  1  0
 35 24  1  0
 36 35  2  0
 37 35  1  0
M  END
$$$$
