ATF.pdb
     RDKit          3D

 24 24  0  0  1  0  0  0  0  0999 V2000
   10.3772  -18.1853   18.5365 C   0  0  0  0  0  0  0  0  0  0  0  0
   10.1772  -18.2985   20.0292 C   0  0  2  0  0  0  0  0  0  0  0  0
    9.0693  -19.1748   20.3301 N   0  0  0  0  0  0  0  0  0  0  0  0
   10.0507  -16.9781   20.6898 C   0  0  0  0  0  0  0  0  0  0  0  0
   10.9928  -16.1695   20.5368 O   0  0  0  0  0  0  0  0  0  0  0  0
    6.8923  -14.5148   20.5615 C   0  0  0  0  0  0  0  0  0  0  0  0
    7.2974  -14.8518   21.9806 C   0  0  1  0  0  0  0  0  0  0  0  0
    6.4280  -15.8763   22.3986 O   0  0  0  0  0  0  0  0  0  0  0  0
    8.7002  -15.3300   22.0696 C   0  0  2  0  0  0  0  0  0  0  0  0
    8.9101  -16.6250   21.4715 N   0  0  0  0  0  0  0  0  0  0  0  0
    9.2622  -15.3213   23.4441 C   0  0  0  0  0  0  0  0  0  0  0  0
   10.3643  -14.7632   23.6322 O   0  0  0  0  0  0  0  0  0  0  0  0
    8.6170  -15.9097   24.5473 N   0  0  0  0  0  0  0  0  0  0  0  0
    9.0632  -15.9431   25.9113 C   0  0  1  0  0  0  0  0  0  0  0  0
    8.0305  -15.5181   26.8834 C   0  0  0  0  0  0  0  0  0  0  0  0
    7.6575  -14.1012   26.7478 C   0  0  0  0  0  0  0  0  0  0  0  0
    6.3346  -13.7502   26.4727 C   0  0  0  0  0  0  0  0  0  0  0  0
    5.9348  -12.4326   26.3629 C   0  0  0  0  0  0  0  0  0  0  0  0
    6.8392  -11.4084   26.5233 C   0  0  0  0  0  0  0  0  0  0  0  0
    8.1462  -11.7350   26.7946 C   0  0  0  0  0  0  0  0  0  0  0  0
    8.5268  -13.0501   26.9005 C   0  0  0  0  0  0  0  0  0  0  0  0
    9.7670  -17.1922   26.2899 C   0  0  0  0  0  0  0  0  0  0  0  0
    9.6716  -18.1808   25.4899 O   0  0  0  0  0  0  0  0  0  0  0  0
   10.5168  -17.3604   27.4403 O   0  0  0  0  0  0  0  0  0  0  0  0
  2  4  1  0
  2  3  1  0
  2  1  1  6
  4  5  2  0
  7  6  1  6
  7  9  1  0
  8  7  1  0
  9 11  1  0
  9 10  1  1
 10  4  1  0
 11 12  2  0
 11 13  1  0
 13 14  1  0
 14 22  1  0
 14 15  1  1
 16 15  1  0
 16 21  2  0
 17 16  1  0
 18 17  2  0
 18 19  1  0
 19 20  2  0
 20 21  1  0
 22 23  2  0
 22 24  1  0
M  END
$$$$
