ATF.pdb
     RDKit          3D

 24 24  0  0  1  0  0  0  0  0999 V2000
    7.5129  -12.5435   19.0403 C   0  0  0  0  0  0  0  0  0  0  0  0
    8.6643  -13.4267   19.4586 C   0  0  2  0  0  0  0  0  0  0  0  0
    9.1147  -14.2361   18.3504 N   0  0  0  0  0  0  0  0  0  0  0  0
    8.3559  -14.2348   20.6618 C   0  0  0  0  0  0  0  0  0  0  0  0
    7.8367  -13.6403   21.6323 O   0  0  0  0  0  0  0  0  0  0  0  0
    7.3584  -18.1927   20.2587 C   0  0  0  0  0  0  0  0  0  0  0  0
    8.2100  -17.9270   21.4817 C   0  0  1  0  0  0  0  0  0  0  0  0
    9.5041  -18.3744   21.1571 O   0  0  0  0  0  0  0  0  0  0  0  0
    8.2613  -16.4853   21.8324 C   0  0  2  0  0  0  0  0  0  0  0  0
    8.6319  -15.6334   20.7298 N   0  0  0  0  0  0  0  0  0  0  0  0
    9.1124  -16.1730   23.0086 C   0  0  0  0  0  0  0  0  0  0  0  0
   10.2868  -15.7957   22.8092 O   0  0  0  0  0  0  0  0  0  0  0  0
    8.6642  -16.2801   24.3379 N   0  0  0  0  0  0  0  0  0  0  0  0
    9.4175  -16.0596   25.5399 C   0  0  1  0  0  0  0  0  0  0  0  0
    9.7458  -14.6362   25.7811 C   0  0  0  0  0  0  0  0  0  0  0  0
    8.5591  -13.8052   26.0392 C   0  0  0  0  0  0  0  0  0  0  0  0
    7.4559  -13.8788   25.1869 C   0  0  0  0  0  0  0  0  0  0  0  0
    6.3115  -13.1367   25.4057 C   0  0  0  0  0  0  0  0  0  0  0  0
    6.2196  -12.2889   26.4852 C   0  0  0  0  0  0  0  0  0  0  0  0
    7.2962  -12.2035   27.3351 C   0  0  0  0  0  0  0  0  0  0  0  0
    8.4263  -12.9482   27.1030 C   0  0  0  0  0  0  0  0  0  0  0  0
    8.8817  -16.7627   26.7304 C   0  0  0  0  0  0  0  0  0  0  0  0
    7.7501  -17.3380   26.6077 O   0  0  0  0  0  0  0  0  0  0  0  0
    9.5182  -16.8409   27.9562 O   0  0  0  0  0  0  0  0  0  0  0  0
  2  4  1  0
  2  3  1  0
  2  1  1  6
  4  5  2  0
  7  6  1  6
  7  9  1  0
  8  7  1  0
  9 11  1  0
  9 10  1  6
 10  4  1  0
 11 12  2  0
 11 13  1  0
 13 14  1  0
 14 22  1  0
 14 15  1  1
 16 15  1  0
 16 21  2  0
 17 16  1  0
 18 17  2  0
 18 19  1  0
 19 20  2  0
 20 21  1  0
 22 23  2  0
 22 24  1  0
M  END
$$$$
