ATF.pdb
     RDKit          3D

 24 24  0  0  1  0  0  0  0  0999 V2000
    8.3466  -12.0627   19.8083 C   0  0  0  0  0  0  0  0  0  0  0  0
    8.4737  -13.4782   19.2975 C   0  0  2  0  0  0  0  0  0  0  0  0
    7.8800  -13.6025   17.9868 N   0  0  0  0  0  0  0  0  0  0  0  0
    7.9480  -14.4797   20.2549 C   0  0  0  0  0  0  0  0  0  0  0  0
    6.7223  -14.7258   20.2096 O   0  0  0  0  0  0  0  0  0  0  0  0
    7.9070  -17.7663   20.3365 C   0  0  0  0  0  0  0  0  0  0  0  0
    8.4946  -17.5239   21.7103 C   0  0  1  0  0  0  0  0  0  0  0  0
    9.8664  -17.8188   21.6022 O   0  0  0  0  0  0  0  0  0  0  0  0
    8.3273  -16.1178   22.1566 C   0  0  2  0  0  0  0  0  0  0  0  0
    8.7883  -15.1462   21.1964 N   0  0  0  0  0  0  0  0  0  0  0  0
    8.9227  -15.8240   23.4849 C   0  0  0  0  0  0  0  0  0  0  0  0
   10.0419  -15.2696   23.5252 O   0  0  0  0  0  0  0  0  0  0  0  0
    8.2910  -16.1378   24.7023 N   0  0  0  0  0  0  0  0  0  0  0  0
    8.8005  -15.9491   26.0310 C   0  0  1  0  0  0  0  0  0  0  0  0
    7.7972  -15.4161   26.9804 C   0  0  0  0  0  0  0  0  0  0  0  0
    7.3569  -14.0514   26.6502 C   0  0  0  0  0  0  0  0  0  0  0  0
    8.2483  -12.9830   26.7637 C   0  0  0  0  0  0  0  0  0  0  0  0
    7.8858  -11.6901   26.4397 C   0  0  0  0  0  0  0  0  0  0  0  0
    6.6173  -11.4083   25.9883 C   0  0  0  0  0  0  0  0  0  0  0  0
    5.7260  -12.4477   25.8702 C   0  0  0  0  0  0  0  0  0  0  0  0
    6.1027  -13.7273   26.1966 C   0  0  0  0  0  0  0  0  0  0  0  0
    9.5711  -17.1023   26.5558 C   0  0  0  0  0  0  0  0  0  0  0  0
   10.1889  -16.9372   27.6592 O   0  0  0  0  0  0  0  0  0  0  0  0
    9.6655  -18.3371   25.9394 O   0  0  0  0  0  0  0  0  0  0  0  0
  2  4  1  0
  2  3  1  0
  2  1  1  1
  4  5  2  0
  7  6  1  6
  7  9  1  0
  8  7  1  0
  9 11  1  0
  9 10  1  6
 10  4  1  0
 11 12  2  0
 11 13  1  0
 13 14  1  0
 14 22  1  0
 14 15  1  1
 16 15  1  0
 16 21  2  0
 17 16  1  0
 18 17  2  0
 18 19  1  0
 19 20  2  0
 20 21  1  0
 22 23  2  0
 22 24  1  0
M  END
$$$$
