ATF.pdb
     RDKit          3D

 24 24  0  0  1  0  0  0  0  0999 V2000
    8.7130  -12.2455   19.3055 C   0  0  0  0  0  0  0  0  0  0  0  0
    8.5823  -13.6932   18.8959 C   0  0  2  0  0  0  0  0  0  0  0  0
    7.7672  -13.8159   17.7099 N   0  0  0  0  0  0  0  0  0  0  0  0
    8.1079  -14.5585   20.0014 C   0  0  0  0  0  0  0  0  0  0  0  0
    6.8711  -14.6507   20.1651 O   0  0  0  0  0  0  0  0  0  0  0  0
    7.6683  -17.7997   20.3812 C   0  0  0  0  0  0  0  0  0  0  0  0
    8.5243  -17.5471   21.6039 C   0  0  1  0  0  0  0  0  0  0  0  0
    9.8104  -18.0178   21.2802 O   0  0  0  0  0  0  0  0  0  0  0  0
    8.6011  -16.1060   21.9523 C   0  0  2  0  0  0  0  0  0  0  0  0
    9.0081  -15.2651   20.8541 N   0  0  0  0  0  0  0  0  0  0  0  0
    9.4393  -15.8092   23.1416 C   0  0  0  0  0  0  0  0  0  0  0  0
   10.6518  -15.5622   22.9678 O   0  0  0  0  0  0  0  0  0  0  0  0
    8.9382  -15.7917   24.4562 N   0  0  0  0  0  0  0  0  0  0  0  0
    9.6814  -15.6721   25.6786 C   0  0  1  0  0  0  0  0  0  0  0  0
    9.7834  -14.2816   26.1767 C   0  0  0  0  0  0  0  0  0  0  0  0
    8.4860  -13.5891   26.2271 C   0  0  0  0  0  0  0  0  0  0  0  0
    7.5540  -13.7761   25.2046 C   0  0  0  0  0  0  0  0  0  0  0  0
    6.3144  -13.1670   25.2241 C   0  0  0  0  0  0  0  0  0  0  0  0
    5.9519  -12.3448   26.2657 C   0  0  0  0  0  0  0  0  0  0  0  0
    6.8568  -12.1489   27.2814 C   0  0  0  0  0  0  0  0  0  0  0  0
    8.0850  -12.7622   27.2465 C   0  0  0  0  0  0  0  0  0  0  0  0
    9.3010  -16.6569   26.7198 C   0  0  0  0  0  0  0  0  0  0  0  0
    9.9718  -16.6474   27.8044 O   0  0  0  0  0  0  0  0  0  0  0  0
    8.2757  -17.5780   26.6009 O   0  0  0  0  0  0  0  0  0  0  0  0
  2  4  1  0
  2  3  1  0
  2  1  1  1
  4  5  2  0
  7  6  1  6
  7  9  1  0
  8  7  1  0
  9 11  1  0
  9 10  1  6
 10  4  1  0
 11 12  2  0
 11 13  1  0
 13 14  1  0
 14 22  1  0
 14 15  1  1
 16 15  1  0
 16 21  2  0
 17 16  1  0
 18 17  2  0
 18 19  1  0
 19 20  2  0
 20 21  1  0
 22 23  2  0
 22 24  1  0
M  END
$$$$
