ATF.pdb
     RDKit          3D

 24 24  0  0  1  0  0  0  0  0999 V2000
   10.4666  -19.3689   20.1747 C   0  0  0  0  0  0  0  0  0  0  0  0
   10.2550  -18.0194   19.5306 C   0  0  2  0  0  0  0  0  0  0  0  0
   11.2807  -17.7568   18.5483 N   0  0  0  0  0  0  0  0  0  0  0  0
   10.1284  -16.9266   20.5235 C   0  0  0  0  0  0  0  0  0  0  0  0
   11.1873  -16.4636   21.0024 O   0  0  0  0  0  0  0  0  0  0  0  0
    7.6101  -13.7845   20.2726 C   0  0  0  0  0  0  0  0  0  0  0  0
    7.5064  -14.4859   21.6101 C   0  0  1  0  0  0  0  0  0  0  0  0
    6.3484  -15.2825   21.5408 O   0  0  0  0  0  0  0  0  0  0  0  0
    8.6817  -15.3492   21.8883 C   0  0  2  0  0  0  0  0  0  0  0  0
    8.8612  -16.4106   20.9292 N   0  0  0  0  0  0  0  0  0  0  0  0
    8.7148  -15.9114   23.2624 C   0  0  0  0  0  0  0  0  0  0  0  0
    8.4265  -17.1171   23.4186 O   0  0  0  0  0  0  0  0  0  0  0  0
    9.0544  -15.1554   24.3994 N   0  0  0  0  0  0  0  0  0  0  0  0
    8.9241  -15.5344   25.7778 C   0  0  1  0  0  0  0  0  0  0  0  0
    7.5460  -15.3995   26.3019 C   0  0  0  0  0  0  0  0  0  0  0  0
    7.1533  -14.0018   26.5424 C   0  0  0  0  0  0  0  0  0  0  0  0
    8.1292  -13.0348   26.7903 C   0  0  0  0  0  0  0  0  0  0  0  0
    7.8081  -11.7070   26.9954 C   0  0  0  0  0  0  0  0  0  0  0  0
    6.4983  -11.2878   26.9618 C   0  0  0  0  0  0  0  0  0  0  0  0
    5.5239  -12.2260   26.7190 C   0  0  0  0  0  0  0  0  0  0  0  0
    5.8604  -13.5420   26.5172 C   0  0  0  0  0  0  0  0  0  0  0  0
    9.5725  -16.8240   26.1175 C   0  0  0  0  0  0  0  0  0  0  0  0
   10.0402  -17.5137   25.1520 O   0  0  0  0  0  0  0  0  0  0  0  0
    9.7076  -17.3285   27.3985 O   0  0  0  0  0  0  0  0  0  0  0  0
  2  4  1  0
  2  3  1  0
  2  1  1  1
  4  5  2  0
  7  6  1  6
  7  9  1  0
  8  7  1  0
  9 11  1  0
  9 10  1  6
 10  4  1  0
 11 12  2  0
 11 13  1  0
 13 14  1  0
 14 22  1  0
 14 15  1  6
 16 15  1  0
 16 21  2  0
 17 16  1  0
 18 17  2  0
 18 19  1  0
 19 20  2  0
 20 21  1  0
 22 23  2  0
 22 24  1  0
M  END
$$$$
