ATF.pdb
     RDKit          3D

 24 24  0  0  1  0  0  0  0  0999 V2000
    8.4504  -12.1633   20.0644 C   0  0  0  0  0  0  0  0  0  0  0  0
    8.4749  -13.4104   19.2128 C   0  0  2  0  0  0  0  0  0  0  0  0
    7.4017  -13.3889   18.2464 N   0  0  0  0  0  0  0  0  0  0  0  0
    8.4852  -14.6528   20.0203 C   0  0  0  0  0  0  0  0  0  0  0  0
    7.3768  -15.1301   20.3497 O   0  0  0  0  0  0  0  0  0  0  0  0
    9.6091  -17.8865   19.1001 C   0  0  0  0  0  0  0  0  0  0  0  0
   10.3257  -17.6614   20.4144 C   0  0  1  0  0  0  0  0  0  0  0  0
   11.6660  -17.3892   20.0830 O   0  0  0  0  0  0  0  0  0  0  0  0
    9.7647  -16.5165   21.1752 C   0  0  2  0  0  0  0  0  0  0  0  0
    9.6980  -15.2928   20.4156 N   0  0  0  0  0  0  0  0  0  0  0  0
   10.4368  -16.2584   22.4739 C   0  0  0  0  0  0  0  0  0  0  0  0
   11.2947  -15.3515   22.5295 O   0  0  0  0  0  0  0  0  0  0  0  0
   10.1574  -16.9832   23.6470 N   0  0  0  0  0  0  0  0  0  0  0  0
   10.2570  -16.5293   25.0053 C   0  0  1  0  0  0  0  0  0  0  0  0
    9.6148  -15.2161   25.2401 C   0  0  0  0  0  0  0  0  0  0  0  0
    9.7123  -14.7669   26.6380 C   0  0  0  0  0  0  0  0  0  0  0  0
    8.5887  -14.2504   27.2858 C   0  0  0  0  0  0  0  0  0  0  0  0
    8.6280  -13.8412   28.6045 C   0  0  0  0  0  0  0  0  0  0  0  0
    9.7913  -13.9302   29.3333 C   0  0  0  0  0  0  0  0  0  0  0  0
   10.9078  -14.4363   28.7120 C   0  0  0  0  0  0  0  0  0  0  0  0
   10.8514  -14.8386   27.4002 C   0  0  0  0  0  0  0  0  0  0  0  0
    9.9103  -17.5571   26.0164 C   0  0  0  0  0  0  0  0  0  0  0  0
    8.7618  -18.1037   25.9222 O   0  0  0  0  0  0  0  0  0  0  0  0
   10.7387  -17.9647   27.0466 O   0  0  0  0  0  0  0  0  0  0  0  0
  2  4  1  0
  2  3  1  0
  2  1  1  1
  4  5  2  0
  7  6  1  6
  7  9  1  0
  8  7  1  0
  9 11  1  0
  9 10  1  6
 10  4  1  0
 11 12  2  0
 11 13  1  0
 13 14  1  0
 14 22  1  0
 14 15  1  6
 16 15  1  0
 16 21  2  0
 17 16  1  0
 18 17  2  0
 18 19  1  0
 19 20  2  0
 20 21  1  0
 22 23  2  0
 22 24  1  0
M  END
$$$$
