ATF.pdb
     RDKit          3D

 24 24  0  0  1  0  0  0  0  0999 V2000
   11.2266  -17.4963   18.3685 C   0  0  0  0  0  0  0  0  0  0  0  0
   10.6490  -17.9209   19.6978 C   0  0  2  0  0  0  0  0  0  0  0  0
    9.5125  -18.7911   19.5053 N   0  0  0  0  0  0  0  0  0  0  0  0
   10.3388  -16.7705   20.5789 C   0  0  0  0  0  0  0  0  0  0  0  0
   11.2881  -16.0190   20.8938 O   0  0  0  0  0  0  0  0  0  0  0  0
    7.4057  -14.1751   20.1734 C   0  0  0  0  0  0  0  0  0  0  0  0
    7.3826  -14.7631   21.5682 C   0  0  1  0  0  0  0  0  0  0  0  0
    6.3531  -15.7225   21.5669 O   0  0  0  0  0  0  0  0  0  0  0  0
    8.6656  -15.4186   21.9266 C   0  0  2  0  0  0  0  0  0  0  0  0
    9.0193  -16.5138   21.0583 N   0  0  0  0  0  0  0  0  0  0  0  0
    8.7512  -15.8598   23.3420 C   0  0  0  0  0  0  0  0  0  0  0  0
    8.4314  -17.0357   23.6185 O   0  0  0  0  0  0  0  0  0  0  0  0
    9.1744  -15.0212   24.3894 N   0  0  0  0  0  0  0  0  0  0  0  0
    9.1145  -15.2788   25.8004 C   0  0  1  0  0  0  0  0  0  0  0  0
    7.7490  -15.1793   26.3637 C   0  0  0  0  0  0  0  0  0  0  0  0
    7.2782  -13.7914   26.4962 C   0  0  0  0  0  0  0  0  0  0  0  0
    8.1976  -12.7413   26.5222 C   0  0  0  0  0  0  0  0  0  0  0  0
    7.7992  -11.4222   26.6190 C   0  0  0  0  0  0  0  0  0  0  0  0
    6.4651  -11.0950   26.6940 C   0  0  0  0  0  0  0  0  0  0  0  0
    5.5455  -12.1159   26.6698 C   0  0  0  0  0  0  0  0  0  0  0  0
    5.9586  -13.4219   26.5732 C   0  0  0  0  0  0  0  0  0  0  0  0
    9.8544  -16.4904   26.2288 C   0  0  0  0  0  0  0  0  0  0  0  0
   10.5065  -17.1226   25.3334 O   0  0  0  0  0  0  0  0  0  0  0  0
    9.8898  -16.9798   27.5222 O   0  0  0  0  0  0  0  0  0  0  0  0
  2  4  1  0
  2  3  1  0
  2  1  1  6
  4  5  2  0
  7  6  1  6
  7  9  1  0
  8  7  1  0
  9 11  1  0
  9 10  1  6
 10  4  1  0
 11 12  2  0
 11 13  1  0
 13 14  1  0
 14 22  1  0
 14 15  1  6
 16 15  1  0
 16 21  2  0
 17 16  1  0
 18 17  2  0
 18 19  1  0
 19 20  2  0
 20 21  1  0
 22 23  2  0
 22 24  1  0
M  END
$$$$
