ATF.pdb
     RDKit          3D

 24 24  0  0  1  0  0  0  0  0999 V2000
    8.1155  -12.0476   19.8160 C   0  0  0  0  0  0  0  0  0  0  0  0
    8.4394  -13.4269   19.2929 C   0  0  2  0  0  0  0  0  0  0  0  0
    7.9242  -13.5985   17.9546 N   0  0  0  0  0  0  0  0  0  0  0  0
    8.0001  -14.5034   20.2115 C   0  0  0  0  0  0  0  0  0  0  0  0
    6.8066  -14.8700   20.1337 O   0  0  0  0  0  0  0  0  0  0  0  0
    8.3102  -17.8558   20.3021 C   0  0  0  0  0  0  0  0  0  0  0  0
    8.8730  -17.5055   21.6631 C   0  0  1  0  0  0  0  0  0  0  0  0
   10.2719  -17.5932   21.5379 O   0  0  0  0  0  0  0  0  0  0  0  0
    8.5024  -16.1332   22.0918 C   0  0  2  0  0  0  0  0  0  0  0  0
    8.8861  -15.1090   21.1523 N   0  0  0  0  0  0  0  0  0  0  0  0
    8.9824  -15.7669   23.4486 C   0  0  0  0  0  0  0  0  0  0  0  0
   10.0293  -15.0919   23.5467 O   0  0  0  0  0  0  0  0  0  0  0  0
    8.3183  -16.1412   24.6311 N   0  0  0  0  0  0  0  0  0  0  0  0
    8.7661  -15.9658   25.9837 C   0  0  1  0  0  0  0  0  0  0  0  0
    7.7002  -15.5152   26.9072 C   0  0  0  0  0  0  0  0  0  0  0  0
    7.2556  -14.1366   26.6480 C   0  0  0  0  0  0  0  0  0  0  0  0
    8.1000  -13.0638   26.9395 C   0  0  0  0  0  0  0  0  0  0  0  0
    7.7343  -11.7556   26.6884 C   0  0  0  0  0  0  0  0  0  0  0  0
    6.5093  -11.4625   26.1352 C   0  0  0  0  0  0  0  0  0  0  0  0
    5.6647  -12.5061   25.8416 C   0  0  0  0  0  0  0  0  0  0  0  0
    6.0439  -13.8008   26.0977 C   0  0  0  0  0  0  0  0  0  0  0  0
    9.5772  -17.0919   26.5061 C   0  0  0  0  0  0  0  0  0  0  0  0
   10.1673  -16.9166   27.6231 O   0  0  0  0  0  0  0  0  0  0  0  0
    9.7371  -18.3120   25.8740 O   0  0  0  0  0  0  0  0  0  0  0  0
  2  4  1  0
  2  3  1  0
  2  1  1  1
  4  5  2  0
  7  6  1  6
  7  9  1  0
  8  7  1  0
  9 11  1  0
  9 10  1  6
 10  4  1  0
 11 12  2  0
 11 13  1  0
 13 14  1  0
 14 22  1  0
 14 15  1  1
 16 15  1  0
 16 21  2  0
 17 16  1  0
 18 17  2  0
 18 19  1  0
 19 20  2  0
 20 21  1  0
 22 23  2  0
 22 24  1  0
M  END
$$$$
