ATF.pdb
     RDKit          3D

 24 24  0  0  1  0  0  0  0  0999 V2000
    8.7560  -12.2698   19.3399 C   0  0  0  0  0  0  0  0  0  0  0  0
    8.5237  -13.6859   18.8690 C   0  0  2  0  0  0  0  0  0  0  0  0
    7.5953  -13.7093   17.7628 N   0  0  0  0  0  0  0  0  0  0  0  0
    8.1185  -14.5936   19.9679 C   0  0  0  0  0  0  0  0  0  0  0  0
    6.8979  -14.6614   20.2331 O   0  0  0  0  0  0  0  0  0  0  0  0
    7.9650  -17.9963   20.1721 C   0  0  0  0  0  0  0  0  0  0  0  0
    8.7775  -17.6939   21.4131 C   0  0  1  0  0  0  0  0  0  0  0  0
   10.1035  -18.0492   21.1039 O   0  0  0  0  0  0  0  0  0  0  0  0
    8.7270  -16.2577   21.7858 C   0  0  2  0  0  0  0  0  0  0  0  0
    9.0658  -15.3661   20.7045 N   0  0  0  0  0  0  0  0  0  0  0  0
    9.5295  -15.9098   22.9858 C   0  0  0  0  0  0  0  0  0  0  0  0
   10.7217  -15.5713   22.8261 O   0  0  0  0  0  0  0  0  0  0  0  0
    9.0162  -15.9415   24.2954 N   0  0  0  0  0  0  0  0  0  0  0  0
    9.6982  -15.6121   25.5149 C   0  0  1  0  0  0  0  0  0  0  0  0
    9.7571  -14.1580   25.7871 C   0  0  0  0  0  0  0  0  0  0  0  0
    8.4289  -13.5473   25.9556 C   0  0  0  0  0  0  0  0  0  0  0  0
    8.1058  -12.8953   27.1470 C   0  0  0  0  0  0  0  0  0  0  0  0
    6.8811  -12.2858   27.3387 C   0  0  0  0  0  0  0  0  0  0  0  0
    5.9261  -12.3012   26.3487 C   0  0  0  0  0  0  0  0  0  0  0  0
    6.2266  -12.9386   25.1688 C   0  0  0  0  0  0  0  0  0  0  0  0
    7.4490  -13.5395   24.9946 C   0  0  0  0  0  0  0  0  0  0  0  0
    9.2818  -16.4256   26.6827 C   0  0  0  0  0  0  0  0  0  0  0  0
    9.9588  -16.2949   27.7556 O   0  0  0  0  0  0  0  0  0  0  0  0
    8.2171  -17.3088   26.6926 O   0  0  0  0  0  0  0  0  0  0  0  0
  2  4  1  0
  2  3  1  0
  2  1  1  1
  4  5  2  0
  7  6  1  6
  7  9  1  0
  8  7  1  0
  9 11  1  0
  9 10  1  6
 10  4  1  0
 11 12  2  0
 11 13  1  0
 13 14  1  0
 14 22  1  0
 14 15  1  1
 16 15  1  0
 16 21  2  0
 17 16  1  0
 18 17  2  0
 18 19  1  0
 19 20  2  0
 20 21  1  0
 22 23  2  0
 22 24  1  0
M  END
$$$$
