ATF.pdb
     RDKit          3D

 24 24  0  0  1  0  0  0  0  0999 V2000
    8.3884  -12.4655   19.1562 C   0  0  0  0  0  0  0  0  0  0  0  0
    8.6292  -13.8342   18.5650 C   0  0  2  0  0  0  0  0  0  0  0  0
    7.8624  -14.0084   17.3536 N   0  0  0  0  0  0  0  0  0  0  0  0
    8.4018  -14.9256   19.5412 C   0  0  0  0  0  0  0  0  0  0  0  0
    7.2182  -15.2793   19.7382 O   0  0  0  0  0  0  0  0  0  0  0  0
    9.7769  -18.3932   19.5668 C   0  0  0  0  0  0  0  0  0  0  0  0
   10.0830  -17.8271   20.9370 C   0  0  1  0  0  0  0  0  0  0  0  0
   11.4568  -17.5223   20.9319 O   0  0  0  0  0  0  0  0  0  0  0  0
    9.3067  -16.5950   21.2260 C   0  0  2  0  0  0  0  0  0  0  0  0
    9.4747  -15.5590   20.2374 N   0  0  0  0  0  0  0  0  0  0  0  0
    9.5382  -16.0310   22.5800 C   0  0  0  0  0  0  0  0  0  0  0  0
   10.4759  -15.2195   22.7337 O   0  0  0  0  0  0  0  0  0  0  0  0
    8.7551  -16.3635   23.7006 N   0  0  0  0  0  0  0  0  0  0  0  0
    8.4086  -15.5227   24.8114 C   0  0  1  0  0  0  0  0  0  0  0  0
    7.5890  -14.3491   24.4335 C   0  0  0  0  0  0  0  0  0  0  0  0
    7.2441  -13.4921   25.5789 C   0  0  0  0  0  0  0  0  0  0  0  0
    5.9053  -13.2600   25.8996 C   0  0  0  0  0  0  0  0  0  0  0  0
    5.5359  -12.4840   26.9810 C   0  0  0  0  0  0  0  0  0  0  0  0
    6.4877  -11.9061   27.7888 C   0  0  0  0  0  0  0  0  0  0  0  0
    7.8110  -12.1236   27.4883 C   0  0  0  0  0  0  0  0  0  0  0  0
    8.1610  -12.8978   26.4095 C   0  0  0  0  0  0  0  0  0  0  0  0
    7.8966  -16.2576   25.9932 C   0  0  0  0  0  0  0  0  0  0  0  0
    8.5424  -16.1281   27.0853 O   0  0  0  0  0  0  0  0  0  0  0  0
    6.7745  -17.0667   25.9968 O   0  0  0  0  0  0  0  0  0  0  0  0
  2  4  1  0
  2  3  1  0
  2  1  1  1
  4  5  2  0
  7  6  1  6
  7  9  1  0
  8  7  1  0
  9 11  1  0
  9 10  1  6
 10  4  1  0
 11 12  2  0
 11 13  1  0
 13 14  1  0
 14 22  1  0
 14 15  1  6
 16 15  1  0
 16 21  2  0
 17 16  1  0
 18 17  2  0
 18 19  1  0
 19 20  2  0
 20 21  1  0
 22 23  2  0
 22 24  1  0
M  END
$$$$
