ATF.pdb
     RDKit          3D

 24 24  0  0  1  0  0  0  0  0999 V2000
    4.9569  -19.7156   23.7123 C   0  0  0  0  0  0  0  0  0  0  0  0
    4.9035  -18.8097   22.5051 C   0  0  2  0  0  0  0  0  0  0  0  0
    4.3395  -19.5040   21.3712 N   0  0  0  0  0  0  0  0  0  0  0  0
    6.2148  -18.1923   22.1964 C   0  0  0  0  0  0  0  0  0  0  0  0
    7.1933  -18.9613   22.0700 O   0  0  0  0  0  0  0  0  0  0  0  0
    6.8493  -14.1689   20.5460 C   0  0  0  0  0  0  0  0  0  0  0  0
    7.7635  -15.3742   20.5991 C   0  0  1  0  0  0  0  0  0  0  0  0
    9.0724  -14.8734   20.4717 O   0  0  0  0  0  0  0  0  0  0  0  0
    7.6438  -16.1186   21.8781 C   0  0  2  0  0  0  0  0  0  0  0  0
    6.3749  -16.7822   22.0460 N   0  0  0  0  0  0  0  0  0  0  0  0
    7.9439  -15.3087   23.0862 C   0  0  0  0  0  0  0  0  0  0  0  0
    7.8048  -14.0687   23.0202 O   0  0  0  0  0  0  0  0  0  0  0  0
    8.3774  -15.8662   24.3030 N   0  0  0  0  0  0  0  0  0  0  0  0
    9.4729  -15.4372   25.1255 C   0  0  1  0  0  0  0  0  0  0  0  0
    9.4709  -13.9832   25.4044 C   0  0  0  0  0  0  0  0  0  0  0  0
    8.2355  -13.5216   26.0571 C   0  0  0  0  0  0  0  0  0  0  0  0
    7.1483  -13.1107   25.2839 C   0  0  0  0  0  0  0  0  0  0  0  0
    5.9607  -12.6947   25.8537 C   0  0  0  0  0  0  0  0  0  0  0  0
    5.8077  -12.6713   27.2207 C   0  0  0  0  0  0  0  0  0  0  0  0
    6.8677  -13.0724   27.9980 C   0  0  0  0  0  0  0  0  0  0  0  0
    8.0413  -13.4830   27.4153 C   0  0  0  0  0  0  0  0  0  0  0  0
    9.6979  -16.2788   26.3255 C   0  0  0  0  0  0  0  0  0  0  0  0
   10.6432  -15.9355   27.1097 O   0  0  0  0  0  0  0  0  0  0  0  0
    8.9591  -17.4012   26.6545 O   0  0  0  0  0  0  0  0  0  0  0  0
  2  4  1  0
  2  3  1  0
  2  1  1  1
  4  5  2  0
  7  6  1  1
  7  9  1  0
  8  7  1  0
  9 11  1  0
  9 10  1  1
 10  4  1  0
 11 12  2  0
 11 13  1  0
 13 14  1  0
 14 22  1  0
 14 15  1  1
 16 15  1  0
 16 21  2  0
 17 16  1  0
 18 17  2  0
 18 19  1  0
 19 20  2  0
 20 21  1  0
 22 23  2  0
 22 24  1  0
M  END
$$$$
