ATF.pdb
     RDKit          3D

 24 24  0  0  1  0  0  0  0  0999 V2000
    8.3324  -12.0713   19.6518 C   0  0  0  0  0  0  0  0  0  0  0  0
    8.5235  -13.4071   18.9734 C   0  0  2  0  0  0  0  0  0  0  0  0
    7.7295  -13.4858   17.7696 N   0  0  0  0  0  0  0  0  0  0  0  0
    8.2840  -14.5499   19.8858 C   0  0  0  0  0  0  0  0  0  0  0  0
    7.1166  -14.9946   19.9511 O   0  0  0  0  0  0  0  0  0  0  0  0
    9.6944  -18.6939   21.9096 C   0  0  0  0  0  0  0  0  0  0  0  0
    9.9402  -17.4741   21.0474 C   0  0  1  0  0  0  0  0  0  0  0  0
    9.5253  -17.8271   19.7499 O   0  0  0  0  0  0  0  0  0  0  0  0
    9.1676  -16.2924   21.5066 C   0  0  2  0  0  0  0  0  0  0  0  0
    9.3279  -15.1325   20.6653 N   0  0  0  0  0  0  0  0  0  0  0  0
    9.4114  -15.9160   22.9223 C   0  0  0  0  0  0  0  0  0  0  0  0
   10.5035  -15.3849   23.2166 O   0  0  0  0  0  0  0  0  0  0  0  0
    8.4750  -16.1268   23.9510 N   0  0  0  0  0  0  0  0  0  0  0  0
    8.6212  -15.8280   25.3474 C   0  0  1  0  0  0  0  0  0  0  0  0
    7.3458  -15.4869   26.0174 C   0  0  0  0  0  0  0  0  0  0  0  0
    7.1131  -14.0371   26.1135 C   0  0  0  0  0  0  0  0  0  0  0  0
    5.8128  -13.5451   26.2406 C   0  0  0  0  0  0  0  0  0  0  0  0
    5.5501  -12.1943   26.3600 C   0  0  0  0  0  0  0  0  0  0  0  0
    6.5747  -11.2764   26.3575 C   0  0  0  0  0  0  0  0  0  0  0  0
    7.8615  -11.7425   26.2333 C   0  0  0  0  0  0  0  0  0  0  0  0
    8.1053  -13.0887   26.1156 C   0  0  0  0  0  0  0  0  0  0  0  0
    9.4498  -16.8051   26.0944 C   0  0  0  0  0  0  0  0  0  0  0  0
    9.2416  -18.0422   25.8648 O   0  0  0  0  0  0  0  0  0  0  0  0
   10.4276  -16.4730   27.0149 O   0  0  0  0  0  0  0  0  0  0  0  0
  2  4  1  0
  2  3  1  0
  2  1  1  1
  4  5  2  0
  7  6  1  1
  7  9  1  0
  8  7  1  0
  9 11  1  0
  9 10  1  6
 10  4  1  0
 11 12  2  0
 11 13  1  0
 13 14  1  0
 14 22  1  0
 14 15  1  1
 16 15  1  0
 16 21  2  0
 17 16  1  0
 18 17  2  0
 18 19  1  0
 19 20  2  0
 20 21  1  0
 22 23  2  0
 22 24  1  0
M  END
$$$$
