ATF.pdb
     RDKit          3D

 24 24  0  0  1  0  0  0  0  0999 V2000
    8.3776  -12.1625   19.2730 C   0  0  0  0  0  0  0  0  0  0  0  0
    8.4161  -13.6512   19.0215 C   0  0  2  0  0  0  0  0  0  0  0  0
    7.7306  -13.9787   17.7932 N   0  0  0  0  0  0  0  0  0  0  0  0
    7.9190  -14.4379   20.1748 C   0  0  0  0  0  0  0  0  0  0  0  0
    6.7029  -14.3410   20.4515 O   0  0  0  0  0  0  0  0  0  0  0  0
    7.1874  -17.6985   20.6218 C   0  0  0  0  0  0  0  0  0  0  0  0
    8.1341  -17.4888   21.7842 C   0  0  1  0  0  0  0  0  0  0  0  0
    9.3560  -18.0703   21.3982 O   0  0  0  0  0  0  0  0  0  0  0  0
    8.3474  -16.0511   22.0873 C   0  0  2  0  0  0  0  0  0  0  0  0
    8.7757  -15.2763   20.9494 N   0  0  0  0  0  0  0  0  0  0  0  0
    9.2586  -15.7971   23.2319 C   0  0  0  0  0  0  0  0  0  0  0  0
   10.4796  -15.6645   23.0017 O   0  0  0  0  0  0  0  0  0  0  0  0
    8.8178  -15.6980   24.5643 N   0  0  0  0  0  0  0  0  0  0  0  0
    9.6195  -15.5643   25.7477 C   0  0  1  0  0  0  0  0  0  0  0  0
    9.7277  -14.1709   26.2362 C   0  0  0  0  0  0  0  0  0  0  0  0
    8.4514  -13.4402   26.1860 C   0  0  0  0  0  0  0  0  0  0  0  0
    8.0778  -12.7657   25.0222 C   0  0  0  0  0  0  0  0  0  0  0  0
    6.8777  -12.0891   24.9219 C   0  0  0  0  0  0  0  0  0  0  0  0
    5.9988  -12.0569   25.9797 C   0  0  0  0  0  0  0  0  0  0  0  0
    6.3499  -12.7154   27.1337 C   0  0  0  0  0  0  0  0  0  0  0  0
    7.5469  -13.3832   27.2167 C   0  0  0  0  0  0  0  0  0  0  0  0
    9.3047  -16.5505   26.8094 C   0  0  0  0  0  0  0  0  0  0  0  0
   10.0649  -16.5676   27.8333 O   0  0  0  0  0  0  0  0  0  0  0  0
    8.2511  -17.4461   26.7703 O   0  0  0  0  0  0  0  0  0  0  0  0
  2  4  1  0
  2  3  1  0
  2  1  1  1
  4  5  2  0
  7  6  1  6
  7  9  1  0
  8  7  1  0
  9 11  1  0
  9 10  1  6
 10  4  1  0
 11 12  2  0
 11 13  1  0
 13 14  1  0
 14 22  1  0
 14 15  1  1
 16 15  1  0
 16 21  2  0
 17 16  1  0
 18 17  2  0
 18 19  1  0
 19 20  2  0
 20 21  1  0
 22 23  2  0
 22 24  1  0
M  END
$$$$
