ATF.pdb
     RDKit          3D

 24 24  0  0  1  0  0  0  0  0999 V2000
    4.8674  -19.7973   21.9993 C   0  0  0  0  0  0  0  0  0  0  0  0
    5.4941  -18.9950   20.8837 C   0  0  2  0  0  0  0  0  0  0  0  0
    5.5945  -19.7872   19.6803 N   0  0  0  0  0  0  0  0  0  0  0  0
    6.7896  -18.3904   21.2737 C   0  0  0  0  0  0  0  0  0  0  0  0
    7.7215  -19.1728   21.5640 O   0  0  0  0  0  0  0  0  0  0  0  0
    8.8833  -16.0368   19.2579 C   0  0  0  0  0  0  0  0  0  0  0  0
    8.7026  -15.3809   20.6102 C   0  0  1  0  0  0  0  0  0  0  0  0
    7.7297  -14.3806   20.4285 O   0  0  0  0  0  0  0  0  0  0  0  0
    8.2368  -16.3382   21.6451 C   0  0  2  0  0  0  0  0  0  0  0  0
    6.9856  -16.9776   21.3219 N   0  0  0  0  0  0  0  0  0  0  0  0
    8.1640  -15.7690   23.0147 C   0  0  0  0  0  0  0  0  0  0  0  0
    7.4953  -14.7283   23.1913 O   0  0  0  0  0  0  0  0  0  0  0  0
    8.8099  -16.3418   24.1257 N   0  0  0  0  0  0  0  0  0  0  0  0
    8.7803  -15.8911   25.4883 C   0  0  1  0  0  0  0  0  0  0  0  0
    7.4309  -15.4972   25.9532 C   0  0  0  0  0  0  0  0  0  0  0  0
    7.2919  -14.0472   26.1618 C   0  0  0  0  0  0  0  0  0  0  0  0
    6.0716  -13.5158   26.5831 C   0  0  0  0  0  0  0  0  0  0  0  0
    5.9034  -12.1647   26.8164 C   0  0  0  0  0  0  0  0  0  0  0  0
    6.9469  -11.2860   26.6390 C   0  0  0  0  0  0  0  0  0  0  0  0
    8.1559  -11.7913   26.2247 C   0  0  0  0  0  0  0  0  0  0  0  0
    8.3060  -13.1371   25.9972 C   0  0  0  0  0  0  0  0  0  0  0  0
    9.5092  -16.7695   26.4349 C   0  0  0  0  0  0  0  0  0  0  0  0
    9.5904  -16.3807   27.6468 O   0  0  0  0  0  0  0  0  0  0  0  0
   10.1017  -17.9740   26.1004 O   0  0  0  0  0  0  0  0  0  0  0  0
  2  4  1  0
  2  3  1  0
  2  1  1  1
  4  5  2  0
  7  6  1  6
  7  9  1  0
  8  7  1  0
  9 11  1  0
  9 10  1  6
 10  4  1  0
 11 12  2  0
 11 13  1  0
 13 14  1  0
 14 22  1  0
 14 15  1  1
 16 15  1  0
 16 21  2  0
 17 16  1  0
 18 17  2  0
 18 19  1  0
 19 20  2  0
 20 21  1  0
 22 23  2  0
 22 24  1  0
M  END
$$$$
