ATF.pdb
     RDKit          3D

 24 24  0  0  1  0  0  0  0  0999 V2000
    4.2443  -18.4694   22.4395 C   0  0  0  0  0  0  0  0  0  0  0  0
    5.0651  -18.3573   21.1768 C   0  0  2  0  0  0  0  0  0  0  0  0
    4.9299  -19.5499   20.3734 N   0  0  0  0  0  0  0  0  0  0  0  0
    6.4811  -18.0126   21.4452 C   0  0  0  0  0  0  0  0  0  0  0  0
    7.2151  -18.9199   21.8955 O   0  0  0  0  0  0  0  0  0  0  0  0
    8.9325  -16.2948   19.0480 C   0  0  0  0  0  0  0  0  0  0  0  0
    8.9941  -15.5507   20.3649 C   0  0  1  0  0  0  0  0  0  0  0  0
    8.2891  -14.3494   20.1642 O   0  0  0  0  0  0  0  0  0  0  0  0
    8.3647  -16.3111   21.4739 C   0  0  2  0  0  0  0  0  0  0  0  0
    7.0042  -16.7063   21.2067 N   0  0  0  0  0  0  0  0  0  0  0  0
    8.4350  -15.6355   22.7944 C   0  0  0  0  0  0  0  0  0  0  0  0
    7.9879  -14.4727   22.8918 O   0  0  0  0  0  0  0  0  0  0  0  0
    8.9797  -16.2377   23.9434 N   0  0  0  0  0  0  0  0  0  0  0  0
    8.8139  -15.8326   25.3105 C   0  0  1  0  0  0  0  0  0  0  0  0
    7.4089  -15.5433   25.6769 C   0  0  0  0  0  0  0  0  0  0  0  0
    7.1510  -14.1107   25.8922 C   0  0  0  0  0  0  0  0  0  0  0  0
    5.9429  -13.6951   26.4550 C   0  0  0  0  0  0  0  0  0  0  0  0
    5.6691  -12.3634   26.6989 C   0  0  0  0  0  0  0  0  0  0  0  0
    6.5901  -11.3890   26.3912 C   0  0  0  0  0  0  0  0  0  0  0  0
    7.7853  -11.7795   25.8364 C   0  0  0  0  0  0  0  0  0  0  0  0
    8.0415  -13.1078   25.6005 C   0  0  0  0  0  0  0  0  0  0  0  0
    9.5257  -16.6899   26.2889 C   0  0  0  0  0  0  0  0  0  0  0  0
    9.3600  -17.9505   26.1887 O   0  0  0  0  0  0  0  0  0  0  0  0
   10.3530  -16.2237   27.2949 O   0  0  0  0  0  0  0  0  0  0  0  0
  2  4  1  0
  2  3  1  0
  2  1  1  1
  4  5  2  0
  7  6  1  6
  7  9  1  0
  8  7  1  0
  9 11  1  0
  9 10  1  6
 10  4  1  0
 11 12  2  0
 11 13  1  0
 13 14  1  0
 14 22  1  0
 14 15  1  1
 16 15  1  0
 16 21  2  0
 17 16  1  0
 18 17  2  0
 18 19  1  0
 19 20  2  0
 20 21  1  0
 22 23  2  0
 22 24  1  0
M  END
$$$$
