NMP.pdb
     RDKit          3D

 24 24  0  0  1  0  0  0  0  0999 V2000
   28.0966  -16.7296  -18.3028 N   0  0  0  0  0  0  0  0  0  0  0  0
   27.6400  -16.8885  -16.9835 C   0  0  0  0  0  0  0  0  0  0  0  0
   27.6486  -15.9321  -16.1842 O   0  0  0  0  0  0  0  0  0  0  0  0
   27.1407  -18.2046  -16.5274 C   0  0  0  0  0  0  0  0  0  0  0  0
   28.0710  -18.7694  -15.4683 C   0  0  2  0  0  0  0  0  0  0  0  0
   29.2278  -19.2717  -16.1423 N   0  0  0  0  0  0  0  0  0  0  0  0
   27.3239  -19.8158  -14.7103 C   0  0  0  0  0  0  0  0  0  0  0  0
   26.9733  -20.8821  -15.2783 O   0  0  0  0  0  0  0  0  0  0  0  0
   26.9501  -19.9455   -8.2806 C   0  0  0  0  0  0  0  0  0  0  0  0
   25.4161  -20.8325   -8.5951 S   0  0  0  0  0  0  0  0  0  0  0  0
   25.3181  -21.3531  -10.3679 C   0  0  0  0  0  0  0  0  0  0  0  0
   26.1968  -20.4688  -11.1950 C   0  0  0  0  0  0  0  0  0  0  0  0
   26.2345  -20.7618  -12.6679 C   0  0  2  0  0  0  0  0  0  0  0  0
   26.9732  -19.6737  -13.3365 N   0  0  0  0  0  0  0  0  0  0  0  0
   24.8714  -20.8058  -13.2144 C   0  0  0  0  0  0  0  0  0  0  0  0
   24.5065  -19.6083  -13.6396 O   0  0  0  0  0  0  0  0  0  0  0  0
   23.9638  -21.8422  -13.3448 N   0  0  0  0  0  0  0  0  0  0  0  0
   23.9325  -23.2001  -12.9589 C   0  0  0  0  0  0  0  0  0  0  0  0
   23.6820  -23.8481  -14.3460 C   0  0  0  0  0  0  0  0  0  0  0  0
   22.6041  -22.8965  -14.8786 C   0  0  0  0  0  0  0  0  0  0  0  0
   22.6468  -21.6651  -13.9983 C   0  0  1  0  0  0  0  0  0  0  0  0
   21.5589  -21.5910  -13.0203 C   0  0  0  0  0  0  0  0  0  0  0  0
   21.6540  -21.7753  -11.7864 O   0  0  0  0  0  0  0  0  0  0  0  0
   20.2945  -21.2860  -13.5081 O   0  0  0  0  0  0  0  0  0  0  0  0
  1  2  1  0
  2  3  2  0
  4  2  1  0
  5  7  1  0
  5  4  1  0
  5  6  1  6
  7 14  1  0
  7  8  2  0
  9 10  1  0
 10 11  1  0
 12 11  1  0
 13 12  1  1
 14 13  1  0
 15 17  1  0
 15 13  1  0
 16 15  2  0
 17 21  1  0
 18 19  1  0
 18 17  1  0
 19 20  1  0
 20 21  1  0
 21 22  1  1
 22 24  1  0
 23 22  2  0
M  END
$$$$
