NMP.pdb
     RDKit          3D

 24 24  0  0  1  0  0  0  0  0999 V2000
   29.1887  -17.4451  -16.5327 N   0  0  0  0  0  0  0  0  0  0  0  0
   28.4102  -18.4305  -17.1630 C   0  0  0  0  0  0  0  0  0  0  0  0
   28.4148  -18.5527  -18.4034 O   0  0  0  0  0  0  0  0  0  0  0  0
   27.5704  -19.3399  -16.3523 C   0  0  0  0  0  0  0  0  0  0  0  0
   28.4408  -20.1095  -15.3743 C   0  0  2  0  0  0  0  0  0  0  0  0
   29.2339  -21.0221  -16.1378 N   0  0  0  0  0  0  0  0  0  0  0  0
   27.5428  -20.7824  -14.3902 C   0  0  0  0  0  0  0  0  0  0  0  0
   26.9149  -21.8237  -14.7126 O   0  0  0  0  0  0  0  0  0  0  0  0
   27.7739  -20.3378   -7.7970 C   0  0  0  0  0  0  0  0  0  0  0  0
   26.0093  -20.1937   -8.1193 S   0  0  0  0  0  0  0  0  0  0  0  0
   25.5873  -20.9257   -9.7654 C   0  0  0  0  0  0  0  0  0  0  0  0
   26.5936  -20.4818  -10.7795 C   0  0  0  0  0  0  0  0  0  0  0  0
   26.3996  -20.9985  -12.1767 C   0  0  2  0  0  0  0  0  0  0  0  0
   27.3488  -20.2992  -13.0637 N   0  0  0  0  0  0  0  0  0  0  0  0
   25.0337  -20.7173  -12.6394 C   0  0  0  0  0  0  0  0  0  0  0  0
   24.9527  -19.4865  -13.1153 O   0  0  0  0  0  0  0  0  0  0  0  0
   23.8876  -21.4924  -12.6532 N   0  0  0  0  0  0  0  0  0  0  0  0
   23.5489  -22.7872  -12.2028 C   0  0  0  0  0  0  0  0  0  0  0  0
   23.0286  -23.3869  -13.5356 C   0  0  0  0  0  0  0  0  0  0  0  0
   22.1832  -22.2074  -14.0306 C   0  0  0  0  0  0  0  0  0  0  0  0
   22.6071  -21.0042  -13.2146 C   0  0  1  0  0  0  0  0  0  0  0  0
   21.6585  -20.6303  -12.1630 C   0  0  0  0  0  0  0  0  0  0  0  0
   21.7861  -20.8423  -10.9365 O   0  0  0  0  0  0  0  0  0  0  0  0
   20.5011  -19.9753  -12.5640 O   0  0  0  0  0  0  0  0  0  0  0  0
  1  2  1  0
  2  3  2  0
  4  2  1  0
  5  7  1  0
  5  4  1  0
  5  6  1  6
  7 14  1  0
  7  8  2  0
  9 10  1  0
 10 11  1  0
 12 11  1  0
 13 12  1  1
 14 13  1  0
 15 17  1  0
 15 13  1  0
 16 15  2  0
 17 21  1  0
 18 19  1  0
 18 17  1  0
 19 20  1  0
 20 21  1  0
 21 22  1  1
 22 24  1  0
 23 22  2  0
M  END
$$$$
