NMP.pdb
     RDKit          3D

 24 24  0  0  1  0  0  0  0  0999 V2000
   20.1046  -22.1455  -17.8957 N   0  0  0  0  0  0  0  0  0  0  0  0
   19.6101  -20.9670  -17.3116 C   0  0  0  0  0  0  0  0  0  0  0  0
   18.3995  -20.6783  -17.3803 O   0  0  0  0  0  0  0  0  0  0  0  0
   20.5308  -20.0502  -16.6036 C   0  0  0  0  0  0  0  0  0  0  0  0
   20.7258  -20.5200  -15.1727 C   0  0  2  0  0  0  0  0  0  0  0  0
   19.5983  -20.0669  -14.4188 N   0  0  0  0  0  0  0  0  0  0  0  0
   22.0260  -19.9750  -14.6827 C   0  0  0  0  0  0  0  0  0  0  0  0
   22.3016  -18.7571  -14.8355 O   0  0  0  0  0  0  0  0  0  0  0  0
   24.6703  -20.8382   -9.2021 C   0  0  0  0  0  0  0  0  0  0  0  0
   26.2454  -20.9615  -10.0639 S   0  0  0  0  0  0  0  0  0  0  0  0
   26.0601  -20.4508  -11.8327 C   0  0  0  0  0  0  0  0  0  0  0  0
   24.6407  -20.6499  -12.2615 C   0  0  0  0  0  0  0  0  0  0  0  0
   24.2911  -20.1695  -13.6412 C   0  0  2  0  0  0  0  0  0  0  0  0
   23.0052  -20.7790  -14.0305 N   0  0  0  0  0  0  0  0  0  0  0  0
   25.3182  -20.5907  -14.6036 C   0  0  0  0  0  0  0  0  0  0  0  0
   24.8801  -21.6038  -15.3313 O   0  0  0  0  0  0  0  0  0  0  0  0
   26.5961  -20.1216  -14.8519 N   0  0  0  0  0  0  0  0  0  0  0  0
   27.4795  -19.2311  -14.2033 C   0  0  0  0  0  0  0  0  0  0  0  0
   27.7338  -18.2390  -15.3684 C   0  0  0  0  0  0  0  0  0  0  0  0
   27.9264  -19.2391  -16.5145 C   0  0  0  0  0  0  0  0  0  0  0  0
   27.3909  -20.5663  -16.0196 C   0  0  1  0  0  0  0  0  0  0  0  0
   28.4299  -21.5257  -15.6381 C   0  0  0  0  0  0  0  0  0  0  0  0
   28.7228  -21.8815  -14.4748 O   0  0  0  0  0  0  0  0  0  0  0  0
   29.1649  -22.0993  -16.6678 O   0  0  0  0  0  0  0  0  0  0  0  0
  1  2  1  0
  2  3  2  0
  4  2  1  0
  5  7  1  0
  5  4  1  0
  5  6  1  1
  7 14  1  0
  7  8  2  0
  9 10  1  0
 10 11  1  0
 12 11  1  0
 13 12  1  1
 14 13  1  0
 15 17  1  0
 15 13  1  0
 16 15  2  0
 17 21  1  0
 18 19  1  0
 18 17  1  0
 19 20  1  0
 20 21  1  0
 21 22  1  1
 22 24  1  0
 23 22  2  0
M  END
$$$$
