NMP.pdb
     RDKit          3D

 24 24  0  0  1  0  0  0  0  0999 V2000
   19.6540  -19.1680  -14.7685 N   0  0  0  0  0  0  0  0  0  0  0  0
   20.5951  -18.6162  -15.6541 C   0  0  0  0  0  0  0  0  0  0  0  0
   20.6643  -19.0036  -16.8368 O   0  0  0  0  0  0  0  0  0  0  0  0
   21.5205  -17.5608  -15.1860 C   0  0  0  0  0  0  0  0  0  0  0  0
   21.2290  -16.2603  -15.9142 C   0  0  2  0  0  0  0  0  0  0  0  0
   21.4435  -16.4961  -17.3082 N   0  0  0  0  0  0  0  0  0  0  0  0
   22.1191  -15.2055  -15.3463 C   0  0  0  0  0  0  0  0  0  0  0  0
   22.0667  -14.9226  -14.1216 O   0  0  0  0  0  0  0  0  0  0  0  0
   28.5323  -13.8149  -15.2992 C   0  0  0  0  0  0  0  0  0  0  0  0
   27.7762  -12.5221  -16.2971 S   0  0  0  0  0  0  0  0  0  0  0  0
   26.0514  -12.1811  -15.7204 C   0  0  0  0  0  0  0  0  0  0  0  0
   25.1424  -13.2674  -16.2019 C   0  0  0  0  0  0  0  0  0  0  0  0
   23.8110  -13.3717  -15.5140 C   0  0  2  0  0  0  0  0  0  0  0  0
   23.0555  -14.4763  -16.1350 N   0  0  0  0  0  0  0  0  0  0  0  0
   23.0482  -12.1281  -15.6879 C   0  0  0  0  0  0  0  0  0  0  0  0
   22.2353  -12.2274  -16.7257 O   0  0  0  0  0  0  0  0  0  0  0  0
   23.0483  -10.9401  -14.9784 N   0  0  0  0  0  0  0  0  0  0  0  0
   23.7912  -10.4205  -13.8958 C   0  0  0  0  0  0  0  0  0  0  0  0
   22.6245  -10.0892  -12.9285 C   0  0  0  0  0  0  0  0  0  0  0  0
   21.6489   -9.4450  -13.9205 C   0  0  0  0  0  0  0  0  0  0  0  0
   22.1339   -9.8218  -15.3046 C   0  0  1  0  0  0  0  0  0  0  0  0
   22.8255   -8.7410  -16.0110 C   0  0  0  0  0  0  0  0  0  0  0  0
   24.0495   -8.6813  -16.2637 O   0  0  0  0  0  0  0  0  0  0  0  0
   22.0480   -7.6746  -16.4445 O   0  0  0  0  0  0  0  0  0  0  0  0
  1  2  1  0
  2  3  2  0
  4  2  1  0
  5  7  1  0
  5  4  1  0
  5  6  1  6
  7 14  1  0
  7  8  2  0
  9 10  1  0
 10 11  1  0
 12 11  1  0
 13 12  1  6
 14 13  1  0
 15 17  1  0
 15 13  1  0
 16 15  2  0
 17 21  1  0
 18 19  1  0
 18 17  1  0
 19 20  1  0
 20 21  1  0
 21 22  1  1
 22 24  1  0
 23 22  2  0
M  END
$$$$
