NMP.pdb
     RDKit          3D

 24 24  0  0  1  0  0  0  0  0999 V2000
   25.5963  -14.5478  -17.5135 N   0  0  0  0  0  0  0  0  0  0  0  0
   25.3853  -15.3078  -16.3506 C   0  0  0  0  0  0  0  0  0  0  0  0
   24.9204  -14.7837  -15.3197 O   0  0  0  0  0  0  0  0  0  0  0  0
   25.7161  -16.7499  -16.3398 C   0  0  0  0  0  0  0  0  0  0  0  0
   26.9466  -16.9895  -15.4825 C   0  0  2  0  0  0  0  0  0  0  0  0
   28.0907  -16.8155  -16.3225 N   0  0  0  0  0  0  0  0  0  0  0  0
   26.8410  -18.3590  -14.8986 C   0  0  0  0  0  0  0  0  0  0  0  0
   27.0268  -19.3726  -15.6200 O   0  0  0  0  0  0  0  0  0  0  0  0
   25.6072  -19.6642   -8.4515 C   0  0  0  0  0  0  0  0  0  0  0  0
   26.4828  -21.1123   -9.0640 S   0  0  0  0  0  0  0  0  0  0  0  0
   26.2299  -21.3019  -10.8870 C   0  0  0  0  0  0  0  0  0  0  0  0
   26.5097  -19.9984  -11.5660 C   0  0  0  0  0  0  0  0  0  0  0  0
   26.3503  -19.9809  -13.0596 C   0  0  2  0  0  0  0  0  0  0  0  0
   26.5324  -18.5935  -13.5273 N   0  0  0  0  0  0  0  0  0  0  0  0
   25.0013  -20.4268  -13.4338 C   0  0  0  0  0  0  0  0  0  0  0  0
   24.2230  -19.3862  -13.6773 O   0  0  0  0  0  0  0  0  0  0  0  0
   24.4508  -21.6898  -13.5626 N   0  0  0  0  0  0  0  0  0  0  0  0
   24.8737  -23.0022  -13.2580 C   0  0  0  0  0  0  0  0  0  0  0  0
   24.7183  -23.6463  -14.6607 C   0  0  0  0  0  0  0  0  0  0  0  0
   23.3578  -23.0615  -15.0581 C   0  0  0  0  0  0  0  0  0  0  0  0
   23.0927  -21.9106  -14.1104 C   0  0  1  0  0  0  0  0  0  0  0  0
   22.1228  -22.2153  -13.0559 C   0  0  0  0  0  0  0  0  0  0  0  0
   22.3830  -22.4992  -11.8654 O   0  0  0  0  0  0  0  0  0  0  0  0
   20.7798  -22.1871  -13.4096 O   0  0  0  0  0  0  0  0  0  0  0  0
  1  2  1  0
  2  3  2  0
  4  2  1  0
  5  7  1  0
  5  4  1  0
  5  6  1  6
  7 14  1  0
  7  8  2  0
  9 10  1  0
 10 11  1  0
 12 11  1  0
 13 12  1  1
 14 13  1  0
 15 17  1  0
 15 13  1  0
 16 15  2  0
 17 21  1  0
 18 19  1  0
 18 17  1  0
 19 20  1  0
 20 21  1  0
 21 22  1  1
 22 24  1  0
 23 22  2  0
M  END
$$$$
