NMP.pdb
     RDKit          3D

 24 24  0  0  1  0  0  0  0  0999 V2000
   17.7661  -15.1701  -19.8513 N   0  0  0  0  0  0  0  0  0  0  0  0
   17.4751  -13.8892  -19.3523 C   0  0  0  0  0  0  0  0  0  0  0  0
   16.6716  -13.1405  -19.9418 O   0  0  0  0  0  0  0  0  0  0  0  0
   18.1262  -13.4136  -18.1116 C   0  0  0  0  0  0  0  0  0  0  0  0
   19.0747  -14.4775  -17.5874 C   0  0  2  0  0  0  0  0  0  0  0  0
   18.2762  -15.5027  -16.9908 N   0  0  0  0  0  0  0  0  0  0  0  0
   20.0151  -13.8242  -16.6301 C   0  0  0  0  0  0  0  0  0  0  0  0
   19.7432  -13.7816  -15.4026 O   0  0  0  0  0  0  0  0  0  0  0  0
   27.5719  -12.5436  -14.9472 C   0  0  0  0  0  0  0  0  0  0  0  0
   26.2514  -13.2143  -15.9695 S   0  0  0  0  0  0  0  0  0  0  0  0
   24.6067  -12.5847  -15.4022 C   0  0  0  0  0  0  0  0  0  0  0  0
   23.5304  -13.1491  -16.2747 C   0  0  0  0  0  0  0  0  0  0  0  0
   22.1367  -12.6528  -16.0140 C   0  0  2  0  0  0  0  0  0  0  0  0
   21.2429  -13.2268  -17.0378 N   0  0  0  0  0  0  0  0  0  0  0  0
   22.0887  -11.1881  -16.1199 C   0  0  0  0  0  0  0  0  0  0  0  0
   21.8285  -10.8244  -17.3640 O   0  0  0  0  0  0  0  0  0  0  0  0
   22.2638  -10.1898  -15.1779 N   0  0  0  0  0  0  0  0  0  0  0  0
   22.6777  -10.1479  -13.8285 C   0  0  0  0  0  0  0  0  0  0  0  0
   21.4471   -9.4323  -13.2120 C   0  0  0  0  0  0  0  0  0  0  0  0
   21.2361   -8.3390  -14.2661 C   0  0  0  0  0  0  0  0  0  0  0  0
   22.0298   -8.7601  -15.4850 C   0  0  1  0  0  0  0  0  0  0  0  0
   23.2862   -8.0284  -15.6628 C   0  0  0  0  0  0  0  0  0  0  0  0
   23.4083   -6.8029  -15.8840 O   0  0  0  0  0  0  0  0  0  0  0  0
   24.4605   -8.7654  -15.5781 O   0  0  0  0  0  0  0  0  0  0  0  0
  1  2  1  0
  2  3  2  0
  4  2  1  0
  5  7  1  0
  5  4  1  0
  5  6  1  1
  7 14  1  0
  7  8  2  0
  9 10  1  0
 10 11  1  0
 12 11  1  0
 13 12  1  6
 14 13  1  0
 15 17  1  0
 15 13  1  0
 16 15  2  0
 17 21  1  0
 18 19  1  0
 18 17  1  0
 19 20  1  0
 20 21  1  0
 21 22  1  1
 22 24  1  0
 23 22  2  0
M  END
$$$$
