NMP.pdb
     RDKit          3D

 24 24  0  0  1  0  0  0  0  0999 V2000
   18.9412  -22.3852  -15.7251 N   0  0  0  0  0  0  0  0  0  0  0  0
   20.0584  -22.4746  -16.5726 C   0  0  0  0  0  0  0  0  0  0  0  0
   20.2270  -23.4683  -17.3059 O   0  0  0  0  0  0  0  0  0  0  0  0
   21.0535  -21.3799  -16.6020 C   0  0  0  0  0  0  0  0  0  0  0  0
   20.8035  -20.4257  -15.4473 C   0  0  2  0  0  0  0  0  0  0  0  0
   19.9133  -19.4109  -15.9192 N   0  0  0  0  0  0  0  0  0  0  0  0
   22.1231  -19.8950  -14.9950 C   0  0  0  0  0  0  0  0  0  0  0  0
   22.6593  -18.9297  -15.5978 O   0  0  0  0  0  0  0  0  0  0  0  0
   26.0200  -22.1319   -9.6434 C   0  0  0  0  0  0  0  0  0  0  0  0
   25.8723  -20.3419   -9.7566 S   0  0  0  0  0  0  0  0  0  0  0  0
   25.7381  -19.8114  -11.5242 C   0  0  0  0  0  0  0  0  0  0  0  0
   24.4014  -20.2124  -12.0634 C   0  0  0  0  0  0  0  0  0  0  0  0
   24.1149  -19.8203  -13.4850 C   0  0  2  0  0  0  0  0  0  0  0  0
   22.8344  -20.4346  -13.8844 N   0  0  0  0  0  0  0  0  0  0  0  0
   25.1711  -20.3211  -14.3751 C   0  0  0  0  0  0  0  0  0  0  0  0
   24.7867  -21.4420  -14.9612 O   0  0  0  0  0  0  0  0  0  0  0  0
   26.4302  -19.8327  -14.6769 N   0  0  0  0  0  0  0  0  0  0  0  0
   27.2652  -18.8230  -14.1504 C   0  0  0  0  0  0  0  0  0  0  0  0
   27.4903  -17.9885  -15.4386 C   0  0  0  0  0  0  0  0  0  0  0  0
   27.7411  -19.1257  -16.4360 C   0  0  0  0  0  0  0  0  0  0  0  0
   27.2584  -20.3959  -15.7678 C   0  0  1  0  0  0  0  0  0  0  0  0
   28.3337  -21.2463  -15.2519 C   0  0  0  0  0  0  0  0  0  0  0  0
   28.6351  -21.4172  -14.0496 O   0  0  0  0  0  0  0  0  0  0  0  0
   29.0967  -21.9325  -16.1881 O   0  0  0  0  0  0  0  0  0  0  0  0
  1  2  1  0
  2  3  2  0
  4  2  1  0
  5  7  1  0
  5  4  1  0
  5  6  1  6
  7 14  1  0
  7  8  2  0
  9 10  1  0
 10 11  1  0
 12 11  1  0
 13 12  1  1
 14 13  1  0
 15 17  1  0
 15 13  1  0
 16 15  2  0
 17 21  1  0
 18 19  1  0
 18 17  1  0
 19 20  1  0
 20 21  1  0
 21 22  1  1
 22 24  1  0
 23 22  2  0
M  END
$$$$
