NMP.pdb
     RDKit          3D

 24 24  0  0  1  0  0  0  0  0999 V2000
   27.3146  -24.8174  -16.0104 N   0  0  0  0  0  0  0  0  0  0  0  0
   28.2459  -23.8048  -16.2967 C   0  0  0  0  0  0  0  0  0  0  0  0
   27.9193  -22.6030  -16.2475 O   0  0  0  0  0  0  0  0  0  0  0  0
   29.6350  -24.1599  -16.6625 C   0  0  0  0  0  0  0  0  0  0  0  0
   29.8218  -25.6645  -16.5754 C   0  0  2  0  0  0  0  0  0  0  0  0
   30.2530  -25.9633  -15.2451 N   0  0  0  0  0  0  0  0  0  0  0  0
   30.8052  -26.0676  -17.6233 C   0  0  0  0  0  0  0  0  0  0  0  0
   30.5791  -25.8179  -18.8354 O   0  0  0  0  0  0  0  0  0  0  0  0
   35.4944  -22.1948  -19.3222 C   0  0  0  0  0  0  0  0  0  0  0  0
   35.6240  -23.8568  -18.6441 S   0  0  0  0  0  0  0  0  0  0  0  0
   34.0399  -24.7822  -18.8844 C   0  0  0  0  0  0  0  0  0  0  0  0
   34.1605  -26.1416  -18.2716 C   0  0  0  0  0  0  0  0  0  0  0  0
   32.9671  -27.0425  -18.4161 C   0  0  2  0  0  0  0  0  0  0  0  0
   32.0248  -26.7401  -17.3220 N   0  0  0  0  0  0  0  0  0  0  0  0
   33.3743  -28.4500  -18.3065 C   0  0  0  0  0  0  0  0  0  0  0  0
   33.2605  -28.8666  -17.0569 O   0  0  0  0  0  0  0  0  0  0  0  0
   33.8317  -29.3532  -19.2498 N   0  0  0  0  0  0  0  0  0  0  0  0
   34.1385  -29.2936  -20.6268 C   0  0  0  0  0  0  0  0  0  0  0  0
   33.2089  -30.4251  -21.1388 C   0  0  0  0  0  0  0  0  0  0  0  0
   33.4794  -31.4816  -20.0612 C   0  0  0  0  0  0  0  0  0  0  0  0
   34.1504  -30.7593  -18.9118 C   0  0  1  0  0  0  0  0  0  0  0  0
   35.5951  -30.9849  -18.8253 C   0  0  0  0  0  0  0  0  0  0  0  0
   36.4945  -30.1577  -19.0945 O   0  0  0  0  0  0  0  0  0  0  0  0
   36.0113  -32.2410  -18.4029 O   0  0  0  0  0  0  0  0  0  0  0  0
  1  2  1  0
  2  3  2  0
  4  2  1  0
  5  7  1  0
  5  4  1  0
  5  6  1  1
  7 14  1  0
  7  8  2  0
  9 10  1  0
 10 11  1  0
 12 11  1  0
 13 12  1  1
 14 13  1  0
 15 17  1  0
 15 13  1  0
 16 15  2  0
 17 21  1  0
 18 19  1  0
 18 17  1  0
 19 20  1  0
 20 21  1  0
 21 22  1  6
 22 24  1  0
 23 22  2  0
M  END
$$$$
