NMP.pdb
     RDKit          3D

 24 24  0  0  1  0  0  0  0  0999 V2000
   19.9163  -16.0441  -20.3203 N   0  0  0  0  0  0  0  0  0  0  0  0
   19.6600  -14.6628  -20.2977 C   0  0  0  0  0  0  0  0  0  0  0  0
   19.2002  -14.0812  -21.2996 O   0  0  0  0  0  0  0  0  0  0  0  0
   19.9365  -13.8795  -19.0731 C   0  0  0  0  0  0  0  0  0  0  0  0
   20.5329  -14.7827  -18.0079 C   0  0  2  0  0  0  0  0  0  0  0  0
   19.5164  -15.7102  -17.6187 N   0  0  0  0  0  0  0  0  0  0  0  0
   21.0102  -13.9198  -16.8876 C   0  0  0  0  0  0  0  0  0  0  0  0
   20.1980  -13.4848  -16.0310 O   0  0  0  0  0  0  0  0  0  0  0  0
   26.9370  -14.6370  -16.9205 C   0  0  0  0  0  0  0  0  0  0  0  0
   26.5889  -14.2750  -15.1923 S   0  0  0  0  0  0  0  0  0  0  0  0
   24.7638  -14.1792  -14.9032 C   0  0  0  0  0  0  0  0  0  0  0  0
   24.2541  -12.8554  -15.3783 C   0  0  0  0  0  0  0  0  0  0  0  0
   22.7665  -12.7414  -15.5533 C   0  0  2  0  0  0  0  0  0  0  0  0
   22.3762  -13.5477  -16.7256 N   0  0  0  0  0  0  0  0  0  0  0  0
   22.3875  -11.3435  -15.8006 C   0  0  0  0  0  0  0  0  0  0  0  0
   22.2741  -11.1196  -17.0986 O   0  0  0  0  0  0  0  0  0  0  0  0
   22.1463  -10.2879  -14.9391 N   0  0  0  0  0  0  0  0  0  0  0  0
   22.1921  -10.1073  -13.5394 C   0  0  0  0  0  0  0  0  0  0  0  0
   20.7425   -9.6073  -13.3047 C   0  0  0  0  0  0  0  0  0  0  0  0
   20.6224   -8.6224  -14.4737 C   0  0  0  0  0  0  0  0  0  0  0  0
   21.7583   -8.9430  -15.4224 C   0  0  1  0  0  0  0  0  0  0  0  0
   22.8756   -7.9979  -15.3589 C   0  0  0  0  0  0  0  0  0  0  0  0
   24.0121   -8.2206  -14.8854 O   0  0  0  0  0  0  0  0  0  0  0  0
   22.6545   -6.7272  -15.8746 O   0  0  0  0  0  0  0  0  0  0  0  0
  1  2  1  0
  2  3  2  0
  4  2  1  0
  5  7  1  0
  5  4  1  0
  5  6  1  1
  7 14  1  0
  7  8  2  0
  9 10  1  0
 10 11  1  0
 12 11  1  0
 13 12  1  6
 14 13  1  0
 15 17  1  0
 15 13  1  0
 16 15  2  0
 17 21  1  0
 18 19  1  0
 18 17  1  0
 19 20  1  0
 20 21  1  0
 21 22  1  1
 22 24  1  0
 23 22  2  0
M  END
$$$$
