NMP.pdb
     RDKit          3D

 24 24  0  0  1  0  0  0  0  0999 V2000
   22.6750  -12.2093  -19.3903 N   0  0  0  0  0  0  0  0  0  0  0  0
   22.1833  -10.9640  -19.8168 C   0  0  0  0  0  0  0  0  0  0  0  0
   22.4929  -10.5022  -20.9324 O   0  0  0  0  0  0  0  0  0  0  0  0
   21.2856  -10.1830  -18.9373 C   0  0  0  0  0  0  0  0  0  0  0  0
   21.1014  -10.9077  -17.6155 C   0  0  2  0  0  0  0  0  0  0  0  0
   20.1526  -11.9552  -17.8333 N   0  0  0  0  0  0  0  0  0  0  0  0
   20.6592   -9.9073  -16.5999 C   0  0  0  0  0  0  0  0  0  0  0  0
   19.4832   -9.4610  -16.6189 O   0  0  0  0  0  0  0  0  0  0  0  0
   22.6056  -10.0947  -10.7188 C   0  0  0  0  0  0  0  0  0  0  0  0
   22.1309   -8.3631  -10.5962 S   0  0  0  0  0  0  0  0  0  0  0  0
   21.2804   -7.8112  -12.1439 C   0  0  0  0  0  0  0  0  0  0  0  0
   21.6214   -8.7477  -13.2596 C   0  0  0  0  0  0  0  0  0  0  0  0
   20.9814   -8.4584  -14.5875 C   0  0  2  0  0  0  0  0  0  0  0  0
   21.5185   -9.4121  -15.5767 N   0  0  0  0  0  0  0  0  0  0  0  0
   21.3105   -7.0953  -15.0262 C   0  0  0  0  0  0  0  0  0  0  0  0
   22.4555   -7.0877  -15.6870 O   0  0  0  0  0  0  0  0  0  0  0  0
   20.6496   -5.8904  -14.8645 N   0  0  0  0  0  0  0  0  0  0  0  0
   19.4733   -5.4744  -14.2033 C   0  0  0  0  0  0  0  0  0  0  0  0
   18.7302   -4.8254  -15.4004 C   0  0  0  0  0  0  0  0  0  0  0  0
   19.8940   -4.0514  -16.0308 C   0  0  0  0  0  0  0  0  0  0  0  0
   21.1624   -4.6225  -15.4325 C   0  0  1  0  0  0  0  0  0  0  0  0
   21.7746   -3.7745  -14.4070 C   0  0  0  0  0  0  0  0  0  0  0  0
   22.4505   -2.7400  -14.6035 O   0  0  0  0  0  0  0  0  0  0  0  0
   21.5881   -4.1538  -13.0838 O   0  0  0  0  0  0  0  0  0  0  0  0
  1  2  1  0
  2  3  2  0
  4  2  1  0
  5  7  1  0
  5  4  1  0
  5  6  1  6
  7 14  1  0
  7  8  2  0
  9 10  1  0
 10 11  1  0
 12 11  1  0
 13 12  1  1
 14 13  1  0
 15 17  1  0
 15 13  1  0
 16 15  2  0
 17 21  1  0
 18 19  1  0
 18 17  1  0
 19 20  1  0
 20 21  1  0
 21 22  1  1
 22 24  1  0
 23 22  2  0
M  END
$$$$
