NMP.pdb
     RDKit          3D

 24 24  0  0  1  0  0  0  0  0999 V2000
   30.0977  -17.9445  -17.8892 N   0  0  0  0  0  0  0  0  0  0  0  0
   29.9232  -19.3227  -18.1002 C   0  0  0  0  0  0  0  0  0  0  0  0
   30.2747  -19.8553  -19.1709 O   0  0  0  0  0  0  0  0  0  0  0  0
   29.3150  -20.1612  -17.0437 C   0  0  0  0  0  0  0  0  0  0  0  0
   27.9072  -19.6750  -16.7470 C   0  0  2  0  0  0  0  0  0  0  0  0
   28.0234  -18.4056  -16.0990 N   0  0  0  0  0  0  0  0  0  0  0  0
   27.2299  -20.7091  -15.9108 C   0  0  0  0  0  0  0  0  0  0  0  0
   27.1282  -21.8929  -16.3243 O   0  0  0  0  0  0  0  0  0  0  0  0
   24.3342  -20.8781   -9.4757 C   0  0  0  0  0  0  0  0  0  0  0  0
   26.0494  -20.5800   -9.9314 S   0  0  0  0  0  0  0  0  0  0  0  0
   26.1874  -20.2156  -11.7402 C   0  0  0  0  0  0  0  0  0  0  0  0
   26.3315  -21.4985  -12.4962 C   0  0  0  0  0  0  0  0  0  0  0  0
   25.9006  -21.4725  -13.9351 C   0  0  2  0  0  0  0  0  0  0  0  0
   26.6736  -20.4255  -14.6298 N   0  0  0  0  0  0  0  0  0  0  0  0
   24.4724  -21.1422  -14.0340 C   0  0  0  0  0  0  0  0  0  0  0  0
   24.3150  -19.8687  -14.3523 O   0  0  0  0  0  0  0  0  0  0  0  0
   23.3346  -21.9093  -13.8557 N   0  0  0  0  0  0  0  0  0  0  0  0
   23.0730  -23.2251  -13.4151 C   0  0  0  0  0  0  0  0  0  0  0  0
   22.2838  -23.7476  -14.6442 C   0  0  0  0  0  0  0  0  0  0  0  0
   21.3752  -22.5381  -14.8941 C   0  0  0  0  0  0  0  0  0  0  0  0
   21.9752  -21.3840  -14.1187 C   0  0  1  0  0  0  0  0  0  0  0  0
   21.2654  -21.0637  -12.8781 C   0  0  0  0  0  0  0  0  0  0  0  0
   21.6633  -21.2906  -11.7137 O   0  0  0  0  0  0  0  0  0  0  0  0
   20.0272  -20.4467  -13.0033 O   0  0  0  0  0  0  0  0  0  0  0  0
  1  2  1  0
  2  3  2  0
  4  2  1  0
  5  7  1  0
  5  4  1  0
  5  6  1  1
  7 14  1  0
  7  8  2  0
  9 10  1  0
 10 11  1  0
 12 11  1  0
 13 12  1  1
 14 13  1  0
 15 17  1  0
 15 13  1  0
 16 15  2  0
 17 21  1  0
 18 19  1  0
 18 17  1  0
 19 20  1  0
 20 21  1  0
 21 22  1  1
 22 24  1  0
 23 22  2  0
M  END
$$$$
