NMP.pdb
     RDKit          3D

 24 24  0  0  1  0  0  0  0  0999 V2000
   23.5982  -15.9353  -21.8404 N   0  0  0  0  0  0  0  0  0  0  0  0
   22.8502  -14.8897  -21.2733 C   0  0  0  0  0  0  0  0  0  0  0  0
   21.8282  -14.4546  -21.8388 O   0  0  0  0  0  0  0  0  0  0  0  0
   23.2733  -14.2906  -19.9881 C   0  0  0  0  0  0  0  0  0  0  0  0
   24.5468  -14.9602  -19.5023 C   0  0  2  0  0  0  0  0  0  0  0  0
   24.1861  -16.2530  -19.0090 N   0  0  0  0  0  0  0  0  0  0  0  0
   25.1633  -14.0799  -18.4667 C   0  0  0  0  0  0  0  0  0  0  0  0
   24.8019  -14.1648  -17.2647 O   0  0  0  0  0  0  0  0  0  0  0  0
   31.3511  -12.2468  -18.2892 C   0  0  0  0  0  0  0  0  0  0  0  0
   30.5791  -10.7329  -17.6970 S   0  0  0  0  0  0  0  0  0  0  0  0
   28.8770  -11.0779  -17.0587 C   0  0  0  0  0  0  0  0  0  0  0  0
   28.1482  -11.9493  -18.0321 C   0  0  0  0  0  0  0  0  0  0  0  0
   26.7307  -12.2983  -17.6778 C   0  0  2  0  0  0  0  0  0  0  0  0
   26.1702  -13.1179  -18.7690 N   0  0  0  0  0  0  0  0  0  0  0  0
   25.9224  -11.0783  -17.5471 C   0  0  0  0  0  0  0  0  0  0  0  0
   25.3653  -10.7685  -18.7053 O   0  0  0  0  0  0  0  0  0  0  0  0
   25.6691  -10.2520  -16.4665 N   0  0  0  0  0  0  0  0  0  0  0  0
   26.1440  -10.1652  -15.1395 C   0  0  0  0  0  0  0  0  0  0  0  0
   24.7924  -10.2608  -14.3840 C   0  0  0  0  0  0  0  0  0  0  0  0
   23.9520   -9.3136  -15.2484 C   0  0  0  0  0  0  0  0  0  0  0  0
   24.7177   -9.1195  -16.5404 C   0  0  1  0  0  0  0  0  0  0  0  0
   25.4097   -7.8322  -16.6380 C   0  0  0  0  0  0  0  0  0  0  0  0
   26.6418   -7.6403  -16.5353 O   0  0  0  0  0  0  0  0  0  0  0  0
   24.6224   -6.7110  -16.8673 O   0  0  0  0  0  0  0  0  0  0  0  0
  1  2  1  0
  2  3  2  0
  4  2  1  0
  5  7  1  0
  5  4  1  0
  5  6  1  1
  7 14  1  0
  7  8  2  0
  9 10  1  0
 10 11  1  0
 12 11  1  0
 13 12  1  6
 14 13  1  0
 15 17  1  0
 15 13  1  0
 16 15  2  0
 17 21  1  0
 18 19  1  0
 18 17  1  0
 19 20  1  0
 20 21  1  0
 21 22  1  1
 22 24  1  0
 23 22  2  0
M  END
$$$$
