NMP.pdb
     RDKit          3D

 24 24  0  0  1  0  0  0  0  0999 V2000
   20.3619  -13.2910  -22.0626 N   0  0  0  0  0  0  0  0  0  0  0  0
   19.6301  -12.2534  -21.4607 C   0  0  0  0  0  0  0  0  0  0  0  0
   19.0298  -11.4088  -22.1535 O   0  0  0  0  0  0  0  0  0  0  0  0
   19.5654  -12.1533  -19.9858 C   0  0  0  0  0  0  0  0  0  0  0  0
   20.4281  -13.2341  -19.3581 C   0  0  2  0  0  0  0  0  0  0  0  0
   19.5592  -14.3036  -18.9763 N   0  0  0  0  0  0  0  0  0  0  0  0
   21.1632  -12.6270  -18.2098 C   0  0  0  0  0  0  0  0  0  0  0  0
   20.5627  -12.3763  -17.1331 O   0  0  0  0  0  0  0  0  0  0  0  0
   28.1880  -12.0466  -14.6430 C   0  0  0  0  0  0  0  0  0  0  0  0
   27.1469  -12.5755  -16.0124 S   0  0  0  0  0  0  0  0  0  0  0  0
   25.4686  -11.8066  -15.8875 C   0  0  0  0  0  0  0  0  0  0  0  0
   24.6055  -12.3137  -16.9994 C   0  0  0  0  0  0  0  0  0  0  0  0
   23.2083  -11.7651  -17.0574 C   0  0  2  0  0  0  0  0  0  0  0  0
   22.5501  -12.3042  -18.2627 N   0  0  0  0  0  0  0  0  0  0  0  0
   23.2393  -10.2996  -17.1578 C   0  0  0  0  0  0  0  0  0  0  0  0
   23.3182   -9.9261  -18.4236 O   0  0  0  0  0  0  0  0  0  0  0  0
   23.2022   -9.3088  -16.1927 N   0  0  0  0  0  0  0  0  0  0  0  0
   23.1967   -9.2860  -14.7808 C   0  0  0  0  0  0  0  0  0  0  0  0
   21.8975   -8.4705  -14.5494 C   0  0  0  0  0  0  0  0  0  0  0  0
   22.0959   -7.3745  -15.6031 C   0  0  0  0  0  0  0  0  0  0  0  0
   23.1820   -7.8683  -16.5357 C   0  0  1  0  0  0  0  0  0  0  0  0
   24.4869   -7.2387  -16.3206 C   0  0  0  0  0  0  0  0  0  0  0  0
   25.4942   -7.7722  -15.8044 O   0  0  0  0  0  0  0  0  0  0  0  0
   24.6229   -5.9181  -16.7292 O   0  0  0  0  0  0  0  0  0  0  0  0
  1  2  1  0
  2  3  2  0
  4  2  1  0
  5  7  1  0
  5  4  1  0
  5  6  1  1
  7 14  1  0
  7  8  2  0
  9 10  1  0
 10 11  1  0
 12 11  1  0
 13 12  1  6
 14 13  1  0
 15 17  1  0
 15 13  1  0
 16 15  2  0
 17 21  1  0
 18 19  1  0
 18 17  1  0
 19 20  1  0
 20 21  1  0
 21 22  1  1
 22 24  1  0
 23 22  2  0
M  END
$$$$
