HTW.pdb
     RDKit          3D

 32 34  0  0  1  0  0  0  0  0999 V2000
   10.1875  -17.5152   17.1471 N   0  0  0  0  0  0  0  0  0  0  0  0
   10.5230  -17.8657   18.5353 C   0  0  1  0  0  0  0  0  0  0  0  0
   12.0328  -18.0920   18.5209 C   0  0  0  0  0  0  0  0  0  0  0  0
   12.3456  -19.3995   17.8893 C   0  0  0  0  0  0  0  0  0  0  0  0
   11.4811  -20.3478   17.3946 C   0  0  0  0  0  0  0  0  0  0  0  0
   12.1769  -21.3958   16.9048 N   0  0  0  0  0  0  0  0  0  0  0  0
   13.4835  -21.1192   17.0853 C   0  0  0  0  0  0  0  0  0  0  0  0
   13.5840  -19.9181   17.6775 N   0  0  0  0  0  0  0  0  0  0  0  0
   10.1727  -16.7167   19.4090 C   0  0  0  0  0  0  0  0  0  0  0  0
   10.7547  -15.6173   19.2201 O   0  0  0  0  0  0  0  0  0  0  0  0
    6.7312  -15.1412   20.4327 C   0  0  0  0  0  0  0  0  0  0  0  0
    7.4057  -15.7040   21.6660 C   0  0  1  0  0  0  0  0  0  0  0  0
    6.9010  -16.9260   22.0363 O   0  0  0  0  0  0  0  0  0  0  0  0
    8.8979  -15.7541   21.3632 C   0  0  2  0  0  0  0  0  0  0  0  0
    9.2124  -16.8165   20.4396 N   0  0  0  0  0  0  0  0  0  0  0  0
    9.6753  -15.8273   22.6094 C   0  0  0  0  0  0  0  0  0  0  0  0
   10.8480  -15.3839   22.7116 O   0  0  0  0  0  0  0  0  0  0  0  0
    9.0944  -16.4222   23.7620 N   0  0  0  0  0  0  0  0  0  0  0  0
    9.7289  -16.4286   25.0625 C   0  0  1  0  0  0  0  0  0  0  0  0
    9.7547  -15.0272   25.6668 C   0  0  0  0  0  0  0  0  0  0  0  0
    8.3587  -14.5656   25.8838 C   0  0  0  0  0  0  0  0  0  0  0  0
    7.1912  -15.3150   25.8323 C   0  0  0  0  0  0  0  0  0  0  0  0
    6.1501  -14.5360   26.0833 N   0  0  0  0  0  0  0  0  0  0  0  0
    6.5564  -13.2528   26.3108 C   0  0  0  0  0  0  0  0  0  0  0  0
    5.8906  -12.0820   26.6089 C   0  0  0  0  0  0  0  0  0  0  0  0
    6.5716  -10.8977   26.7916 C   0  0  0  0  0  0  0  0  0  0  0  0
    7.9472  -10.9306   26.6642 C   0  0  0  0  0  0  0  0  0  0  0  0
    8.6213  -12.0962   26.3665 C   0  0  0  0  0  0  0  0  0  0  0  0
    7.9297  -13.2828   26.1843 C   0  0  0  0  0  0  0  0  0  0  0  0
    9.0926  -17.3886   25.9854 C   0  0  0  0  0  0  0  0  0  0  0  0
    9.5668  -17.5405   27.1562 O   0  0  0  0  0  0  0  0  0  0  0  0
    7.9874  -18.1558   25.6603 O   0  0  0  0  0  0  0  0  0  0  0  0
  2  3  1  0
  2  1  1  6
  4  5  2  0
  4  3  1  0
  6  5  1  0
  7  8  2  0
  7  6  1  0
  8  4  1  0
  9  2  1  0
 10  9  2  0
 12 14  1  0
 12 11  1  6
 13 12  1  0
 14 15  1  6
 15  9  1  0
 16 14  1  0
 16 17  2  0
 18 16  1  0
 19 18  1  0
 19 20  1  1
 21 20  1  0
 21 22  2  0
 23 22  1  0
 24 23  1  0
 25 24  2  0
 26 25  1  0
 27 26  2  0
 27 28  1  0
 28 29  2  0
 29 24  1  0
 29 21  1  0
 30 19  1  0
 31 30  2  0
 32 30  1  0
M  END
$$$$
