HTW.pdb
     RDKit          3D

 32 34  0  0  1  0  0  0  0  0999 V2000
    8.3385  -17.2579   18.5385 N   0  0  0  0  0  0  0  0  0  0  0  0
    8.6647  -16.3858   19.6767 C   0  0  1  0  0  0  0  0  0  0  0  0
    7.5277  -15.3677   19.7197 C   0  0  0  0  0  0  0  0  0  0  0  0
    7.7334  -14.3305   18.6765 C   0  0  0  0  0  0  0  0  0  0  0  0
    8.7158  -14.2542   17.7172 C   0  0  0  0  0  0  0  0  0  0  0  0
    8.5413  -13.1469   16.9651 N   0  0  0  0  0  0  0  0  0  0  0  0
    7.4499  -12.5159   17.4415 C   0  0  0  0  0  0  0  0  0  0  0  0
    6.9646  -13.2286   18.4710 N   0  0  0  0  0  0  0  0  0  0  0  0
    8.6787  -17.2097   20.9125 C   0  0  0  0  0  0  0  0  0  0  0  0
    7.6986  -17.9638   21.1445 O   0  0  0  0  0  0  0  0  0  0  0  0
   10.2622  -20.0347   21.9436 C   0  0  0  0  0  0  0  0  0  0  0  0
   10.7875  -19.0714   22.9869 C   0  0  1  0  0  0  0  0  0  0  0  0
   12.0642  -18.6429   22.7191 O   0  0  0  0  0  0  0  0  0  0  0  0
    9.7888  -17.9236   23.0639 C   0  0  2  0  0  0  0  0  0  0  0  0
    9.7505  -17.1753   21.8313 N   0  0  0  0  0  0  0  0  0  0  0  0
   10.0594  -17.0818   24.2390 C   0  0  0  0  0  0  0  0  0  0  0  0
   10.7247  -16.0159   24.1788 O   0  0  0  0  0  0  0  0  0  0  0  0
    9.5562  -17.4720   25.5095 N   0  0  0  0  0  0  0  0  0  0  0  0
    9.9015  -16.8019   26.7448 C   0  0  1  0  0  0  0  0  0  0  0  0
    8.6563  -16.5163   27.5802 C   0  0  0  0  0  0  0  0  0  0  0  0
    7.7632  -15.6003   26.8238 C   0  0  0  0  0  0  0  0  0  0  0  0
    6.6917  -15.9312   26.0055 C   0  0  0  0  0  0  0  0  0  0  0  0
    6.1499  -14.8279   25.5125 N   0  0  0  0  0  0  0  0  0  0  0  0
    6.8151  -13.7249   25.9644 C   0  0  0  0  0  0  0  0  0  0  0  0
    6.6610  -12.3696   25.7589 C   0  0  0  0  0  0  0  0  0  0  0  0
    7.5000  -11.4547   26.3579 C   0  0  0  0  0  0  0  0  0  0  0  0
    8.5009  -11.9498   27.1721 C   0  0  0  0  0  0  0  0  0  0  0  0
    8.6624  -13.3028   27.3835 C   0  0  0  0  0  0  0  0  0  0  0  0
    7.8149  -14.2164   26.7778 C   0  0  0  0  0  0  0  0  0  0  0  0
   10.8981  -17.5592   27.5268 C   0  0  0  0  0  0  0  0  0  0  0  0
   11.1734  -18.7571   27.1983 O   0  0  0  0  0  0  0  0  0  0  0  0
   11.5731  -17.0462   28.6208 O   0  0  0  0  0  0  0  0  0  0  0  0
  2  3  1  0
  2  1  1  6
  4  5  2  0
  4  3  1  0
  6  5  1  0
  7  8  2  0
  7  6  1  0
  8  4  1  0
  9  2  1  0
 10  9  2  0
 12 14  1  0
 12 11  1  6
 13 12  1  0
 14 15  1  6
 15  9  1  0
 16 14  1  0
 16 17  2  0
 18 16  1  0
 19 18  1  0
 19 20  1  1
 21 20  1  0
 21 22  2  0
 23 22  1  0
 24 23  1  0
 25 24  2  0
 26 25  1  0
 27 26  2  0
 27 28  1  0
 28 29  2  0
 29 24  1  0
 29 21  1  0
 30 19  1  0
 31 30  2  0
 32 30  1  0
M  END
$$$$
