HTW.pdb
     RDKit          3D

 32 34  0  0  1  0  0  0  0  0999 V2000
    8.5678  -17.1944   17.0009 N   0  0  0  0  0  0  0  0  0  0  0  0
    8.7532  -16.1454   18.0147 C   0  0  1  0  0  0  0  0  0  0  0  0
    7.6966  -15.0954   17.6797 C   0  0  0  0  0  0  0  0  0  0  0  0
    8.0196  -14.4433   16.3848 C   0  0  0  0  0  0  0  0  0  0  0  0
    8.8641  -13.3863   16.1378 C   0  0  0  0  0  0  0  0  0  0  0  0
    8.8729  -13.1013   14.8183 N   0  0  0  0  0  0  0  0  0  0  0  0
    8.0363  -13.9736   14.2221 C   0  0  0  0  0  0  0  0  0  0  0  0
    7.5236  -14.7805   15.1651 N   0  0  0  0  0  0  0  0  0  0  0  0
    8.5008  -16.7353   19.3544 C   0  0  0  0  0  0  0  0  0  0  0  0
    7.4979  -17.4799   19.5051 O   0  0  0  0  0  0  0  0  0  0  0  0
    8.3616  -19.1521   20.5856 C   0  0  0  0  0  0  0  0  0  0  0  0
    9.4522  -18.6917   21.5295 C   0  0  1  0  0  0  0  0  0  0  0  0
   10.7106  -19.0136   21.0845 O   0  0  0  0  0  0  0  0  0  0  0  0
    9.2634  -17.1916   21.7167 C   0  0  2  0  0  0  0  0  0  0  0  0
    9.3452  -16.4897   20.4592 N   0  0  0  0  0  0  0  0  0  0  0  0
   10.2009  -16.6752   22.7252 C   0  0  0  0  0  0  0  0  0  0  0  0
   11.2322  -16.0188   22.4285 O   0  0  0  0  0  0  0  0  0  0  0  0
    9.9494  -16.9176   24.1028 N   0  0  0  0  0  0  0  0  0  0  0  0
   10.2495  -15.9637   25.1487 C   0  0  1  0  0  0  0  0  0  0  0  0
    9.6004  -14.6124   24.8611 C   0  0  0  0  0  0  0  0  0  0  0  0
    8.2458  -14.5841   25.4718 C   0  0  0  0  0  0  0  0  0  0  0  0
    7.3249  -15.6191   25.5612 C   0  0  0  0  0  0  0  0  0  0  0  0
    6.2334  -15.1925   26.1781 N   0  0  0  0  0  0  0  0  0  0  0  0
    6.3629  -13.8790   26.5263 C   0  0  0  0  0  0  0  0  0  0  0  0
    5.5391  -12.9791   27.1700 C   0  0  0  0  0  0  0  0  0  0  0  0
    5.9366  -11.6785   27.3946 C   0  0  0  0  0  0  0  0  0  0  0  0
    7.1925  -11.3130   26.9491 C   0  0  0  0  0  0  0  0  0  0  0  0
    8.0229  -12.2058   26.3048 C   0  0  0  0  0  0  0  0  0  0  0  0
    7.6163  -13.5115   26.0828 C   0  0  0  0  0  0  0  0  0  0  0  0
    9.8601  -16.4619   26.4823 C   0  0  0  0  0  0  0  0  0  0  0  0
   10.2487  -15.8394   27.5216 O   0  0  0  0  0  0  0  0  0  0  0  0
    9.0816  -17.5875   26.6891 O   0  0  0  0  0  0  0  0  0  0  0  0
  2  3  1  0
  2  1  1  6
  4  5  2  0
  4  3  1  0
  6  5  1  0
  7  8  2  0
  7  6  1  0
  8  4  1  0
  9  2  1  0
 10  9  2  0
 12 14  1  0
 12 11  1  6
 13 12  1  0
 14 15  1  6
 15  9  1  0
 16 14  1  0
 16 17  2  0
 18 16  1  0
 19 18  1  0
 19 20  1  6
 21 20  1  0
 21 22  2  0
 23 22  1  0
 24 23  1  0
 25 24  2  0
 26 25  1  0
 27 26  2  0
 27 28  1  0
 28 29  2  0
 29 24  1  0
 29 21  1  0
 30 19  1  0
 31 30  2  0
 32 30  1  0
M  END
$$$$
