HTW.pdb
     RDKit          3D

 32 34  0  0  1  0  0  0  0  0999 V2000
    8.6919  -17.0253   17.5184 N   0  0  0  0  0  0  0  0  0  0  0  0
    8.7133  -15.9808   18.5533 C   0  0  1  0  0  0  0  0  0  0  0  0
    7.6141  -15.0056   18.1386 C   0  0  0  0  0  0  0  0  0  0  0  0
    8.0083  -14.2925   16.8967 C   0  0  0  0  0  0  0  0  0  0  0  0
    8.7493  -13.1420   16.7602 C   0  0  0  0  0  0  0  0  0  0  0  0
    8.8783  -12.8284   15.4536 N   0  0  0  0  0  0  0  0  0  0  0  0
    8.2216  -13.7757   14.7552 C   0  0  0  0  0  0  0  0  0  0  0  0
    7.6987  -14.6559   15.6241 N   0  0  0  0  0  0  0  0  0  0  0  0
    8.3931  -16.6073   19.8615 C   0  0  0  0  0  0  0  0  0  0  0  0
    7.3316  -17.2747   19.9657 O   0  0  0  0  0  0  0  0  0  0  0  0
    8.0585  -19.1005   21.0326 C   0  0  0  0  0  0  0  0  0  0  0  0
    9.1916  -18.7264   21.9646 C   0  0  1  0  0  0  0  0  0  0  0  0
   10.4225  -19.0895   21.4766 O   0  0  0  0  0  0  0  0  0  0  0  0
    9.0782  -17.2271   22.2103 C   0  0  2  0  0  0  0  0  0  0  0  0
    9.2366  -16.4796   20.9868 N   0  0  0  0  0  0  0  0  0  0  0  0
   10.0107  -16.8051   23.2663 C   0  0  0  0  0  0  0  0  0  0  0  0
   11.2152  -16.5203   23.0421 O   0  0  0  0  0  0  0  0  0  0  0  0
    9.5507  -16.7084   24.6075 N   0  0  0  0  0  0  0  0  0  0  0  0
   10.3959  -16.3160   25.7147 C   0  0  1  0  0  0  0  0  0  0  0  0
   10.0107  -14.9340   26.2356 C   0  0  0  0  0  0  0  0  0  0  0  0
    8.5299  -14.8066   26.2267 C   0  0  0  0  0  0  0  0  0  0  0  0
    7.5835  -15.8203   26.1652 C   0  0  0  0  0  0  0  0  0  0  0  0
    6.3674  -15.2962   26.1794 N   0  0  0  0  0  0  0  0  0  0  0  0
    6.4338  -13.9346   26.2494 C   0  0  0  0  0  0  0  0  0  0  0  0
    5.4832  -12.9359   26.2901 C   0  0  0  0  0  0  0  0  0  0  0  0
    5.8433  -11.6073   26.3610 C   0  0  0  0  0  0  0  0  0  0  0  0
    7.1939  -11.3166   26.3896 C   0  0  0  0  0  0  0  0  0  0  0  0
    8.1512  -12.3082   26.3494 C   0  0  0  0  0  0  0  0  0  0  0  0
    7.7815  -13.6416   26.2783 C   0  0  0  0  0  0  0  0  0  0  0  0
   10.3816  -17.3122   26.8036 C   0  0  0  0  0  0  0  0  0  0  0  0
    9.4912  -18.2210   26.8096 O   0  0  0  0  0  0  0  0  0  0  0  0
   11.2914  -17.3295   27.8465 O   0  0  0  0  0  0  0  0  0  0  0  0
  2  3  1  0
  2  1  1  6
  4  5  2  0
  4  3  1  0
  6  5  1  0
  7  8  2  0
  7  6  1  0
  8  4  1  0
  9  2  1  0
 10  9  2  0
 12 14  1  0
 12 11  1  6
 13 12  1  0
 14 15  1  6
 15  9  1  0
 16 14  1  0
 16 17  2  0
 18 16  1  0
 19 18  1  0
 19 20  1  1
 21 20  1  0
 21 22  2  0
 23 22  1  0
 24 23  1  0
 25 24  2  0
 26 25  1  0
 27 26  2  0
 27 28  1  0
 28 29  2  0
 29 24  1  0
 29 21  1  0
 30 19  1  0
 31 30  2  0
 32 30  1  0
M  END
$$$$
