HTW.pdb
     RDKit          3D

 32 34  0  0  1  0  0  0  0  0999 V2000
    9.9566  -16.5693   16.1861 N   0  0  0  0  0  0  0  0  0  0  0  0
    9.2485  -16.7499   17.4622 C   0  0  1  0  0  0  0  0  0  0  0  0
    9.7409  -18.0959   17.9885 C   0  0  0  0  0  0  0  0  0  0  0  0
    8.9147  -19.1951   17.4269 C   0  0  0  0  0  0  0  0  0  0  0  0
    7.9220  -19.9264   18.0360 C   0  0  0  0  0  0  0  0  0  0  0  0
    7.4216  -20.8347   17.1719 N   0  0  0  0  0  0  0  0  0  0  0  0
    8.0921  -20.6853   16.0124 C   0  0  0  0  0  0  0  0  0  0  0  0
    8.9900  -19.6988   16.1667 N   0  0  0  0  0  0  0  0  0  0  0  0
    9.6441  -15.6509   18.3800 C   0  0  0  0  0  0  0  0  0  0  0  0
   10.2979  -14.6826   17.9131 O   0  0  0  0  0  0  0  0  0  0  0  0
    8.4742  -13.2119   18.5227 C   0  0  0  0  0  0  0  0  0  0  0  0
    7.9586  -13.6177   19.8873 C   0  0  1  0  0  0  0  0  0  0  0  0
    6.7483  -14.2633   19.8273 O   0  0  0  0  0  0  0  0  0  0  0  0
    9.0458  -14.4704   20.5291 C   0  0  2  0  0  0  0  0  0  0  0  0
    9.3119  -15.6564   19.7525 N   0  0  0  0  0  0  0  0  0  0  0  0
    8.7112  -14.7644   21.9307 C   0  0  0  0  0  0  0  0  0  0  0  0
    7.5278  -14.8639   22.3454 O   0  0  0  0  0  0  0  0  0  0  0  0
    9.7568  -14.9477   22.8756 N   0  0  0  0  0  0  0  0  0  0  0  0
    9.5435  -15.4576   24.2129 C   0  0  1  0  0  0  0  0  0  0  0  0
    8.2186  -16.2095   24.3082 C   0  0  0  0  0  0  0  0  0  0  0  0
    7.3050  -15.4709   25.2185 C   0  0  0  0  0  0  0  0  0  0  0  0
    6.2096  -15.9619   25.9158 C   0  0  0  0  0  0  0  0  0  0  0  0
    5.6551  -14.9864   26.6192 N   0  0  0  0  0  0  0  0  0  0  0  0
    6.3347  -13.8171   26.4342 C   0  0  0  0  0  0  0  0  0  0  0  0
    6.1761  -12.5364   26.9216 C   0  0  0  0  0  0  0  0  0  0  0  0
    7.0329  -11.5203   26.5565 C   0  0  0  0  0  0  0  0  0  0  0  0
    8.0561  -11.8361   25.6831 C   0  0  0  0  0  0  0  0  0  0  0  0
    8.2224  -13.1134   25.1908 C   0  0  0  0  0  0  0  0  0  0  0  0
    7.3571  -14.1297   25.5625 C   0  0  0  0  0  0  0  0  0  0  0  0
   10.6634  -16.3039   24.6690 C   0  0  0  0  0  0  0  0  0  0  0  0
   10.6864  -16.7176   25.8720 O   0  0  0  0  0  0  0  0  0  0  0  0
   11.7184  -16.6903   23.8607 O   0  0  0  0  0  0  0  0  0  0  0  0
  2  3  1  0
  2  1  1  6
  4  5  2  0
  4  3  1  0
  6  5  1  0
  7  8  2  0
  7  6  1  0
  8  4  1  0
  9  2  1  0
 10  9  2  0
 12 14  1  0
 12 11  1  6
 13 12  1  0
 14 15  1  6
 15  9  1  0
 16 14  1  0
 16 17  2  0
 18 16  1  0
 19 18  1  0
 19 20  1  6
 21 20  1  0
 21 22  2  0
 23 22  1  0
 24 23  1  0
 25 24  2  0
 26 25  1  0
 27 26  2  0
 27 28  1  0
 28 29  2  0
 29 24  1  0
 29 21  1  0
 30 19  1  0
 31 30  2  0
 32 30  1  0
M  END
$$$$
