HTW.pdb
     RDKit          3D

 32 34  0  0  1  0  0  0  0  0999 V2000
    8.1203  -17.1773   17.6988 N   0  0  0  0  0  0  0  0  0  0  0  0
    8.5364  -16.2472   18.7591 C   0  0  1  0  0  0  0  0  0  0  0  0
    7.5509  -15.0852   18.6602 C   0  0  0  0  0  0  0  0  0  0  0  0
    7.8508  -14.2643   17.4592 C   0  0  0  0  0  0  0  0  0  0  0  0
    8.8649  -14.4141   16.5425 C   0  0  0  0  0  0  0  0  0  0  0  0
    8.7808  -13.4516   15.5998 N   0  0  0  0  0  0  0  0  0  0  0  0
    7.7155  -12.6874   15.9121 C   0  0  0  0  0  0  0  0  0  0  0  0
    7.1567  -13.1770   17.0307 N   0  0  0  0  0  0  0  0  0  0  0  0
    8.4057  -16.9365   20.0684 C   0  0  0  0  0  0  0  0  0  0  0  0
    7.3017  -17.4625   20.3642 O   0  0  0  0  0  0  0  0  0  0  0  0
    9.1254  -19.9072   21.3897 C   0  0  0  0  0  0  0  0  0  0  0  0
   10.0111  -19.0437   22.2629 C   0  0  1  0  0  0  0  0  0  0  0  0
   11.3183  -19.0289   21.8431 O   0  0  0  0  0  0  0  0  0  0  0  0
    9.3860  -17.6545   22.2805 C   0  0  2  0  0  0  0  0  0  0  0  0
    9.4743  -17.0209   20.9877 N   0  0  0  0  0  0  0  0  0  0  0  0
    9.9661  -16.8411   23.3598 C   0  0  0  0  0  0  0  0  0  0  0  0
   10.8927  -16.0119   23.1695 O   0  0  0  0  0  0  0  0  0  0  0  0
    9.4724  -16.9830   24.6848 N   0  0  0  0  0  0  0  0  0  0  0  0
   10.0313  -16.2866   25.8235 C   0  0  1  0  0  0  0  0  0  0  0  0
    8.9830  -16.0922   26.9159 C   0  0  0  0  0  0  0  0  0  0  0  0
    7.8184  -15.3642   26.3480 C   0  0  0  0  0  0  0  0  0  0  0  0
    6.6555  -15.8970   25.8085 C   0  0  0  0  0  0  0  0  0  0  0  0
    5.8593  -14.9168   25.4096 N   0  0  0  0  0  0  0  0  0  0  0  0
    6.4342  -13.7033   25.6554 C   0  0  0  0  0  0  0  0  0  0  0  0
    6.0371  -12.4003   25.4382 C   0  0  0  0  0  0  0  0  0  0  0  0
    6.8400  -11.3383   25.7949 C   0  0  0  0  0  0  0  0  0  0  0  0
    8.0578  -11.6315   26.3783 C   0  0  0  0  0  0  0  0  0  0  0  0
    8.4631  -12.9309   26.5994 C   0  0  0  0  0  0  0  0  0  0  0  0
    7.6504  -13.9932   26.2382 C   0  0  0  0  0  0  0  0  0  0  0  0
   11.2280  -16.9662   26.3568 C   0  0  0  0  0  0  0  0  0  0  0  0
   11.4352  -18.1880   26.0685 O   0  0  0  0  0  0  0  0  0  0  0  0
   12.1661  -16.3538   27.1694 O   0  0  0  0  0  0  0  0  0  0  0  0
  2  3  1  0
  2  1  1  6
  4  5  2  0
  4  3  1  0
  6  5  1  0
  7  8  2  0
  7  6  1  0
  8  4  1  0
  9  2  1  0
 10  9  2  0
 12 14  1  0
 12 11  1  6
 13 12  1  0
 14 15  1  6
 15  9  1  0
 16 14  1  0
 16 17  2  0
 18 16  1  0
 19 18  1  0
 19 20  1  1
 21 20  1  0
 21 22  2  0
 23 22  1  0
 24 23  1  0
 25 24  2  0
 26 25  1  0
 27 26  2  0
 27 28  1  0
 28 29  2  0
 29 24  1  0
 29 21  1  0
 30 19  1  0
 31 30  2  0
 32 30  1  0
M  END
$$$$
