HTW.pdb
     RDKit          3D

 32 34  0  0  1  0  0  0  0  0999 V2000
    8.5891  -16.8857   18.4335 N   0  0  0  0  0  0  0  0  0  0  0  0
    8.7018  -15.9908   19.5949 C   0  0  1  0  0  0  0  0  0  0  0  0
    7.4998  -15.0565   19.4789 C   0  0  0  0  0  0  0  0  0  0  0  0
    7.7104  -14.0913   18.3697 C   0  0  0  0  0  0  0  0  0  0  0  0
    8.2521  -12.8281   18.4160 C   0  0  0  0  0  0  0  0  0  0  0  0
    8.2610  -12.2842   17.1805 N   0  0  0  0  0  0  0  0  0  0  0  0
    7.7265  -13.1969   16.3453 C   0  0  0  0  0  0  0  0  0  0  0  0
    7.3956  -14.2836   17.0614 N   0  0  0  0  0  0  0  0  0  0  0  0
    8.6127  -16.8097   20.8310 C   0  0  0  0  0  0  0  0  0  0  0  0
    7.5811  -17.5047   21.0197 O   0  0  0  0  0  0  0  0  0  0  0  0
    9.5471  -19.8044   21.9864 C   0  0  0  0  0  0  0  0  0  0  0  0
   10.3643  -18.9054   22.8900 C   0  0  1  0  0  0  0  0  0  0  0  0
   11.6462  -18.7188   22.4349 O   0  0  0  0  0  0  0  0  0  0  0  0
    9.5927  -17.5982   23.0192 C   0  0  2  0  0  0  0  0  0  0  0  0
    9.6428  -16.8342   21.7967 N   0  0  0  0  0  0  0  0  0  0  0  0
   10.0557  -16.8390   24.1906 C   0  0  0  0  0  0  0  0  0  0  0  0
   10.8582  -15.8740   24.1072 O   0  0  0  0  0  0  0  0  0  0  0  0
    9.5880  -17.1955   25.4843 N   0  0  0  0  0  0  0  0  0  0  0  0
    9.9917  -16.5133   26.6949 C   0  0  1  0  0  0  0  0  0  0  0  0
    8.7889  -16.2263   27.5898 C   0  0  0  0  0  0  0  0  0  0  0  0
    7.7732  -15.4708   26.8112 C   0  0  0  0  0  0  0  0  0  0  0  0
    6.6891  -15.9724   26.1039 C   0  0  0  0  0  0  0  0  0  0  0  0
    6.0214  -14.9748   25.5448 N   0  0  0  0  0  0  0  0  0  0  0  0
    6.6098  -13.7794   25.8416 C   0  0  0  0  0  0  0  0  0  0  0  0
    6.3219  -12.4700   25.5171 C   0  0  0  0  0  0  0  0  0  0  0  0
    7.1089  -11.4314   25.9663 C   0  0  0  0  0  0  0  0  0  0  0  0
    8.1971  -11.7548   26.7542 C   0  0  0  0  0  0  0  0  0  0  0  0
    8.4926  -13.0608   27.0838 C   0  0  0  0  0  0  0  0  0  0  0  0
    7.6967  -14.0994   26.6284 C   0  0  0  0  0  0  0  0  0  0  0  0
   11.0305  -17.2591   27.4318 C   0  0  0  0  0  0  0  0  0  0  0  0
   11.2919  -18.4600   27.1026 O   0  0  0  0  0  0  0  0  0  0  0  0
   11.7604  -16.7321   28.4831 O   0  0  0  0  0  0  0  0  0  0  0  0
  2  3  1  0
  2  1  1  6
  4  5  2  0
  4  3  1  0
  6  5  1  0
  7  8  2  0
  7  6  1  0
  8  4  1  0
  9  2  1  0
 10  9  2  0
 12 14  1  0
 12 11  1  6
 13 12  1  0
 14 15  1  6
 15  9  1  0
 16 14  1  0
 16 17  2  0
 18 16  1  0
 19 18  1  0
 19 20  1  1
 21 20  1  0
 21 22  2  0
 23 22  1  0
 24 23  1  0
 25 24  2  0
 26 25  1  0
 27 26  2  0
 27 28  1  0
 28 29  2  0
 29 24  1  0
 29 21  1  0
 30 19  1  0
 31 30  2  0
 32 30  1  0
M  END
$$$$
