HTW.pdb
     RDKit          3D

 32 34  0  0  1  0  0  0  0  0999 V2000
    8.8865  -16.9589   18.6766 N   0  0  0  0  0  0  0  0  0  0  0  0
    8.8843  -15.9938   19.7861 C   0  0  1  0  0  0  0  0  0  0  0  0
    7.6783  -15.0977   19.5144 C   0  0  0  0  0  0  0  0  0  0  0  0
    7.9189  -14.2741   18.3020 C   0  0  0  0  0  0  0  0  0  0  0  0
    8.5571  -13.0606   18.1956 C   0  0  0  0  0  0  0  0  0  0  0  0
    8.5594  -12.6516   16.9092 N   0  0  0  0  0  0  0  0  0  0  0  0
    7.9245  -13.6009   16.1937 C   0  0  0  0  0  0  0  0  0  0  0  0
    7.5396  -14.5765   17.0323 N   0  0  0  0  0  0  0  0  0  0  0  0
    8.7083  -16.7394   21.0587 C   0  0  0  0  0  0  0  0  0  0  0  0
    7.9797  -17.7652   21.0596 O   0  0  0  0  0  0  0  0  0  0  0  0
    9.2845  -19.2365   22.1155 C   0  0  0  0  0  0  0  0  0  0  0  0
   10.2016  -18.4849   23.0571 C   0  0  1  0  0  0  0  0  0  0  0  0
   11.4498  -18.2727   22.5260 O   0  0  0  0  0  0  0  0  0  0  0  0
    9.4898  -17.1867   23.4165 C   0  0  2  0  0  0  0  0  0  0  0  0
    9.3288  -16.3374   22.2618 N   0  0  0  0  0  0  0  0  0  0  0  0
   10.1726  -16.5156   24.5328 C   0  0  0  0  0  0  0  0  0  0  0  0
   11.1854  -15.7861   24.3764 O   0  0  0  0  0  0  0  0  0  0  0  0
    9.6827  -16.6858   25.8560 N   0  0  0  0  0  0  0  0  0  0  0  0
   10.2227  -15.9878   27.0028 C   0  0  1  0  0  0  0  0  0  0  0  0
    9.1144  -15.5880   27.9732 C   0  0  0  0  0  0  0  0  0  0  0  0
    7.9575  -15.0648   27.2007 C   0  0  0  0  0  0  0  0  0  0  0  0
    6.8460  -15.7611   26.7459 C   0  0  0  0  0  0  0  0  0  0  0  0
    6.0383  -14.9366   26.0966 N   0  0  0  0  0  0  0  0  0  0  0  0
    6.5548  -13.6731   26.0827 C   0  0  0  0  0  0  0  0  0  0  0  0
    6.1237  -12.4741   25.5540 C   0  0  0  0  0  0  0  0  0  0  0  0
    6.8670  -11.3218   25.6931 C   0  0  0  0  0  0  0  0  0  0  0  0
    8.0606  -11.4161   26.3830 C   0  0  0  0  0  0  0  0  0  0  0  0
    8.4995  -12.6102   26.9151 C   0  0  0  0  0  0  0  0  0  0  0  0
    7.7466  -13.7644   26.7712 C   0  0  0  0  0  0  0  0  0  0  0  0
   11.2661  -16.7738   27.6898 C   0  0  0  0  0  0  0  0  0  0  0  0
   11.4003  -18.0095   27.4181 O   0  0  0  0  0  0  0  0  0  0  0  0
   12.1323  -16.2493   28.6333 O   0  0  0  0  0  0  0  0  0  0  0  0
  2  3  1  0
  2  1  1  6
  4  5  2  0
  4  3  1  0
  6  5  1  0
  7  8  2  0
  7  6  1  0
  8  4  1  0
  9  2  1  0
 10  9  2  0
 12 14  1  0
 12 11  1  6
 13 12  1  0
 14 15  1  6
 15  9  1  0
 16 14  1  0
 16 17  2  0
 18 16  1  0
 19 18  1  0
 19 20  1  1
 21 20  1  0
 21 22  2  0
 23 22  1  0
 24 23  1  0
 25 24  2  0
 26 25  1  0
 27 26  2  0
 27 28  1  0
 28 29  2  0
 29 24  1  0
 29 21  1  0
 30 19  1  0
 31 30  2  0
 32 30  1  0
M  END
$$$$
