HTW.pdb
     RDKit          3D

 32 34  0  0  1  0  0  0  0  0999 V2000
    7.9785  -19.1723   18.4664 N   0  0  0  0  0  0  0  0  0  0  0  0
    7.2827  -18.4277   19.5265 C   0  0  1  0  0  0  0  0  0  0  0  0
    6.9675  -19.4766   20.5903 C   0  0  0  0  0  0  0  0  0  0  0  0
    5.8989  -20.3876   20.1061 C   0  0  0  0  0  0  0  0  0  0  0  0
    5.2432  -20.3831   18.8973 C   0  0  0  0  0  0  0  0  0  0  0  0
    4.3375  -21.3834   18.8599 N   0  0  0  0  0  0  0  0  0  0  0  0
    4.4131  -22.0267   20.0417 C   0  0  0  0  0  0  0  0  0  0  0  0
    5.3525  -21.4270   20.7907 N   0  0  0  0  0  0  0  0  0  0  0  0
    8.2080  -17.3971   20.0634 C   0  0  0  0  0  0  0  0  0  0  0  0
    9.4472  -17.5960   19.9750 O   0  0  0  0  0  0  0  0  0  0  0  0
    8.3595  -13.9265   19.0190 C   0  0  0  0  0  0  0  0  0  0  0  0
    8.1876  -13.8012   20.5181 C   0  0  1  0  0  0  0  0  0  0  0  0
    6.9146  -13.4333   20.8777 O   0  0  0  0  0  0  0  0  0  0  0  0
    8.6023  -15.1385   21.1186 C   0  0  2  0  0  0  0  0  0  0  0  0
    7.7453  -16.2071   20.6666 N   0  0  0  0  0  0  0  0  0  0  0  0
    8.6793  -15.0446   22.5842 C   0  0  0  0  0  0  0  0  0  0  0  0
    7.8294  -14.4271   23.2761 O   0  0  0  0  0  0  0  0  0  0  0  0
    9.7544  -15.6722   23.2696 N   0  0  0  0  0  0  0  0  0  0  0  0
    9.9828  -15.5349   24.6919 C   0  0  1  0  0  0  0  0  0  0  0  0
    8.9145  -16.2747   25.4927 C   0  0  0  0  0  0  0  0  0  0  0  0
    7.6670  -15.4669   25.5011 C   0  0  0  0  0  0  0  0  0  0  0  0
    6.4587  -15.7507   24.8793 C   0  0  0  0  0  0  0  0  0  0  0  0
    5.5915  -14.7808   25.1265 N   0  0  0  0  0  0  0  0  0  0  0  0
    6.1606  -13.8180   25.9091 C   0  0  0  0  0  0  0  0  0  0  0  0
    5.7039  -12.6293   26.4393 C   0  0  0  0  0  0  0  0  0  0  0  0
    6.5175  -11.8321   27.2154 C   0  0  0  0  0  0  0  0  0  0  0  0
    7.8082  -12.2715   27.4405 C   0  0  0  0  0  0  0  0  0  0  0  0
    8.2734  -13.4584   26.9147 C   0  0  0  0  0  0  0  0  0  0  0  0
    7.4494  -14.2544   26.1356 C   0  0  0  0  0  0  0  0  0  0  0  0
   11.3352  -15.9789   25.0820 C   0  0  0  0  0  0  0  0  0  0  0  0
   12.1227  -16.4410   24.1960 O   0  0  0  0  0  0  0  0  0  0  0  0
   11.8215  -15.9273   26.3768 O   0  0  0  0  0  0  0  0  0  0  0  0
  2  3  1  0
  2  1  1  6
  4  5  2  0
  4  3  1  0
  6  5  1  0
  7  8  2  0
  7  6  1  0
  8  4  1  0
  9  2  1  0
 10  9  2  0
 12 14  1  0
 12 11  1  6
 13 12  1  0
 14 15  1  1
 15  9  1  0
 16 14  1  0
 16 17  2  0
 18 16  1  0
 19 18  1  0
 19 20  1  1
 21 20  1  0
 21 22  2  0
 23 22  1  0
 24 23  1  0
 25 24  2  0
 26 25  1  0
 27 26  2  0
 27 28  1  0
 28 29  2  0
 29 24  1  0
 29 21  1  0
 30 19  1  0
 31 30  2  0
 32 30  1  0
M  END
$$$$
