HTW.pdb
     RDKit          3D

 32 34  0  0  1  0  0  0  0  0999 V2000
    7.5533  -16.8718   18.4609 N   0  0  0  0  0  0  0  0  0  0  0  0
    8.4597  -16.1664   19.3793 C   0  0  1  0  0  0  0  0  0  0  0  0
    7.9076  -14.7446   19.4483 C   0  0  0  0  0  0  0  0  0  0  0  0
    8.0292  -14.0865   18.1222 C   0  0  0  0  0  0  0  0  0  0  0  0
    7.1799  -13.1845   17.5253 C   0  0  0  0  0  0  0  0  0  0  0  0
    7.6591  -12.8316   16.3136 N   0  0  0  0  0  0  0  0  0  0  0  0
    8.8122  -13.5060   16.1352 C   0  0  0  0  0  0  0  0  0  0  0  0
    9.0340  -14.2605   17.2236 N   0  0  0  0  0  0  0  0  0  0  0  0
    8.3867  -16.8230   20.7098 C   0  0  0  0  0  0  0  0  0  0  0  0
    7.2708  -17.2393   21.1153 O   0  0  0  0  0  0  0  0  0  0  0  0
    9.6088  -19.8866   21.7750 C   0  0  0  0  0  0  0  0  0  0  0  0
   10.3215  -18.9681   22.7450 C   0  0  1  0  0  0  0  0  0  0  0  0
   11.6343  -18.7528   22.4054 O   0  0  0  0  0  0  0  0  0  0  0  0
    9.5120  -17.6787   22.8007 C   0  0  2  0  0  0  0  0  0  0  0  0
    9.5228  -16.9949   21.5306 N   0  0  0  0  0  0  0  0  0  0  0  0
    9.9667  -16.8314   23.9133 C   0  0  0  0  0  0  0  0  0  0  0  0
   10.7232  -15.8392   23.7533 O   0  0  0  0  0  0  0  0  0  0  0  0
    9.5445  -17.1296   25.2372 N   0  0  0  0  0  0  0  0  0  0  0  0
   10.0513  -16.4484   26.4090 C   0  0  1  0  0  0  0  0  0  0  0  0
    8.9258  -16.1373   27.3920 C   0  0  0  0  0  0  0  0  0  0  0  0
    7.8456  -15.4069   26.6787 C   0  0  0  0  0  0  0  0  0  0  0  0
    6.7468  -15.9365   26.0158 C   0  0  0  0  0  0  0  0  0  0  0  0
    6.0161  -14.9550   25.5094 N   0  0  0  0  0  0  0  0  0  0  0  0
    6.5745  -13.7437   25.7998 C   0  0  0  0  0  0  0  0  0  0  0  0
    6.2232  -12.4406   25.5150 C   0  0  0  0  0  0  0  0  0  0  0  0
    6.9930  -11.3812   25.9449 C   0  0  0  0  0  0  0  0  0  0  0  0
    8.1301  -11.6772   26.6722 C   0  0  0  0  0  0  0  0  0  0  0  0
    8.4892  -12.9768   26.9618 C   0  0  0  0  0  0  0  0  0  0  0  0
    7.7101  -14.0364   26.5262 C   0  0  0  0  0  0  0  0  0  0  0  0
   11.1315  -17.2078   27.0683 C   0  0  0  0  0  0  0  0  0  0  0  0
   11.3559  -18.4102   26.7180 O   0  0  0  0  0  0  0  0  0  0  0  0
   11.9397  -16.6924   28.0667 O   0  0  0  0  0  0  0  0  0  0  0  0
  2  3  1  0
  2  1  1  6
  4  5  2  0
  4  3  1  0
  6  5  1  0
  7  8  2  0
  7  6  1  0
  8  4  1  0
  9  2  1  0
 10  9  2  0
 12 14  1  0
 12 11  1  6
 13 12  1  0
 14 15  1  6
 15  9  1  0
 16 14  1  0
 16 17  2  0
 18 16  1  0
 19 18  1  0
 19 20  1  1
 21 20  1  0
 21 22  2  0
 23 22  1  0
 24 23  1  0
 25 24  2  0
 26 25  1  0
 27 26  2  0
 27 28  1  0
 28 29  2  0
 29 24  1  0
 29 21  1  0
 30 19  1  0
 31 30  2  0
 32 30  1  0
M  END
$$$$
