HTW.pdb
     RDKit          3D

 32 34  0  0  1  0  0  0  0  0999 V2000
    8.6660  -17.1851   19.0679 N   0  0  0  0  0  0  0  0  0  0  0  0
    9.1070  -16.2700   20.1312 C   0  0  1  0  0  0  0  0  0  0  0  0
    8.0384  -15.1801   20.1687 C   0  0  0  0  0  0  0  0  0  0  0  0
    8.1644  -14.3026   18.9769 C   0  0  0  0  0  0  0  0  0  0  0  0
    9.0673  -14.3765   17.9422 C   0  0  0  0  0  0  0  0  0  0  0  0
    8.8379  -13.3828   17.0577 N   0  0  0  0  0  0  0  0  0  0  0  0
    7.7908  -12.6746   17.5249 C   0  0  0  0  0  0  0  0  0  0  0  0
    7.3863  -13.2285   18.6793 N   0  0  0  0  0  0  0  0  0  0  0  0
    9.1385  -17.0186   21.4138 C   0  0  0  0  0  0  0  0  0  0  0  0
    8.2206  -17.8458   21.6508 O   0  0  0  0  0  0  0  0  0  0  0  0
   10.8618  -19.6611   22.5236 C   0  0  0  0  0  0  0  0  0  0  0  0
   11.3319  -18.6415   23.5395 C   0  0  1  0  0  0  0  0  0  0  0  0
   12.5705  -18.1286   23.2431 O   0  0  0  0  0  0  0  0  0  0  0  0
   10.2546  -17.5666   23.6102 C   0  0  2  0  0  0  0  0  0  0  0  0
   10.1598  -16.8339   22.3714 N   0  0  0  0  0  0  0  0  0  0  0  0
   10.4685  -16.6974   24.7771 C   0  0  0  0  0  0  0  0  0  0  0  0
   11.1018  -15.6123   24.7153 O   0  0  0  0  0  0  0  0  0  0  0  0
    9.9448  -17.0821   26.0409 N   0  0  0  0  0  0  0  0  0  0  0  0
   10.1293  -16.3089   27.2501 C   0  0  1  0  0  0  0  0  0  0  0  0
    8.8119  -16.1471   28.0038 C   0  0  0  0  0  0  0  0  0  0  0  0
    7.8131  -15.5108   27.1058 C   0  0  0  0  0  0  0  0  0  0  0  0
    6.7930  -16.1222   26.3898 C   0  0  0  0  0  0  0  0  0  0  0  0
    6.1189  -15.2097   25.7067 N   0  0  0  0  0  0  0  0  0  0  0  0
    6.6404  -13.9671   25.9242 C   0  0  0  0  0  0  0  0  0  0  0  0
    6.3191  -12.7062   25.4664 C   0  0  0  0  0  0  0  0  0  0  0  0
    7.0362  -11.5971   25.8606 C   0  0  0  0  0  0  0  0  0  0  0  0
    8.0892  -11.7992   26.7323 C   0  0  0  0  0  0  0  0  0  0  0  0
    8.4177  -13.0559   27.1953 C   0  0  0  0  0  0  0  0  0  0  0  0
    7.6920  -14.1660   26.7946 C   0  0  0  0  0  0  0  0  0  0  0  0
   11.1689  -16.8862   28.1244 C   0  0  0  0  0  0  0  0  0  0  0  0
   11.5732  -18.0745   27.9166 O   0  0  0  0  0  0  0  0  0  0  0  0
   11.7513  -16.2097   29.1821 O   0  0  0  0  0  0  0  0  0  0  0  0
  2  3  1  0
  2  1  1  6
  4  5  2  0
  4  3  1  0
  6  5  1  0
  7  8  2  0
  7  6  1  0
  8  4  1  0
  9  2  1  0
 10  9  2  0
 12 14  1  0
 12 11  1  6
 13 12  1  0
 14 15  1  6
 15  9  1  0
 16 14  1  0
 16 17  2  0
 18 16  1  0
 19 18  1  0
 19 20  1  1
 21 20  1  0
 21 22  2  0
 23 22  1  0
 24 23  1  0
 25 24  2  0
 26 25  1  0
 27 26  2  0
 27 28  1  0
 28 29  2  0
 29 24  1  0
 29 21  1  0
 30 19  1  0
 31 30  2  0
 32 30  1  0
M  END
$$$$
