HTW.pdb
     RDKit          3D

 32 34  0  0  1  0  0  0  0  0999 V2000
    8.4686  -18.3461   16.6447 N   0  0  0  0  0  0  0  0  0  0  0  0
    9.1313  -17.1837   17.2547 C   0  0  1  0  0  0  0  0  0  0  0  0
    8.8756  -16.0385   16.2779 C   0  0  0  0  0  0  0  0  0  0  0  0
    9.7658  -16.1691   15.0961 C   0  0  0  0  0  0  0  0  0  0  0  0
   10.7691  -17.0816   14.8679 C   0  0  0  0  0  0  0  0  0  0  0  0
   11.3372  -16.8518   13.6651 N   0  0  0  0  0  0  0  0  0  0  0  0
   10.6992  -15.7949   13.1245 C   0  0  0  0  0  0  0  0  0  0  0  0
    9.7542  -15.3849   13.9859 N   0  0  0  0  0  0  0  0  0  0  0  0
    8.4885  -16.9092   18.5654 C   0  0  0  0  0  0  0  0  0  0  0  0
    7.2597  -16.6397   18.5886 O   0  0  0  0  0  0  0  0  0  0  0  0
    6.5367  -17.8019   20.2652 C   0  0  0  0  0  0  0  0  0  0  0  0
    7.5922  -17.9163   21.3447 C   0  0  1  0  0  0  0  0  0  0  0  0
    8.1715  -19.1603   21.3913 O   0  0  0  0  0  0  0  0  0  0  0  0
    8.6049  -16.8082   21.0846 C   0  0  2  0  0  0  0  0  0  0  0  0
    9.2071  -16.9407   19.7806 N   0  0  0  0  0  0  0  0  0  0  0  0
    9.5943  -16.7478   22.1710 C   0  0  0  0  0  0  0  0  0  0  0  0
   10.7115  -17.3228   22.1120 O   0  0  0  0  0  0  0  0  0  0  0  0
    9.2947  -16.0122   23.3495 N   0  0  0  0  0  0  0  0  0  0  0  0
   10.1997  -15.9023   24.4733 C   0  0  1  0  0  0  0  0  0  0  0  0
    9.9332  -14.6273   25.2691 C   0  0  0  0  0  0  0  0  0  0  0  0
    8.4674  -14.4685   25.4561 C   0  0  0  0  0  0  0  0  0  0  0  0
    7.4973  -15.4606   25.5011 C   0  0  0  0  0  0  0  0  0  0  0  0
    6.3061  -14.9113   25.6832 N   0  0  0  0  0  0  0  0  0  0  0  0
    6.4133  -13.5531   25.7678 C   0  0  0  0  0  0  0  0  0  0  0  0
    5.4999  -12.5356   25.9498 C   0  0  0  0  0  0  0  0  0  0  0  0
    5.8974  -11.2166   25.9963 C   0  0  0  0  0  0  0  0  0  0  0  0
    7.2467  -10.9551   25.8532 C   0  0  0  0  0  0  0  0  0  0  0  0
    8.1670  -11.9658   25.6709 C   0  0  0  0  0  0  0  0  0  0  0  0
    7.7598  -13.2893   25.6254 C   0  0  0  0  0  0  0  0  0  0  0  0
   10.1452  -17.0901   25.3476 C   0  0  0  0  0  0  0  0  0  0  0  0
   10.9976  -17.2188   26.2833 O   0  0  0  0  0  0  0  0  0  0  0  0
    9.2084  -18.1009   25.2196 O   0  0  0  0  0  0  0  0  0  0  0  0
  2  3  1  0
  2  1  1  6
  4  5  2  0
  4  3  1  0
  6  5  1  0
  7  8  2  0
  7  6  1  0
  8  4  1  0
  9  2  1  0
 10  9  2  0
 12 14  1  0
 12 11  1  6
 13 12  1  0
 14 15  1  6
 15  9  1  0
 16 14  1  0
 16 17  2  0
 18 16  1  0
 19 18  1  0
 19 20  1  1
 21 20  1  0
 21 22  2  0
 23 22  1  0
 24 23  1  0
 25 24  2  0
 26 25  1  0
 27 26  2  0
 27 28  1  0
 28 29  2  0
 29 24  1  0
 29 21  1  0
 30 19  1  0
 31 30  2  0
 32 30  1  0
M  END
$$$$
