ITW.pdb
     RDKit          3D

 30 31  0  0  1  0  0  0  0  0999 V2000
    7.1573  -12.4040   20.2967 C   0  0  0  0  0  0  0  0  0  0  0  0
    7.5503  -13.7527   19.8148 C   0  0  0  0  0  0  0  0  0  0  0  0
    8.9790  -13.8413   19.3871 C   0  0  2  0  0  0  0  0  0  0  0  0
    9.1904  -12.8628   18.2170 C   0  0  0  0  0  0  0  0  0  0  0  0
    9.2779  -15.2558   18.9261 C   0  0  2  0  0  0  0  0  0  0  0  0
    8.2293  -15.5875   17.9576 N   0  0  0  0  0  0  0  0  0  0  0  0
    9.0826  -16.1613   20.0904 C   0  0  0  0  0  0  0  0  0  0  0  0
    7.9006  -16.5253   20.3696 O   0  0  0  0  0  0  0  0  0  0  0  0
   10.0579  -19.5560   20.7582 C   0  0  0  0  0  0  0  0  0  0  0  0
   10.4899  -18.7874   21.9653 C   0  0  1  0  0  0  0  0  0  0  0  0
   11.8395  -18.5625   22.0489 O   0  0  0  0  0  0  0  0  0  0  0  0
    9.7661  -17.4557   22.0859 C   0  0  2  0  0  0  0  0  0  0  0  0
   10.1090  -16.6550   20.9160 N   0  0  0  0  0  0  0  0  0  0  0  0
   10.1999  -16.8067   23.3300 C   0  0  0  0  0  0  0  0  0  0  0  0
   10.9699  -15.8006   23.3462 O   0  0  0  0  0  0  0  0  0  0  0  0
    9.7449  -17.3140   24.5704 N   0  0  0  0  0  0  0  0  0  0  0  0
   10.1730  -16.7160   25.8418 C   0  0  1  0  0  0  0  0  0  0  0  0
    9.8405  -15.2520   25.7611 C   0  0  0  0  0  0  0  0  0  0  0  0
    8.4380  -14.8848   25.8274 C   0  0  0  0  0  0  0  0  0  0  0  0
    7.3628  -15.7418   25.6630 C   0  0  0  0  0  0  0  0  0  0  0  0
    6.2257  -15.0406   25.7555 N   0  0  0  0  0  0  0  0  0  0  0  0
    6.5431  -13.7415   25.9781 C   0  0  0  0  0  0  0  0  0  0  0  0
    5.7884  -12.6014   26.1667 C   0  0  0  0  0  0  0  0  0  0  0  0
    6.3754  -11.3767   26.3985 C   0  0  0  0  0  0  0  0  0  0  0  0
    7.7489  -11.2800   26.4446 C   0  0  0  0  0  0  0  0  0  0  0  0
    8.5369  -12.3897   26.2614 C   0  0  0  0  0  0  0  0  0  0  0  0
    7.9221  -13.6162   26.0279 C   0  0  0  0  0  0  0  0  0  0  0  0
    9.6112  -17.4261   26.9865 C   0  0  0  0  0  0  0  0  0  0  0  0
   10.0112  -17.2141   28.2904 O   0  0  0  0  0  0  0  0  0  0  0  0
    8.7036  -18.3013   26.8218 O   0  0  0  0  0  0  0  0  0  0  0  0
  1  2  1  0
  2  3  1  0
  3  4  1  6
  5  6  1  6
  5  3  1  0
  7  8  2  0
  7  5  1  0
 10  9  1  6
 10 12  1  0
 11 10  1  0
 12 14  1  0
 12 13  1  6
 13  7  1  0
 14 16  1  0
 15 14  2  0
 16 17  1  0
 17 28  1  0
 17 18  1  6
 19 18  1  0
 19 27  1  0
 20 21  1  0
 20 19  2  0
 21 22  1  0
 22 27  2  0
 22 23  1  0
 23 24  2  0
 24 25  1  0
 26 25  2  0
 27 26  1  0
 28 30  2  0
 28 29  1  0
M  END
$$$$
