ITW.pdb
     RDKit          3D

 30 31  0  0  1  0  0  0  0  0999 V2000
    7.7620  -11.6351   18.7670 C   0  0  0  0  0  0  0  0  0  0  0  0
    8.1617  -13.0441   18.5212 C   0  0  0  0  0  0  0  0  0  0  0  0
    8.1579  -13.8897   19.7529 C   0  0  2  0  0  0  0  0  0  0  0  0
    9.1659  -13.2884   20.7498 C   0  0  0  0  0  0  0  0  0  0  0  0
    8.5807  -15.3020   19.3932 C   0  0  2  0  0  0  0  0  0  0  0  0
    7.5193  -15.8260   18.5292 N   0  0  0  0  0  0  0  0  0  0  0  0
    8.5528  -16.1133   20.6400 C   0  0  0  0  0  0  0  0  0  0  0  0
    7.4287  -16.3271   21.1861 O   0  0  0  0  0  0  0  0  0  0  0  0
    9.4460  -19.6273   21.2416 C   0  0  0  0  0  0  0  0  0  0  0  0
   10.1664  -18.8090   22.2642 C   0  0  1  0  0  0  0  0  0  0  0  0
   11.4973  -18.6086   22.0042 O   0  0  0  0  0  0  0  0  0  0  0  0
    9.5051  -17.4581   22.4866 C   0  0  2  0  0  0  0  0  0  0  0  0
    9.6795  -16.6714   21.2708 N   0  0  0  0  0  0  0  0  0  0  0  0
   10.1461  -16.8159   23.6415 C   0  0  0  0  0  0  0  0  0  0  0  0
   11.1871  -16.1009   23.5382 O   0  0  0  0  0  0  0  0  0  0  0  0
    9.5876  -16.9924   24.9299 N   0  0  0  0  0  0  0  0  0  0  0  0
   10.3165  -16.5869   26.1389 C   0  0  1  0  0  0  0  0  0  0  0  0
    9.7973  -15.2277   26.5176 C   0  0  0  0  0  0  0  0  0  0  0  0
    8.3644  -15.0153   26.4275 C   0  0  0  0  0  0  0  0  0  0  0  0
    7.4049  -15.9975   26.2482 C   0  0  0  0  0  0  0  0  0  0  0  0
    6.1976  -15.4226   26.1771 N   0  0  0  0  0  0  0  0  0  0  0  0
    6.3555  -14.0825   26.3080 C   0  0  0  0  0  0  0  0  0  0  0  0
    5.4718  -13.0224   26.3258 C   0  0  0  0  0  0  0  0  0  0  0  0
    5.9033  -11.7251   26.4960 C   0  0  0  0  0  0  0  0  0  0  0  0
    7.2485  -11.4722   26.6529 C   0  0  0  0  0  0  0  0  0  0  0  0
    8.1614  -12.4980   26.6406 C   0  0  0  0  0  0  0  0  0  0  0  0
    7.7027  -13.8003   26.4665 C   0  0  0  0  0  0  0  0  0  0  0  0
   10.2357  -17.6039   27.1825 C   0  0  0  0  0  0  0  0  0  0  0  0
   10.9499  -17.5488   28.3622 O   0  0  0  0  0  0  0  0  0  0  0  0
    9.4820  -18.6180   27.0391 O   0  0  0  0  0  0  0  0  0  0  0  0
  1  2  1  0
  2  3  1  0
  3  4  1  1
  5  6  1  6
  5  3  1  0
  7  8  2  0
  7  5  1  0
 10  9  1  6
 10 12  1  0
 11 10  1  0
 12 14  1  0
 12 13  1  6
 13  7  1  0
 14 16  1  0
 15 14  2  0
 16 17  1  0
 17 28  1  0
 17 18  1  1
 19 18  1  0
 19 27  1  0
 20 21  1  0
 20 19  2  0
 21 22  1  0
 22 27  2  0
 22 23  1  0
 23 24  2  0
 24 25  1  0
 26 25  2  0
 27 26  1  0
 28 30  2  0
 28 29  1  0
M  END
$$$$
