ITW.pdb
     RDKit          3D

 30 31  0  0  1  0  0  0  0  0999 V2000
    7.6431  -11.6784   20.0485 C   0  0  0  0  0  0  0  0  0  0  0  0
    7.6589  -13.1406   19.7891 C   0  0  0  0  0  0  0  0  0  0  0  0
    8.9971  -13.6592   19.3737 C   0  0  2  0  0  0  0  0  0  0  0  0
    9.4119  -12.9329   18.0807 C   0  0  0  0  0  0  0  0  0  0  0  0
    8.8972  -15.1499   19.1087 C   0  0  2  0  0  0  0  0  0  0  0  0
    7.7054  -15.3257   18.2742 N   0  0  0  0  0  0  0  0  0  0  0  0
    8.6107  -15.8212   20.4052 C   0  0  0  0  0  0  0  0  0  0  0  0
    7.4211  -15.7877   20.8427 O   0  0  0  0  0  0  0  0  0  0  0  0
    8.3486  -19.1918   21.2683 C   0  0  0  0  0  0  0  0  0  0  0  0
    9.2926  -18.6301   22.2819 C   0  0  1  0  0  0  0  0  0  0  0  0
   10.6146  -18.9093   22.0507 O   0  0  0  0  0  0  0  0  0  0  0  0
    9.1335  -17.1264   22.4418 C   0  0  2  0  0  0  0  0  0  0  0  0
    9.5570  -16.4989   21.1951 N   0  0  0  0  0  0  0  0  0  0  0  0
    9.9636  -16.6931   23.5733 C   0  0  0  0  0  0  0  0  0  0  0  0
   11.1488  -16.2681   23.4312 O   0  0  0  0  0  0  0  0  0  0  0  0
    9.4298  -16.7446   24.8831 N   0  0  0  0  0  0  0  0  0  0  0  0
   10.2741  -16.5029   26.0604 C   0  0  1  0  0  0  0  0  0  0  0  0
    9.5048  -15.5727   26.9567 C   0  0  0  0  0  0  0  0  0  0  0  0
    8.1693  -15.1948   26.5322 C   0  0  0  0  0  0  0  0  0  0  0  0
    7.1582  -16.0625   26.1550 C   0  0  0  0  0  0  0  0  0  0  0  0
    6.0827  -15.3512   25.7940 N   0  0  0  0  0  0  0  0  0  0  0  0
    6.3768  -14.0349   25.9308 C   0  0  0  0  0  0  0  0  0  0  0  0
    5.6555  -12.8769   25.7216 C   0  0  0  0  0  0  0  0  0  0  0  0
    6.1993  -11.6339   25.9610 C   0  0  0  0  0  0  0  0  0  0  0  0
    7.4944  -11.5366   26.4207 C   0  0  0  0  0  0  0  0  0  0  0  0
    8.2471  -12.6638   26.6413 C   0  0  0  0  0  0  0  0  0  0  0  0
    7.6773  -13.9087   26.3919 C   0  0  0  0  0  0  0  0  0  0  0  0
   10.7091  -17.7525   26.6762 C   0  0  0  0  0  0  0  0  0  0  0  0
   11.7521  -17.8402   27.5759 O   0  0  0  0  0  0  0  0  0  0  0  0
   10.1278  -18.8479   26.3950 O   0  0  0  0  0  0  0  0  0  0  0  0
  1  2  1  0
  2  3  1  0
  3  4  1  6
  5  6  1  6
  5  3  1  0
  7  8  2  0
  7  5  1  0
 10  9  1  6
 10 12  1  0
 11 10  1  0
 12 14  1  0
 12 13  1  6
 13  7  1  0
 14 16  1  0
 15 14  2  0
 16 17  1  0
 17 28  1  0
 17 18  1  1
 19 18  1  0
 19 27  1  0
 20 21  1  0
 20 19  2  0
 21 22  1  0
 22 27  2  0
 22 23  1  0
 23 24  2  0
 24 25  1  0
 26 25  2  0
 27 26  1  0
 28 30  2  0
 28 29  1  0
M  END
$$$$
