ITW.pdb
     RDKit          3D

 30 31  0  0  1  0  0  0  0  0999 V2000
    7.4418  -11.5308   19.2023 C   0  0  0  0  0  0  0  0  0  0  0  0
    7.8808  -12.8995   18.8286 C   0  0  0  0  0  0  0  0  0  0  0  0
    7.9650  -13.8373   19.9886 C   0  0  2  0  0  0  0  0  0  0  0  0
    8.9912  -13.2721   20.9880 C   0  0  0  0  0  0  0  0  0  0  0  0
    8.4275  -15.1979   19.5012 C   0  0  2  0  0  0  0  0  0  0  0  0
    7.3929  -15.6591   18.5715 N   0  0  0  0  0  0  0  0  0  0  0  0
    8.3998  -16.1273   20.6627 C   0  0  0  0  0  0  0  0  0  0  0  0
    7.2923  -16.3107   21.2519 O   0  0  0  0  0  0  0  0  0  0  0  0
    9.3505  -19.7859   21.1195 C   0  0  0  0  0  0  0  0  0  0  0  0
   10.0547  -18.9592   22.1466 C   0  0  1  0  0  0  0  0  0  0  0  0
   11.3801  -18.7268   21.8849 O   0  0  0  0  0  0  0  0  0  0  0  0
    9.3636  -17.6253   22.3808 C   0  0  2  0  0  0  0  0  0  0  0  0
    9.5095  -16.8292   21.1674 N   0  0  0  0  0  0  0  0  0  0  0  0
    9.9988  -16.9734   23.5335 C   0  0  0  0  0  0  0  0  0  0  0  0
   10.9576  -16.1535   23.4153 O   0  0  0  0  0  0  0  0  0  0  0  0
    9.5294  -17.2620   24.8372 N   0  0  0  0  0  0  0  0  0  0  0  0
   10.2062  -16.7284   26.0266 C   0  0  1  0  0  0  0  0  0  0  0  0
    9.7950  -15.2871   26.1442 C   0  0  0  0  0  0  0  0  0  0  0  0
    8.3770  -14.9914   26.0530 C   0  0  0  0  0  0  0  0  0  0  0  0
    7.3687  -15.9061   25.7996 C   0  0  0  0  0  0  0  0  0  0  0  0
    6.1953  -15.2627   25.7535 N   0  0  0  0  0  0  0  0  0  0  0  0
    6.4231  -13.9446   25.9735 C   0  0  0  0  0  0  0  0  0  0  0  0
    5.5976  -12.8412   26.0514 C   0  0  0  0  0  0  0  0  0  0  0  0
    6.0958  -11.5832   26.3108 C   0  0  0  0  0  0  0  0  0  0  0  0
    7.4503  -11.4147   26.4982 C   0  0  0  0  0  0  0  0  0  0  0  0
    8.3068  -12.4859   26.4284 C   0  0  0  0  0  0  0  0  0  0  0  0
    7.7812  -13.7472   26.1645 C   0  0  0  0  0  0  0  0  0  0  0  0
    9.9536  -17.5524   27.2044 C   0  0  0  0  0  0  0  0  0  0  0  0
   10.5635  -17.3495   28.4258 O   0  0  0  0  0  0  0  0  0  0  0  0
    9.1375  -18.5259   27.1487 O   0  0  0  0  0  0  0  0  0  0  0  0
  1  2  1  0
  2  3  1  0
  3  4  1  1
  5  6  1  6
  5  3  1  0
  7  8  2  0
  7  5  1  0
 10  9  1  6
 10 12  1  0
 11 10  1  0
 12 14  1  0
 12 13  1  6
 13  7  1  0
 14 16  1  0
 15 14  2  0
 16 17  1  0
 17 28  1  0
 17 18  1  1
 19 18  1  0
 19 27  1  0
 20 21  1  0
 20 19  2  0
 21 22  1  0
 22 27  2  0
 22 23  1  0
 23 24  2  0
 24 25  1  0
 26 25  2  0
 27 26  1  0
 28 30  2  0
 28 29  1  0
M  END
$$$$
