ITW.pdb
     RDKit          3D

 30 31  0  0  1  0  0  0  0  0999 V2000
    7.7056  -11.5950   18.8801 C   0  0  0  0  0  0  0  0  0  0  0  0
    7.9680  -13.0343   18.6250 C   0  0  0  0  0  0  0  0  0  0  0  0
    8.1168  -13.8445   19.8714 C   0  0  2  0  0  0  0  0  0  0  0  0
    9.3092  -13.2833   20.6680 C   0  0  0  0  0  0  0  0  0  0  0  0
    8.3897  -15.2903   19.5004 C   0  0  2  0  0  0  0  0  0  0  0  0
    7.2107  -15.7378   18.7538 N   0  0  0  0  0  0  0  0  0  0  0  0
    8.4205  -16.0820   20.7597 C   0  0  0  0  0  0  0  0  0  0  0  0
    7.3707  -16.1115   21.4701 O   0  0  0  0  0  0  0  0  0  0  0  0
    9.3464  -19.7602   21.2559 C   0  0  0  0  0  0  0  0  0  0  0  0
   10.0785  -18.9200   22.2522 C   0  0  1  0  0  0  0  0  0  0  0  0
   11.4011  -18.7078   21.9613 O   0  0  0  0  0  0  0  0  0  0  0  0
    9.4061  -17.5739   22.4708 C   0  0  2  0  0  0  0  0  0  0  0  0
    9.5268  -16.8100   21.2341 N   0  0  0  0  0  0  0  0  0  0  0  0
   10.0778  -16.8997   23.5894 C   0  0  0  0  0  0  0  0  0  0  0  0
   11.0882  -16.1515   23.4320 O   0  0  0  0  0  0  0  0  0  0  0  0
    9.5857  -17.0823   24.9037 N   0  0  0  0  0  0  0  0  0  0  0  0
   10.3740  -16.6794   26.0757 C   0  0  1  0  0  0  0  0  0  0  0  0
    9.9213  -15.2932   26.4417 C   0  0  0  0  0  0  0  0  0  0  0  0
    8.4908  -15.0526   26.4890 C   0  0  0  0  0  0  0  0  0  0  0  0
    7.4986  -16.0022   26.3124 C   0  0  0  0  0  0  0  0  0  0  0  0
    6.3024  -15.4052   26.3887 N   0  0  0  0  0  0  0  0  0  0  0  0
    6.4997  -14.0828   26.6129 C   0  0  0  0  0  0  0  0  0  0  0  0
    5.6439  -13.0145   26.7895 C   0  0  0  0  0  0  0  0  0  0  0  0
    6.1161  -11.7421   27.0265 C   0  0  0  0  0  0  0  0  0  0  0  0
    7.4749  -11.5232   27.0902 C   0  0  0  0  0  0  0  0  0  0  0  0
    8.3610  -12.5583   26.9195 C   0  0  0  0  0  0  0  0  0  0  0  0
    7.8613  -13.8349   26.6804 C   0  0  0  0  0  0  0  0  0  0  0  0
   10.2934  -17.6698   27.1447 C   0  0  0  0  0  0  0  0  0  0  0  0
    9.5197  -18.8105   27.0747 O   0  0  0  0  0  0  0  0  0  0  0  0
   10.9516  -17.5131   28.2213 O   0  0  0  0  0  0  0  0  0  0  0  0
  1  2  1  0
  2  3  1  0
  3  4  1  1
  5  6  1  6
  5  3  1  0
  7  8  2  0
  7  5  1  0
 10  9  1  6
 10 12  1  0
 11 10  1  0
 12 14  1  0
 12 13  1  6
 13  7  1  0
 14 16  1  0
 15 14  2  0
 16 17  1  0
 17 28  1  0
 17 18  1  1
 19 18  1  0
 19 27  1  0
 20 21  1  0
 20 19  2  0
 21 22  1  0
 22 27  2  0
 22 23  1  0
 23 24  2  0
 24 25  1  0
 26 25  2  0
 27 26  1  0
 28 30  2  0
 28 29  1  0
M  END
$$$$
