ITW.pdb
     RDKit          3D

 30 31  0  0  1  0  0  0  0  0999 V2000
    7.8738  -11.4733   19.1508 C   0  0  0  0  0  0  0  0  0  0  0  0
    8.1844  -12.8644   18.7337 C   0  0  0  0  0  0  0  0  0  0  0  0
    8.1886  -13.8403   19.8649 C   0  0  2  0  0  0  0  0  0  0  0  0
    9.2600  -13.3952   20.8775 C   0  0  0  0  0  0  0  0  0  0  0  0
    8.5326  -15.2203   19.3357 C   0  0  2  0  0  0  0  0  0  0  0  0
    7.4118  -15.6055   18.4737 N   0  0  0  0  0  0  0  0  0  0  0  0
    8.5250  -16.1611   20.4882 C   0  0  0  0  0  0  0  0  0  0  0  0
    7.4323  -16.3351   21.1073 O   0  0  0  0  0  0  0  0  0  0  0  0
    9.6636  -19.7892   20.8202 C   0  0  0  0  0  0  0  0  0  0  0  0
   10.2605  -18.9917   21.9346 C   0  0  1  0  0  0  0  0  0  0  0  0
   11.5961  -18.7177   21.7920 O   0  0  0  0  0  0  0  0  0  0  0  0
    9.5178  -17.6854   22.1663 C   0  0  2  0  0  0  0  0  0  0  0  0
    9.6386  -16.8836   20.9539 N   0  0  0  0  0  0  0  0  0  0  0  0
   10.1223  -17.0104   23.3222 C   0  0  0  0  0  0  0  0  0  0  0  0
   10.9275  -16.0391   23.2052 O   0  0  0  0  0  0  0  0  0  0  0  0
    9.7994  -17.4511   24.6277 N   0  0  0  0  0  0  0  0  0  0  0  0
   10.3053  -16.7508   25.8156 C   0  0  1  0  0  0  0  0  0  0  0  0
    9.8683  -15.3179   25.6879 C   0  0  0  0  0  0  0  0  0  0  0  0
    8.4429  -15.0507   25.7458 C   0  0  0  0  0  0  0  0  0  0  0  0
    7.4319  -15.9822   25.5797 C   0  0  0  0  0  0  0  0  0  0  0  0
    6.2476  -15.3630   25.6638 N   0  0  0  0  0  0  0  0  0  0  0  0
    6.4711  -14.0438   25.8826 C   0  0  0  0  0  0  0  0  0  0  0  0
    5.6367  -12.9593   26.0628 C   0  0  0  0  0  0  0  0  0  0  0  0
    6.1343  -11.6953   26.2924 C   0  0  0  0  0  0  0  0  0  0  0  0
    7.4973  -11.5014   26.3448 C   0  0  0  0  0  0  0  0  0  0  0  0
    8.3628  -12.5532   26.1700 C   0  0  0  0  0  0  0  0  0  0  0  0
    7.8376  -13.8210   25.9386 C   0  0  0  0  0  0  0  0  0  0  0  0
    9.9048  -17.4228   27.0477 C   0  0  0  0  0  0  0  0  0  0  0  0
   10.7868  -18.0743   27.8859 O   0  0  0  0  0  0  0  0  0  0  0  0
    8.6853  -17.4393   27.4074 O   0  0  0  0  0  0  0  0  0  0  0  0
  1  2  1  0
  2  3  1  0
  3  4  1  1
  5  6  1  6
  5  3  1  0
  7  8  2  0
  7  5  1  0
 10  9  1  6
 10 12  1  0
 11 10  1  0
 12 14  1  0
 12 13  1  6
 13  7  1  0
 14 16  1  0
 15 14  2  0
 16 17  1  0
 17 28  1  0
 17 18  1  1
 19 18  1  0
 19 27  1  0
 20 21  1  0
 20 19  2  0
 21 22  1  0
 22 27  2  0
 22 23  1  0
 23 24  2  0
 24 25  1  0
 26 25  2  0
 27 26  1  0
 28 30  2  0
 28 29  1  0
M  END
$$$$
