ITW.pdb
     RDKit          3D

 30 31  0  0  1  0  0  0  0  0999 V2000
    8.2795  -15.1158   16.2369 C   0  0  0  0  0  0  0  0  0  0  0  0
    8.7735  -14.6537   17.5590 C   0  0  0  0  0  0  0  0  0  0  0  0
    7.7079  -14.0569   18.4196 C   0  0  2  0  0  0  0  0  0  0  0  0
    7.1466  -12.8182   17.6971 C   0  0  0  0  0  0  0  0  0  0  0  0
    8.3109  -13.6398   19.7481 C   0  0  2  0  0  0  0  0  0  0  0  0
    9.4611  -12.7954   19.4141 N   0  0  0  0  0  0  0  0  0  0  0  0
    8.8557  -14.8611   20.4003 C   0  0  0  0  0  0  0  0  0  0  0  0
    8.0546  -15.8127   20.6454 O   0  0  0  0  0  0  0  0  0  0  0  0
   11.2219  -17.5169   19.4702 C   0  0  0  0  0  0  0  0  0  0  0  0
   11.6921  -16.9408   20.7668 C   0  0  1  0  0  0  0  0  0  0  0  0
   12.7519  -16.0780   20.6599 O   0  0  0  0  0  0  0  0  0  0  0  0
   10.5724  -16.2449   21.5242 C   0  0  2  0  0  0  0  0  0  0  0  0
   10.1991  -15.0529   20.7709 N   0  0  0  0  0  0  0  0  0  0  0  0
   11.0658  -15.9034   22.8648 C   0  0  0  0  0  0  0  0  0  0  0  0
   11.8467  -14.9292   23.0805 O   0  0  0  0  0  0  0  0  0  0  0  0
   10.6586  -16.6852   23.9720 N   0  0  0  0  0  0  0  0  0  0  0  0
    9.7906  -16.1304   25.0190 C   0  0  1  0  0  0  0  0  0  0  0  0
    8.6353  -15.4740   24.3156 C   0  0  0  0  0  0  0  0  0  0  0  0
    7.5971  -14.8909   25.1454 C   0  0  0  0  0  0  0  0  0  0  0  0
    6.3443  -15.4311   25.3825 C   0  0  0  0  0  0  0  0  0  0  0  0
    5.6484  -14.5965   26.1650 N   0  0  0  0  0  0  0  0  0  0  0  0
    6.4280  -13.5224   26.4417 C   0  0  0  0  0  0  0  0  0  0  0  0
    6.2368  -12.3833   27.1973 C   0  0  0  0  0  0  0  0  0  0  0  0
    7.2240  -11.4319   27.3323 C   0  0  0  0  0  0  0  0  0  0  0  0
    8.4345  -11.6152   26.7004 C   0  0  0  0  0  0  0  0  0  0  0  0
    8.6659  -12.7340   25.9385 C   0  0  0  0  0  0  0  0  0  0  0  0
    7.6539  -13.6814   25.8157 C   0  0  0  0  0  0  0  0  0  0  0  0
    9.4318  -17.1391   26.0108 C   0  0  0  0  0  0  0  0  0  0  0  0
    9.3945  -18.4933   25.7467 O   0  0  0  0  0  0  0  0  0  0  0  0
    9.1242  -16.7982   27.1966 O   0  0  0  0  0  0  0  0  0  0  0  0
  1  2  1  0
  2  3  1  0
  3  4  1  6
  5  6  1  6
  5  3  1  0
  7  8  2  0
  7  5  1  0
 10  9  1  6
 10 12  1  0
 11 10  1  0
 12 14  1  0
 12 13  1  6
 13  7  1  0
 14 16  1  0
 15 14  2  0
 16 17  1  0
 17 28  1  0
 17 18  1  6
 19 18  1  0
 19 27  1  0
 20 21  1  0
 20 19  2  0
 21 22  1  0
 22 27  2  0
 22 23  1  0
 23 24  2  0
 24 25  1  0
 26 25  2  0
 27 26  1  0
 28 30  2  0
 28 29  1  0
M  END
$$$$
