ITW.pdb
     RDKit          3D

 30 31  0  0  1  0  0  0  0  0999 V2000
    7.6965  -11.5781   19.0413 C   0  0  0  0  0  0  0  0  0  0  0  0
    8.0433  -13.0116   18.8670 C   0  0  0  0  0  0  0  0  0  0  0  0
    8.1081  -13.7710   20.1520 C   0  0  2  0  0  0  0  0  0  0  0  0
    9.1973  -13.1307   21.0324 C   0  0  0  0  0  0  0  0  0  0  0  0
    8.4730  -15.2153   19.8634 C   0  0  2  0  0  0  0  0  0  0  0  0
    7.3834  -15.7423   19.0371 N   0  0  0  0  0  0  0  0  0  0  0  0
    8.4274  -15.9590   21.1512 C   0  0  0  0  0  0  0  0  0  0  0  0
    7.3336  -15.9723   21.7924 O   0  0  0  0  0  0  0  0  0  0  0  0
    9.3439  -19.6146   21.7633 C   0  0  0  0  0  0  0  0  0  0  0  0
    9.9979  -18.7553   22.7968 C   0  0  1  0  0  0  0  0  0  0  0  0
   11.3350  -18.5314   22.5936 O   0  0  0  0  0  0  0  0  0  0  0  0
    9.2983  -17.4145   22.9534 C   0  0  2  0  0  0  0  0  0  0  0  0
    9.5056  -16.6578   21.7238 N   0  0  0  0  0  0  0  0  0  0  0  0
    9.8766  -16.7259   24.1148 C   0  0  0  0  0  0  0  0  0  0  0  0
   10.7652  -15.8290   24.0078 O   0  0  0  0  0  0  0  0  0  0  0  0
    9.4307  -17.0666   25.4140 N   0  0  0  0  0  0  0  0  0  0  0  0
   10.2301  -16.7440   26.6033 C   0  0  1  0  0  0  0  0  0  0  0  0
    9.4076  -15.7940   27.4287 C   0  0  0  0  0  0  0  0  0  0  0  0
    8.1124  -15.4060   26.9011 C   0  0  0  0  0  0  0  0  0  0  0  0
    7.1281  -16.2659   26.4437 C   0  0  0  0  0  0  0  0  0  0  0  0
    6.0894  -15.5464   26.0005 N   0  0  0  0  0  0  0  0  0  0  0  0
    6.3810  -14.2324   26.1626 C   0  0  0  0  0  0  0  0  0  0  0  0
    5.6866  -13.0690   25.8995 C   0  0  0  0  0  0  0  0  0  0  0  0
    6.2186  -11.8303   26.1834 C   0  0  0  0  0  0  0  0  0  0  0  0
    7.4741  -11.7429   26.7439 C   0  0  0  0  0  0  0  0  0  0  0  0
    8.1992  -12.8758   27.0210 C   0  0  0  0  0  0  0  0  0  0  0  0
    7.6420  -14.1162   26.7250 C   0  0  0  0  0  0  0  0  0  0  0  0
   10.6792  -17.9493   27.2930 C   0  0  0  0  0  0  0  0  0  0  0  0
   11.5900  -17.9436   28.3299 O   0  0  0  0  0  0  0  0  0  0  0  0
   10.2375  -19.0916   26.9510 O   0  0  0  0  0  0  0  0  0  0  0  0
  1  2  1  0
  2  3  1  0
  3  4  1  1
  5  6  1  6
  5  3  1  0
  7  8  2  0
  7  5  1  0
 10  9  1  6
 10 12  1  0
 11 10  1  0
 12 14  1  0
 12 13  1  6
 13  7  1  0
 14 16  1  0
 15 14  2  0
 16 17  1  0
 17 28  1  0
 17 18  1  1
 19 18  1  0
 19 27  1  0
 20 21  1  0
 20 19  2  0
 21 22  1  0
 22 27  2  0
 22 23  1  0
 23 24  2  0
 24 25  1  0
 26 25  2  0
 27 26  1  0
 28 30  2  0
 28 29  1  0
M  END
$$$$
