ITW.pdb
     RDKit          3D

 30 31  0  0  1  0  0  0  0  0999 V2000
    6.6132  -13.0656   18.4952 C   0  0  0  0  0  0  0  0  0  0  0  0
    7.7649  -13.9387   18.8370 C   0  0  0  0  0  0  0  0  0  0  0  0
    8.8485  -13.2326   19.5849 C   0  0  2  0  0  0  0  0  0  0  0  0
    9.4552  -12.1654   18.6551 C   0  0  0  0  0  0  0  0  0  0  0  0
    9.9205  -14.2322   19.9777 C   0  0  2  0  0  0  0  0  0  0  0  0
   10.2217  -14.9900   18.7601 N   0  0  0  0  0  0  0  0  0  0  0  0
    9.3123  -15.1934   20.9368 C   0  0  0  0  0  0  0  0  0  0  0  0
    8.5300  -14.7353   21.8232 O   0  0  0  0  0  0  0  0  0  0  0  0
    8.6457  -19.3131   20.5538 C   0  0  0  0  0  0  0  0  0  0  0  0
    9.3687  -18.8365   21.7721 C   0  0  1  0  0  0  0  0  0  0  0  0
   10.7277  -19.0128   21.7379 O   0  0  0  0  0  0  0  0  0  0  0  0
    9.0749  -17.3764   22.0783 C   0  0  2  0  0  0  0  0  0  0  0  0
    9.5323  -16.5828   20.9432 N   0  0  0  0  0  0  0  0  0  0  0  0
    9.7842  -17.0126   23.3119 C   0  0  0  0  0  0  0  0  0  0  0  0
   10.8040  -16.2606   23.3202 O   0  0  0  0  0  0  0  0  0  0  0  0
    9.3192  -17.5138   24.5510 N   0  0  0  0  0  0  0  0  0  0  0  0
    9.8997  -17.0619   25.8223 C   0  0  1  0  0  0  0  0  0  0  0  0
    9.5885  -15.5957   25.9392 C   0  0  0  0  0  0  0  0  0  0  0  0
    8.2142  -15.2294   26.2281 C   0  0  0  0  0  0  0  0  0  0  0  0
    7.1083  -16.0537   26.1053 C   0  0  0  0  0  0  0  0  0  0  0  0
    6.0079  -15.3607   26.4246 N   0  0  0  0  0  0  0  0  0  0  0  0
    6.3794  -14.0992   26.7540 C   0  0  0  0  0  0  0  0  0  0  0  0
    5.6800  -12.9843   27.1697 C   0  0  0  0  0  0  0  0  0  0  0  0
    6.3184  -11.7995   27.4647 C   0  0  0  0  0  0  0  0  0  0  0  0
    7.6884  -11.7182   27.3441 C   0  0  0  0  0  0  0  0  0  0  0  0
    8.4222  -12.8038   26.9330 C   0  0  0  0  0  0  0  0  0  0  0  0
    7.7560  -13.9899   26.6397 C   0  0  0  0  0  0  0  0  0  0  0  0
    9.4575  -17.8895   26.9401 C   0  0  0  0  0  0  0  0  0  0  0  0
    8.5066  -18.8835   26.8275 O   0  0  0  0  0  0  0  0  0  0  0  0
    9.9438  -17.7185   28.1025 O   0  0  0  0  0  0  0  0  0  0  0  0
  1  2  1  0
  2  3  1  0
  3  4  1  6
  5  6  1  6
  5  3  1  0
  7  8  2  0
  7  5  1  0
 10  9  1  6
 10 12  1  0
 11 10  1  0
 12 14  1  0
 12 13  1  6
 13  7  1  0
 14 16  1  0
 15 14  2  0
 16 17  1  0
 17 28  1  0
 17 18  1  1
 19 18  1  0
 19 27  1  0
 20 21  1  0
 20 19  2  0
 21 22  1  0
 22 27  2  0
 22 23  1  0
 23 24  2  0
 24 25  1  0
 26 25  2  0
 27 26  1  0
 28 30  2  0
 28 29  1  0
M  END
$$$$
