ITW.pdb
     RDKit          3D

 30 31  0  0  1  0  0  0  0  0999 V2000
    7.3929  -11.7819   18.8927 C   0  0  0  0  0  0  0  0  0  0  0  0
    7.9545  -13.1156   18.5588 C   0  0  0  0  0  0  0  0  0  0  0  0
    8.1056  -14.0137   19.7432 C   0  0  2  0  0  0  0  0  0  0  0  0
    9.0604  -13.3333   20.7415 C   0  0  0  0  0  0  0  0  0  0  0  0
    8.6973  -15.3377   19.2966 C   0  0  2  0  0  0  0  0  0  0  0  0
    7.7277  -15.9094   18.3583 N   0  0  0  0  0  0  0  0  0  0  0  0
    8.7277  -16.2407   20.4787 C   0  0  0  0  0  0  0  0  0  0  0  0
    7.6332  -16.4828   21.0710 O   0  0  0  0  0  0  0  0  0  0  0  0
   10.2052  -19.7710   20.8545 C   0  0  0  0  0  0  0  0  0  0  0  0
   10.6682  -18.9076   21.9833 C   0  0  1  0  0  0  0  0  0  0  0  0
   11.9656  -18.4770   21.8808 O   0  0  0  0  0  0  0  0  0  0  0  0
    9.7688  -17.6986   22.1863 C   0  0  2  0  0  0  0  0  0  0  0  0
    9.8797  -16.8571   21.0000 N   0  0  0  0  0  0  0  0  0  0  0  0
   10.2139  -16.9906   23.3937 C   0  0  0  0  0  0  0  0  0  0  0  0
   10.9888  -15.9889   23.3548 O   0  0  0  0  0  0  0  0  0  0  0  0
    9.7649  -17.4334   24.6607 N   0  0  0  0  0  0  0  0  0  0  0  0
   10.2772  -16.8380   25.9018 C   0  0  1  0  0  0  0  0  0  0  0  0
    9.8498  -15.3966   25.8948 C   0  0  0  0  0  0  0  0  0  0  0  0
    8.4392  -15.1211   26.0964 C   0  0  0  0  0  0  0  0  0  0  0  0
    7.4050  -16.0334   25.9715 C   0  0  0  0  0  0  0  0  0  0  0  0
    6.2415  -15.4100   26.1966 N   0  0  0  0  0  0  0  0  0  0  0  0
    6.5014  -14.1071   26.4667 C   0  0  0  0  0  0  0  0  0  0  0  0
    5.7012  -13.0275   26.7813 C   0  0  0  0  0  0  0  0  0  0  0  0
    6.2343  -11.7825   27.0342 C   0  0  0  0  0  0  0  0  0  0  0  0
    7.5990  -11.6033   26.9734 C   0  0  0  0  0  0  0  0  0  0  0  0
    8.4311  -12.6508   26.6632 C   0  0  0  0  0  0  0  0  0  0  0  0
    7.8702  -13.8992   26.4108 C   0  0  0  0  0  0  0  0  0  0  0  0
    9.8737  -17.6077   27.0743 C   0  0  0  0  0  0  0  0  0  0  0  0
   10.3599  -17.3778   28.3454 O   0  0  0  0  0  0  0  0  0  0  0  0
    9.0334  -18.5559   26.9667 O   0  0  0  0  0  0  0  0  0  0  0  0
  1  2  1  0
  2  3  1  0
  3  4  1  1
  5  6  1  6
  5  3  1  0
  7  8  2  0
  7  5  1  0
 10  9  1  6
 10 12  1  0
 11 10  1  0
 12 14  1  0
 12 13  1  6
 13  7  1  0
 14 16  1  0
 15 14  2  0
 16 17  1  0
 17 28  1  0
 17 18  1  1
 19 18  1  0
 19 27  1  0
 20 21  1  0
 20 19  2  0
 21 22  1  0
 22 27  2  0
 22 23  1  0
 23 24  2  0
 24 25  1  0
 26 25  2  0
 27 26  1  0
 28 30  2  0
 28 29  1  0
M  END
$$$$
