ITW.pdb
     RDKit          3D

 30 31  0  0  1  0  0  0  0  0999 V2000
   15.1261  -13.6446   17.8584 C   0  0  0  0  0  0  0  0  0  0  0  0
   13.9126  -14.4773   17.6589 C   0  0  0  0  0  0  0  0  0  0  0  0
   12.8530  -14.2446   18.6861 C   0  0  2  0  0  0  0  0  0  0  0  0
   13.4737  -14.4780   20.0760 C   0  0  0  0  0  0  0  0  0  0  0  0
   11.7170  -15.2263   18.4663 C   0  0  2  0  0  0  0  0  0  0  0  0
   11.0522  -14.7945   17.2337 N   0  0  0  0  0  0  0  0  0  0  0  0
   10.7352  -15.0353   19.5677 C   0  0  0  0  0  0  0  0  0  0  0  0
   10.2752  -13.8695   19.7595 O   0  0  0  0  0  0  0  0  0  0  0  0
    7.2493  -16.0050   20.1688 C   0  0  0  0  0  0  0  0  0  0  0  0
    8.0766  -16.5225   21.3011 C   0  0  1  0  0  0  0  0  0  0  0  0
    8.4146  -17.8475   21.2053 O   0  0  0  0  0  0  0  0  0  0  0  0
    9.3458  -15.7097   21.5016 C   0  0  2  0  0  0  0  0  0  0  0  0
   10.2671  -16.0493   20.4230 N   0  0  0  0  0  0  0  0  0  0  0  0
    9.9063  -16.0476   22.8165 C   0  0  0  0  0  0  0  0  0  0  0  0
   11.0445  -15.6445   23.2009 O   0  0  0  0  0  0  0  0  0  0  0  0
    9.1541  -16.8547   23.7029 N   0  0  0  0  0  0  0  0  0  0  0  0
    9.4506  -16.8883   25.1410 C   0  0  1  0  0  0  0  0  0  0  0  0
    9.4427  -15.4614   25.6145 C   0  0  0  0  0  0  0  0  0  0  0  0
    8.1487  -14.8336   25.8096 C   0  0  0  0  0  0  0  0  0  0  0  0
    6.9162  -15.4530   25.6889 C   0  0  0  0  0  0  0  0  0  0  0  0
    5.9499  -14.5515   25.9055 N   0  0  0  0  0  0  0  0  0  0  0  0
    6.5334  -13.3558   26.1660 C   0  0  0  0  0  0  0  0  0  0  0  0
    6.0347  -12.1052   26.4696 C   0  0  0  0  0  0  0  0  0  0  0  0
    6.8675  -11.0353   26.7142 C   0  0  0  0  0  0  0  0  0  0  0  0
    8.2328  -11.2105   26.6561 C   0  0  0  0  0  0  0  0  0  0  0  0
    8.7704  -12.4382   26.3567 C   0  0  0  0  0  0  0  0  0  0  0  0
    7.9100  -13.5044   26.1126 C   0  0  0  0  0  0  0  0  0  0  0  0
    8.5539  -17.7924   25.8543 C   0  0  0  0  0  0  0  0  0  0  0  0
    8.7896  -18.2523   27.1341 O   0  0  0  0  0  0  0  0  0  0  0  0
    7.4863  -18.2101   25.3043 O   0  0  0  0  0  0  0  0  0  0  0  0
  1  2  1  0
  2  3  1  0
  3  4  1  1
  5  6  1  6
  5  3  1  0
  7  8  2  0
  7  5  1  0
 10  9  1  6
 10 12  1  0
 11 10  1  0
 12 14  1  0
 12 13  1  6
 13  7  1  0
 14 16  1  0
 15 14  2  0
 16 17  1  0
 17 28  1  0
 17 18  1  1
 19 18  1  0
 19 27  1  0
 20 21  1  0
 20 19  2  0
 21 22  1  0
 22 27  2  0
 22 23  1  0
 23 24  2  0
 24 25  1  0
 26 25  2  0
 27 26  1  0
 28 30  2  0
 28 29  1  0
M  END
$$$$
