ITW.pdb
     RDKit          3D

 30 31  0  0  1  0  0  0  0  0999 V2000
    6.3019  -12.7829   19.3961 C   0  0  0  0  0  0  0  0  0  0  0  0
    7.4207  -13.7596   19.3977 C   0  0  0  0  0  0  0  0  0  0  0  0
    8.7198  -13.1791   19.8533 C   0  0  2  0  0  0  0  0  0  0  0  0
    9.1107  -12.0546   18.8766 C   0  0  0  0  0  0  0  0  0  0  0  0
    9.7854  -14.2593   19.8363 C   0  0  2  0  0  0  0  0  0  0  0  0
    9.6902  -14.8899   18.5169 N   0  0  0  0  0  0  0  0  0  0  0  0
    9.3953  -15.2946   20.8310 C   0  0  0  0  0  0  0  0  0  0  0  0
    8.4159  -15.0453   21.5966 O   0  0  0  0  0  0  0  0  0  0  0  0
    9.6697  -19.4012   20.5921 C   0  0  0  0  0  0  0  0  0  0  0  0
   10.2116  -18.7865   21.8422 C   0  0  1  0  0  0  0  0  0  0  0  0
   11.5789  -18.7028   21.8937 O   0  0  0  0  0  0  0  0  0  0  0  0
    9.6294  -17.4059   22.1009 C   0  0  2  0  0  0  0  0  0  0  0  0
   10.0263  -16.5411   20.9954 N   0  0  0  0  0  0  0  0  0  0  0  0
   10.1537  -16.9177   23.3831 C   0  0  0  0  0  0  0  0  0  0  0  0
   11.0658  -16.0418   23.4621 O   0  0  0  0  0  0  0  0  0  0  0  0
    9.6259  -17.4368   24.5893 N   0  0  0  0  0  0  0  0  0  0  0  0
   10.0781  -16.9398   25.8954 C   0  0  1  0  0  0  0  0  0  0  0  0
    9.7560  -15.4717   25.9311 C   0  0  0  0  0  0  0  0  0  0  0  0
    8.3534  -15.0991   25.9223 C   0  0  0  0  0  0  0  0  0  0  0  0
    7.2910  -15.9322   25.6148 C   0  0  0  0  0  0  0  0  0  0  0  0
    6.1520  -15.2308   25.6770 N   0  0  0  0  0  0  0  0  0  0  0  0
    6.4556  -13.9550   26.0207 C   0  0  0  0  0  0  0  0  0  0  0  0
    5.6920  -12.8263   26.2399 C   0  0  0  0  0  0  0  0  0  0  0  0
    6.2636  -11.6276   26.6068 C   0  0  0  0  0  0  0  0  0  0  0  0
    7.6302  -11.5460   26.7606 C   0  0  0  0  0  0  0  0  0  0  0  0
    8.4267  -12.6450   26.5515 C   0  0  0  0  0  0  0  0  0  0  0  0
    7.8275  -13.8451   26.1808 C   0  0  0  0  0  0  0  0  0  0  0  0
    9.5284  -17.7309   26.9918 C   0  0  0  0  0  0  0  0  0  0  0  0
    9.8880  -17.5614   28.3135 O   0  0  0  0  0  0  0  0  0  0  0  0
    8.6707  -18.6418   26.7644 O   0  0  0  0  0  0  0  0  0  0  0  0
  1  2  1  0
  2  3  1  0
  3  4  1  6
  5  6  1  6
  5  3  1  0
  7  8  2  0
  7  5  1  0
 10  9  1  6
 10 12  1  0
 11 10  1  0
 12 14  1  0
 12 13  1  6
 13  7  1  0
 14 16  1  0
 15 14  2  0
 16 17  1  0
 17 28  1  0
 17 18  1  1
 19 18  1  0
 19 27  1  0
 20 21  1  0
 20 19  2  0
 21 22  1  0
 22 27  2  0
 22 23  1  0
 23 24  2  0
 24 25  1  0
 26 25  2  0
 27 26  1  0
 28 30  2  0
 28 29  1  0
M  END
$$$$
