ITW.pdb
     RDKit          3D

 30 31  0  0  1  0  0  0  0  0999 V2000
    8.2543  -12.2883   18.3988 C   0  0  0  0  0  0  0  0  0  0  0  0
    7.2025  -13.2324   18.8549 C   0  0  0  0  0  0  0  0  0  0  0  0
    7.6990  -14.2587   19.8206 C   0  0  2  0  0  0  0  0  0  0  0  0
    8.1609  -13.5315   21.0970 C   0  0  0  0  0  0  0  0  0  0  0  0
    8.8719  -14.9998   19.2061 C   0  0  2  0  0  0  0  0  0  0  0  0
    8.3177  -15.7549   18.0791 N   0  0  0  0  0  0  0  0  0  0  0  0
    9.3428  -16.0029   20.1989 C   0  0  0  0  0  0  0  0  0  0  0  0
    8.4970  -16.8283   20.6581 O   0  0  0  0  0  0  0  0  0  0  0  0
   12.2447  -18.4754   20.2115 C   0  0  0  0  0  0  0  0  0  0  0  0
   12.2765  -17.7036   21.4911 C   0  0  1  0  0  0  0  0  0  0  0  0
   13.2766  -16.7696   21.5724 O   0  0  0  0  0  0  0  0  0  0  0  0
   10.9490  -17.0218   21.7823 C   0  0  2  0  0  0  0  0  0  0  0  0
   10.6615  -16.1162   20.6756 N   0  0  0  0  0  0  0  0  0  0  0  0
   11.0722  -16.2977   23.0541 C   0  0  0  0  0  0  0  0  0  0  0  0
   11.5215  -15.1153   23.1293 O   0  0  0  0  0  0  0  0  0  0  0  0
   10.6741  -16.9338   24.2541 N   0  0  0  0  0  0  0  0  0  0  0  0
    9.7868  -16.2640   25.2139 C   0  0  1  0  0  0  0  0  0  0  0  0
    8.6264  -15.7267   24.4232 C   0  0  0  0  0  0  0  0  0  0  0  0
    7.5735  -15.0546   25.1623 C   0  0  0  0  0  0  0  0  0  0  0  0
    6.3339  -15.5847   25.4783 C   0  0  0  0  0  0  0  0  0  0  0  0
    5.6173  -14.6624   26.1332 N   0  0  0  0  0  0  0  0  0  0  0  0
    6.3703  -13.5410   26.2493 C   0  0  0  0  0  0  0  0  0  0  0  0
    6.1507  -12.3093   26.8321 C   0  0  0  0  0  0  0  0  0  0  0  0
    7.1145  -11.3248   26.8253 C   0  0  0  0  0  0  0  0  0  0  0  0
    8.3298  -11.5687   26.2237 C   0  0  0  0  0  0  0  0  0  0  0  0
    8.5890  -12.7803   25.6315 C   0  0  0  0  0  0  0  0  0  0  0  0
    7.6003  -13.7595   25.6500 C   0  0  0  0  0  0  0  0  0  0  0  0
    9.4369  -17.1416   26.3263 C   0  0  0  0  0  0  0  0  0  0  0  0
    9.4127  -16.7340   27.6447 O   0  0  0  0  0  0  0  0  0  0  0  0
    9.1351  -18.3591   26.1182 O   0  0  0  0  0  0  0  0  0  0  0  0
  1  2  1  0
  2  3  1  0
  3  4  1  1
  5  6  1  6
  5  3  1  0
  7  8  2  0
  7  5  1  0
 10  9  1  6
 10 12  1  0
 11 10  1  0
 12 14  1  0
 12 13  1  6
 13  7  1  0
 14 16  1  0
 15 14  2  0
 16 17  1  0
 17 28  1  0
 17 18  1  6
 19 18  1  0
 19 27  1  0
 20 21  1  0
 20 19  2  0
 21 22  1  0
 22 27  2  0
 22 23  1  0
 23 24  2  0
 24 25  1  0
 26 25  2  0
 27 26  1  0
 28 30  2  0
 28 29  1  0
M  END
$$$$
