DSH.pdb
     RDKit          3D

 25 25  0  0  1  0  0  0  0  0999 V2000
   11.3151  -15.0458   18.8842 N   0  0  0  0  0  0  0  0  0  0  0  0
   12.1284  -15.5205   19.9822 C   0  0  1  0  0  0  0  0  0  0  0  0
   13.1207  -14.4090   20.3318 C   0  0  0  0  0  0  0  0  0  0  0  0
   14.2357  -14.4207   19.3852 C   0  0  0  0  0  0  0  0  0  0  0  0
   14.6816  -15.4965   18.9283 O   0  0  0  0  0  0  0  0  0  0  0  0
   11.2605  -15.7930   21.1309 C   0  0  0  0  0  0  0  0  0  0  0  0
   10.2786  -15.0375   21.4154 O   0  0  0  0  0  0  0  0  0  0  0  0
   14.8220  -13.2396   18.9744 O   0  0  0  0  0  0  0  0  0  0  0  0
   10.6429  -19.5639   22.7578 O   0  0  0  0  0  0  0  0  0  0  0  0
    9.7993  -18.4858   22.9159 C   0  0  0  0  0  0  0  0  0  0  0  0
   10.5359  -17.1812   23.1045 C   0  0  2  0  0  0  0  0  0  0  0  0
   11.4418  -16.9082   22.0093 N   0  0  0  0  0  0  0  0  0  0  0  0
   11.2239  -17.1019   24.4198 C   0  0  0  0  0  0  0  0  0  0  0  0
   12.4798  -17.1581   24.4745 O   0  0  0  0  0  0  0  0  0  0  0  0
   10.5285  -16.9626   25.6530 N   0  0  0  0  0  0  0  0  0  0  0  0
   11.2227  -17.0180   26.9334 C   0  0  1  0  0  0  0  0  0  0  0  0
   10.3791  -16.4961   28.0485 C   0  0  0  0  0  0  0  0  0  0  0  0
    9.9543  -15.1162   27.7918 C   0  0  0  0  0  0  0  0  0  0  0  0
   10.2511  -14.3398   26.6833 C   0  0  0  0  0  0  0  0  0  0  0  0
    9.6816  -13.1309   26.8134 N   0  0  0  0  0  0  0  0  0  0  0  0
    9.0238  -13.1119   27.9827 C   0  0  0  0  0  0  0  0  0  0  0  0
    9.1956  -14.3191   28.5670 N   0  0  0  0  0  0  0  0  0  0  0  0
   11.7376  -18.3616   27.2050 C   0  0  0  0  0  0  0  0  0  0  0  0
   11.1751  -19.3424   26.6031 O   0  0  0  0  0  0  0  0  0  0  0  0
   12.7745  -18.6887   28.0470 O   0  0  0  0  0  0  0  0  0  0  0  0
  2  1  1  6
  3  2  1  0
  4  3  1  0
  5  4  2  0
  6  7  2  0
  6  2  1  0
  8  4  1  0
  9 10  1  0
 11 10  1  6
 11 12  1  0
 12  6  1  0
 13 15  1  0
 13 11  1  0
 14 13  2  0
 16 23  1  0
 16 15  1  0
 16 17  1  1
 17 18  1  0
 18 22  1  0
 19 18  2  0
 19 20  1  0
 20 21  1  0
 22 21  2  0
 23 25  1  0
 24 23  2  0
M  END
$$$$
