DSH.pdb
     RDKit          3D

 25 25  0  0  1  0  0  0  0  0999 V2000
   12.4507  -15.6208   12.5149 N   0  0  0  0  0  0  0  0  0  0  0  0
   12.2591  -16.6396   13.5236 C   0  0  1  0  0  0  0  0  0  0  0  0
   13.4955  -17.5415   13.5053 C   0  0  0  0  0  0  0  0  0  0  0  0
   13.4459  -18.4314   12.3456 C   0  0  0  0  0  0  0  0  0  0  0  0
   14.2705  -18.3192   11.4117 O   0  0  0  0  0  0  0  0  0  0  0  0
   12.1338  -15.9924   14.8322 C   0  0  0  0  0  0  0  0  0  0  0  0
   12.8425  -14.9846   15.1453 O   0  0  0  0  0  0  0  0  0  0  0  0
   12.4837  -19.4183   12.2571 O   0  0  0  0  0  0  0  0  0  0  0  0
    9.5131  -17.3408   17.9888 O   0  0  0  0  0  0  0  0  0  0  0  0
    9.7464  -16.0031   17.7543 C   0  0  0  0  0  0  0  0  0  0  0  0
   11.0865  -15.7407   17.1097 C   0  0  2  0  0  0  0  0  0  0  0  0
   11.2230  -16.4312   15.8452 N   0  0  0  0  0  0  0  0  0  0  0  0
   12.2231  -16.0341   18.0217 C   0  0  0  0  0  0  0  0  0  0  0  0
   12.8330  -17.1309   17.9302 O   0  0  0  0  0  0  0  0  0  0  0  0
   12.6742  -15.1244   19.0182 N   0  0  0  0  0  0  0  0  0  0  0  0
   13.7634  -15.4623   19.9258 C   0  0  1  0  0  0  0  0  0  0  0  0
   14.7604  -14.3572   20.0367 C   0  0  0  0  0  0  0  0  0  0  0  0
   15.5535  -14.2327   18.8094 C   0  0  0  0  0  0  0  0  0  0  0  0
   15.2035  -13.5608   17.6494 C   0  0  0  0  0  0  0  0  0  0  0  0
   16.1915  -13.6734   16.7472 N   0  0  0  0  0  0  0  0  0  0  0  0
   17.1710  -14.4039   17.3015 C   0  0  0  0  0  0  0  0  0  0  0  0
   16.7742  -14.7373   18.5504 N   0  0  0  0  0  0  0  0  0  0  0  0
   13.2580  -15.8909   21.2317 C   0  0  0  0  0  0  0  0  0  0  0  0
   11.9936  -15.8268   21.4255 O   0  0  0  0  0  0  0  0  0  0  0  0
   14.0042  -16.3621   22.2863 O   0  0  0  0  0  0  0  0  0  0  0  0
  2  1  1  6
  3  2  1  0
  4  3  1  0
  5  4  2  0
  6  7  2  0
  6  2  1  0
  8  4  1  0
  9 10  1  0
 11 10  1  1
 11 12  1  0
 12  6  1  0
 13 15  1  0
 13 11  1  0
 14 13  2  0
 16 23  1  0
 16 15  1  0
 16 17  1  1
 17 18  1  0
 18 22  1  0
 19 18  2  0
 19 20  1  0
 20 21  1  0
 22 21  2  0
 23 25  1  0
 24 23  2  0
M  END
$$$$
