DSH.pdb
     RDKit          3D

 25 25  0  0  1  0  0  0  0  0999 V2000
   12.9247  -17.1432   14.5195 N   0  0  0  0  0  0  0  0  0  0  0  0
   13.4072  -17.0979   15.8824 C   0  0  1  0  0  0  0  0  0  0  0  0
   14.2492  -15.8282   16.0288 C   0  0  0  0  0  0  0  0  0  0  0  0
   15.5653  -16.0306   15.4235 C   0  0  0  0  0  0  0  0  0  0  0  0
   15.8876  -17.1374   14.9378 O   0  0  0  0  0  0  0  0  0  0  0  0
   12.2581  -17.0410   16.7897 C   0  0  0  0  0  0  0  0  0  0  0  0
   11.3868  -16.1198   16.7010 O   0  0  0  0  0  0  0  0  0  0  0  0
   16.4833  -14.9998   15.3753 O   0  0  0  0  0  0  0  0  0  0  0  0
   11.4124  -19.9646   19.8632 O   0  0  0  0  0  0  0  0  0  0  0  0
   10.4317  -19.3003   19.1590 C   0  0  0  0  0  0  0  0  0  0  0  0
   10.8645  -17.9317   18.6902 C   0  0  2  0  0  0  0  0  0  0  0  0
   12.0258  -17.9971   17.8290 N   0  0  0  0  0  0  0  0  0  0  0  0
   11.0680  -16.9831   19.8164 C   0  0  0  0  0  0  0  0  0  0  0  0
   12.2331  -16.6348   20.1396 O   0  0  0  0  0  0  0  0  0  0  0  0
    9.9953  -16.4311   20.5704 N   0  0  0  0  0  0  0  0  0  0  0  0
   10.2244  -15.4402   21.6145 C   0  0  1  0  0  0  0  0  0  0  0  0
    9.0495  -14.5376   21.7947 C   0  0  0  0  0  0  0  0  0  0  0  0
    8.6657  -13.9065   20.5278 C   0  0  0  0  0  0  0  0  0  0  0  0
    9.4985  -13.2691   19.6224 C   0  0  0  0  0  0  0  0  0  0  0  0
    8.7761  -12.8202   18.5835 N   0  0  0  0  0  0  0  0  0  0  0  0
    7.4951  -13.1550   18.8003 C   0  0  0  0  0  0  0  0  0  0  0  0
    7.4395  -13.8125   19.9805 N   0  0  0  0  0  0  0  0  0  0  0  0
   10.6408  -16.0711   22.8686 C   0  0  0  0  0  0  0  0  0  0  0  0
   10.5522  -17.3466   22.9458 O   0  0  0  0  0  0  0  0  0  0  0  0
   11.1242  -15.4338   23.9873 O   0  0  0  0  0  0  0  0  0  0  0  0
  2  1  1  6
  3  2  1  0
  4  3  1  0
  5  4  2  0
  6  7  2  0
  6  2  1  0
  8  4  1  0
  9 10  1  0
 11 10  1  1
 11 12  1  0
 12  6  1  0
 13 15  1  0
 13 11  1  0
 14 13  2  0
 16 23  1  0
 16 15  1  0
 16 17  1  1
 17 18  1  0
 18 22  1  0
 19 18  2  0
 19 20  1  0
 20 21  1  0
 22 21  2  0
 23 25  1  0
 24 23  2  0
M  END
$$$$
