DSH.pdb
     RDKit          3D

 25 25  0  0  1  0  0  0  0  0999 V2000
   12.3556  -16.3601   18.1839 N   0  0  0  0  0  0  0  0  0  0  0  0
   12.6280  -15.9530   19.5449 C   0  0  1  0  0  0  0  0  0  0  0  0
   12.8163  -14.4341   19.5403 C   0  0  0  0  0  0  0  0  0  0  0  0
   14.1555  -14.0997   19.0564 C   0  0  0  0  0  0  0  0  0  0  0  0
   14.3180  -13.2815   18.1242 O   0  0  0  0  0  0  0  0  0  0  0  0
   11.4815  -16.3103   20.3844 C   0  0  0  0  0  0  0  0  0  0  0  0
   10.2931  -16.0079   20.0494 O   0  0  0  0  0  0  0  0  0  0  0  0
   15.2732  -14.6826   19.6209 O   0  0  0  0  0  0  0  0  0  0  0  0
   11.3306  -19.6498   22.7799 O   0  0  0  0  0  0  0  0  0  0  0  0
   10.2473  -18.9396   22.3096 C   0  0  0  0  0  0  0  0  0  0  0  0
   10.4444  -17.4443   22.3809 C   0  0  2  0  0  0  0  0  0  0  0  0
   11.6011  -17.0144   21.6246 N   0  0  0  0  0  0  0  0  0  0  0  0
   10.4845  -16.9423   23.7795 C   0  0  0  0  0  0  0  0  0  0  0  0
   11.5751  -16.5595   24.2769 O   0  0  0  0  0  0  0  0  0  0  0  0
    9.3326  -16.8670   24.6110 N   0  0  0  0  0  0  0  0  0  0  0  0
    9.4228  -16.4621   26.0083 C   0  0  1  0  0  0  0  0  0  0  0  0
    8.1531  -15.8460   26.4938 C   0  0  0  0  0  0  0  0  0  0  0  0
    7.7990  -14.6646   25.7003 C   0  0  0  0  0  0  0  0  0  0  0  0
    8.3929  -13.4138   25.7477 C   0  0  0  0  0  0  0  0  0  0  0  0
    7.7906  -12.5947   24.8706 N   0  0  0  0  0  0  0  0  0  0  0  0
    6.8209  -13.2916   24.2589 C   0  0  0  0  0  0  0  0  0  0  0  0
    6.8348  -14.5438   24.7688 N   0  0  0  0  0  0  0  0  0  0  0  0
    9.8666  -17.5688   26.8583 C   0  0  0  0  0  0  0  0  0  0  0  0
    9.8925  -18.7391   26.3382 O   0  0  0  0  0  0  0  0  0  0  0  0
   10.2649  -17.4864   28.1720 O   0  0  0  0  0  0  0  0  0  0  0  0
  2  1  1  6
  3  2  1  0
  4  3  1  0
  5  4  2  0
  6  7  2  0
  6  2  1  0
  8  4  1  0
  9 10  1  0
 11 10  1  1
 11 12  1  0
 12  6  1  0
 13 15  1  0
 13 11  1  0
 14 13  2  0
 16 23  1  0
 16 15  1  0
 16 17  1  1
 17 18  1  0
 18 22  1  0
 19 18  2  0
 19 20  1  0
 20 21  1  0
 22 21  2  0
 23 25  1  0
 24 23  2  0
M  END
$$$$
