DSH.pdb
     RDKit          3D

 25 25  0  0  1  0  0  0  0  0999 V2000
   12.6202  -18.5310   18.4914 N   0  0  0  0  0  0  0  0  0  0  0  0
   12.7472  -19.6530   19.3955 C   0  0  1  0  0  0  0  0  0  0  0  0
   14.2134  -20.0920   19.3784 C   0  0  0  0  0  0  0  0  0  0  0  0
   14.5720  -20.5794   18.0468 C   0  0  0  0  0  0  0  0  0  0  0  0
   15.4799  -20.0316   17.3831 O   0  0  0  0  0  0  0  0  0  0  0  0
   12.3728  -19.2190   20.7439 C   0  0  0  0  0  0  0  0  0  0  0  0
   13.0774  -18.3830   21.3922 O   0  0  0  0  0  0  0  0  0  0  0  0
   13.9132  -21.6592   17.4921 O   0  0  0  0  0  0  0  0  0  0  0  0
    8.4795  -19.6242   22.2648 O   0  0  0  0  0  0  0  0  0  0  0  0
    9.3739  -18.6676   22.6938 C   0  0  0  0  0  0  0  0  0  0  0  0
   10.8016  -19.1589   22.7125 C   0  0  2  0  0  0  0  0  0  0  0  0
   11.2077  -19.6900   21.4289 N   0  0  0  0  0  0  0  0  0  0  0  0
   11.0557  -20.1257   23.8126 C   0  0  0  0  0  0  0  0  0  0  0  0
   10.7318  -21.3335   23.6728 O   0  0  0  0  0  0  0  0  0  0  0  0
   11.6593  -19.7567   25.0469 N   0  0  0  0  0  0  0  0  0  0  0  0
   11.8012  -20.7066   26.1434 C   0  0  1  0  0  0  0  0  0  0  0  0
   13.2131  -20.8053   26.6168 C   0  0  0  0  0  0  0  0  0  0  0  0
   14.1211  -21.1353   25.5135 C   0  0  0  0  0  0  0  0  0  0  0  0
   13.8943  -22.0292   24.4796 C   0  0  0  0  0  0  0  0  0  0  0  0
   14.9614  -22.0575   23.6652 N   0  0  0  0  0  0  0  0  0  0  0  0
   15.8714  -21.2004   24.1527 C   0  0  0  0  0  0  0  0  0  0  0  0
   15.3522  -20.6474   25.2721 N   0  0  0  0  0  0  0  0  0  0  0  0
   10.8671  -20.4106   27.2316 C   0  0  0  0  0  0  0  0  0  0  0  0
   10.8541  -21.2100   28.2324 O   0  0  0  0  0  0  0  0  0  0  0  0
    9.9913  -19.3524   27.2967 O   0  0  0  0  0  0  0  0  0  0  0  0
  2  1  1  6
  3  2  1  0
  4  3  1  0
  5  4  2  0
  6  7  2  0
  6  2  1  0
  8  4  1  0
  9 10  1  0
 11 10  1  6
 11 12  1  0
 12  6  1  0
 13 15  1  0
 13 11  1  0
 14 13  2  0
 16 23  1  0
 16 15  1  0
 16 17  1  1
 17 18  1  0
 18 22  1  0
 19 18  2  0
 19 20  1  0
 20 21  1  0
 22 21  2  0
 23 25  1  0
 24 23  2  0
M  END
$$$$
