DSH.pdb
     RDKit          3D

 25 25  0  0  1  0  0  0  0  0999 V2000
    9.6366  -17.2564   14.6323 N   0  0  0  0  0  0  0  0  0  0  0  0
    9.3731  -18.1825   15.7118 C   0  0  1  0  0  0  0  0  0  0  0  0
   10.4050  -19.3085   15.6121 C   0  0  0  0  0  0  0  0  0  0  0  0
   10.1793  -20.0846   14.3930 C   0  0  0  0  0  0  0  0  0  0  0  0
   11.0366  -20.8952   13.9774 O   0  0  0  0  0  0  0  0  0  0  0  0
    9.5259  -17.4783   16.9876 C   0  0  0  0  0  0  0  0  0  0  0  0
   10.3212  -16.4945   17.1121 O   0  0  0  0  0  0  0  0  0  0  0  0
    9.0101  -19.9382   13.6725 O   0  0  0  0  0  0  0  0  0  0  0  0
    7.6554  -18.7137   20.6507 O   0  0  0  0  0  0  0  0  0  0  0  0
    7.8576  -17.3763   20.3873 C   0  0  0  0  0  0  0  0  0  0  0  0
    8.9947  -17.1283   19.4253 C   0  0  2  0  0  0  0  0  0  0  0  0
    8.8080  -17.8315   18.1742 N   0  0  0  0  0  0  0  0  0  0  0  0
   10.3222  -17.4202   20.0271 C   0  0  0  0  0  0  0  0  0  0  0  0
   10.9393  -18.4686   19.7054 O   0  0  0  0  0  0  0  0  0  0  0  0
   10.9531  -16.5620   20.9702 N   0  0  0  0  0  0  0  0  0  0  0  0
   12.2365  -16.8997   21.5732 C   0  0  1  0  0  0  0  0  0  0  0  0
   13.1494  -15.7208   21.6391 C   0  0  0  0  0  0  0  0  0  0  0  0
   14.4520  -16.0891   22.2033 C   0  0  0  0  0  0  0  0  0  0  0  0
   14.8828  -17.3563   22.5612 C   0  0  0  0  0  0  0  0  0  0  0  0
   16.1352  -17.2885   23.0406 N   0  0  0  0  0  0  0  0  0  0  0  0
   16.5206  -16.0039   22.9990 C   0  0  0  0  0  0  0  0  0  0  0  0
   15.4937  -15.2863   22.4903 N   0  0  0  0  0  0  0  0  0  0  0  0
   12.0620  -17.5439   22.8766 C   0  0  0  0  0  0  0  0  0  0  0  0
   11.0061  -17.2548   23.5415 O   0  0  0  0  0  0  0  0  0  0  0  0
   12.9204  -18.4386   23.4716 O   0  0  0  0  0  0  0  0  0  0  0  0
  2  1  1  6
  3  2  1  0
  4  3  1  0
  5  4  2  0
  6  7  2  0
  6  2  1  0
  8  4  1  0
  9 10  1  0
 11 10  1  1
 11 12  1  0
 12  6  1  0
 13 15  1  0
 13 11  1  0
 14 13  2  0
 16 23  1  0
 16 15  1  0
 16 17  1  1
 17 18  1  0
 18 22  1  0
 19 18  2  0
 19 20  1  0
 20 21  1  0
 22 21  2  0
 23 25  1  0
 24 23  2  0
M  END
$$$$
