DSH.pdb
     RDKit          3D

 25 25  0  0  1  0  0  0  0  0999 V2000
    7.0559  -20.0896   20.0889 N   0  0  0  0  0  0  0  0  0  0  0  0
    8.0113  -20.6549   21.0162 C   0  0  1  0  0  0  0  0  0  0  0  0
    9.4097  -20.2846   20.5164 C   0  0  0  0  0  0  0  0  0  0  0  0
    9.7333  -21.0617   19.3203 C   0  0  0  0  0  0  0  0  0  0  0  0
    9.3714  -22.2540   19.2093 O   0  0  0  0  0  0  0  0  0  0  0  0
    7.7856  -20.0728   22.3418 C   0  0  0  0  0  0  0  0  0  0  0  0
    7.5780  -18.8280   22.4940 O   0  0  0  0  0  0  0  0  0  0  0  0
   10.4480  -20.4931   18.2842 O   0  0  0  0  0  0  0  0  0  0  0  0
    5.8833  -22.0734   25.3518 O   0  0  0  0  0  0  0  0  0  0  0  0
    6.0080  -20.7057   25.2377 C   0  0  0  0  0  0  0  0  0  0  0  0
    7.3932  -20.2709   24.8226 C   0  0  2  0  0  0  0  0  0  0  0  0
    7.7802  -20.8405   23.5497 N   0  0  0  0  0  0  0  0  0  0  0  0
    8.4103  -20.5332   25.8743 C   0  0  0  0  0  0  0  0  0  0  0  0
    9.1651  -21.5356   25.7800 O   0  0  0  0  0  0  0  0  0  0  0  0
    8.5859  -19.6962   27.0112 N   0  0  0  0  0  0  0  0  0  0  0  0
    9.5373  -20.0264   28.0649 C   0  0  1  0  0  0  0  0  0  0  0  0
    9.7170  -18.8999   29.0273 C   0  0  0  0  0  0  0  0  0  0  0  0
   10.6872  -19.2439   30.0719 C   0  0  0  0  0  0  0  0  0  0  0  0
   11.4220  -20.4134   30.1816 C   0  0  0  0  0  0  0  0  0  0  0  0
   12.2023  -20.3553   31.2728 N   0  0  0  0  0  0  0  0  0  0  0  0
   11.9857  -19.1728   31.8686 C   0  0  0  0  0  0  0  0  0  0  0  0
   11.0665  -18.5078   31.1331 N   0  0  0  0  0  0  0  0  0  0  0  0
    9.1816  -21.2798   28.7331 C   0  0  0  0  0  0  0  0  0  0  0  0
    7.9356  -21.5471   28.8624 O   0  0  0  0  0  0  0  0  0  0  0  0
   10.0524  -22.2142   29.2428 O   0  0  0  0  0  0  0  0  0  0  0  0
  2  1  1  6
  3  2  1  0
  4  3  1  0
  5  4  2  0
  6  7  2  0
  6  2  1  0
  8  4  1  0
  9 10  1  0
 11 10  1  1
 11 12  1  0
 12  6  1  0
 13 15  1  0
 13 11  1  0
 14 13  2  0
 16 23  1  0
 16 15  1  0
 16 17  1  1
 17 18  1  0
 18 22  1  0
 19 18  2  0
 19 20  1  0
 20 21  1  0
 22 21  2  0
 23 25  1  0
 24 23  2  0
M  END
$$$$
