DSH.pdb
     RDKit          3D

 25 25  0  0  1  0  0  0  0  0999 V2000
    8.0426  -17.7114   16.7009 N   0  0  0  0  0  0  0  0  0  0  0  0
    7.5122  -17.5407   18.0358 C   0  0  1  0  0  0  0  0  0  0  0  0
    7.9877  -18.7300   18.8737 C   0  0  0  0  0  0  0  0  0  0  0  0
    9.4342  -18.6508   19.0753 C   0  0  0  0  0  0  0  0  0  0  0  0
   10.1563  -17.9804   18.3046 O   0  0  0  0  0  0  0  0  0  0  0  0
    8.0374  -16.2936   18.5978 C   0  0  0  0  0  0  0  0  0  0  0  0
    8.3035  -15.2930   17.8604 O   0  0  0  0  0  0  0  0  0  0  0  0
   10.0355  -19.3172   20.1250 O   0  0  0  0  0  0  0  0  0  0  0  0
    5.5558  -15.5864   21.5651 O   0  0  0  0  0  0  0  0  0  0  0  0
    6.2352  -14.9004   20.5818 C   0  0  0  0  0  0  0  0  0  0  0  0
    7.7354  -14.9858   20.7300 C   0  0  2  0  0  0  0  0  0  0  0  0
    8.2890  -16.1020   19.9936 N   0  0  0  0  0  0  0  0  0  0  0  0
    8.1664  -14.9979   22.1525 C   0  0  0  0  0  0  0  0  0  0  0  0
    7.7866  -14.0844   22.9302 O   0  0  0  0  0  0  0  0  0  0  0  0
    9.0049  -16.0075   22.7016 N   0  0  0  0  0  0  0  0  0  0  0  0
    9.8193  -15.7652   23.8859 C   0  0  1  0  0  0  0  0  0  0  0  0
    9.2963  -16.4909   25.0807 C   0  0  0  0  0  0  0  0  0  0  0  0
    8.8926  -17.8581   24.7366 C   0  0  0  0  0  0  0  0  0  0  0  0
    7.6160  -18.3050   24.4364 C   0  0  0  0  0  0  0  0  0  0  0  0
    7.6488  -19.6214   24.1743 N   0  0  0  0  0  0  0  0  0  0  0  0
    8.9199  -20.0323   24.2993 C   0  0  0  0  0  0  0  0  0  0  0  0
    9.6646  -18.9564   24.6401 N   0  0  0  0  0  0  0  0  0  0  0  0
   11.2322  -16.0543   23.6318 C   0  0  0  0  0  0  0  0  0  0  0  0
   11.5308  -16.6028   22.5134 O   0  0  0  0  0  0  0  0  0  0  0  0
   12.2875  -15.7963   24.4749 O   0  0  0  0  0  0  0  0  0  0  0  0
  2  1  1  6
  3  2  1  0
  4  3  1  0
  5  4  2  0
  6  7  2  0
  6  2  1  0
  8  4  1  0
  9 10  1  0
 11 10  1  1
 11 12  1  0
 12  6  1  0
 13 15  1  0
 13 11  1  0
 14 13  2  0
 16 23  1  0
 16 15  1  0
 16 17  1  1
 17 18  1  0
 18 22  1  0
 19 18  2  0
 19 20  1  0
 20 21  1  0
 22 21  2  0
 23 25  1  0
 24 23  2  0
M  END
$$$$
