DSH.pdb
     RDKit          3D

 25 25  0  0  1  0  0  0  0  0999 V2000
   11.0209  -17.5961   18.4193 N   0  0  0  0  0  0  0  0  0  0  0  0
    9.6215  -17.6915   18.7725 C   0  0  1  0  0  0  0  0  0  0  0  0
    9.3054  -19.1720   18.9981 C   0  0  0  0  0  0  0  0  0  0  0  0
    9.0610  -19.8304   17.7150 C   0  0  0  0  0  0  0  0  0  0  0  0
    9.7930  -19.6055   16.7258 O   0  0  0  0  0  0  0  0  0  0  0  0
    9.3930  -16.9393   20.0090 C   0  0  0  0  0  0  0  0  0  0  0  0
   10.2920  -16.8411   20.9023 O   0  0  0  0  0  0  0  0  0  0  0  0
    8.0128  -20.7177   17.5683 O   0  0  0  0  0  0  0  0  0  0  0  0
    5.5616  -15.3743   21.2388 O   0  0  0  0  0  0  0  0  0  0  0  0
    6.7290  -14.7037   21.5329 C   0  0  0  0  0  0  0  0  0  0  0  0
    7.9363  -15.6095   21.5765 C   0  0  2  0  0  0  0  0  0  0  0  0
    8.1654  -16.2670   20.3077 N   0  0  0  0  0  0  0  0  0  0  0  0
    7.8758  -16.5838   22.6974 C   0  0  0  0  0  0  0  0  0  0  0  0
    7.5405  -17.7759   22.4742 O   0  0  0  0  0  0  0  0  0  0  0  0
    8.1826  -16.2395   24.0433 N   0  0  0  0  0  0  0  0  0  0  0  0
    7.9604  -17.1720   25.1413 C   0  0  1  0  0  0  0  0  0  0  0  0
    9.0822  -17.1526   26.1255 C   0  0  0  0  0  0  0  0  0  0  0  0
   10.2473  -17.8836   25.6167 C   0  0  0  0  0  0  0  0  0  0  0  0
   10.3714  -18.5138   24.3891 C   0  0  0  0  0  0  0  0  0  0  0  0
   11.5878  -19.0736   24.2902 N   0  0  0  0  0  0  0  0  0  0  0  0
   12.2503  -18.8174   25.4284 C   0  0  0  0  0  0  0  0  0  0  0  0
   11.4293  -18.0962   26.2247 N   0  0  0  0  0  0  0  0  0  0  0  0
    6.6586  -16.9519   25.7747 C   0  0  0  0  0  0  0  0  0  0  0  0
    6.0309  -15.8761   25.4760 O   0  0  0  0  0  0  0  0  0  0  0  0
    6.0281  -17.7872   26.6669 O   0  0  0  0  0  0  0  0  0  0  0  0
  2  1  1  1
  3  2  1  0
  4  3  1  0
  5  4  2  0
  6  7  2  0
  6  2  1  0
  8  4  1  0
  9 10  1  0
 11 10  1  6
 11 12  1  0
 12  6  1  0
 13 15  1  0
 13 11  1  0
 14 13  2  0
 16 23  1  0
 16 15  1  0
 16 17  1  1
 17 18  1  0
 18 22  1  0
 19 18  2  0
 19 20  1  0
 20 21  1  0
 22 21  2  0
 23 25  1  0
 24 23  2  0
M  END
$$$$
