DSH.pdb
     RDKit          3D

 25 25  0  0  1  0  0  0  0  0999 V2000
   10.3206  -14.7775   16.7834 N   0  0  0  0  0  0  0  0  0  0  0  0
   10.9405  -15.9896   16.2947 C   0  0  1  0  0  0  0  0  0  0  0  0
   11.1044  -15.8423   14.7801 C   0  0  0  0  0  0  0  0  0  0  0  0
   11.5931  -17.0964   14.2076 C   0  0  0  0  0  0  0  0  0  0  0  0
   12.6414  -17.1280   13.5257 O   0  0  0  0  0  0  0  0  0  0  0  0
   12.2545  -16.1370   16.9260 C   0  0  0  0  0  0  0  0  0  0  0  0
   13.0033  -17.1334   16.6763 O   0  0  0  0  0  0  0  0  0  0  0  0
   10.9048  -18.2768   14.4088 O   0  0  0  0  0  0  0  0  0  0  0  0
   15.0124  -13.2244   18.0729 O   0  0  0  0  0  0  0  0  0  0  0  0
   15.1663  -14.5799   17.8780 C   0  0  0  0  0  0  0  0  0  0  0  0
   14.0665  -15.3972   18.5124 C   0  0  2  0  0  0  0  0  0  0  0  0
   12.7930  -15.1921   17.8563 N   0  0  0  0  0  0  0  0  0  0  0  0
   13.9704  -15.1792   19.9796 C   0  0  0  0  0  0  0  0  0  0  0  0
   13.2936  -14.2175   20.4273 O   0  0  0  0  0  0  0  0  0  0  0  0
   14.6153  -16.0153   20.9330 N   0  0  0  0  0  0  0  0  0  0  0  0
   14.4807  -15.7867   22.3663 C   0  0  1  0  0  0  0  0  0  0  0  0
   13.5832  -16.7908   23.0096 C   0  0  0  0  0  0  0  0  0  0  0  0
   12.1758  -16.5218   22.6973 C   0  0  0  0  0  0  0  0  0  0  0  0
   11.6717  -15.4953   21.9151 C   0  0  0  0  0  0  0  0  0  0  0  0
   10.3328  -15.5820   21.8650 N   0  0  0  0  0  0  0  0  0  0  0  0
    9.9633  -16.6428   22.5986 C   0  0  0  0  0  0  0  0  0  0  0  0
   11.0873  -17.2047   23.0981 N   0  0  0  0  0  0  0  0  0  0  0  0
   15.7885  -15.7073   23.0203 C   0  0  0  0  0  0  0  0  0  0  0  0
   16.8224  -15.9508   22.3045 O   0  0  0  0  0  0  0  0  0  0  0  0
   16.0300  -15.3944   24.3375 O   0  0  0  0  0  0  0  0  0  0  0  0
  2  1  1  1
  3  2  1  0
  4  3  1  0
  5  4  2  0
  6  7  2  0
  6  2  1  0
  8  4  1  0
  9 10  1  0
 11 10  1  6
 11 12  1  0
 12  6  1  0
 13 15  1  0
 13 11  1  0
 14 13  2  0
 16 23  1  0
 16 15  1  0
 16 17  1  1
 17 18  1  0
 18 22  1  0
 19 18  2  0
 19 20  1  0
 20 21  1  0
 22 21  2  0
 23 25  1  0
 24 23  2  0
M  END
$$$$
