DSH.pdb
     RDKit          3D

 25 25  0  0  1  0  0  0  0  0999 V2000
   13.8633  -17.4449   18.5668 N   0  0  0  0  0  0  0  0  0  0  0  0
   13.4752  -18.1515   19.7677 C   0  0  1  0  0  0  0  0  0  0  0  0
   14.7517  -18.4475   20.5585 C   0  0  0  0  0  0  0  0  0  0  0  0
   15.5806  -19.4048   19.8264 C   0  0  0  0  0  0  0  0  0  0  0  0
   16.7835  -19.1621   19.5838 O   0  0  0  0  0  0  0  0  0  0  0  0
   12.5883  -17.2925   20.5566 C   0  0  0  0  0  0  0  0  0  0  0  0
   12.9888  -16.1844   21.0338 O   0  0  0  0  0  0  0  0  0  0  0  0
   15.0503  -20.6016   19.3858 O   0  0  0  0  0  0  0  0  0  0  0  0
    8.5224  -18.2848   21.6936 O   0  0  0  0  0  0  0  0  0  0  0  0
    8.9006  -17.0122   21.3245 C   0  0  0  0  0  0  0  0  0  0  0  0
   10.3601  -16.7290   21.5886 C   0  0  2  0  0  0  0  0  0  0  0  0
   11.2267  -17.6220   20.8496 N   0  0  0  0  0  0  0  0  0  0  0  0
   10.6846  -16.7237   23.0392 C   0  0  0  0  0  0  0  0  0  0  0  0
   11.2866  -17.7034   23.5503 O   0  0  0  0  0  0  0  0  0  0  0  0
   10.3461  -15.6483   23.9069 N   0  0  0  0  0  0  0  0  0  0  0  0
   10.5089  -15.7507   25.3518 C   0  0  1  0  0  0  0  0  0  0  0  0
   10.2739  -14.4440   26.0337 C   0  0  0  0  0  0  0  0  0  0  0  0
   10.4792  -14.5563   27.4814 C   0  0  0  0  0  0  0  0  0  0  0  0
   11.5146  -15.2061   28.1336 C   0  0  0  0  0  0  0  0  0  0  0  0
   11.3556  -15.0884   29.4617 N   0  0  0  0  0  0  0  0  0  0  0  0
   10.2394  -14.3764   29.6790 C   0  0  0  0  0  0  0  0  0  0  0  0
    9.7166  -14.0593   28.4730 N   0  0  0  0  0  0  0  0  0  0  0  0
    9.6855  -16.8263   25.9079 C   0  0  0  0  0  0  0  0  0  0  0  0
   10.0977  -17.3908   26.9812 O   0  0  0  0  0  0  0  0  0  0  0  0
    8.5010  -17.3018   25.3960 O   0  0  0  0  0  0  0  0  0  0  0  0
  2  1  1  6
  3  2  1  0
  4  3  1  0
  5  4  2  0
  6  7  2  0
  6  2  1  0
  8  4  1  0
  9 10  1  0
 11 10  1  1
 11 12  1  0
 12  6  1  0
 13 15  1  0
 13 11  1  0
 14 13  2  0
 16 23  1  0
 16 15  1  0
 16 17  1  1
 17 18  1  0
 18 22  1  0
 19 18  2  0
 19 20  1  0
 20 21  1  0
 22 21  2  0
 23 25  1  0
 24 23  2  0
M  END
$$$$
