MYH.pdb
     RDKit          3D

 31 32  0  0  1  0  0  0  0  0999 V2000
    8.2010  -11.8447   19.4719 C   0  0  0  0  0  0  0  0  0  0  0  0
    7.4843  -13.1710   18.4921 S   0  0  0  0  0  0  0  0  0  0  0  0
    7.6379  -14.7885   19.2878 C   0  0  0  0  0  0  0  0  0  0  0  0
    8.5132  -14.7479   20.4963 C   0  0  0  0  0  0  0  0  0  0  0  0
    8.6175  -16.0350   21.2480 C   0  0  2  0  0  0  0  0  0  0  0  0
    7.4451  -16.8359   21.1048 N   0  0  0  0  0  0  0  0  0  0  0  0
    9.0051  -15.9278   22.6488 C   0  0  0  0  0  0  0  0  0  0  0  0
   10.0839  -15.3496   22.9353 O   0  0  0  0  0  0  0  0  0  0  0  0
    6.5847  -10.2546   26.0742 O   0  0  0  0  0  0  0  0  0  0  0  0
    6.8697  -11.6200   26.0766 C   0  0  0  0  0  0  0  0  0  0  0  0
    8.0341  -12.1294   26.5804 C   0  0  0  0  0  0  0  0  0  0  0  0
    8.2840  -13.5015   26.5657 C   0  0  0  0  0  0  0  0  0  0  0  0
    7.3640  -14.3680   26.0439 C   0  0  0  0  0  0  0  0  0  0  0  0
    7.5814  -15.8123   26.0029 C   0  0  0  0  0  0  0  0  0  0  0  0
    8.7370  -16.2577   25.1306 C   0  0  2  0  0  0  0  0  0  0  0  0
    8.2514  -16.4317   23.7499 N   0  0  0  0  0  0  0  0  0  0  0  0
    9.2792  -17.5447   25.6470 C   0  0  0  0  0  0  0  0  0  0  0  0
    8.5494  -18.5671   25.7323 O   0  0  0  0  0  0  0  0  0  0  0  0
    6.1928  -13.8435   25.5384 C   0  0  0  0  0  0  0  0  0  0  0  0
    5.9368  -12.4810   25.5494 C   0  0  0  0  0  0  0  0  0  0  0  0
   10.6339  -17.6529   26.0565 N   0  0  0  0  0  0  0  0  0  0  0  0
   11.1489  -18.9926   26.3861 C   0  0  1  0  0  0  0  0  0  0  0  0
   12.6068  -19.0773   26.1292 C   0  0  0  0  0  0  0  0  0  0  0  0
   12.9083  -18.8528   24.6953 C   0  0  0  0  0  0  0  0  0  0  0  0
   12.1272  -18.9244   23.5681 C   0  0  0  0  0  0  0  0  0  0  0  0
   12.8314  -18.5500   22.4884 N   0  0  0  0  0  0  0  0  0  0  0  0
   14.0594  -18.2343   22.8989 C   0  0  0  0  0  0  0  0  0  0  0  0
   14.1237  -18.4091   24.2177 N   0  0  0  0  0  0  0  0  0  0  0  0
   10.9370  -19.1293   27.8747 C   0  0  0  0  0  0  0  0  0  0  0  0
   10.5110  -18.0273   28.5816 O   0  0  0  0  0  0  0  0  0  0  0  0
   11.1297  -20.1778   28.4682 O   0  0  0  0  0  0  0  0  0  0  0  0
  1  2  1  0
  3  2  1  0
  4  5  1  0
  4  3  1  0
  5  6  1  1
  7  5  1  0
  8  7  2  0
  9 10  1  0
 10 11  2  0
 11 12  1  0
 13 12  2  0
 13 14  1  0
 15 14  1  1
 15 17  1  0
 15 16  1  0
 16  7  1  0
 17 18  2  0
 19 13  1  0
 20 10  1  0
 20 19  2  0
 21 22  1  0
 21 17  1  0
 22 23  1  1
 24 23  1  0
 25 24  2  0
 26 27  1  0
 26 25  1  0
 27 28  2  0
 28 24  1  0
 29 30  1  0
 29 22  1  0
 31 29  2  0
M  END
$$$$
