MYH.pdb
     RDKit          3D

 31 32  0  0  1  0  0  0  0  0999 V2000
    9.3466  -21.1760   20.5002 C   0  0  0  0  0  0  0  0  0  0  0  0
    8.7691  -20.8092   18.8374 S   0  0  0  0  0  0  0  0  0  0  0  0
    8.8782  -19.0493   18.4328 C   0  0  0  0  0  0  0  0  0  0  0  0
    9.2491  -18.2151   19.6139 C   0  0  0  0  0  0  0  0  0  0  0  0
    8.9138  -16.7639   19.4966 C   0  0  2  0  0  0  0  0  0  0  0  0
    9.6383  -16.1298   18.4433 N   0  0  0  0  0  0  0  0  0  0  0  0
    8.9988  -15.9865   20.7265 C   0  0  0  0  0  0  0  0  0  0  0  0
   10.1066  -15.4903   21.0529 O   0  0  0  0  0  0  0  0  0  0  0  0
    7.0102  -11.7395   28.3029 O   0  0  0  0  0  0  0  0  0  0  0  0
    6.9521  -12.4325   27.0938 C   0  0  0  0  0  0  0  0  0  0  0  0
    6.6708  -13.7685   27.0222 C   0  0  0  0  0  0  0  0  0  0  0  0
    6.6212  -14.4277   25.7941 C   0  0  0  0  0  0  0  0  0  0  0  0
    6.8546  -13.7464   24.6318 C   0  0  0  0  0  0  0  0  0  0  0  0
    6.8173  -14.3932   23.3221 C   0  0  0  0  0  0  0  0  0  0  0  0
    8.1303  -15.0023   22.8752 C   0  0  2  0  0  0  0  0  0  0  0  0
    7.9112  -15.7319   21.6134 N   0  0  0  0  0  0  0  0  0  0  0  0
    8.6256  -15.9350   23.9248 C   0  0  0  0  0  0  0  0  0  0  0  0
    8.0416  -17.0279   24.1477 O   0  0  0  0  0  0  0  0  0  0  0  0
    7.1374  -12.3991   24.7154 C   0  0  0  0  0  0  0  0  0  0  0  0
    7.1885  -11.7364   25.9322 C   0  0  0  0  0  0  0  0  0  0  0  0
    9.7700  -15.6165   24.7017 N   0  0  0  0  0  0  0  0  0  0  0  0
   10.2515  -16.6227   25.6631 C   0  0  1  0  0  0  0  0  0  0  0  0
   11.7292  -16.7358   25.6155 C   0  0  0  0  0  0  0  0  0  0  0  0
   12.1671  -17.4862   24.4144 C   0  0  0  0  0  0  0  0  0  0  0  0
   11.4679  -18.0492   23.3751 C   0  0  0  0  0  0  0  0  0  0  0  0
   12.3140  -18.5582   22.4657 N   0  0  0  0  0  0  0  0  0  0  0  0
   13.5538  -18.3319   22.8992 C   0  0  0  0  0  0  0  0  0  0  0  0
   13.4853  -17.6907   24.0645 N   0  0  0  0  0  0  0  0  0  0  0  0
    9.8775  -16.0692   27.0171 C   0  0  0  0  0  0  0  0  0  0  0  0
    9.1665  -14.8915   27.0717 O   0  0  0  0  0  0  0  0  0  0  0  0
   10.1826  -16.6279   28.0580 O   0  0  0  0  0  0  0  0  0  0  0  0
  1  2  1  0
  3  2  1  0
  4  5  1  0
  4  3  1  0
  5  6  1  6
  7  5  1  0
  8  7  2  0
  9 10  1  0
 10 11  2  0
 11 12  1  0
 13 12  2  0
 13 14  1  0
 15 14  1  1
 15 17  1  0
 15 16  1  0
 16  7  1  0
 17 18  2  0
 19 13  1  0
 20 10  1  0
 20 19  2  0
 21 22  1  0
 21 17  1  0
 22 23  1  1
 24 23  1  0
 25 24  2  0
 26 27  1  0
 26 25  1  0
 27 28  2  0
 28 24  1  0
 29 30  1  0
 29 22  1  0
 31 29  2  0
M  END
$$$$
