MYH.pdb
     RDKit          3D

 31 32  0  0  1  0  0  0  0  0999 V2000
   10.4126  -21.5458   17.7154 C   0  0  0  0  0  0  0  0  0  0  0  0
   10.4252  -20.2631   18.9753 S   0  0  0  0  0  0  0  0  0  0  0  0
    8.7640  -19.6891   19.4040 C   0  0  0  0  0  0  0  0  0  0  0  0
    8.7577  -18.8166   20.6152 C   0  0  0  0  0  0  0  0  0  0  0  0
    8.7329  -17.3483   20.3397 C   0  0  2  0  0  0  0  0  0  0  0  0
    9.5897  -16.9918   19.2555 N   0  0  0  0  0  0  0  0  0  0  0  0
    8.9584  -16.4785   21.4871 C   0  0  0  0  0  0  0  0  0  0  0  0
    9.9491  -15.7048   21.4742 O   0  0  0  0  0  0  0  0  0  0  0  0
    6.6101  -10.6520   27.7497 O   0  0  0  0  0  0  0  0  0  0  0  0
    6.7029  -11.6236   26.7532 C   0  0  0  0  0  0  0  0  0  0  0  0
    7.3599  -11.4098   25.5736 C   0  0  0  0  0  0  0  0  0  0  0  0
    7.4318  -12.4061   24.6001 C   0  0  0  0  0  0  0  0  0  0  0  0
    6.8430  -13.6224   24.8085 C   0  0  0  0  0  0  0  0  0  0  0  0
    6.8881  -14.6959   23.8182 C   0  0  0  0  0  0  0  0  0  0  0  0
    8.2576  -15.3060   23.6024 C   0  0  2  0  0  0  0  0  0  0  0  0
    8.1355  -16.4250   22.6509 N   0  0  0  0  0  0  0  0  0  0  0  0
    8.7906  -15.7977   24.9028 C   0  0  0  0  0  0  0  0  0  0  0  0
    9.0379  -14.9996   25.8447 O   0  0  0  0  0  0  0  0  0  0  0  0
    6.1829  -13.8276   26.0019 C   0  0  0  0  0  0  0  0  0  0  0  0
    6.1070  -12.8425   26.9746 C   0  0  0  0  0  0  0  0  0  0  0  0
    9.0337  -17.1799   25.1151 N   0  0  0  0  0  0  0  0  0  0  0  0
   10.4212  -17.6604   25.0026 C   0  0  1  0  0  0  0  0  0  0  0  0
   11.1862  -16.8458   24.0279 C   0  0  0  0  0  0  0  0  0  0  0  0
   12.5626  -17.3699   23.8607 C   0  0  0  0  0  0  0  0  0  0  0  0
   13.2003  -18.4668   24.3862 C   0  0  0  0  0  0  0  0  0  0  0  0
   14.4354  -18.5786   23.8724 N   0  0  0  0  0  0  0  0  0  0  0  0
   14.6084  -17.5700   23.0186 C   0  0  0  0  0  0  0  0  0  0  0  0
   13.4972  -16.8361   22.9982 N   0  0  0  0  0  0  0  0  0  0  0  0
   11.0207  -17.4241   26.3680 C   0  0  0  0  0  0  0  0  0  0  0  0
   10.2124  -16.9200   27.3620 O   0  0  0  0  0  0  0  0  0  0  0  0
   12.1906  -17.6639   26.6180 O   0  0  0  0  0  0  0  0  0  0  0  0
  1  2  1  0
  3  2  1  0
  4  5  1  0
  4  3  1  0
  5  6  1  6
  7  5  1  0
  8  7  2  0
  9 10  1  0
 10 11  2  0
 11 12  1  0
 13 12  2  0
 13 14  1  0
 15 14  1  1
 15 17  1  0
 15 16  1  0
 16  7  1  0
 17 18  2  0
 19 13  1  0
 20 10  1  0
 20 19  2  0
 21 22  1  0
 21 17  1  0
 22 23  1  6
 24 23  1  0
 25 24  2  0
 26 27  1  0
 26 25  1  0
 27 28  2  0
 28 24  1  0
 29 30  1  0
 29 22  1  0
 31 29  2  0
M  END
$$$$
