MYH.pdb
     RDKit          3D

 31 32  0  0  1  0  0  0  0  0999 V2000
    8.0809  -11.5966   19.8788 C   0  0  0  0  0  0  0  0  0  0  0  0
    7.4674  -12.9161   18.8226 S   0  0  0  0  0  0  0  0  0  0  0  0
    7.4600  -14.5255   19.6489 C   0  0  0  0  0  0  0  0  0  0  0  0
    8.4368  -14.5918   20.7757 C   0  0  0  0  0  0  0  0  0  0  0  0
    8.5102  -15.9099   21.4754 C   0  0  2  0  0  0  0  0  0  0  0  0
    7.3063  -16.6621   21.3295 N   0  0  0  0  0  0  0  0  0  0  0  0
    8.9322  -15.8710   22.8699 C   0  0  0  0  0  0  0  0  0  0  0  0
   10.0509  -15.3706   23.1495 O   0  0  0  0  0  0  0  0  0  0  0  0
    6.2588  -10.4915   26.6970 O   0  0  0  0  0  0  0  0  0  0  0  0
    6.6278  -11.8340   26.6126 C   0  0  0  0  0  0  0  0  0  0  0  0
    7.8857  -12.2737   26.9180 C   0  0  0  0  0  0  0  0  0  0  0  0
    8.2179  -13.6248   26.8218 C   0  0  0  0  0  0  0  0  0  0  0  0
    7.2863  -14.5405   26.4176 C   0  0  0  0  0  0  0  0  0  0  0  0
    7.5871  -15.9654   26.2980 C   0  0  0  0  0  0  0  0  0  0  0  0
    8.7126  -16.3004   25.3412 C   0  0  2  0  0  0  0  0  0  0  0  0
    8.1708  -16.3612   23.9719 N   0  0  0  0  0  0  0  0  0  0  0  0
    9.3047  -17.6145   25.7146 C   0  0  0  0  0  0  0  0  0  0  0  0
    8.6095  -18.6642   25.7048 O   0  0  0  0  0  0  0  0  0  0  0  0
    6.0204  -14.0863   26.1121 C   0  0  0  0  0  0  0  0  0  0  0  0
    5.6823  -12.7449   26.2052 C   0  0  0  0  0  0  0  0  0  0  0  0
   10.6692  -17.7185   26.0914 N   0  0  0  0  0  0  0  0  0  0  0  0
   11.1950  -19.0561   26.4127 C   0  0  1  0  0  0  0  0  0  0  0  0
   12.6337  -19.1562   26.0681 C   0  0  0  0  0  0  0  0  0  0  0  0
   12.8391  -19.0466   24.6042 C   0  0  0  0  0  0  0  0  0  0  0  0
   11.9858  -19.2072   23.5403 C   0  0  0  0  0  0  0  0  0  0  0  0
   12.6156  -18.9202   22.3901 N   0  0  0  0  0  0  0  0  0  0  0  0
   13.8664  -18.5735   22.6924 C   0  0  0  0  0  0  0  0  0  0  0  0
   14.0183  -18.6430   24.0137 N   0  0  0  0  0  0  0  0  0  0  0  0
   11.0744  -19.1650   27.9138 C   0  0  0  0  0  0  0  0  0  0  0  0
   11.0096  -18.0056   28.6535 O   0  0  0  0  0  0  0  0  0  0  0  0
   11.0327  -20.2401   28.4893 O   0  0  0  0  0  0  0  0  0  0  0  0
  1  2  1  0
  3  2  1  0
  4  5  1  0
  4  3  1  0
  5  6  1  1
  7  5  1  0
  8  7  2  0
  9 10  1  0
 10 11  2  0
 11 12  1  0
 13 12  2  0
 13 14  1  0
 15 14  1  1
 15 17  1  0
 15 16  1  0
 16  7  1  0
 17 18  2  0
 19 13  1  0
 20 10  1  0
 20 19  2  0
 21 22  1  0
 21 17  1  0
 22 23  1  1
 24 23  1  0
 25 24  2  0
 26 27  1  0
 26 25  1  0
 27 28  2  0
 28 24  1  0
 29 30  1  0
 29 22  1  0
 31 29  2  0
M  END
$$$$
