MYH.pdb
     RDKit          3D

 31 32  0  0  1  0  0  0  0  0999 V2000
    8.5301  -22.1381   21.2896 C   0  0  0  0  0  0  0  0  0  0  0  0
    8.8248  -21.9753   19.5234 S   0  0  0  0  0  0  0  0  0  0  0  0
    8.7181  -20.2619   18.9527 C   0  0  0  0  0  0  0  0  0  0  0  0
    9.0134  -19.2806   20.0382 C   0  0  0  0  0  0  0  0  0  0  0  0
    8.8064  -17.8470   19.6714 C   0  0  2  0  0  0  0  0  0  0  0  0
    9.6184  -17.4540   18.5656 N   0  0  0  0  0  0  0  0  0  0  0  0
    8.9139  -16.8861   20.7618 C   0  0  0  0  0  0  0  0  0  0  0  0
   10.0331  -16.3667   21.0022 O   0  0  0  0  0  0  0  0  0  0  0  0
    7.1690  -11.5898   27.6919 O   0  0  0  0  0  0  0  0  0  0  0  0
    7.0513  -12.4488   26.5993 C   0  0  0  0  0  0  0  0  0  0  0  0
    6.4664  -13.6812   26.6897 C   0  0  0  0  0  0  0  0  0  0  0  0
    6.3667  -14.5130   25.5746 C   0  0  0  0  0  0  0  0  0  0  0  0
    6.8551  -14.1092   24.3629 C   0  0  0  0  0  0  0  0  0  0  0  0
    6.7772  -14.9457   23.1674 C   0  0  0  0  0  0  0  0  0  0  0  0
    8.0844  -15.5906   22.7553 C   0  0  2  0  0  0  0  0  0  0  0  0
    7.8368  -16.4720   21.6002 N   0  0  0  0  0  0  0  0  0  0  0  0
    8.6263  -16.3820   23.8942 C   0  0  0  0  0  0  0  0  0  0  0  0
    8.0205  -17.3994   24.3220 O   0  0  0  0  0  0  0  0  0  0  0  0
    7.4430  -12.8642   24.2828 C   0  0  0  0  0  0  0  0  0  0  0  0
    7.5460  -12.0315   25.3865 C   0  0  0  0  0  0  0  0  0  0  0  0
    9.8408  -16.0101   24.5277 N   0  0  0  0  0  0  0  0  0  0  0  0
   10.3352  -16.8614   25.6229 C   0  0  1  0  0  0  0  0  0  0  0  0
   11.8137  -16.9675   25.5848 C   0  0  0  0  0  0  0  0  0  0  0  0
   12.2536  -17.8902   24.5113 C   0  0  0  0  0  0  0  0  0  0  0  0
   11.5579  -18.7314   23.6781 C   0  0  0  0  0  0  0  0  0  0  0  0
   12.3911  -19.3120   22.8003 N   0  0  0  0  0  0  0  0  0  0  0  0
   13.6189  -18.8581   23.0507 C   0  0  0  0  0  0  0  0  0  0  0  0
   13.5558  -18.0054   24.0718 N   0  0  0  0  0  0  0  0  0  0  0  0
    9.9610  -16.1200   26.8837 C   0  0  0  0  0  0  0  0  0  0  0  0
   10.1833  -16.7325   28.0965 O   0  0  0  0  0  0  0  0  0  0  0  0
    9.4713  -15.0026   26.8633 O   0  0  0  0  0  0  0  0  0  0  0  0
  1  2  1  0
  3  2  1  0
  4  5  1  0
  4  3  1  0
  5  6  1  6
  7  5  1  0
  8  7  2  0
  9 10  1  0
 10 11  2  0
 11 12  1  0
 13 12  2  0
 13 14  1  0
 15 14  1  1
 15 17  1  0
 15 16  1  0
 16  7  1  0
 17 18  2  0
 19 13  1  0
 20 10  1  0
 20 19  2  0
 21 22  1  0
 21 17  1  0
 22 23  1  6
 24 23  1  0
 25 24  2  0
 26 27  1  0
 26 25  1  0
 27 28  2  0
 28 24  1  0
 29 30  1  0
 29 22  1  0
 31 29  2  0
M  END
$$$$
