MYH.pdb
     RDKit          3D

 31 32  0  0  1  0  0  0  0  0999 V2000
    8.3936  -12.2866   17.3374 C   0  0  0  0  0  0  0  0  0  0  0  0
    7.2699  -13.6726   17.1153 S   0  0  0  0  0  0  0  0  0  0  0  0
    7.6722  -15.0759   18.1839 C   0  0  0  0  0  0  0  0  0  0  0  0
    8.9952  -14.9183   18.8571 C   0  0  0  0  0  0  0  0  0  0  0  0
    9.3529  -16.0065   19.8164 C   0  0  2  0  0  0  0  0  0  0  0  0
    8.5630  -17.1781   19.6168 N   0  0  0  0  0  0  0  0  0  0  0  0
    9.3814  -15.6334   21.2249 C   0  0  0  0  0  0  0  0  0  0  0  0
   10.4705  -15.2605   21.7299 O   0  0  0  0  0  0  0  0  0  0  0  0
    6.9952  -11.9799   28.9010 O   0  0  0  0  0  0  0  0  0  0  0  0
    6.9758  -12.6676   27.6876 C   0  0  0  0  0  0  0  0  0  0  0  0
    6.4404  -13.9187   27.5574 C   0  0  0  0  0  0  0  0  0  0  0  0
    6.4390  -14.5754   26.3270 C   0  0  0  0  0  0  0  0  0  0  0  0
    6.9765  -13.9770   25.2213 C   0  0  0  0  0  0  0  0  0  0  0  0
    7.0016  -14.6255   23.9122 C   0  0  0  0  0  0  0  0  0  0  0  0
    8.3656  -15.1135   23.4695 C   0  0  2  0  0  0  0  0  0  0  0  0
    8.2571  -15.6534   22.1023 N   0  0  0  0  0  0  0  0  0  0  0  0
    8.8378  -16.1745   24.4013 C   0  0  0  0  0  0  0  0  0  0  0  0
    8.2183  -17.2655   24.5077 O   0  0  0  0  0  0  0  0  0  0  0  0
    7.5139  -12.7148   25.3637 C   0  0  0  0  0  0  0  0  0  0  0  0
    7.5191  -12.0552   26.5832 C   0  0  0  0  0  0  0  0  0  0  0  0
    9.9994  -15.9840   25.1943 N   0  0  0  0  0  0  0  0  0  0  0  0
   10.3749  -17.0538   26.1341 C   0  0  1  0  0  0  0  0  0  0  0  0
   11.8390  -17.2877   26.1124 C   0  0  0  0  0  0  0  0  0  0  0  0
   12.2473  -17.9907   24.8730 C   0  0  0  0  0  0  0  0  0  0  0  0
   11.5381  -18.3998   23.7704 C   0  0  0  0  0  0  0  0  0  0  0  0
   12.3648  -18.9277   22.8539 N   0  0  0  0  0  0  0  0  0  0  0  0
   13.6021  -18.8655   23.3453 C   0  0  0  0  0  0  0  0  0  0  0  0
   13.5511  -18.3070   24.5533 N   0  0  0  0  0  0  0  0  0  0  0  0
   10.0176  -16.5102   27.4965 C   0  0  0  0  0  0  0  0  0  0  0  0
   10.0545  -17.3649   28.5752 O   0  0  0  0  0  0  0  0  0  0  0  0
    9.6992  -15.3455   27.6720 O   0  0  0  0  0  0  0  0  0  0  0  0
  1  2  1  0
  3  2  1  0
  4  5  1  0
  4  3  1  0
  5  6  1  1
  7  5  1  0
  8  7  2  0
  9 10  1  0
 10 11  2  0
 11 12  1  0
 13 12  2  0
 13 14  1  0
 15 14  1  1
 15 17  1  0
 15 16  1  0
 16  7  1  0
 17 18  2  0
 19 13  1  0
 20 10  1  0
 20 19  2  0
 21 22  1  0
 21 17  1  0
 22 23  1  1
 24 23  1  0
 25 24  2  0
 26 27  1  0
 26 25  1  0
 27 28  2  0
 28 24  1  0
 29 30  1  0
 29 22  1  0
 31 29  2  0
M  END
$$$$
