MYH.pdb
     RDKit          3D

 31 32  0  0  1  0  0  0  0  0999 V2000
    7.3056  -12.3088   19.0777 C   0  0  0  0  0  0  0  0  0  0  0  0
    7.8520  -14.0214   19.0427 S   0  0  0  0  0  0  0  0  0  0  0  0
    9.6351  -14.1803   18.7819 C   0  0  0  0  0  0  0  0  0  0  0  0
   10.0738  -15.6047   18.6971 C   0  0  0  0  0  0  0  0  0  0  0  0
    9.6428  -16.4705   19.8360 C   0  0  2  0  0  0  0  0  0  0  0  0
    8.4025  -17.1251   19.5722 N   0  0  0  0  0  0  0  0  0  0  0  0
    9.6274  -15.8388   21.1493 C   0  0  0  0  0  0  0  0  0  0  0  0
   10.6068  -15.1285   21.4903 O   0  0  0  0  0  0  0  0  0  0  0  0
    6.7362  -11.7099   28.4543 O   0  0  0  0  0  0  0  0  0  0  0  0
    6.8843  -12.4120   27.2582 C   0  0  0  0  0  0  0  0  0  0  0  0
    7.6155  -11.9325   26.2073 C   0  0  0  0  0  0  0  0  0  0  0  0
    7.7411  -12.6636   25.0262 C   0  0  0  0  0  0  0  0  0  0  0  0
    7.1316  -13.8807   24.8962 C   0  0  0  0  0  0  0  0  0  0  0  0
    7.2310  -14.6819   23.6784 C   0  0  0  0  0  0  0  0  0  0  0  0
    8.6212  -15.1961   23.3662 C   0  0  2  0  0  0  0  0  0  0  0  0
    8.5749  -15.9568   22.1046 N   0  0  0  0  0  0  0  0  0  0  0  0
    9.0844  -16.0747   24.4754 C   0  0  0  0  0  0  0  0  0  0  0  0
    9.6316  -15.5897   25.5003 O   0  0  0  0  0  0  0  0  0  0  0  0
    6.3966  -14.3550   25.9625 C   0  0  0  0  0  0  0  0  0  0  0  0
    6.2669  -13.6345   27.1399 C   0  0  0  0  0  0  0  0  0  0  0  0
    8.9209  -17.4830   24.4065 N   0  0  0  0  0  0  0  0  0  0  0  0
   10.0934  -18.3272   24.6913 C   0  0  1  0  0  0  0  0  0  0  0  0
   11.2752  -17.8689   23.9220 C   0  0  0  0  0  0  0  0  0  0  0  0
   12.4933  -18.6110   24.3254 C   0  0  0  0  0  0  0  0  0  0  0  0
   12.7017  -19.6055   25.2493 C   0  0  0  0  0  0  0  0  0  0  0  0
   13.9748  -20.0282   25.2000 N   0  0  0  0  0  0  0  0  0  0  0  0
   14.5963  -19.3229   24.2553 C   0  0  0  0  0  0  0  0  0  0  0  0
   13.7246  -18.4697   23.7205 N   0  0  0  0  0  0  0  0  0  0  0  0
   10.3831  -18.0998   26.1555 C   0  0  0  0  0  0  0  0  0  0  0  0
   11.3770  -18.8428   26.7517 O   0  0  0  0  0  0  0  0  0  0  0  0
    9.7692  -17.2841   26.8237 O   0  0  0  0  0  0  0  0  0  0  0  0
  1  2  1  0
  3  2  1  0
  4  5  1  0
  4  3  1  0
  5  6  1  6
  7  5  1  0
  8  7  2  0
  9 10  1  0
 10 11  2  0
 11 12  1  0
 13 12  2  0
 13 14  1  0
 15 14  1  1
 15 17  1  0
 15 16  1  0
 16  7  1  0
 17 18  2  0
 19 13  1  0
 20 10  1  0
 20 19  2  0
 21 22  1  0
 21 17  1  0
 22 23  1  6
 24 23  1  0
 25 24  2  0
 26 27  1  0
 26 25  1  0
 27 28  2  0
 28 24  1  0
 29 30  1  0
 29 22  1  0
 31 29  2  0
M  END
$$$$
