MYH.pdb
     RDKit          3D

 31 32  0  0  1  0  0  0  0  0999 V2000
    7.6777  -16.7336   14.9760 C   0  0  0  0  0  0  0  0  0  0  0  0
    7.8500  -18.5202   15.0817 S   0  0  0  0  0  0  0  0  0  0  0  0
    8.4019  -19.0731   16.7135 C   0  0  0  0  0  0  0  0  0  0  0  0
    9.1016  -17.9955   17.4735 C   0  0  0  0  0  0  0  0  0  0  0  0
    9.6071  -18.3952   18.8216 C   0  0  2  0  0  0  0  0  0  0  0  0
    8.6018  -19.0423   19.6008 N   0  0  0  0  0  0  0  0  0  0  0  0
   10.2685  -17.3498   19.5921 C   0  0  0  0  0  0  0  0  0  0  0  0
   11.2660  -16.7700   19.0933 O   0  0  0  0  0  0  0  0  0  0  0  0
    7.0868  -11.7218   18.3050 O   0  0  0  0  0  0  0  0  0  0  0  0
    7.6983  -12.5155   19.2754 C   0  0  0  0  0  0  0  0  0  0  0  0
    6.9954  -13.3655   20.0831 C   0  0  0  0  0  0  0  0  0  0  0  0
    7.6419  -14.1442   21.0428 C   0  0  0  0  0  0  0  0  0  0  0  0
    8.9988  -14.0716   21.1949 C   0  0  0  0  0  0  0  0  0  0  0  0
    9.7206  -14.8642   22.1877 C   0  0  0  0  0  0  0  0  0  0  0  0
   10.6647  -15.8995   21.6119 C   0  0  2  0  0  0  0  0  0  0  0  0
    9.8753  -16.9152   20.8925 N   0  0  0  0  0  0  0  0  0  0  0  0
   11.4322  -16.5377   22.7166 C   0  0  0  0  0  0  0  0  0  0  0  0
   10.8410  -17.0750   23.6898 O   0  0  0  0  0  0  0  0  0  0  0  0
    9.6982  -13.2110   20.3748 C   0  0  0  0  0  0  0  0  0  0  0  0
    9.0630  -12.4337   19.4185 C   0  0  0  0  0  0  0  0  0  0  0  0
   12.8514  -16.5576   22.7015 N   0  0  0  0  0  0  0  0  0  0  0  0
   13.5422  -17.2531   23.8004 C   0  0  1  0  0  0  0  0  0  0  0  0
   14.4393  -18.3110   23.2763 C   0  0  0  0  0  0  0  0  0  0  0  0
   13.6780  -19.5397   22.9477 C   0  0  0  0  0  0  0  0  0  0  0  0
   12.7151  -20.2375   23.6346 C   0  0  0  0  0  0  0  0  0  0  0  0
   12.2533  -21.2529   22.8879 N   0  0  0  0  0  0  0  0  0  0  0  0
   12.9019  -21.2234   21.7240 C   0  0  0  0  0  0  0  0  0  0  0  0
   13.7587  -20.2039   21.7416 N   0  0  0  0  0  0  0  0  0  0  0  0
   14.4072  -16.1942   24.4407 C   0  0  0  0  0  0  0  0  0  0  0  0
   15.1047  -16.5179   25.5828 O   0  0  0  0  0  0  0  0  0  0  0  0
   14.5080  -15.0681   23.9821 O   0  0  0  0  0  0  0  0  0  0  0  0
  1  2  1  0
  3  2  1  0
  4  5  1  0
  4  3  1  0
  5  6  1  1
  7  5  1  0
  8  7  2  0
  9 10  1  0
 10 11  2  0
 11 12  1  0
 13 12  2  0
 13 14  1  0
 15 14  1  1
 15 17  1  0
 15 16  1  0
 16  7  1  0
 17 18  2  0
 19 13  1  0
 20 10  1  0
 20 19  2  0
 21 22  1  0
 21 17  1  0
 22 23  1  6
 24 23  1  0
 25 24  2  0
 26 27  1  0
 26 25  1  0
 27 28  2  0
 28 24  1  0
 29 30  1  0
 29 22  1  0
 31 29  2  0
M  END
$$$$
