MYH.pdb
     RDKit          3D

 31 32  0  0  1  0  0  0  0  0999 V2000
    8.4950  -11.4306   19.4873 C   0  0  0  0  0  0  0  0  0  0  0  0
    7.2413  -12.6474   19.0621 S   0  0  0  0  0  0  0  0  0  0  0  0
    7.6173  -14.2935   19.7115 C   0  0  0  0  0  0  0  0  0  0  0  0
    8.4718  -14.2419   20.9344 C   0  0  0  0  0  0  0  0  0  0  0  0
    8.7881  -15.5688   21.5442 C   0  0  2  0  0  0  0  0  0  0  0  0
    7.6793  -16.4650   21.4827 N   0  0  0  0  0  0  0  0  0  0  0  0
    9.3560  -15.5368   22.8860 C   0  0  0  0  0  0  0  0  0  0  0  0
   10.4031  -14.8701   23.0839 O   0  0  0  0  0  0  0  0  0  0  0  0
    5.8126  -10.8601   26.2437 O   0  0  0  0  0  0  0  0  0  0  0  0
    6.4885  -12.0792   26.2944 C   0  0  0  0  0  0  0  0  0  0  0  0
    7.8032  -12.1791   26.6555 C   0  0  0  0  0  0  0  0  0  0  0  0
    8.4457  -13.4164   26.6947 C   0  0  0  0  0  0  0  0  0  0  0  0
    7.7689  -14.5594   26.3706 C   0  0  0  0  0  0  0  0  0  0  0  0
    8.3990  -15.8776   26.3933 C   0  0  0  0  0  0  0  0  0  0  0  0
    9.4661  -16.0915   25.3396 C   0  0  2  0  0  0  0  0  0  0  0  0
    8.8165  -16.2099   24.0219 N   0  0  0  0  0  0  0  0  0  0  0  0
   10.2242  -17.3351   25.6487 C   0  0  0  0  0  0  0  0  0  0  0  0
   10.1202  -17.8948   26.7717 O   0  0  0  0  0  0  0  0  0  0  0  0
    6.4430  -14.4473   26.0078 C   0  0  0  0  0  0  0  0  0  0  0  0
    5.7971  -13.2212   25.9664 C   0  0  0  0  0  0  0  0  0  0  0  0
   11.0844  -17.9229   24.6847 N   0  0  0  0  0  0  0  0  0  0  0  0
   11.8421  -19.1227   25.0783 C   0  0  1  0  0  0  0  0  0  0  0  0
   12.1987  -19.9367   23.8914 C   0  0  0  0  0  0  0  0  0  0  0  0
   10.9877  -20.3302   23.1326 C   0  0  0  0  0  0  0  0  0  0  0  0
    9.7917  -20.8780   23.5271 C   0  0  0  0  0  0  0  0  0  0  0  0
    8.9585  -20.9818   22.4798 N   0  0  0  0  0  0  0  0  0  0  0  0
    9.5962  -20.5070   21.4101 C   0  0  0  0  0  0  0  0  0  0  0  0
   10.8125  -20.1119   21.7821 N   0  0  0  0  0  0  0  0  0  0  0  0
   13.1245  -18.5892   25.6704 C   0  0  0  0  0  0  0  0  0  0  0  0
   14.0307  -19.4856   26.1907 O   0  0  0  0  0  0  0  0  0  0  0  0
   13.3825  -17.3971   25.7027 O   0  0  0  0  0  0  0  0  0  0  0  0
  1  2  1  0
  3  2  1  0
  4  5  1  0
  4  3  1  0
  5  6  1  1
  7  5  1  0
  8  7  2  0
  9 10  1  0
 10 11  2  0
 11 12  1  0
 13 12  2  0
 13 14  1  0
 15 14  1  1
 15 17  1  0
 15 16  1  0
 16  7  1  0
 17 18  2  0
 19 13  1  0
 20 10  1  0
 20 19  2  0
 21 22  1  0
 21 17  1  0
 22 23  1  6
 24 23  1  0
 25 24  2  0
 26 27  1  0
 26 25  1  0
 27 28  2  0
 28 24  1  0
 29 30  1  0
 29 22  1  0
 31 29  2  0
M  END
$$$$
