MYH.pdb
     RDKit          3D

 31 32  0  0  1  0  0  0  0  0999 V2000
    7.2083  -12.1161   19.1585 C   0  0  0  0  0  0  0  0  0  0  0  0
    8.6181  -13.1890   19.4656 S   0  0  0  0  0  0  0  0  0  0  0  0
    8.4929  -14.7718   18.5985 C   0  0  0  0  0  0  0  0  0  0  0  0
    9.6455  -15.6743   18.8910 C   0  0  0  0  0  0  0  0  0  0  0  0
    9.4216  -16.6512   19.9990 C   0  0  2  0  0  0  0  0  0  0  0  0
    8.2706  -17.4639   19.7726 N   0  0  0  0  0  0  0  0  0  0  0  0
    9.4091  -16.0975   21.3470 C   0  0  0  0  0  0  0  0  0  0  0  0
   10.3951  -15.4191   21.7313 O   0  0  0  0  0  0  0  0  0  0  0  0
    7.1804  -11.7418   28.5278 O   0  0  0  0  0  0  0  0  0  0  0  0
    7.1087  -12.5890   27.4221 C   0  0  0  0  0  0  0  0  0  0  0  0
    5.9226  -12.9551   26.8492 C   0  0  0  0  0  0  0  0  0  0  0  0
    5.8905  -13.8046   25.7435 C   0  0  0  0  0  0  0  0  0  0  0  0
    7.0514  -14.2903   25.2086 C   0  0  0  0  0  0  0  0  0  0  0  0
    7.0690  -15.1852   24.0537 C   0  0  0  0  0  0  0  0  0  0  0  0
    8.4467  -15.6517   23.6307 C   0  0  2  0  0  0  0  0  0  0  0  0
    8.3527  -16.2599   22.2914 N   0  0  0  0  0  0  0  0  0  0  0  0
    8.9531  -16.6515   24.6109 C   0  0  0  0  0  0  0  0  0  0  0  0
    8.2999  -17.6975   24.8650 O   0  0  0  0  0  0  0  0  0  0  0  0
    8.2422  -13.9146   25.7942 C   0  0  0  0  0  0  0  0  0  0  0  0
    8.2827  -13.0706   26.8934 C   0  0  0  0  0  0  0  0  0  0  0  0
   10.1863  -16.4518   25.2847 N   0  0  0  0  0  0  0  0  0  0  0  0
   10.6343  -17.4935   26.2243 C   0  0  1  0  0  0  0  0  0  0  0  0
   12.0544  -17.8466   25.9853 C   0  0  0  0  0  0  0  0  0  0  0  0
   12.1947  -18.7041   24.7843 C   0  0  0  0  0  0  0  0  0  0  0  0
   11.2770  -19.1779   23.8792 C   0  0  0  0  0  0  0  0  0  0  0  0
   11.8956  -19.8562   22.8998 N   0  0  0  0  0  0  0  0  0  0  0  0
   13.2033  -19.8281   23.1553 C   0  0  0  0  0  0  0  0  0  0  0  0
   13.4012  -19.1422   24.2797 N   0  0  0  0  0  0  0  0  0  0  0  0
   10.5457  -16.8460   27.5853 C   0  0  0  0  0  0  0  0  0  0  0  0
   10.8497  -17.6033   28.6942 O   0  0  0  0  0  0  0  0  0  0  0  0
   10.2157  -15.6808   27.7340 O   0  0  0  0  0  0  0  0  0  0  0  0
  1  2  1  0
  3  2  1  0
  4  5  1  0
  4  3  1  0
  5  6  1  6
  7  5  1  0
  8  7  2  0
  9 10  1  0
 10 11  2  0
 11 12  1  0
 13 12  2  0
 13 14  1  0
 15 14  1  1
 15 17  1  0
 15 16  1  0
 16  7  1  0
 17 18  2  0
 19 13  1  0
 20 10  1  0
 20 19  2  0
 21 22  1  0
 21 17  1  0
 22 23  1  6
 24 23  1  0
 25 24  2  0
 26 27  1  0
 26 25  1  0
 27 28  2  0
 28 24  1  0
 29 30  1  0
 29 22  1  0
 31 29  2  0
M  END
$$$$
