MYH.pdb
     RDKit          3D

 31 32  0  0  1  0  0  0  0  0999 V2000
    8.9269  -11.7897   19.3664 C   0  0  0  0  0  0  0  0  0  0  0  0
    8.0763  -13.0048   18.3502 S   0  0  0  0  0  0  0  0  0  0  0  0
    7.7383  -14.5442   19.2384 C   0  0  0  0  0  0  0  0  0  0  0  0
    8.9744  -15.3452   19.4810 C   0  0  0  0  0  0  0  0  0  0  0  0
    8.8628  -16.3743   20.5583 C   0  0  2  0  0  0  0  0  0  0  0  0
    7.8658  -17.3521   20.2644 N   0  0  0  0  0  0  0  0  0  0  0  0
    8.7068  -15.8654   21.9151 C   0  0  0  0  0  0  0  0  0  0  0  0
    8.5095  -14.6351   22.0806 O   0  0  0  0  0  0  0  0  0  0  0  0
    6.2688  -10.6970   27.2392 O   0  0  0  0  0  0  0  0  0  0  0  0
    6.4990  -11.8763   26.5309 C   0  0  0  0  0  0  0  0  0  0  0  0
    7.3023  -11.9281   25.4259 C   0  0  0  0  0  0  0  0  0  0  0  0
    7.5090  -13.1266   24.7432 C   0  0  0  0  0  0  0  0  0  0  0  0
    6.9085  -14.2790   25.1685 C   0  0  0  0  0  0  0  0  0  0  0  0
    7.0915  -15.5575   24.4852 C   0  0  0  0  0  0  0  0  0  0  0  0
    8.5241  -16.0453   24.4199 C   0  0  2  0  0  0  0  0  0  0  0  0
    8.7585  -16.6577   23.0999 N   0  0  0  0  0  0  0  0  0  0  0  0
    8.7548  -17.0481   25.4961 C   0  0  0  0  0  0  0  0  0  0  0  0
    7.7907  -17.5463   26.1344 O   0  0  0  0  0  0  0  0  0  0  0  0
    6.1003  -14.2156   26.2843 C   0  0  0  0  0  0  0  0  0  0  0  0
    5.8898  -13.0283   26.9686 C   0  0  0  0  0  0  0  0  0  0  0  0
   10.0684  -17.4692   25.8306 N   0  0  0  0  0  0  0  0  0  0  0  0
   10.3260  -18.9164   25.9196 C   0  0  1  0  0  0  0  0  0  0  0  0
   11.1108  -19.3871   24.7530 C   0  0  0  0  0  0  0  0  0  0  0  0
   11.4081  -20.8353   24.8610 C   0  0  0  0  0  0  0  0  0  0  0  0
   10.5976  -21.9318   25.0249 C   0  0  0  0  0  0  0  0  0  0  0  0
   11.3246  -23.0594   24.9829 N   0  0  0  0  0  0  0  0  0  0  0  0
   12.5967  -22.7106   24.7921 C   0  0  0  0  0  0  0  0  0  0  0  0
   12.6657  -21.3827   24.7163 N   0  0  0  0  0  0  0  0  0  0  0  0
   11.1890  -19.0774   27.1479 C   0  0  0  0  0  0  0  0  0  0  0  0
   11.6020  -17.9452   27.8136 O   0  0  0  0  0  0  0  0  0  0  0  0
   11.5304  -20.1710   27.5675 O   0  0  0  0  0  0  0  0  0  0  0  0
  1  2  1  0
  3  2  1  0
  4  5  1  0
  4  3  1  0
  5  6  1  6
  7  5  1  0
  8  7  2  0
  9 10  1  0
 10 11  2  0
 11 12  1  0
 13 12  2  0
 13 14  1  0
 15 14  1  6
 15 17  1  0
 15 16  1  0
 16  7  1  0
 17 18  2  0
 19 13  1  0
 20 10  1  0
 20 19  2  0
 21 22  1  0
 21 17  1  0
 22 23  1  6
 24 23  1  0
 25 24  2  0
 26 27  1  0
 26 25  1  0
 27 28  2  0
 28 24  1  0
 29 30  1  0
 29 22  1  0
 31 29  2  0
M  END
$$$$
