MYH.pdb
     RDKit          3D

 31 32  0  0  1  0  0  0  0  0999 V2000
   14.4308  -21.8622   11.3508 C   0  0  0  0  0  0  0  0  0  0  0  0
   12.7920  -21.2142   10.9943 S   0  0  0  0  0  0  0  0  0  0  0  0
   11.5088  -21.9486   12.0369 C   0  0  0  0  0  0  0  0  0  0  0  0
   11.6255  -21.5288   13.4647 C   0  0  0  0  0  0  0  0  0  0  0  0
   10.6528  -22.1739   14.3975 C   0  0  2  0  0  0  0  0  0  0  0  0
    9.3121  -21.7530   14.1492 N   0  0  0  0  0  0  0  0  0  0  0  0
   10.9712  -22.0826   15.8168 C   0  0  0  0  0  0  0  0  0  0  0  0
   11.0854  -20.9449   16.3390 O   0  0  0  0  0  0  0  0  0  0  0  0
   11.8873  -23.5880   24.4855 O   0  0  0  0  0  0  0  0  0  0  0  0
   11.6601  -23.7225   23.1159 C   0  0  0  0  0  0  0  0  0  0  0  0
   12.3914  -24.5655   22.3263 C   0  0  0  0  0  0  0  0  0  0  0  0
   12.1348  -24.6733   20.9596 C   0  0  0  0  0  0  0  0  0  0  0  0
   11.1415  -23.9335   20.3803 C   0  0  0  0  0  0  0  0  0  0  0  0
   10.8372  -24.0092   18.9532 C   0  0  0  0  0  0  0  0  0  0  0  0
   11.5507  -22.9851   18.0949 C   0  0  2  0  0  0  0  0  0  0  0  0
   11.1688  -23.1953   16.6869 N   0  0  0  0  0  0  0  0  0  0  0  0
   13.0224  -23.1453   18.2540 C   0  0  0  0  0  0  0  0  0  0  0  0
   13.6249  -24.1293   17.7499 O   0  0  0  0  0  0  0  0  0  0  0  0
   10.4098  -23.0864   21.1861 C   0  0  0  0  0  0  0  0  0  0  0  0
   10.6585  -22.9734   22.5454 C   0  0  0  0  0  0  0  0  0  0  0  0
   13.7853  -22.1924   18.9782 N   0  0  0  0  0  0  0  0  0  0  0  0
   15.2333  -22.4261   19.1103 C   0  0  1  0  0  0  0  0  0  0  0  0
   16.0054  -21.2721   18.5900 C   0  0  0  0  0  0  0  0  0  0  0  0
   16.0485  -21.2852   17.1084 C   0  0  0  0  0  0  0  0  0  0  0  0
   16.0622  -22.3123   16.1969 C   0  0  0  0  0  0  0  0  0  0  0  0
   16.0188  -21.8264   14.9463 N   0  0  0  0  0  0  0  0  0  0  0  0
   15.9752  -20.4972   15.0328 C   0  0  0  0  0  0  0  0  0  0  0  0
   15.9918  -20.1551   16.3199 N   0  0  0  0  0  0  0  0  0  0  0  0
   15.4746  -22.5056   20.5986 C   0  0  0  0  0  0  0  0  0  0  0  0
   14.4509  -22.1548   21.4498 O   0  0  0  0  0  0  0  0  0  0  0  0
   16.5404  -22.8683   21.0689 O   0  0  0  0  0  0  0  0  0  0  0  0
  1  2  1  0
  3  2  1  0
  4  5  1  0
  4  3  1  0
  5  6  1  1
  7  5  1  0
  8  7  2  0
  9 10  1  0
 10 11  2  0
 11 12  1  0
 13 12  2  0
 13 14  1  0
 15 14  1  1
 15 17  1  0
 15 16  1  0
 16  7  1  0
 17 18  2  0
 19 13  1  0
 20 10  1  0
 20 19  2  0
 21 22  1  0
 21 17  1  0
 22 23  1  1
 24 23  1  0
 25 24  2  0
 26 27  1  0
 26 25  1  0
 27 28  2  0
 28 24  1  0
 29 30  1  0
 29 22  1  0
 31 29  2  0
M  END
$$$$
