MYH.pdb
     RDKit          3D

 31 32  0  0  1  0  0  0  0  0999 V2000
    7.8719  -11.1627   19.7933 C   0  0  0  0  0  0  0  0  0  0  0  0
    6.8331  -12.4054   19.0124 S   0  0  0  0  0  0  0  0  0  0  0  0
    7.1868  -14.0799   19.5990 C   0  0  0  0  0  0  0  0  0  0  0  0
    8.5101  -14.1762   20.2831 C   0  0  0  0  0  0  0  0  0  0  0  0
    8.7993  -15.4949   20.9232 C   0  0  2  0  0  0  0  0  0  0  0  0
    7.6586  -16.3525   20.9230 N   0  0  0  0  0  0  0  0  0  0  0  0
    9.4100  -15.4437   22.2454 C   0  0  0  0  0  0  0  0  0  0  0  0
   10.5043  -14.8408   22.3832 O   0  0  0  0  0  0  0  0  0  0  0  0
   10.9615  -15.0134   30.9150 O   0  0  0  0  0  0  0  0  0  0  0  0
   10.3955  -15.0980   29.6430 C   0  0  0  0  0  0  0  0  0  0  0  0
   10.2779  -14.0167   28.8147 C   0  0  0  0  0  0  0  0  0  0  0  0
    9.7060  -14.1401   27.5486 C   0  0  0  0  0  0  0  0  0  0  0  0
    9.2492  -15.3517   27.1094 C   0  0  0  0  0  0  0  0  0  0  0  0
    8.6398  -15.5305   25.7935 C   0  0  0  0  0  0  0  0  0  0  0  0
    9.5968  -15.9633   24.7021 C   0  0  2  0  0  0  0  0  0  0  0  0
    8.8636  -16.0300   23.4253 N   0  0  0  0  0  0  0  0  0  0  0  0
   10.1587  -17.3005   25.0385 C   0  0  0  0  0  0  0  0  0  0  0  0
    9.8161  -17.9007   26.0910 O   0  0  0  0  0  0  0  0  0  0  0  0
    9.3728  -16.4359   27.9529 C   0  0  0  0  0  0  0  0  0  0  0  0
    9.9401  -16.3217   29.2128 C   0  0  0  0  0  0  0  0  0  0  0  0
   11.0954  -17.9343   24.1809 N   0  0  0  0  0  0  0  0  0  0  0  0
   11.8809  -19.0541   24.7265 C   0  0  1  0  0  0  0  0  0  0  0  0
   13.0348  -19.3680   23.8498 C   0  0  0  0  0  0  0  0  0  0  0  0
   12.6162  -19.4563   22.4305 C   0  0  0  0  0  0  0  0  0  0  0  0
   11.3859  -19.3704   21.8265 C   0  0  0  0  0  0  0  0  0  0  0  0
   11.5169  -19.4279   20.4918 N   0  0  0  0  0  0  0  0  0  0  0  0
   12.8160  -19.5482   20.2201 C   0  0  0  0  0  0  0  0  0  0  0  0
   13.4897  -19.5665   21.3689 N   0  0  0  0  0  0  0  0  0  0  0  0
   12.4271  -18.5373   26.0357 C   0  0  0  0  0  0  0  0  0  0  0  0
   13.2047  -19.3775   26.8005 O   0  0  0  0  0  0  0  0  0  0  0  0
   12.2036  -17.4065   26.4358 O   0  0  0  0  0  0  0  0  0  0  0  0
  1  2  1  0
  3  2  1  0
  4  5  1  0
  4  3  1  0
  5  6  1  1
  7  5  1  0
  8  7  2  0
  9 10  1  0
 10 11  2  0
 11 12  1  0
 13 12  2  0
 13 14  1  0
 15 14  1  1
 15 17  1  0
 15 16  1  0
 16  7  1  0
 17 18  2  0
 19 13  1  0
 20 10  1  0
 20 19  2  0
 21 22  1  0
 21 17  1  0
 22 23  1  6
 24 23  1  0
 25 24  2  0
 26 27  1  0
 26 25  1  0
 27 28  2  0
 28 24  1  0
 29 30  1  0
 29 22  1  0
 31 29  2  0
M  END
$$$$
