MYH.pdb
     RDKit          3D

 31 32  0  0  1  0  0  0  0  0999 V2000
    6.9400  -11.5603   19.5541 C   0  0  0  0  0  0  0  0  0  0  0  0
    8.4527  -12.5194   19.7113 S   0  0  0  0  0  0  0  0  0  0  0  0
    8.1847  -14.1201   20.5106 C   0  0  0  0  0  0  0  0  0  0  0  0
    9.4379  -14.9252   20.6077 C   0  0  0  0  0  0  0  0  0  0  0  0
    9.2975  -16.2357   21.3115 C   0  0  2  0  0  0  0  0  0  0  0  0
    8.0642  -16.8822   20.9996 N   0  0  0  0  0  0  0  0  0  0  0  0
    9.5238  -16.2159   22.7511 C   0  0  0  0  0  0  0  0  0  0  0  0
   10.6868  -16.0024   23.1776 O   0  0  0  0  0  0  0  0  0  0  0  0
    6.5478  -10.4239   26.3468 O   0  0  0  0  0  0  0  0  0  0  0  0
    6.8453  -11.7845   26.2719 C   0  0  0  0  0  0  0  0  0  0  0  0
    7.9633  -12.3275   26.8414 C   0  0  0  0  0  0  0  0  0  0  0  0
    8.2275  -13.6936   26.7456 C   0  0  0  0  0  0  0  0  0  0  0  0
    7.3685  -14.5204   26.0762 C   0  0  0  0  0  0  0  0  0  0  0  0
    7.6036  -15.9566   25.9458 C   0  0  0  0  0  0  0  0  0  0  0  0
    8.8532  -16.3299   25.1754 C   0  0  2  0  0  0  0  0  0  0  0  0
    8.5194  -16.4213   23.7427 N   0  0  0  0  0  0  0  0  0  0  0  0
    9.3635  -17.6402   25.6652 C   0  0  0  0  0  0  0  0  0  0  0  0
    8.9727  -18.7207   25.1503 O   0  0  0  0  0  0  0  0  0  0  0  0
    6.2437  -13.9624   25.5056 C   0  0  0  0  0  0  0  0  0  0  0  0
    5.9739  -12.6055   25.5963 C   0  0  0  0  0  0  0  0  0  0  0  0
   10.3045  -17.7056   26.7257 N   0  0  0  0  0  0  0  0  0  0  0  0
   11.0578  -18.9587   26.9018 C   0  0  1  0  0  0  0  0  0  0  0  0
   12.3134  -18.9368   26.1133 C   0  0  0  0  0  0  0  0  0  0  0  0
   13.0922  -20.1813   26.3182 C   0  0  0  0  0  0  0  0  0  0  0  0
   12.8334  -21.3211   27.0392 C   0  0  0  0  0  0  0  0  0  0  0  0
   13.8107  -22.2223   26.8533 N   0  0  0  0  0  0  0  0  0  0  0  0
   14.7004  -21.6842   26.0197 C   0  0  0  0  0  0  0  0  0  0  0  0
   14.2865  -20.4624   25.6884 N   0  0  0  0  0  0  0  0  0  0  0  0
   11.4348  -18.9773   28.3637 C   0  0  0  0  0  0  0  0  0  0  0  0
   12.0836  -20.0852   28.8607 O   0  0  0  0  0  0  0  0  0  0  0  0
   11.1850  -18.0484   29.1144 O   0  0  0  0  0  0  0  0  0  0  0  0
  1  2  1  0
  3  2  1  0
  4  5  1  0
  4  3  1  0
  5  6  1  1
  7  5  1  0
  8  7  2  0
  9 10  1  0
 10 11  2  0
 11 12  1  0
 13 12  2  0
 13 14  1  0
 15 14  1  1
 15 17  1  0
 15 16  1  0
 16  7  1  0
 17 18  2  0
 19 13  1  0
 20 10  1  0
 20 19  2  0
 21 22  1  0
 21 17  1  0
 22 23  1  6
 24 23  1  0
 25 24  2  0
 26 27  1  0
 26 25  1  0
 27 28  2  0
 28 24  1  0
 29 30  1  0
 29 22  1  0
 31 29  2  0
M  END
$$$$
