MYH.pdb
     RDKit          3D

 31 32  0  0  1  0  0  0  0  0999 V2000
    7.9869  -14.7316   15.5705 C   0  0  0  0  0  0  0  0  0  0  0  0
    9.1998  -15.9482   16.1010 S   0  0  0  0  0  0  0  0  0  0  0  0
    8.5401  -17.1032   17.3273 C   0  0  0  0  0  0  0  0  0  0  0  0
    9.2633  -17.0246   18.6308 C   0  0  0  0  0  0  0  0  0  0  0  0
    9.6130  -15.6434   19.0805 C   0  0  2  0  0  0  0  0  0  0  0  0
   10.8473  -15.1943   18.5225 N   0  0  0  0  0  0  0  0  0  0  0  0
    9.5786  -15.4113   20.5189 C   0  0  0  0  0  0  0  0  0  0  0  0
   10.6152  -15.6375   21.1929 O   0  0  0  0  0  0  0  0  0  0  0  0
    7.0424  -12.6768   28.6352 O   0  0  0  0  0  0  0  0  0  0  0  0
    7.1187  -12.9751   27.2748 C   0  0  0  0  0  0  0  0  0  0  0  0
    7.7973  -12.1903   26.3846 C   0  0  0  0  0  0  0  0  0  0  0  0
    7.8517  -12.5211   25.0308 C   0  0  0  0  0  0  0  0  0  0  0  0
    7.2234  -13.6429   24.5655 C   0  0  0  0  0  0  0  0  0  0  0  0
    7.2489  -14.0292   23.1566 C   0  0  0  0  0  0  0  0  0  0  0  0
    8.5624  -14.6143   22.6804 C   0  0  2  0  0  0  0  0  0  0  0  0
    8.4471  -14.9386   21.2473 N   0  0  0  0  0  0  0  0  0  0  0  0
    8.8667  -15.8460   23.4596 C   0  0  0  0  0  0  0  0  0  0  0  0
    8.2482  -16.9205   23.2401 O   0  0  0  0  0  0  0  0  0  0  0  0
    6.5418  -14.4276   25.4721 C   0  0  0  0  0  0  0  0  0  0  0  0
    6.4830  -14.1058   26.8194 C   0  0  0  0  0  0  0  0  0  0  0  0
    9.8629  -15.8414   24.4707 N   0  0  0  0  0  0  0  0  0  0  0  0
   10.1746  -17.1175   25.1363 C   0  0  1  0  0  0  0  0  0  0  0  0
   11.6058  -17.4668   24.9675 C   0  0  0  0  0  0  0  0  0  0  0  0
   11.9580  -18.6670   25.7631 C   0  0  0  0  0  0  0  0  0  0  0  0
   12.5483  -18.8147   26.9942 C   0  0  0  0  0  0  0  0  0  0  0  0
   12.5856  -20.1110   27.3407 N   0  0  0  0  0  0  0  0  0  0  0  0
   12.0257  -20.8077   26.3521 C   0  0  0  0  0  0  0  0  0  0  0  0
   11.6436  -19.9595   25.3990 N   0  0  0  0  0  0  0  0  0  0  0  0
    9.9373  -16.8525   26.6036 C   0  0  0  0  0  0  0  0  0  0  0  0
   10.3969  -15.6710   27.1406 O   0  0  0  0  0  0  0  0  0  0  0  0
    9.3551  -17.6461   27.3247 O   0  0  0  0  0  0  0  0  0  0  0  0
  1  2  1  0
  3  2  1  0
  4  5  1  0
  4  3  1  0
  5  6  1  1
  7  5  1  0
  8  7  2  0
  9 10  1  0
 10 11  2  0
 11 12  1  0
 13 12  2  0
 13 14  1  0
 15 14  1  1
 15 17  1  0
 15 16  1  0
 16  7  1  0
 17 18  2  0
 19 13  1  0
 20 10  1  0
 20 19  2  0
 21 22  1  0
 21 17  1  0
 22 23  1  1
 24 23  1  0
 25 24  2  0
 26 27  1  0
 26 25  1  0
 27 28  2  0
 28 24  1  0
 29 30  1  0
 29 22  1  0
 31 29  2  0
M  END
$$$$
