CIM.pdb
     RDKit          3D

 23 22  0  0  1  0  0  0  0  0999 V2000
    8.8436  -16.4099   19.7368 N   0  0  0  0  0  0  0  0  0  0  0  0
    8.2505  -16.8863   20.9996 C   0  0  1  0  0  0  0  0  0  0  0  0
    8.7924  -18.2838   21.2359 C   0  0  0  0  0  0  0  0  0  0  0  0
    7.6652  -19.5777   20.7220 S   0  0  0  0  0  0  0  0  0  0  0  0
    8.6936  -15.9709   22.0657 C   0  0  0  0  0  0  0  0  0  0  0  0
    9.8609  -15.4514   21.9406 O   0  0  0  0  0  0  0  0  0  0  0  0
    6.8053  -11.9941   26.3316 C   0  0  0  0  0  0  0  0  0  0  0  0
    7.9256  -12.8081   25.7182 C   0  0  0  0  0  0  0  0  0  0  0  0
    7.3618  -13.8943   24.8566 C   0  0  2  0  0  0  0  0  0  0  0  0
    6.4081  -14.7636   25.6517 C   0  0  0  0  0  0  0  0  0  0  0  0
    8.3848  -14.7262   24.1530 C   0  0  2  0  0  0  0  0  0  0  0  0
    7.8914  -15.6499   23.2010 N   0  0  0  0  0  0  0  0  0  0  0  0
    9.1274  -15.5124   25.2135 C   0  0  0  0  0  0  0  0  0  0  0  0
    8.5688  -16.4691   25.8045 O   0  0  0  0  0  0  0  0  0  0  0  0
   11.2236  -15.1567   30.7816 C   0  0  0  0  0  0  0  0  0  0  0  0
   10.4705  -13.7895   29.8618 S   0  0  0  0  0  0  0  0  0  0  0  0
   10.3070  -14.1714   28.1098 C   0  0  0  0  0  0  0  0  0  0  0  0
   10.4744  -15.6252   27.8807 C   0  0  0  0  0  0  0  0  0  0  0  0
   11.1628  -15.9782   26.6168 C   0  0  2  0  0  0  0  0  0  0  0  0
   10.4488  -15.1954   25.5612 N   0  0  0  0  0  0  0  0  0  0  0  0
   11.2519  -17.3679   26.2091 C   0  0  0  0  0  0  0  0  0  0  0  0
   10.1943  -18.0892   26.3103 O   0  0  0  0  0  0  0  0  0  0  0  0
   12.3443  -18.0276   25.7095 O   0  0  0  0  0  0  0  0  0  0  0  0
  2  3  1  0
  2  1  1  6
  4  3  1  0
  5  2  1  0
  6  5  2  0
  8  9  1  0
  8  7  1  0
  9 11  1  0
  9 10  1  1
 11 13  1  0
 11 12  1  6
 12  5  1  0
 13 20  1  0
 14 13  2  0
 16 17  1  0
 16 15  1  0
 19 18  1  1
 18 17  1  0
 19 21  1  0
 20 19  1  0
 21 22  2  0
 21 23  1  0
M  END
$$$$
