CIM.pdb
     RDKit          3D

 23 22  0  0  1  0  0  0  0  0999 V2000
   11.3165  -18.2961   18.7255 N   0  0  0  0  0  0  0  0  0  0  0  0
   10.0497  -18.3076   19.4794 C   0  0  1  0  0  0  0  0  0  0  0  0
   10.0944  -19.5218   20.3886 C   0  0  0  0  0  0  0  0  0  0  0  0
    9.8148  -21.0655   19.5240 S   0  0  0  0  0  0  0  0  0  0  0  0
    9.9997  -17.0671   20.2728 C   0  0  0  0  0  0  0  0  0  0  0  0
   11.1191  -16.4934   20.5296 O   0  0  0  0  0  0  0  0  0  0  0  0
    6.8401  -12.7441   19.2874 C   0  0  0  0  0  0  0  0  0  0  0  0
    7.9954  -13.6573   19.6413 C   0  0  0  0  0  0  0  0  0  0  0  0
    7.7875  -14.2489   21.0004 C   0  0  2  0  0  0  0  0  0  0  0  0
    7.6418  -13.1559   22.0403 C   0  0  0  0  0  0  0  0  0  0  0  0
    8.8230  -15.2451   21.4117 C   0  0  2  0  0  0  0  0  0  0  0  0
    8.7830  -16.4963   20.7516 N   0  0  0  0  0  0  0  0  0  0  0  0
    8.6333  -15.5009   22.8925 C   0  0  0  0  0  0  0  0  0  0  0  0
    7.8138  -16.3655   23.2893 O   0  0  0  0  0  0  0  0  0  0  0  0
    5.8373  -11.8414   26.7166 C   0  0  0  0  0  0  0  0  0  0  0  0
    7.2761  -12.3300   27.7033 S   0  0  0  0  0  0  0  0  0  0  0  0
    7.9426  -13.9169   27.1742 C   0  0  0  0  0  0  0  0  0  0  0  0
    8.5860  -13.7894   25.8462 C   0  0  0  0  0  0  0  0  0  0  0  0
    9.1574  -15.0476   25.3110 C   0  0  2  0  0  0  0  0  0  0  0  0
    9.3624  -14.7844   23.8530 N   0  0  0  0  0  0  0  0  0  0  0  0
    8.4356  -16.2951   25.4789 C   0  0  0  0  0  0  0  0  0  0  0  0
    8.4993  -16.8727   26.6240 O   0  0  0  0  0  0  0  0  0  0  0  0
    7.6680  -16.9517   24.5529 O   0  0  0  0  0  0  0  0  0  0  0  0
  2  3  1  0
  2  1  1  1
  4  3  1  0
  5  2  1  0
  6  5  2  0
  8  9  1  0
  8  7  1  0
  9 11  1  0
  9 10  1  1
 11 13  1  0
 11 12  1  6
 12  5  1  0
 13 20  1  0
 14 13  2  0
 16 17  1  0
 16 15  1  0
 19 18  1  6
 18 17  1  0
 19 21  1  0
 20 19  1  0
 21 22  2  0
 21 23  1  0
M  END
$$$$
