CIM.pdb
     RDKit          3D

 23 22  0  0  1  0  0  0  0  0999 V2000
    9.6148  -15.3796   19.8810 N   0  0  0  0  0  0  0  0  0  0  0  0
    8.7342  -16.0617   20.8467 C   0  0  1  0  0  0  0  0  0  0  0  0
    9.0051  -17.5484   20.7094 C   0  0  0  0  0  0  0  0  0  0  0  0
    8.0341  -18.5526   21.8309 S   0  0  0  0  0  0  0  0  0  0  0  0
    9.1070  -15.5884   22.1913 C   0  0  0  0  0  0  0  0  0  0  0  0
   10.3341  -15.2585   22.3741 O   0  0  0  0  0  0  0  0  0  0  0  0
    6.0161  -12.4046   25.5490 C   0  0  0  0  0  0  0  0  0  0  0  0
    7.1362  -12.9956   24.7182 C   0  0  0  0  0  0  0  0  0  0  0  0
    7.6284  -14.2633   25.3434 C   0  0  2  0  0  0  0  0  0  0  0  0
    8.1594  -13.9979   26.7380 C   0  0  0  0  0  0  0  0  0  0  0  0
    8.6266  -15.0157   24.5242 C   0  0  2  0  0  0  0  0  0  0  0  0
    8.1763  -15.4858   23.2677 N   0  0  0  0  0  0  0  0  0  0  0  0
    9.0559  -16.2191   25.3377 C   0  0  0  0  0  0  0  0  0  0  0  0
    8.6359  -17.3663   25.0476 O   0  0  0  0  0  0  0  0  0  0  0  0
    9.7596  -13.9754   29.6018 C   0  0  0  0  0  0  0  0  0  0  0  0
   11.5189  -14.3957   29.4980 S   0  0  0  0  0  0  0  0  0  0  0  0
   11.8731  -15.4473   28.0800 C   0  0  0  0  0  0  0  0  0  0  0  0
   11.2485  -16.7788   28.2560 C   0  0  0  0  0  0  0  0  0  0  0  0
   10.5409  -17.2944   27.0605 C   0  0  2  0  0  0  0  0  0  0  0  0
    9.9273  -16.0855   26.4287 N   0  0  0  0  0  0  0  0  0  0  0  0
    9.5307  -18.3252   27.2102 C   0  0  0  0  0  0  0  0  0  0  0  0
    8.3603  -17.9634   27.5954 O   0  0  0  0  0  0  0  0  0  0  0  0
    9.6633  -19.6698   26.9811 O   0  0  0  0  0  0  0  0  0  0  0  0
  2  3  1  0
  2  1  1  6
  4  3  1  0
  5  2  1  0
  6  5  2  0
  8  9  1  0
  8  7  1  0
  9 11  1  0
  9 10  1  1
 11 13  1  0
 11 12  1  6
 12  5  1  0
 13 20  1  0
 14 13  2  0
 16 17  1  0
 16 15  1  0
 19 18  1  1
 18 17  1  0
 19 21  1  0
 20 19  1  0
 21 22  2  0
 21 23  1  0
M  END
$$$$
