CIM.pdb
     RDKit          3D

 23 22  0  0  1  0  0  0  0  0999 V2000
    9.2289  -16.0759   19.5173 N   0  0  0  0  0  0  0  0  0  0  0  0
    8.3776  -16.5345   20.6300 C   0  0  1  0  0  0  0  0  0  0  0  0
    8.5931  -18.0313   20.7557 C   0  0  0  0  0  0  0  0  0  0  0  0
    7.2644  -18.8691   21.6168 S   0  0  0  0  0  0  0  0  0  0  0  0
    8.8342  -15.8407   21.8470 C   0  0  0  0  0  0  0  0  0  0  0  0
   10.0527  -15.4369   21.8658 O   0  0  0  0  0  0  0  0  0  0  0  0
    6.9914  -12.0697   26.2668 C   0  0  0  0  0  0  0  0  0  0  0  0
    8.0770  -12.9489   25.6816 C   0  0  0  0  0  0  0  0  0  0  0  0
    7.4875  -13.9093   24.6964 C   0  0  2  0  0  0  0  0  0  0  0  0
    6.3588  -14.6972   25.3308 C   0  0  0  0  0  0  0  0  0  0  0  0
    8.4773  -14.8206   24.0455 C   0  0  2  0  0  0  0  0  0  0  0  0
    7.9914  -15.6075   22.9743 N   0  0  0  0  0  0  0  0  0  0  0  0
    8.9856  -15.7648   25.1152 C   0  0  0  0  0  0  0  0  0  0  0  0
    8.3914  -16.8471   25.3436 O   0  0  0  0  0  0  0  0  0  0  0  0
    9.5750  -13.0020   28.8954 C   0  0  0  0  0  0  0  0  0  0  0  0
   10.1598  -14.3564   29.9471 S   0  0  0  0  0  0  0  0  0  0  0  0
   11.1008  -15.5725   29.0103 C   0  0  0  0  0  0  0  0  0  0  0  0
   10.2141  -16.3021   28.0747 C   0  0  0  0  0  0  0  0  0  0  0  0
   10.7768  -16.5057   26.7190 C   0  0  2  0  0  0  0  0  0  0  0  0
   10.1250  -15.4581   25.8735 N   0  0  0  0  0  0  0  0  0  0  0  0
   10.6463  -17.7977   26.0716 C   0  0  0  0  0  0  0  0  0  0  0  0
   11.7190  -18.4715   25.8611 O   0  0  0  0  0  0  0  0  0  0  0  0
    9.4965  -18.4132   25.6506 O   0  0  0  0  0  0  0  0  0  0  0  0
  2  3  1  0
  2  1  1  6
  4  3  1  0
  5  2  1  0
  6  5  2  0
  8  9  1  0
  8  7  1  0
  9 11  1  0
  9 10  1  1
 11 13  1  0
 11 12  1  6
 12  5  1  0
 13 20  1  0
 14 13  2  0
 16 17  1  0
 16 15  1  0
 19 18  1  1
 18 17  1  0
 19 21  1  0
 20 19  1  0
 21 22  2  0
 21 23  1  0
M  END
$$$$
