CIM.pdb
     RDKit          3D

 23 22  0  0  1  0  0  0  0  0999 V2000
    7.8891  -20.0373   19.7350 N   0  0  0  0  0  0  0  0  0  0  0  0
    7.4502  -19.2955   20.9310 C   0  0  1  0  0  0  0  0  0  0  0  0
    7.7963  -20.1582   22.1305 C   0  0  0  0  0  0  0  0  0  0  0  0
    7.3866  -19.3917   23.6969 S   0  0  0  0  0  0  0  0  0  0  0  0
    8.2064  -18.0314   20.9657 C   0  0  0  0  0  0  0  0  0  0  0  0
    9.4405  -18.0802   20.6155 O   0  0  0  0  0  0  0  0  0  0  0  0
    7.6305  -12.0056   20.1297 C   0  0  0  0  0  0  0  0  0  0  0  0
    8.4669  -13.1475   20.6686 C   0  0  0  0  0  0  0  0  0  0  0  0
    7.6479  -14.3983   20.7389 C   0  0  2  0  0  0  0  0  0  0  0  0
    6.3921  -14.1672   21.5556 C   0  0  0  0  0  0  0  0  0  0  0  0
    8.3887  -15.6022   21.2244 C   0  0  2  0  0  0  0  0  0  0  0  0
    7.6298  -16.7885   21.3634 N   0  0  0  0  0  0  0  0  0  0  0  0
    8.9566  -15.2581   22.5857 C   0  0  0  0  0  0  0  0  0  0  0  0
    9.6119  -14.2002   22.7532 O   0  0  0  0  0  0  0  0  0  0  0  0
    7.1220  -10.9999   26.3241 C   0  0  0  0  0  0  0  0  0  0  0  0
    6.2345  -12.5754   26.2124 S   0  0  0  0  0  0  0  0  0  0  0  0
    7.3408  -13.9821   26.4105 C   0  0  0  0  0  0  0  0  0  0  0  0
    7.5856  -14.6343   25.1034 C   0  0  0  0  0  0  0  0  0  0  0  0
    8.7504  -15.5500   25.0760 C   0  0  2  0  0  0  0  0  0  0  0  0
    8.7673  -16.1054   23.6874 N   0  0  0  0  0  0  0  0  0  0  0  0
    8.8334  -16.6386   26.0317 C   0  0  0  0  0  0  0  0  0  0  0  0
    8.2927  -17.7582   25.7105 O   0  0  0  0  0  0  0  0  0  0  0  0
    9.4359  -16.6308   27.2626 O   0  0  0  0  0  0  0  0  0  0  0  0
  2  3  1  0
  2  1  1  6
  4  3  1  0
  5  2  1  0
  6  5  2  0
  8  9  1  0
  8  7  1  0
  9 11  1  0
  9 10  1  1
 11 13  1  0
 11 12  1  1
 12  5  1  0
 13 20  1  0
 14 13  2  0
 16 17  1  0
 16 15  1  0
 19 18  1  1
 18 17  1  0
 19 21  1  0
 20 19  1  0
 21 22  2  0
 21 23  1  0
M  END
$$$$
