CIM.pdb
     RDKit          3D

 23 22  0  0  1  0  0  0  0  0999 V2000
    6.3454  -18.8033   22.8914 N   0  0  0  0  0  0  0  0  0  0  0  0
    6.0826  -17.9691   24.0782 C   0  0  1  0  0  0  0  0  0  0  0  0
    6.3718  -18.8335   25.2914 C   0  0  0  0  0  0  0  0  0  0  0  0
    8.1153  -19.1765   25.5182 S   0  0  0  0  0  0  0  0  0  0  0  0
    7.0088  -16.8245   24.0241 C   0  0  0  0  0  0  0  0  0  0  0  0
    7.9714  -16.8925   23.1775 O   0  0  0  0  0  0  0  0  0  0  0  0
    6.2020  -11.7526   26.7076 C   0  0  0  0  0  0  0  0  0  0  0  0
    6.4713  -13.1917   26.3196 C   0  0  0  0  0  0  0  0  0  0  0  0
    7.2744  -13.2440   25.0576 C   0  0  2  0  0  0  0  0  0  0  0  0
    6.4980  -12.6357   23.9068 C   0  0  0  0  0  0  0  0  0  0  0  0
    7.7863  -14.6019   24.7002 C   0  0  2  0  0  0  0  0  0  0  0  0
    6.8756  -15.6738   24.8570 N   0  0  0  0  0  0  0  0  0  0  0  0
    8.9790  -14.8786   25.5918 C   0  0  0  0  0  0  0  0  0  0  0  0
    9.2894  -14.0766   26.5067 O   0  0  0  0  0  0  0  0  0  0  0  0
   11.7616  -14.2855   29.9787 C   0  0  0  0  0  0  0  0  0  0  0  0
   10.6423  -14.1357   28.5619 S   0  0  0  0  0  0  0  0  0  0  0  0
    9.7378  -15.6630   28.2594 C   0  0  0  0  0  0  0  0  0  0  0  0
   10.5940  -16.6367   27.5433 C   0  0  0  0  0  0  0  0  0  0  0  0
   11.0306  -16.2039   26.1949 C   0  0  2  0  0  0  0  0  0  0  0  0
    9.7629  -16.0291   25.4207 N   0  0  0  0  0  0  0  0  0  0  0  0
   11.9493  -17.0312   25.4353 C   0  0  0  0  0  0  0  0  0  0  0  0
   11.5044  -17.5960   24.3713 O   0  0  0  0  0  0  0  0  0  0  0  0
   13.2672  -17.2900   25.7077 O   0  0  0  0  0  0  0  0  0  0  0  0
  2  3  1  0
  2  1  1  6
  4  3  1  0
  5  2  1  0
  6  5  2  0
  8  9  1  0
  8  7  1  0
  9 11  1  0
  9 10  1  6
 11 13  1  0
 11 12  1  1
 12  5  1  0
 13 20  1  0
 14 13  2  0
 16 17  1  0
 16 15  1  0
 19 18  1  1
 18 17  1  0
 19 21  1  0
 20 19  1  0
 21 22  2  0
 21 23  1  0
M  END
$$$$
