CIM.pdb
     RDKit          3D

 23 22  0  0  1  0  0  0  0  0999 V2000
    6.4362  -19.5549   20.6635 N   0  0  0  0  0  0  0  0  0  0  0  0
    6.1950  -18.5512   21.7160 C   0  0  1  0  0  0  0  0  0  0  0  0
    6.3407  -19.2691   23.0449 C   0  0  0  0  0  0  0  0  0  0  0  0
    5.9173  -18.2465   24.4534 S   0  0  0  0  0  0  0  0  0  0  0  0
    7.2268  -17.5090   21.5736 C   0  0  0  0  0  0  0  0  0  0  0  0
    8.3979  -17.8929   21.2139 O   0  0  0  0  0  0  0  0  0  0  0  0
    6.8758  -12.4230   19.3528 C   0  0  0  0  0  0  0  0  0  0  0  0
    7.3216  -13.8165   19.7446 C   0  0  0  0  0  0  0  0  0  0  0  0
    7.7035  -13.8480   21.1914 C   0  0  2  0  0  0  0  0  0  0  0  0
    8.8191  -12.8602   21.4692 C   0  0  0  0  0  0  0  0  0  0  0  0
    8.0463  -15.2048   21.7163 C   0  0  2  0  0  0  0  0  0  0  0  0
    6.9759  -16.1253   21.8142 N   0  0  0  0  0  0  0  0  0  0  0  0
    8.6172  -15.0148   23.1063 C   0  0  0  0  0  0  0  0  0  0  0  0
    9.0632  -13.8969   23.4639 O   0  0  0  0  0  0  0  0  0  0  0  0
    6.6420  -11.3601   27.5485 C   0  0  0  0  0  0  0  0  0  0  0  0
    6.6122  -12.6578   26.2845 S   0  0  0  0  0  0  0  0  0  0  0  0
    7.3909  -14.1743   26.8640 C   0  0  0  0  0  0  0  0  0  0  0  0
    7.3746  -15.2028   25.7981 C   0  0  0  0  0  0  0  0  0  0  0  0
    8.6955  -15.8018   25.4946 C   0  0  2  0  0  0  0  0  0  0  0  0
    8.6627  -16.0744   24.0243 N   0  0  0  0  0  0  0  0  0  0  0  0
    9.1228  -16.9973   26.1971 C   0  0  0  0  0  0  0  0  0  0  0  0
    8.9614  -18.1266   25.6075 O   0  0  0  0  0  0  0  0  0  0  0  0
    9.6986  -17.0810   27.4379 O   0  0  0  0  0  0  0  0  0  0  0  0
  2  3  1  0
  2  1  1  6
  4  3  1  0
  5  2  1  0
  6  5  2  0
  8  9  1  0
  8  7  1  0
  9 11  1  0
  9 10  1  6
 11 13  1  0
 11 12  1  1
 12  5  1  0
 13 20  1  0
 14 13  2  0
 16 17  1  0
 16 15  1  0
 19 18  1  1
 18 17  1  0
 19 21  1  0
 20 19  1  0
 21 22  2  0
 21 23  1  0
M  END
$$$$
