CIM.pdb
     RDKit          3D

 23 22  0  0  1  0  0  0  0  0999 V2000
    8.7395  -15.4729   19.6918 N   0  0  0  0  0  0  0  0  0  0  0  0
    8.1678  -16.2498   20.8067 C   0  0  1  0  0  0  0  0  0  0  0  0
    8.6662  -17.6741   20.6464 C   0  0  0  0  0  0  0  0  0  0  0  0
    8.0519  -18.7865   21.9089 S   0  0  0  0  0  0  0  0  0  0  0  0
    8.6753  -15.6604   22.0581 C   0  0  0  0  0  0  0  0  0  0  0  0
    9.8438  -15.1301   22.0212 O   0  0  0  0  0  0  0  0  0  0  0  0
    5.6843  -12.7884   25.7009 C   0  0  0  0  0  0  0  0  0  0  0  0
    6.7243  -13.2932   24.7225 C   0  0  0  0  0  0  0  0  0  0  0  0
    7.5417  -14.3773   25.3525 C   0  0  2  0  0  0  0  0  0  0  0  0
    8.2555  -13.8582   26.5846 C   0  0  0  0  0  0  0  0  0  0  0  0
    8.4978  -15.0559   24.4255 C   0  0  2  0  0  0  0  0  0  0  0  0
    7.9325  -15.6579   23.2762 N   0  0  0  0  0  0  0  0  0  0  0  0
    9.1932  -16.1430   25.2183 C   0  0  0  0  0  0  0  0  0  0  0  0
    8.9659  -17.3535   24.9740 O   0  0  0  0  0  0  0  0  0  0  0  0
    9.5474  -13.5564   29.3816 C   0  0  0  0  0  0  0  0  0  0  0  0
   11.3185  -13.9245   29.4823 S   0  0  0  0  0  0  0  0  0  0  0  0
   11.8670  -14.9540   28.1105 C   0  0  0  0  0  0  0  0  0  0  0  0
   11.2875  -16.3126   28.2210 C   0  0  0  0  0  0  0  0  0  0  0  0
   10.8649  -16.9127   26.9337 C   0  0  2  0  0  0  0  0  0  0  0  0
   10.1027  -15.8293   26.2390 N   0  0  0  0  0  0  0  0  0  0  0  0
   10.0793  -18.1326   26.9312 C   0  0  0  0  0  0  0  0  0  0  0  0
   10.7026  -19.2450   27.0832 O   0  0  0  0  0  0  0  0  0  0  0  0
    8.7216  -18.2563   26.7915 O   0  0  0  0  0  0  0  0  0  0  0  0
  2  3  1  0
  2  1  1  6
  4  3  1  0
  5  2  1  0
  6  5  2  0
  8  9  1  0
  8  7  1  0
  9 11  1  0
  9 10  1  1
 11 13  1  0
 11 12  1  6
 12  5  1  0
 13 20  1  0
 14 13  2  0
 16 17  1  0
 16 15  1  0
 19 18  1  1
 18 17  1  0
 19 21  1  0
 20 19  1  0
 21 22  2  0
 21 23  1  0
M  END
$$$$
