CIM.pdb
     RDKit          3D

 23 22  0  0  1  0  0  0  0  0999 V2000
    5.1209  -19.1655   20.3623 N   0  0  0  0  0  0  0  0  0  0  0  0
    4.8275  -17.9370   21.1225 C   0  0  1  0  0  0  0  0  0  0  0  0
    4.2270  -18.3756   22.4453 C   0  0  0  0  0  0  0  0  0  0  0  0
    2.4742  -18.7312   22.3451 S   0  0  0  0  0  0  0  0  0  0  0  0
    6.1067  -17.2389   21.3396 C   0  0  0  0  0  0  0  0  0  0  0  0
    7.1292  -17.9660   21.6112 O   0  0  0  0  0  0  0  0  0  0  0  0
    7.4461  -12.4979   18.7944 C   0  0  0  0  0  0  0  0  0  0  0  0
    7.4618  -13.9206   19.3138 C   0  0  0  0  0  0  0  0  0  0  0  0
    7.7616  -13.9309   20.7802 C   0  0  2  0  0  0  0  0  0  0  0  0
    9.1709  -13.4369   21.0390 C   0  0  0  0  0  0  0  0  0  0  0  0
    7.5208  -15.2418   21.4564 C   0  0  2  0  0  0  0  0  0  0  0  0
    6.2447  -15.8211   21.2594 N   0  0  0  0  0  0  0  0  0  0  0  0
    7.6980  -15.0163   22.9437 C   0  0  0  0  0  0  0  0  0  0  0  0
    6.9171  -14.2585   23.5701 O   0  0  0  0  0  0  0  0  0  0  0  0
    7.2115  -11.3908   26.9343 C   0  0  0  0  0  0  0  0  0  0  0  0
    6.4630  -13.0060   27.2711 S   0  0  0  0  0  0  0  0  0  0  0  0
    7.6214  -14.3538   26.9813 C   0  0  0  0  0  0  0  0  0  0  0  0
    7.6866  -14.6768   25.5372 C   0  0  0  0  0  0  0  0  0  0  0  0
    8.9331  -15.3542   25.1093 C   0  0  2  0  0  0  0  0  0  0  0  0
    8.7313  -15.6431   23.6557 N   0  0  0  0  0  0  0  0  0  0  0  0
    9.3646  -16.5632   25.7857 C   0  0  0  0  0  0  0  0  0  0  0  0
    9.9894  -16.4337   26.9001 O   0  0  0  0  0  0  0  0  0  0  0  0
    9.1812  -17.8605   25.3842 O   0  0  0  0  0  0  0  0  0  0  0  0
  2  3  1  0
  2  1  1  6
  4  3  1  0
  5  2  1  0
  6  5  2  0
  8  9  1  0
  8  7  1  0
  9 11  1  0
  9 10  1  6
 11 13  1  0
 11 12  1  1
 12  5  1  0
 13 20  1  0
 14 13  2  0
 16 17  1  0
 16 15  1  0
 19 18  1  1
 18 17  1  0
 19 21  1  0
 20 19  1  0
 21 22  2  0
 21 23  1  0
M  END
$$$$
