CIM.pdb
     RDKit          3D

 23 22  0  0  1  0  0  0  0  0999 V2000
   10.9876  -18.8157   19.3009 N   0  0  0  0  0  0  0  0  0  0  0  0
    9.6480  -18.4908   19.8236 C   0  0  1  0  0  0  0  0  0  0  0  0
    9.2584  -19.6214   20.7577 C   0  0  0  0  0  0  0  0  0  0  0  0
   10.3603  -19.7946   22.1594 S   0  0  0  0  0  0  0  0  0  0  0  0
    9.7615  -17.2220   20.5640 C   0  0  0  0  0  0  0  0  0  0  0  0
   10.9453  -16.8239   20.8611 O   0  0  0  0  0  0  0  0  0  0  0  0
    6.8313  -12.7760   19.4180 C   0  0  0  0  0  0  0  0  0  0  0  0
    7.9681  -13.7189   19.7536 C   0  0  0  0  0  0  0  0  0  0  0  0
    7.9204  -14.0888   21.2032 C   0  0  2  0  0  0  0  0  0  0  0  0
    8.1419  -12.8668   22.0721 C   0  0  0  0  0  0  0  0  0  0  0  0
    8.8422  -15.1983   21.5941 C   0  0  2  0  0  0  0  0  0  0  0  0
    8.6318  -16.4411   20.9506 N   0  0  0  0  0  0  0  0  0  0  0  0
    8.6713  -15.4174   23.0830 C   0  0  0  0  0  0  0  0  0  0  0  0
    7.5962  -15.8786   23.5393 O   0  0  0  0  0  0  0  0  0  0  0  0
    5.8898  -11.8395   26.1281 C   0  0  0  0  0  0  0  0  0  0  0  0
    7.3516  -12.0122   27.1844 S   0  0  0  0  0  0  0  0  0  0  0  0
    8.1057  -13.6393   27.0224 C   0  0  0  0  0  0  0  0  0  0  0  0
    8.6094  -13.8398   25.6440 C   0  0  0  0  0  0  0  0  0  0  0  0
    9.4293  -15.0596   25.4551 C   0  0  2  0  0  0  0  0  0  0  0  0
    9.7013  -15.1133   23.9853 N   0  0  0  0  0  0  0  0  0  0  0  0
    8.9217  -16.3445   25.8987 C   0  0  0  0  0  0  0  0  0  0  0  0
    8.3518  -17.0952   25.0265 O   0  0  0  0  0  0  0  0  0  0  0  0
    8.9789  -16.8798   27.1590 O   0  0  0  0  0  0  0  0  0  0  0  0
  2  3  1  0
  2  1  1  1
  4  3  1  0
  5  2  1  0
  6  5  2  0
  8  9  1  0
  8  7  1  0
  9 11  1  0
  9 10  1  1
 11 13  1  0
 11 12  1  6
 12  5  1  0
 13 20  1  0
 14 13  2  0
 16 17  1  0
 16 15  1  0
 19 18  1  6
 18 17  1  0
 19 21  1  0
 20 19  1  0
 21 22  2  0
 21 23  1  0
M  END
$$$$
