CIM.pdb
     RDKit          3D

 23 22  0  0  1  0  0  0  0  0999 V2000
   10.9169  -18.6936   19.1133 N   0  0  0  0  0  0  0  0  0  0  0  0
    9.5982  -18.4579   19.7287 C   0  0  1  0  0  0  0  0  0  0  0  0
    9.3596  -19.5997   20.6993 C   0  0  0  0  0  0  0  0  0  0  0  0
   10.8591  -20.1907   21.4811 S   0  0  0  0  0  0  0  0  0  0  0  0
    9.6720  -17.1735   20.4469 C   0  0  0  0  0  0  0  0  0  0  0  0
   10.8410  -16.6784   20.6380 O   0  0  0  0  0  0  0  0  0  0  0  0
    7.0324  -12.7499   19.1020 C   0  0  0  0  0  0  0  0  0  0  0  0
    8.0709  -13.7446   19.5775 C   0  0  0  0  0  0  0  0  0  0  0  0
    7.8167  -14.1125   21.0059 C   0  0  2  0  0  0  0  0  0  0  0  0
    7.8965  -12.8867   21.8937 C   0  0  0  0  0  0  0  0  0  0  0  0
    8.6834  -15.2113   21.5304 C   0  0  2  0  0  0  0  0  0  0  0  0
    8.5203  -16.4792   20.9234 N   0  0  0  0  0  0  0  0  0  0  0  0
    8.3686  -15.3637   23.0040 C   0  0  0  0  0  0  0  0  0  0  0  0
    7.2624  -15.8288   23.3738 O   0  0  0  0  0  0  0  0  0  0  0  0
    6.4689  -10.9659   26.2671 C   0  0  0  0  0  0  0  0  0  0  0  0
    7.2783  -12.1794   27.3417 S   0  0  0  0  0  0  0  0  0  0  0  0
    7.0446  -13.8623   26.7452 C   0  0  0  0  0  0  0  0  0  0  0  0
    7.6869  -14.0346   25.4217 C   0  0  0  0  0  0  0  0  0  0  0  0
    8.8856  -14.9058   25.4232 C   0  0  2  0  0  0  0  0  0  0  0  0
    9.2969  -14.9923   23.9878 N   0  0  0  0  0  0  0  0  0  0  0  0
    8.8040  -16.2421   25.9827 C   0  0  0  0  0  0  0  0  0  0  0  0
    8.4837  -17.2022   25.1924 O   0  0  0  0  0  0  0  0  0  0  0  0
    9.0377  -16.6256   27.2775 O   0  0  0  0  0  0  0  0  0  0  0  0
  2  3  1  0
  2  1  1  1
  4  3  1  0
  5  2  1  0
  6  5  2  0
  8  9  1  0
  8  7  1  0
  9 11  1  0
  9 10  1  1
 11 13  1  0
 11 12  1  6
 12  5  1  0
 13 20  1  0
 14 13  2  0
 16 17  1  0
 16 15  1  0
 19 18  1  6
 18 17  1  0
 19 21  1  0
 20 19  1  0
 21 22  2  0
 21 23  1  0
M  END
$$$$
