CIM.pdb
     RDKit          3D

 23 22  0  0  1  0  0  0  0  0999 V2000
    5.8911  -19.2169   23.4657 N   0  0  0  0  0  0  0  0  0  0  0  0
    6.2856  -18.5138   24.7000 C   0  0  1  0  0  0  0  0  0  0  0  0
    7.2224  -19.4423   25.4504 C   0  0  0  0  0  0  0  0  0  0  0  0
    7.9032  -18.7122   26.9377 S   0  0  0  0  0  0  0  0  0  0  0  0
    6.9875  -17.2822   24.2986 C   0  0  0  0  0  0  0  0  0  0  0  0
    7.6831  -17.3322   23.2207 O   0  0  0  0  0  0  0  0  0  0  0  0
    6.0024  -12.0255   26.4109 C   0  0  0  0  0  0  0  0  0  0  0  0
    6.4963  -13.4467   26.2376 C   0  0  0  0  0  0  0  0  0  0  0  0
    7.1309  -13.6116   24.8921 C   0  0  2  0  0  0  0  0  0  0  0  0
    6.1617  -13.2200   23.7946 C   0  0  0  0  0  0  0  0  0  0  0  0
    7.7096  -14.9659   24.6376 C   0  0  2  0  0  0  0  0  0  0  0  0
    6.9218  -16.0685   25.0456 N   0  0  0  0  0  0  0  0  0  0  0  0
    9.0238  -15.0381   25.3871 C   0  0  0  0  0  0  0  0  0  0  0  0
    9.1869  -14.3898   26.4500 O   0  0  0  0  0  0  0  0  0  0  0  0
   10.2545  -14.0317   30.5939 C   0  0  0  0  0  0  0  0  0  0  0  0
   11.0483  -15.2599   29.5244 S   0  0  0  0  0  0  0  0  0  0  0  0
   10.3260  -15.2775   27.8751 C   0  0  0  0  0  0  0  0  0  0  0  0
   10.9406  -16.3461   27.0539 C   0  0  0  0  0  0  0  0  0  0  0  0
   11.3588  -15.9219   25.6971 C   0  0  2  0  0  0  0  0  0  0  0  0
   10.0858  -15.8250   24.9177 N   0  0  0  0  0  0  0  0  0  0  0  0
   12.3178  -16.7202   24.9565 C   0  0  0  0  0  0  0  0  0  0  0  0
   11.8638  -17.5208   24.0609 O   0  0  0  0  0  0  0  0  0  0  0  0
   13.6821  -16.7266   25.0857 O   0  0  0  0  0  0  0  0  0  0  0  0
  2  3  1  0
  2  1  1  6
  4  3  1  0
  5  2  1  0
  6  5  2  0
  8  9  1  0
  8  7  1  0
  9 11  1  0
  9 10  1  6
 11 13  1  0
 11 12  1  1
 12  5  1  0
 13 20  1  0
 14 13  2  0
 16 17  1  0
 16 15  1  0
 19 18  1  1
 18 17  1  0
 19 21  1  0
 20 19  1  0
 21 22  2  0
 21 23  1  0
M  END
$$$$
