CIM.pdb
     RDKit          3D

 23 22  0  0  1  0  0  0  0  0999 V2000
    7.0365  -20.2148   20.7455 N   0  0  0  0  0  0  0  0  0  0  0  0
    6.2331  -19.0146   21.0413 C   0  0  1  0  0  0  0  0  0  0  0  0
    5.4559  -19.3120   22.3102 C   0  0  0  0  0  0  0  0  0  0  0  0
    6.2499  -18.6893   23.7903 S   0  0  0  0  0  0  0  0  0  0  0  0
    7.1721  -17.8999   21.2573 C   0  0  0  0  0  0  0  0  0  0  0  0
    8.4236  -18.1857   21.2700 O   0  0  0  0  0  0  0  0  0  0  0  0
    7.9829  -12.0396   19.8556 C   0  0  0  0  0  0  0  0  0  0  0  0
    8.4067  -13.2082   20.7209 C   0  0  0  0  0  0  0  0  0  0  0  0
    7.3832  -14.2982   20.6529 C   0  0  2  0  0  0  0  0  0  0  0  0
    6.0141  -13.7670   21.0279 C   0  0  0  0  0  0  0  0  0  0  0  0
    7.7196  -15.5196   21.4459 C   0  0  2  0  0  0  0  0  0  0  0  0
    6.7500  -16.5503   21.4467 N   0  0  0  0  0  0  0  0  0  0  0  0
    7.9225  -15.0787   22.8806 C   0  0  0  0  0  0  0  0  0  0  0  0
    7.0086  -14.4775   23.4971 O   0  0  0  0  0  0  0  0  0  0  0  0
    6.1062  -11.9881   26.2656 C   0  0  0  0  0  0  0  0  0  0  0  0
    7.7160  -12.6904   26.7104 S   0  0  0  0  0  0  0  0  0  0  0  0
    7.6476  -14.4842   26.8508 C   0  0  0  0  0  0  0  0  0  0  0  0
    7.8490  -15.1137   25.5253 C   0  0  0  0  0  0  0  0  0  0  0  0
    9.2422  -15.0677   25.0225 C   0  0  2  0  0  0  0  0  0  0  0  0
    9.1273  -15.3281   23.5541 N   0  0  0  0  0  0  0  0  0  0  0  0
   10.2429  -15.9507   25.5919 C   0  0  0  0  0  0  0  0  0  0  0  0
   10.3353  -17.1378   25.1110 O   0  0  0  0  0  0  0  0  0  0  0  0
   11.1316  -15.6742   26.5978 O   0  0  0  0  0  0  0  0  0  0  0  0
  2  3  1  0
  2  1  1  1
  4  3  1  0
  5  2  1  0
  6  5  2  0
  8  9  1  0
  8  7  1  0
  9 11  1  0
  9 10  1  1
 11 13  1  0
 11 12  1  1
 12  5  1  0
 13 20  1  0
 14 13  2  0
 16 17  1  0
 16 15  1  0
 19 18  1  1
 18 17  1  0
 19 21  1  0
 20 19  1  0
 21 22  2  0
 21 23  1  0
M  END
$$$$
