CIM.pdb
     RDKit          3D

 23 22  0  0  1  0  0  0  0  0999 V2000
    8.2139  -14.3496   20.1186 N   0  0  0  0  0  0  0  0  0  0  0  0
    7.1628  -14.4098   21.1505 C   0  0  1  0  0  0  0  0  0  0  0  0
    6.4198  -15.7162   20.9405 C   0  0  0  0  0  0  0  0  0  0  0  0
    7.3504  -17.1536   21.4666 S   0  0  0  0  0  0  0  0  0  0  0  0
    7.8340  -14.3999   22.4621 C   0  0  0  0  0  0  0  0  0  0  0  0
    9.0848  -14.6888   22.4795 O   0  0  0  0  0  0  0  0  0  0  0  0
    5.5726  -11.5927   26.6336 C   0  0  0  0  0  0  0  0  0  0  0  0
    6.7739  -11.9202   25.7713 C   0  0  0  0  0  0  0  0  0  0  0  0
    7.2263  -13.3235   26.0288 C   0  0  2  0  0  0  0  0  0  0  0  0
    8.0837  -13.3860   27.2771 C   0  0  0  0  0  0  0  0  0  0  0  0
    7.9126  -13.9790   24.8742 C   0  0  2  0  0  0  0  0  0  0  0  0
    7.1604  -14.0879   23.6804 N   0  0  0  0  0  0  0  0  0  0  0  0
    8.2839  -15.3805   25.3124 C   0  0  0  0  0  0  0  0  0  0  0  0
    7.4289  -16.2998   25.2968 O   0  0  0  0  0  0  0  0  0  0  0  0
   11.5932  -19.3392   22.1085 C   0  0  0  0  0  0  0  0  0  0  0  0
   12.5632  -19.1510   23.6271 S   0  0  0  0  0  0  0  0  0  0  0  0
   11.5166  -18.8062   25.0512 C   0  0  0  0  0  0  0  0  0  0  0  0
   10.9131  -17.4586   24.9339 C   0  0  0  0  0  0  0  0  0  0  0  0
    9.9740  -17.1031   26.0236 C   0  0  2  0  0  0  0  0  0  0  0  0
    9.5829  -15.6867   25.7440 N   0  0  0  0  0  0  0  0  0  0  0  0
   10.3968  -17.2225   27.4064 C   0  0  0  0  0  0  0  0  0  0  0  0
   10.7914  -16.1569   28.0047 O   0  0  0  0  0  0  0  0  0  0  0  0
   10.4241  -18.3526   28.1812 O   0  0  0  0  0  0  0  0  0  0  0  0
  2  3  1  0
  2  1  1  6
  4  3  1  0
  5  2  1  0
  6  5  2  0
  8  9  1  0
  8  7  1  0
  9 11  1  0
  9 10  1  1
 11 13  1  0
 11 12  1  6
 12  5  1  0
 13 20  1  0
 14 13  2  0
 16 17  1  0
 16 15  1  0
 19 18  1  6
 18 17  1  0
 19 21  1  0
 20 19  1  0
 21 22  2  0
 21 23  1  0
M  END
$$$$
