CIM.pdb
     RDKit          3D

 23 22  0  0  1  0  0  0  0  0999 V2000
   14.0022  -14.9472   19.2017 N   0  0  0  0  0  0  0  0  0  0  0  0
   12.7748  -15.7533   19.3314 C   0  0  1  0  0  0  0  0  0  0  0  0
   13.2086  -17.1415   19.7644 C   0  0  0  0  0  0  0  0  0  0  0  0
   14.2530  -17.1362   21.2197 S   0  0  0  0  0  0  0  0  0  0  0  0
   11.9427  -15.1221   20.3707 C   0  0  0  0  0  0  0  0  0  0  0  0
   12.5045  -14.2339   21.1079 O   0  0  0  0  0  0  0  0  0  0  0  0
    7.0121  -12.9202   19.6520 C   0  0  0  0  0  0  0  0  0  0  0  0
    8.4372  -13.2123   20.0736 C   0  0  0  0  0  0  0  0  0  0  0  0
    8.4573  -14.2909   21.1111 C   0  0  2  0  0  0  0  0  0  0  0  0
    7.6183  -13.8931   22.3091 C   0  0  0  0  0  0  0  0  0  0  0  0
    9.8239  -14.7237   21.5340 C   0  0  2  0  0  0  0  0  0  0  0  0
   10.5710  -15.4542   20.5796 N   0  0  0  0  0  0  0  0  0  0  0  0
    9.6558  -15.6026   22.7561 C   0  0  0  0  0  0  0  0  0  0  0  0
    9.4441  -16.8338   22.6304 O   0  0  0  0  0  0  0  0  0  0  0  0
    9.9402  -12.8726   28.4849 C   0  0  0  0  0  0  0  0  0  0  0  0
   10.6253  -14.4782   28.9702 S   0  0  0  0  0  0  0  0  0  0  0  0
   10.4506  -15.7031   27.6620 C   0  0  0  0  0  0  0  0  0  0  0  0
   10.2151  -15.0376   26.3599 C   0  0  0  0  0  0  0  0  0  0  0  0
    9.9841  -15.9614   25.2245 C   0  0  2  0  0  0  0  0  0  0  0  0
    9.7316  -15.0689   24.0511 N   0  0  0  0  0  0  0  0  0  0  0  0
    8.9318  -16.9568   25.3084 C   0  0  0  0  0  0  0  0  0  0  0  0
    9.2231  -18.0913   25.8347 O   0  0  0  0  0  0  0  0  0  0  0  0
    7.6304  -16.8392   24.8953 O   0  0  0  0  0  0  0  0  0  0  0  0
  2  3  1  0
  2  1  1  1
  4  3  1  0
  5  2  1  0
  6  5  2  0
  8  9  1  0
  8  7  1  0
  9 11  1  0
  9 10  1  1
 11 13  1  0
 11 12  1  6
 12  5  1  0
 13 20  1  0
 14 13  2  0
 16 17  1  0
 16 15  1  0
 19 18  1  1
 18 17  1  0
 19 21  1  0
 20 19  1  0
 21 22  2  0
 21 23  1  0
M  END
$$$$
