CMM.pdb
     RDKit          3D

 23 22  0  0  1  0  0  0  0  0999 V2000
   25.2991  -12.4199  -17.7948 N   0  0  0  0  0  0  0  0  0  0  0  0
   25.1173  -11.6043  -16.6221 C   0  0  1  0  0  0  0  0  0  0  0  0
   26.4376  -10.9445  -16.2257 C   0  0  0  0  0  0  0  0  0  0  0  0
   27.6206  -12.1790  -15.6532 S   0  0  0  0  0  0  0  0  0  0  0  0
   24.0699  -10.5955  -16.8751 C   0  0  0  0  0  0  0  0  0  0  0  0
   24.0038   -9.9930  -17.9825 O   0  0  0  0  0  0  0  0  0  0  0  0
   18.1296  -13.0826  -16.6205 C   0  0  0  0  0  0  0  0  0  0  0  0
   18.6544  -11.6737  -15.5791 S   0  0  0  0  0  0  0  0  0  0  0  0
   20.1838  -11.0144  -16.3156 C   0  0  0  0  0  0  0  0  0  0  0  0
   20.7861   -9.9418  -15.4294 C   0  0  0  0  0  0  0  0  0  0  0  0
   22.0318   -9.3832  -16.0388 C   0  0  2  0  0  0  0  0  0  0  0  0
   23.1285  -10.3048  -15.8551 N   0  0  0  0  0  0  0  0  0  0  0  0
   22.3283   -8.0479  -15.4476 C   0  0  0  0  0  0  0  0  0  0  0  0
   22.9793   -7.9675  -14.3757 O   0  0  0  0  0  0  0  0  0  0  0  0
   24.2741   -0.6731  -16.8701 C   0  0  0  0  0  0  0  0  0  0  0  0
   23.8358   -2.3312  -17.4783 S   0  0  0  0  0  0  0  0  0  0  0  0
   23.2346   -3.3322  -16.0718 C   0  0  0  0  0  0  0  0  0  0  0  0
   22.8941   -4.6943  -16.5922 C   0  0  0  0  0  0  0  0  0  0  0  0
   22.3126   -5.5489  -15.5064 C   0  0  2  0  0  0  0  0  0  0  0  0
   21.8990   -6.8554  -16.0553 N   0  0  0  0  0  0  0  0  0  0  0  0
   21.1423   -4.9666  -14.8334 C   0  0  0  0  0  0  0  0  0  0  0  0
   19.9819   -5.2159  -15.2198 O   0  0  0  0  0  0  0  0  0  0  0  0
   21.3107   -4.1253  -13.7516 O   0  0  0  0  0  0  0  0  0  0  0  0
  2  1  1  6
  3  2  1  0
  4  3  1  0
  5  2  1  0
  6  5  2  0
  8  7  1  0
  8  9  1  0
  9 10  1  0
 11 10  1  1
 11 13  1  0
 11 12  1  0
 12  5  1  0
 13 20  1  0
 14 13  2  0
 16 15  1  0
 17 16  1  0
 18 17  1  0
 19 21  1  0
 19 18  1  6
 20 19  1  0
 21 23  1  0
 22 21  2  0
M  END
$$$$
