CMM.pdb
     RDKit          3D

 23 22  0  0  1  0  0  0  0  0999 V2000
   14.5213  -12.2197  -12.1231 N   0  0  0  0  0  0  0  0  0  0  0  0
   15.7234  -11.6783  -11.5440 C   0  0  1  0  0  0  0  0  0  0  0  0
   16.9487  -12.1588  -12.3207 C   0  0  0  0  0  0  0  0  0  0  0  0
   17.2601  -13.9062  -12.0027 S   0  0  0  0  0  0  0  0  0  0  0  0
   15.6463  -10.2043  -11.5249 C   0  0  0  0  0  0  0  0  0  0  0  0
   15.2095   -9.5648  -12.5218 O   0  0  0  0  0  0  0  0  0  0  0  0
   14.5593   -4.0172   -6.9204 C   0  0  0  0  0  0  0  0  0  0  0  0
   14.7138   -5.8376   -7.0057 S   0  0  0  0  0  0  0  0  0  0  0  0
   15.3238   -6.2374   -8.6744 C   0  0  0  0  0  0  0  0  0  0  0  0
   15.4885   -7.7354   -8.8398 C   0  0  0  0  0  0  0  0  0  0  0  0
   15.9421   -8.0730  -10.2239 C   0  0  2  0  0  0  0  0  0  0  0  0
   16.0708   -9.5043  -10.3669 N   0  0  0  0  0  0  0  0  0  0  0  0
   17.2229   -7.3715  -10.5206 C   0  0  0  0  0  0  0  0  0  0  0  0
   18.3093   -7.8484  -10.1066 O   0  0  0  0  0  0  0  0  0  0  0  0
   22.9012   -7.0341  -14.7177 C   0  0  0  0  0  0  0  0  0  0  0  0
   21.2947   -7.6034  -14.0802 S   0  0  0  0  0  0  0  0  0  0  0  0
   20.4885   -6.2188  -13.2001 C   0  0  0  0  0  0  0  0  0  0  0  0
   19.2473   -6.7494  -12.5523 C   0  0  0  0  0  0  0  0  0  0  0  0
   18.5409   -5.6687  -11.7902 C   0  0  2  0  0  0  0  0  0  0  0  0
   17.2604   -6.1760  -11.2590 N   0  0  0  0  0  0  0  0  0  0  0  0
   18.2415   -4.4638  -12.5777 C   0  0  0  0  0  0  0  0  0  0  0  0
   17.1262   -4.3006  -13.1139 O   0  0  0  0  0  0  0  0  0  0  0  0
   19.2002   -3.4832  -12.7381 O   0  0  0  0  0  0  0  0  0  0  0  0
  2  1  1  6
  3  2  1  0
  4  3  1  0
  5  2  1  0
  6  5  2  0
  8  7  1  0
  8  9  1  0
  9 10  1  0
 11 10  1  1
 11 13  1  0
 11 12  1  0
 12  5  1  0
 13 20  1  0
 14 13  2  0
 16 15  1  0
 17 16  1  0
 18 17  1  0
 19 21  1  0
 19 18  1  6
 20 19  1  0
 21 23  1  0
 22 21  2  0
M  END
$$$$
