CMM.pdb
     RDKit          3D

 23 22  0  0  1  0  0  0  0  0999 V2000
   28.9779  -21.0787  -16.8599 N   0  0  0  0  0  0  0  0  0  0  0  0
   28.2512  -20.1245  -16.0630 C   0  0  1  0  0  0  0  0  0  0  0  0
   27.4152  -19.2124  -16.9601 C   0  0  0  0  0  0  0  0  0  0  0  0
   26.6646  -17.8853  -15.9973 S   0  0  0  0  0  0  0  0  0  0  0  0
   27.4043  -20.8353  -15.0851 C   0  0  0  0  0  0  0  0  0  0  0  0
   26.8267  -21.9152  -15.3914 O   0  0  0  0  0  0  0  0  0  0  0  0
   24.1840  -20.8651   -8.0804 C   0  0  0  0  0  0  0  0  0  0  0  0
   24.7675  -20.0538   -9.6121 S   0  0  0  0  0  0  0  0  0  0  0  0
   26.0317  -21.1451  -10.3383 C   0  0  0  0  0  0  0  0  0  0  0  0
   26.8076  -20.4202  -11.4204 C   0  0  0  0  0  0  0  0  0  0  0  0
   26.4062  -20.9008  -12.7781 C   0  0  2  0  0  0  0  0  0  0  0  0
   27.2422  -20.2910  -13.7856 N   0  0  0  0  0  0  0  0  0  0  0  0
   24.9629  -20.6117  -13.0098 C   0  0  0  0  0  0  0  0  0  0  0  0
   24.5888  -19.4348  -13.2425 O   0  0  0  0  0  0  0  0  0  0  0  0
   21.3413  -24.9480  -15.5674 C   0  0  0  0  0  0  0  0  0  0  0  0
   19.9386  -23.8549  -15.1817 S   0  0  0  0  0  0  0  0  0  0  0  0
   20.5814  -22.3206  -14.4238 C   0  0  0  0  0  0  0  0  0  0  0  0
   22.0249  -22.5431  -14.0942 C   0  0  0  0  0  0  0  0  0  0  0  0
   22.6061  -21.3421  -13.4107 C   0  0  2  0  0  0  0  0  0  0  0  0
   23.9887  -21.6244  -12.9769 N   0  0  0  0  0  0  0  0  0  0  0  0
   21.8588  -20.8937  -12.2266 C   0  0  0  0  0  0  0  0  0  0  0  0
   22.1491  -21.3032  -11.0837 O   0  0  0  0  0  0  0  0  0  0  0  0
   20.8126  -20.0029  -12.3620 O   0  0  0  0  0  0  0  0  0  0  0  0
  2  1  1  6
  3  2  1  0
  4  3  1  0
  5  2  1  0
  6  5  2  0
  8  7  1  0
  8  9  1  0
  9 10  1  0
 11 10  1  1
 11 13  1  0
 11 12  1  0
 12  5  1  0
 13 20  1  0
 14 13  2  0
 16 15  1  0
 17 16  1  0
 18 17  1  0
 19 21  1  0
 19 18  1  1
 20 19  1  0
 21 23  1  0
 22 21  2  0
M  END
$$$$
