CMM.pdb
     RDKit          3D

 23 22  0  0  1  0  0  0  0  0999 V2000
   28.7859  -20.5536  -16.1132 N   0  0  0  0  0  0  0  0  0  0  0  0
   28.0201  -19.7128  -15.2299 C   0  0  1  0  0  0  0  0  0  0  0  0
   27.2850  -18.6365  -16.0278 C   0  0  0  0  0  0  0  0  0  0  0  0
   27.7503  -16.9905  -15.4571 S   0  0  0  0  0  0  0  0  0  0  0  0
   27.0772  -20.5386  -14.4504 C   0  0  0  0  0  0  0  0  0  0  0  0
   26.5050  -21.5361  -14.9712 O   0  0  0  0  0  0  0  0  0  0  0  0
   27.1025  -20.5622   -7.9859 C   0  0  0  0  0  0  0  0  0  0  0  0
   25.3090  -20.8401   -8.2112 S   0  0  0  0  0  0  0  0  0  0  0  0
   25.0591  -21.2792   -9.9609 C   0  0  0  0  0  0  0  0  0  0  0  0
   26.0030  -20.4941  -10.8503 C   0  0  0  0  0  0  0  0  0  0  0  0
   25.8724  -20.9222  -12.2768 C   0  0  2  0  0  0  0  0  0  0  0  0
   26.8157  -20.2001  -13.0982 N   0  0  0  0  0  0  0  0  0  0  0  0
   24.4703  -20.7193  -12.7386 C   0  0  0  0  0  0  0  0  0  0  0  0
   24.0857  -19.5762  -13.0915 O   0  0  0  0  0  0  0  0  0  0  0  0
   18.4257  -24.2502  -16.2859 C   0  0  0  0  0  0  0  0  0  0  0  0
   20.1161  -24.3349  -15.6175 S   0  0  0  0  0  0  0  0  0  0  0  0
   20.4909  -22.7601  -14.7682 C   0  0  0  0  0  0  0  0  0  0  0  0
   21.8307  -22.9003  -14.1149 C   0  0  0  0  0  0  0  0  0  0  0  0
   22.2575  -21.6050  -13.4923 C   0  0  2  0  0  0  0  0  0  0  0  0
   23.5470  -21.7777  -12.7945 N   0  0  0  0  0  0  0  0  0  0  0  0
   21.3037  -21.0533  -12.5190 C   0  0  0  0  0  0  0  0  0  0  0  0
   21.4637  -21.2147  -11.2917 O   0  0  0  0  0  0  0  0  0  0  0  0
   20.2037  -20.3401  -12.9525 O   0  0  0  0  0  0  0  0  0  0  0  0
  2  1  1  6
  3  2  1  0
  4  3  1  0
  5  2  1  0
  6  5  2  0
  8  7  1  0
  8  9  1  0
  9 10  1  0
 11 10  1  1
 11 13  1  0
 11 12  1  0
 12  5  1  0
 13 20  1  0
 14 13  2  0
 16 15  1  0
 17 16  1  0
 18 17  1  0
 19 21  1  0
 19 18  1  1
 20 19  1  0
 21 23  1  0
 22 21  2  0
M  END
$$$$
