CMM.pdb
     RDKit          3D

 23 22  0  0  1  0  0  0  0  0999 V2000
   26.6707  -16.6598  -17.2472 N   0  0  0  0  0  0  0  0  0  0  0  0
   26.2413  -16.7405  -15.8751 C   0  0  1  0  0  0  0  0  0  0  0  0
   24.8689  -16.0886  -15.7102 C   0  0  0  0  0  0  0  0  0  0  0  0
   25.0057  -14.2916  -15.7679 S   0  0  0  0  0  0  0  0  0  0  0  0
   26.2186  -18.1517  -15.4430 C   0  0  0  0  0  0  0  0  0  0  0  0
   25.7638  -19.0543  -16.1994 O   0  0  0  0  0  0  0  0  0  0  0  0
   30.4630  -20.7532  -11.5606 C   0  0  0  0  0  0  0  0  0  0  0  0
   29.0552  -21.6915  -10.8662 S   0  0  0  0  0  0  0  0  0  0  0  0
   27.6312  -21.3934  -11.9616 C   0  0  0  0  0  0  0  0  0  0  0  0
   27.7053  -20.0073  -12.5714 C   0  0  0  0  0  0  0  0  0  0  0  0
   26.6566  -19.8295  -13.6221 C   0  0  2  0  0  0  0  0  0  0  0  0
   26.7166  -18.4902  -14.1590 N   0  0  0  0  0  0  0  0  0  0  0  0
   25.3141  -20.1360  -13.0525 C   0  0  0  0  0  0  0  0  0  0  0  0
   24.7025  -19.2644  -12.3852 O   0  0  0  0  0  0  0  0  0  0  0  0
   20.4091  -20.5591   -8.1896 C   0  0  0  0  0  0  0  0  0  0  0  0
   21.9595  -20.1989   -9.0716 S   0  0  0  0  0  0  0  0  0  0  0  0
   22.0236  -21.2197  -10.5867 C   0  0  0  0  0  0  0  0  0  0  0  0
   23.3329  -20.9537  -11.2625 C   0  0  0  0  0  0  0  0  0  0  0  0
   23.4197  -21.6921  -12.5643 C   0  0  2  0  0  0  0  0  0  0  0  0
   24.6971  -21.3853  -13.2378 N   0  0  0  0  0  0  0  0  0  0  0  0
   22.3397  -21.3839  -13.5129 C   0  0  0  0  0  0  0  0  0  0  0  0
   22.5293  -20.6271  -14.4873 O   0  0  0  0  0  0  0  0  0  0  0  0
   21.0848  -21.9328  -13.3386 O   0  0  0  0  0  0  0  0  0  0  0  0
  2  1  1  6
  3  2  1  0
  4  3  1  0
  5  2  1  0
  6  5  2  0
  8  7  1  0
  8  9  1  0
  9 10  1  0
 11 10  1  1
 11 13  1  0
 11 12  1  0
 12  5  1  0
 13 20  1  0
 14 13  2  0
 16 15  1  0
 17 16  1  0
 18 17  1  0
 19 21  1  0
 19 18  1  1
 20 19  1  0
 21 23  1  0
 22 21  2  0
M  END
$$$$
