CMM.pdb
     RDKit          3D

 23 22  0  0  1  0  0  0  0  0999 V2000
   28.4313  -21.2421  -15.6626 N   0  0  0  0  0  0  0  0  0  0  0  0
   27.9908  -20.2746  -14.6913 C   0  0  1  0  0  0  0  0  0  0  0  0
   27.4087  -19.0475  -15.3920 C   0  0  0  0  0  0  0  0  0  0  0  0
   28.7140  -18.0836  -16.1787 S   0  0  0  0  0  0  0  0  0  0  0  0
   27.0022  -20.8929  -13.7862 C   0  0  0  0  0  0  0  0  0  0  0  0
   26.1494  -21.7154  -14.2219 O   0  0  0  0  0  0  0  0  0  0  0  0
   27.4300  -19.9459   -7.4661 C   0  0  0  0  0  0  0  0  0  0  0  0
   25.6484  -20.3581   -7.4437 S   0  0  0  0  0  0  0  0  0  0  0  0
   25.2001  -20.8528   -9.1380 C   0  0  0  0  0  0  0  0  0  0  0  0
   26.2795  -20.4408  -10.1196 C   0  0  0  0  0  0  0  0  0  0  0  0
   25.9588  -20.9215  -11.4986 C   0  0  2  0  0  0  0  0  0  0  0  0
   27.0173  -20.5531  -12.4094 N   0  0  0  0  0  0  0  0  0  0  0  0
   24.6427  -20.3726  -11.9312 C   0  0  0  0  0  0  0  0  0  0  0  0
   24.5515  -19.1714  -12.2889 O   0  0  0  0  0  0  0  0  0  0  0  0
   22.1290  -20.6801  -17.0903 C   0  0  0  0  0  0  0  0  0  0  0  0
   20.6350  -21.2436  -16.2175 S   0  0  0  0  0  0  0  0  0  0  0  0
   20.7261  -20.6868  -14.4787 C   0  0  0  0  0  0  0  0  0  0  0  0
   22.0548  -21.1083  -13.9324 C   0  0  0  0  0  0  0  0  0  0  0  0
   22.2274  -20.6282  -12.5227 C   0  0  2  0  0  0  0  0  0  0  0  0
   23.4805  -21.1629  -11.9542 N   0  0  0  0  0  0  0  0  0  0  0  0
   21.1370  -21.0068  -11.6122 C   0  0  0  0  0  0  0  0  0  0  0  0
   21.2604  -21.9583  -10.8137 O   0  0  0  0  0  0  0  0  0  0  0  0
   19.9463  -20.3081  -11.6265 O   0  0  0  0  0  0  0  0  0  0  0  0
  2  1  1  6
  3  2  1  0
  4  3  1  0
  5  2  1  0
  6  5  2  0
  8  7  1  0
  8  9  1  0
  9 10  1  0
 11 10  1  1
 11 13  1  0
 11 12  1  0
 12  5  1  0
 13 20  1  0
 14 13  2  0
 16 15  1  0
 17 16  1  0
 18 17  1  0
 19 21  1  0
 19 18  1  6
 20 19  1  0
 21 23  1  0
 22 21  2  0
M  END
$$$$
