CMM.pdb
     RDKit          3D

 23 22  0  0  1  0  0  0  0  0999 V2000
   16.1495  -13.3262  -13.4516 N   0  0  0  0  0  0  0  0  0  0  0  0
   16.3637  -12.6297  -14.6936 C   0  0  1  0  0  0  0  0  0  0  0  0
   15.5892  -13.3089  -15.8225 C   0  0  0  0  0  0  0  0  0  0  0  0
   15.5258  -15.0930  -15.5686 S   0  0  0  0  0  0  0  0  0  0  0  0
   15.9652  -11.2161  -14.5465 C   0  0  0  0  0  0  0  0  0  0  0  0
   16.1421  -10.3913  -15.4857 O   0  0  0  0  0  0  0  0  0  0  0  0
   12.8633   -9.0109   -9.1076 C   0  0  0  0  0  0  0  0  0  0  0  0
   12.2601   -7.8881  -10.4191 S   0  0  0  0  0  0  0  0  0  0  0  0
   13.4831   -7.9467  -11.7672 C   0  0  0  0  0  0  0  0  0  0  0  0
   13.9762   -9.3642  -11.9819 C   0  0  0  0  0  0  0  0  0  0  0  0
   14.9766   -9.4192  -13.0917 C   0  0  2  0  0  0  0  0  0  0  0  0
   15.3760  -10.7864  -13.3301 N   0  0  0  0  0  0  0  0  0  0  0  0
   16.1435   -8.5528  -12.7629 C   0  0  0  0  0  0  0  0  0  0  0  0
   16.7769   -8.7339  -11.6928 O   0  0  0  0  0  0  0  0  0  0  0  0
   21.8409   -9.0094  -13.4105 C   0  0  0  0  0  0  0  0  0  0  0  0
   21.6438   -7.4577  -14.3404 S   0  0  0  0  0  0  0  0  0  0  0  0
   20.2075   -6.5487  -13.6676 C   0  0  0  0  0  0  0  0  0  0  0  0
   18.9871   -7.3839  -13.9017 C   0  0  0  0  0  0  0  0  0  0  0  0
   17.7760   -6.7373  -13.2994 C   0  0  2  0  0  0  0  0  0  0  0  0
   16.5683   -7.5233  -13.6205 N   0  0  0  0  0  0  0  0  0  0  0  0
   17.5337   -5.3589  -13.7497 C   0  0  0  0  0  0  0  0  0  0  0  0
   16.7167   -5.1085  -14.6595 O   0  0  0  0  0  0  0  0  0  0  0  0
   18.2139   -4.3083  -13.1666 O   0  0  0  0  0  0  0  0  0  0  0  0
  2  1  1  1
  3  2  1  0
  4  3  1  0
  5  2  1  0
  6  5  2  0
  8  7  1  0
  8  9  1  0
  9 10  1  0
 11 10  1  1
 11 13  1  0
 11 12  1  0
 12  5  1  0
 13 20  1  0
 14 13  2  0
 16 15  1  0
 17 16  1  0
 18 17  1  0
 19 21  1  0
 19 18  1  6
 20 19  1  0
 21 23  1  0
 22 21  2  0
M  END
$$$$
