CMM.pdb
     RDKit          3D

 23 22  0  0  1  0  0  0  0  0999 V2000
   28.2207  -19.7061  -16.3886 N   0  0  0  0  0  0  0  0  0  0  0  0
   27.8341  -20.7433  -15.4676 C   0  0  1  0  0  0  0  0  0  0  0  0
   29.0660  -21.5046  -14.9793 C   0  0  0  0  0  0  0  0  0  0  0  0
   29.3812  -22.9424  -16.0208 S   0  0  0  0  0  0  0  0  0  0  0  0
   27.0875  -20.1537  -14.3391 C   0  0  0  0  0  0  0  0  0  0  0  0
   27.4276  -19.0422  -13.8466 O   0  0  0  0  0  0  0  0  0  0  0  0
   20.8081  -20.0794  -14.0605 C   0  0  0  0  0  0  0  0  0  0  0  0
   21.0752  -20.3590  -12.2730 S   0  0  0  0  0  0  0  0  0  0  0  0
   22.8294  -20.0010  -11.9396 C   0  0  0  0  0  0  0  0  0  0  0  0
   23.7098  -20.5701  -13.0348 C   0  0  0  0  0  0  0  0  0  0  0  0
   25.1549  -20.3251  -12.7395 C   0  0  2  0  0  0  0  0  0  0  0  0
   25.9738  -20.8516  -13.8063 N   0  0  0  0  0  0  0  0  0  0  0  0
   25.5102  -20.9263  -11.4232 C   0  0  0  0  0  0  0  0  0  0  0  0
   25.4924  -22.1745  -11.2787 O   0  0  0  0  0  0  0  0  0  0  0  0
   29.1648  -18.2471   -6.9959 C   0  0  0  0  0  0  0  0  0  0  0  0
   28.1939  -19.2567   -5.8343 S   0  0  0  0  0  0  0  0  0  0  0  0
   27.1640  -20.4251   -6.7913 C   0  0  0  0  0  0  0  0  0  0  0  0
   26.9310  -19.8274   -8.1441 C   0  0  0  0  0  0  0  0  0  0  0  0
   26.1395  -20.7611   -9.0095 C   0  0  2  0  0  0  0  0  0  0  0  0
   25.8706  -20.1347  -10.3190 N   0  0  0  0  0  0  0  0  0  0  0  0
   24.8443  -21.1660   -8.4437 C   0  0  0  0  0  0  0  0  0  0  0  0
   23.7895  -20.5730   -8.7501 O   0  0  0  0  0  0  0  0  0  0  0  0
   24.7740  -22.2201   -7.5547 O   0  0  0  0  0  0  0  0  0  0  0  0
  2  1  1  6
  3  2  1  0
  4  3  1  0
  5  2  1  0
  6  5  2  0
  8  7  1  0
  8  9  1  0
  9 10  1  0
 11 10  1  6
 11 13  1  0
 11 12  1  0
 12  5  1  0
 13 20  1  0
 14 13  2  0
 16 15  1  0
 17 16  1  0
 18 17  1  0
 19 21  1  0
 19 18  1  1
 20 19  1  0
 21 23  1  0
 22 21  2  0
M  END
$$$$
