CMM.pdb
     RDKit          3D

 23 22  0  0  1  0  0  0  0  0999 V2000
   16.5727  -14.1803  -15.5920 N   0  0  0  0  0  0  0  0  0  0  0  0
   16.6020  -12.8393  -16.1159 C   0  0  1  0  0  0  0  0  0  0  0  0
   15.5998  -11.9577  -15.3717 C   0  0  0  0  0  0  0  0  0  0  0  0
   16.0059  -11.8721  -13.6169 S   0  0  0  0  0  0  0  0  0  0  0  0
   17.9706  -12.2957  -16.0153 C   0  0  0  0  0  0  0  0  0  0  0  0
   18.7191  -12.5989  -15.0450 O   0  0  0  0  0  0  0  0  0  0  0  0
   23.5418  -12.0962  -19.4470 C   0  0  0  0  0  0  0  0  0  0  0  0
   21.9789  -13.0317  -19.6108 S   0  0  0  0  0  0  0  0  0  0  0  0
   20.9616  -12.6175  -18.1583 C   0  0  0  0  0  0  0  0  0  0  0  0
   20.5292  -11.1650  -18.2036 C   0  0  0  0  0  0  0  0  0  0  0  0
   19.7478  -10.8022  -16.9817 C   0  0  2  0  0  0  0  0  0  0  0  0
   18.4438  -11.4214  -17.0267 N   0  0  0  0  0  0  0  0  0  0  0  0
   19.6509   -9.3198  -16.8660 C   0  0  0  0  0  0  0  0  0  0  0  0
   18.7002   -8.7089  -17.4156 O   0  0  0  0  0  0  0  0  0  0  0  0
   22.0537   -2.8561  -13.0213 C   0  0  0  0  0  0  0  0  0  0  0  0
   22.1964   -4.6553  -13.2535 S   0  0  0  0  0  0  0  0  0  0  0  0
   21.1433   -5.1505  -14.6633 C   0  0  0  0  0  0  0  0  0  0  0  0
   21.2314   -6.6389  -14.7995 C   0  0  0  0  0  0  0  0  0  0  0  0
   20.4059   -7.1174  -15.9558 C   0  0  2  0  0  0  0  0  0  0  0  0
   20.6001   -8.5676  -16.1525 N   0  0  0  0  0  0  0  0  0  0  0  0
   20.7082   -6.4579  -17.2345 C   0  0  0  0  0  0  0  0  0  0  0  0
   20.1238   -5.4095  -17.5771 O   0  0  0  0  0  0  0  0  0  0  0  0
   21.6537   -6.9942  -18.0859 O   0  0  0  0  0  0  0  0  0  0  0  0
  2  1  1  1
  3  2  1  0
  4  3  1  0
  5  2  1  0
  6  5  2  0
  8  7  1  0
  8  9  1  0
  9 10  1  0
 11 10  1  6
 11 13  1  0
 11 12  1  0
 12  5  1  0
 13 20  1  0
 14 13  2  0
 16 15  1  0
 17 16  1  0
 18 17  1  0
 19 21  1  0
 19 18  1  1
 20 19  1  0
 21 23  1  0
 22 21  2  0
M  END
$$$$
