HMG.pdb
     RDKit          3D

 23 23  0  0  1  0  0  0  0  0999 V2000
   27.9913  -20.5163  -15.6100 N   0  0  0  0  0  0  0  0  0  0  0  0
   26.9708  -19.7166  -15.0068 C   0  0  1  0  0  0  0  0  0  0  0  0
   26.3279  -18.8853  -16.0937 C   0  0  0  0  0  0  0  0  0  0  0  0
   27.3350  -17.8614  -16.4986 C   0  0  0  0  0  0  0  0  0  0  0  0
   27.5786  -16.6396  -15.9081 C   0  0  0  0  0  0  0  0  0  0  0  0
   28.5652  -15.9949  -16.5598 N   0  0  0  0  0  0  0  0  0  0  0  0
   28.9491  -16.8014  -17.5610 C   0  0  0  0  0  0  0  0  0  0  0  0
   28.2176  -17.9299  -17.5379 N   0  0  0  0  0  0  0  0  0  0  0  0
   25.9770  -20.5210  -14.2521 C   0  0  0  0  0  0  0  0  0  0  0  0
   25.4542  -21.5361  -14.7797 O   0  0  0  0  0  0  0  0  0  0  0  0
   28.0604  -20.4223   -7.9256 C   0  0  0  0  0  0  0  0  0  0  0  0
   26.3714  -20.1820   -8.5412 S   0  0  0  0  0  0  0  0  0  0  0  0
   26.1290  -21.0435  -10.1245 C   0  0  0  0  0  0  0  0  0  0  0  0
   24.7522  -20.7585  -10.6776 C   0  0  0  0  0  0  0  0  0  0  0  0
   24.6757  -21.0414  -12.1605 C   0  0  2  0  0  0  0  0  0  0  0  0
   25.5655  -20.2038  -12.9237 N   0  0  0  0  0  0  0  0  0  0  0  0
   23.3004  -20.8058  -12.6670 C   0  0  0  0  0  0  0  0  0  0  0  0
   22.9793  -19.6551  -13.0089 O   0  0  0  0  0  0  0  0  0  0  0  0
   22.3399  -21.8464  -12.7747 N   0  0  0  0  0  0  0  0  0  0  0  0
   21.0463  -21.5488  -13.3425 C   0  0  0  0  0  0  0  0  0  0  0  0
   20.1001  -21.3106  -12.2271 C   0  0  0  0  0  0  0  0  0  0  0  0
   20.0953  -20.1700  -11.6921 O   0  0  0  0  0  0  0  0  0  0  0  0
   19.2228  -22.2611  -11.7369 O   0  0  0  0  0  0  0  0  0  0  0  0
  2  1  1  6
  2  3  1  0
  2  9  1  0
  4  5  2  0
  4  3  1  0
  6  5  1  0
  7  8  2  0
  7  6  1  0
  8  4  1  0
  9 16  1  0
 10  9  2  0
 12 11  1  0
 13 12  1  0
 14 13  1  0
 15 14  1  1
 15 17  1  0
 16 15  1  0
 17 19  1  0
 18 17  2  0
 19 20  1  0
 20 21  1  0
 21 22  2  0
 21 23  1  0
M  END
$$$$
