HMG.pdb
     RDKit          3D

 23 23  0  0  1  0  0  0  0  0999 V2000
   27.4308  -21.2807  -15.0047 N   0  0  0  0  0  0  0  0  0  0  0  0
   27.0283  -20.3178  -14.0272 C   0  0  1  0  0  0  0  0  0  0  0  0
   26.2885  -19.2101  -14.7425 C   0  0  0  0  0  0  0  0  0  0  0  0
   27.2816  -18.5400  -15.6320 C   0  0  0  0  0  0  0  0  0  0  0  0
   28.6193  -18.8401  -15.7780 C   0  0  0  0  0  0  0  0  0  0  0  0
   29.1880  -18.0120  -16.6749 N   0  0  0  0  0  0  0  0  0  0  0  0
   28.2180  -17.1876  -17.0989 C   0  0  0  0  0  0  0  0  0  0  0  0
   27.0634  -17.4927  -16.4801 N   0  0  0  0  0  0  0  0  0  0  0  0
   26.2261  -20.9112  -12.9278 C   0  0  0  0  0  0  0  0  0  0  0  0
   25.4589  -21.8810  -13.1581 O   0  0  0  0  0  0  0  0  0  0  0  0
   26.9590  -19.0341   -6.7212 C   0  0  0  0  0  0  0  0  0  0  0  0
   27.7671  -20.5985   -7.1563 S   0  0  0  0  0  0  0  0  0  0  0  0
   27.2111  -21.1850   -8.7856 C   0  0  0  0  0  0  0  0  0  0  0  0
   25.8994  -20.5370   -9.1628 C   0  0  0  0  0  0  0  0  0  0  0  0
   25.4386  -20.9660  -10.5370 C   0  0  2  0  0  0  0  0  0  0  0  0
   26.2732  -20.4344  -11.5843 N   0  0  0  0  0  0  0  0  0  0  0  0
   24.0531  -20.4986  -10.7929 C   0  0  0  0  0  0  0  0  0  0  0  0
   23.8873  -19.4150  -11.3779 O   0  0  0  0  0  0  0  0  0  0  0  0
   22.9121  -21.2442  -10.3939 N   0  0  0  0  0  0  0  0  0  0  0  0
   21.5986  -20.6910  -10.6250 C   0  0  0  0  0  0  0  0  0  0  0  0
   21.1837  -21.0550  -12.0004 C   0  0  0  0  0  0  0  0  0  0  0  0
   21.9439  -21.8083  -12.6650 O   0  0  0  0  0  0  0  0  0  0  0  0
   20.0154  -20.6198  -12.5996 O   0  0  0  0  0  0  0  0  0  0  0  0
  2  1  1  6
  2  3  1  0
  2  9  1  0
  4  5  2  0
  4  3  1  0
  6  5  1  0
  7  8  2  0
  7  6  1  0
  8  4  1  0
  9 16  1  0
 10  9  2  0
 12 11  1  0
 13 12  1  0
 14 13  1  0
 15 14  1  1
 15 17  1  0
 16 15  1  0
 17 19  1  0
 18 17  2  0
 19 20  1  0
 20 21  1  0
 21 22  2  0
 21 23  1  0
M  END
$$$$
