HMG.pdb
     RDKit          3D

 23 23  0  0  1  0  0  0  0  0999 V2000
   27.2087  -35.8342   -7.6511 N   0  0  0  0  0  0  0  0  0  0  0  0
   27.7475  -34.7698   -6.8627 C   0  0  1  0  0  0  0  0  0  0  0  0
   26.5906  -33.9681   -6.3107 C   0  0  0  0  0  0  0  0  0  0  0  0
   26.0260  -33.1928   -7.4538 C   0  0  0  0  0  0  0  0  0  0  0  0
   26.4201  -31.9516   -7.9064 C   0  0  0  0  0  0  0  0  0  0  0  0
   25.6700  -31.5800   -8.9614 N   0  0  0  0  0  0  0  0  0  0  0  0
   24.8018  -32.5791   -9.1808 C   0  0  0  0  0  0  0  0  0  0  0  0
   25.0032  -33.5583   -8.2809 N   0  0  0  0  0  0  0  0  0  0  0  0
   28.6611  -35.2475   -5.7943 C   0  0  0  0  0  0  0  0  0  0  0  0
   28.4242  -36.3291   -5.1975 O   0  0  0  0  0  0  0  0  0  0  0  0
   34.9597  -33.9584   -7.8382 C   0  0  0  0  0  0  0  0  0  0  0  0
   34.2877  -33.7460   -6.1670 S   0  0  0  0  0  0  0  0  0  0  0  0
   32.6735  -34.5686   -6.0072 C   0  0  0  0  0  0  0  0  0  0  0  0
   32.1463  -34.4320   -4.5979 C   0  0  0  0  0  0  0  0  0  0  0  0
   30.7807  -35.0626   -4.4481 C   0  0  2  0  0  0  0  0  0  0  0  0
   29.8276  -34.5331   -5.3900 N   0  0  0  0  0  0  0  0  0  0  0  0
   30.2406  -34.8217   -3.0867 C   0  0  0  0  0  0  0  0  0  0  0  0
   29.5738  -33.7931   -2.8825 O   0  0  0  0  0  0  0  0  0  0  0  0
   30.4579  -35.7228   -2.0107 N   0  0  0  0  0  0  0  0  0  0  0  0
   30.0680  -35.3284   -0.6777 C   0  0  0  0  0  0  0  0  0  0  0  0
   28.6656  -35.7577   -0.4647 C   0  0  0  0  0  0  0  0  0  0  0  0
   28.1393  -35.5165    0.6542 O   0  0  0  0  0  0  0  0  0  0  0  0
   27.8992  -36.4060   -1.4163 O   0  0  0  0  0  0  0  0  0  0  0  0
  2  1  1  1
  2  3  1  0
  2  9  1  0
  4  5  2  0
  4  3  1  0
  6  5  1  0
  7  8  2  0
  7  6  1  0
  8  4  1  0
  9 16  1  0
 10  9  2  0
 12 11  1  0
 13 12  1  0
 14 13  1  0
 15 14  1  1
 15 17  1  0
 16 15  1  0
 17 19  1  0
 18 17  2  0
 19 20  1  0
 20 21  1  0
 21 22  2  0
 21 23  1  0
M  END
$$$$
