HMG.pdb
     RDKit          3D

 23 23  0  0  1  0  0  0  0  0999 V2000
   28.1052  -19.2783  -15.5893 N   0  0  0  0  0  0  0  0  0  0  0  0
   27.0667  -18.8546  -14.7023 C   0  0  1  0  0  0  0  0  0  0  0  0
   25.9168  -18.3458  -15.5416 C   0  0  0  0  0  0  0  0  0  0  0  0
   26.3304  -17.0117  -16.0665 C   0  0  0  0  0  0  0  0  0  0  0  0
   27.5125  -16.3428  -15.8300 C   0  0  0  0  0  0  0  0  0  0  0  0
   27.5182  -15.1621  -16.4778 N   0  0  0  0  0  0  0  0  0  0  0  0
   26.3455  -15.0782  -17.1244 C   0  0  0  0  0  0  0  0  0  0  0  0
   25.6185  -16.1845  -16.8867 N   0  0  0  0  0  0  0  0  0  0  0  0
   26.6449  -19.9186  -13.7566 C   0  0  0  0  0  0  0  0  0  0  0  0
   26.5079  -21.1027  -14.1582 O   0  0  0  0  0  0  0  0  0  0  0  0
   26.0732  -19.5472   -6.7471 C   0  0  0  0  0  0  0  0  0  0  0  0
   26.9111  -21.0208   -7.3919 S   0  0  0  0  0  0  0  0  0  0  0  0
   26.2788  -21.4578   -9.0403 C   0  0  0  0  0  0  0  0  0  0  0  0
   26.6345  -20.3872  -10.0453 C   0  0  0  0  0  0  0  0  0  0  0  0
   26.1320  -20.7301  -11.4290 C   0  0  2  0  0  0  0  0  0  0  0  0
   26.3770  -19.6733  -12.3772 N   0  0  0  0  0  0  0  0  0  0  0  0
   24.6683  -20.9765  -11.4071 C   0  0  0  0  0  0  0  0  0  0  0  0
   24.2597  -22.1217  -11.1510 O   0  0  0  0  0  0  0  0  0  0  0  0
   23.7196  -19.9522  -11.6678 N   0  0  0  0  0  0  0  0  0  0  0  0
   22.9025  -20.0408  -12.8548 C   0  0  0  0  0  0  0  0  0  0  0  0
   21.5877  -20.6027  -12.4650 C   0  0  0  0  0  0  0  0  0  0  0  0
   21.2544  -20.5347  -11.2521 O   0  0  0  0  0  0  0  0  0  0  0  0
   20.7046  -21.1967  -13.3486 O   0  0  0  0  0  0  0  0  0  0  0  0
  2  1  1  6
  2  3  1  0
  2  9  1  0
  4  5  2  0
  4  3  1  0
  6  5  1  0
  7  8  2  0
  7  6  1  0
  8  4  1  0
  9 16  1  0
 10  9  2  0
 12 11  1  0
 13 12  1  0
 14 13  1  0
 15 14  1  1
 15 17  1  0
 16 15  1  0
 17 19  1  0
 18 17  2  0
 19 20  1  0
 20 21  1  0
 21 22  2  0
 21 23  1  0
M  END
$$$$
