HMG.pdb
     RDKit          3D

 23 23  0  0  1  0  0  0  0  0999 V2000
   25.3239  -22.8051  -13.7591 N   0  0  0  0  0  0  0  0  0  0  0  0
   24.2335  -22.1008  -14.3590 C   0  0  1  0  0  0  0  0  0  0  0  0
   22.9488  -22.6695  -13.8005 C   0  0  0  0  0  0  0  0  0  0  0  0
   22.8201  -24.0506  -14.3503 C   0  0  0  0  0  0  0  0  0  0  0  0
   22.5067  -24.4175  -15.6417 C   0  0  0  0  0  0  0  0  0  0  0  0
   22.4836  -25.7595  -15.7530 N   0  0  0  0  0  0  0  0  0  0  0  0
   22.7808  -26.2463  -14.5385 C   0  0  0  0  0  0  0  0  0  0  0  0
   22.9862  -25.2295  -13.6822 N   0  0  0  0  0  0  0  0  0  0  0  0
   24.3244  -20.6304  -14.1749 C   0  0  0  0  0  0  0  0  0  0  0  0
   24.2338  -20.1310  -13.0240 O   0  0  0  0  0  0  0  0  0  0  0  0
   28.8876  -18.9754  -13.6709 C   0  0  0  0  0  0  0  0  0  0  0  0
   27.2040  -18.9993  -14.3449 S   0  0  0  0  0  0  0  0  0  0  0  0
   26.9459  -17.6151  -15.4960 C   0  0  0  0  0  0  0  0  0  0  0  0
   25.5354  -17.6317  -16.0371 C   0  0  0  0  0  0  0  0  0  0  0  0
   24.5750  -18.2923  -15.0747 C   0  0  2  0  0  0  0  0  0  0  0  0
   24.5141  -19.7202  -15.2567 N   0  0  0  0  0  0  0  0  0  0  0  0
   23.2012  -17.7618  -15.2611 C   0  0  0  0  0  0  0  0  0  0  0  0
   23.0541  -16.6829  -15.8597 O   0  0  0  0  0  0  0  0  0  0  0  0
   22.0507  -18.4419  -14.7806 N   0  0  0  0  0  0  0  0  0  0  0  0
   20.7656  -17.7892  -14.8652 C   0  0  0  0  0  0  0  0  0  0  0  0
   19.7489  -18.7034  -14.2935 C   0  0  0  0  0  0  0  0  0  0  0  0
   18.7738  -19.0290  -15.0216 O   0  0  0  0  0  0  0  0  0  0  0  0
   19.8034  -19.2210  -13.0119 O   0  0  0  0  0  0  0  0  0  0  0  0
  2  1  1  1
  2  3  1  0
  2  9  1  0
  4  5  2  0
  4  3  1  0
  6  5  1  0
  7  8  2  0
  7  6  1  0
  8  4  1  0
  9 16  1  0
 10  9  2  0
 12 11  1  0
 13 12  1  0
 14 13  1  0
 15 14  1  6
 15 17  1  0
 16 15  1  0
 17 19  1  0
 18 17  2  0
 19 20  1  0
 20 21  1  0
 21 22  2  0
 21 23  1  0
M  END
$$$$
