HMG.pdb
     RDKit          3D

 23 23  0  0  1  0  0  0  0  0999 V2000
   15.0244  -11.2419  -12.4165 N   0  0  0  0  0  0  0  0  0  0  0  0
   15.9528  -10.1664  -12.2546 C   0  0  1  0  0  0  0  0  0  0  0  0
   16.4290   -9.7521  -13.6284 C   0  0  0  0  0  0  0  0  0  0  0  0
   17.1221  -10.9366  -14.2140 C   0  0  0  0  0  0  0  0  0  0  0  0
   16.6583  -11.7824  -15.1991 C   0  0  0  0  0  0  0  0  0  0  0  0
   17.5704  -12.7379  -15.4612 N   0  0  0  0  0  0  0  0  0  0  0  0
   18.6110  -12.5029  -14.6474 C   0  0  0  0  0  0  0  0  0  0  0  0
   18.3565  -11.4212  -13.8896 N   0  0  0  0  0  0  0  0  0  0  0  0
   15.3890   -9.0271  -11.4876 C   0  0  0  0  0  0  0  0  0  0  0  0
   14.2299   -8.6083  -11.7390 O   0  0  0  0  0  0  0  0  0  0  0  0
   12.7417   -5.2987   -5.7657 C   0  0  0  0  0  0  0  0  0  0  0  0
   13.4032   -6.7138   -6.6873 S   0  0  0  0  0  0  0  0  0  0  0  0
   14.9829   -6.2894   -7.4825 C   0  0  0  0  0  0  0  0  0  0  0  0
   15.5353   -7.4790   -8.2322 C   0  0  0  0  0  0  0  0  0  0  0  0
   15.5587   -7.2379   -9.7243 C   0  0  2  0  0  0  0  0  0  0  0  0
   16.1031   -8.3569  -10.4506 N   0  0  0  0  0  0  0  0  0  0  0  0
   16.3895   -6.0513  -10.0487 C   0  0  0  0  0  0  0  0  0  0  0  0
   17.6218   -6.1295   -9.9097 O   0  0  0  0  0  0  0  0  0  0  0  0
   15.8276   -4.8318  -10.5115 N   0  0  0  0  0  0  0  0  0  0  0  0
   16.6908   -3.6895  -10.6974 C   0  0  0  0  0  0  0  0  0  0  0  0
   17.1545   -3.6899  -12.1049 C   0  0  0  0  0  0  0  0  0  0  0  0
   16.7842   -4.6384  -12.8468 O   0  0  0  0  0  0  0  0  0  0  0  0
   17.9676   -2.7153  -12.6546 O   0  0  0  0  0  0  0  0  0  0  0  0
  2  1  1  6
  2  3  1  0
  2  9  1  0
  4  5  2  0
  4  3  1  0
  6  5  1  0
  7  8  2  0
  7  6  1  0
  8  4  1  0
  9 16  1  0
 10  9  2  0
 12 11  1  0
 13 12  1  0
 14 13  1  0
 15 14  1  1
 15 17  1  0
 16 15  1  0
 17 19  1  0
 18 17  2  0
 19 20  1  0
 20 21  1  0
 21 22  2  0
 21 23  1  0
M  END
$$$$
