WEI.pdb
     RDKit          3D

 32 33  0  0  1  0  0  0  0  0999 V2000
   22.2655  -19.8630  -14.5181 N   0  0  0  0  0  0  0  0  0  0  0  0
   21.4075  -19.4557  -13.4376 C   0  0  1  0  0  0  0  0  0  0  0  0
   19.9289  -19.6255  -13.7501 C   0  0  0  0  0  0  0  0  0  0  0  0
   19.5841  -18.5295  -14.6915 C   0  0  0  0  0  0  0  0  0  0  0  0
   19.6078  -18.5876  -16.0662 C   0  0  0  0  0  0  0  0  0  0  0  0
   19.2671  -17.3730  -16.5417 N   0  0  0  0  0  0  0  0  0  0  0  0
   19.0236  -16.5322  -15.5084 C   0  0  0  0  0  0  0  0  0  0  0  0
   18.6442  -15.2127  -15.4265 C   0  0  0  0  0  0  0  0  0  0  0  0
   18.4484  -14.5671  -14.2385 C   0  0  0  0  0  0  0  0  0  0  0  0
   18.6391  -15.2682  -13.0711 C   0  0  0  0  0  0  0  0  0  0  0  0
   19.0225  -16.6020  -13.1286 C   0  0  0  0  0  0  0  0  0  0  0  0
   19.2221  -17.2578  -14.3275 C   0  0  0  0  0  0  0  0  0  0  0  0
   21.6770  -20.3628  -12.2733 C   0  0  0  0  0  0  0  0  0  0  0  0
   21.3550  -21.5723  -12.3378 O   0  0  0  0  0  0  0  0  0  0  0  0
   22.2954  -19.8766  -11.0885 N   0  0  0  0  0  0  0  0  0  0  0  0
   22.5487  -20.8096   -9.9660 C   0  0  1  0  0  0  0  0  0  0  0  0
   23.7244  -20.2552   -9.1695 C   0  0  0  0  0  0  0  0  0  0  0  0
   24.9158  -19.9751  -10.0322 C   0  0  0  0  0  0  0  0  0  0  0  0
   25.5349  -21.1745  -10.6358 C   0  0  0  0  0  0  0  0  0  0  0  0
   25.3762  -22.3014  -10.0538 O   0  0  0  0  0  0  0  0  0  0  0  0
   21.3404  -21.0242   -9.1784 C   0  0  0  0  0  0  0  0  0  0  0  0
   20.5667  -20.0806   -8.8790 O   0  0  0  0  0  0  0  0  0  0  0  0
   26.2791  -21.1968  -11.7821 O   0  0  0  0  0  0  0  0  0  0  0  0
   18.0060  -25.3128  -10.0248 C   0  0  0  0  0  0  0  0  0  0  0  0
   18.9920  -24.5858   -9.1752 C   0  0  0  0  0  0  0  0  0  0  0  0
   18.6578  -23.1843   -8.8266 C   0  0  2  0  0  0  0  0  0  0  0  0
   18.5255  -22.4019  -10.1210 C   0  0  0  0  0  0  0  0  0  0  0  0
   19.6664  -22.4843   -7.9469 C   0  0  2  0  0  0  0  0  0  0  0  0
   20.9165  -22.3089   -8.6766 N   0  0  0  0  0  0  0  0  0  0  0  0
   19.8486  -23.1166   -6.6474 C   0  0  0  0  0  0  0  0  0  0  0  0
   20.9998  -23.5677   -6.3407 O   0  0  0  0  0  0  0  0  0  0  0  0
   18.8832  -23.2906   -5.6715 O   0  0  0  0  0  0  0  0  0  0  0  0
  2  1  1  6
  3  2  1  0
  3  4  1  0
  4  5  2  0
  5  6  1  0
  7  6  1  0
  8  7  2  0
  9  8  1  0
 10 11  1  0
 10  9  2  0
 11 12  2  0
 12  4  1  0
 12  7  1  0
 13 14  2  0
 13  2  1  0
 15 13  1  0
 16 15  1  0
 16 17  1  1
 18 17  1  0
 19 23  1  0
 19 18  1  0
 20 19  2  0
 21 29  1  0
 21 16  1  0
 22 21  2  0
 25 24  1  0
 26 25  1  0
 26 27  1  6
 28 26  1  0
 28 30  1  0
 28 29  1  6
 30 32  1  0
 31 30  2  0
M  END
$$$$
