WEI.pdb
     RDKit          3D

 32 33  0  0  1  0  0  0  0  0999 V2000
   26.9648  -21.3348  -15.6457 N   0  0  0  0  0  0  0  0  0  0  0  0
   26.3372  -21.4534  -14.3568 C   0  0  1  0  0  0  0  0  0  0  0  0
   26.3797  -20.1655  -13.5491 C   0  0  0  0  0  0  0  0  0  0  0  0
   27.7980  -19.9849  -13.1467 C   0  0  0  0  0  0  0  0  0  0  0  0
   28.7290  -19.1738  -13.7543 C   0  0  0  0  0  0  0  0  0  0  0  0
   29.9024  -19.3278  -13.1088 N   0  0  0  0  0  0  0  0  0  0  0  0
   29.7522  -20.2178  -12.0991 C   0  0  0  0  0  0  0  0  0  0  0  0
   30.6040  -20.7256  -11.1459 C   0  0  0  0  0  0  0  0  0  0  0  0
   30.2097  -21.6317  -10.2026 C   0  0  0  0  0  0  0  0  0  0  0  0
   28.9016  -22.0555  -10.2057 C   0  0  0  0  0  0  0  0  0  0  0  0
   28.0228  -21.5569  -11.1589 C   0  0  0  0  0  0  0  0  0  0  0  0
   28.4179  -20.6414  -12.1144 C   0  0  0  0  0  0  0  0  0  0  0  0
   24.8810  -21.7365  -14.5818 C   0  0  0  0  0  0  0  0  0  0  0  0
   24.2263  -21.0327  -15.3859 O   0  0  0  0  0  0  0  0  0  0  0  0
   24.2222  -22.7950  -13.8977 N   0  0  0  0  0  0  0  0  0  0  0  0
   22.7765  -23.0209  -14.1296 C   0  0  1  0  0  0  0  0  0  0  0  0
   22.5235  -24.5188  -14.0019 C   0  0  0  0  0  0  0  0  0  0  0  0
   21.0868  -24.8754  -14.2274 C   0  0  0  0  0  0  0  0  0  0  0  0
   20.7327  -25.1431  -15.6378 C   0  0  0  0  0  0  0  0  0  0  0  0
   19.4965  -25.1694  -15.9619 O   0  0  0  0  0  0  0  0  0  0  0  0
   21.9668  -22.1989  -13.2380 C   0  0  0  0  0  0  0  0  0  0  0  0
   22.3194  -21.9547  -12.0570 O   0  0  0  0  0  0  0  0  0  0  0  0
   21.6188  -25.3718  -16.6531 O   0  0  0  0  0  0  0  0  0  0  0  0
   20.5356  -17.3064  -14.2204 C   0  0  0  0  0  0  0  0  0  0  0  0
   20.8007  -18.6521  -13.6364 C   0  0  0  0  0  0  0  0  0  0  0  0
   19.6128  -19.4570  -13.2642 C   0  0  2  0  0  0  0  0  0  0  0  0
   18.8083  -18.6590  -12.2536 C   0  0  0  0  0  0  0  0  0  0  0  0
   19.9166  -20.8117  -12.6696 C   0  0  2  0  0  0  0  0  0  0  0  0
   20.7108  -21.5937  -13.6097 N   0  0  0  0  0  0  0  0  0  0  0  0
   18.7364  -21.5201  -12.1932 C   0  0  0  0  0  0  0  0  0  0  0  0
   18.1209  -22.2954  -12.9950 O   0  0  0  0  0  0  0  0  0  0  0  0
   18.1856  -21.4474  -10.9259 O   0  0  0  0  0  0  0  0  0  0  0  0
  2  1  1  6
  3  2  1  0
  3  4  1  0
  4  5  2  0
  5  6  1  0
  7  6  1  0
  8  7  2  0
  9  8  1  0
 10 11  1  0
 10  9  2  0
 11 12  2  0
 12  4  1  0
 12  7  1  0
 13 14  2  0
 13  2  1  0
 15 13  1  0
 16 15  1  0
 16 17  1  1
 18 17  1  0
 19 23  1  0
 19 18  1  0
 20 19  2  0
 21 29  1  0
 21 16  1  0
 22 21  2  0
 25 24  1  0
 26 25  1  0
 26 27  1  1
 28 26  1  0
 28 30  1  0
 28 29  1  6
 30 32  1  0
 31 30  2  0
M  END
$$$$
