WEI.pdb
     RDKit          3D

 32 33  0  0  1  0  0  0  0  0999 V2000
   28.6102  -21.8251  -10.7125 N   0  0  0  0  0  0  0  0  0  0  0  0
   27.3343  -21.3845  -10.2151 C   0  0  1  0  0  0  0  0  0  0  0  0
   27.3954  -20.0307   -9.5250 C   0  0  0  0  0  0  0  0  0  0  0  0
   28.3265  -20.1999   -8.3801 C   0  0  0  0  0  0  0  0  0  0  0  0
   29.6355  -20.6206   -8.4391 C   0  0  0  0  0  0  0  0  0  0  0  0
   30.1133  -20.6777   -7.1799 N   0  0  0  0  0  0  0  0  0  0  0  0
   29.1457  -20.3039   -6.3092 C   0  0  0  0  0  0  0  0  0  0  0  0
   29.0963  -20.1788   -4.9403 C   0  0  0  0  0  0  0  0  0  0  0  0
   27.9793  -19.7660   -4.2707 C   0  0  0  0  0  0  0  0  0  0  0  0
   26.8529  -19.4613   -4.9982 C   0  0  0  0  0  0  0  0  0  0  0  0
   26.8788  -19.5801   -6.3818 C   0  0  0  0  0  0  0  0  0  0  0  0
   28.0057  -19.9978   -7.0621 C   0  0  0  0  0  0  0  0  0  0  0  0
   26.4260  -21.1921  -11.3937 C   0  0  0  0  0  0  0  0  0  0  0  0
   26.7275  -20.3633  -12.2841 O   0  0  0  0  0  0  0  0  0  0  0  0
   25.2210  -21.9360  -11.5242 N   0  0  0  0  0  0  0  0  0  0  0  0
   24.4339  -21.8301  -12.7748 C   0  0  1  0  0  0  0  0  0  0  0  0
   24.2816  -23.2387  -13.3376 C   0  0  0  0  0  0  0  0  0  0  0  0
   25.4770  -23.6679  -14.1307 C   0  0  0  0  0  0  0  0  0  0  0  0
   25.9022  -22.7082  -15.1721 C   0  0  0  0  0  0  0  0  0  0  0  0
   27.0795  -22.2151  -15.1031 O   0  0  0  0  0  0  0  0  0  0  0  0
   23.1713  -21.1382  -12.5437 C   0  0  0  0  0  0  0  0  0  0  0  0
   22.6118  -21.1356  -11.4188 O   0  0  0  0  0  0  0  0  0  0  0  0
   25.1413  -22.2858  -16.2260 O   0  0  0  0  0  0  0  0  0  0  0  0
   21.8881  -16.7417  -15.7029 C   0  0  0  0  0  0  0  0  0  0  0  0
   22.0652  -17.6993  -14.5742 C   0  0  0  0  0  0  0  0  0  0  0  0
   20.9586  -18.6576  -14.3406 C   0  0  2  0  0  0  0  0  0  0  0  0
   19.7255  -17.8596  -13.9561 C   0  0  0  0  0  0  0  0  0  0  0  0
   21.2166  -19.6853  -13.2642 C   0  0  2  0  0  0  0  0  0  0  0  0
   22.4531  -20.4013  -13.5552 N   0  0  0  0  0  0  0  0  0  0  0  0
   20.0880  -20.5728  -13.0193 C   0  0  0  0  0  0  0  0  0  0  0  0
   19.9478  -21.6041  -13.7539 O   0  0  0  0  0  0  0  0  0  0  0  0
   19.1151  -20.4220  -12.0469 O   0  0  0  0  0  0  0  0  0  0  0  0
  2  1  1  6
  3  2  1  0
  3  4  1  0
  4  5  2  0
  5  6  1  0
  7  6  1  0
  8  7  2  0
  9  8  1  0
 10 11  1  0
 10  9  2  0
 11 12  2  0
 12  4  1  0
 12  7  1  0
 13 14  2  0
 13  2  1  0
 15 13  1  0
 16 15  1  0
 16 17  1  1
 18 17  1  0
 19 23  1  0
 19 18  1  0
 20 19  2  0
 21 29  1  0
 21 16  1  0
 22 21  2  0
 25 24  1  0
 26 25  1  0
 26 27  1  1
 28 26  1  0
 28 30  1  0
 28 29  1  6
 30 32  1  0
 31 30  2  0
M  END
$$$$
