WEI.pdb
     RDKit          3D

 32 33  0  0  1  0  0  0  0  0999 V2000
   33.6666  -25.1590    4.4879 N   0  0  0  0  0  0  0  0  0  0  0  0
   34.8662  -24.3810    4.6467 C   0  0  1  0  0  0  0  0  0  0  0  0
   34.7627  -23.3390    5.7495 C   0  0  0  0  0  0  0  0  0  0  0  0
   33.6489  -22.4390    5.3551 C   0  0  0  0  0  0  0  0  0  0  0  0
   33.3823  -21.9648    4.0909 C   0  0  0  0  0  0  0  0  0  0  0  0
   32.3122  -21.1486    4.1678 N   0  0  0  0  0  0  0  0  0  0  0  0
   31.8808  -21.0843    5.4499 C   0  0  0  0  0  0  0  0  0  0  0  0
   30.8493  -20.4211    6.0729 C   0  0  0  0  0  0  0  0  0  0  0  0
   30.6025  -20.5206    7.4129 C   0  0  0  0  0  0  0  0  0  0  0  0
   31.4222  -21.3204    8.1738 C   0  0  0  0  0  0  0  0  0  0  0  0
   32.4706  -22.0000    7.5669 C   0  0  0  0  0  0  0  0  0  0  0  0
   32.7238  -21.9013    6.2128 C   0  0  0  0  0  0  0  0  0  0  0  0
   35.9610  -25.3120    5.0775 C   0  0  0  0  0  0  0  0  0  0  0  0
   35.7216  -26.2077    5.9208 O   0  0  0  0  0  0  0  0  0  0  0  0
   37.2750  -25.2001    4.5452 N   0  0  0  0  0  0  0  0  0  0  0  0
   38.3314  -26.1250    5.0180 C   0  0  1  0  0  0  0  0  0  0  0  0
   39.5001  -26.0168    4.0452 C   0  0  0  0  0  0  0  0  0  0  0  0
   40.6537  -26.8854    4.4412 C   0  0  0  0  0  0  0  0  0  0  0  0
   40.4858  -28.3181    4.1165 C   0  0  0  0  0  0  0  0  0  0  0  0
   39.4640  -28.6737    3.4359 O   0  0  0  0  0  0  0  0  0  0  0  0
   38.6823  -25.8552    6.4074 C   0  0  0  0  0  0  0  0  0  0  0  0
   38.7042  -24.6881    6.8721 O   0  0  0  0  0  0  0  0  0  0  0  0
   41.3361  -29.3238    4.4823 O   0  0  0  0  0  0  0  0  0  0  0  0
   37.8089  -27.6863   12.1021 C   0  0  0  0  0  0  0  0  0  0  0  0
   38.7775  -27.0986   11.1331 C   0  0  0  0  0  0  0  0  0  0  0  0
   38.4533  -27.2578    9.6954 C   0  0  2  0  0  0  0  0  0  0  0  0
   38.4727  -28.7419    9.3757 C   0  0  0  0  0  0  0  0  0  0  0  0
   39.3912  -26.5526    8.7445 C   0  0  2  0  0  0  0  0  0  0  0  0
   39.0289  -26.8736    7.3691 N   0  0  0  0  0  0  0  0  0  0  0  0
   40.8001  -26.7848    9.0319 C   0  0  0  0  0  0  0  0  0  0  0  0
   41.4535  -27.5878    8.2895 O   0  0  0  0  0  0  0  0  0  0  0  0
   41.5391  -26.2145   10.0535 O   0  0  0  0  0  0  0  0  0  0  0  0
  2  1  1  1
  3  2  1  0
  3  4  1  0
  4  5  2  0
  5  6  1  0
  7  6  1  0
  8  7  2  0
  9  8  1  0
 10 11  1  0
 10  9  2  0
 11 12  2  0
 12  4  1  0
 12  7  1  0
 13 14  2  0
 13  2  1  0
 15 13  1  0
 16 15  1  0
 16 17  1  6
 18 17  1  0
 19 23  1  0
 19 18  1  0
 20 19  2  0
 21 29  1  0
 21 16  1  0
 22 21  2  0
 25 24  1  0
 26 25  1  0
 26 27  1  6
 28 26  1  0
 28 30  1  0
 28 29  1  6
 30 32  1  0
 31 30  2  0
M  END
$$$$
