WEI.pdb
     RDKit          3D

 32 33  0  0  1  0  0  0  0  0999 V2000
   35.7909  -23.1246  -19.7086 N   0  0  0  0  0  0  0  0  0  0  0  0
   34.4686  -23.3308  -20.2362 C   0  0  1  0  0  0  0  0  0  0  0  0
   33.8547  -24.6563  -19.8129 C   0  0  0  0  0  0  0  0  0  0  0  0
   34.5389  -25.6975  -20.6215 C   0  0  0  0  0  0  0  0  0  0  0  0
   35.6932  -26.3699  -20.2907 C   0  0  0  0  0  0  0  0  0  0  0  0
   36.0008  -27.1981  -21.3089 N   0  0  0  0  0  0  0  0  0  0  0  0
   35.0738  -27.0777  -22.2887 C   0  0  0  0  0  0  0  0  0  0  0  0
   34.9041  -27.6777  -23.5148 C   0  0  0  0  0  0  0  0  0  0  0  0
   33.8586  -27.3897  -24.3457 C   0  0  0  0  0  0  0  0  0  0  0  0
   32.9334  -26.4577  -23.9380 C   0  0  0  0  0  0  0  0  0  0  0  0
   33.0839  -25.8383  -22.7039 C   0  0  0  0  0  0  0  0  0  0  0  0
   34.1398  -26.1263  -21.8615 C   0  0  0  0  0  0  0  0  0  0  0  0
   33.5754  -22.2734  -19.6572 C   0  0  0  0  0  0  0  0  0  0  0  0
   33.5004  -22.1331  -18.4141 O   0  0  0  0  0  0  0  0  0  0  0  0
   32.8064  -21.4192  -20.4947 N   0  0  0  0  0  0  0  0  0  0  0  0
   31.9574  -20.3720  -19.8805 C   0  0  1  0  0  0  0  0  0  0  0  0
   31.9282  -19.1883  -20.8407 C   0  0  0  0  0  0  0  0  0  0  0  0
   33.0811  -18.2560  -20.6315 C   0  0  0  0  0  0  0  0  0  0  0  0
   32.7173  -16.9488  -20.0440 C   0  0  0  0  0  0  0  0  0  0  0  0
   31.8957  -16.2025  -20.6779 O   0  0  0  0  0  0  0  0  0  0  0  0
   30.6410  -20.8972  -19.5377 C   0  0  0  0  0  0  0  0  0  0  0  0
   30.1146  -21.8403  -20.1797 O   0  0  0  0  0  0  0  0  0  0  0  0
   33.1856  -16.4476  -18.8617 O   0  0  0  0  0  0  0  0  0  0  0  0
   26.8848  -22.4581  -15.0426 C   0  0  0  0  0  0  0  0  0  0  0  0
   27.0162  -21.9047  -16.4207 C   0  0  0  0  0  0  0  0  0  0  0  0
   28.3314  -21.3204  -16.7758 C   0  0  2  0  0  0  0  0  0  0  0  0
   28.5592  -20.1119  -15.8856 C   0  0  0  0  0  0  0  0  0  0  0  0
   28.4725  -20.8860  -18.2155 C   0  0  2  0  0  0  0  0  0  0  0  0
   29.8281  -20.4040  -18.4524 N   0  0  0  0  0  0  0  0  0  0  0  0
   27.4490  -19.9431  -18.6455 C   0  0  0  0  0  0  0  0  0  0  0  0
   26.2664  -20.3713  -18.8480 O   0  0  0  0  0  0  0  0  0  0  0  0
   27.6164  -18.5875  -18.8676 O   0  0  0  0  0  0  0  0  0  0  0  0
  2  1  1  1
  3  2  1  0
  3  4  1  0
  4  5  2  0
  5  6  1  0
  7  6  1  0
  8  7  2  0
  9  8  1  0
 10 11  1  0
 10  9  2  0
 11 12  2  0
 12  4  1  0
 12  7  1  0
 13 14  2  0
 13  2  1  0
 15 13  1  0
 16 15  1  0
 16 17  1  6
 18 17  1  0
 19 23  1  0
 19 18  1  0
 20 19  2  0
 21 29  1  0
 21 16  1  0
 22 21  2  0
 25 24  1  0
 26 25  1  0
 26 27  1  1
 28 26  1  0
 28 30  1  0
 28 29  1  1
 30 32  1  0
 31 30  2  0
M  END
$$$$
