WEI.pdb
     RDKit          3D

 32 33  0  0  1  0  0  0  0  0999 V2000
   29.2206  -18.5182  -14.7638 N   0  0  0  0  0  0  0  0  0  0  0  0
   28.7349  -19.7843  -14.2838 C   0  0  1  0  0  0  0  0  0  0  0  0
   28.5040  -19.8066  -12.7808 C   0  0  0  0  0  0  0  0  0  0  0  0
   29.8398  -20.0207  -12.1676 C   0  0  0  0  0  0  0  0  0  0  0  0
   30.7126  -19.0482  -11.7358 C   0  0  0  0  0  0  0  0  0  0  0  0
   31.8263  -19.6576  -11.2825 N   0  0  0  0  0  0  0  0  0  0  0  0
   31.6944  -20.9993  -11.4104 C   0  0  0  0  0  0  0  0  0  0  0  0
   32.5065  -22.0670  -11.1063 C   0  0  0  0  0  0  0  0  0  0  0  0
   32.1424  -23.3652  -11.3262 C   0  0  0  0  0  0  0  0  0  0  0  0
   30.9076  -23.6165  -11.8764 C   0  0  0  0  0  0  0  0  0  0  0  0
   30.0699  -22.5544  -12.1920 C   0  0  0  0  0  0  0  0  0  0  0  0
   30.4348  -21.2407  -11.9720 C   0  0  0  0  0  0  0  0  0  0  0  0
   27.3869  -20.0197  -14.8991 C   0  0  0  0  0  0  0  0  0  0  0  0
   26.5526  -19.0858  -14.9484 O   0  0  0  0  0  0  0  0  0  0  0  0
   27.0323  -21.2894  -15.4326 N   0  0  0  0  0  0  0  0  0  0  0  0
   25.6168  -21.5649  -15.7720 C   0  0  1  0  0  0  0  0  0  0  0  0
   25.6024  -22.7347  -16.7495 C   0  0  0  0  0  0  0  0  0  0  0  0
   24.2157  -23.1005  -17.1802 C   0  0  0  0  0  0  0  0  0  0  0  0
   23.5364  -22.0772  -18.0034 C   0  0  0  0  0  0  0  0  0  0  0  0
   24.2060  -21.4873  -18.9185 O   0  0  0  0  0  0  0  0  0  0  0  0
   24.8206  -21.7800  -14.5695 C   0  0  0  0  0  0  0  0  0  0  0  0
   24.9153  -22.8324  -13.8899 O   0  0  0  0  0  0  0  0  0  0  0  0
   22.2315  -21.6901  -17.8780 O   0  0  0  0  0  0  0  0  0  0  0  0
   25.4472  -19.9674  -10.0689 C   0  0  0  0  0  0  0  0  0  0  0  0
   24.8636  -20.7843  -11.1710 C   0  0  0  0  0  0  0  0  0  0  0  0
   23.5451  -20.3486  -11.6899 C   0  0  2  0  0  0  0  0  0  0  0  0
   22.5343  -20.4855  -10.5653 C   0  0  0  0  0  0  0  0  0  0  0  0
   23.0382  -21.1224  -12.8838 C   0  0  2  0  0  0  0  0  0  0  0  0
   23.8682  -20.8305  -14.0465 N   0  0  0  0  0  0  0  0  0  0  0  0
   21.6157  -20.9404  -13.1386 C   0  0  0  0  0  0  0  0  0  0  0  0
   21.2480  -20.0133  -13.9312 O   0  0  0  0  0  0  0  0  0  0  0  0
   20.5792  -21.6836  -12.6017 O   0  0  0  0  0  0  0  0  0  0  0  0
  2  1  1  6
  3  2  1  0
  3  4  1  0
  4  5  2  0
  5  6  1  0
  7  6  1  0
  8  7  2  0
  9  8  1  0
 10 11  1  0
 10  9  2  0
 11 12  2  0
 12  4  1  0
 12  7  1  0
 13 14  2  0
 13  2  1  0
 15 13  1  0
 16 15  1  0
 16 17  1  6
 18 17  1  0
 19 23  1  0
 19 18  1  0
 20 19  2  0
 21 29  1  0
 21 16  1  0
 22 21  2  0
 25 24  1  0
 26 25  1  0
 26 27  1  1
 28 26  1  0
 28 30  1  0
 28 29  1  6
 30 32  1  0
 31 30  2  0
M  END
$$$$
