WEI.pdb
     RDKit          3D

 32 33  0  0  1  0  0  0  0  0999 V2000
   28.1224  -22.3579  -13.4436 N   0  0  0  0  0  0  0  0  0  0  0  0
   27.0033  -21.7561  -12.7691 C   0  0  1  0  0  0  0  0  0  0  0  0
   27.2724  -20.3288  -12.3185 C   0  0  0  0  0  0  0  0  0  0  0  0
   28.1565  -20.4377  -11.1300 C   0  0  0  0  0  0  0  0  0  0  0  0
   29.5269  -20.5633  -11.1324 C   0  0  0  0  0  0  0  0  0  0  0  0
   29.9389  -20.6728   -9.8535 N   0  0  0  0  0  0  0  0  0  0  0  0
   28.8687  -20.6206   -9.0252 C   0  0  0  0  0  0  0  0  0  0  0  0
   28.7214  -20.6777   -7.6589 C   0  0  0  0  0  0  0  0  0  0  0  0
   27.5077  -20.5944   -7.0372 C   0  0  0  0  0  0  0  0  0  0  0  0
   26.3818  -20.4464   -7.8126 C   0  0  0  0  0  0  0  0  0  0  0  0
   26.5056  -20.3863   -9.1947 C   0  0  0  0  0  0  0  0  0  0  0  0
   27.7306  -20.4710   -9.8268 C   0  0  0  0  0  0  0  0  0  0  0  0
   25.8749  -21.6590  -13.7531 C   0  0  0  0  0  0  0  0  0  0  0  0
   26.0861  -21.2006  -14.9003 O   0  0  0  0  0  0  0  0  0  0  0  0
   24.5604  -22.0797  -13.4103 N   0  0  0  0  0  0  0  0  0  0  0  0
   23.4892  -22.0204  -14.4321 C   0  0  1  0  0  0  0  0  0  0  0  0
   23.1085  -23.4559  -14.7764 C   0  0  0  0  0  0  0  0  0  0  0  0
   22.1304  -23.5305  -15.9076 C   0  0  0  0  0  0  0  0  0  0  0  0
   22.7436  -23.5317  -17.2531 C   0  0  0  0  0  0  0  0  0  0  0  0
   23.9588  -23.9107  -17.3692 O   0  0  0  0  0  0  0  0  0  0  0  0
   22.3742  -21.1982  -13.9771 C   0  0  0  0  0  0  0  0  0  0  0  0
   22.1098  -21.0542  -12.7573 O   0  0  0  0  0  0  0  0  0  0  0  0
   22.1240  -23.1574  -18.4124 O   0  0  0  0  0  0  0  0  0  0  0  0
   18.6461  -18.5818  -17.0499 C   0  0  0  0  0  0  0  0  0  0  0  0
   20.0755  -18.5800  -16.6264 C   0  0  0  0  0  0  0  0  0  0  0  0
   20.3370  -18.3665  -15.1830 C   0  0  2  0  0  0  0  0  0  0  0  0
   21.6548  -17.6236  -15.0538 C   0  0  0  0  0  0  0  0  0  0  0  0
   20.4155  -19.6255  -14.3523 C   0  0  2  0  0  0  0  0  0  0  0  0
   21.4834  -20.4807  -14.8566 N   0  0  0  0  0  0  0  0  0  0  0  0
   19.1424  -20.3207  -14.2210 C   0  0  0  0  0  0  0  0  0  0  0  0
   18.1868  -19.7409  -13.6098 O   0  0  0  0  0  0  0  0  0  0  0  0
   18.8378  -21.5828  -14.7000 O   0  0  0  0  0  0  0  0  0  0  0  0
  2  1  1  6
  3  2  1  0
  3  4  1  0
  4  5  2  0
  5  6  1  0
  7  6  1  0
  8  7  2  0
  9  8  1  0
 10 11  1  0
 10  9  2  0
 11 12  2  0
 12  4  1  0
 12  7  1  0
 13 14  2  0
 13  2  1  0
 15 13  1  0
 16 15  1  0
 16 17  1  1
 18 17  1  0
 19 23  1  0
 19 18  1  0
 20 19  2  0
 21 29  1  0
 21 16  1  0
 22 21  2  0
 25 24  1  0
 26 25  1  0
 26 27  1  6
 28 26  1  0
 28 30  1  0
 28 29  1  6
 30 32  1  0
 31 30  2  0
M  END
$$$$
