WEI.pdb
     RDKit          3D

 32 33  0  0  1  0  0  0  0  0999 V2000
   24.2599  -19.7011  -10.0509 N   0  0  0  0  0  0  0  0  0  0  0  0
   25.6539  -19.8876  -10.3531 C   0  0  1  0  0  0  0  0  0  0  0  0
   26.2371  -21.1492   -9.7359 C   0  0  0  0  0  0  0  0  0  0  0  0
   26.3660  -20.8687   -8.2830 C   0  0  0  0  0  0  0  0  0  0  0  0
   25.3449  -20.8114   -7.3622 C   0  0  0  0  0  0  0  0  0  0  0  0
   25.8781  -20.4912   -6.1661 N   0  0  0  0  0  0  0  0  0  0  0  0
   27.2182  -20.3409   -6.2916 C   0  0  0  0  0  0  0  0  0  0  0  0
   28.2259  -20.0295   -5.4087 C   0  0  0  0  0  0  0  0  0  0  0  0
   29.5380  -19.9404   -5.7785 C   0  0  0  0  0  0  0  0  0  0  0  0
   29.8667  -20.1727   -7.0933 C   0  0  0  0  0  0  0  0  0  0  0  0
   28.8661  -20.4886   -8.0035 C   0  0  0  0  0  0  0  0  0  0  0  0
   27.5386  -20.5789   -7.6335 C   0  0  0  0  0  0  0  0  0  0  0  0
   25.7791  -20.0733  -11.8366 C   0  0  0  0  0  0  0  0  0  0  0  0
   24.7877  -20.4517  -12.5033 O   0  0  0  0  0  0  0  0  0  0  0  0
   27.0080  -19.8266  -12.5087 N   0  0  0  0  0  0  0  0  0  0  0  0
   27.0098  -19.6588  -13.9806 C   0  0  1  0  0  0  0  0  0  0  0  0
   28.2835  -18.9076  -14.3516 C   0  0  0  0  0  0  0  0  0  0  0  0
   28.3766  -18.6343  -15.8209 C   0  0  0  0  0  0  0  0  0  0  0  0
   28.7337  -19.8092  -16.6446 C   0  0  0  0  0  0  0  0  0  0  0  0
   28.1343  -19.9764  -17.7611 O   0  0  0  0  0  0  0  0  0  0  0  0
   26.8534  -20.9417  -14.6558 C   0  0  0  0  0  0  0  0  0  0  0  0
   27.5836  -21.9278  -14.3852 O   0  0  0  0  0  0  0  0  0  0  0  0
   29.6634  -20.7574  -16.3208 O   0  0  0  0  0  0  0  0  0  0  0  0
   25.4335  -25.9248  -15.2168 C   0  0  0  0  0  0  0  0  0  0  0  0
   24.6235  -24.7734  -15.7077 C   0  0  0  0  0  0  0  0  0  0  0  0
   25.0150  -23.4316  -15.2140 C   0  0  2  0  0  0  0  0  0  0  0  0
   23.7630  -22.7397  -14.7051 C   0  0  0  0  0  0  0  0  0  0  0  0
   25.6711  -22.5373  -16.2391 C   0  0  2  0  0  0  0  0  0  0  0  0
   25.8680  -21.2069  -15.6759 N   0  0  0  0  0  0  0  0  0  0  0  0
   24.9843  -22.5167  -17.5235 C   0  0  0  0  0  0  0  0  0  0  0  0
   25.5522  -23.0498  -18.5316 O   0  0  0  0  0  0  0  0  0  0  0  0
   23.7422  -21.9665  -17.7866 O   0  0  0  0  0  0  0  0  0  0  0  0
  2  1  1  6
  3  2  1  0
  3  4  1  0
  4  5  2  0
  5  6  1  0
  7  6  1  0
  8  7  2  0
  9  8  1  0
 10 11  1  0
 10  9  2  0
 11 12  2  0
 12  4  1  0
 12  7  1  0
 13 14  2  0
 13  2  1  0
 15 13  1  0
 16 15  1  0
 16 17  1  6
 18 17  1  0
 19 23  1  0
 19 18  1  0
 20 19  2  0
 21 29  1  0
 21 16  1  0
 22 21  2  0
 25 24  1  0
 26 25  1  0
 26 27  1  6
 28 26  1  0
 28 30  1  0
 28 29  1  1
 30 32  1  0
 31 30  2  0
M  END
$$$$
