WEI.pdb
     RDKit          3D

 32 33  0  0  1  0  0  0  0  0999 V2000
   26.8585  -19.4694  -10.8964 N   0  0  0  0  0  0  0  0  0  0  0  0
   26.2590  -20.7736  -10.9915 C   0  0  1  0  0  0  0  0  0  0  0  0
   26.1222  -21.4695   -9.6462 C   0  0  0  0  0  0  0  0  0  0  0  0
   27.2871  -21.0256   -8.8388 C   0  0  0  0  0  0  0  0  0  0  0  0
   27.2793  -20.0939   -7.8260 C   0  0  0  0  0  0  0  0  0  0  0  0
   28.5435  -19.9501   -7.3805 N   0  0  0  0  0  0  0  0  0  0  0  0
   29.3674  -20.7660   -8.0801 C   0  0  0  0  0  0  0  0  0  0  0  0
   30.7192  -21.0164   -8.0350 C   0  0  0  0  0  0  0  0  0  0  0  0
   31.3378  -21.9128   -8.8597 C   0  0  0  0  0  0  0  0  0  0  0  0
   30.5746  -22.5964   -9.7766 C   0  0  0  0  0  0  0  0  0  0  0  0
   29.2073  -22.3603   -9.8410 C   0  0  0  0  0  0  0  0  0  0  0  0
   28.5785  -21.4543   -9.0096 C   0  0  0  0  0  0  0  0  0  0  0  0
   24.8566  -20.5963  -11.4946 C   0  0  0  0  0  0  0  0  0  0  0  0
   24.1275  -19.7018  -11.0058 O   0  0  0  0  0  0  0  0  0  0  0  0
   24.3324  -21.4273  -12.5228 N   0  0  0  0  0  0  0  0  0  0  0  0
   22.9581  -21.1868  -13.0211 C   0  0  1  0  0  0  0  0  0  0  0  0
   23.0411  -21.0484  -14.5370 C   0  0  0  0  0  0  0  0  0  0  0  0
   21.6946  -20.8718  -15.1678 C   0  0  0  0  0  0  0  0  0  0  0  0
   21.7200  -20.7012  -16.6363 C   0  0  0  0  0  0  0  0  0  0  0  0
   22.8535  -20.6470  -17.2246 O   0  0  0  0  0  0  0  0  0  0  0  0
   22.0442  -22.2271  -12.5642 C   0  0  0  0  0  0  0  0  0  0  0  0
   22.3417  -23.4463  -12.6261 O   0  0  0  0  0  0  0  0  0  0  0  0
   20.6240  -20.5921  -17.4457 O   0  0  0  0  0  0  0  0  0  0  0  0
   17.8546  -23.4727   -8.2716 C   0  0  0  0  0  0  0  0  0  0  0  0
   18.4182  -23.7628   -9.6209 C   0  0  0  0  0  0  0  0  0  0  0  0
   19.2432  -22.6958  -10.2360 C   0  0  2  0  0  0  0  0  0  0  0  0
   18.3614  -21.4736  -10.4199 C   0  0  0  0  0  0  0  0  0  0  0  0
   19.8553  -23.0477  -11.5712 C   0  0  2  0  0  0  0  0  0  0  0  0
   20.7386  -21.9719  -12.0053 N   0  0  0  0  0  0  0  0  0  0  0  0
   18.8773  -23.4255  -12.5824 C   0  0  0  0  0  0  0  0  0  0  0  0
   18.5047  -22.5524  -13.4319 O   0  0  0  0  0  0  0  0  0  0  0  0
   18.2842  -24.6664  -12.7342 O   0  0  0  0  0  0  0  0  0  0  0  0
  2  1  1  1
  3  2  1  0
  3  4  1  0
  4  5  2  0
  5  6  1  0
  7  6  1  0
  8  7  2  0
  9  8  1  0
 10 11  1  0
 10  9  2  0
 11 12  2  0
 12  4  1  0
 12  7  1  0
 13 14  2  0
 13  2  1  0
 15 13  1  0
 16 15  1  0
 16 17  1  6
 18 17  1  0
 19 23  1  0
 19 18  1  0
 20 19  2  0
 21 29  1  0
 21 16  1  0
 22 21  2  0
 25 24  1  0
 26 25  1  0
 26 27  1  6
 28 26  1  0
 28 30  1  0
 28 29  1  6
 30 32  1  0
 31 30  2  0
M  END
$$$$
