WEI.pdb
     RDKit          3D

 32 33  0  0  1  0  0  0  0  0999 V2000
   26.9459  -22.6978  -12.7228 N   0  0  0  0  0  0  0  0  0  0  0  0
   26.0610  -21.7796  -12.0570 C   0  0  1  0  0  0  0  0  0  0  0  0
   26.7311  -20.4666  -11.6830 C   0  0  0  0  0  0  0  0  0  0  0  0
   27.7948  -20.8167  -10.7073 C   0  0  0  0  0  0  0  0  0  0  0  0
   28.9912  -21.4388  -10.9820 C   0  0  0  0  0  0  0  0  0  0  0  0
   29.6504  -21.6095   -9.8185 N   0  0  0  0  0  0  0  0  0  0  0  0
   28.9097  -21.1129   -8.7994 C   0  0  0  0  0  0  0  0  0  0  0  0
   29.1028  -21.0231   -7.4405 C   0  0  0  0  0  0  0  0  0  0  0  0
   28.1905  -20.4581   -6.5950 C   0  0  0  0  0  0  0  0  0  0  0  0
   27.0260  -19.9558   -7.1264 C   0  0  0  0  0  0  0  0  0  0  0  0
   26.8086  -20.0351   -8.4960 C   0  0  0  0  0  0  0  0  0  0  0  0
   27.7280  -20.6063   -9.3537 C   0  0  0  0  0  0  0  0  0  0  0  0
   24.9727  -21.4125  -13.0224 C   0  0  0  0  0  0  0  0  0  0  0  0
   24.8667  -20.2293  -13.4216 O   0  0  0  0  0  0  0  0  0  0  0  0
   24.0517  -22.3858  -13.4989 N   0  0  0  0  0  0  0  0  0  0  0  0
   22.9535  -21.9663  -14.4005 C   0  0  1  0  0  0  0  0  0  0  0  0
   22.5222  -23.1941  -15.1946 C   0  0  0  0  0  0  0  0  0  0  0  0
   21.3388  -22.9200  -16.0700 C   0  0  0  0  0  0  0  0  0  0  0  0
   21.6716  -22.6157  -17.4782 C   0  0  0  0  0  0  0  0  0  0  0  0
   20.9249  -21.7998  -18.1189 O   0  0  0  0  0  0  0  0  0  0  0  0
   21.8760  -21.3277  -13.6539 C   0  0  0  0  0  0  0  0  0  0  0  0
   21.5641  -21.6945  -12.4933 O   0  0  0  0  0  0  0  0  0  0  0  0
   22.7241  -23.1346  -18.1791 O   0  0  0  0  0  0  0  0  0  0  0  0
   20.9086  -15.9299  -13.9354 C   0  0  0  0  0  0  0  0  0  0  0  0
   21.0239  -17.3658  -13.5517 C   0  0  0  0  0  0  0  0  0  0  0  0
   19.8159  -18.2020  -13.7495 C   0  0  2  0  0  0  0  0  0  0  0  0
   18.7022  -17.6192  -12.8980 C   0  0  0  0  0  0  0  0  0  0  0  0
   19.9789  -19.6597  -13.3894 C   0  0  2  0  0  0  0  0  0  0  0  0
   21.0784  -20.2347  -14.1553 N   0  0  0  0  0  0  0  0  0  0  0  0
   18.7471  -20.4300  -13.4940 C   0  0  0  0  0  0  0  0  0  0  0  0
   18.4474  -20.9588  -14.6135 O   0  0  0  0  0  0  0  0  0  0  0  0
   17.8313  -20.6636  -12.4833 O   0  0  0  0  0  0  0  0  0  0  0  0
  2  1  1  6
  3  2  1  0
  3  4  1  0
  4  5  2  0
  5  6  1  0
  7  6  1  0
  8  7  2  0
  9  8  1  0
 10 11  1  0
 10  9  2  0
 11 12  2  0
 12  4  1  0
 12  7  1  0
 13 14  2  0
 13  2  1  0
 15 13  1  0
 16 15  1  0
 16 17  1  1
 18 17  1  0
 19 23  1  0
 19 18  1  0
 20 19  2  0
 21 29  1  0
 21 16  1  0
 22 21  2  0
 25 24  1  0
 26 25  1  0
 26 27  1  1
 28 26  1  0
 28 30  1  0
 28 29  1  6
 30 32  1  0
 31 30  2  0
M  END
$$$$
