CIV.pdb
     RDKit          3D

 22 21  0  0  1  0  0  0  0  0999 V2000
   33.4257  -25.5255  -14.7963 N   0  0  0  0  0  0  0  0  0  0  0  0
   32.8077  -25.2173  -16.0654 C   0  0  1  0  0  0  0  0  0  0  0  0
   33.4927  -26.0371  -17.1352 C   0  0  0  0  0  0  0  0  0  0  0  0
   34.3979  -24.8619  -18.2000 S   0  0  0  0  0  0  0  0  0  0  0  0
   31.3593  -25.4752  -16.0001 C   0  0  0  0  0  0  0  0  0  0  0  0
   30.9213  -26.2492  -15.1141 O   0  0  0  0  0  0  0  0  0  0  0  0
   26.2259  -24.0364  -15.4536 C   0  0  0  0  0  0  0  0  0  0  0  0
   26.7073  -24.1305  -16.8864 C   0  0  0  0  0  0  0  0  0  0  0  0
   28.1814  -23.8877  -16.8922 C   0  0  2  0  0  0  0  0  0  0  0  0
   28.5579  -23.1630  -18.1652 C   0  0  0  0  0  0  0  0  0  0  0  0
   28.9902  -25.1594  -16.7688 C   0  0  2  0  0  0  0  0  0  0  0  0
   30.4118  -24.9021  -16.8807 N   0  0  0  0  0  0  0  0  0  0  0  0
   28.5500  -26.1778  -17.7718 C   0  0  0  0  0  0  0  0  0  0  0  0
   28.6597  -25.9493  -19.0057 O   0  0  0  0  0  0  0  0  0  0  0  0
   26.9105  -29.9256  -16.4269 C   0  0  0  0  0  0  0  0  0  0  0  0
   27.6594  -29.7929  -17.7292 C   0  0  2  0  0  0  0  0  0  0  0  0
   29.1074  -30.1350  -17.4502 C   0  0  0  0  0  0  0  0  0  0  0  0
   27.5457  -28.4138  -18.3233 C   0  0  2  0  0  0  0  0  0  0  0  0
   27.9997  -27.4231  -17.3786 N   0  0  0  0  0  0  0  0  0  0  0  0
   26.1393  -28.2002  -18.7333 C   0  0  0  0  0  0  0  0  0  0  0  0
   25.6938  -28.8848  -19.8558 O   0  0  0  0  0  0  0  0  0  0  0  0
   25.3553  -27.4392  -18.1147 O   0  0  0  0  0  0  0  0  0  0  0  0
  2  1  1  1
  2  5  1  0
  3  2  1  0
  4  3  1  0
  5 12  1  0
  5  6  2  0
  7  8  1  0
  8  9  1  0
  9 10  1  6
 11  9  1  0
 11 13  1  0
 11 12  1  6
 13 14  2  0
 16 15  1  1
 16 17  1  0
 16 18  1  0
 18 20  1  0
 18 19  1  1
 19 13  1  0
 20 21  1  0
 22 20  2  0
M  END
$$$$
