CIV.pdb
     RDKit          3D

 22 21  0  0  1  0  0  0  0  0999 V2000
   20.2555  -15.3957  -18.8054 N   0  0  0  0  0  0  0  0  0  0  0  0
   21.1193  -14.2712  -19.0827 C   0  0  1  0  0  0  0  0  0  0  0  0
   20.4526  -13.4120  -20.1331 C   0  0  0  0  0  0  0  0  0  0  0  0
   20.4483  -14.3812  -21.6807 S   0  0  0  0  0  0  0  0  0  0  0  0
   21.3983  -13.5281  -17.8423 C   0  0  0  0  0  0  0  0  0  0  0  0
   20.5080  -13.4672  -16.9594 O   0  0  0  0  0  0  0  0  0  0  0  0
   25.7024  -14.1848  -14.8302 C   0  0  0  0  0  0  0  0  0  0  0  0
   24.3164  -13.9518  -15.3942 C   0  0  0  0  0  0  0  0  0  0  0  0
   24.1962  -12.5015  -15.7322 C   0  0  2  0  0  0  0  0  0  0  0  0
   24.4264  -11.6821  -14.4820 C   0  0  0  0  0  0  0  0  0  0  0  0
   22.8577  -12.1450  -16.3387 C   0  0  2  0  0  0  0  0  0  0  0  0
   22.6199  -12.8674  -17.5721 N   0  0  0  0  0  0  0  0  0  0  0  0
   22.7378  -10.6694  -16.5510 C   0  0  0  0  0  0  0  0  0  0  0  0
   23.5658  -10.0584  -17.2775 O   0  0  0  0  0  0  0  0  0  0  0  0
   19.0793   -8.6449  -15.7016 C   0  0  0  0  0  0  0  0  0  0  0  0
   20.1470   -8.2022  -16.6704 C   0  0  2  0  0  0  0  0  0  0  0  0
   19.8888   -8.9178  -17.9793 C   0  0  0  0  0  0  0  0  0  0  0  0
   21.5373   -8.4951  -16.1717 C   0  0  2  0  0  0  0  0  0  0  0  0
   21.7019   -9.9109  -15.9512 N   0  0  0  0  0  0  0  0  0  0  0  0
   21.7654   -7.7021  -14.9425 C   0  0  0  0  0  0  0  0  0  0  0  0
   21.9658   -6.3369  -15.0952 O   0  0  0  0  0  0  0  0  0  0  0  0
   21.7832   -8.2107  -13.7947 O   0  0  0  0  0  0  0  0  0  0  0  0
  2  1  1  1
  2  5  1  0
  3  2  1  0
  4  3  1  0
  5 12  1  0
  5  6  2  0
  7  8  1  0
  8  9  1  0
  9 10  1  1
 11  9  1  0
 11 13  1  0
 11 12  1  6
 13 14  2  0
 16 15  1  1
 16 17  1  0
 16 18  1  0
 18 20  1  0
 18 19  1  1
 19 13  1  0
 20 21  1  0
 22 20  2  0
M  END
$$$$
