CIV.pdb
     RDKit          3D

 22 21  0  0  1  0  0  0  0  0999 V2000
   23.9173  -20.4499   -8.8048 N   0  0  0  0  0  0  0  0  0  0  0  0
   24.0013  -21.1224  -10.0808 C   0  0  1  0  0  0  0  0  0  0  0  0
   22.6454  -21.0443  -10.7454 C   0  0  0  0  0  0  0  0  0  0  0  0
   21.5356  -22.1511   -9.8086 S   0  0  0  0  0  0  0  0  0  0  0  0
   25.0657  -20.5210  -10.9019 C   0  0  0  0  0  0  0  0  0  0  0  0
   25.2104  -19.2742  -10.8876 O   0  0  0  0  0  0  0  0  0  0  0  0
   30.0698  -21.6498  -10.4888 C   0  0  0  0  0  0  0  0  0  0  0  0
   28.7170  -21.0086  -10.7176 C   0  0  0  0  0  0  0  0  0  0  0  0
   28.3606  -21.1903  -12.1570 C   0  0  2  0  0  0  0  0  0  0  0  0
   29.4148  -20.5267  -13.0147 C   0  0  0  0  0  0  0  0  0  0  0  0
   26.9966  -20.6365  -12.5025 C   0  0  2  0  0  0  0  0  0  0  0  0
   25.9508  -21.2629  -11.7191 N   0  0  0  0  0  0  0  0  0  0  0  0
   26.7179  -20.7639  -13.9664 C   0  0  0  0  0  0  0  0  0  0  0  0
   26.7251  -21.8939  -14.5229 O   0  0  0  0  0  0  0  0  0  0  0  0
   25.5341  -17.8020  -17.6692 C   0  0  0  0  0  0  0  0  0  0  0  0
   25.0758  -18.6779  -16.5302 C   0  0  2  0  0  0  0  0  0  0  0  0
   24.8069  -17.7713  -15.3480 C   0  0  0  0  0  0  0  0  0  0  0  0
   26.0876  -19.7332  -16.1693 C   0  0  2  0  0  0  0  0  0  0  0  0
   26.4386  -19.6334  -14.7740 N   0  0  0  0  0  0  0  0  0  0  0  0
   27.2602  -19.5746  -17.0591 C   0  0  0  0  0  0  0  0  0  0  0  0
   28.2704  -18.7231  -16.6332 O   0  0  0  0  0  0  0  0  0  0  0  0
   27.3687  -20.1702  -18.1592 O   0  0  0  0  0  0  0  0  0  0  0  0
  2  1  1  1
  2  5  1  0
  3  2  1  0
  4  3  1  0
  5 12  1  0
  5  6  2  0
  7  8  1  0
  8  9  1  0
  9 10  1  6
 11  9  1  0
 11 13  1  0
 11 12  1  1
 13 14  2  0
 16 15  1  6
 16 17  1  0
 16 18  1  0
 18 20  1  0
 18 19  1  1
 19 13  1  0
 20 21  1  0
 22 20  2  0
M  END
$$$$
