CIV.pdb
     RDKit          3D

 22 21  0  0  1  0  0  0  0  0999 V2000
   26.7262  -21.5067  -12.2025 N   0  0  0  0  0  0  0  0  0  0  0  0
   26.3756  -20.4026  -11.3392 C   0  0  1  0  0  0  0  0  0  0  0  0
   25.0050  -19.9063  -11.7408 C   0  0  0  0  0  0  0  0  0  0  0  0
   25.1533  -19.2751  -13.4478 S   0  0  0  0  0  0  0  0  0  0  0  0
   26.4303  -20.8241   -9.9291 C   0  0  0  0  0  0  0  0  0  0  0  0
   26.0456  -21.9802   -9.6272 O   0  0  0  0  0  0  0  0  0  0  0  0
   29.1081  -20.3586   -4.7736 C   0  0  0  0  0  0  0  0  0  0  0  0
   27.6989  -19.9761   -5.1754 C   0  0  0  0  0  0  0  0  0  0  0  0
   27.7265  -19.5656   -6.6116 C   0  0  2  0  0  0  0  0  0  0  0  0
   27.3271  -18.1106   -6.7175 C   0  0  0  0  0  0  0  0  0  0  0  0
   26.8248  -20.4088   -7.4847 C   0  0  2  0  0  0  0  0  0  0  0  0
   26.8939  -20.0033   -8.8741 N   0  0  0  0  0  0  0  0  0  0  0  0
   25.4141  -20.3809   -6.9885 C   0  0  0  0  0  0  0  0  0  0  0  0
   24.6656  -19.4005   -7.2439 O   0  0  0  0  0  0  0  0  0  0  0  0
   21.3545  -22.7467   -5.8404 C   0  0  0  0  0  0  0  0  0  0  0  0
   22.8049  -22.7002   -6.2512 C   0  0  2  0  0  0  0  0  0  0  0  0
   23.4688  -23.9408   -5.6926 C   0  0  0  0  0  0  0  0  0  0  0  0
   23.5045  -21.4593   -5.7627 C   0  0  2  0  0  0  0  0  0  0  0  0
   24.8716  -21.4421   -6.2220 N   0  0  0  0  0  0  0  0  0  0  0  0
   23.4045  -21.4218   -4.2861 C   0  0  0  0  0  0  0  0  0  0  0  0
   22.1642  -21.1193   -3.7407 O   0  0  0  0  0  0  0  0  0  0  0  0
   24.3802  -21.6489   -3.5292 O   0  0  0  0  0  0  0  0  0  0  0  0
  2  1  1  6
  2  5  1  0
  3  2  1  0
  4  3  1  0
  5 12  1  0
  5  6  2  0
  7  8  1  0
  8  9  1  0
  9 10  1  1
 11  9  1  0
 11 13  1  0
 11 12  1  6
 13 14  2  0
 16 15  1  1
 16 17  1  0
 16 18  1  0
 18 20  1  0
 18 19  1  1
 19 13  1  0
 20 21  1  0
 22 20  2  0
M  END
$$$$
