CIV.pdb
     RDKit          3D

 22 21  0  0  1  0  0  0  0  0999 V2000
   28.4277  -19.5912  -16.1382 N   0  0  0  0  0  0  0  0  0  0  0  0
   27.6697  -18.9618  -15.0815 C   0  0  1  0  0  0  0  0  0  0  0  0
   26.9980  -17.7325  -15.6504 C   0  0  0  0  0  0  0  0  0  0  0  0
   28.2979  -16.4646  -15.8440 S   0  0  0  0  0  0  0  0  0  0  0  0
   26.7047  -19.9170  -14.5114 C   0  0  0  0  0  0  0  0  0  0  0  0
   26.2001  -20.7885  -15.2609 O   0  0  0  0  0  0  0  0  0  0  0  0
   25.3514  -20.2783   -8.8776 C   0  0  0  0  0  0  0  0  0  0  0  0
   25.2168  -19.8715  -10.3302 C   0  0  0  0  0  0  0  0  0  0  0  0
   25.4568  -21.0834  -11.1704 C   0  0  2  0  0  0  0  0  0  0  0  0
   26.8520  -21.6021  -10.9024 C   0  0  0  0  0  0  0  0  0  0  0  0
   25.2836  -20.8208  -12.6494 C   0  0  2  0  0  0  0  0  0  0  0  0
   26.3002  -19.9210  -13.1556 N   0  0  0  0  0  0  0  0  0  0  0  0
   23.9129  -20.3022  -12.9481 C   0  0  0  0  0  0  0  0  0  0  0  0
   23.5920  -19.1252  -12.6343 O   0  0  0  0  0  0  0  0  0  0  0  0
   21.3958  -22.1615  -15.8317 C   0  0  0  0  0  0  0  0  0  0  0  0
   21.2748  -20.7509  -15.3121 C   0  0  2  0  0  0  0  0  0  0  0  0
   22.2218  -19.8920  -16.1229 C   0  0  0  0  0  0  0  0  0  0  0  0
   21.5908  -20.6468  -13.8435 C   0  0  2  0  0  0  0  0  0  0  0  0
   22.9346  -21.1038  -13.5872 N   0  0  0  0  0  0  0  0  0  0  0  0
   20.5776  -21.4248  -13.0951 C   0  0  0  0  0  0  0  0  0  0  0  0
   20.9882  -22.6241  -12.5292 O   0  0  0  0  0  0  0  0  0  0  0  0
   19.3886  -21.0452  -12.9586 O   0  0  0  0  0  0  0  0  0  0  0  0
  2  1  1  6
  2  5  1  0
  3  2  1  0
  4  3  1  0
  5 12  1  0
  5  6  2  0
  7  8  1  0
  8  9  1  0
  9 10  1  6
 11  9  1  0
 11 13  1  0
 11 12  1  1
 13 14  2  0
 16 15  1  6
 16 17  1  0
 16 18  1  0
 18 20  1  0
 18 19  1  6
 19 13  1  0
 20 21  1  0
 22 20  2  0
M  END
$$$$
