CIV.pdb
     RDKit          3D

 22 21  0  0  1  0  0  0  0  0999 V2000
   28.5345  -20.4306  -16.3270 N   0  0  0  0  0  0  0  0  0  0  0  0
   27.9462  -19.5837  -15.3149 C   0  0  1  0  0  0  0  0  0  0  0  0
   27.3468  -18.3765  -16.0000 C   0  0  0  0  0  0  0  0  0  0  0  0
   28.7155  -17.2036  -16.2921 S   0  0  0  0  0  0  0  0  0  0  0  0
   26.9513  -20.3403  -14.5361 C   0  0  0  0  0  0  0  0  0  0  0  0
   26.3657  -21.3086  -15.0796 O   0  0  0  0  0  0  0  0  0  0  0  0
   25.1279  -21.3382   -8.7265 C   0  0  0  0  0  0  0  0  0  0  0  0
   24.8153  -21.5104  -10.1983 C   0  0  0  0  0  0  0  0  0  0  0  0
   25.8215  -20.7263  -10.9760 C   0  0  2  0  0  0  0  0  0  0  0  0
   25.7825  -19.2842  -10.5218 C   0  0  0  0  0  0  0  0  0  0  0  0
   25.6004  -20.7986  -12.4701 C   0  0  2  0  0  0  0  0  0  0  0  0
   26.6040  -20.0469  -13.1964 N   0  0  0  0  0  0  0  0  0  0  0  0
   24.2231  -20.3430  -12.8341 C   0  0  0  0  0  0  0  0  0  0  0  0
   23.9208  -19.1211  -12.7890 O   0  0  0  0  0  0  0  0  0  0  0  0
   21.5741  -22.8927  -15.0383 C   0  0  0  0  0  0  0  0  0  0  0  0
   21.5604  -21.3852  -14.9968 C   0  0  2  0  0  0  0  0  0  0  0  0
   22.5620  -20.8996  -16.0229 C   0  0  0  0  0  0  0  0  0  0  0  0
   21.8936  -20.8415  -13.6326 C   0  0  2  0  0  0  0  0  0  0  0  0
   23.2176  -21.2561  -13.2385 N   0  0  0  0  0  0  0  0  0  0  0  0
   20.8530  -21.2995  -12.6843 C   0  0  0  0  0  0  0  0  0  0  0  0
   21.2065  -22.2976  -11.7865 O   0  0  0  0  0  0  0  0  0  0  0  0
   19.6899  -20.8267  -12.6655 O   0  0  0  0  0  0  0  0  0  0  0  0
  2  1  1  6
  2  5  1  0
  3  2  1  0
  4  3  1  0
  5 12  1  0
  5  6  2  0
  7  8  1  0
  8  9  1  0
  9 10  1  1
 11  9  1  0
 11 13  1  0
 11 12  1  6
 13 14  2  0
 16 15  1  1
 16 17  1  0
 16 18  1  0
 18 20  1  0
 18 19  1  1
 19 13  1  0
 20 21  1  0
 22 20  2  0
M  END
$$$$
