CIV.pdb
     RDKit          3D

 22 21  0  0  1  0  0  0  0  0999 V2000
   22.4489  -24.8861  -15.6737 N   0  0  0  0  0  0  0  0  0  0  0  0
   21.1911  -25.5133  -15.3390 C   0  0  1  0  0  0  0  0  0  0  0  0
   20.8871  -26.5532  -16.3936 C   0  0  0  0  0  0  0  0  0  0  0  0
   20.6962  -25.6595  -17.9745 S   0  0  0  0  0  0  0  0  0  0  0  0
   21.2554  -26.0878  -13.9845 C   0  0  0  0  0  0  0  0  0  0  0  0
   22.3803  -26.3043  -13.4712 O   0  0  0  0  0  0  0  0  0  0  0  0
   17.5661  -24.6072  -11.4053 C   0  0  0  0  0  0  0  0  0  0  0  0
   18.8933  -25.0480  -10.8241 C   0  0  0  0  0  0  0  0  0  0  0  0
   19.0146  -26.5236  -11.0244 C   0  0  2  0  0  0  0  0  0  0  0  0
   19.0795  -27.2018   -9.6741 C   0  0  0  0  0  0  0  0  0  0  0  0
   20.2207  -26.9107  -11.8502 C   0  0  2  0  0  0  0  0  0  0  0  0
   20.1191  -26.4180  -13.2090 N   0  0  0  0  0  0  0  0  0  0  0  0
   20.4339  -28.3910  -11.8321 C   0  0  0  0  0  0  0  0  0  0  0  0
   19.6791  -29.1539  -12.4915 O   0  0  0  0  0  0  0  0  0  0  0  0
   23.3512  -32.2012  -10.4748 C   0  0  0  0  0  0  0  0  0  0  0  0
   23.0671  -30.7206  -10.5149 C   0  0  2  0  0  0  0  0  0  0  0  0
   23.2667  -30.1880   -9.1119 C   0  0  0  0  0  0  0  0  0  0  0  0
   21.6776  -30.4118  -11.0063 C   0  0  2  0  0  0  0  0  0  0  0  0
   21.4795  -28.9852  -11.0826 N   0  0  0  0  0  0  0  0  0  0  0  0
   20.7088  -31.0685  -10.0997 C   0  0  0  0  0  0  0  0  0  0  0  0
   20.4323  -32.4094  -10.3291 O   0  0  0  0  0  0  0  0  0  0  0  0
   20.1427  -30.4677   -9.1535 O   0  0  0  0  0  0  0  0  0  0  0  0
  2  1  1  6
  2  5  1  0
  3  2  1  0
  4  3  1  0
  5 12  1  0
  5  6  2  0
  7  8  1  0
  8  9  1  0
  9 10  1  1
 11  9  1  0
 11 13  1  0
 11 12  1  6
 13 14  2  0
 16 15  1  1
 16 17  1  0
 16 18  1  0
 18 20  1  0
 18 19  1  1
 19 13  1  0
 20 21  1  0
 22 20  2  0
M  END
$$$$
