CIV.pdb
     RDKit          3D

 22 21  0  0  1  0  0  0  0  0999 V2000
   28.8545  -20.2990  -15.4171 N   0  0  0  0  0  0  0  0  0  0  0  0
   28.1011  -19.4765  -14.4988 C   0  0  1  0  0  0  0  0  0  0  0  0
   27.5072  -18.3237  -15.2761 C   0  0  0  0  0  0  0  0  0  0  0  0
   28.8684  -17.1504  -15.5998 S   0  0  0  0  0  0  0  0  0  0  0  0
   27.0747  -20.2848  -13.8191 C   0  0  0  0  0  0  0  0  0  0  0  0
   26.6535  -21.3256  -14.3806 O   0  0  0  0  0  0  0  0  0  0  0  0
   26.5927  -20.2125   -8.3639 C   0  0  0  0  0  0  0  0  0  0  0  0
   26.6460  -20.8594   -9.7322 C   0  0  0  0  0  0  0  0  0  0  0  0
   25.3862  -20.5092  -10.4549 C   0  0  2  0  0  0  0  0  0  0  0  0
   24.2425  -21.3074   -9.8697 C   0  0  0  0  0  0  0  0  0  0  0  0
   25.4718  -20.7540  -11.9446 C   0  0  2  0  0  0  0  0  0  0  0  0
   26.5214  -19.9647  -12.5569 N   0  0  0  0  0  0  0  0  0  0  0  0
   24.1557  -20.5019  -12.6090 C   0  0  0  0  0  0  0  0  0  0  0  0
   23.6375  -19.3540  -12.5867 O   0  0  0  0  0  0  0  0  0  0  0  0
   20.8155  -22.0531  -15.9273 C   0  0  0  0  0  0  0  0  0  0  0  0
   22.1167  -22.2120  -15.1816 C   0  0  2  0  0  0  0  0  0  0  0  0
   22.2159  -23.6618  -14.7575 C   0  0  0  0  0  0  0  0  0  0  0  0
   22.2122  -21.3023  -13.9853 C   0  0  2  0  0  0  0  0  0  0  0  0
   23.4496  -21.5307  -13.2806 N   0  0  0  0  0  0  0  0  0  0  0  0
   21.0251  -21.5335  -13.1314 C   0  0  0  0  0  0  0  0  0  0  0  0
   19.8646  -20.8445  -13.4565 O   0  0  0  0  0  0  0  0  0  0  0  0
   21.0329  -22.3128  -12.1469 O   0  0  0  0  0  0  0  0  0  0  0  0
  2  1  1  6
  2  5  1  0
  3  2  1  0
  4  3  1  0
  5 12  1  0
  5  6  2  0
  7  8  1  0
  8  9  1  0
  9 10  1  1
 11  9  1  0
 11 13  1  0
 11 12  1  6
 13 14  2  0
 16 15  1  1
 16 17  1  0
 16 18  1  0
 18 20  1  0
 18 19  1  1
 19 13  1  0
 20 21  1  0
 22 20  2  0
M  END
$$$$
