CIV.pdb
     RDKit          3D

 22 21  0  0  1  0  0  0  0  0999 V2000
   25.8962  -22.2882  -11.2317 N   0  0  0  0  0  0  0  0  0  0  0  0
   25.1003  -21.0851  -11.3129 C   0  0  1  0  0  0  0  0  0  0  0  0
   25.8498  -19.9753  -10.6111 C   0  0  0  0  0  0  0  0  0  0  0  0
   25.4367  -20.1014   -8.8368 S   0  0  0  0  0  0  0  0  0  0  0  0
   24.8083  -20.7643  -12.7202 C   0  0  0  0  0  0  0  0  0  0  0  0
   25.6763  -21.0157  -13.5915 O   0  0  0  0  0  0  0  0  0  0  0  0
   21.9746  -22.2136  -15.4497 C   0  0  0  0  0  0  0  0  0  0  0  0
   21.3877  -20.8743  -15.8440 C   0  0  0  0  0  0  0  0  0  0  0  0
   21.8408  -19.8620  -14.8431 C   0  0  2  0  0  0  0  0  0  0  0  0
   21.4734  -18.4803  -15.3367 C   0  0  0  0  0  0  0  0  0  0  0  0
   23.3258  -19.9285  -14.5660 C   0  0  2  0  0  0  0  0  0  0  0  0
   23.5978  -20.1829  -13.1657 N   0  0  0  0  0  0  0  0  0  0  0  0
   24.0168  -18.6851  -15.0282 C   0  0  0  0  0  0  0  0  0  0  0  0
   23.7462  -17.5713  -14.5059 O   0  0  0  0  0  0  0  0  0  0  0  0
   27.5752  -18.9040  -17.4267 C   0  0  0  0  0  0  0  0  0  0  0  0
   27.1751  -17.7755  -16.5097 C   0  0  2  0  0  0  0  0  0  0  0  0
   27.6588  -18.1340  -15.1207 C   0  0  0  0  0  0  0  0  0  0  0  0
   25.6890  -17.5321  -16.5069 C   0  0  2  0  0  0  0  0  0  0  0  0
   24.9898  -18.7110  -16.0580 N   0  0  0  0  0  0  0  0  0  0  0  0
   25.2842  -17.1205  -17.8702 C   0  0  0  0  0  0  0  0  0  0  0  0
   24.6709  -18.0776  -18.6670 O   0  0  0  0  0  0  0  0  0  0  0  0
   25.4727  -15.9629  -18.3187 O   0  0  0  0  0  0  0  0  0  0  0  0
  2  1  1  6
  2  5  1  0
  3  2  1  0
  4  3  1  0
  5 12  1  0
  5  6  2  0
  7  8  1  0
  8  9  1  0
  9 10  1  6
 11  9  1  0
 11 13  1  0
 11 12  1  1
 13 14  2  0
 16 15  1  6
 16 17  1  0
 16 18  1  0
 18 20  1  0
 18 19  1  6
 19 13  1  0
 20 21  1  0
 22 20  2  0
M  END
$$$$
