CIV.pdb
     RDKit          3D

 22 21  0  0  1  0  0  0  0  0999 V2000
   20.7704  -12.5614  -20.2146 N   0  0  0  0  0  0  0  0  0  0  0  0
   21.4553  -11.2927  -20.1227 C   0  0  1  0  0  0  0  0  0  0  0  0
   20.9656  -10.4094  -21.2479 C   0  0  0  0  0  0  0  0  0  0  0  0
   21.9841  -10.8070  -22.7104 S   0  0  0  0  0  0  0  0  0  0  0  0
   21.2322  -10.6908  -18.7972 C   0  0  0  0  0  0  0  0  0  0  0  0
   20.1012  -10.8022  -18.2640 O   0  0  0  0  0  0  0  0  0  0  0  0
   24.7331  -11.1037  -14.7428 C   0  0  0  0  0  0  0  0  0  0  0  0
   23.5336  -11.0484  -15.6657 C   0  0  0  0  0  0  0  0  0  0  0  0
   23.1506   -9.6143  -15.8351 C   0  0  2  0  0  0  0  0  0  0  0  0
   22.8407   -9.0220  -14.4784 C   0  0  0  0  0  0  0  0  0  0  0  0
   21.9689   -9.4233  -16.7591 C   0  0  2  0  0  0  0  0  0  0  0  0
   22.2199   -9.9842  -18.0713 N   0  0  0  0  0  0  0  0  0  0  0  0
   21.5892   -7.9801  -16.8575 C   0  0  0  0  0  0  0  0  0  0  0  0
   22.4285   -7.1226  -17.2408 O   0  0  0  0  0  0  0  0  0  0  0  0
   17.5122   -6.7795  -16.9745 C   0  0  0  0  0  0  0  0  0  0  0  0
   18.6878   -5.9647  -17.4527 C   0  0  2  0  0  0  0  0  0  0  0  0
   18.9846   -6.3972  -18.8728 C   0  0  0  0  0  0  0  0  0  0  0  0
   19.9035   -6.1376  -16.5811 C   0  0  2  0  0  0  0  0  0  0  0  0
   20.2876   -7.5268  -16.5280 N   0  0  0  0  0  0  0  0  0  0  0  0
   19.5964   -5.5851  -15.2424 C   0  0  0  0  0  0  0  0  0  0  0  0
   19.6101   -4.2036  -15.1067 O   0  0  0  0  0  0  0  0  0  0  0  0
   19.3304   -6.3069  -14.2500 O   0  0  0  0  0  0  0  0  0  0  0  0
  2  1  1  1
  2  5  1  0
  3  2  1  0
  4  3  1  0
  5 12  1  0
  5  6  2  0
  7  8  1  0
  8  9  1  0
  9 10  1  1
 11  9  1  0
 11 13  1  0
 11 12  1  6
 13 14  2  0
 16 15  1  1
 16 17  1  0
 16 18  1  0
 18 20  1  0
 18 19  1  1
 19 13  1  0
 20 21  1  0
 22 20  2  0
M  END
$$$$
