CIV.pdb
     RDKit          3D

 22 21  0  0  1  0  0  0  0  0999 V2000
   22.5210  -16.0701  -17.8947 N   0  0  0  0  0  0  0  0  0  0  0  0
   22.6851  -14.7359  -18.4244 C   0  0  1  0  0  0  0  0  0  0  0  0
   21.4009  -14.3426  -19.1186 C   0  0  0  0  0  0  0  0  0  0  0  0
   21.6230  -12.6271  -19.7037 S   0  0  0  0  0  0  0  0  0  0  0  0
   23.0495  -13.8030  -17.3448 C   0  0  0  0  0  0  0  0  0  0  0  0
   22.3285  -13.7531  -16.3183 O   0  0  0  0  0  0  0  0  0  0  0  0
   28.1480  -12.6872  -15.8551 C   0  0  0  0  0  0  0  0  0  0  0  0
   26.6667  -13.0020  -15.8375 C   0  0  0  0  0  0  0  0  0  0  0  0
   25.9266  -11.7456  -16.1628 C   0  0  2  0  0  0  0  0  0  0  0  0
   26.1588  -10.7359  -15.0609 C   0  0  0  0  0  0  0  0  0  0  0  0
   24.4425  -11.9658  -16.3509 C   0  0  2  0  0  0  0  0  0  0  0  0
   24.1738  -12.9450  -17.3846 N   0  0  0  0  0  0  0  0  0  0  0  0
   23.7384  -10.6778  -16.6378 C   0  0  0  0  0  0  0  0  0  0  0  0
   24.0936   -9.9569  -17.6077 O   0  0  0  0  0  0  0  0  0  0  0  0
   19.7001   -7.9752  -16.4698 C   0  0  0  0  0  0  0  0  0  0  0  0
   20.4976   -9.2464  -16.3193 C   0  0  2  0  0  0  0  0  0  0  0  0
   19.9056  -10.0116  -15.1549 C   0  0  0  0  0  0  0  0  0  0  0  0
   21.9632   -8.9857  -16.0919 C   0  0  2  0  0  0  0  0  0  0  0  0
   22.6585  -10.2241  -15.8403 N   0  0  0  0  0  0  0  0  0  0  0  0
   22.0950   -8.0266  -14.9718 C   0  0  0  0  0  0  0  0  0  0  0  0
   22.0257   -6.6751  -15.2811 O   0  0  0  0  0  0  0  0  0  0  0  0
   22.2632   -8.3862  -13.7806 O   0  0  0  0  0  0  0  0  0  0  0  0
  2  1  1  1
  2  5  1  0
  3  2  1  0
  4  3  1  0
  5 12  1  0
  5  6  2  0
  7  8  1  0
  8  9  1  0
  9 10  1  1
 11  9  1  0
 11 13  1  0
 11 12  1  6
 13 14  2  0
 16 15  1  1
 16 17  1  0
 16 18  1  0
 18 20  1  0
 18 19  1  1
 19 13  1  0
 20 21  1  0
 22 20  2  0
M  END
$$$$
