CIV.pdb
     RDKit          3D

 22 21  0  0  1  0  0  0  0  0999 V2000
   16.9489  -12.3320  -15.0558 N   0  0  0  0  0  0  0  0  0  0  0  0
   17.4342  -11.4895  -13.9870 C   0  0  1  0  0  0  0  0  0  0  0  0
   18.7612  -10.9037  -14.4135 C   0  0  0  0  0  0  0  0  0  0  0  0
   19.9879  -12.2527  -14.3156 S   0  0  0  0  0  0  0  0  0  0  0  0
   16.4386  -10.4528  -13.6665 C   0  0  0  0  0  0  0  0  0  0  0  0
   15.8110   -9.9049  -14.6056 O   0  0  0  0  0  0  0  0  0  0  0  0
   14.2690  -11.7394  -10.3401 C   0  0  0  0  0  0  0  0  0  0  0  0
   13.4973  -10.5461  -10.8635 C   0  0  0  0  0  0  0  0  0  0  0  0
   14.3869   -9.3492  -10.7744 C   0  0  2  0  0  0  0  0  0  0  0  0
   13.5641   -8.1521  -10.3532 C   0  0  0  0  0  0  0  0  0  0  0  0
   15.1030   -9.0473  -12.0715 C   0  0  2  0  0  0  0  0  0  0  0  0
   16.1353  -10.0245  -12.3527 N   0  0  0  0  0  0  0  0  0  0  0  0
   15.6649   -7.6612  -12.0673 C   0  0  0  0  0  0  0  0  0  0  0  0
   16.5395   -7.3282  -11.2241 O   0  0  0  0  0  0  0  0  0  0  0  0
   14.7576   -4.9901  -15.2967 C   0  0  0  0  0  0  0  0  0  0  0  0
   16.0145   -4.9194  -14.4662 C   0  0  2  0  0  0  0  0  0  0  0  0
   17.0431   -5.8072  -15.1337 C   0  0  0  0  0  0  0  0  0  0  0  0
   15.7899   -5.3481  -13.0402 C   0  0  2  0  0  0  0  0  0  0  0  0
   15.2412   -6.6813  -12.9992 N   0  0  0  0  0  0  0  0  0  0  0  0
   14.9060   -4.3536  -12.3909 C   0  0  0  0  0  0  0  0  0  0  0  0
   15.4816   -3.1531  -11.9977 O   0  0  0  0  0  0  0  0  0  0  0  0
   13.6832   -4.5550  -12.1891 O   0  0  0  0  0  0  0  0  0  0  0  0
  2  1  1  6
  2  5  1  0
  3  2  1  0
  4  3  1  0
  5 12  1  0
  5  6  2  0
  7  8  1  0
  8  9  1  0
  9 10  1  6
 11  9  1  0
 11 13  1  0
 11 12  1  1
 13 14  2  0
 16 15  1  6
 16 17  1  0
 16 18  1  0
 18 20  1  0
 18 19  1  6
 19 13  1  0
 20 21  1  0
 22 20  2  0
M  END
$$$$
