CIV.pdb
     RDKit          3D

 22 21  0  0  1  0  0  0  0  0999 V2000
   23.3360  -12.8278  -17.7936 N   0  0  0  0  0  0  0  0  0  0  0  0
   23.2589  -12.0499  -16.5785 C   0  0  1  0  0  0  0  0  0  0  0  0
   24.6522  -11.5754  -16.2328 C   0  0  0  0  0  0  0  0  0  0  0  0
   25.5380  -13.0102  -15.5319 S   0  0  0  0  0  0  0  0  0  0  0  0
   22.3113  -10.9355  -16.7491 C   0  0  0  0  0  0  0  0  0  0  0  0
   22.3240  -10.2890  -17.8250 O   0  0  0  0  0  0  0  0  0  0  0  0
   17.6154  -11.5450  -15.3130 C   0  0  0  0  0  0  0  0  0  0  0  0
   18.3601  -10.6170  -16.2500 C   0  0  0  0  0  0  0  0  0  0  0  0
   19.1205   -9.6372  -15.4171 C   0  0  2  0  0  0  0  0  0  0  0  0
   18.3490   -8.3378  -15.3550 C   0  0  0  0  0  0  0  0  0  0  0  0
   20.5172   -9.3789  -15.9359 C   0  0  2  0  0  0  0  0  0  0  0  0
   21.3724  -10.5366  -15.7688 N   0  0  0  0  0  0  0  0  0  0  0  0
   21.1180   -8.1717  -15.2890 C   0  0  0  0  0  0  0  0  0  0  0  0
   21.4431   -8.1931  -14.0722 O   0  0  0  0  0  0  0  0  0  0  0  0
   23.5437   -5.5248  -17.2268 C   0  0  0  0  0  0  0  0  0  0  0  0
   22.4429   -4.8607  -16.4382 C   0  0  2  0  0  0  0  0  0  0  0  0
   23.0360   -3.6262  -15.7932 C   0  0  0  0  0  0  0  0  0  0  0  0
   21.8495   -5.7704  -15.3952 C   0  0  2  0  0  0  0  0  0  0  0  0
   21.3421   -6.9724  -16.0099 N   0  0  0  0  0  0  0  0  0  0  0  0
   20.7990   -5.0206  -14.6697 C   0  0  0  0  0  0  0  0  0  0  0  0
   21.1872   -4.3182  -13.5371 O   0  0  0  0  0  0  0  0  0  0  0  0
   19.5982   -4.9995  -15.0359 O   0  0  0  0  0  0  0  0  0  0  0  0
  2  1  1  6
  2  5  1  0
  3  2  1  0
  4  3  1  0
  5 12  1  0
  5  6  2  0
  7  8  1  0
  8  9  1  0
  9 10  1  6
 11  9  1  0
 11 13  1  0
 11 12  1  1
 13 14  2  0
 16 15  1  1
 16 17  1  0
 16 18  1  0
 18 20  1  0
 18 19  1  6
 19 13  1  0
 20 21  1  0
 22 20  2  0
M  END
$$$$
