CIV.pdb
     RDKit          3D

 22 21  0  0  1  0  0  0  0  0999 V2000
   28.4199  -22.5668  -16.3970 N   0  0  0  0  0  0  0  0  0  0  0  0
   27.9596  -21.2897  -15.9024 C   0  0  1  0  0  0  0  0  0  0  0  0
   27.4510  -20.4845  -17.0766 C   0  0  0  0  0  0  0  0  0  0  0  0
   28.9131  -20.0107  -18.0626 S   0  0  0  0  0  0  0  0  0  0  0  0
   26.9302  -21.4876  -14.8679 C   0  0  0  0  0  0  0  0  0  0  0  0
   26.0851  -22.4030  -15.0218 O   0  0  0  0  0  0  0  0  0  0  0  0
   25.3469  -21.5008   -9.4141 C   0  0  0  0  0  0  0  0  0  0  0  0
   25.0194  -20.3852  -10.3845 C   0  0  0  0  0  0  0  0  0  0  0  0
   26.1310  -20.3011  -11.3792 C   0  0  2  0  0  0  0  0  0  0  0  0
   26.5280  -18.8523  -11.5552 C   0  0  0  0  0  0  0  0  0  0  0  0
   25.7706  -20.8997  -12.7202 C   0  0  2  0  0  0  0  0  0  0  0  0
   26.8259  -20.7052  -13.6938 N   0  0  0  0  0  0  0  0  0  0  0  0
   24.4717  -20.3542  -13.2226 C   0  0  0  0  0  0  0  0  0  0  0  0
   24.4000  -19.1760  -13.6621 O   0  0  0  0  0  0  0  0  0  0  0  0
   21.3020  -22.7798  -14.6210 C   0  0  0  0  0  0  0  0  0  0  0  0
   21.4849  -21.2974  -14.8303 C   0  0  2  0  0  0  0  0  0  0  0  0
   22.4494  -21.1235  -15.9841 C   0  0  0  0  0  0  0  0  0  0  0  0
   21.9997  -20.5992  -13.5994 C   0  0  2  0  0  0  0  0  0  0  0  0
   23.2866  -21.1312  -13.2237 N   0  0  0  0  0  0  0  0  0  0  0  0
   20.9916  -20.7491  -12.5256 C   0  0  0  0  0  0  0  0  0  0  0  0
   19.8226  -20.0098  -12.6440 O   0  0  0  0  0  0  0  0  0  0  0  0
   21.1548  -21.5041  -11.5357 O   0  0  0  0  0  0  0  0  0  0  0  0
  2  1  1  6
  2  5  1  0
  3  2  1  0
  4  3  1  0
  5 12  1  0
  5  6  2  0
  7  8  1  0
  8  9  1  0
  9 10  1  6
 11  9  1  0
 11 13  1  0
 11 12  1  6
 13 14  2  0
 16 15  1  1
 16 17  1  0
 16 18  1  0
 18 20  1  0
 18 19  1  1
 19 13  1  0
 20 21  1  0
 22 20  2  0
M  END
$$$$
