CIV.pdb
     RDKit          3D

 22 21  0  0  1  0  0  0  0  0999 V2000
   27.6644  -23.5079  -17.6748 N   0  0  0  0  0  0  0  0  0  0  0  0
   27.1171  -22.1875  -17.4642 C   0  0  1  0  0  0  0  0  0  0  0  0
   26.1152  -21.9114  -18.5623 C   0  0  0  0  0  0  0  0  0  0  0  0
   27.0726  -21.6537  -20.0957 S   0  0  0  0  0  0  0  0  0  0  0  0
   26.5199  -22.0942  -16.1213 C   0  0  0  0  0  0  0  0  0  0  0  0
   25.8787  -23.0765  -15.6740 O   0  0  0  0  0  0  0  0  0  0  0  0
   29.0195  -19.7361  -13.8723 C   0  0  0  0  0  0  0  0  0  0  0  0
   28.1583  -20.4074  -12.8229 C   0  0  0  0  0  0  0  0  0  0  0  0
   26.7451  -19.9763  -13.0444 C   0  0  2  0  0  0  0  0  0  0  0  0
   26.0337  -19.9111  -11.7113 C   0  0  0  0  0  0  0  0  0  0  0  0
   25.9893  -20.8886  -13.9840 C   0  0  2  0  0  0  0  0  0  0  0  0
   26.6201  -20.9563  -15.2867 N   0  0  0  0  0  0  0  0  0  0  0  0
   24.5575  -20.4728  -14.1036 C   0  0  0  0  0  0  0  0  0  0  0  0
   24.2575  -19.3333  -14.5487 O   0  0  0  0  0  0  0  0  0  0  0  0
   21.3156  -23.3209  -13.8784 C   0  0  0  0  0  0  0  0  0  0  0  0
   21.3149  -21.9726  -14.5540 C   0  0  2  0  0  0  0  0  0  0  0  0
   21.8866  -22.1668  -15.9423 C   0  0  0  0  0  0  0  0  0  0  0  0
   22.1093  -20.9443  -13.7929 C   0  0  2  0  0  0  0  0  0  0  0  0
   23.4966  -21.3331  -13.7259 N   0  0  0  0  0  0  0  0  0  0  0  0
   21.5014  -20.7884  -12.4520 C   0  0  0  0  0  0  0  0  0  0  0  0
   20.2665  -20.1578  -12.3838 O   0  0  0  0  0  0  0  0  0  0  0  0
   22.0520  -21.1975  -11.4003 O   0  0  0  0  0  0  0  0  0  0  0  0
  2  1  1  6
  2  5  1  0
  3  2  1  0
  4  3  1  0
  5 12  1  0
  5  6  2  0
  7  8  1  0
  8  9  1  0
  9 10  1  1
 11  9  1  0
 11 13  1  0
 11 12  1  6
 13 14  2  0
 16 15  1  1
 16 17  1  0
 16 18  1  0
 18 20  1  0
 18 19  1  1
 19 13  1  0
 20 21  1  0
 22 20  2  0
M  END
$$$$
