CIV.pdb
     RDKit          3D

 22 21  0  0  1  0  0  0  0  0999 V2000
   29.0181  -21.3682  -14.3754 N   0  0  0  0  0  0  0  0  0  0  0  0
   28.5112  -20.3144  -13.5270 C   0  0  1  0  0  0  0  0  0  0  0  0
   27.9466  -19.2265  -14.4123 C   0  0  0  0  0  0  0  0  0  0  0  0
   29.3708  -18.3872  -15.1881 S   0  0  0  0  0  0  0  0  0  0  0  0
   27.5103  -20.8540  -12.5911 C   0  0  0  0  0  0  0  0  0  0  0  0
   26.7842  -21.8076  -12.9644 O   0  0  0  0  0  0  0  0  0  0  0  0
   25.8160  -20.6917   -6.6443 C   0  0  0  0  0  0  0  0  0  0  0  0
   25.4322  -21.0520   -8.0643 C   0  0  0  0  0  0  0  0  0  0  0  0
   26.4855  -20.5115   -8.9756 C   0  0  2  0  0  0  0  0  0  0  0  0
   26.5742  -19.0126   -8.7941 C   0  0  0  0  0  0  0  0  0  0  0  0
   26.2319  -20.8369  -10.4304 C   0  0  2  0  0  0  0  0  0  0  0  0
   27.3069  -20.3644  -11.2794 N   0  0  0  0  0  0  0  0  0  0  0  0
   24.9142  -20.2930  -10.8828 C   0  0  0  0  0  0  0  0  0  0  0  0
   24.6634  -19.0623  -10.7873 O   0  0  0  0  0  0  0  0  0  0  0  0
   22.4286  -22.6282  -13.4912 C   0  0  0  0  0  0  0  0  0  0  0  0
   22.5439  -21.1258  -13.4268 C   0  0  2  0  0  0  0  0  0  0  0  0
   23.7398  -20.7318  -14.2672 C   0  0  0  0  0  0  0  0  0  0  0  0
   22.6961  -20.6178  -12.0174 C   0  0  2  0  0  0  0  0  0  0  0  0
   23.9095  -21.1297  -11.4294 N   0  0  0  0  0  0  0  0  0  0  0  0
   21.4901  -21.0065  -11.2518 C   0  0  0  0  0  0  0  0  0  0  0  0
   21.6480  -21.9677  -10.2626 O   0  0  0  0  0  0  0  0  0  0  0  0
   20.3570  -20.5080  -11.4622 O   0  0  0  0  0  0  0  0  0  0  0  0
  2  1  1  6
  2  5  1  0
  3  2  1  0
  4  3  1  0
  5 12  1  0
  5  6  2  0
  7  8  1  0
  8  9  1  0
  9 10  1  6
 11  9  1  0
 11 13  1  0
 11 12  1  6
 13 14  2  0
 16 15  1  1
 16 17  1  0
 16 18  1  0
 18 20  1  0
 18 19  1  1
 19 13  1  0
 20 21  1  0
 22 20  2  0
M  END
$$$$
