FTR.pdb
     RDKit          3D

 30 30  0  0  1  0  0  0  0  0999 V2000
   23.1087  -16.6261  -19.3363 N   0  0  0  0  0  0  0  0  0  0  0  0
   23.9737  -16.6283  -18.1896 C   0  0  1  0  0  0  0  0  0  0  0  0
   24.0786  -15.2453  -17.6028 C   0  0  0  0  0  0  0  0  0  0  0  0
   24.6397  -14.3376  -18.6230 C   0  0  0  0  0  0  0  0  0  0  0  0
   25.9705  -14.4059  -18.9597 C   0  0  0  0  0  0  0  0  0  0  0  0
   26.5222  -13.5553  -19.9235 C   0  0  0  0  0  0  0  0  0  0  0  0
   25.6806  -12.6367  -20.5315 C   0  0  0  0  0  0  0  0  0  0  0  0
   24.3524  -12.5486  -20.2141 C   0  0  0  0  0  0  0  0  0  0  0  0
   23.8505  -13.4063  -19.2587 C   0  0  0  0  0  0  0  0  0  0  0  0
   23.5305  -17.6301  -17.1913 C   0  0  0  0  0  0  0  0  0  0  0  0
   22.3745  -18.1187  -17.3541 O   0  0  0  0  0  0  0  0  0  0  0  0
   25.6921  -20.3311  -17.0719 C   0  0  0  0  0  0  0  0  0  0  0  0
   24.2854  -20.3544  -16.5422 C   0  0  1  0  0  0  0  0  0  0  0  0
   23.9734  -21.5809  -15.9801 O   0  0  0  0  0  0  0  0  0  0  0  0
   24.0651  -19.2901  -15.4807 C   0  0  2  0  0  0  0  0  0  0  0  0
   24.3465  -18.0331  -16.1023 N   0  0  0  0  0  0  0  0  0  0  0  0
   24.9534  -19.5589  -14.3164 C   0  0  0  0  0  0  0  0  0  0  0  0
   26.2217  -19.5806  -14.4672 O   0  0  0  0  0  0  0  0  0  0  0  0
   22.1231  -21.2539   -6.4277 N   0  0  0  0  0  0  0  0  0  0  0  0
   21.8354  -21.1285   -7.8313 C   0  0  0  0  0  0  0  0  0  0  0  0
   20.5993  -21.2176   -8.2430 N   0  0  0  0  0  0  0  0  0  0  0  0
   22.8683  -20.9108   -8.7695 N   0  0  0  0  0  0  0  0  0  0  0  0
   24.1947  -20.6237   -8.2726 C   0  0  0  0  0  0  0  0  0  0  0  0
   25.1935  -20.4370   -9.3882 C   0  0  0  0  0  0  0  0  0  0  0  0
   24.5037  -20.2084  -10.6848 C   0  0  0  0  0  0  0  0  0  0  0  0
   25.4148  -20.0373  -11.8765 C   0  0  2  0  0  0  0  0  0  0  0  0
   24.5098  -19.8032  -12.9979 N   0  0  0  0  0  0  0  0  0  0  0  0
   26.2298  -21.2345  -12.0611 C   0  0  0  0  0  0  0  0  0  0  0  0
   25.8691  -22.3036  -12.5857 O   0  0  0  0  0  0  0  0  0  0  0  0
   27.5518  -21.1912  -11.6080 O   0  0  0  0  0  0  0  0  0  0  0  0
  2  1  1  6
  2 10  1  0
  3  2  1  0
  4  5  2  0
  4  3  1  0
  6  5  1  0
  7  6  2  0
  8  7  1  0
  8  9  2  0
  9  4  1  0
 10 16  1  0
 10 11  2  0
 13 12  1  1
 14 13  1  0
 15 13  1  0
 15 16  1  6
 17 18  2  0
 17 15  1  0
 20 22  1  0
 20 19  1  0
 21 20  2  0
 23 22  1  0
 24 23  1  0
 24 25  1  0
 26 25  1  1
 26 27  1  0
 27 17  1  0
 28 26  1  0
 29 28  2  0
 30 28  1  0
M  END
$$$$
