FTR.pdb
     RDKit          3D

 30 30  0  0  1  0  0  0  0  0999 V2000
   29.6989  -22.9901  -12.7327 N   0  0  0  0  0  0  0  0  0  0  0  0
   29.0979  -21.9794  -11.9076 C   0  0  1  0  0  0  0  0  0  0  0  0
   29.9586  -20.7442  -11.8719 C   0  0  0  0  0  0  0  0  0  0  0  0
   31.2267  -21.0683  -11.1891 C   0  0  0  0  0  0  0  0  0  0  0  0
   32.3276  -21.4592  -11.9132 C   0  0  0  0  0  0  0  0  0  0  0  0
   33.5386  -21.7708  -11.2858 C   0  0  0  0  0  0  0  0  0  0  0  0
   33.5939  -21.6724   -9.9042 C   0  0  0  0  0  0  0  0  0  0  0  0
   32.5123  -21.2857   -9.1605 C   0  0  0  0  0  0  0  0  0  0  0  0
   31.3387  -20.9880   -9.8196 C   0  0  0  0  0  0  0  0  0  0  0  0
   27.7134  -21.6870  -12.3488 C   0  0  0  0  0  0  0  0  0  0  0  0
   27.3667  -22.1543  -13.4726 O   0  0  0  0  0  0  0  0  0  0  0  0
   25.5593  -21.7811   -9.1101 C   0  0  0  0  0  0  0  0  0  0  0  0
   24.8909  -20.9702  -10.1851 C   0  0  1  0  0  0  0  0  0  0  0  0
   25.0697  -19.6119   -9.9837 O   0  0  0  0  0  0  0  0  0  0  0  0
   25.4313  -21.3080  -11.5642 C   0  0  2  0  0  0  0  0  0  0  0  0
   26.8091  -20.9242  -11.5649 N   0  0  0  0  0  0  0  0  0  0  0  0
   24.6404  -20.5851  -12.5980 C   0  0  0  0  0  0  0  0  0  0  0  0
   24.7830  -19.3250  -12.7517 O   0  0  0  0  0  0  0  0  0  0  0  0
   19.2907  -23.7843  -16.1831 N   0  0  0  0  0  0  0  0  0  0  0  0
   18.8110  -22.8204  -17.1367 C   0  0  0  0  0  0  0  0  0  0  0  0
   17.5422  -22.8000  -17.4451 N   0  0  0  0  0  0  0  0  0  0  0  0
   19.6905  -21.8971  -17.7437 N   0  0  0  0  0  0  0  0  0  0  0  0
   21.0974  -21.9803  -17.4238 C   0  0  0  0  0  0  0  0  0  0  0  0
   21.5346  -20.8826  -16.4851 C   0  0  0  0  0  0  0  0  0  0  0  0
   22.4553  -21.4103  -15.4443 C   0  0  0  0  0  0  0  0  0  0  0  0
   22.8409  -20.4247  -14.3676 C   0  0  2  0  0  0  0  0  0  0  0  0
   23.7034  -21.1853  -13.4679 N   0  0  0  0  0  0  0  0  0  0  0  0
   21.6460  -19.9206  -13.6971 C   0  0  0  0  0  0  0  0  0  0  0  0
   21.0901  -20.4161  -12.7003 O   0  0  0  0  0  0  0  0  0  0  0  0
   21.0545  -18.7647  -14.2156 O   0  0  0  0  0  0  0  0  0  0  0  0
  2  1  1  6
  2 10  1  0
  3  2  1  0
  4  5  2  0
  4  3  1  0
  6  5  1  0
  7  6  2  0
  8  7  1  0
  8  9  2  0
  9  4  1  0
 10 16  1  0
 10 11  2  0
 13 12  1  1
 14 13  1  0
 15 13  1  0
 15 16  1  1
 17 18  2  0
 17 15  1  0
 20 22  1  0
 20 19  1  0
 21 20  2  0
 23 22  1  0
 24 23  1  0
 24 25  1  0
 26 25  1  6
 26 27  1  0
 27 17  1  0
 28 26  1  0
 29 28  2  0
 30 28  1  0
M  END
$$$$
