FTR.pdb
     RDKit          3D

 30 30  0  0  1  0  0  0  0  0999 V2000
   27.1334  -18.2504   -8.0747 N   0  0  0  0  0  0  0  0  0  0  0  0
   27.1618  -19.6393   -8.4399 C   0  0  1  0  0  0  0  0  0  0  0  0
   26.8015  -20.5042   -7.2610 C   0  0  0  0  0  0  0  0  0  0  0  0
   27.7380  -20.2166   -6.1567 C   0  0  0  0  0  0  0  0  0  0  0  0
   27.2817  -19.6710   -4.9806 C   0  0  0  0  0  0  0  0  0  0  0  0
   28.1522  -19.3908   -3.9220 C   0  0  0  0  0  0  0  0  0  0  0  0
   29.4962  -19.6820   -4.0970 C   0  0  0  0  0  0  0  0  0  0  0  0
   29.9757  -20.2253   -5.2578 C   0  0  0  0  0  0  0  0  0  0  0  0
   29.0827  -20.4854   -6.2753 C   0  0  0  0  0  0  0  0  0  0  0  0
   26.2939  -19.8983   -9.6131 C   0  0  0  0  0  0  0  0  0  0  0  0
   25.1763  -19.3049   -9.6326 O   0  0  0  0  0  0  0  0  0  0  0  0
   28.2110  -19.6148  -12.8191 C   0  0  0  0  0  0  0  0  0  0  0  0
   27.1808  -20.6981  -12.9783 C   0  0  1  0  0  0  0  0  0  0  0  0
   27.7412  -21.9572  -12.8443 O   0  0  0  0  0  0  0  0  0  0  0  0
   26.0697  -20.5749  -11.9496 C   0  0  2  0  0  0  0  0  0  0  0  0
   26.6793  -20.7639  -10.6697 N   0  0  0  0  0  0  0  0  0  0  0  0
   25.0170  -21.5893  -12.2320 C   0  0  0  0  0  0  0  0  0  0  0  0
   24.6838  -22.4365  -11.3359 O   0  0  0  0  0  0  0  0  0  0  0  0
   17.9092  -19.0916  -13.4713 N   0  0  0  0  0  0  0  0  0  0  0  0
   17.6047  -20.4960  -13.4133 C   0  0  0  0  0  0  0  0  0  0  0  0
   16.4708  -20.9268  -13.8971 N   0  0  0  0  0  0  0  0  0  0  0  0
   18.5123  -21.4147  -12.8418 N   0  0  0  0  0  0  0  0  0  0  0  0
   19.7438  -20.9033  -12.2845 C   0  0  0  0  0  0  0  0  0  0  0  0
   20.8744  -20.9256  -13.2837 C   0  0  0  0  0  0  0  0  0  0  0  0
   22.1225  -21.4391  -12.6608 C   0  0  0  0  0  0  0  0  0  0  0  0
   22.9827  -22.2968  -13.5573 C   0  0  2  0  0  0  0  0  0  0  0  0
   24.3164  -21.7121  -13.4523 N   0  0  0  0  0  0  0  0  0  0  0  0
   22.4694  -22.2670  -14.9238 C   0  0  0  0  0  0  0  0  0  0  0  0
   22.7198  -21.4112  -15.7916 O   0  0  0  0  0  0  0  0  0  0  0  0
   21.6078  -23.2975  -15.3118 O   0  0  0  0  0  0  0  0  0  0  0  0
  2  1  1  1
  2 10  1  0
  3  2  1  0
  4  5  2  0
  4  3  1  0
  6  5  1  0
  7  6  2  0
  8  7  1  0
  8  9  2  0
  9  4  1  0
 10 16  1  0
 10 11  2  0
 13 12  1  1
 14 13  1  0
 15 13  1  0
 15 16  1  1
 17 18  2  0
 17 15  1  0
 20 22  1  0
 20 19  1  0
 21 20  2  0
 23 22  1  0
 24 23  1  0
 24 25  1  0
 26 25  1  1
 26 27  1  0
 27 17  1  0
 28 26  1  0
 29 28  2  0
 30 28  1  0
M  END
$$$$
