FTR.pdb
     RDKit          3D

 30 30  0  0  1  0  0  0  0  0999 V2000
   28.2712  -21.9111   -8.9130 N   0  0  0  0  0  0  0  0  0  0  0  0
   27.3234  -20.8319   -8.8948 C   0  0  1  0  0  0  0  0  0  0  0  0
   27.9660  -19.5714   -8.3792 C   0  0  0  0  0  0  0  0  0  0  0  0
   28.2397  -19.7329   -6.9375 C   0  0  0  0  0  0  0  0  0  0  0  0
   27.2555  -19.4881   -6.0100 C   0  0  0  0  0  0  0  0  0  0  0  0
   27.4939  -19.6351   -4.6394 C   0  0  0  0  0  0  0  0  0  0  0  0
   28.7601  -20.0375   -4.2439 C   0  0  0  0  0  0  0  0  0  0  0  0
   29.7571  -20.2875   -5.1473 C   0  0  0  0  0  0  0  0  0  0  0  0
   29.4786  -20.1300   -6.4882 C   0  0  0  0  0  0  0  0  0  0  0  0
   26.7071  -20.6432  -10.2295 C   0  0  0  0  0  0  0  0  0  0  0  0
   27.4800  -20.7313  -11.2276 O   0  0  0  0  0  0  0  0  0  0  0  0
   26.5335  -21.8362  -12.5349 C   0  0  0  0  0  0  0  0  0  0  0  0
   25.0717  -21.4914  -12.4677 C   0  0  1  0  0  0  0  0  0  0  0  0
   24.3450  -22.4782  -11.8229 O   0  0  0  0  0  0  0  0  0  0  0  0
   24.8340  -20.1853  -11.7291 C   0  0  2  0  0  0  0  0  0  0  0  0
   25.3235  -20.3767  -10.3990 N   0  0  0  0  0  0  0  0  0  0  0  0
   23.3821  -19.8561  -11.7576 C   0  0  0  0  0  0  0  0  0  0  0  0
   22.6462  -20.1070  -10.7440 O   0  0  0  0  0  0  0  0  0  0  0  0
   22.3285  -21.2814  -17.3045 N   0  0  0  0  0  0  0  0  0  0  0  0
   20.9577  -21.3630  -17.7318 C   0  0  0  0  0  0  0  0  0  0  0  0
   20.5507  -22.4192  -18.3830 N   0  0  0  0  0  0  0  0  0  0  0  0
   20.0465  -20.3193  -17.4580 N   0  0  0  0  0  0  0  0  0  0  0  0
   20.4726  -19.2509  -16.5830 C   0  0  0  0  0  0  0  0  0  0  0  0
   20.6637  -19.7201  -15.1615 C   0  0  0  0  0  0  0  0  0  0  0  0
   20.9621  -18.5758  -14.2610 C   0  0  0  0  0  0  0  0  0  0  0  0
   21.2813  -18.9478  -12.8330 C   0  0  2  0  0  0  0  0  0  0  0  0
   22.7065  -19.2643  -12.8476 N   0  0  0  0  0  0  0  0  0  0  0  0
   20.4644  -20.0835  -12.4155 C   0  0  0  0  0  0  0  0  0  0  0  0
   20.6717  -21.2822  -12.6774 O   0  0  0  0  0  0  0  0  0  0  0  0
   19.3310  -19.8136  -11.6428 O   0  0  0  0  0  0  0  0  0  0  0  0
  2  1  1  6
  2 10  1  0
  3  2  1  0
  4  5  2  0
  4  3  1  0
  6  5  1  0
  7  6  2  0
  8  7  1  0
  8  9  2  0
  9  4  1  0
 10 16  1  0
 10 11  2  0
 13 12  1  1
 14 13  1  0
 15 13  1  0
 15 16  1  1
 17 18  2  0
 17 15  1  0
 20 22  1  0
 20 19  1  0
 21 20  2  0
 23 22  1  0
 24 23  1  0
 24 25  1  0
 26 25  1  6
 26 27  1  0
 27 17  1  0
 28 26  1  0
 29 28  2  0
 30 28  1  0
M  END
$$$$
