FTR.pdb
     RDKit          3D

 30 30  0  0  1  0  0  0  0  0999 V2000
   30.1101  -22.6524  -13.4563 N   0  0  0  0  0  0  0  0  0  0  0  0
   29.2164  -21.8005  -12.7222 C   0  0  1  0  0  0  0  0  0  0  0  0
   29.9856  -20.7374  -11.9834 C   0  0  0  0  0  0  0  0  0  0  0  0
   30.6613  -21.3572  -10.8263 C   0  0  0  0  0  0  0  0  0  0  0  0
   30.0601  -21.3642   -9.5903 C   0  0  0  0  0  0  0  0  0  0  0  0
   30.6829  -21.9461   -8.4811 C   0  0  0  0  0  0  0  0  0  0  0  0
   31.9316  -22.5183   -8.6682 C   0  0  0  0  0  0  0  0  0  0  0  0
   32.5515  -22.5243   -9.8882 C   0  0  0  0  0  0  0  0  0  0  0  0
   31.9017  -21.9398  -10.9543 C   0  0  0  0  0  0  0  0  0  0  0  0
   28.1780  -21.2275  -13.6111 C   0  0  0  0  0  0  0  0  0  0  0  0
   28.5670  -20.8109  -14.7410 O   0  0  0  0  0  0  0  0  0  0  0  0
   26.9037  -21.9783  -16.0053 C   0  0  0  0  0  0  0  0  0  0  0  0
   25.6557  -21.6871  -15.2192 C   0  0  1  0  0  0  0  0  0  0  0  0
   25.1945  -22.8142  -14.5603 O   0  0  0  0  0  0  0  0  0  0  0  0
   25.8851  -20.6046  -14.1782 C   0  0  2  0  0  0  0  0  0  0  0  0
   26.8131  -21.1422  -13.2319 N   0  0  0  0  0  0  0  0  0  0  0  0
   24.5858  -20.2352  -13.5517 C   0  0  0  0  0  0  0  0  0  0  0  0
   24.2874  -20.6683  -12.3876 O   0  0  0  0  0  0  0  0  0  0  0  0
   19.8806  -14.8802  -17.9472 N   0  0  0  0  0  0  0  0  0  0  0  0
   19.0403  -15.8850  -17.3533 C   0  0  0  0  0  0  0  0  0  0  0  0
   17.7442  -15.7981  -17.4871 N   0  0  0  0  0  0  0  0  0  0  0  0
   19.5952  -16.9627  -16.6286 N   0  0  0  0  0  0  0  0  0  0  0  0
   21.0319  -17.0224  -16.4843 C   0  0  0  0  0  0  0  0  0  0  0  0
   21.4805  -18.2647  -15.7544 C   0  0  0  0  0  0  0  0  0  0  0  0
   21.7613  -17.9678  -14.3253 C   0  0  0  0  0  0  0  0  0  0  0  0
   22.3151  -19.1224  -13.5256 C   0  0  2  0  0  0  0  0  0  0  0  0
   23.6041  -19.4123  -14.1468 N   0  0  0  0  0  0  0  0  0  0  0  0
   21.4011  -20.2593  -13.5864 C   0  0  0  0  0  0  0  0  0  0  0  0
   21.4887  -21.2415  -14.3453 O   0  0  0  0  0  0  0  0  0  0  0  0
   20.3121  -20.2592  -12.7097 O   0  0  0  0  0  0  0  0  0  0  0  0
  2  1  1  6
  2 10  1  0
  3  2  1  0
  4  5  2  0
  4  3  1  0
  6  5  1  0
  7  6  2  0
  8  7  1  0
  8  9  2  0
  9  4  1  0
 10 16  1  0
 10 11  2  0
 13 12  1  1
 14 13  1  0
 15 13  1  0
 15 16  1  1
 17 18  2  0
 17 15  1  0
 20 22  1  0
 20 19  1  0
 21 20  2  0
 23 22  1  0
 24 23  1  0
 24 25  1  0
 26 25  1  6
 26 27  1  0
 27 17  1  0
 28 26  1  0
 29 28  2  0
 30 28  1  0
M  END
$$$$
