FTR.pdb
     RDKit          3D

 30 30  0  0  1  0  0  0  0  0999 V2000
   28.6183  -21.4950   -8.7499 N   0  0  0  0  0  0  0  0  0  0  0  0
   27.4779  -20.6233   -8.8059 C   0  0  1  0  0  0  0  0  0  0  0  0
   27.8102  -19.2781   -8.2161 C   0  0  0  0  0  0  0  0  0  0  0  0
   28.1374  -19.4536   -6.7872 C   0  0  0  0  0  0  0  0  0  0  0  0
   27.1367  -19.5420   -5.8492 C   0  0  0  0  0  0  0  0  0  0  0  0
   27.4249  -19.7083   -4.4905 C   0  0  0  0  0  0  0  0  0  0  0  0
   28.7581  -19.7816   -4.1177 C   0  0  0  0  0  0  0  0  0  0  0  0
   29.7729  -19.6963   -5.0318 C   0  0  0  0  0  0  0  0  0  0  0  0
   29.4435  -19.5326   -6.3604 C   0  0  0  0  0  0  0  0  0  0  0  0
   26.9575  -20.5171  -10.1896 C   0  0  0  0  0  0  0  0  0  0  0  0
   27.8181  -20.4197  -11.1124 O   0  0  0  0  0  0  0  0  0  0  0  0
   27.2208  -21.6161  -12.5863 C   0  0  0  0  0  0  0  0  0  0  0  0
   25.7175  -21.5955  -12.5846 C   0  0  1  0  0  0  0  0  0  0  0  0
   25.1936  -22.7254  -11.9793 O   0  0  0  0  0  0  0  0  0  0  0  0
   25.1713  -20.3826  -11.8506 C   0  0  2  0  0  0  0  0  0  0  0  0
   25.5691  -20.5226  -10.4839 N   0  0  0  0  0  0  0  0  0  0  0  0
   23.6916  -20.3317  -12.0085 C   0  0  0  0  0  0  0  0  0  0  0  0
   22.9323  -20.8489  -11.1208 O   0  0  0  0  0  0  0  0  0  0  0  0
   19.1684  -17.5061  -18.9387 N   0  0  0  0  0  0  0  0  0  0  0  0
   18.1029  -17.9262  -18.0689 C   0  0  0  0  0  0  0  0  0  0  0  0
   16.8748  -17.9265  -18.5130 N   0  0  0  0  0  0  0  0  0  0  0  0
   18.3646  -18.3377  -16.7434 N   0  0  0  0  0  0  0  0  0  0  0  0
   19.7151  -18.2166  -16.2434 C   0  0  0  0  0  0  0  0  0  0  0  0
   19.8657  -18.8015  -14.8606 C   0  0  0  0  0  0  0  0  0  0  0  0
   21.2959  -19.0561  -14.5454 C   0  0  0  0  0  0  0  0  0  0  0  0
   21.5576  -19.6542  -13.1841 C   0  0  2  0  0  0  0  0  0  0  0  0
   23.0125  -19.7383  -13.0954 N   0  0  0  0  0  0  0  0  0  0  0  0
   20.9183  -20.9627  -13.0794 C   0  0  0  0  0  0  0  0  0  0  0  0
   21.2438  -21.9979  -13.6882 O   0  0  0  0  0  0  0  0  0  0  0  0
   19.8287  -21.0807  -12.2114 O   0  0  0  0  0  0  0  0  0  0  0  0
  2  1  1  6
  2 10  1  0
  3  2  1  0
  4  5  2  0
  4  3  1  0
  6  5  1  0
  7  6  2  0
  8  7  1  0
  8  9  2  0
  9  4  1  0
 10 16  1  0
 10 11  2  0
 13 12  1  1
 14 13  1  0
 15 13  1  0
 15 16  1  1
 17 18  2  0
 17 15  1  0
 20 22  1  0
 20 19  1  0
 21 20  2  0
 23 22  1  0
 24 23  1  0
 24 25  1  0
 26 25  1  6
 26 27  1  0
 27 17  1  0
 28 26  1  0
 29 28  2  0
 30 28  1  0
M  END
$$$$
