FTR.pdb
     RDKit          3D

 30 30  0  0  1  0  0  0  0  0999 V2000
   28.9924  -27.1764  -16.8393 N   0  0  0  0  0  0  0  0  0  0  0  0
   27.6250  -27.2279  -17.2761 C   0  0  1  0  0  0  0  0  0  0  0  0
   26.7382  -27.7552  -16.1790 C   0  0  0  0  0  0  0  0  0  0  0  0
   26.9435  -29.2123  -16.0611 C   0  0  0  0  0  0  0  0  0  0  0  0
   27.8053  -29.7204  -15.1186 C   0  0  0  0  0  0  0  0  0  0  0  0
   28.0142  -31.0976  -14.9902 C   0  0  0  0  0  0  0  0  0  0  0  0
   27.3214  -31.9383  -15.8475 C   0  0  0  0  0  0  0  0  0  0  0  0
   26.4580  -31.4578  -16.7942 C   0  0  0  0  0  0  0  0  0  0  0  0
   26.2821  -30.0935  -16.8860 C   0  0  0  0  0  0  0  0  0  0  0  0
   27.1762  -25.9064  -17.7751 C   0  0  0  0  0  0  0  0  0  0  0  0
   28.0109  -24.9584  -17.6972 O   0  0  0  0  0  0  0  0  0  0  0  0
   27.9229  -24.3611  -19.8665 C   0  0  0  0  0  0  0  0  0  0  0  0
   26.4536  -24.3675  -20.1847 C   0  0  1  0  0  0  0  0  0  0  0  0
   26.1098  -25.4470  -20.9809 O   0  0  0  0  0  0  0  0  0  0  0  0
   25.6047  -24.4325  -18.9264 C   0  0  2  0  0  0  0  0  0  0  0  0
   25.8809  -25.6960  -18.3157 N   0  0  0  0  0  0  0  0  0  0  0  0
   24.1685  -24.2790  -19.2881 C   0  0  0  0  0  0  0  0  0  0  0  0
   23.3297  -25.1959  -18.9923 O   0  0  0  0  0  0  0  0  0  0  0  0
   17.2574  -24.5500  -18.0291 N   0  0  0  0  0  0  0  0  0  0  0  0
   18.3506  -25.0534  -17.2417 C   0  0  0  0  0  0  0  0  0  0  0  0
   18.2845  -26.2618  -16.7511 N   0  0  0  0  0  0  0  0  0  0  0  0
   19.4928  -24.2614  -16.9917 N   0  0  0  0  0  0  0  0  0  0  0  0
   19.5042  -22.9024  -17.4832 C   0  0  0  0  0  0  0  0  0  0  0  0
   20.0649  -22.8063  -18.8809 C   0  0  0  0  0  0  0  0  0  0  0  0
   21.5401  -22.9887  -18.8741 C   0  0  0  0  0  0  0  0  0  0  0  0
   22.1901  -23.0214  -20.2364 C   0  0  2  0  0  0  0  0  0  0  0  0
   23.6160  -23.1648  -19.9576 N   0  0  0  0  0  0  0  0  0  0  0  0
   21.8877  -21.7937  -20.9665 C   0  0  0  0  0  0  0  0  0  0  0  0
   22.4641  -20.6976  -20.8451 O   0  0  0  0  0  0  0  0  0  0  0  0
   20.8479  -21.8377  -21.9000 O   0  0  0  0  0  0  0  0  0  0  0  0
  2  1  1  1
  2 10  1  0
  3  2  1  0
  4  5  2  0
  4  3  1  0
  6  5  1  0
  7  6  2  0
  8  7  1  0
  8  9  2  0
  9  4  1  0
 10 16  1  0
 10 11  2  0
 13 12  1  1
 14 13  1  0
 15 13  1  0
 15 16  1  6
 17 18  2  0
 17 15  1  0
 20 22  1  0
 20 19  1  0
 21 20  2  0
 23 22  1  0
 24 23  1  0
 24 25  1  0
 26 25  1  1
 26 27  1  0
 27 17  1  0
 28 26  1  0
 29 28  2  0
 30 28  1  0
M  END
$$$$
