FTR.pdb
     RDKit          3D

 30 30  0  0  1  0  0  0  0  0999 V2000
   28.9254  -20.2591   -8.9906 N   0  0  0  0  0  0  0  0  0  0  0  0
   27.5559  -20.6874   -9.0548 C   0  0  1  0  0  0  0  0  0  0  0  0
   26.7832  -20.1698   -7.8703 C   0  0  0  0  0  0  0  0  0  0  0  0
   27.6033  -20.3439   -6.6551 C   0  0  0  0  0  0  0  0  0  0  0  0
   28.8738  -20.8613   -6.7405 C   0  0  0  0  0  0  0  0  0  0  0  0
   29.6675  -21.0344   -5.6015 C   0  0  0  0  0  0  0  0  0  0  0  0
   29.1299  -20.6660   -4.3780 C   0  0  0  0  0  0  0  0  0  0  0  0
   27.8680  -20.1486   -4.2662 C   0  0  0  0  0  0  0  0  0  0  0  0
   27.1205  -19.9951   -5.4143 C   0  0  0  0  0  0  0  0  0  0  0  0
   26.9367  -20.2971  -10.3436 C   0  0  0  0  0  0  0  0  0  0  0  0
   27.2923  -19.1836  -10.8285 O   0  0  0  0  0  0  0  0  0  0  0  0
   27.5335  -19.5097  -12.7831 C   0  0  0  0  0  0  0  0  0  0  0  0
   26.4468  -20.4457  -13.2340 C   0  0  1  0  0  0  0  0  0  0  0  0
   26.9436  -21.7093  -13.5058 O   0  0  0  0  0  0  0  0  0  0  0  0
   25.3584  -20.5930  -12.1844 C   0  0  2  0  0  0  0  0  0  0  0  0
   25.9919  -21.1169  -11.0141 N   0  0  0  0  0  0  0  0  0  0  0  0
   24.2890  -21.4911  -12.7010 C   0  0  0  0  0  0  0  0  0  0  0  0
   24.1954  -22.6912  -12.2735 O   0  0  0  0  0  0  0  0  0  0  0  0
   16.9695  -21.2829  -10.8047 N   0  0  0  0  0  0  0  0  0  0  0  0
   17.5748  -22.5395  -11.1555 C   0  0  0  0  0  0  0  0  0  0  0  0
   16.8176  -23.5883  -11.3345 N   0  0  0  0  0  0  0  0  0  0  0  0
   18.9739  -22.6558  -11.3091 N   0  0  0  0  0  0  0  0  0  0  0  0
   19.7833  -21.4731  -11.1231 C   0  0  0  0  0  0  0  0  0  0  0  0
   20.5588  -21.1117  -12.3662 C   0  0  0  0  0  0  0  0  0  0  0  0
   21.4433  -22.2311  -12.7836 C   0  0  0  0  0  0  0  0  0  0  0  0
   22.2168  -21.9980  -14.0590 C   0  0  2  0  0  0  0  0  0  0  0  0
   23.3207  -21.1283  -13.6632 N   0  0  0  0  0  0  0  0  0  0  0  0
   21.3553  -21.3799  -15.0627 C   0  0  0  0  0  0  0  0  0  0  0  0
   21.3244  -20.1754  -15.3733 O   0  0  0  0  0  0  0  0  0  0  0  0
   20.4697  -22.2124  -15.7536 O   0  0  0  0  0  0  0  0  0  0  0  0
  2  1  1  6
  2 10  1  0
  3  2  1  0
  4  5  2  0
  4  3  1  0
  6  5  1  0
  7  6  2  0
  8  7  1  0
  8  9  2  0
  9  4  1  0
 10 16  1  0
 10 11  2  0
 13 12  1  1
 14 13  1  0
 15 13  1  0
 15 16  1  1
 17 18  2  0
 17 15  1  0
 20 22  1  0
 20 19  1  0
 21 20  2  0
 23 22  1  0
 24 23  1  0
 24 25  1  0
 26 25  1  1
 26 27  1  0
 27 17  1  0
 28 26  1  0
 29 28  2  0
 30 28  1  0
M  END
$$$$
