FTR.pdb
     RDKit          3D

 30 30  0  0  1  0  0  0  0  0999 V2000
   22.4003  -19.8142  -16.1670 N   0  0  0  0  0  0  0  0  0  0  0  0
   21.0686  -20.0169  -15.6681 C   0  0  1  0  0  0  0  0  0  0  0  0
   20.2542  -20.8232  -16.6451 C   0  0  0  0  0  0  0  0  0  0  0  0
   20.1161  -20.0537  -17.8974 C   0  0  0  0  0  0  0  0  0  0  0  0
   20.9836  -20.2630  -18.9428 C   0  0  0  0  0  0  0  0  0  0  0  0
   20.8702  -19.5448  -20.1379 C   0  0  0  0  0  0  0  0  0  0  0  0
   19.8506  -18.6107  -20.2355 C   0  0  0  0  0  0  0  0  0  0  0  0
   18.9740  -18.3835  -19.2095 C   0  0  0  0  0  0  0  0  0  0  0  0
   19.1223  -19.1137  -18.0496 C   0  0  0  0  0  0  0  0  0  0  0  0
   21.0939  -20.6285  -14.3183 C   0  0  0  0  0  0  0  0  0  0  0  0
   22.0686  -21.3938  -14.0616 O   0  0  0  0  0  0  0  0  0  0  0  0
   21.6034  -19.1148  -11.1731 C   0  0  0  0  0  0  0  0  0  0  0  0
   20.3094  -19.8708  -11.0534 C   0  0  1  0  0  0  0  0  0  0  0  0
   19.2164  -19.0428  -11.2463 O   0  0  0  0  0  0  0  0  0  0  0  0
   20.2196  -20.9984  -12.0675 C   0  0  2  0  0  0  0  0  0  0  0  0
   20.0861  -20.3804  -13.3504 N   0  0  0  0  0  0  0  0  0  0  0  0
   19.0612  -21.8732  -11.7358 C   0  0  0  0  0  0  0  0  0  0  0  0
   17.9264  -21.6736  -12.2872 O   0  0  0  0  0  0  0  0  0  0  0  0
   18.1441  -26.5569   -4.4560 N   0  0  0  0  0  0  0  0  0  0  0  0
   16.8431  -26.7168   -5.0479 C   0  0  0  0  0  0  0  0  0  0  0  0
   15.9361  -27.4185   -4.4232 N   0  0  0  0  0  0  0  0  0  0  0  0
   16.5324  -26.1270   -6.2930 N   0  0  0  0  0  0  0  0  0  0  0  0
   17.5588  -25.3609   -6.9624 C   0  0  0  0  0  0  0  0  0  0  0  0
   17.1310  -24.9150   -8.3390 C   0  0  0  0  0  0  0  0  0  0  0  0
   18.2064  -24.1303   -9.0003 C   0  0  0  0  0  0  0  0  0  0  0  0
   17.9077  -23.6952  -10.4149 C   0  0  2  0  0  0  0  0  0  0  0  0
   19.0962  -22.9548  -10.8281 N   0  0  0  0  0  0  0  0  0  0  0  0
   16.7027  -22.8713  -10.4427 C   0  0  0  0  0  0  0  0  0  0  0  0
   16.5412  -21.7740   -9.8786 O   0  0  0  0  0  0  0  0  0  0  0  0
   15.6107  -23.3500  -11.1729 O   0  0  0  0  0  0  0  0  0  0  0  0
  2  1  1  6
  2 10  1  0
  3  2  1  0
  4  5  2  0
  4  3  1  0
  6  5  1  0
  7  6  2  0
  8  7  1  0
  8  9  2  0
  9  4  1  0
 10 16  1  0
 10 11  2  0
 13 12  1  6
 14 13  1  0
 15 13  1  0
 15 16  1  6
 17 18  2  0
 17 15  1  0
 20 22  1  0
 20 19  1  0
 21 20  2  0
 23 22  1  0
 24 23  1  0
 24 25  1  0
 26 25  1  1
 26 27  1  0
 27 17  1  0
 28 26  1  0
 29 28  2  0
 30 28  1  0
M  END
$$$$
