FTR.pdb
     RDKit          3D

 30 30  0  0  1  0  0  0  0  0999 V2000
   27.3537  -20.5194  -14.1322 N   0  0  0  0  0  0  0  0  0  0  0  0
   26.4780  -20.8270  -13.0359 C   0  0  1  0  0  0  0  0  0  0  0  0
   26.9927  -20.2156  -11.7596 C   0  0  0  0  0  0  0  0  0  0  0  0
   28.3010  -20.8190  -11.4374 C   0  0  0  0  0  0  0  0  0  0  0  0
   29.4604  -20.2763  -11.9377 C   0  0  0  0  0  0  0  0  0  0  0  0
   30.7102  -20.8324  -11.6447 C   0  0  0  0  0  0  0  0  0  0  0  0
   30.7429  -21.9535  -10.8300 C   0  0  0  0  0  0  0  0  0  0  0  0
   29.6032  -22.5129  -10.3194 C   0  0  0  0  0  0  0  0  0  0  0  0
   28.3929  -21.9325  -10.6337 C   0  0  0  0  0  0  0  0  0  0  0  0
   25.0863  -20.4145  -13.3354 C   0  0  0  0  0  0  0  0  0  0  0  0
   24.9293  -19.2491  -13.8032 O   0  0  0  0  0  0  0  0  0  0  0  0
   23.7547  -19.4717  -15.3544 C   0  0  0  0  0  0  0  0  0  0  0  0
   22.7783  -20.5677  -15.0295 C   0  0  1  0  0  0  0  0  0  0  0  0
   23.1355  -21.7626  -15.6312 O   0  0  0  0  0  0  0  0  0  0  0  0
   22.6844  -20.8137  -13.5333 C   0  0  2  0  0  0  0  0  0  0  0  0
   23.9744  -21.2686  -13.1154 N   0  0  0  0  0  0  0  0  0  0  0  0
   21.6147  -21.8128  -13.2606 C   0  0  0  0  0  0  0  0  0  0  0  0
   21.8598  -23.0620  -13.3662 O   0  0  0  0  0  0  0  0  0  0  0  0
   18.4734  -24.0465   -6.4648 N   0  0  0  0  0  0  0  0  0  0  0  0
   17.8533  -24.4392   -7.7016 C   0  0  0  0  0  0  0  0  0  0  0  0
   16.8124  -25.2275   -7.6752 N   0  0  0  0  0  0  0  0  0  0  0  0
   18.3525  -23.9858   -8.9424 N   0  0  0  0  0  0  0  0  0  0  0  0
   19.5234  -23.1387   -8.9405 C   0  0  0  0  0  0  0  0  0  0  0  0
   20.0323  -22.8661  -10.3347 C   0  0  0  0  0  0  0  0  0  0  0  0
   18.9197  -22.4702  -11.2373 C   0  0  0  0  0  0  0  0  0  0  0  0
   19.2447  -22.5034  -12.7113 C   0  0  2  0  0  0  0  0  0  0  0  0
   20.2918  -21.4996  -12.8773 N   0  0  0  0  0  0  0  0  0  0  0  0
   18.0520  -22.1966  -13.4955 C   0  0  0  0  0  0  0  0  0  0  0  0
   17.6737  -21.0685  -13.8595 O   0  0  0  0  0  0  0  0  0  0  0  0
   17.2426  -23.2681  -13.8845 O   0  0  0  0  0  0  0  0  0  0  0  0
  2  1  1  6
  2 10  1  0
  3  2  1  0
  4  5  2  0
  4  3  1  0
  6  5  1  0
  7  6  2  0
  8  7  1  0
  8  9  2  0
  9  4  1  0
 10 16  1  0
 10 11  2  0
 13 12  1  1
 14 13  1  0
 15 13  1  0
 15 16  1  6
 17 18  2  0
 17 15  1  0
 20 22  1  0
 20 19  1  0
 21 20  2  0
 23 22  1  0
 24 23  1  0
 24 25  1  0
 26 25  1  1
 26 27  1  0
 27 17  1  0
 28 26  1  0
 29 28  2  0
 30 28  1  0
M  END
$$$$
