FTR.pdb
     RDKit          3D

 30 30  0  0  1  0  0  0  0  0999 V2000
   28.6082  -20.5716  -15.9239 N   0  0  0  0  0  0  0  0  0  0  0  0
   27.4330  -19.8897  -15.4578 C   0  0  1  0  0  0  0  0  0  0  0  0
   26.8155  -19.0801  -16.5673 C   0  0  0  0  0  0  0  0  0  0  0  0
   27.7683  -18.0289  -16.9755 C   0  0  0  0  0  0  0  0  0  0  0  0
   27.8820  -16.8701  -16.2452 C   0  0  0  0  0  0  0  0  0  0  0  0
   28.7785  -15.8617  -16.6146 C   0  0  0  0  0  0  0  0  0  0  0  0
   29.5524  -16.0687  -17.7459 C   0  0  0  0  0  0  0  0  0  0  0  0
   29.4582  -17.2132  -18.4901 C   0  0  0  0  0  0  0  0  0  0  0  0
   28.5616  -18.1810  -18.0899 C   0  0  0  0  0  0  0  0  0  0  0  0
   26.4706  -20.8415  -14.8539 C   0  0  0  0  0  0  0  0  0  0  0  0
   26.9328  -21.9642  -14.4969 O   0  0  0  0  0  0  0  0  0  0  0  0
   26.3641  -21.2589  -12.4376 C   0  0  0  0  0  0  0  0  0  0  0  0
   24.8609  -21.2796  -12.4490 C   0  0  1  0  0  0  0  0  0  0  0  0
   24.3317  -20.1313  -11.8842 O   0  0  0  0  0  0  0  0  0  0  0  0
   24.3095  -21.3972  -13.8597 C   0  0  2  0  0  0  0  0  0  0  0  0
   25.0979  -20.5276  -14.6770 N   0  0  0  0  0  0  0  0  0  0  0  0
   22.8678  -21.0252  -13.8617 C   0  0  0  0  0  0  0  0  0  0  0  0
   22.4535  -20.0543  -13.1423 O   0  0  0  0  0  0  0  0  0  0  0  0
   19.5549  -27.8384  -11.4300 N   0  0  0  0  0  0  0  0  0  0  0  0
   18.3731  -27.3022  -12.0498 C   0  0  0  0  0  0  0  0  0  0  0  0
   17.2965  -28.0380  -12.1216 N   0  0  0  0  0  0  0  0  0  0  0  0
   18.3595  -25.9938  -12.5812 N   0  0  0  0  0  0  0  0  0  0  0  0
   19.4723  -25.1219  -12.2813 C   0  0  0  0  0  0  0  0  0  0  0  0
   19.3009  -23.7501  -12.8860 C   0  0  0  0  0  0  0  0  0  0  0  0
   20.5655  -23.2858  -13.5144 C   0  0  0  0  0  0  0  0  0  0  0  0
   20.5116  -21.9055  -14.1237 C   0  0  2  0  0  0  0  0  0  0  0  0
   21.8652  -21.6713  -14.6182 N   0  0  0  0  0  0  0  0  0  0  0  0
   20.1114  -20.9274  -13.1164 C   0  0  0  0  0  0  0  0  0  0  0  0
   20.6602  -20.7272  -12.0178 O   0  0  0  0  0  0  0  0  0  0  0  0
   19.0008  -20.1269  -13.4000 O   0  0  0  0  0  0  0  0  0  0  0  0
  2  1  1  6
  2 10  1  0
  3  2  1  0
  4  5  2  0
  4  3  1  0
  6  5  1  0
  7  6  2  0
  8  7  1  0
  8  9  2  0
  9  4  1  0
 10 16  1  0
 10 11  2  0
 13 12  1  6
 14 13  1  0
 15 13  1  0
 15 16  1  6
 17 18  2  0
 17 15  1  0
 20 22  1  0
 20 19  1  0
 21 20  2  0
 23 22  1  0
 24 23  1  0
 24 25  1  0
 26 25  1  1
 26 27  1  0
 27 17  1  0
 28 26  1  0
 29 28  2  0
 30 28  1  0
M  END
$$$$
