FTR.pdb
     RDKit          3D

 30 30  0  0  1  0  0  0  0  0999 V2000
   28.5445  -21.7999   -8.8415 N   0  0  0  0  0  0  0  0  0  0  0  0
   27.5018  -20.8245   -8.9991 C   0  0  1  0  0  0  0  0  0  0  0  0
   27.9351  -19.4923   -8.4467 C   0  0  0  0  0  0  0  0  0  0  0  0
   28.1650  -19.6318   -6.9951 C   0  0  0  0  0  0  0  0  0  0  0  0
   27.1037  -19.6779   -6.1230 C   0  0  0  0  0  0  0  0  0  0  0  0
   27.2995  -19.8097   -4.7442 C   0  0  0  0  0  0  0  0  0  0  0  0
   28.6039  -19.8928   -4.2825 C   0  0  0  0  0  0  0  0  0  0  0  0
   29.6777  -19.8494   -5.1297 C   0  0  0  0  0  0  0  0  0  0  0  0
   29.4389  -19.7187   -6.4812 C   0  0  0  0  0  0  0  0  0  0  0  0
   27.0694  -20.7325  -10.4138 C   0  0  0  0  0  0  0  0  0  0  0  0
   27.9407  -21.0025  -11.2909 O   0  0  0  0  0  0  0  0  0  0  0  0
   26.9146  -22.3252  -12.5958 C   0  0  0  0  0  0  0  0  0  0  0  0
   25.5034  -21.8086  -12.6376 C   0  0  1  0  0  0  0  0  0  0  0  0
   24.6627  -22.5584  -11.8323 O   0  0  0  0  0  0  0  0  0  0  0  0
   25.4182  -20.3637  -12.1758 C   0  0  2  0  0  0  0  0  0  0  0  0
   25.7505  -20.3624  -10.7847 N   0  0  0  0  0  0  0  0  0  0  0  0
   24.0480  -19.8406  -12.4324 C   0  0  0  0  0  0  0  0  0  0  0  0
   23.1584  -19.8921  -11.5170 O   0  0  0  0  0  0  0  0  0  0  0  0
   18.8305  -15.6584  -16.4798 N   0  0  0  0  0  0  0  0  0  0  0  0
   20.0243  -15.0261  -16.9731 C   0  0  0  0  0  0  0  0  0  0  0  0
   20.0651  -13.7249  -17.0761 N   0  0  0  0  0  0  0  0  0  0  0  0
   21.1515  -15.7903  -17.3471 N   0  0  0  0  0  0  0  0  0  0  0  0
   21.0892  -17.2252  -17.1868 C   0  0  0  0  0  0  0  0  0  0  0  0
   20.9949  -17.6334  -15.7371 C   0  0  0  0  0  0  0  0  0  0  0  0
   22.2897  -18.1817  -15.2553 C   0  0  0  0  0  0  0  0  0  0  0  0
   22.2765  -18.7143  -13.8426 C   0  0  2  0  0  0  0  0  0  0  0  0
   23.6147  -19.2645  -13.6470 N   0  0  0  0  0  0  0  0  0  0  0  0
   21.2336  -19.7257  -13.6972 C   0  0  0  0  0  0  0  0  0  0  0  0
   21.2669  -20.8926  -14.1278 O   0  0  0  0  0  0  0  0  0  0  0  0
   20.0738  -19.3616  -13.0066 O   0  0  0  0  0  0  0  0  0  0  0  0
  2  1  1  6
  2 10  1  0
  3  2  1  0
  4  5  2  0
  4  3  1  0
  6  5  1  0
  7  6  2  0
  8  7  1  0
  8  9  2  0
  9  4  1  0
 10 16  1  0
 10 11  2  0
 13 12  1  1
 14 13  1  0
 15 13  1  0
 15 16  1  1
 17 18  2  0
 17 15  1  0
 20 22  1  0
 20 19  1  0
 21 20  2  0
 23 22  1  0
 24 23  1  0
 24 25  1  0
 26 25  1  6
 26 27  1  0
 27 17  1  0
 28 26  1  0
 29 28  2  0
 30 28  1  0
M  END
$$$$
