QNC.pdb
     RDKit          3D

 24 23  0  0  1  0  0  0  0  0999 V2000
   19.8377  -15.2993  -16.2021 N   0  0  0  0  0  0  0  0  0  0  0  0
   20.7027  -15.9560  -17.1036 C   0  0  0  0  0  0  0  0  0  0  0  0
   20.3392  -17.0200  -17.6362 O   0  0  0  0  0  0  0  0  0  0  0  0
   22.0239  -15.3835  -17.4089 C   0  0  0  0  0  0  0  0  0  0  0  0
   22.1854  -14.0905  -16.6808 C   0  0  0  0  0  0  0  0  0  0  0  0
   22.2397  -12.8999  -17.6269 C   0  0  2  0  0  0  0  0  0  0  0  0
   23.1248  -13.1694  -18.7393 N   0  0  0  0  0  0  0  0  0  0  0  0
   22.7630  -11.7648  -16.8625 C   0  0  0  0  0  0  0  0  0  0  0  0
   22.2529  -11.4741  -15.7590 O   0  0  0  0  0  0  0  0  0  0  0  0
   26.0562  -11.5240  -15.4133 N   0  0  0  0  0  0  0  0  0  0  0  0
   26.6074  -10.4767  -16.2027 C   0  0  0  0  0  0  0  0  0  0  0  0
   27.8521  -10.3905  -16.3381 O   0  0  0  0  0  0  0  0  0  0  0  0
   25.7537   -9.4693  -16.8812 C   0  0  0  0  0  0  0  0  0  0  0  0
   24.2740   -9.7759  -16.6158 C   0  0  2  0  0  0  0  0  0  0  0  0
   23.8613  -10.9566  -17.3410 N   0  0  0  0  0  0  0  0  0  0  0  0
   23.5175   -8.5711  -17.0551 C   0  0  0  0  0  0  0  0  0  0  0  0
   23.5702   -8.1580  -18.2412 O   0  0  0  0  0  0  0  0  0  0  0  0
   22.6988   -7.8208  -16.1750 N   0  0  0  0  0  0  0  0  0  0  0  0
   21.9014   -6.6960  -16.5124 C   0  0  1  0  0  0  0  0  0  0  0  0
   20.4860   -7.0001  -16.8876 C   0  0  0  0  0  0  0  0  0  0  0  0
   20.3552   -8.2788  -18.1529 S   0  0  0  0  0  0  0  0  0  0  0  0
   21.8878   -5.6548  -15.4646 C   0  0  0  0  0  0  0  0  0  0  0  0
   21.2663   -4.4445  -15.6857 O   0  0  0  0  0  0  0  0  0  0  0  0
   22.4414   -5.8623  -14.3644 O   0  0  0  0  0  0  0  0  0  0  0  0
  2  1  1  0
  2  3  2  0
  4  2  1  0
  5  4  1  0
  6  5  1  0
  6  7  1  6
  8  6  1  0
  8  9  2  0
 10 11  1  0
 11 13  1  0
 11 12  2  0
 14 13  1  6
 14 15  1  0
 14 16  1  0
 15  8  1  0
 16 17  2  0
 16 18  1  0
 18 19  1  0
 19 22  1  0
 19 20  1  1
 21 20  1  0
 22 24  2  0
 22 23  1  0
M  END
$$$$
