QNC.pdb
     RDKit          3D

 24 23  0  0  1  0  0  0  0  0999 V2000
   30.7283  -25.4706  -15.9705 N   0  0  0  0  0  0  0  0  0  0  0  0
   30.6991  -25.3512  -17.3765 C   0  0  0  0  0  0  0  0  0  0  0  0
   31.0511  -26.3149  -18.0805 O   0  0  0  0  0  0  0  0  0  0  0  0
   30.2553  -24.0948  -18.0019 C   0  0  0  0  0  0  0  0  0  0  0  0
   29.7933  -23.1492  -16.9435 C   0  0  0  0  0  0  0  0  0  0  0  0
   28.3368  -23.3755  -16.5652 C   0  0  2  0  0  0  0  0  0  0  0  0
   27.4824  -23.2649  -17.7276 N   0  0  0  0  0  0  0  0  0  0  0  0
   27.9737  -22.3320  -15.6028 C   0  0  0  0  0  0  0  0  0  0  0  0
   28.6859  -22.1473  -14.5924 O   0  0  0  0  0  0  0  0  0  0  0  0
   27.3448  -18.4488  -17.3997 N   0  0  0  0  0  0  0  0  0  0  0  0
   27.0767  -18.4719  -16.0028 C   0  0  0  0  0  0  0  0  0  0  0  0
   27.8192  -17.8339  -15.2174 O   0  0  0  0  0  0  0  0  0  0  0  0
   25.9364  -19.2323  -15.4324 C   0  0  0  0  0  0  0  0  0  0  0  0
   26.4460  -20.5212  -14.7742 C   0  0  2  0  0  0  0  0  0  0  0  0
   26.8079  -21.4962  -15.7785 N   0  0  0  0  0  0  0  0  0  0  0  0
   25.3362  -21.0106  -13.9107 C   0  0  0  0  0  0  0  0  0  0  0  0
   24.3353  -21.5964  -14.3956 O   0  0  0  0  0  0  0  0  0  0  0  0
   25.3363  -20.8494  -12.5029 N   0  0  0  0  0  0  0  0  0  0  0  0
   24.2922  -21.2056  -11.6098 C   0  0  1  0  0  0  0  0  0  0  0  0
   24.6264  -21.1032  -10.1557 C   0  0  0  0  0  0  0  0  0  0  0  0
   26.3325  -21.5637   -9.7942 S   0  0  0  0  0  0  0  0  0  0  0  0
   23.0396  -20.4600  -11.8492 C   0  0  0  0  0  0  0  0  0  0  0  0
   21.8704  -20.8317  -11.2209 O   0  0  0  0  0  0  0  0  0  0  0  0
   23.0283  -19.4822  -12.6261 O   0  0  0  0  0  0  0  0  0  0  0  0
  2  1  1  0
  2  3  2  0
  4  2  1  0
  5  4  1  0
  6  5  1  0
  6  7  1  6
  8  6  1  0
  8  9  2  0
 10 11  1  0
 11 13  1  0
 11 12  2  0
 14 13  1  6
 14 15  1  0
 14 16  1  0
 15  8  1  0
 16 17  2  0
 16 18  1  0
 18 19  1  0
 19 22  1  0
 19 20  1  1
 21 20  1  0
 22 24  2  0
 22 23  1  0
M  END
$$$$
