QNC.pdb
     RDKit          3D

 24 23  0  0  1  0  0  0  0  0999 V2000
   25.3804  -21.6083   -9.2326 N   0  0  0  0  0  0  0  0  0  0  0  0
   24.0293  -21.2178   -9.3521 C   0  0  0  0  0  0  0  0  0  0  0  0
   23.2395  -21.4512   -8.4195 O   0  0  0  0  0  0  0  0  0  0  0  0
   23.5618  -20.5400  -10.5722 C   0  0  0  0  0  0  0  0  0  0  0  0
   24.7051  -20.3736  -11.5173 C   0  0  0  0  0  0  0  0  0  0  0  0
   24.6351  -21.3493  -12.6829 C   0  0  2  0  0  0  0  0  0  0  0  0
   25.2241  -22.6209  -12.3228 N   0  0  0  0  0  0  0  0  0  0  0  0
   25.4015  -20.7613  -13.7846 C   0  0  0  0  0  0  0  0  0  0  0  0
   26.6233  -21.0040  -13.8870 O   0  0  0  0  0  0  0  0  0  0  0  0
   25.6165  -19.4248  -19.6025 N   0  0  0  0  0  0  0  0  0  0  0  0
   26.0938  -19.5532  -18.2685 C   0  0  0  0  0  0  0  0  0  0  0  0
   27.2712  -19.2154  -17.9952 O   0  0  0  0  0  0  0  0  0  0  0  0
   25.2397  -20.0785  -17.1738 C   0  0  0  0  0  0  0  0  0  0  0  0
   25.5756  -19.3606  -15.8600 C   0  0  2  0  0  0  0  0  0  0  0  0
   24.7915  -19.8995  -14.7713 N   0  0  0  0  0  0  0  0  0  0  0  0
   25.2776  -17.9199  -16.0888 C   0  0  0  0  0  0  0  0  0  0  0  0
   24.0972  -17.5028  -16.2029 O   0  0  0  0  0  0  0  0  0  0  0  0
   26.2932  -16.9372  -16.1916 N   0  0  0  0  0  0  0  0  0  0  0  0
   26.1067  -15.5447  -16.3939 C   0  0  1  0  0  0  0  0  0  0  0  0
   26.8475  -14.6525  -15.4496 C   0  0  0  0  0  0  0  0  0  0  0  0
   26.5829  -12.9004  -15.7867 S   0  0  0  0  0  0  0  0  0  0  0  0
   26.4085  -15.1096  -17.7729 C   0  0  0  0  0  0  0  0  0  0  0  0
   25.5201  -14.3191  -18.4699 O   0  0  0  0  0  0  0  0  0  0  0  0
   27.4755  -15.4554  -18.3222 O   0  0  0  0  0  0  0  0  0  0  0  0
  2  1  1  0
  2  3  2  0
  4  2  1  0
  5  4  1  0
  6  5  1  0
  6  7  1  1
  8  6  1  0
  8  9  2  0
 10 11  1  0
 11 13  1  0
 11 12  2  0
 14 13  1  6
 14 15  1  0
 14 16  1  0
 15  8  1  0
 16 17  2  0
 16 18  1  0
 18 19  1  0
 19 22  1  0
 19 20  1  1
 21 20  1  0
 22 24  2  0
 22 23  1  0
M  END
$$$$
