QNC.pdb
     RDKit          3D

 24 23  0  0  1  0  0  0  0  0999 V2000
   14.3107  -12.3393  -16.2419 N   0  0  0  0  0  0  0  0  0  0  0  0
   14.0394  -11.1011  -15.6211 C   0  0  0  0  0  0  0  0  0  0  0  0
   12.9354  -10.9173  -15.0775 O   0  0  0  0  0  0  0  0  0  0  0  0
   15.0570  -10.0377  -15.6186 C   0  0  0  0  0  0  0  0  0  0  0  0
   15.7027   -9.9709  -14.2745 C   0  0  0  0  0  0  0  0  0  0  0  0
   17.2018  -10.2231  -14.3428 C   0  0  2  0  0  0  0  0  0  0  0  0
   17.5039  -11.6033  -14.0309 N   0  0  0  0  0  0  0  0  0  0  0  0
   17.8311   -9.3573  -13.3422 C   0  0  0  0  0  0  0  0  0  0  0  0
   17.7455   -9.6490  -12.1298 O   0  0  0  0  0  0  0  0  0  0  0  0
   20.6135   -5.8510  -10.8476 N   0  0  0  0  0  0  0  0  0  0  0  0
   21.1309   -5.9125  -12.1714 C   0  0  0  0  0  0  0  0  0  0  0  0
   22.1890   -5.2994  -12.4536 O   0  0  0  0  0  0  0  0  0  0  0  0
   20.4569   -6.6851  -13.2451 C   0  0  0  0  0  0  0  0  0  0  0  0
   19.1885   -7.3485  -12.6927 C   0  0  2  0  0  0  0  0  0  0  0  0
   18.5571   -8.1623  -13.7073 N   0  0  0  0  0  0  0  0  0  0  0  0
   18.3008   -6.2380  -12.2506 C   0  0  0  0  0  0  0  0  0  0  0  0
   17.5726   -5.6149  -13.0641 O   0  0  0  0  0  0  0  0  0  0  0  0
   18.2203   -5.8163  -10.9002 N   0  0  0  0  0  0  0  0  0  0  0  0
   17.3606   -4.8162  -10.3752 C   0  0  1  0  0  0  0  0  0  0  0  0
   17.1123   -4.8898   -8.9023 C   0  0  0  0  0  0  0  0  0  0  0  0
   16.4624   -6.4891   -8.3796 S   0  0  0  0  0  0  0  0  0  0  0  0
   17.7950   -3.4427  -10.7022 C   0  0  0  0  0  0  0  0  0  0  0  0
   17.0419   -2.3565  -10.3112 O   0  0  0  0  0  0  0  0  0  0  0  0
   18.8528   -3.2523  -11.3384 O   0  0  0  0  0  0  0  0  0  0  0  0
  2  1  1  0
  2  3  2  0
  4  2  1  0
  5  4  1  0
  6  5  1  0
  6  7  1  1
  8  6  1  0
  8  9  2  0
 10 11  1  0
 11 13  1  0
 11 12  2  0
 14 13  1  6
 14 15  1  0
 14 16  1  0
 15  8  1  0
 16 17  2  0
 16 18  1  0
 18 19  1  0
 19 22  1  0
 19 20  1  1
 21 20  1  0
 22 24  2  0
 22 23  1  0
M  END
$$$$
