QNC.pdb
     RDKit          3D

 24 23  0  0  1  0  0  0  0  0999 V2000
   20.4000  -14.5381  -17.2228 N   0  0  0  0  0  0  0  0  0  0  0  0
   19.0465  -14.3696  -17.5859 C   0  0  0  0  0  0  0  0  0  0  0  0
   18.4589  -15.2792  -18.1986 O   0  0  0  0  0  0  0  0  0  0  0  0
   18.3388  -13.1260  -17.2409 C   0  0  0  0  0  0  0  0  0  0  0  0
   17.7360  -12.5390  -18.4738 C   0  0  0  0  0  0  0  0  0  0  0  0
   18.4959  -11.3130  -18.9587 C   0  0  2  0  0  0  0  0  0  0  0  0
   19.9201  -11.4856  -18.7708 N   0  0  0  0  0  0  0  0  0  0  0  0
   18.0408  -10.1767  -18.1534 C   0  0  0  0  0  0  0  0  0  0  0  0
   16.8198   -9.9191  -18.0811 O   0  0  0  0  0  0  0  0  0  0  0  0
   21.4220   -7.6545  -15.2138 N   0  0  0  0  0  0  0  0  0  0  0  0
   20.3626   -8.6033  -15.1795 C   0  0  0  0  0  0  0  0  0  0  0  0
   20.6272   -9.8261  -15.0803 O   0  0  0  0  0  0  0  0  0  0  0  0
   18.9373   -8.1952  -15.2574 C   0  0  0  0  0  0  0  0  0  0  0  0
   18.4835   -8.1626  -16.7227 C   0  0  2  0  0  0  0  0  0  0  0  0
   18.9612   -9.3301  -17.4291 N   0  0  0  0  0  0  0  0  0  0  0  0
   19.0400   -6.9078  -17.2994 C   0  0  0  0  0  0  0  0  0  0  0  0
   20.1017   -6.9079  -17.9723 O   0  0  0  0  0  0  0  0  0  0  0  0
   18.4162   -5.6470  -17.1290 N   0  0  0  0  0  0  0  0  0  0  0  0
   18.8779   -4.3999  -17.6253 C   0  0  1  0  0  0  0  0  0  0  0  0
   18.2656   -3.9542  -18.9149 C   0  0  0  0  0  0  0  0  0  0  0  0
   18.8760   -2.3478  -19.4629 S   0  0  0  0  0  0  0  0  0  0  0  0
   18.7494   -3.2992  -16.6485 C   0  0  0  0  0  0  0  0  0  0  0  0
   19.6183   -2.2296  -16.6779 O   0  0  0  0  0  0  0  0  0  0  0  0
   17.8488   -3.3277  -15.7837 O   0  0  0  0  0  0  0  0  0  0  0  0
  2  1  1  0
  2  3  2  0
  4  2  1  0
  5  4  1  0
  6  5  1  0
  6  7  1  1
  8  6  1  0
  8  9  2  0
 10 11  1  0
 11 13  1  0
 11 12  2  0
 14 13  1  1
 14 15  1  0
 14 16  1  0
 15  8  1  0
 16 17  2  0
 16 18  1  0
 18 19  1  0
 19 22  1  0
 19 20  1  6
 21 20  1  0
 22 24  2  0
 22 23  1  0
M  END
$$$$
