QNC.pdb
     RDKit          3D

 24 23  0  0  1  0  0  0  0  0999 V2000
   21.8298  -16.3929  -16.1405 N   0  0  0  0  0  0  0  0  0  0  0  0
   22.9024  -17.2366  -15.7800 C   0  0  0  0  0  0  0  0  0  0  0  0
   22.6748  -18.4224  -15.4801 O   0  0  0  0  0  0  0  0  0  0  0  0
   24.2783  -16.7140  -15.7600 C   0  0  0  0  0  0  0  0  0  0  0  0
   24.2703  -15.2779  -16.1667 C   0  0  0  0  0  0  0  0  0  0  0  0
   25.6755  -14.7081  -16.2953 C   0  0  2  0  0  0  0  0  0  0  0  0
   26.6176  -15.4892  -15.5234 N   0  0  0  0  0  0  0  0  0  0  0  0
   25.6377  -13.3427  -15.7653 C   0  0  0  0  0  0  0  0  0  0  0  0
   25.7965  -13.1497  -14.5406 O   0  0  0  0  0  0  0  0  0  0  0  0
   27.9853  -11.4676  -15.4186 N   0  0  0  0  0  0  0  0  0  0  0  0
   27.7552  -10.3217  -16.2296 C   0  0  0  0  0  0  0  0  0  0  0  0
   28.7218   -9.5962  -16.5680 O   0  0  0  0  0  0  0  0  0  0  0  0
   26.3966   -9.9477  -16.6967 C   0  0  0  0  0  0  0  0  0  0  0  0
   25.3513  -10.8654  -16.0491 C   0  0  2  0  0  0  0  0  0  0  0  0
   25.4209  -12.1940  -16.6149 N   0  0  0  0  0  0  0  0  0  0  0  0
   24.0293  -10.2300  -16.3042 C   0  0  0  0  0  0  0  0  0  0  0  0
   23.4470  -10.3460  -17.4122 O   0  0  0  0  0  0  0  0  0  0  0  0
   23.3498   -9.4622  -15.3261 N   0  0  0  0  0  0  0  0  0  0  0  0
   22.0840   -8.8362  -15.4701 C   0  0  1  0  0  0  0  0  0  0  0  0
   20.9482   -9.5134  -14.7716 C   0  0  0  0  0  0  0  0  0  0  0  0
   20.8212  -11.2666  -15.1763 S   0  0  0  0  0  0  0  0  0  0  0  0
   22.0879   -7.4134  -15.0729 C   0  0  0  0  0  0  0  0  0  0  0  0
   20.9794   -6.6222  -15.2854 O   0  0  0  0  0  0  0  0  0  0  0  0
   23.0996   -6.9123  -14.5387 O   0  0  0  0  0  0  0  0  0  0  0  0
  2  1  1  0
  2  3  2  0
  4  2  1  0
  5  4  1  0
  6  5  1  0
  6  7  1  1
  8  6  1  0
  8  9  2  0
 10 11  1  0
 11 13  1  0
 11 12  2  0
 14 13  1  6
 14 15  1  0
 14 16  1  0
 15  8  1  0
 16 17  2  0
 16 18  1  0
 18 19  1  0
 19 22  1  0
 19 20  1  1
 21 20  1  0
 22 24  2  0
 22 23  1  0
M  END
$$$$
