QNC.pdb
     RDKit          3D

 24 23  0  0  1  0  0  0  0  0999 V2000
   23.8841  -18.7507  -17.1192 N   0  0  0  0  0  0  0  0  0  0  0  0
   23.0259  -18.9120  -18.2281 C   0  0  0  0  0  0  0  0  0  0  0  0
   22.9245  -17.9948  -19.0627 O   0  0  0  0  0  0  0  0  0  0  0  0
   22.2583  -20.1571  -18.3927 C   0  0  0  0  0  0  0  0  0  0  0  0
   22.4973  -21.0471  -17.2185 C   0  0  0  0  0  0  0  0  0  0  0  0
   21.2053  -21.6324  -16.6674 C   0  0  2  0  0  0  0  0  0  0  0  0
   20.0932  -20.7397  -16.9117 N   0  0  0  0  0  0  0  0  0  0  0  0
   21.3848  -21.7895  -15.2217 C   0  0  0  0  0  0  0  0  0  0  0  0
   22.2504  -22.5800  -14.7880 O   0  0  0  0  0  0  0  0  0  0  0  0
   20.8651  -19.2421   -9.7507 N   0  0  0  0  0  0  0  0  0  0  0  0
   21.5146  -19.9242  -10.8169 C   0  0  0  0  0  0  0  0  0  0  0  0
   22.4922  -20.6720  -10.5714 O   0  0  0  0  0  0  0  0  0  0  0  0
   21.0729  -19.7825  -12.2271 C   0  0  0  0  0  0  0  0  0  0  0  0
   20.8568  -21.1689  -12.8478 C   0  0  2  0  0  0  0  0  0  0  0  0
   20.5892  -21.0558  -14.2641 N   0  0  0  0  0  0  0  0  0  0  0  0
   19.7069  -21.7725  -12.1197 C   0  0  0  0  0  0  0  0  0  0  0  0
   18.5187  -21.4940  -12.4210 O   0  0  0  0  0  0  0  0  0  0  0  0
   19.8754  -22.6892  -11.0524 N   0  0  0  0  0  0  0  0  0  0  0  0
   18.8451  -23.3097  -10.2984 C   0  0  1  0  0  0  0  0  0  0  0  0
   19.2739  -23.9160   -9.0003 C   0  0  0  0  0  0  0  0  0  0  0  0
   18.3824  -25.4338   -8.6068 S   0  0  0  0  0  0  0  0  0  0  0  0
   17.6970  -22.4184  -10.0349 C   0  0  0  0  0  0  0  0  0  0  0  0
   16.4327  -22.9369   -9.8543 O   0  0  0  0  0  0  0  0  0  0  0  0
   17.8619  -21.1819   -9.9730 O   0  0  0  0  0  0  0  0  0  0  0  0
  2  1  1  0
  2  3  2  0
  4  2  1  0
  5  4  1  0
  6  5  1  0
  6  7  1  1
  8  6  1  0
  8  9  2  0
 10 11  1  0
 11 13  1  0
 11 12  2  0
 14 13  1  1
 14 15  1  0
 14 16  1  0
 15  8  1  0
 16 17  2  0
 16 18  1  0
 18 19  1  0
 19 22  1  0
 19 20  1  1
 21 20  1  0
 22 24  2  0
 22 23  1  0
M  END
$$$$
