QNC.pdb
     RDKit          3D

 24 23  0  0  1  0  0  0  0  0999 V2000
   26.5423  -20.5279  -15.8153 N   0  0  0  0  0  0  0  0  0  0  0  0
   27.7298  -20.6300  -15.0593 C   0  0  0  0  0  0  0  0  0  0  0  0
   28.7901  -20.9524  -15.6249 O   0  0  0  0  0  0  0  0  0  0  0  0
   27.7103  -20.3563  -13.6132 C   0  0  0  0  0  0  0  0  0  0  0  0
   26.3397  -19.9269  -13.2072 C   0  0  0  0  0  0  0  0  0  0  0  0
   25.5255  -21.0738  -12.6263 C   0  0  2  0  0  0  0  0  0  0  0  0
   25.8542  -22.3199  -13.2839 N   0  0  0  0  0  0  0  0  0  0  0  0
   24.1132  -20.7644  -12.8645 C   0  0  0  0  0  0  0  0  0  0  0  0
   23.5934  -19.7756  -12.3039 O   0  0  0  0  0  0  0  0  0  0  0  0
   20.3156  -19.0834  -14.6502 N   0  0  0  0  0  0  0  0  0  0  0  0
   20.6941  -19.9857  -15.6829 C   0  0  0  0  0  0  0  0  0  0  0  0
   20.2958  -19.7883  -16.8566 O   0  0  0  0  0  0  0  0  0  0  0  0
   21.5538  -21.1672  -15.4203 C   0  0  0  0  0  0  0  0  0  0  0  0
   21.8900  -21.2455  -13.9253 C   0  0  2  0  0  0  0  0  0  0  0  0
   23.2861  -21.5691  -13.7344 N   0  0  0  0  0  0  0  0  0  0  0  0
   21.0016  -22.2964  -13.3569 C   0  0  0  0  0  0  0  0  0  0  0  0
   21.1876  -23.5159  -13.5987 O   0  0  0  0  0  0  0  0  0  0  0  0
   19.9017  -21.9936  -12.5164 N   0  0  0  0  0  0  0  0  0  0  0  0
   18.9682  -22.9172  -11.9776 C   0  0  1  0  0  0  0  0  0  0  0  0
   18.9223  -22.9884  -10.4844 C   0  0  0  0  0  0  0  0  0  0  0  0
   17.6872  -24.1534   -9.8756 S   0  0  0  0  0  0  0  0  0  0  0  0
   17.5917  -22.7118  -12.4725 C   0  0  0  0  0  0  0  0  0  0  0  0
   16.6339  -23.6895  -12.3096 O   0  0  0  0  0  0  0  0  0  0  0  0
   17.2817  -21.6462  -13.0455 O   0  0  0  0  0  0  0  0  0  0  0  0
  2  1  1  0
  2  3  2  0
  4  2  1  0
  5  4  1  0
  6  5  1  0
  6  7  1  6
  8  6  1  0
  8  9  2  0
 10 11  1  0
 11 13  1  0
 11 12  2  0
 14 13  1  6
 14 15  1  0
 14 16  1  0
 15  8  1  0
 16 17  2  0
 16 18  1  0
 18 19  1  0
 19 22  1  0
 19 20  1  1
 21 20  1  0
 22 24  2  0
 22 23  1  0
M  END
$$$$
