QNC.pdb
     RDKit          3D

 24 23  0  0  1  0  0  0  0  0999 V2000
   23.2676  -34.2978  -10.2292 N   0  0  0  0  0  0  0  0  0  0  0  0
   23.4902  -33.0084   -9.6999 C   0  0  0  0  0  0  0  0  0  0  0  0
   24.1766  -32.1930  -10.3418 O   0  0  0  0  0  0  0  0  0  0  0  0
   22.9133  -32.6348   -8.3984 C   0  0  0  0  0  0  0  0  0  0  0  0
   22.1826  -33.8032   -7.8249 C   0  0  0  0  0  0  0  0  0  0  0  0
   21.4463  -33.4482   -6.5414 C   0  0  2  0  0  0  0  0  0  0  0  0
   20.8097  -32.1542   -6.6570 N   0  0  0  0  0  0  0  0  0  0  0  0
   22.4455  -33.3966   -5.4709 C   0  0  0  0  0  0  0  0  0  0  0  0
   23.1371  -32.3665   -5.3193 O   0  0  0  0  0  0  0  0  0  0  0  0
   23.4492  -33.3275   -0.9645 N   0  0  0  0  0  0  0  0  0  0  0  0
   23.2275  -34.7266   -1.0952 C   0  0  0  0  0  0  0  0  0  0  0  0
   22.9257  -35.4047   -0.0832 O   0  0  0  0  0  0  0  0  0  0  0  0
   23.3411  -35.4231   -2.4013 C   0  0  0  0  0  0  0  0  0  0  0  0
   23.6432  -34.4065   -3.5101 C   0  0  2  0  0  0  0  0  0  0  0  0
   22.6658  -34.5055   -4.5708 N   0  0  0  0  0  0  0  0  0  0  0  0
   25.0142  -34.7223   -3.9974 C   0  0  0  0  0  0  0  0  0  0  0  0
   25.2714  -34.8113   -5.2246 O   0  0  0  0  0  0  0  0  0  0  0  0
   26.1050  -34.9405   -3.1197 N   0  0  0  0  0  0  0  0  0  0  0  0
   27.4634  -35.1262   -3.4871 C   0  0  1  0  0  0  0  0  0  0  0  0
   28.0475  -34.0564   -4.3537 C   0  0  0  0  0  0  0  0  0  0  0  0
   29.7723  -34.3648   -4.7822 S   0  0  0  0  0  0  0  0  0  0  0  0
   28.3595  -35.3231   -2.3294 C   0  0  0  0  0  0  0  0  0  0  0  0
   29.5487  -36.0057   -2.4701 O   0  0  0  0  0  0  0  0  0  0  0  0
   28.0467  -34.8710   -1.2079 O   0  0  0  0  0  0  0  0  0  0  0  0
  2  1  1  0
  2  3  2  0
  4  2  1  0
  5  4  1  0
  6  5  1  0
  6  7  1  6
  8  6  1  0
  8  9  2  0
 10 11  1  0
 11 13  1  0
 11 12  2  0
 14 13  1  1
 14 15  1  0
 14 16  1  0
 15  8  1  0
 16 17  2  0
 16 18  1  0
 18 19  1  0
 19 22  1  0
 19 20  1  1
 21 20  1  0
 22 24  2  0
 22 23  1  0
M  END
$$$$
