QNC.pdb
     RDKit          3D

 24 23  0  0  1  0  0  0  0  0999 V2000
   24.6215  -21.0169   -8.3776 N   0  0  0  0  0  0  0  0  0  0  0  0
   25.9282  -20.4921   -8.4742 C   0  0  0  0  0  0  0  0  0  0  0  0
   26.4303  -19.9142   -7.4935 O   0  0  0  0  0  0  0  0  0  0  0  0
   26.6882  -20.6294   -9.7273 C   0  0  0  0  0  0  0  0  0  0  0  0
   25.8367  -21.2993  -10.7540 C   0  0  0  0  0  0  0  0  0  0  0  0
   26.5483  -21.4355  -12.0922 C   0  0  2  0  0  0  0  0  0  0  0  0
   27.4914  -20.3551  -12.2833 N   0  0  0  0  0  0  0  0  0  0  0  0
   25.5221  -21.3657  -13.1357 C   0  0  0  0  0  0  0  0  0  0  0  0
   24.7522  -22.3344  -13.3122 O   0  0  0  0  0  0  0  0  0  0  0  0
   21.6647  -20.6600  -15.7739 N   0  0  0  0  0  0  0  0  0  0  0  0
   21.6898  -20.2500  -14.4118 C   0  0  0  0  0  0  0  0  0  0  0  0
   20.6210  -20.2122  -13.7550 O   0  0  0  0  0  0  0  0  0  0  0  0
   22.9496  -19.8605  -13.7299 C   0  0  0  0  0  0  0  0  0  0  0  0
   24.1295  -19.9857  -14.7028 C   0  0  2  0  0  0  0  0  0  0  0  0
   25.3628  -20.2043  -13.9808 N   0  0  0  0  0  0  0  0  0  0  0  0
   24.1649  -18.7131  -15.4747 C   0  0  0  0  0  0  0  0  0  0  0  0
   23.2089  -17.8975  -15.4419 O   0  0  0  0  0  0  0  0  0  0  0  0
   25.2655  -18.3432  -16.2869 N   0  0  0  0  0  0  0  0  0  0  0  0
   25.5939  -17.0327  -16.7224 C   0  0  1  0  0  0  0  0  0  0  0  0
   27.0436  -16.6735  -16.6453 C   0  0  0  0  0  0  0  0  0  0  0  0
   27.3174  -14.9748  -16.1043 S   0  0  0  0  0  0  0  0  0  0  0  0
   25.1163  -16.7346  -18.0881 C   0  0  0  0  0  0  0  0  0  0  0  0
   24.9848  -15.4313  -18.5170 O   0  0  0  0  0  0  0  0  0  0  0  0
   24.8262  -17.6645  -18.8698 O   0  0  0  0  0  0  0  0  0  0  0  0
  2  1  1  0
  2  3  2  0
  4  2  1  0
  5  4  1  0
  6  5  1  0
  6  7  1  6
  8  6  1  0
  8  9  2  0
 10 11  1  0
 11 13  1  0
 11 12  2  0
 14 13  1  1
 14 15  1  0
 14 16  1  0
 15  8  1  0
 16 17  2  0
 16 18  1  0
 18 19  1  0
 19 22  1  0
 19 20  1  6
 21 20  1  0
 22 24  2  0
 22 23  1  0
M  END
$$$$
