QNC.pdb
     RDKit          3D

 24 23  0  0  1  0  0  0  0  0999 V2000
   21.3331  -15.3266  -21.0560 N   0  0  0  0  0  0  0  0  0  0  0  0
   22.0694  -16.0206  -20.0719 C   0  0  0  0  0  0  0  0  0  0  0  0
   22.5038  -17.1594  -20.3217 O   0  0  0  0  0  0  0  0  0  0  0  0
   22.3195  -15.3989  -18.7614 C   0  0  0  0  0  0  0  0  0  0  0  0
   21.6768  -14.0523  -18.7196 C   0  0  0  0  0  0  0  0  0  0  0  0
   22.6134  -12.9841  -18.1744 C   0  0  2  0  0  0  0  0  0  0  0  0
   23.2452  -13.4320  -16.9522 N   0  0  0  0  0  0  0  0  0  0  0  0
   21.7980  -11.8013  -17.8865 C   0  0  0  0  0  0  0  0  0  0  0  0
   21.1756  -11.2384  -18.8129 O   0  0  0  0  0  0  0  0  0  0  0  0
   18.6687  -11.8277  -16.3513 N   0  0  0  0  0  0  0  0  0  0  0  0
   18.9707  -11.1988  -15.1114 C   0  0  0  0  0  0  0  0  0  0  0  0
   18.2614  -11.4390  -14.1043 O   0  0  0  0  0  0  0  0  0  0  0  0
   20.1086  -10.2569  -14.9630 C   0  0  0  0  0  0  0  0  0  0  0  0
   20.8390  -10.1058  -16.3038 C   0  0  2  0  0  0  0  0  0  0  0  0
   21.6835  -11.2521  -16.5547 N   0  0  0  0  0  0  0  0  0  0  0  0
   21.6344   -8.8514  -16.2016 C   0  0  0  0  0  0  0  0  0  0  0  0
   22.8223   -8.8579  -15.7905 O   0  0  0  0  0  0  0  0  0  0  0  0
   21.1100   -7.5838  -16.5567 N   0  0  0  0  0  0  0  0  0  0  0  0
   21.7999   -6.3436  -16.5274 C   0  0  1  0  0  0  0  0  0  0  0  0
   21.5657   -5.4492  -17.7029 C   0  0  0  0  0  0  0  0  0  0  0  0
   22.3366   -3.8293  -17.5160 S   0  0  0  0  0  0  0  0  0  0  0  0
   21.5487   -5.5650  -15.2974 C   0  0  0  0  0  0  0  0  0  0  0  0
   22.4418   -4.6004  -14.8826 O   0  0  0  0  0  0  0  0  0  0  0  0
   20.5209   -5.7742  -14.6194 O   0  0  0  0  0  0  0  0  0  0  0  0
  2  1  1  0
  2  3  2  0
  4  2  1  0
  5  4  1  0
  6  5  1  0
  6  7  1  1
  8  6  1  0
  8  9  2  0
 10 11  1  0
 11 13  1  0
 11 12  2  0
 14 13  1  1
 14 15  1  0
 14 16  1  0
 15  8  1  0
 16 17  2  0
 16 18  1  0
 18 19  1  0
 19 22  1  0
 19 20  1  6
 21 20  1  0
 22 24  2  0
 22 23  1  0
M  END
$$$$
