QNC.pdb
     RDKit          3D

 24 23  0  0  1  0  0  0  0  0999 V2000
   16.3837  -12.2641  -11.9372 N   0  0  0  0  0  0  0  0  0  0  0  0
   15.4560  -12.6943  -12.9101 C   0  0  0  0  0  0  0  0  0  0  0  0
   15.0871  -13.8825  -12.9214 O   0  0  0  0  0  0  0  0  0  0  0  0
   14.9313  -11.7419  -13.9021 C   0  0  0  0  0  0  0  0  0  0  0  0
   15.4451  -10.3739  -13.5977 C   0  0  0  0  0  0  0  0  0  0  0  0
   14.6780   -9.7100  -12.4635 C   0  0  2  0  0  0  0  0  0  0  0  0
   13.3318   -9.3810  -12.8792 N   0  0  0  0  0  0  0  0  0  0  0  0
   15.3903   -8.4750  -12.1256 C   0  0  0  0  0  0  0  0  0  0  0  0
   15.2782   -7.4739  -12.8655 O   0  0  0  0  0  0  0  0  0  0  0  0
   14.6705   -7.2998   -7.8270 N   0  0  0  0  0  0  0  0  0  0  0  0
   15.4232   -6.5014   -8.7325 C   0  0  0  0  0  0  0  0  0  0  0  0
   14.9082   -5.4683   -9.2250 O   0  0  0  0  0  0  0  0  0  0  0  0
   16.8131   -6.8494   -9.1210 C   0  0  0  0  0  0  0  0  0  0  0  0
   16.8810   -7.1182  -10.6301 C   0  0  2  0  0  0  0  0  0  0  0  0
   16.2293   -8.3675  -10.9539 N   0  0  0  0  0  0  0  0  0  0  0  0
   18.3280   -7.1487  -10.9793 C   0  0  0  0  0  0  0  0  0  0  0  0
   19.0701   -8.0992  -10.6243 O   0  0  0  0  0  0  0  0  0  0  0  0
   18.9551   -6.1204  -11.7257 N   0  0  0  0  0  0  0  0  0  0  0  0
   20.2572   -6.1568  -12.2896 C   0  0  1  0  0  0  0  0  0  0  0  0
   20.5564   -7.3492  -13.1412 C   0  0  0  0  0  0  0  0  0  0  0  0
   22.2470   -7.3556  -13.7698 S   0  0  0  0  0  0  0  0  0  0  0  0
   20.5936   -4.9426  -13.0606 C   0  0  0  0  0  0  0  0  0  0  0  0
   21.8708   -4.4251  -13.0334 O   0  0  0  0  0  0  0  0  0  0  0  0
   19.7203   -4.3714  -13.7471 O   0  0  0  0  0  0  0  0  0  0  0  0
  2  1  1  0
  2  3  2  0
  4  2  1  0
  5  4  1  0
  6  5  1  0
  6  7  1  6
  8  6  1  0
  8  9  2  0
 10 11  1  0
 11 13  1  0
 11 12  2  0
 14 13  1  1
 14 15  1  0
 14 16  1  0
 15  8  1  0
 16 17  2  0
 16 18  1  0
 18 19  1  0
 19 22  1  0
 19 20  1  6
 21 20  1  0
 22 24  2  0
 22 23  1  0
M  END
$$$$
