QNC.pdb
     RDKit          3D

 24 23  0  0  1  0  0  0  0  0999 V2000
   19.3291  -13.0385  -15.8191 N   0  0  0  0  0  0  0  0  0  0  0  0
   19.3004  -13.4008  -17.1830 C   0  0  0  0  0  0  0  0  0  0  0  0
   19.2462  -14.6037  -17.4961 O   0  0  0  0  0  0  0  0  0  0  0  0
   19.3345  -12.3609  -18.2241 C   0  0  0  0  0  0  0  0  0  0  0  0
   19.3925  -11.0153  -17.5806 C   0  0  0  0  0  0  0  0  0  0  0  0
   20.6502  -10.2484  -17.9622 C   0  0  2  0  0  0  0  0  0  0  0  0
   21.8315  -10.9260  -17.4738 N   0  0  0  0  0  0  0  0  0  0  0  0
   20.5594   -8.9292  -17.3312 C   0  0  0  0  0  0  0  0  0  0  0  0
   19.6520   -8.1406  -17.6736 O   0  0  0  0  0  0  0  0  0  0  0  0
   21.2697   -4.7180  -14.4641 N   0  0  0  0  0  0  0  0  0  0  0  0
   21.9033   -5.7820  -13.7638 C   0  0  0  0  0  0  0  0  0  0  0  0
   22.3690   -5.5795  -12.6161 O   0  0  0  0  0  0  0  0  0  0  0  0
   22.0354   -7.1405  -14.3478 C   0  0  0  0  0  0  0  0  0  0  0  0
   21.3888   -7.1753  -15.7388 C   0  0  2  0  0  0  0  0  0  0  0  0
   21.4908   -8.4979  -16.3139 N   0  0  0  0  0  0  0  0  0  0  0  0
   22.1144   -6.1649  -16.5569 C   0  0  0  0  0  0  0  0  0  0  0  0
   23.3557   -6.2371  -16.7415 O   0  0  0  0  0  0  0  0  0  0  0  0
   21.4605   -5.0692  -17.1730 N   0  0  0  0  0  0  0  0  0  0  0  0
   22.0519   -4.1005  -18.0255 C   0  0  1  0  0  0  0  0  0  0  0  0
   21.3787   -3.9099  -19.3473 C   0  0  0  0  0  0  0  0  0  0  0  0
   21.2701   -5.4344  -20.3052 S   0  0  0  0  0  0  0  0  0  0  0  0
   22.2018   -2.7762  -17.3885 C   0  0  0  0  0  0  0  0  0  0  0  0
   22.9039   -1.7702  -18.0171 O   0  0  0  0  0  0  0  0  0  0  0  0
   21.6917   -2.5548  -16.2701 O   0  0  0  0  0  0  0  0  0  0  0  0
  2  1  1  0
  2  3  2  0
  4  2  1  0
  5  4  1  0
  6  5  1  0
  6  7  1  1
  8  6  1  0
  8  9  2  0
 10 11  1  0
 11 13  1  0
 11 12  2  0
 14 13  1  1
 14 15  1  0
 14 16  1  0
 15  8  1  0
 16 17  2  0
 16 18  1  0
 18 19  1  0
 19 22  1  0
 19 20  1  6
 21 20  1  0
 22 24  2  0
 22 23  1  0
M  END
$$$$
