CYY.pdb
     RDKit          3D

 31 32  0  0  1  0  0  0  0  0999 V2000
   23.9689  -36.5038   -5.0080 N   0  0  0  0  0  0  0  0  0  0  0  0
   25.1658  -36.0679   -4.3128 C   0  0  1  0  0  0  0  0  0  0  0  0
   25.6693  -37.2471   -3.5145 C   0  0  0  0  0  0  0  0  0  0  0  0
   24.6349  -37.5862   -2.0709 S   0  0  0  0  0  0  0  0  0  0  0  0
   26.1911  -35.5546   -5.2537 C   0  0  0  0  0  0  0  0  0  0  0  0
   26.2059  -36.0077   -6.4158 O   0  0  0  0  0  0  0  0  0  0  0  0
   23.5595  -32.1452   -9.8448 O   0  0  0  0  0  0  0  0  0  0  0  0
   24.6243  -32.2675   -8.9279 C   0  0  0  0  0  0  0  0  0  0  0  0
   25.9274  -32.3477   -9.3669 C   0  0  0  0  0  0  0  0  0  0  0  0
   26.9610  -32.4668   -8.4693 C   0  0  0  0  0  0  0  0  0  0  0  0
   26.7570  -32.5132   -7.0790 C   0  0  0  0  0  0  0  0  0  0  0  0
   27.9299  -32.6299   -6.1761 C   0  0  0  0  0  0  0  0  0  0  0  0
   28.1690  -34.0546   -5.7010 C   0  0  2  0  0  0  0  0  0  0  0  0
   27.1314  -34.5832   -4.8677 N   0  0  0  0  0  0  0  0  0  0  0  0
   29.5296  -34.2478   -5.1796 C   0  0  0  0  0  0  0  0  0  0  0  0
   29.6998  -34.2770   -3.9373 O   0  0  0  0  0  0  0  0  0  0  0  0
   25.4504  -32.4307   -6.6752 C   0  0  0  0  0  0  0  0  0  0  0  0
   24.3974  -32.3101   -7.5771 C   0  0  0  0  0  0  0  0  0  0  0  0
   37.2554  -36.4894   -2.4304 O   0  0  0  0  0  0  0  0  0  0  0  0
   35.9589  -36.2370   -2.8669 C   0  0  0  0  0  0  0  0  0  0  0  0
   35.3776  -37.0284   -3.8332 C   0  0  0  0  0  0  0  0  0  0  0  0
   34.0949  -36.7972   -4.2806 C   0  0  0  0  0  0  0  0  0  0  0  0
   33.3244  -35.7452   -3.7715 C   0  0  0  0  0  0  0  0  0  0  0  0
   31.9597  -35.5237   -4.2931 C   0  0  0  0  0  0  0  0  0  0  0  0
   31.9907  -34.6543   -5.5154 C   0  0  2  0  0  0  0  0  0  0  0  0
   30.6465  -34.4015   -6.0195 N   0  0  0  0  0  0  0  0  0  0  0  0
   32.8239  -35.1701   -6.6004 C   0  0  0  0  0  0  0  0  0  0  0  0
   34.0256  -35.8191   -6.3943 O   0  0  0  0  0  0  0  0  0  0  0  0
   33.9209  -34.9637   -2.8061 C   0  0  0  0  0  0  0  0  0  0  0  0
   35.2115  -35.1970   -2.3564 C   0  0  0  0  0  0  0  0  0  0  0  0
   32.4511  -35.0280   -7.8046 O   0  0  0  0  0  0  0  0  0  0  0  0
  2  3  1  0
  2  1  1  6
  4  3  1  0
  5  2  1  0
  6  5  2  0
  8  9  2  0
  8  7  1  0
 10  9  1  0
 11 10  2  0
 13 12  1  1
 12 11  1  0
 13 14  1  0
 14  5  1  0
 15 26  1  0
 15 13  1  0
 16 15  2  0
 17 11  1  0
 17 18  2  0
 18  8  1  0
 20 19  1  0
 21 20  2  0
 22 21  1  0
 23 29  1  0
 23 22  2  0
 24 23  1  0
 25 24  1  1
 25 26  1  0
 27 28  1  0
 27 25  1  0
 29 30  2  0
 30 20  1  0
 31 27  2  0
M  END
$$$$
