CYY.pdb
     RDKit          3D

 31 32  0  0  1  0  0  0  0  0999 V2000
   26.2812  -18.1247  -17.9437 N   0  0  0  0  0  0  0  0  0  0  0  0
   25.9090  -18.0315  -16.5442 C   0  0  1  0  0  0  0  0  0  0  0  0
   25.8514  -16.5626  -16.1973 C   0  0  0  0  0  0  0  0  0  0  0  0
   27.4534  -15.9266  -15.6516 S   0  0  0  0  0  0  0  0  0  0  0  0
   24.6229  -18.7184  -16.2712 C   0  0  0  0  0  0  0  0  0  0  0  0
   23.6771  -18.5383  -17.0644 O   0  0  0  0  0  0  0  0  0  0  0  0
   18.4101  -23.7369  -12.2689 O   0  0  0  0  0  0  0  0  0  0  0  0
   19.6296  -23.1303  -12.6352 C   0  0  0  0  0  0  0  0  0  0  0  0
   20.1783  -22.1287  -11.8653 C   0  0  0  0  0  0  0  0  0  0  0  0
   21.3667  -21.5409  -12.2269 C   0  0  0  0  0  0  0  0  0  0  0  0
   22.0796  -21.9171  -13.3788 C   0  0  0  0  0  0  0  0  0  0  0  0
   23.3637  -21.2406  -13.6916 C   0  0  0  0  0  0  0  0  0  0  0  0
   23.2178  -20.1587  -14.7503 C   0  0  2  0  0  0  0  0  0  0  0  0
   24.4517  -19.5547  -15.1541 N   0  0  0  0  0  0  0  0  0  0  0  0
   22.1466  -19.2048  -14.4291 C   0  0  0  0  0  0  0  0  0  0  0  0
   22.3122  -18.4146  -13.4691 O   0  0  0  0  0  0  0  0  0  0  0  0
   21.5075  -22.9157  -14.1222 C   0  0  0  0  0  0  0  0  0  0  0  0
   20.3045  -23.5164  -13.7638 C   0  0  0  0  0  0  0  0  0  0  0  0
   19.4684  -17.1636  -21.0352 O   0  0  0  0  0  0  0  0  0  0  0  0
   19.6029  -17.1105  -19.6517 C   0  0  0  0  0  0  0  0  0  0  0  0
   18.4957  -17.1892  -18.8358 C   0  0  0  0  0  0  0  0  0  0  0  0
   18.6051  -17.1387  -17.4630 C   0  0  0  0  0  0  0  0  0  0  0  0
   19.8494  -17.0050  -16.8359 C   0  0  0  0  0  0  0  0  0  0  0  0
   19.9179  -16.9378  -15.3613 C   0  0  0  0  0  0  0  0  0  0  0  0
   19.8181  -18.3086  -14.7599 C   0  0  2  0  0  0  0  0  0  0  0  0
   20.9450  -19.1440  -15.1562 N   0  0  0  0  0  0  0  0  0  0  0  0
   18.5698  -19.0083  -15.0594 C   0  0  0  0  0  0  0  0  0  0  0  0
   18.5096  -20.1756  -15.7953 O   0  0  0  0  0  0  0  0  0  0  0  0
   20.9461  -16.9276  -17.6665 C   0  0  0  0  0  0  0  0  0  0  0  0
   20.8353  -16.9785  -19.0476 C   0  0  0  0  0  0  0  0  0  0  0  0
   17.4683  -18.5428  -14.6363 O   0  0  0  0  0  0  0  0  0  0  0  0
  2  3  1  0
  2  1  1  6
  4  3  1  0
  5  2  1  0
  6  5  2  0
  8  9  2  0
  8  7  1  0
 10  9  1  0
 11 10  2  0
 13 12  1  1
 12 11  1  0
 13 14  1  0
 14  5  1  0
 15 26  1  0
 15 13  1  0
 16 15  2  0
 17 11  1  0
 17 18  2  0
 18  8  1  0
 20 19  1  0
 21 20  2  0
 22 21  1  0
 23 29  1  0
 23 22  2  0
 24 23  1  0
 25 24  1  6
 25 26  1  0
 27 28  1  0
 27 25  1  0
 29 30  2  0
 30 20  1  0
 31 27  2  0
M  END
$$$$
