CYY.pdb
     RDKit          3D

 31 32  0  0  1  0  0  0  0  0999 V2000
   28.0730  -23.4166  -17.7067 N   0  0  0  0  0  0  0  0  0  0  0  0
   27.6925  -22.1305  -17.1526 C   0  0  1  0  0  0  0  0  0  0  0  0
   27.0429  -21.3427  -18.2655 C   0  0  0  0  0  0  0  0  0  0  0  0
   28.2213  -20.8905  -19.5601 S   0  0  0  0  0  0  0  0  0  0  0  0
   26.7956  -22.2812  -15.9808 C   0  0  0  0  0  0  0  0  0  0  0  0
   26.0848  -23.3037  -15.9087 O   0  0  0  0  0  0  0  0  0  0  0  0
   22.7588  -20.8657   -8.1661 O   0  0  0  0  0  0  0  0  0  0  0  0
   23.6276  -20.7777   -9.2737 C   0  0  0  0  0  0  0  0  0  0  0  0
   24.8436  -21.4247   -9.2694 C   0  0  0  0  0  0  0  0  0  0  0  0
   25.6863  -21.3353  -10.3512 C   0  0  0  0  0  0  0  0  0  0  0  0
   25.3668  -20.5949  -11.5028 C   0  0  0  0  0  0  0  0  0  0  0  0
   26.3279  -20.5603  -12.6340 C   0  0  0  0  0  0  0  0  0  0  0  0
   25.8384  -21.3349  -13.8477 C   0  0  2  0  0  0  0  0  0  0  0  0
   26.7320  -21.3099  -14.9663 N   0  0  0  0  0  0  0  0  0  0  0  0
   24.4386  -21.0302  -14.1766 C   0  0  0  0  0  0  0  0  0  0  0  0
   24.1670  -19.9115  -14.6746 O   0  0  0  0  0  0  0  0  0  0  0  0
   24.1509  -19.9641  -11.4755 C   0  0  0  0  0  0  0  0  0  0  0  0
   23.2912  -20.0489  -10.3845 C   0  0  0  0  0  0  0  0  0  0  0  0
   22.3291  -18.7523  -19.8750 O   0  0  0  0  0  0  0  0  0  0  0  0
   22.1454  -19.6229  -18.8057 C   0  0  0  0  0  0  0  0  0  0  0  0
   21.0345  -19.5171  -17.9980 C   0  0  0  0  0  0  0  0  0  0  0  0
   20.8319  -20.3684  -16.9334 C   0  0  0  0  0  0  0  0  0  0  0  0
   21.7485  -21.3806  -16.6255 C   0  0  0  0  0  0  0  0  0  0  0  0
   21.4994  -22.2596  -15.4640 C   0  0  0  0  0  0  0  0  0  0  0  0
   21.9926  -21.6230  -14.1982 C   0  0  2  0  0  0  0  0  0  0  0  0
   23.3935  -21.9440  -13.9550 N   0  0  0  0  0  0  0  0  0  0  0  0
   21.2079  -21.9568  -13.0106 C   0  0  0  0  0  0  0  0  0  0  0  0
   19.8587  -21.6867  -12.8896 O   0  0  0  0  0  0  0  0  0  0  0  0
   22.8537  -21.4723  -17.4432 C   0  0  0  0  0  0  0  0  0  0  0  0
   23.0569  -20.6154  -18.5141 C   0  0  0  0  0  0  0  0  0  0  0  0
   21.7676  -22.5229  -12.0230 O   0  0  0  0  0  0  0  0  0  0  0  0
  2  3  1  0
  2  1  1  6
  4  3  1  0
  5  2  1  0
  6  5  2  0
  8  9  2  0
  8  7  1  0
 10  9  1  0
 11 10  2  0
 13 12  1  1
 12 11  1  0
 13 14  1  0
 14  5  1  0
 15 26  1  0
 15 13  1  0
 16 15  2  0
 17 11  1  0
 17 18  2  0
 18  8  1  0
 20 19  1  0
 21 20  2  0
 22 21  1  0
 23 29  1  0
 23 22  2  0
 24 23  1  0
 25 24  1  6
 25 26  1  0
 27 28  1  0
 27 25  1  0
 29 30  2  0
 30 20  1  0
 31 27  2  0
M  END
$$$$
