CYY.pdb
     RDKit          3D

 31 32  0  0  1  0  0  0  0  0999 V2000
   23.6074  -13.5675  -18.8298 N   0  0  0  0  0  0  0  0  0  0  0  0
   23.0848  -12.2144  -18.7874 C   0  0  1  0  0  0  0  0  0  0  0  0
   21.6114  -12.2976  -19.1088 C   0  0  0  0  0  0  0  0  0  0  0  0
   21.3092  -12.4956  -20.8804 S   0  0  0  0  0  0  0  0  0  0  0  0
   23.3320  -11.5713  -17.4738 C   0  0  0  0  0  0  0  0  0  0  0  0
   23.5516  -12.3049  -16.4890 O   0  0  0  0  0  0  0  0  0  0  0  0
   29.6819  -11.2400  -17.0720 O   0  0  0  0  0  0  0  0  0  0  0  0
   28.4638  -10.5778  -16.8128 C   0  0  0  0  0  0  0  0  0  0  0  0
   27.8410   -9.8374  -17.7932 C   0  0  0  0  0  0  0  0  0  0  0  0
   26.6544   -9.1941  -17.5353 C   0  0  0  0  0  0  0  0  0  0  0  0
   26.0173   -9.2504  -16.2833 C   0  0  0  0  0  0  0  0  0  0  0  0
   24.7296   -8.5370  -16.0907 C   0  0  0  0  0  0  0  0  0  0  0  0
   23.5312   -9.4734  -16.0878 C   0  0  2  0  0  0  0  0  0  0  0  0
   23.3239  -10.1739  -17.3193 N   0  0  0  0  0  0  0  0  0  0  0  0
   22.3268   -8.8362  -15.5366 C   0  0  0  0  0  0  0  0  0  0  0  0
   21.5155   -8.2973  -16.3271 O   0  0  0  0  0  0  0  0  0  0  0  0
   26.6619   -9.9948  -15.3306 C   0  0  0  0  0  0  0  0  0  0  0  0
   27.8637  -10.6495  -15.5828 C   0  0  0  0  0  0  0  0  0  0  0  0
   15.7765   -6.5194  -10.0765 O   0  0  0  0  0  0  0  0  0  0  0  0
   16.9709   -7.0164  -10.5880 C   0  0  0  0  0  0  0  0  0  0  0  0
   17.0188   -8.2628  -11.1727 C   0  0  0  0  0  0  0  0  0  0  0  0
   18.1906   -8.7752  -11.6860 C   0  0  0  0  0  0  0  0  0  0  0  0
   19.3867   -8.0496  -11.6356 C   0  0  0  0  0  0  0  0  0  0  0  0
   20.6232   -8.6455  -12.1829 C   0  0  0  0  0  0  0  0  0  0  0  0
   20.8381   -8.2161  -13.6042 C   0  0  2  0  0  0  0  0  0  0  0  0
   22.0493   -8.8081  -14.1587 N   0  0  0  0  0  0  0  0  0  0  0  0
   20.8775   -6.7673  -13.7964 C   0  0  0  0  0  0  0  0  0  0  0  0
   19.7949   -6.0277  -14.2308 O   0  0  0  0  0  0  0  0  0  0  0  0
   19.3209   -6.8053  -11.0475 C   0  0  0  0  0  0  0  0  0  0  0  0
   18.1417   -6.2903  -10.5314 C   0  0  0  0  0  0  0  0  0  0  0  0
   21.9480   -6.1285  -13.5616 O   0  0  0  0  0  0  0  0  0  0  0  0
  2  3  1  0
  2  1  1  1
  4  3  1  0
  5  2  1  0
  6  5  2  0
  8  9  2  0
  8  7  1  0
 10  9  1  0
 11 10  2  0
 13 12  1  6
 12 11  1  0
 13 14  1  0
 14  5  1  0
 15 26  1  0
 15 13  1  0
 16 15  2  0
 17 11  1  0
 17 18  2  0
 18  8  1  0
 20 19  1  0
 21 20  2  0
 22 21  1  0
 23 29  1  0
 23 22  2  0
 24 23  1  0
 25 24  1  1
 25 26  1  0
 27 28  1  0
 27 25  1  0
 29 30  2  0
 30 20  1  0
 31 27  2  0
M  END
$$$$
