CYY.pdb
     RDKit          3D

 31 32  0  0  1  0  0  0  0  0999 V2000
   25.2554  -10.7547  -17.6939 N   0  0  0  0  0  0  0  0  0  0  0  0
   24.4466  -10.9894  -16.5121 C   0  0  1  0  0  0  0  0  0  0  0  0
   25.3743  -11.4956  -15.4330 C   0  0  0  0  0  0  0  0  0  0  0  0
   26.2109  -13.0246  -15.9138 S   0  0  0  0  0  0  0  0  0  0  0  0
   23.7201   -9.7662  -16.0923 C   0  0  0  0  0  0  0  0  0  0  0  0
   22.9162   -9.8535  -15.1425 O   0  0  0  0  0  0  0  0  0  0  0  0
   21.1834   -1.3108  -15.2448 O   0  0  0  0  0  0  0  0  0  0  0  0
   21.8734   -2.4735  -15.6467 C   0  0  0  0  0  0  0  0  0  0  0  0
   22.5387   -3.2525  -14.7260 C   0  0  0  0  0  0  0  0  0  0  0  0
   23.2095   -4.3842  -15.1231 C   0  0  0  0  0  0  0  0  0  0  0  0
   23.2571   -4.8072  -16.4631 C   0  0  0  0  0  0  0  0  0  0  0  0
   23.9933   -6.0498  -16.8069 C   0  0  0  0  0  0  0  0  0  0  0  0
   23.2409   -7.3103  -16.4096 C   0  0  2  0  0  0  0  0  0  0  0  0
   23.9166   -8.5305  -16.7334 N   0  0  0  0  0  0  0  0  0  0  0  0
   21.8285   -7.2677  -16.8143 C   0  0  0  0  0  0  0  0  0  0  0  0
   21.5345   -7.5389  -18.0032 O   0  0  0  0  0  0  0  0  0  0  0  0
   22.5855   -4.0112  -17.3532 C   0  0  0  0  0  0  0  0  0  0  0  0
   21.9037   -2.8634  -16.9601 C   0  0  0  0  0  0  0  0  0  0  0  0
   13.3805   -7.9548  -18.1517 O   0  0  0  0  0  0  0  0  0  0  0  0
   14.7329   -8.0177  -17.8322 C   0  0  0  0  0  0  0  0  0  0  0  0
   15.1393   -8.4103  -16.5759 C   0  0  0  0  0  0  0  0  0  0  0  0
   16.4733   -8.4800  -16.2373 C   0  0  0  0  0  0  0  0  0  0  0  0
   17.4765   -8.1541  -17.1577 C   0  0  0  0  0  0  0  0  0  0  0  0
   18.8937   -8.2265  -16.7458 C   0  0  0  0  0  0  0  0  0  0  0  0
   19.3927   -6.8793  -16.3133 C   0  0  2  0  0  0  0  0  0  0  0  0
   20.7954   -6.9353  -15.9206 N   0  0  0  0  0  0  0  0  0  0  0  0
   18.6148   -6.2655  -15.2383 C   0  0  0  0  0  0  0  0  0  0  0  0
   17.3308   -5.7853  -15.4070 O   0  0  0  0  0  0  0  0  0  0  0  0
   17.0526   -7.7635  -18.4092 C   0  0  0  0  0  0  0  0  0  0  0  0
   15.7103   -7.6936  -18.7492 C   0  0  0  0  0  0  0  0  0  0  0  0
   19.1190   -6.1525  -14.0798 O   0  0  0  0  0  0  0  0  0  0  0  0
  2  3  1  0
  2  1  1  6
  4  3  1  0
  5  2  1  0
  6  5  2  0
  8  9  2  0
  8  7  1  0
 10  9  1  0
 11 10  2  0
 13 12  1  6
 12 11  1  0
 13 14  1  0
 14  5  1  0
 15 26  1  0
 15 13  1  0
 16 15  2  0
 17 11  1  0
 17 18  2  0
 18  8  1  0
 20 19  1  0
 21 20  2  0
 22 21  1  0
 23 29  1  0
 23 22  2  0
 24 23  1  0
 25 24  1  1
 25 26  1  0
 27 28  1  0
 27 25  1  0
 29 30  2  0
 30 20  1  0
 31 27  2  0
M  END
$$$$
