CYY.pdb
     RDKit          3D

 31 32  0  0  1  0  0  0  0  0999 V2000
   27.0660  -10.4987  -18.9948 N   0  0  0  0  0  0  0  0  0  0  0  0
   26.9105   -9.9275  -17.6699 C   0  0  1  0  0  0  0  0  0  0  0  0
   27.6386   -8.6043  -17.6690 C   0  0  0  0  0  0  0  0  0  0  0  0
   29.4343   -8.8129  -17.6963 S   0  0  0  0  0  0  0  0  0  0  0  0
   25.4816   -9.7764  -17.3014 C   0  0  0  0  0  0  0  0  0  0  0  0
   24.6687   -9.4772  -18.1989 O   0  0  0  0  0  0  0  0  0  0  0  0
   17.7785  -10.5505  -12.9157 O   0  0  0  0  0  0  0  0  0  0  0  0
   19.1353  -10.6127  -13.2963 C   0  0  0  0  0  0  0  0  0  0  0  0
   20.1140  -10.0398  -12.5146 C   0  0  0  0  0  0  0  0  0  0  0  0
   21.4343  -10.1032  -12.8902 C   0  0  0  0  0  0  0  0  0  0  0  0
   21.8581  -10.7421  -14.0687 C   0  0  0  0  0  0  0  0  0  0  0  0
   23.3060  -10.7773  -14.3956 C   0  0  0  0  0  0  0  0  0  0  0  0
   23.6741   -9.8506  -15.5438 C   0  0  2  0  0  0  0  0  0  0  0  0
   25.0329   -9.9609  -15.9818 N   0  0  0  0  0  0  0  0  0  0  0  0
   23.2147   -8.4728  -15.3178 C   0  0  0  0  0  0  0  0  0  0  0  0
   23.8572   -7.7469  -14.5217 O   0  0  0  0  0  0  0  0  0  0  0  0
   20.8608  -11.3017  -14.8232 C   0  0  0  0  0  0  0  0  0  0  0  0
   19.5213  -11.2423  -14.4507 C   0  0  0  0  0  0  0  0  0  0  0  0
   27.3135   -4.3894  -17.6304 O   0  0  0  0  0  0  0  0  0  0  0  0
   25.9707   -4.6983  -17.4394 C   0  0  0  0  0  0  0  0  0  0  0  0
   25.3665   -5.6893  -18.1814 C   0  0  0  0  0  0  0  0  0  0  0  0
   24.0380   -6.0123  -18.0091 C   0  0  0  0  0  0  0  0  0  0  0  0
   23.2421   -5.3456  -17.0701 C   0  0  0  0  0  0  0  0  0  0  0  0
   21.8176   -5.7131  -16.9313 C   0  0  0  0  0  0  0  0  0  0  0  0
   21.6058   -6.5807  -15.7258 C   0  0  2  0  0  0  0  0  0  0  0  0
   22.0840   -7.9377  -15.9595 N   0  0  0  0  0  0  0  0  0  0  0  0
   20.2225   -6.6309  -15.2553 C   0  0  0  0  0  0  0  0  0  0  0  0
   19.5492   -5.5341  -14.7538 O   0  0  0  0  0  0  0  0  0  0  0  0
   23.8620   -4.3574  -16.3368 C   0  0  0  0  0  0  0  0  0  0  0  0
   25.1987   -4.0331  -16.5106 C   0  0  0  0  0  0  0  0  0  0  0  0
   19.5815   -7.7249  -15.2957 O   0  0  0  0  0  0  0  0  0  0  0  0
  2  3  1  0
  2  1  1  6
  4  3  1  0
  5  2  1  0
  6  5  2  0
  8  9  2  0
  8  7  1  0
 10  9  1  0
 11 10  2  0
 13 12  1  1
 12 11  1  0
 13 14  1  0
 14  5  1  0
 15 26  1  0
 15 13  1  0
 16 15  2  0
 17 11  1  0
 17 18  2  0
 18  8  1  0
 20 19  1  0
 21 20  2  0
 22 21  1  0
 23 29  1  0
 23 22  2  0
 24 23  1  0
 25 24  1  6
 25 26  1  0
 27 28  1  0
 27 25  1  0
 29 30  2  0
 30 20  1  0
 31 27  2  0
M  END
$$$$
