CYY.pdb
     RDKit          3D

 31 32  0  0  1  0  0  0  0  0999 V2000
   17.8244  -19.7891  -14.9877 N   0  0  0  0  0  0  0  0  0  0  0  0
   18.9317  -19.6634  -15.9171 C   0  0  1  0  0  0  0  0  0  0  0  0
   18.5262  -18.6437  -16.9549 C   0  0  0  0  0  0  0  0  0  0  0  0
   19.8691  -18.2703  -18.1065 S   0  0  0  0  0  0  0  0  0  0  0  0
   20.1882  -19.2841  -15.2260 C   0  0  0  0  0  0  0  0  0  0  0  0
   20.1891  -18.2511  -14.5268 O   0  0  0  0  0  0  0  0  0  0  0  0
   19.2962  -20.3858   -9.1910 O   0  0  0  0  0  0  0  0  0  0  0  0
   20.2123  -20.4477  -10.2617 C   0  0  0  0  0  0  0  0  0  0  0  0
   20.1543  -21.4716  -11.1812 C   0  0  0  0  0  0  0  0  0  0  0  0
   21.0494  -21.5272  -12.2224 C   0  0  0  0  0  0  0  0  0  0  0  0
   22.0567  -20.5644  -12.4092 C   0  0  0  0  0  0  0  0  0  0  0  0
   22.9761  -20.6904  -13.5682 C   0  0  0  0  0  0  0  0  0  0  0  0
   22.6119  -19.7589  -14.7138 C   0  0  2  0  0  0  0  0  0  0  0  0
   21.3592  -20.0537  -15.3416 N   0  0  0  0  0  0  0  0  0  0  0  0
   23.7304  -19.5574  -15.6460 C   0  0  0  0  0  0  0  0  0  0  0  0
   23.7984  -20.2793  -16.6696 O   0  0  0  0  0  0  0  0  0  0  0  0
   22.0871  -19.5597  -11.4782 C   0  0  0  0  0  0  0  0  0  0  0  0
   21.1849  -19.4954  -10.4207 C   0  0  0  0  0  0  0  0  0  0  0  0
   31.3375  -16.8021  -19.1750 O   0  0  0  0  0  0  0  0  0  0  0  0
   30.1607  -16.8656  -18.4359 C   0  0  0  0  0  0  0  0  0  0  0  0
   30.1639  -17.3697  -17.1539 C   0  0  0  0  0  0  0  0  0  0  0  0
   29.0104  -17.4421  -16.4034 C   0  0  0  0  0  0  0  0  0  0  0  0
   27.7817  -17.0053  -16.9122 C   0  0  0  0  0  0  0  0  0  0  0  0
   26.5670  -17.1178  -16.0783 C   0  0  0  0  0  0  0  0  0  0  0  0
   25.8830  -18.4333  -16.3074 C   0  0  2  0  0  0  0  0  0  0  0  0
   24.7256  -18.5872  -15.4347 N   0  0  0  0  0  0  0  0  0  0  0  0
   26.7543  -19.5984  -16.1635 C   0  0  0  0  0  0  0  0  0  0  0  0
   26.7005  -20.4601  -15.0854 O   0  0  0  0  0  0  0  0  0  0  0  0
   27.7963  -16.5042  -18.1957 C   0  0  0  0  0  0  0  0  0  0  0  0
   28.9573  -16.4316  -18.9502 C   0  0  0  0  0  0  0  0  0  0  0  0
   27.6157  -19.8565  -17.0582 O   0  0  0  0  0  0  0  0  0  0  0  0
  2  3  1  0
  2  1  1  1
  4  3  1  0
  5  2  1  0
  6  5  2  0
  8  9  2  0
  8  7  1  0
 10  9  1  0
 11 10  2  0
 13 12  1  1
 12 11  1  0
 13 14  1  0
 14  5  1  0
 15 26  1  0
 15 13  1  0
 16 15  2  0
 17 11  1  0
 17 18  2  0
 18  8  1  0
 20 19  1  0
 21 20  2  0
 22 21  1  0
 23 29  1  0
 23 22  2  0
 24 23  1  0
 25 24  1  1
 25 26  1  0
 27 28  1  0
 27 25  1  0
 29 30  2  0
 30 20  1  0
 31 27  2  0
M  END
$$$$
