CYY.pdb
     RDKit          3D

 31 32  0  0  1  0  0  0  0  0999 V2000
   29.3720   -8.0412  -20.4722 N   0  0  0  0  0  0  0  0  0  0  0  0
   27.9613   -8.2626  -20.7308 C   0  0  1  0  0  0  0  0  0  0  0  0
   27.7993   -9.7214  -21.0871 C   0  0  0  0  0  0  0  0  0  0  0  0
   26.0616  -10.2041  -21.2153 S   0  0  0  0  0  0  0  0  0  0  0  0
   27.1231   -7.8773  -19.5692 C   0  0  0  0  0  0  0  0  0  0  0  0
   27.4874   -8.2386  -18.4322 O   0  0  0  0  0  0  0  0  0  0  0  0
   21.1507   -4.0416  -14.3036 O   0  0  0  0  0  0  0  0  0  0  0  0
   22.0369   -4.3372  -15.3603 C   0  0  0  0  0  0  0  0  0  0  0  0
   23.3569   -4.6406  -15.1097 C   0  0  0  0  0  0  0  0  0  0  0  0
   24.2161   -4.9276  -16.1430 C   0  0  0  0  0  0  0  0  0  0  0  0
   23.8102   -4.9294  -17.4891 C   0  0  0  0  0  0  0  0  0  0  0  0
   24.7987   -5.2635  -18.5455 C   0  0  0  0  0  0  0  0  0  0  0  0
   25.0511   -6.7584  -18.6655 C   0  0  2  0  0  0  0  0  0  0  0  0
   25.9451   -7.1252  -19.7222 N   0  0  0  0  0  0  0  0  0  0  0  0
   23.8070   -7.5397  -18.6184 C   0  0  0  0  0  0  0  0  0  0  0  0
   23.1195   -7.6403  -19.6627 O   0  0  0  0  0  0  0  0  0  0  0  0
   22.4921   -4.6243  -17.7042 C   0  0  0  0  0  0  0  0  0  0  0  0
   21.6149   -4.3321  -16.6641 C   0  0  0  0  0  0  0  0  0  0  0  0
   17.6228  -13.4486  -16.8235 O   0  0  0  0  0  0  0  0  0  0  0  0
   18.7553  -12.6444  -16.7461 C   0  0  0  0  0  0  0  0  0  0  0  0
   19.6816  -12.6375  -17.7656 C   0  0  0  0  0  0  0  0  0  0  0  0
   20.8105  -11.8490  -17.7105 C   0  0  0  0  0  0  0  0  0  0  0  0
   21.0659  -11.0182  -16.6130 C   0  0  0  0  0  0  0  0  0  0  0  0
   22.2978  -10.2027  -16.5885 C   0  0  0  0  0  0  0  0  0  0  0  0
   22.1207   -8.9451  -17.3871 C   0  0  2  0  0  0  0  0  0  0  0  0
   23.3589   -8.1783  -17.4489 N   0  0  0  0  0  0  0  0  0  0  0  0
   21.0403   -8.0798  -16.9166 C   0  0  0  0  0  0  0  0  0  0  0  0
   19.7665   -8.0944  -17.4505 O   0  0  0  0  0  0  0  0  0  0  0  0
   20.1294  -11.0375  -15.6024 C   0  0  0  0  0  0  0  0  0  0  0  0
   18.9939  -11.8310  -15.6586 C   0  0  0  0  0  0  0  0  0  0  0  0
   21.2536   -7.2615  -15.9710 O   0  0  0  0  0  0  0  0  0  0  0  0
  2  3  1  0
  2  1  1  1
  4  3  1  0
  5  2  1  0
  6  5  2  0
  8  9  2  0
  8  7  1  0
 10  9  1  0
 11 10  2  0
 13 12  1  6
 12 11  1  0
 13 14  1  0
 14  5  1  0
 15 26  1  0
 15 13  1  0
 16 15  2  0
 17 11  1  0
 17 18  2  0
 18  8  1  0
 20 19  1  0
 21 20  2  0
 22 21  1  0
 23 29  1  0
 23 22  2  0
 24 23  1  0
 25 24  1  1
 25 26  1  0
 27 28  1  0
 27 25  1  0
 29 30  2  0
 30 20  1  0
 31 27  2  0
M  END
$$$$
