CYY.pdb
     RDKit          3D

 31 32  0  0  1  0  0  0  0  0999 V2000
   24.3762  -19.9397   -7.8742 N   0  0  0  0  0  0  0  0  0  0  0  0
   24.8815  -20.8724   -8.8644 C   0  0  1  0  0  0  0  0  0  0  0  0
   23.9663  -22.0738   -8.8500 C   0  0  0  0  0  0  0  0  0  0  0  0
   24.0285  -22.9608   -7.2758 S   0  0  0  0  0  0  0  0  0  0  0  0
   24.9653  -20.2531  -10.2097 C   0  0  0  0  0  0  0  0  0  0  0  0
   23.9646  -19.6488  -10.6450 O   0  0  0  0  0  0  0  0  0  0  0  0
   28.2143  -17.4871  -18.0521 O   0  0  0  0  0  0  0  0  0  0  0  0
   28.0816  -17.9559  -16.7285 C   0  0  0  0  0  0  0  0  0  0  0  0
   28.3183  -19.2776  -16.4214 C   0  0  0  0  0  0  0  0  0  0  0  0
   28.1873  -19.7291  -15.1301 C   0  0  0  0  0  0  0  0  0  0  0  0
   27.8122  -18.8891  -14.0670 C   0  0  0  0  0  0  0  0  0  0  0  0
   27.7060  -19.4536  -12.6978 C   0  0  0  0  0  0  0  0  0  0  0  0
   26.2785  -19.8156  -12.3182 C   0  0  2  0  0  0  0  0  0  0  0  0
   26.1315  -20.3325  -10.9909 N   0  0  0  0  0  0  0  0  0  0  0  0
   25.6078  -20.6063  -13.3599 C   0  0  0  0  0  0  0  0  0  0  0  0
   25.7366  -21.8539  -13.3453 O   0  0  0  0  0  0  0  0  0  0  0  0
   27.5845  -17.5813  -14.4056 C   0  0  0  0  0  0  0  0  0  0  0  0
   27.7145  -17.1153  -15.7104 C   0  0  0  0  0  0  0  0  0  0  0  0
   18.3624  -23.9696  -16.3080 O   0  0  0  0  0  0  0  0  0  0  0  0
   19.4193  -23.2742  -15.7297 C   0  0  0  0  0  0  0  0  0  0  0  0
   20.6308  -23.8930  -15.5128 C   0  0  0  0  0  0  0  0  0  0  0  0
   21.6915  -23.2239  -14.9416 C   0  0  0  0  0  0  0  0  0  0  0  0
   21.5840  -21.8826  -14.5556 C   0  0  0  0  0  0  0  0  0  0  0  0
   22.7417  -21.2098  -13.9308 C   0  0  0  0  0  0  0  0  0  0  0  0
   23.6799  -20.6825  -14.9762 C   0  0  2  0  0  0  0  0  0  0  0  0
   24.8277  -20.0183  -14.3710 N   0  0  0  0  0  0  0  0  0  0  0  0
   23.0572  -19.7822  -15.9454 C   0  0  0  0  0  0  0  0  0  0  0  0
   22.6961  -18.4815  -15.6529 O   0  0  0  0  0  0  0  0  0  0  0  0
   20.3656  -21.2792  -14.7795 C   0  0  0  0  0  0  0  0  0  0  0  0
   19.2989  -21.9530  -15.3543 C   0  0  0  0  0  0  0  0  0  0  0  0
   22.8223  -20.1887  -17.1239 O   0  0  0  0  0  0  0  0  0  0  0  0
  2  3  1  0
  2  1  1  1
  4  3  1  0
  5  2  1  0
  6  5  2  0
  8  9  2  0
  8  7  1  0
 10  9  1  0
 11 10  2  0
 13 12  1  6
 12 11  1  0
 13 14  1  0
 14  5  1  0
 15 26  1  0
 15 13  1  0
 16 15  2  0
 17 11  1  0
 17 18  2  0
 18  8  1  0
 20 19  1  0
 21 20  2  0
 22 21  1  0
 23 29  1  0
 23 22  2  0
 24 23  1  0
 25 24  1  1
 25 26  1  0
 27 28  1  0
 27 25  1  0
 29 30  2  0
 30 20  1  0
 31 27  2  0
M  END
$$$$
