CYY.pdb
     RDKit          3D

 31 32  0  0  1  0  0  0  0  0999 V2000
   20.4755  -14.5365  -16.8384 N   0  0  0  0  0  0  0  0  0  0  0  0
   21.4546  -13.6042  -17.3658 C   0  0  1  0  0  0  0  0  0  0  0  0
   21.3773  -13.6847  -18.8721 C   0  0  0  0  0  0  0  0  0  0  0  0
   21.9257  -15.2894  -19.4992 S   0  0  0  0  0  0  0  0  0  0  0  0
   21.2229  -12.2257  -16.8698 C   0  0  0  0  0  0  0  0  0  0  0  0
   20.0469  -11.8576  -16.6758 O   0  0  0  0  0  0  0  0  0  0  0  0
   22.5052   -3.9222  -13.9877 O   0  0  0  0  0  0  0  0  0  0  0  0
   22.6954   -5.2779  -14.3272 C   0  0  0  0  0  0  0  0  0  0  0  0
   22.1120   -6.2797  -13.5834 C   0  0  0  0  0  0  0  0  0  0  0  0
   22.3008   -7.5990  -13.9185 C   0  0  0  0  0  0  0  0  0  0  0  0
   23.0832   -7.9986  -15.0161 C   0  0  0  0  0  0  0  0  0  0  0  0
   23.2261   -9.4453  -15.3181 C   0  0  0  0  0  0  0  0  0  0  0  0
   22.1494   -9.9602  -16.2607 C   0  0  2  0  0  0  0  0  0  0  0  0
   22.2855  -11.3401  -16.6181 N   0  0  0  0  0  0  0  0  0  0  0  0
   21.9220   -9.0543  -17.3957 C   0  0  0  0  0  0  0  0  0  0  0  0
   21.5144   -7.8908  -17.1650 O   0  0  0  0  0  0  0  0  0  0  0  0
   23.6488   -6.9787  -15.7350 C   0  0  0  0  0  0  0  0  0  0  0  0
   23.4633   -5.6401  -15.4030 C   0  0  0  0  0  0  0  0  0  0  0  0
   25.7478   -3.4287  -19.2241 O   0  0  0  0  0  0  0  0  0  0  0  0
   25.1148   -4.6159  -19.5777 C   0  0  0  0  0  0  0  0  0  0  0  0
   25.4999   -5.8115  -19.0120 C   0  0  0  0  0  0  0  0  0  0  0  0
   24.8871   -6.9995  -19.3471 C   0  0  0  0  0  0  0  0  0  0  0  0
   23.8438   -7.0435  -20.2793 C   0  0  0  0  0  0  0  0  0  0  0  0
   23.2274   -8.3421  -20.6213 C   0  0  0  0  0  0  0  0  0  0  0  0
   21.9503   -8.5431  -19.8600 C   0  0  2  0  0  0  0  0  0  0  0  0
   22.1442   -9.4417  -18.7287 N   0  0  0  0  0  0  0  0  0  0  0  0
   20.8340   -9.0239  -20.6724 C   0  0  0  0  0  0  0  0  0  0  0  0
   20.2730   -8.2943  -21.7024 O   0  0  0  0  0  0  0  0  0  0  0  0
   23.4714   -5.8390  -20.8354 C   0  0  0  0  0  0  0  0  0  0  0  0
   24.0883   -4.6441  -20.4978 C   0  0  0  0  0  0  0  0  0  0  0  0
   20.3320  -10.1660  -20.4424 O   0  0  0  0  0  0  0  0  0  0  0  0
  2  3  1  0
  2  1  1  1
  4  3  1  0
  5  2  1  0
  6  5  2  0
  8  9  2  0
  8  7  1  0
 10  9  1  0
 11 10  2  0
 13 12  1  6
 12 11  1  0
 13 14  1  0
 14  5  1  0
 15 26  1  0
 15 13  1  0
 16 15  2  0
 17 11  1  0
 17 18  2  0
 18  8  1  0
 20 19  1  0
 21 20  2  0
 22 21  1  0
 23 29  1  0
 23 22  2  0
 24 23  1  0
 25 24  1  6
 25 26  1  0
 27 28  1  0
 27 25  1  0
 29 30  2  0
 30 20  1  0
 31 27  2  0
M  END
$$$$
