CYY.pdb
     RDKit          3D

 31 32  0  0  1  0  0  0  0  0999 V2000
   19.3340  -16.2929  -22.9620 N   0  0  0  0  0  0  0  0  0  0  0  0
   18.6863  -17.0128  -21.8812 C   0  0  1  0  0  0  0  0  0  0  0  0
   18.1048  -18.2743  -22.4743 C   0  0  0  0  0  0  0  0  0  0  0  0
   19.3868  -19.4347  -23.0022 S   0  0  0  0  0  0  0  0  0  0  0  0
   19.6282  -17.3023  -20.7725 C   0  0  0  0  0  0  0  0  0  0  0  0
   20.8496  -17.3217  -21.0250 O   0  0  0  0  0  0  0  0  0  0  0  0
   14.9825  -14.4995  -15.8151 O   0  0  0  0  0  0  0  0  0  0  0  0
   16.2468  -14.9674  -16.2299 C   0  0  0  0  0  0  0  0  0  0  0  0
   16.9570  -15.8594  -15.4571 C   0  0  0  0  0  0  0  0  0  0  0  0
   18.1884  -16.3119  -15.8658 C   0  0  0  0  0  0  0  0  0  0  0  0
   18.7859  -15.9017  -17.0706 C   0  0  0  0  0  0  0  0  0  0  0  0
   20.1144  -16.4485  -17.4457 C   0  0  0  0  0  0  0  0  0  0  0  0
   20.0161  -17.6950  -18.3113 C   0  0  2  0  0  0  0  0  0  0  0  0
   19.1785  -17.5513  -19.4638 N   0  0  0  0  0  0  0  0  0  0  0  0
   19.7621  -18.9063  -17.5183 C   0  0  0  0  0  0  0  0  0  0  0  0
   18.6895  -19.5307  -17.6998 O   0  0  0  0  0  0  0  0  0  0  0  0
   18.0541  -15.0150  -17.8157 C   0  0  0  0  0  0  0  0  0  0  0  0
   16.8064  -14.5513  -17.4096 C   0  0  0  0  0  0  0  0  0  0  0  0
   20.1010  -18.2461   -9.8372 O   0  0  0  0  0  0  0  0  0  0  0  0
   20.4433  -18.8878  -11.0230 C   0  0  0  0  0  0  0  0  0  0  0  0
   20.8712  -18.1637  -12.1141 C   0  0  0  0  0  0  0  0  0  0  0  0
   21.2154  -18.7780  -13.2986 C   0  0  0  0  0  0  0  0  0  0  0  0
   21.1453  -20.1684  -13.4454 C   0  0  0  0  0  0  0  0  0  0  0  0
   21.5076  -20.7830  -14.7394 C   0  0  0  0  0  0  0  0  0  0  0  0
   20.4204  -20.5740  -15.7519 C   0  0  2  0  0  0  0  0  0  0  0  0
   20.6748  -19.3915  -16.5654 N   0  0  0  0  0  0  0  0  0  0  0  0
   19.0762  -20.4887  -15.1835 C   0  0  0  0  0  0  0  0  0  0  0  0
   18.3641  -19.3090  -15.0877 O   0  0  0  0  0  0  0  0  0  0  0  0
   20.7153  -20.8771  -12.3447 C   0  0  0  0  0  0  0  0  0  0  0  0
   20.3692  -20.2584  -11.1532 C   0  0  0  0  0  0  0  0  0  0  0  0
   18.5086  -21.5352  -14.7457 O   0  0  0  0  0  0  0  0  0  0  0  0
  2  3  1  0
  2  1  1  6
  4  3  1  0
  5  2  1  0
  6  5  2  0
  8  9  2  0
  8  7  1  0
 10  9  1  0
 11 10  2  0
 13 12  1  1
 12 11  1  0
 13 14  1  0
 14  5  1  0
 15 26  1  0
 15 13  1  0
 16 15  2  0
 17 11  1  0
 17 18  2  0
 18  8  1  0
 20 19  1  0
 21 20  2  0
 22 21  1  0
 23 29  1  0
 23 22  2  0
 24 23  1  0
 25 24  1  1
 25 26  1  0
 27 28  1  0
 27 25  1  0
 29 30  2  0
 30 20  1  0
 31 27  2  0
M  END
$$$$
