CYY.pdb
     RDKit          3D

 31 32  0  0  1  0  0  0  0  0999 V2000
   29.0197  -20.9801  -19.3845 N   0  0  0  0  0  0  0  0  0  0  0  0
   28.8446  -19.9295  -18.3988 C   0  0  1  0  0  0  0  0  0  0  0  0
   28.2262  -18.7505  -19.1122 C   0  0  0  0  0  0  0  0  0  0  0  0
   29.3875  -17.9520  -20.2448 S   0  0  0  0  0  0  0  0  0  0  0  0
   28.0176  -20.3830  -17.2539 C   0  0  0  0  0  0  0  0  0  0  0  0
   27.0975  -21.1957  -17.4752 O   0  0  0  0  0  0  0  0  0  0  0  0
   24.6016  -20.7065   -8.9902 O   0  0  0  0  0  0  0  0  0  0  0  0
   25.4598  -20.5293  -10.0955 C   0  0  0  0  0  0  0  0  0  0  0  0
   25.6763  -19.2771  -10.6267 C   0  0  0  0  0  0  0  0  0  0  0  0
   26.5133  -19.1101  -11.7037 C   0  0  0  0  0  0  0  0  0  0  0  0
   27.1850  -20.1827  -12.3160 C   0  0  0  0  0  0  0  0  0  0  0  0
   28.0826  -19.9152  -13.4681 C   0  0  0  0  0  0  0  0  0  0  0  0
   27.4270  -20.2117  -14.8078 C   0  0  2  0  0  0  0  0  0  0  0  0
   28.2469  -19.9223  -15.9455 N   0  0  0  0  0  0  0  0  0  0  0  0
   26.0590  -19.6801  -14.8891 C   0  0  0  0  0  0  0  0  0  0  0  0
   25.9012  -18.4542  -15.1022 O   0  0  0  0  0  0  0  0  0  0  0  0
   26.9488  -21.4142  -11.7639 C   0  0  0  0  0  0  0  0  0  0  0  0
   26.1028  -21.5926  -10.6735 C   0  0  0  0  0  0  0  0  0  0  0  0
   17.9582  -17.4176  -16.5487 O   0  0  0  0  0  0  0  0  0  0  0  0
   19.2573  -17.9068  -16.4582 C   0  0  0  0  0  0  0  0  0  0  0  0
   20.2690  -17.1208  -15.9518 C   0  0  0  0  0  0  0  0  0  0  0  0
   21.5630  -17.5843  -15.8528 C   0  0  0  0  0  0  0  0  0  0  0  0
   21.9069  -18.8776  -16.2636 C   0  0  0  0  0  0  0  0  0  0  0  0
   23.3104  -19.3267  -16.1552 C   0  0  0  0  0  0  0  0  0  0  0  0
   23.5606  -19.9787  -14.8273 C   0  0  2  0  0  0  0  0  0  0  0  0
   24.9217  -20.4927  -14.7379 N   0  0  0  0  0  0  0  0  0  0  0  0
   22.6188  -21.0459  -14.4932 C   0  0  0  0  0  0  0  0  0  0  0  0
   22.7742  -22.3546  -14.9065 O   0  0  0  0  0  0  0  0  0  0  0  0
   20.8832  -19.6501  -16.7676 C   0  0  0  0  0  0  0  0  0  0  0  0
   19.5815  -19.1830  -16.8669 C   0  0  0  0  0  0  0  0  0  0  0  0
   21.5953  -20.7870  -13.7899 O   0  0  0  0  0  0  0  0  0  0  0  0
  2  3  1  0
  2  1  1  6
  4  3  1  0
  5  2  1  0
  6  5  2  0
  8  9  2  0
  8  7  1  0
 10  9  1  0
 11 10  2  0
 13 12  1  1
 12 11  1  0
 13 14  1  0
 14  5  1  0
 15 26  1  0
 15 13  1  0
 16 15  2  0
 17 11  1  0
 17 18  2  0
 18  8  1  0
 20 19  1  0
 21 20  2  0
 22 21  1  0
 23 29  1  0
 23 22  2  0
 24 23  1  0
 25 24  1  6
 25 26  1  0
 27 28  1  0
 27 25  1  0
 29 30  2  0
 30 20  1  0
 31 27  2  0
M  END
$$$$
