CYY.pdb
     RDKit          3D

 31 32  0  0  1  0  0  0  0  0999 V2000
   20.3814  -31.8159   -0.6461 N   0  0  0  0  0  0  0  0  0  0  0  0
   21.7067  -31.2494   -0.4775 C   0  0  1  0  0  0  0  0  0  0  0  0
   21.9714  -31.1743    1.0077 C   0  0  0  0  0  0  0  0  0  0  0  0
   21.2786  -29.6784    1.7500 S   0  0  0  0  0  0  0  0  0  0  0  0
   22.7383  -32.0450   -1.1868 C   0  0  0  0  0  0  0  0  0  0  0  0
   22.4214  -32.6035   -2.2562 O   0  0  0  0  0  0  0  0  0  0  0  0
   29.1621  -35.2467   -5.8569 O   0  0  0  0  0  0  0  0  0  0  0  0
   28.2286  -34.5139   -5.0946 C   0  0  0  0  0  0  0  0  0  0  0  0
   26.9993  -34.1784   -5.6177 C   0  0  0  0  0  0  0  0  0  0  0  0
   26.0936  -33.4642   -4.8707 C   0  0  0  0  0  0  0  0  0  0  0  0
   26.3596  -33.0414   -3.5566 C   0  0  0  0  0  0  0  0  0  0  0  0
   25.3212  -32.2845   -2.8127 C   0  0  0  0  0  0  0  0  0  0  0  0
   25.1449  -32.7739   -1.3837 C   0  0  2  0  0  0  0  0  0  0  0  0
   24.0449  -32.1798   -0.6855 N   0  0  0  0  0  0  0  0  0  0  0  0
   26.4107  -32.7815   -0.6365 C   0  0  0  0  0  0  0  0  0  0  0  0
   27.4057  -33.3522   -1.1439 O   0  0  0  0  0  0  0  0  0  0  0  0
   27.5900  -33.3913   -3.0660 C   0  0  0  0  0  0  0  0  0  0  0  0
   28.5135  -34.1142   -3.8152 C   0  0  0  0  0  0  0  0  0  0  0  0
   23.4707  -29.3193    6.0918 O   0  0  0  0  0  0  0  0  0  0  0  0
   23.9087  -30.2658    5.1712 C   0  0  0  0  0  0  0  0  0  0  0  0
   24.0325  -31.5897    5.5315 C   0  0  0  0  0  0  0  0  0  0  0  0
   24.4642  -32.5444    4.6364 C   0  0  0  0  0  0  0  0  0  0  0  0
   24.7968  -32.2098    3.3184 C   0  0  0  0  0  0  0  0  0  0  0  0
   25.2719  -33.2634    2.3977 C   0  0  0  0  0  0  0  0  0  0  0  0
   26.6350  -32.9317    1.8659 C   0  0  2  0  0  0  0  0  0  0  0  0
   26.5487  -32.1738    0.6237 N   0  0  0  0  0  0  0  0  0  0  0  0
   27.5017  -34.0917    1.6642 C   0  0  0  0  0  0  0  0  0  0  0  0
   28.6264  -34.3427    2.4255 O   0  0  0  0  0  0  0  0  0  0  0  0
   24.6674  -30.8817    2.9750 C   0  0  0  0  0  0  0  0  0  0  0  0
   24.2329  -29.9217    3.8760 C   0  0  0  0  0  0  0  0  0  0  0  0
   27.2334  -34.9283    0.7491 O   0  0  0  0  0  0  0  0  0  0  0  0
  2  3  1  0
  2  1  1  1
  4  3  1  0
  5  2  1  0
  6  5  2  0
  8  9  2  0
  8  7  1  0
 10  9  1  0
 11 10  2  0
 13 12  1  6
 12 11  1  0
 13 14  1  0
 14  5  1  0
 15 26  1  0
 15 13  1  0
 16 15  2  0
 17 11  1  0
 17 18  2  0
 18  8  1  0
 20 19  1  0
 21 20  2  0
 22 21  1  0
 23 29  1  0
 23 22  2  0
 24 23  1  0
 25 24  1  6
 25 26  1  0
 27 28  1  0
 27 25  1  0
 29 30  2  0
 30 20  1  0
 31 27  2  0
M  END
$$$$
