CYY.pdb
     RDKit          3D

 31 32  0  0  1  0  0  0  0  0999 V2000
   27.6781  -17.6028  -20.6607 N   0  0  0  0  0  0  0  0  0  0  0  0
   27.4652  -17.9960  -19.2801 C   0  0  1  0  0  0  0  0  0  0  0  0
   28.4813  -17.2528  -18.4455 C   0  0  0  0  0  0  0  0  0  0  0  0
   28.2234  -17.5027  -16.6735 S   0  0  0  0  0  0  0  0  0  0  0  0
   26.0757  -17.7219  -18.8392 C   0  0  0  0  0  0  0  0  0  0  0  0
   25.5159  -16.6891  -19.2586 O   0  0  0  0  0  0  0  0  0  0  0  0
   17.7366  -17.3786  -16.5853 O   0  0  0  0  0  0  0  0  0  0  0  0
   19.0263  -17.6628  -17.0808 C   0  0  0  0  0  0  0  0  0  0  0  0
   19.8639  -16.6487  -17.4899 C   0  0  0  0  0  0  0  0  0  0  0  0
   21.1193  -16.9313  -17.9721 C   0  0  0  0  0  0  0  0  0  0  0  0
   21.6150  -18.2428  -18.0753 C   0  0  0  0  0  0  0  0  0  0  0  0
   22.9885  -18.4615  -18.5951 C   0  0  0  0  0  0  0  0  0  0  0  0
   24.0474  -18.4057  -17.5050 C   0  0  2  0  0  0  0  0  0  0  0  0
   25.3886  -18.5893  -17.9720 N   0  0  0  0  0  0  0  0  0  0  0  0
   23.6895  -19.2235  -16.3372 C   0  0  0  0  0  0  0  0  0  0  0  0
   23.8993  -20.4594  -16.3806 O   0  0  0  0  0  0  0  0  0  0  0  0
   20.7579  -19.2278  -17.6602 C   0  0  0  0  0  0  0  0  0  0  0  0
   19.4849  -18.9510  -17.1707 C   0  0  0  0  0  0  0  0  0  0  0  0
   21.6825  -21.7362   -8.1394 O   0  0  0  0  0  0  0  0  0  0  0  0
   22.0574  -20.9991   -9.2580 C   0  0  0  0  0  0  0  0  0  0  0  0
   21.1699  -20.1318   -9.8562 C   0  0  0  0  0  0  0  0  0  0  0  0
   21.5194  -19.3916  -10.9648 C   0  0  0  0  0  0  0  0  0  0  0  0
   22.7950  -19.4890  -11.5331 C   0  0  0  0  0  0  0  0  0  0  0  0
   23.1206  -18.6894  -12.7323 C   0  0  0  0  0  0  0  0  0  0  0  0
   22.8285  -19.4627  -13.9843 C   0  0  2  0  0  0  0  0  0  0  0  0
   23.1218  -18.6739  -15.1745 N   0  0  0  0  0  0  0  0  0  0  0  0
   21.4623  -19.9761  -14.0702 C   0  0  0  0  0  0  0  0  0  0  0  0
   20.3881  -19.2144  -14.4870 O   0  0  0  0  0  0  0  0  0  0  0  0
   23.6699  -20.3610  -10.9226 C   0  0  0  0  0  0  0  0  0  0  0  0
   23.3176  -21.1053   -9.8072 C   0  0  0  0  0  0  0  0  0  0  0  0
   21.2191  -21.1794  -13.7505 O   0  0  0  0  0  0  0  0  0  0  0  0
  2  3  1  0
  2  1  1  6
  4  3  1  0
  5  2  1  0
  6  5  2  0
  8  9  2  0
  8  7  1  0
 10  9  1  0
 11 10  2  0
 13 12  1  6
 12 11  1  0
 13 14  1  0
 14  5  1  0
 15 26  1  0
 15 13  1  0
 16 15  2  0
 17 11  1  0
 17 18  2  0
 18  8  1  0
 20 19  1  0
 21 20  2  0
 22 21  1  0
 23 29  1  0
 23 22  2  0
 24 23  1  0
 25 24  1  1
 25 26  1  0
 27 28  1  0
 27 25  1  0
 29 30  2  0
 30 20  1  0
 31 27  2  0
M  END
$$$$
