CYY.pdb
     RDKit          3D

 31 32  0  0  1  0  0  0  0  0999 V2000
   30.2556  -22.9492  -17.4561 N   0  0  0  0  0  0  0  0  0  0  0  0
   28.9429  -22.3391  -17.5578 C   0  0  1  0  0  0  0  0  0  0  0  0
   28.0094  -23.3858  -18.1184 C   0  0  0  0  0  0  0  0  0  0  0  0
   27.6315  -24.6795  -16.9133 S   0  0  0  0  0  0  0  0  0  0  0  0
   28.4755  -21.8207  -16.2489 C   0  0  0  0  0  0  0  0  0  0  0  0
   29.1066  -22.1488  -15.2242 O   0  0  0  0  0  0  0  0  0  0  0  0
   29.8413  -16.7490  -19.4422 O   0  0  0  0  0  0  0  0  0  0  0  0
   29.1972  -17.2782  -18.3044 C   0  0  0  0  0  0  0  0  0  0  0  0
   29.9276  -17.7783  -17.2492 C   0  0  0  0  0  0  0  0  0  0  0  0
   29.2949  -18.2929  -16.1432 C   0  0  0  0  0  0  0  0  0  0  0  0
   27.8949  -18.3397  -16.0231 C   0  0  0  0  0  0  0  0  0  0  0  0
   27.2900  -18.9002  -14.7884 C   0  0  0  0  0  0  0  0  0  0  0  0
   26.8917  -20.3603  -14.9371 C   0  0  2  0  0  0  0  0  0  0  0  0
   27.3533  -20.9804  -16.1424 N   0  0  0  0  0  0  0  0  0  0  0  0
   25.4694  -20.5835  -14.6408 C   0  0  0  0  0  0  0  0  0  0  0  0
   24.6603  -20.6602  -15.5961 O   0  0  0  0  0  0  0  0  0  0  0  0
   27.1980  -17.8344  -17.0889 C   0  0  0  0  0  0  0  0  0  0  0  0
   27.8302  -17.3116  -18.2129 C   0  0  0  0  0  0  0  0  0  0  0  0
   17.8123  -20.4048  -10.2955 O   0  0  0  0  0  0  0  0  0  0  0  0
   19.1593  -20.5708  -10.6006 C   0  0  0  0  0  0  0  0  0  0  0  0
   20.0348  -19.5111  -10.5098 C   0  0  0  0  0  0  0  0  0  0  0  0
   21.3730  -19.6524  -10.8070 C   0  0  0  0  0  0  0  0  0  0  0  0
   21.9027  -20.8822  -11.2152 C   0  0  0  0  0  0  0  0  0  0  0  0
   23.3405  -20.9836  -11.5404 C   0  0  0  0  0  0  0  0  0  0  0  0
   23.5639  -20.8470  -13.0177 C   0  0  2  0  0  0  0  0  0  0  0  0
   24.9818  -20.7144  -13.3287 N   0  0  0  0  0  0  0  0  0  0  0  0
   22.8287  -19.7464  -13.6388 C   0  0  0  0  0  0  0  0  0  0  0  0
   23.2643  -18.4358  -13.6228 O   0  0  0  0  0  0  0  0  0  0  0  0
   21.0133  -21.9312  -11.3007 C   0  0  0  0  0  0  0  0  0  0  0  0
   19.6671  -21.7883  -11.0015 C   0  0  0  0  0  0  0  0  0  0  0  0
   21.7296  -19.9756  -14.2292 O   0  0  0  0  0  0  0  0  0  0  0  0
  2  3  1  0
  2  1  1  1
  4  3  1  0
  5  2  1  0
  6  5  2  0
  8  9  2  0
  8  7  1  0
 10  9  1  0
 11 10  2  0
 13 12  1  6
 12 11  1  0
 13 14  1  0
 14  5  1  0
 15 26  1  0
 15 13  1  0
 16 15  2  0
 17 11  1  0
 17 18  2  0
 18  8  1  0
 20 19  1  0
 21 20  2  0
 22 21  1  0
 23 29  1  0
 23 22  2  0
 24 23  1  0
 25 24  1  1
 25 26  1  0
 27 28  1  0
 27 25  1  0
 29 30  2  0
 30 20  1  0
 31 27  2  0
M  END
$$$$
