CYY.pdb
     RDKit          3D

 31 32  0  0  1  0  0  0  0  0999 V2000
   28.6422  -20.5354  -13.9268 N   0  0  0  0  0  0  0  0  0  0  0  0
   27.6112  -19.6535  -13.4120 C   0  0  1  0  0  0  0  0  0  0  0  0
   27.1566  -18.7845  -14.5607 C   0  0  0  0  0  0  0  0  0  0  0  0
   28.3086  -17.4306  -14.8902 S   0  0  0  0  0  0  0  0  0  0  0  0
   26.4880  -20.4138  -12.8113 C   0  0  0  0  0  0  0  0  0  0  0  0
   26.3060  -21.5906  -13.1827 O   0  0  0  0  0  0  0  0  0  0  0  0
   28.5223  -20.2404   -6.3112 O   0  0  0  0  0  0  0  0  0  0  0  0
   27.4329  -20.1666   -7.2041 C   0  0  0  0  0  0  0  0  0  0  0  0
   26.7253  -21.2971   -7.5482 C   0  0  0  0  0  0  0  0  0  0  0  0
   25.6648  -21.2196   -8.4188 C   0  0  0  0  0  0  0  0  0  0  0  0
   25.2462  -20.0092   -8.9987 C   0  0  0  0  0  0  0  0  0  0  0  0
   24.0819  -20.0095   -9.9200 C   0  0  0  0  0  0  0  0  0  0  0  0
   24.4463  -20.4451  -11.3308 C   0  0  2  0  0  0  0  0  0  0  0  0
   25.6385  -19.8432  -11.8473 N   0  0  0  0  0  0  0  0  0  0  0  0
   23.2946  -20.4012  -12.2431 C   0  0  0  0  0  0  0  0  0  0  0  0
   23.1906  -19.4341  -13.0351 O   0  0  0  0  0  0  0  0  0  0  0  0
   25.9701  -18.9041   -8.6358 C   0  0  0  0  0  0  0  0  0  0  0  0
   27.0455  -18.9732   -7.7552 C   0  0  0  0  0  0  0  0  0  0  0  0
   24.8859  -26.3751  -15.0196 O   0  0  0  0  0  0  0  0  0  0  0  0
   24.1086  -25.2248  -14.9320 C   0  0  0  0  0  0  0  0  0  0  0  0
   24.7001  -23.9842  -14.8379 C   0  0  0  0  0  0  0  0  0  0  0  0
   23.9502  -22.8314  -14.7502 C   0  0  0  0  0  0  0  0  0  0  0  0
   22.5508  -22.8707  -14.7528 C   0  0  0  0  0  0  0  0  0  0  0  0
   21.7870  -21.6108  -14.6393 C   0  0  0  0  0  0  0  0  0  0  0  0
   21.2382  -21.4431  -13.2531 C   0  0  2  0  0  0  0  0  0  0  0  0
   22.3064  -21.4010  -12.2623 N   0  0  0  0  0  0  0  0  0  0  0  0
   20.2602  -22.4585  -12.8655 C   0  0  0  0  0  0  0  0  0  0  0  0
   20.4202  -23.2921  -11.7759 O   0  0  0  0  0  0  0  0  0  0  0  0
   21.9758  -24.1193  -14.8473 C   0  0  0  0  0  0  0  0  0  0  0  0
   22.7309  -25.2787  -14.9356 C   0  0  0  0  0  0  0  0  0  0  0  0
   19.2004  -22.6064  -13.5468 O   0  0  0  0  0  0  0  0  0  0  0  0
  2  3  1  0
  2  1  1  6
  4  3  1  0
  5  2  1  0
  6  5  2  0
  8  9  2  0
  8  7  1  0
 10  9  1  0
 11 10  2  0
 13 12  1  1
 12 11  1  0
 13 14  1  0
 14  5  1  0
 15 26  1  0
 15 13  1  0
 16 15  2  0
 17 11  1  0
 17 18  2  0
 18  8  1  0
 20 19  1  0
 21 20  2  0
 22 21  1  0
 23 29  1  0
 23 22  2  0
 24 23  1  0
 25 24  1  6
 25 26  1  0
 27 28  1  0
 27 25  1  0
 29 30  2  0
 30 20  1  0
 31 27  2  0
M  END
$$$$
