NVC.pdb
     RDKit          3D

 22 21  0  0  1  0  0  0  0  0999 V2000
   14.6956  -11.6435  -17.0439 N   0  0  0  0  0  0  0  0  0  0  0  0
   15.9848  -11.1864  -17.4019 C   0  0  0  0  0  0  0  0  0  0  0  0
   16.3193  -11.2312  -18.6263 O   0  0  0  0  0  0  0  0  0  0  0  0
   16.9026  -10.6716  -16.3654 C   0  0  0  0  0  0  0  0  0  0  0  0
   18.2160  -11.3651  -16.4737 C   0  0  2  0  0  0  0  0  0  0  0  0
   18.1257  -12.7119  -15.9777 N   0  0  0  0  0  0  0  0  0  0  0  0
   19.2807  -10.6814  -15.6897 C   0  0  0  0  0  0  0  0  0  0  0  0
   19.1383  -10.7572  -14.4372 O   0  0  0  0  0  0  0  0  0  0  0  0
   22.8299  -11.3674  -15.3423 C   0  0  0  0  0  0  0  0  0  0  0  0
   22.7603   -9.9095  -15.6929 C   0  0  2  0  0  0  0  0  0  0  0  0
   23.9138   -9.2264  -15.0294 C   0  0  0  0  0  0  0  0  0  0  0  0
   21.4298   -9.3374  -15.4418 C   0  0  2  0  0  0  0  0  0  0  0  0
   20.3749   -9.9953  -16.2296 N   0  0  0  0  0  0  0  0  0  0  0  0
   21.2492   -7.8978  -15.4155 C   0  0  0  0  0  0  0  0  0  0  0  0
   21.3861   -7.2562  -16.5209 O   0  0  0  0  0  0  0  0  0  0  0  0
   20.9331   -7.0589  -14.3329 N   0  0  0  0  0  0  0  0  0  0  0  0
   20.9256   -5.5881  -14.4188 C   0  0  1  0  0  0  0  0  0  0  0  0
   19.5662   -5.1759  -13.9120 C   0  0  0  0  0  0  0  0  0  0  0  0
   18.2005   -5.8222  -14.8950 S   0  0  0  0  0  0  0  0  0  0  0  0
   21.9891   -4.9682  -13.6422 C   0  0  0  0  0  0  0  0  0  0  0  0
   22.6525   -5.6363  -12.8247 O   0  0  0  0  0  0  0  0  0  0  0  0
   22.2585   -3.6023  -13.8238 O   0  0  0  0  0  0  0  0  0  0  0  0
  1  2  1  0
  2  3  2  0
  4  2  1  0
  5  4  1  0
  5  6  1  1
  7  8  2  0
  7  5  1  0
 10  9  1  1
 10 12  1  0
 11 10  1  0
 12 14  1  0
 12 13  1  6
 13  7  1  0
 14 16  1  0
 15 14  2  0
 16 17  1  0
 17 20  1  0
 18 19  1  0
 17 18  1  1
 20 21  2  0
 20 22  1  0
M  END
$$$$
