NVC.pdb
     RDKit          3D

 22 21  0  0  1  0  0  0  0  0999 V2000
   28.6620  -20.0062  -17.0404 N   0  0  0  0  0  0  0  0  0  0  0  0
   27.3796  -19.4108  -17.0477 C   0  0  0  0  0  0  0  0  0  0  0  0
   27.1475  -18.4950  -17.8967 O   0  0  0  0  0  0  0  0  0  0  0  0
   26.3499  -19.8575  -16.0876 C   0  0  0  0  0  0  0  0  0  0  0  0
   26.9493  -20.8264  -15.1287 C   0  0  2  0  0  0  0  0  0  0  0  0
   27.2965  -22.0542  -15.7921 N   0  0  0  0  0  0  0  0  0  0  0  0
   26.0159  -21.1761  -14.0233 C   0  0  0  0  0  0  0  0  0  0  0  0
   25.2659  -22.1630  -14.2645 O   0  0  0  0  0  0  0  0  0  0  0  0
   26.6488  -21.1263  -10.0481 C   0  0  0  0  0  0  0  0  0  0  0  0
   25.3704  -20.4293  -10.4132 C   0  0  2  0  0  0  0  0  0  0  0  0
   24.3970  -20.6514   -9.2995 C   0  0  0  0  0  0  0  0  0  0  0  0
   24.9090  -20.7799  -11.7640 C   0  0  2  0  0  0  0  0  0  0  0  0
   25.9249  -20.5114  -12.7946 N   0  0  0  0  0  0  0  0  0  0  0  0
   23.5869  -20.3799  -12.2087 C   0  0  0  0  0  0  0  0  0  0  0  0
   23.5081  -19.4607  -13.1037 O   0  0  0  0  0  0  0  0  0  0  0  0
   22.3282  -20.8571  -11.8040 N   0  0  0  0  0  0  0  0  0  0  0  0
   21.0672  -20.4958  -12.4749 C   0  0  1  0  0  0  0  0  0  0  0  0
   21.0954  -21.2433  -13.7845 C   0  0  0  0  0  0  0  0  0  0  0  0
   19.5199  -21.2294  -14.6601 S   0  0  0  0  0  0  0  0  0  0  0  0
   19.8888  -20.8422  -11.6941 C   0  0  0  0  0  0  0  0  0  0  0  0
   19.8550  -21.8943  -11.0257 O   0  0  0  0  0  0  0  0  0  0  0  0
   18.7848  -19.9749  -11.7047 O   0  0  0  0  0  0  0  0  0  0  0  0
  1  2  1  0
  2  3  2  0
  4  2  1  0
  5  4  1  0
  5  6  1  6
  7  8  2  0
  7  5  1  0
 10  9  1  1
 10 12  1  0
 11 10  1  0
 12 14  1  0
 12 13  1  6
 13  7  1  0
 14 16  1  0
 15 14  2  0
 16 17  1  0
 17 20  1  0
 18 19  1  0
 17 18  1  6
 20 21  2  0
 20 22  1  0
M  END
$$$$
