NVC.pdb
     RDKit          3D

 22 21  0  0  1  0  0  0  0  0999 V2000
   29.1492  -19.0165  -16.6534 N   0  0  0  0  0  0  0  0  0  0  0  0
   27.7982  -18.7855  -17.0006 C   0  0  0  0  0  0  0  0  0  0  0  0
   27.5475  -17.9160  -17.8919 O   0  0  0  0  0  0  0  0  0  0  0  0
   26.7216  -19.5471  -16.3355 C   0  0  0  0  0  0  0  0  0  0  0  0
   27.3180  -20.5331  -15.3922 C   0  0  2  0  0  0  0  0  0  0  0  0
   27.9677  -21.5976  -16.1084 N   0  0  0  0  0  0  0  0  0  0  0  0
   26.2953  -21.1601  -14.5111 C   0  0  0  0  0  0  0  0  0  0  0  0
   25.6345  -22.0885  -15.0552 O   0  0  0  0  0  0  0  0  0  0  0  0
   24.8853  -19.8700  -10.3966 C   0  0  0  0  0  0  0  0  0  0  0  0
   25.2476  -21.2341  -10.9077 C   0  0  2  0  0  0  0  0  0  0  0  0
   26.6439  -21.5312  -10.4615 C   0  0  0  0  0  0  0  0  0  0  0  0
   24.9752  -21.3830  -12.3445 C   0  0  2  0  0  0  0  0  0  0  0  0
   26.0359  -20.8016  -13.1830 N   0  0  0  0  0  0  0  0  0  0  0  0
   23.6582  -21.0774  -12.8716 C   0  0  0  0  0  0  0  0  0  0  0  0
   23.4172  -19.8624  -13.2152 O   0  0  0  0  0  0  0  0  0  0  0  0
   22.5606  -21.9310  -13.0777 N   0  0  0  0  0  0  0  0  0  0  0  0
   21.2623  -21.4740  -13.6032 C   0  0  1  0  0  0  0  0  0  0  0  0
   20.7354  -22.6382  -14.4042 C   0  0  0  0  0  0  0  0  0  0  0  0
   19.0320  -22.4267  -14.9546 S   0  0  0  0  0  0  0  0  0  0  0  0
   20.3290  -21.0885  -12.5550 C   0  0  0  0  0  0  0  0  0  0  0  0
   20.3286  -21.6766  -11.4554 O   0  0  0  0  0  0  0  0  0  0  0  0
   19.4236  -20.0436  -12.7988 O   0  0  0  0  0  0  0  0  0  0  0  0
  1  2  1  0
  2  3  2  0
  4  2  1  0
  5  4  1  0
  5  6  1  6
  7  8  2  0
  7  5  1  0
 10  9  1  6
 10 12  1  0
 11 10  1  0
 12 14  1  0
 12 13  1  6
 13  7  1  0
 14 16  1  0
 15 14  2  0
 16 17  1  0
 17 20  1  0
 18 19  1  0
 17 18  1  1
 20 21  2  0
 20 22  1  0
M  END
$$$$
