NVC.pdb
     RDKit          3D

 22 21  0  0  1  0  0  0  0  0999 V2000
   19.5924  -11.8425  -20.5936 N   0  0  0  0  0  0  0  0  0  0  0  0
   20.7305  -12.3076  -19.8953 C   0  0  0  0  0  0  0  0  0  0  0  0
   20.9897  -13.5505  -19.9296 O   0  0  0  0  0  0  0  0  0  0  0  0
   21.5843  -11.3574  -19.1539 C   0  0  0  0  0  0  0  0  0  0  0  0
   22.4156  -12.1000  -18.1664 C   0  0  2  0  0  0  0  0  0  0  0  0
   21.5917  -12.6931  -17.1477 N   0  0  0  0  0  0  0  0  0  0  0  0
   23.3950  -11.2167  -17.4765 C   0  0  0  0  0  0  0  0  0  0  0  0
   22.8748  -10.2750  -16.8153 O   0  0  0  0  0  0  0  0  0  0  0  0
   26.5464  -12.1505  -15.2989 C   0  0  0  0  0  0  0  0  0  0  0  0
   26.9201  -11.1333  -16.3376 C   0  0  2  0  0  0  0  0  0  0  0  0
   27.9961  -10.2687  -15.7612 C   0  0  0  0  0  0  0  0  0  0  0  0
   25.7470  -10.4380  -16.8861 C   0  0  2  0  0  0  0  0  0  0  0  0
   24.7870  -11.3603  -17.5139 N   0  0  0  0  0  0  0  0  0  0  0  0
   25.9183   -9.2343  -17.6783 C   0  0  0  0  0  0  0  0  0  0  0  0
   26.4477   -8.2114  -17.1076 O   0  0  0  0  0  0  0  0  0  0  0  0
   25.5878   -8.9984  -19.0240 N   0  0  0  0  0  0  0  0  0  0  0  0
   25.8338   -7.7178  -19.7096 C   0  0  1  0  0  0  0  0  0  0  0  0
   26.1746   -8.0959  -21.1293 C   0  0  0  0  0  0  0  0  0  0  0  0
   27.5405   -9.2650  -21.2592 S   0  0  0  0  0  0  0  0  0  0  0  0
   24.6900   -6.8191  -19.6624 C   0  0  0  0  0  0  0  0  0  0  0  0
   24.7708   -5.6615  -20.1189 O   0  0  0  0  0  0  0  0  0  0  0  0
   23.4899   -7.2726  -19.0919 O   0  0  0  0  0  0  0  0  0  0  0  0
  1  2  1  0
  2  3  2  0
  4  2  1  0
  5  4  1  0
  5  6  1  1
  7  8  2  0
  7  5  1  0
 10  9  1  1
 10 12  1  0
 11 10  1  0
 12 14  1  0
 12 13  1  6
 13  7  1  0
 14 16  1  0
 15 14  2  0
 16 17  1  0
 17 20  1  0
 18 19  1  0
 17 18  1  6
 20 21  2  0
 20 22  1  0
M  END
$$$$
