NVC.pdb
     RDKit          3D

 22 21  0  0  1  0  0  0  0  0999 V2000
   15.2794  -11.0530  -15.7456 N   0  0  0  0  0  0  0  0  0  0  0  0
   15.7914  -10.0431  -16.5923 C   0  0  0  0  0  0  0  0  0  0  0  0
   15.1348   -9.7462  -17.6382 O   0  0  0  0  0  0  0  0  0  0  0  0
   17.0563   -9.3611  -16.2510 C   0  0  0  0  0  0  0  0  0  0  0  0
   17.6503   -9.9897  -15.0387 C   0  0  2  0  0  0  0  0  0  0  0  0
   16.8328   -9.7424  -13.8816 N   0  0  0  0  0  0  0  0  0  0  0  0
   19.0076   -9.4590  -14.7360 C   0  0  0  0  0  0  0  0  0  0  0  0
   19.0277   -8.5336  -13.8770 O   0  0  0  0  0  0  0  0  0  0  0  0
   22.3320  -11.3796  -14.0169 C   0  0  0  0  0  0  0  0  0  0  0  0
   22.5982  -10.3082  -15.0340 C   0  0  2  0  0  0  0  0  0  0  0  0
   23.9827   -9.7927  -14.8001 C   0  0  0  0  0  0  0  0  0  0  0  0
   21.5262   -9.3037  -15.0810 C   0  0  2  0  0  0  0  0  0  0  0  0
   20.2022   -9.9021  -15.3159 N   0  0  0  0  0  0  0  0  0  0  0  0
   21.7008   -8.0879  -15.8537 C   0  0  0  0  0  0  0  0  0  0  0  0
   22.6937   -7.3269  -15.5578 O   0  0  0  0  0  0  0  0  0  0  0  0
   20.9296   -7.5898  -16.9181 N   0  0  0  0  0  0  0  0  0  0  0  0
   21.2260   -6.3266  -17.6160 C   0  0  1  0  0  0  0  0  0  0  0  0
   20.8256   -6.5709  -19.0493 C   0  0  0  0  0  0  0  0  0  0  0  0
   21.5955   -8.0290  -19.7777 S   0  0  0  0  0  0  0  0  0  0  0  0
   20.5143   -5.1874  -17.0555 C   0  0  0  0  0  0  0  0  0  0  0  0
   19.6705   -5.3463  -16.1513 O   0  0  0  0  0  0  0  0  0  0  0  0
   20.7888   -3.9021  -17.5493 O   0  0  0  0  0  0  0  0  0  0  0  0
  1  2  1  0
  2  3  2  0
  4  2  1  0
  5  4  1  0
  5  6  1  1
  7  8  2  0
  7  5  1  0
 10  9  1  1
 10 12  1  0
 11 10  1  0
 12 14  1  0
 12 13  1  6
 13  7  1  0
 14 16  1  0
 15 14  2  0
 16 17  1  0
 17 20  1  0
 18 19  1  0
 17 18  1  6
 20 21  2  0
 20 22  1  0
M  END
$$$$
