NVC.pdb
     RDKit          3D

 22 21  0  0  1  0  0  0  0  0999 V2000
   17.0291  -14.6496  -15.2231 N   0  0  0  0  0  0  0  0  0  0  0  0
   18.0697  -13.8432  -15.7388 C   0  0  0  0  0  0  0  0  0  0  0  0
   19.0308  -14.4153  -16.3405 O   0  0  0  0  0  0  0  0  0  0  0  0
   18.0208  -12.3761  -15.5745 C   0  0  0  0  0  0  0  0  0  0  0  0
   16.8649  -12.0095  -14.7101 C   0  0  2  0  0  0  0  0  0  0  0  0
   15.6231  -12.1931  -15.4116 N   0  0  0  0  0  0  0  0  0  0  0  0
   16.9149  -10.5868  -14.2755 C   0  0  0  0  0  0  0  0  0  0  0  0
   16.4605   -9.7657  -15.1204 O   0  0  0  0  0  0  0  0  0  0  0  0
   17.4165   -8.9909  -10.2247 C   0  0  0  0  0  0  0  0  0  0  0  0
   16.8059   -8.3764  -11.4506 C   0  0  2  0  0  0  0  0  0  0  0  0
   15.3475   -8.7082  -11.4478 C   0  0  0  0  0  0  0  0  0  0  0  0
   17.5499   -8.7117  -12.6733 C   0  0  2  0  0  0  0  0  0  0  0  0
   17.4091  -10.1278  -13.0488 N   0  0  0  0  0  0  0  0  0  0  0  0
   18.9162   -8.2535  -12.8431 C   0  0  0  0  0  0  0  0  0  0  0  0
   19.8531   -9.1325  -12.7987 O   0  0  0  0  0  0  0  0  0  0  0  0
   19.3992   -6.9514  -13.0599 N   0  0  0  0  0  0  0  0  0  0  0  0
   20.8228   -6.6368  -13.2728 C   0  0  1  0  0  0  0  0  0  0  0  0
   21.2430   -7.5031  -14.4336 C   0  0  0  0  0  0  0  0  0  0  0  0
   22.9210   -7.1805  -15.0075 S   0  0  0  0  0  0  0  0  0  0  0  0
   21.0576   -5.2280  -13.5528 C   0  0  0  0  0  0  0  0  0  0  0  0
   20.2060   -4.5494  -14.1603 O   0  0  0  0  0  0  0  0  0  0  0  0
   22.2609   -4.6405  -13.1309 O   0  0  0  0  0  0  0  0  0  0  0  0
  1  2  1  0
  2  3  2  0
  4  2  1  0
  5  4  1  0
  5  6  1  6
  7  8  2  0
  7  5  1  0
 10  9  1  1
 10 12  1  0
 11 10  1  0
 12 14  1  0
 12 13  1  1
 13  7  1  0
 14 16  1  0
 15 14  2  0
 16 17  1  0
 17 20  1  0
 18 19  1  0
 17 18  1  6
 20 21  2  0
 20 22  1  0
M  END
$$$$
