NVC.pdb
     RDKit          3D

 22 21  0  0  1  0  0  0  0  0999 V2000
   16.9415  -12.0879  -18.9820 N   0  0  0  0  0  0  0  0  0  0  0  0
   16.4244  -10.9555  -18.3116 C   0  0  0  0  0  0  0  0  0  0  0  0
   15.4079  -10.3768  -18.8065 O   0  0  0  0  0  0  0  0  0  0  0  0
   17.0617  -10.4753  -17.0687 C   0  0  0  0  0  0  0  0  0  0  0  0
   18.1785  -11.3874  -16.6966 C   0  0  2  0  0  0  0  0  0  0  0  0
   17.6780  -12.5753  -16.0590 N   0  0  0  0  0  0  0  0  0  0  0  0
   19.1332  -10.7517  -15.7479 C   0  0  0  0  0  0  0  0  0  0  0  0
   18.7876  -10.8182  -14.5351 O   0  0  0  0  0  0  0  0  0  0  0  0
   23.4412   -9.5485  -14.0204 C   0  0  0  0  0  0  0  0  0  0  0  0
   22.5325  -10.1767  -15.0368 C   0  0  2  0  0  0  0  0  0  0  0  0
   23.3144  -10.3513  -16.2999 C   0  0  0  0  0  0  0  0  0  0  0  0
   21.2507   -9.4669  -15.1547 C   0  0  2  0  0  0  0  0  0  0  0  0
   20.3303  -10.1179  -16.1010 N   0  0  0  0  0  0  0  0  0  0  0  0
   21.2284   -8.0238  -15.3044 C   0  0  0  0  0  0  0  0  0  0  0  0
   21.5234   -7.5359  -16.4565 O   0  0  0  0  0  0  0  0  0  0  0  0
   20.9210   -7.0339  -14.3549 N   0  0  0  0  0  0  0  0  0  0  0  0
   21.0422   -5.5892  -14.6175 C   0  0  1  0  0  0  0  0  0  0  0  0
   19.6535   -5.0385  -14.4107 C   0  0  0  0  0  0  0  0  0  0  0  0
   18.4309   -5.7100  -15.5523 S   0  0  0  0  0  0  0  0  0  0  0  0
   22.0061   -4.9325  -13.7469 C   0  0  0  0  0  0  0  0  0  0  0  0
   22.4860   -5.5302  -12.7634 O   0  0  0  0  0  0  0  0  0  0  0  0
   22.3886   -3.6111  -14.0277 O   0  0  0  0  0  0  0  0  0  0  0  0
  1  2  1  0
  2  3  2  0
  4  2  1  0
  5  4  1  0
  5  6  1  1
  7  8  2  0
  7  5  1  0
 10  9  1  1
 10 12  1  0
 11 10  1  0
 12 14  1  0
 12 13  1  6
 13  7  1  0
 14 16  1  0
 15 14  2  0
 16 17  1  0
 17 20  1  0
 18 19  1  0
 17 18  1  1
 20 21  2  0
 20 22  1  0
M  END
$$$$
