NVC.pdb
     RDKit          3D

 22 21  0  0  1  0  0  0  0  0999 V2000
   15.4037  -12.4102  -16.0777 N   0  0  0  0  0  0  0  0  0  0  0  0
   15.9027  -11.8637  -14.8730 C   0  0  0  0  0  0  0  0  0  0  0  0
   15.1051  -11.7451  -13.8916 O   0  0  0  0  0  0  0  0  0  0  0  0
   17.3174  -11.4502  -14.7770 C   0  0  0  0  0  0  0  0  0  0  0  0
   17.9841  -11.6450  -16.0942 C   0  0  2  0  0  0  0  0  0  0  0  0
   18.3738  -13.0178  -16.2722 N   0  0  0  0  0  0  0  0  0  0  0  0
   19.2158  -10.8202  -16.2299 C   0  0  0  0  0  0  0  0  0  0  0  0
   20.2243  -11.2835  -15.6276 O   0  0  0  0  0  0  0  0  0  0  0  0
   19.9581   -7.8960  -19.2889 C   0  0  0  0  0  0  0  0  0  0  0  0
   20.9667   -8.6520  -18.4738 C   0  0  2  0  0  0  0  0  0  0  0  0
   21.3079   -9.9034  -19.2186 C   0  0  0  0  0  0  0  0  0  0  0  0
   20.5438   -8.8184  -17.0759 C   0  0  2  0  0  0  0  0  0  0  0  0
   19.3183   -9.6237  -16.9493 N   0  0  0  0  0  0  0  0  0  0  0  0
   20.5199   -7.6761  -16.1813 C   0  0  0  0  0  0  0  0  0  0  0  0
   19.4178   -7.0237  -16.0714 O   0  0  0  0  0  0  0  0  0  0  0  0
   21.5484   -7.1489  -15.3813 N   0  0  0  0  0  0  0  0  0  0  0  0
   21.4147   -5.9085  -14.5976 C   0  0  1  0  0  0  0  0  0  0  0  0
   21.9863   -6.2414  -13.2422 C   0  0  0  0  0  0  0  0  0  0  0  0
   22.1222   -4.8183  -12.1443 S   0  0  0  0  0  0  0  0  0  0  0  0
   22.1067   -4.7786  -15.1997 C   0  0  0  0  0  0  0  0  0  0  0  0
   23.1224   -4.9548  -15.9013 O   0  0  0  0  0  0  0  0  0  0  0  0
   21.6161   -3.4819  -14.9781 O   0  0  0  0  0  0  0  0  0  0  0  0
  1  2  1  0
  2  3  2  0
  4  2  1  0
  5  4  1  0
  5  6  1  1
  7  8  2  0
  7  5  1  0
 10  9  1  6
 10 12  1  0
 11 10  1  0
 12 14  1  0
 12 13  1  6
 13  7  1  0
 14 16  1  0
 15 14  2  0
 16 17  1  0
 17 20  1  0
 18 19  1  0
 17 18  1  1
 20 21  2  0
 20 22  1  0
M  END
$$$$
