NVC.pdb
     RDKit          3D

 22 21  0  0  1  0  0  0  0  0999 V2000
   19.1511  -20.3970  -14.8756 N   0  0  0  0  0  0  0  0  0  0  0  0
   20.4398  -19.8609  -14.6501 C   0  0  0  0  0  0  0  0  0  0  0  0
   20.7665  -18.8016  -15.2702 O   0  0  0  0  0  0  0  0  0  0  0  0
   21.3661  -20.5277  -13.7126 C   0  0  0  0  0  0  0  0  0  0  0  0
   22.6005  -20.9370  -14.4380 C   0  0  2  0  0  0  0  0  0  0  0  0
   22.3577  -22.1039  -15.2428 N   0  0  0  0  0  0  0  0  0  0  0  0
   23.7153  -21.2708  -13.5099 C   0  0  0  0  0  0  0  0  0  0  0  0
   23.5418  -22.3294  -12.8436 O   0  0  0  0  0  0  0  0  0  0  0  0
   27.6322  -19.2000  -13.2212 C   0  0  0  0  0  0  0  0  0  0  0  0
   27.3142  -20.6607  -13.0847 C   0  0  2  0  0  0  0  0  0  0  0  0
   27.5363  -21.3012  -14.4180 C   0  0  0  0  0  0  0  0  0  0  0  0
   26.0041  -20.8912  -12.4593 C   0  0  2  0  0  0  0  0  0  0  0  0
   24.8851  -20.5207  -13.3407 N   0  0  0  0  0  0  0  0  0  0  0  0
   25.7640  -20.4646  -11.0933 C   0  0  0  0  0  0  0  0  0  0  0  0
   25.1029  -19.3772  -10.9123 O   0  0  0  0  0  0  0  0  0  0  0  0
   26.1513  -21.0751   -9.8878 N   0  0  0  0  0  0  0  0  0  0  0  0
   26.0194  -20.4295   -8.5700 C   0  0  1  0  0  0  0  0  0  0  0  0
   25.0876  -21.3233   -7.7906 C   0  0  0  0  0  0  0  0  0  0  0  0
   24.9992  -20.9224   -6.0355 S   0  0  0  0  0  0  0  0  0  0  0  0
   27.2939  -20.2699   -7.8855 C   0  0  0  0  0  0  0  0  0  0  0  0
   28.2629  -21.0030   -8.1655 O   0  0  0  0  0  0  0  0  0  0  0  0
   27.4188  -19.2777   -6.8999 O   0  0  0  0  0  0  0  0  0  0  0  0
  1  2  1  0
  2  3  2  0
  4  2  1  0
  5  4  1  0
  5  6  1  1
  7  8  2  0
  7  5  1  0
 10  9  1  6
 10 12  1  0
 11 10  1  0
 12 14  1  0
 12 13  1  6
 13  7  1  0
 14 16  1  0
 15 14  2  0
 16 17  1  0
 17 20  1  0
 18 19  1  0
 17 18  1  1
 20 21  2  0
 20 22  1  0
M  END
$$$$
