NVC.pdb
     RDKit          3D

 22 21  0  0  1  0  0  0  0  0999 V2000
   18.3049  -13.0739  -19.2549 N   0  0  0  0  0  0  0  0  0  0  0  0
   17.9626  -11.7021  -19.2484 C   0  0  0  0  0  0  0  0  0  0  0  0
   17.2568  -11.2547  -20.2049 O   0  0  0  0  0  0  0  0  0  0  0  0
   18.4205  -10.8294  -18.1482 C   0  0  0  0  0  0  0  0  0  0  0  0
   19.2406  -11.6226  -17.1912 C   0  0  2  0  0  0  0  0  0  0  0  0
   18.4201  -12.5522  -16.4627 N   0  0  0  0  0  0  0  0  0  0  0  0
   19.9237  -10.7625  -16.1866 C   0  0  0  0  0  0  0  0  0  0  0  0
   19.2155  -10.4662  -15.1840 O   0  0  0  0  0  0  0  0  0  0  0  0
   24.2348   -9.8522  -16.0696 C   0  0  0  0  0  0  0  0  0  0  0  0
   23.2709  -10.0670  -14.9391 C   0  0  2  0  0  0  0  0  0  0  0  0
   23.3337  -11.5114  -14.5558 C   0  0  0  0  0  0  0  0  0  0  0  0
   21.9358   -9.5264  -15.2328 C   0  0  2  0  0  0  0  0  0  0  0  0
   21.2371  -10.2876  -16.2810 N   0  0  0  0  0  0  0  0  0  0  0  0
   21.7504   -8.0976  -15.4051 C   0  0  0  0  0  0  0  0  0  0  0  0
   21.8883   -7.6135  -16.5879 O   0  0  0  0  0  0  0  0  0  0  0  0
   21.4286   -7.1189  -14.4489 N   0  0  0  0  0  0  0  0  0  0  0  0
   21.4261   -5.6733  -14.7336 C   0  0  1  0  0  0  0  0  0  0  0  0
   19.9805   -5.2577  -14.6227 C   0  0  0  0  0  0  0  0  0  0  0  0
   19.7435   -3.4720  -14.5572 S   0  0  0  0  0  0  0  0  0  0  0  0
   22.2659   -4.9129  -13.8199 C   0  0  0  0  0  0  0  0  0  0  0  0
   22.4810   -5.3233  -12.6623 O   0  0  0  0  0  0  0  0  0  0  0  0
   22.8315   -3.7052  -14.2590 O   0  0  0  0  0  0  0  0  0  0  0  0
  1  2  1  0
  2  3  2  0
  4  2  1  0
  5  4  1  0
  5  6  1  1
  7  8  2  0
  7  5  1  0
 10  9  1  6
 10 12  1  0
 11 10  1  0
 12 14  1  0
 12 13  1  6
 13  7  1  0
 14 16  1  0
 15 14  2  0
 16 17  1  0
 17 20  1  0
 18 19  1  0
 17 18  1  1
 20 21  2  0
 20 22  1  0
M  END
$$$$
