NVC.pdb
     RDKit          3D

 22 21  0  0  1  0  0  0  0  0999 V2000
   25.9518  -26.3237  -19.2263 N   0  0  0  0  0  0  0  0  0  0  0  0
   25.0707  -26.2304  -18.1245 C   0  0  0  0  0  0  0  0  0  0  0  0
   23.9601  -26.8432  -18.1900 O   0  0  0  0  0  0  0  0  0  0  0  0
   25.4508  -25.4388  -16.9368 C   0  0  0  0  0  0  0  0  0  0  0  0
   26.7940  -24.8325  -17.1509 C   0  0  2  0  0  0  0  0  0  0  0  0
   27.8279  -25.8251  -17.0328 N   0  0  0  0  0  0  0  0  0  0  0  0
   27.0962  -23.7666  -16.1569 C   0  0  0  0  0  0  0  0  0  0  0  0
   27.7157  -24.1676  -15.1321 O   0  0  0  0  0  0  0  0  0  0  0  0
   27.5668  -19.0307  -14.7984 C   0  0  0  0  0  0  0  0  0  0  0  0
   27.2191  -20.0549  -15.8392 C   0  0  2  0  0  0  0  0  0  0  0  0
   26.1133  -19.4953  -16.6766 C   0  0  0  0  0  0  0  0  0  0  0  0
   26.9898  -21.3857  -15.2587 C   0  0  2  0  0  0  0  0  0  0  0  0
   26.7536  -22.4152  -16.2837 N   0  0  0  0  0  0  0  0  0  0  0  0
   26.0872  -21.5439  -14.1336 C   0  0  0  0  0  0  0  0  0  0  0  0
   24.8615  -21.8384  -14.3851 O   0  0  0  0  0  0  0  0  0  0  0  0
   26.3487  -21.4248  -12.7576 N   0  0  0  0  0  0  0  0  0  0  0  0
   25.2968  -21.4328  -11.7261 C   0  0  1  0  0  0  0  0  0  0  0  0
   26.0021  -21.0519  -10.4485 C   0  0  0  0  0  0  0  0  0  0  0  0
   24.8914  -20.8331   -9.0458 S   0  0  0  0  0  0  0  0  0  0  0  0
   24.2054  -20.5160  -12.0204 C   0  0  0  0  0  0  0  0  0  0  0  0
   23.0201  -20.8587  -11.8402 O   0  0  0  0  0  0  0  0  0  0  0  0
   24.5046  -19.2362  -12.5143 O   0  0  0  0  0  0  0  0  0  0  0  0
  1  2  1  0
  2  3  2  0
  4  2  1  0
  5  4  1  0
  5  6  1  1
  7  8  2  0
  7  5  1  0
 10  9  1  1
 10 12  1  0
 11 10  1  0
 12 14  1  0
 12 13  1  6
 13  7  1  0
 14 16  1  0
 15 14  2  0
 16 17  1  0
 17 20  1  0
 18 19  1  0
 17 18  1  1
 20 21  2  0
 20 22  1  0
M  END
$$$$
