NVC.pdb
     RDKit          3D

 22 21  0  0  1  0  0  0  0  0999 V2000
   17.0364  -12.7779  -17.8130 N   0  0  0  0  0  0  0  0  0  0  0  0
   16.8274  -11.3835  -17.7078 C   0  0  0  0  0  0  0  0  0  0  0  0
   15.8432  -10.8752  -18.3292 O   0  0  0  0  0  0  0  0  0  0  0  0
   17.7386  -10.5574  -16.8900 C   0  0  0  0  0  0  0  0  0  0  0  0
   18.8368  -11.4084  -16.3537 C   0  0  2  0  0  0  0  0  0  0  0  0
   18.3399  -12.3141  -15.3532 N   0  0  0  0  0  0  0  0  0  0  0  0
   19.9144  -10.6028  -15.7170 C   0  0  0  0  0  0  0  0  0  0  0  0
   19.5916  -10.0744  -14.6165 O   0  0  0  0  0  0  0  0  0  0  0  0
   23.6553  -11.5558  -15.0649 C   0  0  0  0  0  0  0  0  0  0  0  0
   23.5830  -10.2095  -15.7248 C   0  0  2  0  0  0  0  0  0  0  0  0
   24.7362   -9.3967  -15.2281 C   0  0  0  0  0  0  0  0  0  0  0  0
   22.2519   -9.5980  -15.6024 C   0  0  2  0  0  0  0  0  0  0  0  0
   21.1990  -10.4067  -16.2378 N   0  0  0  0  0  0  0  0  0  0  0  0
   22.0714   -8.1849  -15.8784 C   0  0  0  0  0  0  0  0  0  0  0  0
   22.2528   -7.7820  -17.0855 O   0  0  0  0  0  0  0  0  0  0  0  0
   21.7130   -7.1446  -15.0037 N   0  0  0  0  0  0  0  0  0  0  0  0
   21.7211   -5.7216  -15.3856 C   0  0  1  0  0  0  0  0  0  0  0  0
   20.2980   -5.2599  -15.1954 C   0  0  0  0  0  0  0  0  0  0  0  0
   19.0927   -6.2281  -16.1222 S   0  0  0  0  0  0  0  0  0  0  0  0
   22.6454   -4.9256  -14.5917 C   0  0  0  0  0  0  0  0  0  0  0  0
   23.2234   -5.4190  -13.6031 O   0  0  0  0  0  0  0  0  0  0  0  0
   22.8773   -3.5887  -14.9525 O   0  0  0  0  0  0  0  0  0  0  0  0
  1  2  1  0
  2  3  2  0
  4  2  1  0
  5  4  1  0
  5  6  1  1
  7  8  2  0
  7  5  1  0
 10  9  1  1
 10 12  1  0
 11 10  1  0
 12 14  1  0
 12 13  1  6
 13  7  1  0
 14 16  1  0
 15 14  2  0
 16 17  1  0
 17 20  1  0
 18 19  1  0
 17 18  1  1
 20 21  2  0
 20 22  1  0
M  END
$$$$
