NVC.pdb
     RDKit          3D

 22 21  0  0  1  0  0  0  0  0999 V2000
   14.7455  -10.8293  -17.6916 N   0  0  0  0  0  0  0  0  0  0  0  0
   15.6408  -11.5130  -16.8371 C   0  0  0  0  0  0  0  0  0  0  0  0
   16.1286  -12.6156  -17.2366 O   0  0  0  0  0  0  0  0  0  0  0  0
   15.9893  -10.9426  -15.5200 C   0  0  0  0  0  0  0  0  0  0  0  0
   17.4499  -11.1031  -15.2780 C   0  0  2  0  0  0  0  0  0  0  0  0
   17.7734  -12.4750  -14.9928 N   0  0  0  0  0  0  0  0  0  0  0  0
   17.9218  -10.2935  -14.1215 C   0  0  0  0  0  0  0  0  0  0  0  0
   17.6618  -10.7943  -12.9918 O   0  0  0  0  0  0  0  0  0  0  0  0
   21.5051   -8.6870  -13.5958 C   0  0  0  0  0  0  0  0  0  0  0  0
   20.4196   -7.6819  -13.3415 C   0  0  2  0  0  0  0  0  0  0  0  0
   20.9251   -6.7154  -12.3180 C   0  0  0  0  0  0  0  0  0  0  0  0
   19.1251   -8.3175  -13.0568 C   0  0  2  0  0  0  0  0  0  0  0  0
   18.6028   -9.0734  -14.2066 N   0  0  0  0  0  0  0  0  0  0  0  0
   18.0738   -7.5652  -12.3977 C   0  0  0  0  0  0  0  0  0  0  0  0
   17.3020   -6.8449  -13.1311 O   0  0  0  0  0  0  0  0  0  0  0  0
   17.7487   -7.4971  -11.0319 N   0  0  0  0  0  0  0  0  0  0  0  0
   16.7119   -6.6038  -10.4861 C   0  0  1  0  0  0  0  0  0  0  0  0
   16.4104   -7.1511   -9.1134 C   0  0  0  0  0  0  0  0  0  0  0  0
   15.3050   -6.1077   -8.1447 S   0  0  0  0  0  0  0  0  0  0  0  0
   17.1379   -5.2137  -10.4186 C   0  0  0  0  0  0  0  0  0  0  0  0
   16.3420   -4.2907  -10.6823 O   0  0  0  0  0  0  0  0  0  0  0  0
   18.4622   -4.9235  -10.0540 O   0  0  0  0  0  0  0  0  0  0  0  0
  1  2  1  0
  2  3  2  0
  4  2  1  0
  5  4  1  0
  5  6  1  1
  7  8  2  0
  7  5  1  0
 10  9  1  1
 10 12  1  0
 11 10  1  0
 12 14  1  0
 12 13  1  6
 13  7  1  0
 14 16  1  0
 15 14  2  0
 16 17  1  0
 17 20  1  0
 18 19  1  0
 17 18  1  1
 20 21  2  0
 20 22  1  0
M  END
$$$$
