NVC.pdb
     RDKit          3D

 22 21  0  0  1  0  0  0  0  0999 V2000
   27.9718  -18.4827  -18.0536 N   0  0  0  0  0  0  0  0  0  0  0  0
   27.9113  -18.5969  -16.6456 C   0  0  0  0  0  0  0  0  0  0  0  0
   28.8324  -18.0554  -15.9590 O   0  0  0  0  0  0  0  0  0  0  0  0
   26.7970  -19.3280  -16.0089 C   0  0  0  0  0  0  0  0  0  0  0  0
   27.3420  -20.3678  -15.0927 C   0  0  2  0  0  0  0  0  0  0  0  0
   27.9648  -21.4294  -15.8366 N   0  0  0  0  0  0  0  0  0  0  0  0
   26.2831  -20.9878  -14.2501 C   0  0  0  0  0  0  0  0  0  0  0  0
   25.5626  -21.8317  -14.8528 O   0  0  0  0  0  0  0  0  0  0  0  0
   25.0227  -19.9005  -10.0355 C   0  0  0  0  0  0  0  0  0  0  0  0
   25.2102  -21.2497  -10.6660 C   0  0  2  0  0  0  0  0  0  0  0  0
   26.5553  -21.7603  -10.2568 C   0  0  0  0  0  0  0  0  0  0  0  0
   24.9275  -21.2365  -12.1084 C   0  0  2  0  0  0  0  0  0  0  0  0
   26.0505  -20.7067  -12.8986 N   0  0  0  0  0  0  0  0  0  0  0  0
   23.6558  -20.7364  -12.5968 C   0  0  0  0  0  0  0  0  0  0  0  0
   23.5524  -19.4741  -12.8161 O   0  0  0  0  0  0  0  0  0  0  0  0
   22.4724  -21.4390  -12.8827 N   0  0  0  0  0  0  0  0  0  0  0  0
   21.2069  -20.7829  -13.2554 C   0  0  1  0  0  0  0  0  0  0  0  0
   20.9824  -21.1620  -14.6978 C   0  0  0  0  0  0  0  0  0  0  0  0
   19.3607  -20.6891  -15.3268 S   0  0  0  0  0  0  0  0  0  0  0  0
   20.0871  -21.1931  -12.4210 C   0  0  0  0  0  0  0  0  0  0  0  0
   20.1537  -22.2296  -11.7311 O   0  0  0  0  0  0  0  0  0  0  0  0
   18.9251  -20.4053  -12.4041 O   0  0  0  0  0  0  0  0  0  0  0  0
  1  2  1  0
  2  3  2  0
  4  2  1  0
  5  4  1  0
  5  6  1  6
  7  8  2  0
  7  5  1  0
 10  9  1  6
 10 12  1  0
 11 10  1  0
 12 14  1  0
 12 13  1  6
 13  7  1  0
 14 16  1  0
 15 14  2  0
 16 17  1  0
 17 20  1  0
 18 19  1  0
 17 18  1  6
 20 21  2  0
 20 22  1  0
M  END
$$$$
