CLV.pdb
     RDKit          3D

 22 21  0  0  1  0  0  0  0  0999 V2000
    9.4962  -15.7513   19.9504 N   0  0  0  0  0  0  0  0  0  0  0  0
    8.3523  -15.9073   20.8553 C   0  0  1  0  0  0  0  0  0  0  0  0
    8.0133  -17.3868   20.8504 C   0  0  0  0  0  0  0  0  0  0  0  0
    6.9397  -17.6545   19.3908 S   0  0  0  0  0  0  0  0  0  0  0  0
    8.6962  -15.3984   22.1858 C   0  0  0  0  0  0  0  0  0  0  0  0
    9.9135  -15.4104   22.5750 O   0  0  0  0  0  0  0  0  0  0  0  0
    8.3656  -11.9915   26.1499 C   0  0  0  0  0  0  0  0  0  0  0  0
    7.2815  -13.0370   26.3138 C   0  0  1  0  0  0  0  0  0  0  0  0
    6.1464  -12.4236   27.0528 C   0  0  0  0  0  0  0  0  0  0  0  0
    6.9433  -13.5588   24.9643 C   0  0  0  0  0  0  0  0  0  0  0  0
    8.0499  -14.3376   24.3044 C   0  0  2  0  0  0  0  0  0  0  0  0
    7.6803  -14.8935   23.0402 N   0  0  0  0  0  0  0  0  0  0  0  0
    8.3910  -15.4520   25.2248 C   0  0  0  0  0  0  0  0  0  0  0  0
    7.5474  -16.3457   25.4385 O   0  0  0  0  0  0  0  0  0  0  0  0
   11.2320  -17.6566   24.4618 C   0  0  0  0  0  0  0  0  0  0  0  0
   11.3393  -17.2702   25.8992 C   0  0  2  0  0  0  0  0  0  0  0  0
   11.8555  -18.4455   26.6918 C   0  0  0  0  0  0  0  0  0  0  0  0
   10.0270  -16.7900   26.4789 C   0  0  2  0  0  0  0  0  0  0  0  0
    9.6509  -15.5449   25.8795 N   0  0  0  0  0  0  0  0  0  0  0  0
   10.1179  -16.6378   27.9558 C   0  0  0  0  0  0  0  0  0  0  0  0
   10.1564  -17.8054   28.7399 O   0  0  0  0  0  0  0  0  0  0  0  0
   10.1615  -15.5379   28.5316 O   0  0  0  0  0  0  0  0  0  0  0  0
  2  1  1  6
  2  3  1  0
  3  4  1  0
  5  2  1  0
  6  5  2  0
  8  7  1  6
  8 10  1  0
  9  8  1  0
 11 10  1  1
 11 12  1  0
 11 13  1  0
 12  5  1  0
 13 14  2  0
 16 15  1  6
 17 16  1  0
 18 16  1  0
 19 13  1  0
 18 19  1  6
 20 18  1  0
 20 21  1  0
 22 20  2  0
M  END
$$$$
