CLV.pdb
     RDKit          3D

 22 21  0  0  1  0  0  0  0  0999 V2000
    5.0979  -19.7094   23.5261 N   0  0  0  0  0  0  0  0  0  0  0  0
    5.7287  -19.1891   24.7439 C   0  0  1  0  0  0  0  0  0  0  0  0
    6.7267  -20.2453   25.1825 C   0  0  0  0  0  0  0  0  0  0  0  0
    7.3988  -19.6706   26.7865 S   0  0  0  0  0  0  0  0  0  0  0  0
    6.3473  -17.8895   24.4687 C   0  0  0  0  0  0  0  0  0  0  0  0
    6.8764  -17.6673   23.3267 O   0  0  0  0  0  0  0  0  0  0  0  0
    6.8097  -12.5748   24.7137 C   0  0  0  0  0  0  0  0  0  0  0  0
    7.3352  -13.2603   25.9584 C   0  0  1  0  0  0  0  0  0  0  0  0
    7.2369  -12.3073   27.0955 C   0  0  0  0  0  0  0  0  0  0  0  0
    6.5798  -14.5276   26.1344 C   0  0  0  0  0  0  0  0  0  0  0  0
    6.9670  -15.6199   25.1734 C   0  0  2  0  0  0  0  0  0  0  0  0
    6.3590  -16.8800   25.4676 N   0  0  0  0  0  0  0  0  0  0  0  0
    8.4403  -15.7744   25.2785 C   0  0  0  0  0  0  0  0  0  0  0  0
    8.9227  -16.3554   26.2713 O   0  0  0  0  0  0  0  0  0  0  0  0
    9.8198  -16.0808   21.4860 C   0  0  0  0  0  0  0  0  0  0  0  0
   10.8756  -15.7633   22.4916 C   0  0  2  0  0  0  0  0  0  0  0  0
   12.1367  -16.5134   22.1407 C   0  0  0  0  0  0  0  0  0  0  0  0
   10.4558  -16.0888   23.9082 C   0  0  2  0  0  0  0  0  0  0  0  0
    9.3336  -15.2832   24.2859 N   0  0  0  0  0  0  0  0  0  0  0  0
   11.5785  -15.8776   24.8610 C   0  0  0  0  0  0  0  0  0  0  0  0
   11.4500  -14.8544   25.8181 O   0  0  0  0  0  0  0  0  0  0  0  0
   12.6199  -16.5548   24.8564 O   0  0  0  0  0  0  0  0  0  0  0  0
  2  1  1  6
  2  3  1  0
  3  4  1  0
  5  2  1  0
  6  5  2  0
  8  7  1  6
  8 10  1  0
  9  8  1  0
 11 10  1  1
 11 12  1  0
 11 13  1  0
 12  5  1  0
 13 14  2  0
 16 15  1  6
 17 16  1  0
 18 16  1  0
 19 13  1  0
 18 19  1  1
 20 18  1  0
 20 21  1  0
 22 20  2  0
M  END
$$$$
