CLV.pdb
     RDKit          3D

 22 21  0  0  1  0  0  0  0  0999 V2000
    8.1284  -15.3491   19.5700 N   0  0  0  0  0  0  0  0  0  0  0  0
    7.3272  -15.7496   20.7317 C   0  0  1  0  0  0  0  0  0  0  0  0
    7.3012  -17.2671   20.7192 C   0  0  0  0  0  0  0  0  0  0  0  0
    6.3371  -17.7683   22.1937 S   0  0  0  0  0  0  0  0  0  0  0  0
    7.9100  -15.1924   21.9552 C   0  0  0  0  0  0  0  0  0  0  0  0
    9.1791  -15.0855   22.0625 O   0  0  0  0  0  0  0  0  0  0  0  0
    8.4525  -12.0415   26.0374 C   0  0  0  0  0  0  0  0  0  0  0  0
    7.3006  -12.9772   26.3420 C   0  0  1  0  0  0  0  0  0  0  0  0
    6.3457  -12.2698   27.2357 C   0  0  0  0  0  0  0  0  0  0  0  0
    6.7294  -13.4335   25.0485 C   0  0  0  0  0  0  0  0  0  0  0  0
    7.6624  -14.2763   24.2205 C   0  0  2  0  0  0  0  0  0  0  0  0
    7.0677  -14.7724   23.0187 N   0  0  0  0  0  0  0  0  0  0  0  0
    8.0490  -15.4351   25.0651 C   0  0  0  0  0  0  0  0  0  0  0  0
    7.1607  -16.1953   25.5001 O   0  0  0  0  0  0  0  0  0  0  0  0
   12.1294  -16.8050   25.5344 C   0  0  0  0  0  0  0  0  0  0  0  0
   10.8821  -17.6231   25.4916 C   0  0  2  0  0  0  0  0  0  0  0  0
   10.5722  -17.9809   24.0592 C   0  0  0  0  0  0  0  0  0  0  0  0
    9.6971  -16.9224   26.1191 C   0  0  2  0  0  0  0  0  0  0  0  0
    9.4019  -15.7180   25.4025 N   0  0  0  0  0  0  0  0  0  0  0  0
    9.9547  -16.6133   27.5511 C   0  0  0  0  0  0  0  0  0  0  0  0
   10.1190  -17.6906   28.4411 O   0  0  0  0  0  0  0  0  0  0  0  0
   10.0323  -15.4580   28.0013 O   0  0  0  0  0  0  0  0  0  0  0  0
  2  1  1  6
  2  3  1  0
  3  4  1  0
  5  2  1  0
  6  5  2  0
  8  7  1  6
  8 10  1  0
  9  8  1  0
 11 10  1  1
 11 12  1  0
 11 13  1  0
 12  5  1  0
 13 14  2  0
 16 15  1  6
 17 16  1  0
 18 16  1  0
 19 13  1  0
 18 19  1  6
 20 18  1  0
 20 21  1  0
 22 20  2  0
M  END
$$$$
