CLV.pdb
     RDKit          3D

 22 21  0  0  1  0  0  0  0  0999 V2000
    7.8269  -13.9404   19.9009 N   0  0  0  0  0  0  0  0  0  0  0  0
    7.1838  -14.7200   20.9641 C   0  0  1  0  0  0  0  0  0  0  0  0
    7.2188  -16.1657   20.5029 C   0  0  0  0  0  0  0  0  0  0  0  0
    6.3796  -17.1342   21.8114 S   0  0  0  0  0  0  0  0  0  0  0  0
    7.8821  -14.5023   22.2339 C   0  0  0  0  0  0  0  0  0  0  0  0
    9.1528  -14.3657   22.2444 O   0  0  0  0  0  0  0  0  0  0  0  0
    5.9045  -11.9845   26.9290 C   0  0  0  0  0  0  0  0  0  0  0  0
    6.8298  -12.3524   25.7871 C   0  0  1  0  0  0  0  0  0  0  0  0
    8.0707  -11.5425   25.9097 C   0  0  0  0  0  0  0  0  0  0  0  0
    7.0343  -13.8237   25.8219 C   0  0  0  0  0  0  0  0  0  0  0  0
    7.8623  -14.3625   24.6858 C   0  0  2  0  0  0  0  0  0  0  0  0
    7.1494  -14.4431   23.4491 N   0  0  0  0  0  0  0  0  0  0  0  0
    8.2780  -15.7334   25.0774 C   0  0  0  0  0  0  0  0  0  0  0  0
    7.4065  -16.6104   25.2431 O   0  0  0  0  0  0  0  0  0  0  0  0
   12.3789  -17.1334   25.0792 C   0  0  0  0  0  0  0  0  0  0  0  0
   11.1425  -17.9273   24.8188 C   0  0  2  0  0  0  0  0  0  0  0  0
   10.8238  -17.8803   23.3449 C   0  0  0  0  0  0  0  0  0  0  0  0
    9.9542  -17.4460   25.6219 C   0  0  2  0  0  0  0  0  0  0  0  0
    9.6407  -16.0927   25.2734 N   0  0  0  0  0  0  0  0  0  0  0  0
   10.2184  -17.5480   27.0822 C   0  0  0  0  0  0  0  0  0  0  0  0
   10.4274  -18.8276   27.6287 O   0  0  0  0  0  0  0  0  0  0  0  0
   10.2640  -16.5664   27.8422 O   0  0  0  0  0  0  0  0  0  0  0  0
  2  1  1  6
  2  3  1  0
  3  4  1  0
  5  2  1  0
  6  5  2  0
  8  7  1  1
  8 10  1  0
  9  8  1  0
 11 10  1  1
 11 12  1  0
 11 13  1  0
 12  5  1  0
 13 14  2  0
 16 15  1  6
 17 16  1  0
 18 16  1  0
 19 13  1  0
 18 19  1  6
 20 18  1  0
 20 21  1  0
 22 20  2  0
M  END
$$$$
