CLV.pdb
     RDKit          3D

 22 21  0  0  1  0  0  0  0  0999 V2000
    8.3895  -13.9773   19.3093 N   0  0  0  0  0  0  0  0  0  0  0  0
    7.4480  -14.5151   20.2973 C   0  0  1  0  0  0  0  0  0  0  0  0
    7.2934  -15.9890   19.9692 C   0  0  0  0  0  0  0  0  0  0  0  0
    6.1900  -16.6806   21.2573 S   0  0  0  0  0  0  0  0  0  0  0  0
    7.9549  -14.2753   21.6511 C   0  0  0  0  0  0  0  0  0  0  0  0
    9.2100  -14.3482   21.8813 O   0  0  0  0  0  0  0  0  0  0  0  0
    8.3314  -12.0608   26.3294 C   0  0  0  0  0  0  0  0  0  0  0  0
    7.0868  -12.9246   26.3428 C   0  0  1  0  0  0  0  0  0  0  0  0
    6.1080  -12.3220   27.2861 C   0  0  0  0  0  0  0  0  0  0  0  0
    6.6089  -13.0575   24.9422 C   0  0  0  0  0  0  0  0  0  0  0  0
    7.5720  -13.7580   24.0212 C   0  0  2  0  0  0  0  0  0  0  0  0
    7.0548  -13.9627   22.7042 N   0  0  0  0  0  0  0  0  0  0  0  0
    7.8491  -15.0850   24.6276 C   0  0  0  0  0  0  0  0  0  0  0  0
    6.9177  -15.9059   24.7491 O   0  0  0  0  0  0  0  0  0  0  0  0
   10.6764  -18.8875   25.0568 C   0  0  0  0  0  0  0  0  0  0  0  0
   10.3376  -17.5070   24.6025 C   0  0  2  0  0  0  0  0  0  0  0  0
   11.6049  -16.6961   24.4917 C   0  0  0  0  0  0  0  0  0  0  0  0
    9.3549  -16.8109   25.5182 C   0  0  2  0  0  0  0  0  0  0  0  0
    9.1438  -15.4638   25.0800 N   0  0  0  0  0  0  0  0  0  0  0  0
    9.8361  -16.8195   26.9257 C   0  0  0  0  0  0  0  0  0  0  0  0
    9.8628  -18.0497   27.6080 O   0  0  0  0  0  0  0  0  0  0  0  0
   10.2145  -15.8013   27.5285 O   0  0  0  0  0  0  0  0  0  0  0  0
  2  1  1  6
  2  3  1  0
  3  4  1  0
  5  2  1  0
  6  5  2  0
  8  7  1  6
  8 10  1  0
  9  8  1  0
 11 10  1  1
 11 12  1  0
 11 13  1  0
 12  5  1  0
 13 14  2  0
 16 15  1  1
 17 16  1  0
 18 16  1  0
 19 13  1  0
 18 19  1  6
 20 18  1  0
 20 21  1  0
 22 20  2  0
M  END
$$$$
