CLV.pdb
     RDKit          3D

 22 21  0  0  1  0  0  0  0  0999 V2000
    8.1364  -14.9507   20.0817 N   0  0  0  0  0  0  0  0  0  0  0  0
    7.4347  -15.5423   21.2261 C   0  0  1  0  0  0  0  0  0  0  0  0
    7.4461  -17.0423   20.9942 C   0  0  0  0  0  0  0  0  0  0  0  0
    5.9340  -17.4163   20.0306 S   0  0  0  0  0  0  0  0  0  0  0  0
    8.0933  -15.1461   22.4737 C   0  0  0  0  0  0  0  0  0  0  0  0
    9.3651  -15.0247   22.5096 O   0  0  0  0  0  0  0  0  0  0  0  0
    5.8949  -11.9903   26.6723 C   0  0  0  0  0  0  0  0  0  0  0  0
    6.9053  -12.4832   25.6567 C   0  0  1  0  0  0  0  0  0  0  0  0
    8.1297  -11.6471   25.7696 C   0  0  0  0  0  0  0  0  0  0  0  0
    7.1136  -13.9359   25.8887 C   0  0  0  0  0  0  0  0  0  0  0  0
    7.9928  -14.6080   24.8679 C   0  0  2  0  0  0  0  0  0  0  0  0
    7.3211  -14.8977   23.6395 N   0  0  0  0  0  0  0  0  0  0  0  0
    8.4396  -15.8893   25.4713 C   0  0  0  0  0  0  0  0  0  0  0  0
    7.5927  -16.7660   25.7366 O   0  0  0  0  0  0  0  0  0  0  0  0
   11.8374  -19.3166   25.7539 C   0  0  0  0  0  0  0  0  0  0  0  0
   11.3813  -17.9485   25.3705 C   0  0  2  0  0  0  0  0  0  0  0  0
   12.5202  -16.9762   25.5535 C   0  0  0  0  0  0  0  0  0  0  0  0
   10.1747  -17.4882   26.1585 C   0  0  2  0  0  0  0  0  0  0  0  0
    9.8053  -16.1623   25.7626 N   0  0  0  0  0  0  0  0  0  0  0  0
   10.4440  -17.5269   27.6210 C   0  0  0  0  0  0  0  0  0  0  0  0
   10.6407  -18.7827   28.2242 O   0  0  0  0  0  0  0  0  0  0  0  0
   10.5041  -16.5124   28.3355 O   0  0  0  0  0  0  0  0  0  0  0  0
  2  1  1  6
  2  3  1  0
  3  4  1  0
  5  2  1  0
  6  5  2  0
  8  7  1  1
  8 10  1  0
  9  8  1  0
 11 10  1  1
 11 12  1  0
 11 13  1  0
 12  5  1  0
 13 14  2  0
 16 15  1  1
 17 16  1  0
 18 16  1  0
 19 13  1  0
 18 19  1  6
 20 18  1  0
 20 21  1  0
 22 20  2  0
M  END
$$$$
