CLV.pdb
     RDKit          3D

 22 21  0  0  1  0  0  0  0  0999 V2000
    8.5095  -15.3916   19.6245 N   0  0  0  0  0  0  0  0  0  0  0  0
    7.5781  -15.7529   20.6987 C   0  0  1  0  0  0  0  0  0  0  0  0
    7.4384  -17.2632   20.6413 C   0  0  0  0  0  0  0  0  0  0  0  0
    6.3174  -17.7198   22.0159 S   0  0  0  0  0  0  0  0  0  0  0  0
    8.0881  -15.2689   21.9844 C   0  0  0  0  0  0  0  0  0  0  0  0
    9.3451  -15.2836   22.2150 O   0  0  0  0  0  0  0  0  0  0  0  0
    8.3665  -12.0443   26.0811 C   0  0  0  0  0  0  0  0  0  0  0  0
    7.2319  -13.0198   26.3186 C   0  0  1  0  0  0  0  0  0  0  0  0
    6.2171  -12.3578   27.1804 C   0  0  0  0  0  0  0  0  0  0  0  0
    6.7326  -13.4701   24.9936 C   0  0  0  0  0  0  0  0  0  0  0  0
    7.7128  -14.3026   24.2109 C   0  0  2  0  0  0  0  0  0  0  0  0
    7.1887  -14.7851   22.9713 N   0  0  0  0  0  0  0  0  0  0  0  0
    8.0518  -15.4708   25.0628 C   0  0  0  0  0  0  0  0  0  0  0  0
    7.1438  -16.2475   25.4213 O   0  0  0  0  0  0  0  0  0  0  0  0
   11.9986  -16.9788   25.2843 C   0  0  0  0  0  0  0  0  0  0  0  0
   10.7259  -17.7475   25.4111 C   0  0  2  0  0  0  0  0  0  0  0  0
   10.2358  -18.1262   24.0355 C   0  0  0  0  0  0  0  0  0  0  0  0
    9.6500  -16.9859   26.1535 C   0  0  2  0  0  0  0  0  0  0  0  0
    9.3805  -15.7447   25.4918 N   0  0  0  0  0  0  0  0  0  0  0  0
   10.0484  -16.7352   27.5646 C   0  0  0  0  0  0  0  0  0  0  0  0
   10.1654  -15.3997   27.9915 O   0  0  0  0  0  0  0  0  0  0  0  0
   10.2825  -17.6397   28.3833 O   0  0  0  0  0  0  0  0  0  0  0  0
  2  1  1  6
  2  3  1  0
  3  4  1  0
  5  2  1  0
  6  5  2  0
  8  7  1  6
  8 10  1  0
  9  8  1  0
 11 10  1  1
 11 12  1  0
 11 13  1  0
 12  5  1  0
 13 14  2  0
 16 15  1  6
 17 16  1  0
 18 16  1  0
 19 13  1  0
 18 19  1  6
 20 18  1  0
 20 21  1  0
 22 20  2  0
M  END
$$$$
