CLV.pdb
     RDKit          3D

 22 21  0  0  1  0  0  0  0  0999 V2000
    6.8136  -18.9116   22.7034 N   0  0  0  0  0  0  0  0  0  0  0  0
    6.4912  -18.2675   23.9813 C   0  0  1  0  0  0  0  0  0  0  0  0
    6.7970  -19.2942   25.0565 C   0  0  0  0  0  0  0  0  0  0  0  0
    8.6204  -19.4635   25.0899 S   0  0  0  0  0  0  0  0  0  0  0  0
    7.2656  -17.0319   24.1261 C   0  0  0  0  0  0  0  0  0  0  0  0
    8.2641  -16.8147   23.3583 O   0  0  0  0  0  0  0  0  0  0  0  0
    5.6007  -12.0375   26.6359 C   0  0  0  0  0  0  0  0  0  0  0  0
    6.3119  -12.8212   25.5518 C   0  0  1  0  0  0  0  0  0  0  0  0
    7.0997  -11.8690   24.7251 C   0  0  0  0  0  0  0  0  0  0  0  0
    7.1083  -13.8895   26.2092 C   0  0  0  0  0  0  0  0  0  0  0  0
    7.6998  -14.8968   25.2594 C   0  0  2  0  0  0  0  0  0  0  0  0
    6.9081  -16.0787   25.1163 N   0  0  0  0  0  0  0  0  0  0  0  0
    9.0204  -15.2821   25.8187 C   0  0  0  0  0  0  0  0  0  0  0  0
   10.0578  -14.8077   25.3139 O   0  0  0  0  0  0  0  0  0  0  0  0
    9.6410  -14.9160   29.5264 C   0  0  0  0  0  0  0  0  0  0  0  0
   10.6549  -15.0588   28.4408 C   0  0  2  0  0  0  0  0  0  0  0  0
   10.6511  -13.8122   27.5912 C   0  0  0  0  0  0  0  0  0  0  0  0
   10.4221  -16.2773   27.5749 C   0  0  2  0  0  0  0  0  0  0  0  0
    9.1543  -16.1776   26.9162 N   0  0  0  0  0  0  0  0  0  0  0  0
   10.4809  -17.5260   28.3810 C   0  0  0  0  0  0  0  0  0  0  0  0
   11.6771  -17.8180   29.0619 O   0  0  0  0  0  0  0  0  0  0  0  0
    9.5328  -18.3221   28.4845 O   0  0  0  0  0  0  0  0  0  0  0  0
  2  1  1  6
  2  3  1  0
  3  4  1  0
  5  2  1  0
  6  5  2  0
  8  7  1  1
  8 10  1  0
  9  8  1  0
 11 10  1  1
 11 12  1  0
 11 13  1  0
 12  5  1  0
 13 14  2  0
 16 15  1  1
 17 16  1  0
 18 16  1  0
 19 13  1  0
 18 19  1  1
 20 18  1  0
 20 21  1  0
 22 20  2  0
M  END
$$$$
