CLV.pdb
     RDKit          3D

 22 21  0  0  1  0  0  0  0  0999 V2000
    7.9302  -16.4608   20.1271 N   0  0  0  0  0  0  0  0  0  0  0  0
    7.1953  -16.6716   21.3790 C   0  0  1  0  0  0  0  0  0  0  0  0
    7.2355  -18.1660   21.6415 C   0  0  0  0  0  0  0  0  0  0  0  0
    6.1401  -18.4560   23.0805 S   0  0  0  0  0  0  0  0  0  0  0  0
    7.8024  -15.8804   22.4527 C   0  0  0  0  0  0  0  0  0  0  0  0
    9.0698  -15.7181   22.4829 O   0  0  0  0  0  0  0  0  0  0  0  0
    8.1778  -11.9187   25.8469 C   0  0  0  0  0  0  0  0  0  0  0  0
    7.2597  -12.9723   26.4320 C   0  0  1  0  0  0  0  0  0  0  0  0
    6.2968  -12.3009   27.3445 C   0  0  0  0  0  0  0  0  0  0  0  0
    6.6415  -13.7159   25.3038 C   0  0  0  0  0  0  0  0  0  0  0  0
    7.6055  -14.5615   24.5151 C   0  0  2  0  0  0  0  0  0  0  0  0
    6.9855  -15.2958   23.4565 N   0  0  0  0  0  0  0  0  0  0  0  0
    8.2004  -15.5297   25.4713 C   0  0  0  0  0  0  0  0  0  0  0  0
    7.4800  -16.4217   25.9627 O   0  0  0  0  0  0  0  0  0  0  0  0
   11.3981  -17.3520   24.5087 C   0  0  0  0  0  0  0  0  0  0  0  0
   11.4815  -16.9545   25.9447 C   0  0  2  0  0  0  0  0  0  0  0  0
   12.1217  -18.0707   26.7322 C   0  0  0  0  0  0  0  0  0  0  0  0
   10.1338  -16.6078   26.5384 C   0  0  2  0  0  0  0  0  0  0  0  0
    9.5699  -15.4829   25.8544 N   0  0  0  0  0  0  0  0  0  0  0  0
   10.2487  -16.3150   27.9923 C   0  0  0  0  0  0  0  0  0  0  0  0
   10.3799  -17.4009   28.8772 O   0  0  0  0  0  0  0  0  0  0  0  0
   10.2351  -15.1662   28.4648 O   0  0  0  0  0  0  0  0  0  0  0  0
  2  1  1  6
  2  3  1  0
  3  4  1  0
  5  2  1  0
  6  5  2  0
  8  7  1  6
  8 10  1  0
  9  8  1  0
 11 10  1  1
 11 12  1  0
 11 13  1  0
 12  5  1  0
 13 14  2  0
 16 15  1  6
 17 16  1  0
 18 16  1  0
 19 13  1  0
 18 19  1  6
 20 18  1  0
 20 21  1  0
 22 20  2  0
M  END
$$$$
