MRL.pdb
     RDKit          3D

 28 27  0  0  1  0  0  0  0  0999 V2000
    9.2980  -11.7952   19.5585 C   0  0  0  0  0  0  0  0  0  0  0  0
    7.9015  -12.2310   18.4862 S   0  0  0  0  0  0  0  0  0  0  0  0
    7.5241  -14.0065   18.6251 C   0  0  0  0  0  0  0  0  0  0  0  0
    8.4983  -14.6343   19.6061 C   0  0  0  0  0  0  0  0  0  0  0  0
    8.2226  -16.1239   19.7060 C   0  0  2  0  0  0  0  0  0  0  0  0
    7.2174  -16.5344   18.7636 N   0  0  0  0  0  0  0  0  0  0  0  0
    7.8981  -16.4721   21.0798 C   0  0  0  0  0  0  0  0  0  0  0  0
    6.9178  -17.2287   21.3886 O   0  0  0  0  0  0  0  0  0  0  0  0
   12.9241  -19.2567   25.9656 N   0  0  0  0  0  0  0  0  0  0  0  0
   11.9305  -20.1202   26.4584 C   0  0  0  0  0  0  0  0  0  0  0  0
   11.8809  -20.4771   27.6980 N   0  0  0  0  0  0  0  0  0  0  0  0
   10.9475  -20.6172   25.5826 N   0  0  0  0  0  0  0  0  0  0  0  0
   10.5718  -20.0438   24.3220 C   0  0  0  0  0  0  0  0  0  0  0  0
    9.9201  -18.7000   24.5602 C   0  0  0  0  0  0  0  0  0  0  0  0
    9.5618  -17.9960   23.3113 C   0  0  0  0  0  0  0  0  0  0  0  0
    8.8914  -16.6822   23.3995 C   0  0  2  0  0  0  0  0  0  0  0  0
    8.6639  -15.9786   22.1639 N   0  0  0  0  0  0  0  0  0  0  0  0
    9.7493  -15.8102   24.2676 C   0  0  0  0  0  0  0  0  0  0  0  0
   10.8971  -16.1928   24.6492 O   0  0  0  0  0  0  0  0  0  0  0  0
   11.1038  -21.1073   27.9972 C   0  0  0  0  0  0  0  0  0  0  0  0
    5.9954  -12.7180   26.9822 C   0  0  2  0  0  0  0  0  0  0  0  0
    6.5100  -13.0432   25.5882 C   0  0  0  0  0  0  0  0  0  0  0  0
    7.5897  -12.0585   25.1586 C   0  0  0  0  0  0  0  0  0  0  0  0
    7.1522  -14.3942   25.6314 C   0  0  2  0  0  0  0  0  0  0  0  0
    8.6271  -14.3645   25.9741 N   0  0  0  0  0  0  0  0  0  0  0  0
    9.3154  -14.5488   24.6855 C   0  0  0  0  0  0  0  0  0  0  0  0
    9.0271  -15.4462   26.8963 O   0  0  0  0  0  0  0  0  0  0  0  0
    8.7971  -16.6632   26.6833 O   0  0  0  0  0  0  0  0  0  0  0  0
  2  1  1  0
  3  2  1  0
  4  3  1  0
  4  5  1  0
  5  6  1  6
  7  5  1  0
  7  8  2  0
 10  9  1  0
 10 12  1  0
 11 10  2  0
 13 14  1  0
 13 12  1  0
 15 14  1  0
 16 15  1  6
 16 17  1  0
 17  7  1  0
 18 16  1  0
 19 18  2  0
 21 20  1  6
 21 23  1  0
 22 21  1  0
 24 23  1  6
 24 25  1  0
 24 26  1  0
 25 18  1  0
 26 28  1  0
 27 26  2  0
M  END
$$$$
