MRL.pdb
     RDKit          3D

 28 27  0  0  1  0  0  0  0  0999 V2000
    6.7507  -22.4316   20.3076 C   0  0  0  0  0  0  0  0  0  0  0  0
    5.1478  -22.1765   21.1172 S   0  0  0  0  0  0  0  0  0  0  0  0
    5.1277  -20.5838   21.9986 C   0  0  0  0  0  0  0  0  0  0  0  0
    6.4260  -20.4415   22.7731 C   0  0  0  0  0  0  0  0  0  0  0  0
    6.3803  -19.1715   23.6037 C   0  0  2  0  0  0  0  0  0  0  0  0
    5.1060  -18.5160   23.4877 N   0  0  0  0  0  0  0  0  0  0  0  0
    7.5010  -18.3145   23.2524 C   0  0  0  0  0  0  0  0  0  0  0  0
    8.7175  -18.6723   23.3976 O   0  0  0  0  0  0  0  0  0  0  0  0
    9.0636  -15.4280   16.8952 N   0  0  0  0  0  0  0  0  0  0  0  0
    8.4267  -14.2466   17.3123 C   0  0  0  0  0  0  0  0  0  0  0  0
    8.7129  -13.0940   16.8063 N   0  0  0  0  0  0  0  0  0  0  0  0
    7.4384  -14.3078   18.3123 N   0  0  0  0  0  0  0  0  0  0  0  0
    6.9541  -15.4989   18.9491 C   0  0  0  0  0  0  0  0  0  0  0  0
    8.0354  -16.0597   19.8456 C   0  0  0  0  0  0  0  0  0  0  0  0
    8.1731  -15.3272   21.1216 C   0  0  0  0  0  0  0  0  0  0  0  0
    8.3467  -16.0965   22.3712 C   0  0  2  0  0  0  0  0  0  0  0  0
    7.2968  -17.0161   22.7256 N   0  0  0  0  0  0  0  0  0  0  0  0
    8.4729  -15.0998   23.4851 C   0  0  0  0  0  0  0  0  0  0  0  0
    8.3053  -13.8597   23.2763 O   0  0  0  0  0  0  0  0  0  0  0  0
    8.1151  -12.2794   17.0700 C   0  0  0  0  0  0  0  0  0  0  0  0
    7.8230  -11.8417   27.0095 C   0  0  2  0  0  0  0  0  0  0  0  0
    7.0928  -13.1660   27.1730 C   0  0  0  0  0  0  0  0  0  0  0  0
    5.5847  -12.9586   27.2208 C   0  0  0  0  0  0  0  0  0  0  0  0
    7.3737  -14.0056   25.9665 C   0  0  1  0  0  0  0  0  0  0  0  0
    8.7898  -14.5386   25.9030 N   0  0  0  0  0  0  0  0  0  0  0  0
    8.7787  -15.5011   24.7887 C   0  0  0  0  0  0  0  0  0  0  0  0
    9.2009  -15.2334   27.1394 O   0  0  0  0  0  0  0  0  0  0  0  0
    9.0498  -16.4667   27.3280 O   0  0  0  0  0  0  0  0  0  0  0  0
  2  1  1  0
  3  2  1  0
  4  3  1  0
  4  5  1  0
  5  6  1  6
  7  5  1  0
  7  8  2  0
 10  9  1  0
 10 12  1  0
 11 10  2  0
 13 14  1  0
 13 12  1  0
 15 14  1  0
 16 15  1  6
 16 17  1  0
 17  7  1  0
 18 16  1  0
 19 18  2  0
 21 20  1  1
 21 23  1  0
 22 21  1  0
 24 23  1  6
 24 25  1  0
 24 26  1  0
 25 18  1  0
 26 28  1  0
 27 26  2  0
M  END
$$$$
