MRL.pdb
     RDKit          3D

 28 27  0  0  1  0  0  0  0  0999 V2000
    1.9228  -19.7920   20.7337 C   0  0  0  0  0  0  0  0  0  0  0  0
    1.7202  -19.2939   22.4660 S   0  0  0  0  0  0  0  0  0  0  0  0
    3.2496  -19.6112   23.4011 C   0  0  0  0  0  0  0  0  0  0  0  0
    4.2997  -20.1497   22.4455 C   0  0  0  0  0  0  0  0  0  0  0  0
    5.5927  -20.3924   23.2030 C   0  0  2  0  0  0  0  0  0  0  0  0
    5.3607  -20.4823   24.6190 N   0  0  0  0  0  0  0  0  0  0  0  0
    6.5698  -19.3771   22.8445 C   0  0  0  0  0  0  0  0  0  0  0  0
    7.7373  -19.6617   22.4148 O   0  0  0  0  0  0  0  0  0  0  0  0
    7.9852  -11.4734   19.2400 N   0  0  0  0  0  0  0  0  0  0  0  0
    8.8423  -12.5194   18.8568 C   0  0  0  0  0  0  0  0  0  0  0  0
    9.9853  -12.3036   18.2969 N   0  0  0  0  0  0  0  0  0  0  0  0
    8.4558  -13.8525   19.0889 N   0  0  0  0  0  0  0  0  0  0  0  0
    7.2922  -14.2809   19.8111 C   0  0  0  0  0  0  0  0  0  0  0  0
    7.7232  -14.9805   21.0808 C   0  0  0  0  0  0  0  0  0  0  0  0
    6.7906  -16.0453   21.5053 C   0  0  0  0  0  0  0  0  0  0  0  0
    7.1777  -16.9289   22.6245 C   0  0  2  0  0  0  0  0  0  0  0  0
    6.2722  -17.9974   22.9590 N   0  0  0  0  0  0  0  0  0  0  0  0
    7.3231  -16.0598   23.8385 C   0  0  0  0  0  0  0  0  0  0  0  0
    6.3084  -15.5504   24.4045 O   0  0  0  0  0  0  0  0  0  0  0  0
   10.6044  -13.1238   18.1116 C   0  0  0  0  0  0  0  0  0  0  0  0
    8.3164  -12.2924   26.9297 C   0  0  2  0  0  0  0  0  0  0  0  0
    7.2662  -13.3925   26.9519 C   0  0  0  0  0  0  0  0  0  0  0  0
    5.8596  -12.8083   26.9407 C   0  0  0  0  0  0  0  0  0  0  0  0
    7.4076  -14.1978   25.6986 C   0  0  1  0  0  0  0  0  0  0  0  0
    8.7183  -14.9492   25.5939 N   0  0  0  0  0  0  0  0  0  0  0  0
    8.5782  -15.7815   24.3872 C   0  0  0  0  0  0  0  0  0  0  0  0
    8.9780  -15.8215   26.7567 O   0  0  0  0  0  0  0  0  0  0  0  0
    8.4853  -16.9700   26.8892 O   0  0  0  0  0  0  0  0  0  0  0  0
  2  1  1  0
  3  2  1  0
  4  3  1  0
  4  5  1  0
  5  6  1  1
  7  5  1  0
  7  8  2  0
 10  9  1  0
 10 12  1  0
 11 10  2  0
 13 14  1  0
 13 12  1  0
 15 14  1  0
 16 15  1  6
 16 17  1  0
 17  7  1  0
 18 16  1  0
 19 18  2  0
 21 20  1  1
 21 23  1  0
 22 21  1  0
 24 23  1  6
 24 25  1  0
 24 26  1  0
 25 18  1  0
 26 28  1  0
 27 26  2  0
M  END
$$$$
