MRL.pdb
     RDKit          3D

 28 27  0  0  1  0  0  0  0  0999 V2000
    7.0637  -11.7035   19.7353 C   0  0  0  0  0  0  0  0  0  0  0  0
    7.7640  -12.8785   18.5441 S   0  0  0  0  0  0  0  0  0  0  0  0
    8.1632  -14.4534   19.3652 C   0  0  0  0  0  0  0  0  0  0  0  0
    8.3009  -14.2019   20.8563 C   0  0  0  0  0  0  0  0  0  0  0  0
    8.9123  -15.4235   21.5187 C   0  0  2  0  0  0  0  0  0  0  0  0
    8.7983  -16.5857   20.6800 N   0  0  0  0  0  0  0  0  0  0  0  0
    8.3314  -15.6088   22.8386 C   0  0  0  0  0  0  0  0  0  0  0  0
    7.8420  -14.6471   23.5202 O   0  0  0  0  0  0  0  0  0  0  0  0
    7.9344  -22.2312   23.6869 N   0  0  0  0  0  0  0  0  0  0  0  0
    6.9362  -22.2515   22.6976 C   0  0  0  0  0  0  0  0  0  0  0  0
    6.9880  -23.0479   21.6829 N   0  0  0  0  0  0  0  0  0  0  0  0
    5.8350  -21.3820   22.8060 N   0  0  0  0  0  0  0  0  0  0  0  0
    5.6452  -20.3818   23.8172 C   0  0  0  0  0  0  0  0  0  0  0  0
    6.7655  -19.3694   23.7334 C   0  0  0  0  0  0  0  0  0  0  0  0
    6.6180  -18.2554   24.6932 C   0  0  0  0  0  0  0  0  0  0  0  0
    7.6293  -17.1782   24.6975 C   0  0  2  0  0  0  0  0  0  0  0  0
    8.2810  -16.8864   23.4470 N   0  0  0  0  0  0  0  0  0  0  0  0
    8.6898  -17.5771   25.6804 C   0  0  0  0  0  0  0  0  0  0  0  0
    8.5182  -18.5576   26.4671 O   0  0  0  0  0  0  0  0  0  0  0  0
    6.2404  -22.9694   20.9580 C   0  0  0  0  0  0  0  0  0  0  0  0
   10.9471  -13.8681   28.6628 C   0  0  2  0  0  0  0  0  0  0  0  0
    9.5579  -14.4857   28.6153 C   0  0  0  0  0  0  0  0  0  0  0  0
    8.4783  -13.4161   28.7169 C   0  0  0  0  0  0  0  0  0  0  0  0
    9.3860  -15.1455   27.2832 C   0  0  1  0  0  0  0  0  0  0  0  0
   10.3530  -16.2830   27.0298 N   0  0  0  0  0  0  0  0  0  0  0  0
    9.9012  -16.8846   25.7640 C   0  0  0  0  0  0  0  0  0  0  0  0
   10.3269  -17.3098   28.0907 O   0  0  0  0  0  0  0  0  0  0  0  0
   11.2345  -17.4471   28.9491 O   0  0  0  0  0  0  0  0  0  0  0  0
  2  1  1  0
  3  2  1  0
  4  3  1  0
  4  5  1  0
  5  6  1  6
  7  5  1  0
  7  8  2  0
 10  9  1  0
 10 12  1  0
 11 10  2  0
 13 14  1  0
 13 12  1  0
 15 14  1  0
 16 15  1  6
 16 17  1  0
 17  7  1  0
 18 16  1  0
 19 18  2  0
 21 20  1  1
 21 23  1  0
 22 21  1  0
 24 23  1  6
 24 25  1  0
 24 26  1  0
 25 18  1  0
 26 28  1  0
 27 26  2  0
M  END
$$$$
