MRL.pdb
     RDKit          3D

 28 27  0  0  1  0  0  0  0  0999 V2000
    8.9003  -17.7241   28.7545 C   0  0  0  0  0  0  0  0  0  0  0  0
    7.3978  -18.5883   29.2887 S   0  0  0  0  0  0  0  0  0  0  0  0
    6.5432  -19.3200   27.8575 C   0  0  0  0  0  0  0  0  0  0  0  0
    7.5640  -19.5802   26.7639 C   0  0  0  0  0  0  0  0  0  0  0  0
    6.8441  -19.9732   25.4863 C   0  0  2  0  0  0  0  0  0  0  0  0
    6.8996  -21.3935   25.2701 N   0  0  0  0  0  0  0  0  0  0  0  0
    7.3674  -19.2017   24.3706 C   0  0  0  0  0  0  0  0  0  0  0  0
    8.5221  -19.4084   23.8678 O   0  0  0  0  0  0  0  0  0  0  0  0
    8.7802  -14.1507   20.0793 N   0  0  0  0  0  0  0  0  0  0  0  0
    7.8036  -13.5441   19.2707 C   0  0  0  0  0  0  0  0  0  0  0  0
    7.9626  -12.3677   18.7635 N   0  0  0  0  0  0  0  0  0  0  0  0
    6.6082  -14.2328   18.9930 N   0  0  0  0  0  0  0  0  0  0  0  0
    5.9497  -15.1658   19.8618 C   0  0  0  0  0  0  0  0  0  0  0  0
    6.8792  -15.5305   20.9977 C   0  0  0  0  0  0  0  0  0  0  0  0
    6.3068  -16.5324   21.9210 C   0  0  0  0  0  0  0  0  0  0  0  0
    7.1621  -17.0894   22.9894 C   0  0  2  0  0  0  0  0  0  0  0  0
    6.6115  -18.1618   23.7771 N   0  0  0  0  0  0  0  0  0  0  0  0
    7.4879  -15.9611   23.9226 C   0  0  0  0  0  0  0  0  0  0  0  0
    6.5942  -15.1420   24.2967 O   0  0  0  0  0  0  0  0  0  0  0  0
    7.2002  -11.9851   18.1612 C   0  0  0  0  0  0  0  0  0  0  0  0
    7.6202  -12.4442   27.3588 C   0  0  2  0  0  0  0  0  0  0  0  0
    8.6734  -13.5406   27.4092 C   0  0  0  0  0  0  0  0  0  0  0  0
    8.6845  -14.2284   28.7681 C   0  0  0  0  0  0  0  0  0  0  0  0
    8.3083  -14.5848   26.4014 C   0  0  1  0  0  0  0  0  0  0  0  0
    9.1548  -14.5520   25.1461 N   0  0  0  0  0  0  0  0  0  0  0  0
    8.7839  -15.7730   24.4114 C   0  0  0  0  0  0  0  0  0  0  0  0
   10.6043  -14.5769   25.4268 O   0  0  0  0  0  0  0  0  0  0  0  0
   11.2636  -13.5651   25.7745 O   0  0  0  0  0  0  0  0  0  0  0  0
  2  1  1  0
  3  2  1  0
  4  3  1  0
  4  5  1  0
  5  6  1  6
  7  5  1  0
  7  8  2  0
 10  9  1  0
 10 12  1  0
 11 10  2  0
 13 14  1  0
 13 12  1  0
 15 14  1  0
 16 15  1  6
 16 17  1  0
 17  7  1  0
 18 16  1  0
 19 18  2  0
 21 20  1  1
 21 23  1  0
 22 21  1  0
 24 23  1  6
 24 25  1  0
 24 26  1  0
 25 18  1  0
 26 28  1  0
 27 26  2  0
M  END
$$$$
