MRL.pdb
     RDKit          3D

 28 27  0  0  1  0  0  0  0  0999 V2000
    6.8274  -10.5131   26.4384 C   0  0  0  0  0  0  0  0  0  0  0  0
    5.6880  -11.1157   27.7145 S   0  0  0  0  0  0  0  0  0  0  0  0
    4.7764  -12.5730   27.1150 C   0  0  0  0  0  0  0  0  0  0  0  0
    5.7760  -13.6639   26.7736 C   0  0  0  0  0  0  0  0  0  0  0  0
    6.5147  -13.2897   25.5012 C   0  0  2  0  0  0  0  0  0  0  0  0
    5.6109  -12.7996   24.4962 N   0  0  0  0  0  0  0  0  0  0  0  0
    7.3185  -14.4146   25.0511 C   0  0  0  0  0  0  0  0  0  0  0  0
    7.9760  -15.1593   25.8523 O   0  0  0  0  0  0  0  0  0  0  0  0
    8.1558  -15.0465   17.3671 N   0  0  0  0  0  0  0  0  0  0  0  0
    9.1108  -14.5162   18.2515 C   0  0  0  0  0  0  0  0  0  0  0  0
    9.3733  -13.2534   18.3058 N   0  0  0  0  0  0  0  0  0  0  0  0
    9.8096  -15.3793   19.1159 N   0  0  0  0  0  0  0  0  0  0  0  0
    9.3720  -16.6748   19.5510 C   0  0  0  0  0  0  0  0  0  0  0  0
    9.4013  -16.7292   21.0621 C   0  0  0  0  0  0  0  0  0  0  0  0
    8.6347  -15.6388   21.7000 C   0  0  0  0  0  0  0  0  0  0  0  0
    8.2928  -15.7501   23.1331 C   0  0  2  0  0  0  0  0  0  0  0  0
    7.4172  -14.7450   23.6777 N   0  0  0  0  0  0  0  0  0  0  0  0
    9.5825  -15.6912   23.8969 C   0  0  0  0  0  0  0  0  0  0  0  0
   10.4577  -14.8102   23.6372 O   0  0  0  0  0  0  0  0  0  0  0  0
   10.1094  -12.9328   18.9735 C   0  0  0  0  0  0  0  0  0  0  0  0
   10.0238  -14.8797   28.7995 C   0  0  1  0  0  0  0  0  0  0  0  0
   10.3920  -14.9668   27.3263 C   0  0  0  0  0  0  0  0  0  0  0  0
   11.5467  -14.0311   26.9932 C   0  0  0  0  0  0  0  0  0  0  0  0
   10.8700  -16.3569   27.0463 C   0  0  2  0  0  0  0  0  0  0  0  0
   11.1766  -16.6207   25.5869 N   0  0  0  0  0  0  0  0  0  0  0  0
    9.8647  -16.6025   24.9186 C   0  0  0  0  0  0  0  0  0  0  0  0
   11.8180  -17.9312   25.3597 O   0  0  0  0  0  0  0  0  0  0  0  0
   13.0094  -18.1860   25.6682 O   0  0  0  0  0  0  0  0  0  0  0  0
  2  1  1  0
  3  2  1  0
  4  3  1  0
  4  5  1  0
  5  6  1  6
  7  5  1  0
  7  8  2  0
 10  9  1  0
 10 12  1  0
 11 10  2  0
 13 14  1  0
 13 12  1  0
 15 14  1  0
 16 15  1  6
 16 17  1  0
 17  7  1  0
 18 16  1  0
 19 18  2  0
 21 20  1  6
 21 23  1  0
 22 21  1  0
 24 23  1  6
 24 25  1  0
 24 26  1  0
 25 18  1  0
 26 28  1  0
 27 26  2  0
M  END
$$$$
