MRL.pdb
     RDKit          3D

 28 27  0  0  1  0  0  0  0  0999 V2000
    9.2847  -11.3948   19.5822 C   0  0  0  0  0  0  0  0  0  0  0  0
    8.0908  -11.9984   18.3573 S   0  0  0  0  0  0  0  0  0  0  0  0
    8.2418  -13.8017   18.1583 C   0  0  0  0  0  0  0  0  0  0  0  0
    8.0483  -14.4573   19.5142 C   0  0  0  0  0  0  0  0  0  0  0  0
    8.3602  -15.9391   19.4061 C   0  0  2  0  0  0  0  0  0  0  0  0
    7.4682  -16.5962   18.4897 N   0  0  0  0  0  0  0  0  0  0  0  0
    8.3656  -16.5377   20.7311 C   0  0  0  0  0  0  0  0  0  0  0  0
    7.3382  -17.0970   21.2416 O   0  0  0  0  0  0  0  0  0  0  0  0
   12.5641  -22.1223   23.7715 N   0  0  0  0  0  0  0  0  0  0  0  0
   11.8989  -21.8137   24.9706 C   0  0  0  0  0  0  0  0  0  0  0  0
   11.2720  -22.7070   25.6602 N   0  0  0  0  0  0  0  0  0  0  0  0
   11.9119  -20.4907   25.4498 N   0  0  0  0  0  0  0  0  0  0  0  0
   12.2084  -19.3166   24.6800 C   0  0  0  0  0  0  0  0  0  0  0  0
   10.9470  -18.4995   24.5113 C   0  0  0  0  0  0  0  0  0  0  0  0
   10.8035  -17.9207   23.1592 C   0  0  0  0  0  0  0  0  0  0  0  0
    9.6194  -17.0887   22.8608 C   0  0  2  0  0  0  0  0  0  0  0  0
    9.5294  -16.5278   21.5376 N   0  0  0  0  0  0  0  0  0  0  0  0
    9.6268  -15.9501   23.8374 C   0  0  0  0  0  0  0  0  0  0  0  0
   10.5662  -15.0974   23.8419 O   0  0  0  0  0  0  0  0  0  0  0  0
   10.9132  -22.4373   26.6031 C   0  0  0  0  0  0  0  0  0  0  0  0
    7.7767  -11.8956   26.5179 C   0  0  2  0  0  0  0  0  0  0  0  0
    6.9877  -13.1460   26.8752 C   0  0  0  0  0  0  0  0  0  0  0  0
    5.4909  -12.8645   26.8899 C   0  0  0  0  0  0  0  0  0  0  0  0
    7.2231  -14.1672   25.8070 C   0  0  1  0  0  0  0  0  0  0  0  0
    8.6385  -14.7044   25.7695 N   0  0  0  0  0  0  0  0  0  0  0  0
    8.6019  -15.7890   24.7741 C   0  0  0  0  0  0  0  0  0  0  0  0
    9.0824  -15.2522   27.0669 O   0  0  0  0  0  0  0  0  0  0  0  0
    9.5949  -14.5549   27.9782 O   0  0  0  0  0  0  0  0  0  0  0  0
  2  1  1  0
  3  2  1  0
  4  3  1  0
  4  5  1  0
  5  6  1  6
  7  5  1  0
  7  8  2  0
 10  9  1  0
 10 12  1  0
 11 10  2  0
 13 14  1  0
 13 12  1  0
 15 14  1  0
 16 15  1  6
 16 17  1  0
 17  7  1  0
 18 16  1  0
 19 18  2  0
 21 20  1  1
 21 23  1  0
 22 21  1  0
 24 23  1  6
 24 25  1  0
 24 26  1  0
 25 18  1  0
 26 28  1  0
 27 26  2  0
M  END
$$$$
