MRL.pdb
     RDKit          3D

 28 27  0  0  1  0  0  0  0  0999 V2000
    7.3885  -11.3232   26.6824 C   0  0  0  0  0  0  0  0  0  0  0  0
    5.7884  -11.8530   27.3524 S   0  0  0  0  0  0  0  0  0  0  0  0
    5.2010  -13.3445   26.4896 C   0  0  0  0  0  0  0  0  0  0  0  0
    6.4061  -14.1597   26.0548 C   0  0  0  0  0  0  0  0  0  0  0  0
    5.9342  -15.4307   25.3716 C   0  0  2  0  0  0  0  0  0  0  0  0
    5.1151  -16.2229   26.2481 N   0  0  0  0  0  0  0  0  0  0  0  0
    7.0771  -16.1566   24.8416 C   0  0  0  0  0  0  0  0  0  0  0  0
    7.6670  -17.0854   25.4883 O   0  0  0  0  0  0  0  0  0  0  0  0
    8.8698  -14.1647   16.8355 N   0  0  0  0  0  0  0  0  0  0  0  0
    8.6922  -13.5878   18.1048 C   0  0  0  0  0  0  0  0  0  0  0  0
    8.7729  -12.3142   18.3001 N   0  0  0  0  0  0  0  0  0  0  0  0
    8.4124  -14.4142   19.2089 N   0  0  0  0  0  0  0  0  0  0  0  0
    8.4307  -15.8490   19.2159 C   0  0  0  0  0  0  0  0  0  0  0  0
    8.0501  -16.3456   20.5928 C   0  0  0  0  0  0  0  0  0  0  0  0
    9.1119  -16.1424   21.6002 C   0  0  0  0  0  0  0  0  0  0  0  0
    8.8139  -16.4276   23.0191 C   0  0  2  0  0  0  0  0  0  0  0  0
    7.6051  -15.8630   23.5609 N   0  0  0  0  0  0  0  0  0  0  0  0
    9.9635  -15.8970   23.8233 C   0  0  0  0  0  0  0  0  0  0  0  0
   10.4720  -14.7628   23.5694 O   0  0  0  0  0  0  0  0  0  0  0  0
    8.6999  -11.9619   19.2805 C   0  0  0  0  0  0  0  0  0  0  0  0
   10.0655  -14.1220   26.9452 C   0  0  2  0  0  0  0  0  0  0  0  0
   11.0475  -14.9355   27.7744 C   0  0  0  0  0  0  0  0  0  0  0  0
   10.4770  -15.2451   29.1523 C   0  0  0  0  0  0  0  0  0  0  0  0
   11.2586  -16.2498   27.0909 C   0  0  2  0  0  0  0  0  0  0  0  0
   11.6702  -16.1297   25.6384 N   0  0  0  0  0  0  0  0  0  0  0  0
   10.5134  -16.6315   24.8779 C   0  0  0  0  0  0  0  0  0  0  0  0
   12.8578  -16.9419   25.3061 O   0  0  0  0  0  0  0  0  0  0  0  0
   12.7962  -18.0900   24.7986 O   0  0  0  0  0  0  0  0  0  0  0  0
  2  1  1  0
  3  2  1  0
  4  3  1  0
  4  5  1  0
  5  6  1  1
  7  5  1  0
  7  8  2  0
 10  9  1  0
 10 12  1  0
 11 10  2  0
 13 14  1  0
 13 12  1  0
 15 14  1  0
 16 15  1  6
 16 17  1  0
 17  7  1  0
 18 16  1  0
 19 18  2  0
 21 20  1  1
 21 23  1  0
 22 21  1  0
 24 23  1  6
 24 25  1  0
 24 26  1  0
 25 18  1  0
 26 28  1  0
 27 26  2  0
M  END
$$$$
