MRL.pdb
     RDKit          3D

 28 27  0  0  1  0  0  0  0  0999 V2000
    8.3224  -11.5278   20.5718 C   0  0  0  0  0  0  0  0  0  0  0  0
    7.9150  -12.4806   19.0831 S   0  0  0  0  0  0  0  0  0  0  0  0
    6.5217  -13.6056   19.4106 C   0  0  0  0  0  0  0  0  0  0  0  0
    6.7898  -14.3445   20.7097 C   0  0  0  0  0  0  0  0  0  0  0  0
    7.1114  -15.7968   20.4060 C   0  0  2  0  0  0  0  0  0  0  0  0
    5.9665  -16.4866   19.8765 N   0  0  0  0  0  0  0  0  0  0  0  0
    7.6697  -16.4337   21.5878 C   0  0  0  0  0  0  0  0  0  0  0  0
    6.9522  -16.8168   22.5713 O   0  0  0  0  0  0  0  0  0  0  0  0
   14.5984  -14.9601   23.3978 N   0  0  0  0  0  0  0  0  0  0  0  0
   14.8575  -15.1856   22.0349 C   0  0  0  0  0  0  0  0  0  0  0  0
   15.5396  -14.3574   21.3170 N   0  0  0  0  0  0  0  0  0  0  0  0
   14.3660  -16.3519   21.4196 N   0  0  0  0  0  0  0  0  0  0  0  0
   13.4757  -17.3084   22.0124 C   0  0  0  0  0  0  0  0  0  0  0  0
   12.1193  -16.6700   22.2120 C   0  0  0  0  0  0  0  0  0  0  0  0
   11.1124  -17.6002   22.7638 C   0  0  0  0  0  0  0  0  0  0  0  0
    9.7153  -17.1397   22.9025 C   0  0  2  0  0  0  0  0  0  0  0  0
    9.0616  -16.6622   21.7116 N   0  0  0  0  0  0  0  0  0  0  0  0
    9.7206  -16.0182   23.8986 C   0  0  0  0  0  0  0  0  0  0  0  0
    9.8402  -14.8115   23.5254 O   0  0  0  0  0  0  0  0  0  0  0  0
   15.6051  -14.5356   20.2901 C   0  0  0  0  0  0  0  0  0  0  0  0
    8.4334  -12.3090   26.6507 C   0  0  2  0  0  0  0  0  0  0  0  0
    7.5747  -13.5458   26.8671 C   0  0  0  0  0  0  0  0  0  0  0  0
    6.1146  -13.2643   26.5374 C   0  0  0  0  0  0  0  0  0  0  0  0
    8.0342  -14.6051   25.9153 C   0  0  1  0  0  0  0  0  0  0  0  0
    9.4076  -15.1611   26.2286 N   0  0  0  0  0  0  0  0  0  0  0  0
    9.5944  -16.2624   25.2691 C   0  0  0  0  0  0  0  0  0  0  0  0
    9.5157  -15.6917   27.6024 O   0  0  0  0  0  0  0  0  0  0  0  0
   10.0670  -15.0720   28.5466 O   0  0  0  0  0  0  0  0  0  0  0  0
  2  1  1  0
  3  2  1  0
  4  3  1  0
  4  5  1  0
  5  6  1  1
  7  5  1  0
  7  8  2  0
 10  9  1  0
 10 12  1  0
 11 10  2  0
 13 14  1  0
 13 12  1  0
 15 14  1  0
 16 15  1  6
 16 17  1  0
 17  7  1  0
 18 16  1  0
 19 18  2  0
 21 20  1  1
 21 23  1  0
 22 21  1  0
 24 23  1  6
 24 25  1  0
 24 26  1  0
 25 18  1  0
 26 28  1  0
 27 26  2  0
M  END
$$$$
