MRL.pdb
     RDKit          3D

 28 27  0  0  1  0  0  0  0  0999 V2000
    8.8739  -11.2266   20.6761 C   0  0  0  0  0  0  0  0  0  0  0  0
    7.8224  -11.8351   19.3293 S   0  0  0  0  0  0  0  0  0  0  0  0
    7.9311  -13.6484   19.2085 C   0  0  0  0  0  0  0  0  0  0  0  0
    7.7923  -14.2366   20.6014 C   0  0  0  0  0  0  0  0  0  0  0  0
    8.0203  -15.7363   20.5397 C   0  0  2  0  0  0  0  0  0  0  0  0
    7.0468  -16.3795   19.6998 N   0  0  0  0  0  0  0  0  0  0  0  0
    8.0665  -16.2817   21.8867 C   0  0  0  0  0  0  0  0  0  0  0  0
    7.0266  -16.4177   22.6140 O   0  0  0  0  0  0  0  0  0  0  0  0
   12.0699  -21.8268   27.3111 N   0  0  0  0  0  0  0  0  0  0  0  0
   11.7650  -21.8878   25.9404 C   0  0  0  0  0  0  0  0  0  0  0  0
   11.5376  -23.0047   25.3342 N   0  0  0  0  0  0  0  0  0  0  0  0
   11.6981  -20.6983   25.1915 N   0  0  0  0  0  0  0  0  0  0  0  0
   12.0008  -19.3802   25.6713 C   0  0  0  0  0  0  0  0  0  0  0  0
   10.7815  -18.4998   25.5124 C   0  0  0  0  0  0  0  0  0  0  0  0
   10.5554  -18.0625   24.1191 C   0  0  0  0  0  0  0  0  0  0  0  0
    9.4429  -17.1328   23.8342 C   0  0  2  0  0  0  0  0  0  0  0  0
    9.2885  -16.6938   22.4715 N   0  0  0  0  0  0  0  0  0  0  0  0
    9.6621  -15.9148   24.6818 C   0  0  0  0  0  0  0  0  0  0  0  0
   10.7152  -15.2169   24.5656 O   0  0  0  0  0  0  0  0  0  0  0  0
   11.2942  -22.9722   24.3192 C   0  0  0  0  0  0  0  0  0  0  0  0
    5.6927  -12.5919   26.1010 C   0  0  1  0  0  0  0  0  0  0  0  0
    7.0602  -13.1178   25.6925 C   0  0  0  0  0  0  0  0  0  0  0  0
    7.9927  -11.9779   25.3038 C   0  0  0  0  0  0  0  0  0  0  0  0
    7.6748  -13.7909   26.8793 C   0  0  2  0  0  0  0  0  0  0  0  0
    9.0140  -14.4384   26.5954 N   0  0  0  0  0  0  0  0  0  0  0  0
    8.7164  -15.5069   25.6270 C   0  0  0  0  0  0  0  0  0  0  0  0
    9.6342  -15.0321   27.7968 O   0  0  0  0  0  0  0  0  0  0  0  0
    9.5290  -16.2454   28.1071 O   0  0  0  0  0  0  0  0  0  0  0  0
  2  1  1  0
  3  2  1  0
  4  3  1  0
  4  5  1  0
  5  6  1  6
  7  5  1  0
  7  8  2  0
 10  9  1  0
 10 12  1  0
 11 10  2  0
 13 14  1  0
 13 12  1  0
 15 14  1  0
 16 15  1  6
 16 17  1  0
 17  7  1  0
 18 16  1  0
 19 18  2  0
 21 20  1  6
 21 23  1  0
 22 21  1  0
 24 23  1  6
 24 25  1  0
 24 26  1  0
 25 18  1  0
 26 28  1  0
 27 26  2  0
M  END
$$$$
