MRL.pdb
     RDKit          3D

 28 27  0  0  1  0  0  0  0  0999 V2000
    7.2513  -11.7662   20.4454 C   0  0  0  0  0  0  0  0  0  0  0  0
    7.8487  -12.6785   18.9961 S   0  0  0  0  0  0  0  0  0  0  0  0
    7.4969  -14.4557   19.1750 C   0  0  0  0  0  0  0  0  0  0  0  0
    7.1648  -14.7405   20.6290 C   0  0  0  0  0  0  0  0  0  0  0  0
    8.2357  -15.6374   21.2238 C   0  0  2  0  0  0  0  0  0  0  0  0
    8.4969  -16.7713   20.3794 N   0  0  0  0  0  0  0  0  0  0  0  0
    7.8696  -16.0050   22.5820 C   0  0  0  0  0  0  0  0  0  0  0  0
    7.4840  -15.1520   23.4494 O   0  0  0  0  0  0  0  0  0  0  0  0
    4.2204  -21.2236   22.4712 N   0  0  0  0  0  0  0  0  0  0  0  0
    5.3596  -21.9748   22.1345 C   0  0  0  0  0  0  0  0  0  0  0  0
    5.5107  -22.5131   20.9709 N   0  0  0  0  0  0  0  0  0  0  0  0
    6.3802  -22.1510   23.0872 N   0  0  0  0  0  0  0  0  0  0  0  0
    6.5026  -21.4498   24.3332 C   0  0  0  0  0  0  0  0  0  0  0  0
    6.4555  -19.9606   24.0737 C   0  0  0  0  0  0  0  0  0  0  0  0
    7.6250  -19.2371   24.6146 C   0  0  0  0  0  0  0  0  0  0  0  0
    7.7354  -17.7823   24.3805 C   0  0  2  0  0  0  0  0  0  0  0  0
    7.9262  -17.3503   23.0201 N   0  0  0  0  0  0  0  0  0  0  0  0
    8.9087  -17.2979   25.1798 C   0  0  0  0  0  0  0  0  0  0  0  0
    9.8029  -16.5678   24.6536 O   0  0  0  0  0  0  0  0  0  0  0  0
    6.3758  -23.0715   20.7965 C   0  0  0  0  0  0  0  0  0  0  0  0
   11.3843  -14.1374   27.7320 C   0  0  2  0  0  0  0  0  0  0  0  0
   10.0709  -14.5420   28.3839 C   0  0  0  0  0  0  0  0  0  0  0  0
    9.1589  -13.3370   28.5740 C   0  0  0  0  0  0  0  0  0  0  0  0
    9.3595  -15.4782   27.4582 C   0  0  1  0  0  0  0  0  0  0  0  0
    9.9551  -16.8698   27.4121 N   0  0  0  0  0  0  0  0  0  0  0  0
    9.0576  -17.6329   26.5287 C   0  0  0  0  0  0  0  0  0  0  0  0
   10.0013  -17.5219   28.7362 O   0  0  0  0  0  0  0  0  0  0  0  0
    9.0427  -18.1696   29.2270 O   0  0  0  0  0  0  0  0  0  0  0  0
  2  1  1  0
  3  2  1  0
  4  3  1  0
  4  5  1  0
  5  6  1  6
  7  5  1  0
  7  8  2  0
 10  9  1  0
 10 12  1  0
 11 10  2  0
 13 14  1  0
 13 12  1  0
 15 14  1  0
 16 15  1  6
 16 17  1  0
 17  7  1  0
 18 16  1  0
 19 18  2  0
 21 20  1  1
 21 23  1  0
 22 21  1  0
 24 23  1  6
 24 25  1  0
 24 26  1  0
 25 18  1  0
 26 28  1  0
 27 26  2  0
M  END
$$$$
