MRL.pdb
     RDKit          3D

 28 27  0  0  1  0  0  0  0  0999 V2000
    7.1782  -21.0014   18.1743 C   0  0  0  0  0  0  0  0  0  0  0  0
    7.7621  -22.1671   19.4352 S   0  0  0  0  0  0  0  0  0  0  0  0
    7.6615  -21.4154   21.0902 C   0  0  0  0  0  0  0  0  0  0  0  0
    8.3360  -20.0557   21.0474 C   0  0  0  0  0  0  0  0  0  0  0  0
    8.3146  -19.4390   22.4345 C   0  0  2  0  0  0  0  0  0  0  0  0
    6.9684  -19.2496   22.9023 N   0  0  0  0  0  0  0  0  0  0  0  0
    9.1021  -18.2168   22.4407 C   0  0  0  0  0  0  0  0  0  0  0  0
   10.3760  -18.2143   22.3634 O   0  0  0  0  0  0  0  0  0  0  0  0
    8.4296  -12.1499   17.5659 N   0  0  0  0  0  0  0  0  0  0  0  0
    8.4991  -13.5459   17.4184 C   0  0  0  0  0  0  0  0  0  0  0  0
    8.9747  -14.1036   16.3557 N   0  0  0  0  0  0  0  0  0  0  0  0
    8.0418  -14.3765   18.4583 N   0  0  0  0  0  0  0  0  0  0  0  0
    7.2834  -13.9576   19.6021 C   0  0  0  0  0  0  0  0  0  0  0  0
    7.4518  -14.9725   20.7107 C   0  0  0  0  0  0  0  0  0  0  0  0
    8.5102  -14.6110   21.6766 C   0  0  0  0  0  0  0  0  0  0  0  0
    9.1764  -15.6858   22.4410 C   0  0  2  0  0  0  0  0  0  0  0  0
    8.4858  -16.9457   22.5379 N   0  0  0  0  0  0  0  0  0  0  0  0
    9.3795  -15.1706   23.8350 C   0  0  0  0  0  0  0  0  0  0  0  0
   10.1517  -14.1906   24.0649 O   0  0  0  0  0  0  0  0  0  0  0  0
    8.9626  -15.1464   16.3005 C   0  0  0  0  0  0  0  0  0  0  0  0
    5.5740  -13.3373   26.5882 C   0  0  1  0  0  0  0  0  0  0  0  0
    7.0190  -13.5377   26.1577 C   0  0  0  0  0  0  0  0  0  0  0  0
    7.9169  -12.4464   26.7257 C   0  0  0  0  0  0  0  0  0  0  0  0
    7.5012  -14.8332   26.7308 C   0  0  2  0  0  0  0  0  0  0  0  0
    8.8973  -15.2203   26.2899 N   0  0  0  0  0  0  0  0  0  0  0  0
    8.7268  -15.7503   24.9267 C   0  0  0  0  0  0  0  0  0  0  0  0
    9.5037  -16.2622   27.1426 O   0  0  0  0  0  0  0  0  0  0  0  0
    9.7004  -17.4443   26.7639 O   0  0  0  0  0  0  0  0  0  0  0  0
  2  1  1  0
  3  2  1  0
  4  3  1  0
  4  5  1  0
  5  6  1  6
  7  5  1  0
  7  8  2  0
 10  9  1  0
 10 12  1  0
 11 10  2  0
 13 14  1  0
 13 12  1  0
 15 14  1  0
 16 15  1  6
 16 17  1  0
 17  7  1  0
 18 16  1  0
 19 18  2  0
 21 20  1  6
 21 23  1  0
 22 21  1  0
 24 23  1  6
 24 25  1  0
 24 26  1  0
 25 18  1  0
 26 28  1  0
 27 26  2  0
M  END
$$$$
