MRL.pdb
     RDKit          3D

 28 27  0  0  1  0  0  0  0  0999 V2000
    7.9978  -11.4688   20.0210 C   0  0  0  0  0  0  0  0  0  0  0  0
    7.9354  -12.0538   18.3052 S   0  0  0  0  0  0  0  0  0  0  0  0
    8.3802  -13.8170   18.2188 C   0  0  0  0  0  0  0  0  0  0  0  0
    8.1018  -14.4543   19.5686 C   0  0  0  0  0  0  0  0  0  0  0  0
    8.4722  -15.9256   19.5167 C   0  0  2  0  0  0  0  0  0  0  0  0
    7.7124  -16.6215   18.5140 N   0  0  0  0  0  0  0  0  0  0  0  0
    8.3460  -16.5108   20.8417 C   0  0  0  0  0  0  0  0  0  0  0  0
    7.2179  -16.7791   21.3748 O   0  0  0  0  0  0  0  0  0  0  0  0
    9.5328  -21.6980   22.4462 N   0  0  0  0  0  0  0  0  0  0  0  0
   10.8367  -22.1500   22.1795 C   0  0  0  0  0  0  0  0  0  0  0  0
   11.0730  -23.1482   21.3958 N   0  0  0  0  0  0  0  0  0  0  0  0
   11.9318  -21.4990   22.7773 N   0  0  0  0  0  0  0  0  0  0  0  0
   11.9257  -20.1785   23.3386 C   0  0  0  0  0  0  0  0  0  0  0  0
   10.6661  -19.4601   22.9087 C   0  0  0  0  0  0  0  0  0  0  0  0
   10.5507  -18.0983   23.4708 C   0  0  0  0  0  0  0  0  0  0  0  0
    9.4555  -17.2235   23.0033 C   0  0  2  0  0  0  0  0  0  0  0  0
    9.4872  -16.8148   21.6229 N   0  0  0  0  0  0  0  0  0  0  0  0
    9.4962  -15.9829   23.8455 C   0  0  0  0  0  0  0  0  0  0  0  0
   10.5077  -15.2172   23.8350 O   0  0  0  0  0  0  0  0  0  0  0  0
   12.0688  -23.4018   21.2096 C   0  0  0  0  0  0  0  0  0  0  0  0
    7.9071  -11.5523   26.2060 C   0  0  2  0  0  0  0  0  0  0  0  0
    7.0464  -12.7396   26.6098 C   0  0  0  0  0  0  0  0  0  0  0  0
    5.5694  -12.3676   26.6215 C   0  0  0  0  0  0  0  0  0  0  0  0
    7.2126  -13.8091   25.5764 C   0  0  1  0  0  0  0  0  0  0  0  0
    8.5405  -14.5336   25.6477 N   0  0  0  0  0  0  0  0  0  0  0  0
    8.4240  -15.6277   24.6691 C   0  0  0  0  0  0  0  0  0  0  0  0
    8.8159  -15.1039   26.9816 O   0  0  0  0  0  0  0  0  0  0  0  0
    8.4126  -16.2351   27.3519 O   0  0  0  0  0  0  0  0  0  0  0  0
  2  1  1  0
  3  2  1  0
  4  3  1  0
  4  5  1  0
  5  6  1  6
  7  5  1  0
  7  8  2  0
 10  9  1  0
 10 12  1  0
 11 10  2  0
 13 14  1  0
 13 12  1  0
 15 14  1  0
 16 15  1  1
 16 17  1  0
 17  7  1  0
 18 16  1  0
 19 18  2  0
 21 20  1  1
 21 23  1  0
 22 21  1  0
 24 23  1  6
 24 25  1  0
 24 26  1  0
 25 18  1  0
 26 28  1  0
 27 26  2  0
M  END
$$$$
