QLH.pdb
     RDKit          3D

 28 28  0  0  1  0  0  0  0  0999 V2000
    9.7996  -20.3271   21.9155 N   0  0  0  0  0  0  0  0  0  0  0  0
    9.1491  -20.1196   20.6500 C   0  0  0  0  0  0  0  0  0  0  0  0
    9.0112  -21.0571   19.8356 O   0  0  0  0  0  0  0  0  0  0  0  0
    8.6606  -18.7738   20.3631 C   0  0  0  0  0  0  0  0  0  0  0  0
    8.9425  -17.7524   21.4192 C   0  0  0  0  0  0  0  0  0  0  0  0
    8.2228  -16.4661   21.1770 C   0  0  2  0  0  0  0  0  0  0  0  0
    8.7428  -15.8360   19.9967 N   0  0  0  0  0  0  0  0  0  0  0  0
    8.5187  -15.5789   22.3651 C   0  0  0  0  0  0  0  0  0  0  0  0
    9.5993  -14.9540   22.4197 O   0  0  0  0  0  0  0  0  0  0  0  0
    7.7893  -12.6704   26.7760 C   0  0  0  0  0  0  0  0  0  0  0  0
    6.8959  -12.3621   25.5423 C   0  0  2  0  0  0  0  0  0  0  0  0
    5.5792  -11.9142   26.2023 C   0  0  0  0  0  0  0  0  0  0  0  0
    6.7069  -13.6172   24.8244 C   0  0  0  0  0  0  0  0  0  0  0  0
    7.7723  -14.5751   24.5525 C   0  0  2  0  0  0  0  0  0  0  0  0
    7.5928  -15.4407   23.4222 N   0  0  0  0  0  0  0  0  0  0  0  0
    8.4535  -15.2360   25.6888 C   0  0  0  0  0  0  0  0  0  0  0  0
    7.9049  -15.5110   26.7664 O   0  0  0  0  0  0  0  0  0  0  0  0
    9.8166  -15.5775   25.5505 N   0  0  0  0  0  0  0  0  0  0  0  0
   10.4403  -16.8129   25.9413 C   0  0  1  0  0  0  0  0  0  0  0  0
    9.6735  -18.0754   25.5291 C   0  0  0  0  0  0  0  0  0  0  0  0
    8.8132  -18.6011   26.5974 C   0  0  0  0  0  0  0  0  0  0  0  0
    8.6906  -18.0921   27.8971 C   0  0  0  0  0  0  0  0  0  0  0  0
    7.8106  -18.8280   28.5981 N   0  0  0  0  0  0  0  0  0  0  0  0
    7.3782  -19.7868   27.7683 C   0  0  0  0  0  0  0  0  0  0  0  0
    7.9922  -19.6365   26.5653 N   0  0  0  0  0  0  0  0  0  0  0  0
   11.8763  -16.9010   25.7411 C   0  0  0  0  0  0  0  0  0  0  0  0
   12.6185  -17.8171   26.1976 O   0  0  0  0  0  0  0  0  0  0  0  0
   12.5354  -15.9257   24.9956 O   0  0  0  0  0  0  0  0  0  0  0  0
  2  3  2  0
  2  1  1  0
  4  2  1  0
  5  4  1  0
  5  6  1  0
  6  8  1  0
  6  7  1  6
  8  9  2  0
 11 10  1  1
 12 11  1  0
 13 11  1  0
 14 13  1  1
 15 14  1  0
 15  8  1  0
 16 17  2  0
 16 14  1  0
 18 16  1  0
 19 18  1  0
 19 26  1  0
 19 20  1  6
 21 25  1  0
 21 20  1  0
 22 21  2  0
 23 22  1  0
 23 24  1  0
 24 25  2  0
 26 28  1  0
 27 26  2  0
M  END
$$$$
