QLH.pdb
     RDKit          3D

 28 28  0  0  1  0  0  0  0  0999 V2000
   10.9048  -20.4448   16.5436 N   0  0  0  0  0  0  0  0  0  0  0  0
   12.0437  -19.9063   15.8504 C   0  0  0  0  0  0  0  0  0  0  0  0
   12.9022  -20.6581   15.3414 O   0  0  0  0  0  0  0  0  0  0  0  0
   12.1496  -18.4523   15.7688 C   0  0  0  0  0  0  0  0  0  0  0  0
   11.0357  -17.6925   16.4171 C   0  0  0  0  0  0  0  0  0  0  0  0
   11.1902  -16.2142   16.2688 C   0  0  2  0  0  0  0  0  0  0  0  0
   12.4691  -15.9175   15.6886 N   0  0  0  0  0  0  0  0  0  0  0  0
   11.1509  -15.6369   17.6657 C   0  0  0  0  0  0  0  0  0  0  0  0
   12.2080  -15.2489   18.2073 O   0  0  0  0  0  0  0  0  0  0  0  0
    8.5020  -11.9608   19.3250 C   0  0  0  0  0  0  0  0  0  0  0  0
    7.7979  -13.3294   19.1093 C   0  0  2  0  0  0  0  0  0  0  0  0
    6.3834  -13.0523   19.6499 C   0  0  0  0  0  0  0  0  0  0  0  0
    8.4849  -14.3031   19.9498 C   0  0  0  0  0  0  0  0  0  0  0  0
    9.7928  -14.8715   19.6455 C   0  0  2  0  0  0  0  0  0  0  0  0
    9.9359  -15.5260   18.3765 N   0  0  0  0  0  0  0  0  0  0  0  0
   10.5628  -15.5260   20.7275 C   0  0  0  0  0  0  0  0  0  0  0  0
   10.5941  -15.1267   21.9011 O   0  0  0  0  0  0  0  0  0  0  0  0
   11.3169  -16.6783   20.4154 N   0  0  0  0  0  0  0  0  0  0  0  0
   12.0843  -17.4808   21.3292 C   0  0  1  0  0  0  0  0  0  0  0  0
   13.5472  -17.6936   20.9209 C   0  0  0  0  0  0  0  0  0  0  0  0
   14.2516  -18.6527   21.7821 C   0  0  0  0  0  0  0  0  0  0  0  0
   13.7331  -19.2962   22.9137 C   0  0  0  0  0  0  0  0  0  0  0  0
   14.6638  -20.1045   23.4500 N   0  0  0  0  0  0  0  0  0  0  0  0
   15.7542  -19.9831   22.6811 C   0  0  0  0  0  0  0  0  0  0  0  0
   15.4897  -19.1039   21.6793 N   0  0  0  0  0  0  0  0  0  0  0  0
   11.8991  -17.2024   22.7427 C   0  0  0  0  0  0  0  0  0  0  0  0
   11.4900  -18.0371   23.5998 O   0  0  0  0  0  0  0  0  0  0  0  0
   12.1796  -15.9330   23.2439 O   0  0  0  0  0  0  0  0  0  0  0  0
  2  3  2  0
  2  1  1  0
  4  2  1  0
  5  4  1  0
  5  6  1  0
  6  8  1  0
  6  7  1  1
  8  9  2  0
 11 10  1  1
 12 11  1  0
 13 11  1  0
 14 13  1  1
 15 14  1  0
 15  8  1  0
 16 17  2  0
 16 14  1  0
 18 16  1  0
 19 18  1  0
 19 26  1  0
 19 20  1  6
 21 25  1  0
 21 20  1  0
 22 21  2  0
 23 22  1  0
 23 24  1  0
 24 25  2  0
 26 28  1  0
 27 26  2  0
M  END
$$$$
