QLH.pdb
     RDKit          3D

 28 28  0  0  1  0  0  0  0  0999 V2000
    9.5663  -19.7900   20.6948 N   0  0  0  0  0  0  0  0  0  0  0  0
    9.0401  -19.0066   19.6100 C   0  0  0  0  0  0  0  0  0  0  0  0
    8.8394  -19.5153   18.4865 O   0  0  0  0  0  0  0  0  0  0  0  0
    8.7527  -17.6006   19.8797 C   0  0  0  0  0  0  0  0  0  0  0  0
    9.1133  -17.1258   21.2519 C   0  0  0  0  0  0  0  0  0  0  0  0
    8.7452  -15.6958   21.4770 C   0  0  2  0  0  0  0  0  0  0  0  0
    9.5728  -14.8498   20.6646 N   0  0  0  0  0  0  0  0  0  0  0  0
    9.0384  -15.4015   22.9309 C   0  0  0  0  0  0  0  0  0  0  0  0
   10.2010  -15.5337   23.3691 O   0  0  0  0  0  0  0  0  0  0  0  0
    8.3199  -11.9510   26.4011 C   0  0  0  0  0  0  0  0  0  0  0  0
    7.1264  -12.6542   25.6967 C   0  0  2  0  0  0  0  0  0  0  0  0
    5.9174  -12.0591   26.4409 C   0  0  0  0  0  0  0  0  0  0  0  0
    7.2450  -14.0812   25.9727 C   0  0  0  0  0  0  0  0  0  0  0  0
    8.1224  -14.9880   25.2416 C   0  0  2  0  0  0  0  0  0  0  0  0
    8.0186  -14.9771   23.8104 N   0  0  0  0  0  0  0  0  0  0  0  0
    8.3878  -16.3352   25.7952 C   0  0  0  0  0  0  0  0  0  0  0  0
    8.0707  -17.3947   25.2341 O   0  0  0  0  0  0  0  0  0  0  0  0
    9.0407  -16.4339   27.0433 N   0  0  0  0  0  0  0  0  0  0  0  0
   10.1812  -17.2513   27.3581 C   0  0  1  0  0  0  0  0  0  0  0  0
   11.3257  -17.1723   26.3403 C   0  0  0  0  0  0  0  0  0  0  0  0
   11.2123  -18.1699   25.2679 C   0  0  0  0  0  0  0  0  0  0  0  0
   10.2009  -19.1286   25.1230 C   0  0  0  0  0  0  0  0  0  0  0  0
   10.4237  -19.8698   24.0238 N   0  0  0  0  0  0  0  0  0  0  0  0
   11.5516  -19.3982   23.4757 C   0  0  0  0  0  0  0  0  0  0  0  0
   12.0152  -18.3730   24.2378 N   0  0  0  0  0  0  0  0  0  0  0  0
   10.6192  -17.2400   28.7429 C   0  0  0  0  0  0  0  0  0  0  0  0
   10.7446  -16.2038   29.4566 O   0  0  0  0  0  0  0  0  0  0  0  0
   10.9381  -18.4368   29.3811 O   0  0  0  0  0  0  0  0  0  0  0  0
  2  3  2  0
  2  1  1  0
  4  2  1  0
  5  4  1  0
  5  6  1  0
  6  8  1  0
  6  7  1  6
  8  9  2  0
 11 10  1  1
 12 11  1  0
 13 11  1  0
 14 13  1  1
 15 14  1  0
 15  8  1  0
 16 17  2  0
 16 14  1  0
 18 16  1  0
 19 18  1  0
 19 26  1  0
 19 20  1  6
 21 25  1  0
 21 20  1  0
 22 21  2  0
 23 22  1  0
 23 24  1  0
 24 25  2  0
 26 28  1  0
 27 26  2  0
M  END
$$$$
