QLH.pdb
     RDKit          3D

 28 28  0  0  1  0  0  0  0  0999 V2000
    8.0810  -12.4476   17.7106 N   0  0  0  0  0  0  0  0  0  0  0  0
    7.9894  -13.8269   17.3148 C   0  0  0  0  0  0  0  0  0  0  0  0
    7.7186  -14.1421   16.1365 O   0  0  0  0  0  0  0  0  0  0  0  0
    8.2261  -14.8343   18.3451 C   0  0  0  0  0  0  0  0  0  0  0  0
    8.5056  -14.2969   19.7130 C   0  0  0  0  0  0  0  0  0  0  0  0
    8.7380  -15.3792   20.7159 C   0  0  2  0  0  0  0  0  0  0  0  0
    7.6078  -16.2637   20.7431 N   0  0  0  0  0  0  0  0  0  0  0  0
    8.8486  -14.6997   22.0620 C   0  0  0  0  0  0  0  0  0  0  0  0
    9.7819  -13.8974   22.2779 O   0  0  0  0  0  0  0  0  0  0  0  0
    5.2174  -12.6804   26.4094 C   0  0  0  0  0  0  0  0  0  0  0  0
    6.7098  -13.0634   26.2060 C   0  0  2  0  0  0  0  0  0  0  0  0
    7.4029  -11.6894   26.2454 C   0  0  0  0  0  0  0  0  0  0  0  0
    6.8242  -13.6559   24.8785 C   0  0  0  0  0  0  0  0  0  0  0  0
    7.9859  -14.4030   24.4109 C   0  0  2  0  0  0  0  0  0  0  0  0
    7.9127  -14.9544   23.0881 N   0  0  0  0  0  0  0  0  0  0  0  0
    8.7144  -15.2714   25.3634 C   0  0  0  0  0  0  0  0  0  0  0  0
    8.8301  -15.0343   26.5751 O   0  0  0  0  0  0  0  0  0  0  0  0
    9.3241  -16.4467   24.8726 N   0  0  0  0  0  0  0  0  0  0  0  0
   10.0955  -17.3978   25.6263 C   0  0  1  0  0  0  0  0  0  0  0  0
    9.5915  -18.8436   25.5386 C   0  0  0  0  0  0  0  0  0  0  0  0
    8.1564  -18.9714   25.8248 C   0  0  0  0  0  0  0  0  0  0  0  0
    7.4839  -18.4871   26.9547 C   0  0  0  0  0  0  0  0  0  0  0  0
    6.1761  -18.7884   26.8759 N   0  0  0  0  0  0  0  0  0  0  0  0
    6.0125  -19.4505   25.7227 C   0  0  0  0  0  0  0  0  0  0  0  0
    7.2161  -19.5529   25.1002 N   0  0  0  0  0  0  0  0  0  0  0  0
   11.5397  -17.2685   25.5404 C   0  0  0  0  0  0  0  0  0  0  0  0
   12.3703  -17.9320   26.2247 O   0  0  0  0  0  0  0  0  0  0  0  0
   12.1043  -16.3570   24.6506 O   0  0  0  0  0  0  0  0  0  0  0  0
  2  3  2  0
  2  1  1  0
  4  2  1  0
  5  4  1  0
  5  6  1  0
  6  8  1  0
  6  7  1  1
  8  9  2  0
 11 10  1  6
 12 11  1  0
 13 11  1  0
 14 13  1  1
 15 14  1  0
 15  8  1  0
 16 17  2  0
 16 14  1  0
 18 16  1  0
 19 18  1  0
 19 26  1  0
 19 20  1  6
 21 25  1  0
 21 20  1  0
 22 21  2  0
 23 22  1  0
 23 24  1  0
 24 25  2  0
 26 28  1  0
 27 26  2  0
M  END
$$$$
