QLH.pdb
     RDKit          3D

 28 28  0  0  1  0  0  0  0  0999 V2000
    9.1266  -17.5169   18.7255 N   0  0  0  0  0  0  0  0  0  0  0  0
    8.0852  -16.7460   18.1020 C   0  0  0  0  0  0  0  0  0  0  0  0
    7.6432  -17.0540   16.9746 O   0  0  0  0  0  0  0  0  0  0  0  0
    7.5717  -15.5963   18.8413 C   0  0  0  0  0  0  0  0  0  0  0  0
    8.1695  -15.3885   20.1969 C   0  0  0  0  0  0  0  0  0  0  0  0
    7.6029  -14.1956   20.8948 C   0  0  2  0  0  0  0  0  0  0  0  0
    8.0155  -12.9986   20.2184 N   0  0  0  0  0  0  0  0  0  0  0  0
    8.1965  -14.1905   22.2854 C   0  0  0  0  0  0  0  0  0  0  0  0
    9.4067  -13.9226   22.4431 O   0  0  0  0  0  0  0  0  0  0  0  0
    8.2519  -11.7056   26.1701 C   0  0  0  0  0  0  0  0  0  0  0  0
    6.9547  -12.4443   25.7380 C   0  0  2  0  0  0  0  0  0  0  0  0
    5.9681  -12.0379   26.8477 C   0  0  0  0  0  0  0  0  0  0  0  0
    7.2336  -13.8743   25.8002 C   0  0  0  0  0  0  0  0  0  0  0  0
    7.9168  -14.6231   24.7520 C   0  0  2  0  0  0  0  0  0  0  0  0
    7.4063  -14.4842   23.4181 N   0  0  0  0  0  0  0  0  0  0  0  0
    8.4098  -15.9877   25.0467 C   0  0  0  0  0  0  0  0  0  0  0  0
    7.7108  -17.0102   24.9852 O   0  0  0  0  0  0  0  0  0  0  0  0
    9.7602  -16.1486   25.4266 N   0  0  0  0  0  0  0  0  0  0  0  0
   10.4048  -17.3710   25.8242 C   0  0  1  0  0  0  0  0  0  0  0  0
   11.7417  -17.6463   25.1248 C   0  0  0  0  0  0  0  0  0  0  0  0
   11.6168  -17.7512   23.6649 C   0  0  0  0  0  0  0  0  0  0  0  0
   10.4437  -18.0101   22.9438 C   0  0  0  0  0  0  0  0  0  0  0  0
   10.7095  -18.0337   21.6262 N   0  0  0  0  0  0  0  0  0  0  0  0
   12.0222  -17.7956   21.5040 C   0  0  0  0  0  0  0  0  0  0  0  0
   12.5554  -17.6273   22.7425 N   0  0  0  0  0  0  0  0  0  0  0  0
   10.4103  -17.6631   27.2470 C   0  0  0  0  0  0  0  0  0  0  0  0
    9.9703  -16.8932   28.1482 O   0  0  0  0  0  0  0  0  0  0  0  0
   10.9295  -18.8716   27.7066 O   0  0  0  0  0  0  0  0  0  0  0  0
  2  3  2  0
  2  1  1  0
  4  2  1  0
  5  4  1  0
  5  6  1  0
  6  8  1  0
  6  7  1  6
  8  9  2  0
 11 10  1  1
 12 11  1  0
 13 11  1  0
 14 13  1  1
 15 14  1  0
 15  8  1  0
 16 17  2  0
 16 14  1  0
 18 16  1  0
 19 18  1  0
 19 26  1  0
 19 20  1  1
 21 25  1  0
 21 20  1  0
 22 21  2  0
 23 22  1  0
 23 24  1  0
 24 25  2  0
 26 28  1  0
 27 26  2  0
M  END
$$$$
