QLH.pdb
     RDKit          3D

 28 28  0  0  1  0  0  0  0  0999 V2000
    8.6226  -21.1419   22.9751 N   0  0  0  0  0  0  0  0  0  0  0  0
    9.4526  -20.4139   22.0538 C   0  0  0  0  0  0  0  0  0  0  0  0
   10.5920  -20.8265   21.7495 O   0  0  0  0  0  0  0  0  0  0  0  0
    8.9065  -19.1807   21.4943 C   0  0  0  0  0  0  0  0  0  0  0  0
    9.0361  -17.9710   22.3649 C   0  0  0  0  0  0  0  0  0  0  0  0
    8.4714  -16.7442   21.7266 C   0  0  2  0  0  0  0  0  0  0  0  0
    9.2030  -16.4419   20.5291 N   0  0  0  0  0  0  0  0  0  0  0  0
    8.6754  -15.6157   22.7120 C   0  0  0  0  0  0  0  0  0  0  0  0
    9.7314  -14.9484   22.6821 O   0  0  0  0  0  0  0  0  0  0  0  0
    7.9058  -12.1030   26.3713 C   0  0  0  0  0  0  0  0  0  0  0  0
    6.7511  -11.9690   25.3399 C   0  0  2  0  0  0  0  0  0  0  0  0
    5.5080  -11.9595   26.2478 C   0  0  0  0  0  0  0  0  0  0  0  0
    6.7717  -13.1703   24.5135 C   0  0  0  0  0  0  0  0  0  0  0  0
    7.7867  -14.2131   24.6074 C   0  0  2  0  0  0  0  0  0  0  0  0
    7.6905  -15.2974   23.6724 N   0  0  0  0  0  0  0  0  0  0  0  0
    8.2607  -14.6382   25.9440 C   0  0  0  0  0  0  0  0  0  0  0  0
    7.8066  -14.2075   27.0145 O   0  0  0  0  0  0  0  0  0  0  0  0
    9.2985  -15.5928   26.0184 N   0  0  0  0  0  0  0  0  0  0  0  0
    9.2792  -16.8332   26.7457 C   0  0  1  0  0  0  0  0  0  0  0  0
    7.9863  -17.6441   26.5937 C   0  0  0  0  0  0  0  0  0  0  0  0
    7.9672  -18.8577   27.4211 C   0  0  0  0  0  0  0  0  0  0  0  0
    8.9417  -19.2519   28.3475 C   0  0  0  0  0  0  0  0  0  0  0  0
    8.5890  -20.4169   28.9184 N   0  0  0  0  0  0  0  0  0  0  0  0
    7.4158  -20.7625   28.3716 C   0  0  0  0  0  0  0  0  0  0  0  0
    7.0540  -19.8120   27.4704 N   0  0  0  0  0  0  0  0  0  0  0  0
   10.4899  -17.6336   26.6863 C   0  0  0  0  0  0  0  0  0  0  0  0
   11.0890  -18.1196   27.6880 O   0  0  0  0  0  0  0  0  0  0  0  0
   11.0766  -17.9165   25.4547 O   0  0  0  0  0  0  0  0  0  0  0  0
  2  3  2  0
  2  1  1  0
  4  2  1  0
  5  4  1  0
  5  6  1  0
  6  8  1  0
  6  7  1  6
  8  9  2  0
 11 10  1  1
 12 11  1  0
 13 11  1  0
 14 13  1  1
 15 14  1  0
 15  8  1  0
 16 17  2  0
 16 14  1  0
 18 16  1  0
 19 18  1  0
 19 26  1  0
 19 20  1  6
 21 25  1  0
 21 20  1  0
 22 21  2  0
 23 22  1  0
 23 24  1  0
 24 25  2  0
 26 28  1  0
 27 26  2  0
M  END
$$$$
