QLH.pdb
     RDKit          3D

 28 28  0  0  1  0  0  0  0  0999 V2000
    8.6892  -12.6447   18.1979 N   0  0  0  0  0  0  0  0  0  0  0  0
    8.0641  -13.8950   17.8608 C   0  0  0  0  0  0  0  0  0  0  0  0
    7.8479  -14.2065   16.6703 O   0  0  0  0  0  0  0  0  0  0  0  0
    7.6974  -14.7771   18.9652 C   0  0  0  0  0  0  0  0  0  0  0  0
    8.0210  -14.2603   20.3313 C   0  0  0  0  0  0  0  0  0  0  0  0
    8.6263  -15.3061   21.2095 C   0  0  2  0  0  0  0  0  0  0  0  0
    7.6881  -16.3745   21.4060 N   0  0  0  0  0  0  0  0  0  0  0  0
    8.8886  -14.6457   22.5442 C   0  0  0  0  0  0  0  0  0  0  0  0
    9.7858  -13.7818   22.6440 O   0  0  0  0  0  0  0  0  0  0  0  0
    7.9403  -11.5044   25.8143 C   0  0  0  0  0  0  0  0  0  0  0  0
    6.8448  -12.5230   25.3926 C   0  0  2  0  0  0  0  0  0  0  0  0
    5.6739  -12.1362   26.3142 C   0  0  0  0  0  0  0  0  0  0  0  0
    7.3421  -13.8521   25.7280 C   0  0  0  0  0  0  0  0  0  0  0  0
    8.4218  -14.5274   25.0176 C   0  0  2  0  0  0  0  0  0  0  0  0
    8.1354  -14.9871   23.6888 N   0  0  0  0  0  0  0  0  0  0  0  0
    9.3185  -15.4365   25.7668 C   0  0  0  0  0  0  0  0  0  0  0  0
    9.3278  -15.5450   27.0021 O   0  0  0  0  0  0  0  0  0  0  0  0
   10.2289  -16.2345   25.0399 N   0  0  0  0  0  0  0  0  0  0  0  0
   10.8277  -17.4693   25.4696 C   0  0  1  0  0  0  0  0  0  0  0  0
    9.8499  -18.4702   26.0976 C   0  0  0  0  0  0  0  0  0  0  0  0
    9.9961  -18.5807   27.5551 C   0  0  0  0  0  0  0  0  0  0  0  0
   10.8690  -17.8422   28.3650 C   0  0  0  0  0  0  0  0  0  0  0  0
   10.7277  -18.2117   29.6499 N   0  0  0  0  0  0  0  0  0  0  0  0
    9.7865  -19.1650   29.6647 C   0  0  0  0  0  0  0  0  0  0  0  0
    9.3550  -19.3763   28.3936 N   0  0  0  0  0  0  0  0  0  0  0  0
   11.7870  -18.0708   24.5599 C   0  0  0  0  0  0  0  0  0  0  0  0
   12.4803  -19.0980   24.8104 O   0  0  0  0  0  0  0  0  0  0  0  0
   11.9970  -17.5111   23.3013 O   0  0  0  0  0  0  0  0  0  0  0  0
  2  3  2  0
  2  1  1  0
  4  2  1  0
  5  4  1  0
  5  6  1  0
  6  8  1  0
  6  7  1  1
  8  9  2  0
 11 10  1  1
 12 11  1  0
 13 11  1  0
 14 13  1  1
 15 14  1  0
 15  8  1  0
 16 17  2  0
 16 14  1  0
 18 16  1  0
 19 18  1  0
 19 26  1  0
 19 20  1  6
 21 25  1  0
 21 20  1  0
 22 21  2  0
 23 22  1  0
 23 24  1  0
 24 25  2  0
 26 28  1  0
 27 26  2  0
M  END
$$$$
