QLH.pdb
     RDKit          3D

 28 28  0  0  1  0  0  0  0  0999 V2000
   12.1516  -16.5284   12.8473 N   0  0  0  0  0  0  0  0  0  0  0  0
   10.7562  -16.3153   12.5733 C   0  0  0  0  0  0  0  0  0  0  0  0
   10.3285  -16.2795   11.3999 O   0  0  0  0  0  0  0  0  0  0  0  0
    9.8690  -16.1448   13.7205 C   0  0  0  0  0  0  0  0  0  0  0  0
   10.5410  -16.1627   15.0570 C   0  0  0  0  0  0  0  0  0  0  0  0
    9.8476  -17.0554   16.0335 C   0  0  2  0  0  0  0  0  0  0  0  0
    8.4343  -17.0411   15.7826 N   0  0  0  0  0  0  0  0  0  0  0  0
   10.0980  -16.4680   17.4041 C   0  0  0  0  0  0  0  0  0  0  0  0
   11.2622  -16.4184   17.8552 O   0  0  0  0  0  0  0  0  0  0  0  0
    8.8059  -12.2471   19.3897 C   0  0  0  0  0  0  0  0  0  0  0  0
    7.7286  -13.3532   19.2128 C   0  0  2  0  0  0  0  0  0  0  0  0
    6.4952  -12.7095   19.8718 C   0  0  0  0  0  0  0  0  0  0  0  0
    8.1722  -14.5114   19.9798 C   0  0  0  0  0  0  0  0  0  0  0  0
    9.1819  -15.4595   19.5238 C   0  0  2  0  0  0  0  0  0  0  0  0
    9.0363  -15.9707   18.1909 N   0  0  0  0  0  0  0  0  0  0  0  0
    9.7106  -16.4620   20.4765 C   0  0  0  0  0  0  0  0  0  0  0  0
    9.2240  -17.5904   20.6429 O   0  0  0  0  0  0  0  0  0  0  0  0
   10.8394  -16.1225   21.2540 N   0  0  0  0  0  0  0  0  0  0  0  0
   11.6798  -17.0244   21.9944 C   0  0  1  0  0  0  0  0  0  0  0  0
   12.6590  -17.8360   21.1374 C   0  0  0  0  0  0  0  0  0  0  0  0
   13.3730  -18.8683   21.9004 C   0  0  0  0  0  0  0  0  0  0  0  0
   13.1481  -19.2240   23.2369 C   0  0  0  0  0  0  0  0  0  0  0  0
   13.9890  -20.2086   23.5985 N   0  0  0  0  0  0  0  0  0  0  0  0
   14.7362  -20.4789   22.5199 C   0  0  0  0  0  0  0  0  0  0  0  0
   14.3527  -19.6621   21.5038 N   0  0  0  0  0  0  0  0  0  0  0  0
   12.2577  -16.5053   23.2218 C   0  0  0  0  0  0  0  0  0  0  0  0
   12.1766  -15.3054   23.6120 O   0  0  0  0  0  0  0  0  0  0  0  0
   12.9660  -17.3539   24.0700 O   0  0  0  0  0  0  0  0  0  0  0  0
  2  3  2  0
  2  1  1  0
  4  2  1  0
  5  4  1  0
  5  6  1  0
  6  8  1  0
  6  7  1  6
  8  9  2  0
 11 10  1  1
 12 11  1  0
 13 11  1  0
 14 13  1  1
 15 14  1  0
 15  8  1  0
 16 17  2  0
 16 14  1  0
 18 16  1  0
 19 18  1  0
 19 26  1  0
 19 20  1  6
 21 25  1  0
 21 20  1  0
 22 21  2  0
 23 22  1  0
 23 24  1  0
 24 25  2  0
 26 28  1  0
 27 26  2  0
M  END
$$$$
