QLH.pdb
     RDKit          3D

 28 28  0  0  1  0  0  0  0  0999 V2000
   11.6285  -21.7617   18.7863 N   0  0  0  0  0  0  0  0  0  0  0  0
   10.6659  -21.7765   17.7183 C   0  0  0  0  0  0  0  0  0  0  0  0
   10.3899  -22.8352   17.1148 O   0  0  0  0  0  0  0  0  0  0  0  0
   10.0302  -20.5076   17.3748 C   0  0  0  0  0  0  0  0  0  0  0  0
   10.3731  -19.3578   18.2684 C   0  0  0  0  0  0  0  0  0  0  0  0
    9.5822  -18.1311   17.9505 C   0  0  2  0  0  0  0  0  0  0  0  0
    9.9873  -17.6117   16.6751 N   0  0  0  0  0  0  0  0  0  0  0  0
    9.9243  -17.1128   19.0145 C   0  0  0  0  0  0  0  0  0  0  0  0
   11.1138  -16.7720   19.1884 O   0  0  0  0  0  0  0  0  0  0  0  0
    8.7189  -12.5962   19.6937 C   0  0  0  0  0  0  0  0  0  0  0  0
    7.6773  -13.7152   19.9732 C   0  0  2  0  0  0  0  0  0  0  0  0
    6.4550  -12.9067   20.4444 C   0  0  0  0  0  0  0  0  0  0  0  0
    8.2030  -14.5291   21.0629 C   0  0  0  0  0  0  0  0  0  0  0  0
    9.1688  -15.6077   20.8890 C   0  0  2  0  0  0  0  0  0  0  0  0
    8.9206  -16.5344   19.8219 N   0  0  0  0  0  0  0  0  0  0  0  0
    9.7592  -16.2456   22.0876 C   0  0  0  0  0  0  0  0  0  0  0  0
    9.3187  -17.2767   22.6173 O   0  0  0  0  0  0  0  0  0  0  0  0
   10.8956  -15.6496   22.6770 N   0  0  0  0  0  0  0  0  0  0  0  0
   11.5161  -16.0187   23.9206 C   0  0  1  0  0  0  0  0  0  0  0  0
   12.9263  -15.4517   24.1253 C   0  0  0  0  0  0  0  0  0  0  0  0
   13.8467  -15.7887   23.0312 C   0  0  0  0  0  0  0  0  0  0  0  0
   13.5924  -16.6618   21.9652 C   0  0  0  0  0  0  0  0  0  0  0  0
   14.6644  -16.7247   21.1565 N   0  0  0  0  0  0  0  0  0  0  0  0
   15.5854  -15.9113   21.6904 C   0  0  0  0  0  0  0  0  0  0  0  0
   15.0772  -15.3541   22.8208 N   0  0  0  0  0  0  0  0  0  0  0  0
   10.6755  -15.9555   25.1036 C   0  0  0  0  0  0  0  0  0  0  0  0
    9.4867  -15.5257   25.1277 O   0  0  0  0  0  0  0  0  0  0  0  0
   11.1699  -16.3898   26.3317 O   0  0  0  0  0  0  0  0  0  0  0  0
  2  3  2  0
  2  1  1  0
  4  2  1  0
  5  4  1  0
  5  6  1  0
  6  8  1  0
  6  7  1  6
  8  9  2  0
 11 10  1  1
 12 11  1  0
 13 11  1  0
 14 13  1  1
 15 14  1  0
 15  8  1  0
 16 17  2  0
 16 14  1  0
 18 16  1  0
 19 18  1  0
 19 26  1  0
 19 20  1  1
 21 25  1  0
 21 20  1  0
 22 21  2  0
 23 22  1  0
 23 24  1  0
 24 25  2  0
 26 28  1  0
 27 26  2  0
M  END
$$$$
