QLH.pdb
     RDKit          3D

 28 28  0  0  1  0  0  0  0  0999 V2000
    7.0829  -19.6241   20.9491 N   0  0  0  0  0  0  0  0  0  0  0  0
    7.2449  -18.8032   19.7797 C   0  0  0  0  0  0  0  0  0  0  0  0
    7.1464  -19.2896   18.6330 O   0  0  0  0  0  0  0  0  0  0  0  0
    7.5267  -17.3864   19.9924 C   0  0  0  0  0  0  0  0  0  0  0  0
    7.6451  -16.9654   21.4231 C   0  0  0  0  0  0  0  0  0  0  0  0
    7.8798  -15.4975   21.5695 C   0  0  2  0  0  0  0  0  0  0  0  0
    8.8584  -15.0666   20.6119 N   0  0  0  0  0  0  0  0  0  0  0  0
    8.4421  -15.2897   22.9576 C   0  0  0  0  0  0  0  0  0  0  0  0
    9.6772  -15.3357   23.1407 O   0  0  0  0  0  0  0  0  0  0  0  0
    8.1137  -11.6956   25.9102 C   0  0  0  0  0  0  0  0  0  0  0  0
    6.9009  -12.6622   25.8101 C   0  0  2  0  0  0  0  0  0  0  0  0
    5.9165  -12.0495   26.8227 C   0  0  0  0  0  0  0  0  0  0  0  0
    7.3555  -13.9705   26.2663 C   0  0  0  0  0  0  0  0  0  0  0  0
    8.0386  -14.9424   25.4206 C   0  0  2  0  0  0  0  0  0  0  0  0
    7.5946  -15.0429   24.0597 N   0  0  0  0  0  0  0  0  0  0  0  0
    8.4387  -16.2451   25.9994 C   0  0  0  0  0  0  0  0  0  0  0  0
    7.6464  -17.0627   26.4909 O   0  0  0  0  0  0  0  0  0  0  0  0
    9.8081  -16.5893   26.0009 N   0  0  0  0  0  0  0  0  0  0  0  0
   10.4124  -17.7213   26.6499 C   0  0  1  0  0  0  0  0  0  0  0  0
   11.6364  -18.2958   25.9261 C   0  0  0  0  0  0  0  0  0  0  0  0
   11.3725  -18.6213   24.5183 C   0  0  0  0  0  0  0  0  0  0  0  0
   10.1592  -19.0675   23.9777 C   0  0  0  0  0  0  0  0  0  0  0  0
   10.2898  -19.2635   22.6541 N   0  0  0  0  0  0  0  0  0  0  0  0
   11.5569  -18.9506   22.3518 C   0  0  0  0  0  0  0  0  0  0  0  0
   12.1971  -18.5651   23.4867 N   0  0  0  0  0  0  0  0  0  0  0  0
   10.5659  -17.6311   28.0915 C   0  0  0  0  0  0  0  0  0  0  0  0
   11.0076  -18.5542   28.8340 O   0  0  0  0  0  0  0  0  0  0  0  0
   10.2135  -16.4583   28.7561 O   0  0  0  0  0  0  0  0  0  0  0  0
  2  3  2  0
  2  1  1  0
  4  2  1  0
  5  4  1  0
  5  6  1  0
  6  8  1  0
  6  7  1  6
  8  9  2  0
 11 10  1  1
 12 11  1  0
 13 11  1  0
 14 13  1  1
 15 14  1  0
 15  8  1  0
 16 17  2  0
 16 14  1  0
 18 16  1  0
 19 18  1  0
 19 26  1  0
 19 20  1  6
 21 25  1  0
 21 20  1  0
 22 21  2  0
 23 22  1  0
 23 24  1  0
 24 25  2  0
 26 28  1  0
 27 26  2  0
M  END
$$$$
