QLH.pdb
     RDKit          3D

 28 28  0  0  1  0  0  0  0  0999 V2000
   10.3025  -18.3581   14.8678 N   0  0  0  0  0  0  0  0  0  0  0  0
   11.2555  -19.2165   15.5178 C   0  0  0  0  0  0  0  0  0  0  0  0
   11.8094  -20.1494   14.8982 O   0  0  0  0  0  0  0  0  0  0  0  0
   11.5443  -18.9494   16.9240 C   0  0  0  0  0  0  0  0  0  0  0  0
   10.7640  -17.8290   17.5357 C   0  0  0  0  0  0  0  0  0  0  0  0
   10.4927  -18.0478   18.9882 C   0  0  2  0  0  0  0  0  0  0  0  0
    9.3043  -18.8376   19.1445 N   0  0  0  0  0  0  0  0  0  0  0  0
   10.2442  -16.6823   19.5882 C   0  0  0  0  0  0  0  0  0  0  0  0
   10.5432  -15.6560   18.9414 O   0  0  0  0  0  0  0  0  0  0  0  0
    8.3633  -12.8189   19.8164 C   0  0  0  0  0  0  0  0  0  0  0  0
    7.6174  -14.1624   20.0487 C   0  0  2  0  0  0  0  0  0  0  0  0
    6.1543  -13.7007   20.1750 C   0  0  0  0  0  0  0  0  0  0  0  0
    8.0937  -14.7046   21.3158 C   0  0  0  0  0  0  0  0  0  0  0  0
    9.4171  -15.2841   21.5145 C   0  0  2  0  0  0  0  0  0  0  0  0
    9.6771  -16.5414   20.8737 N   0  0  0  0  0  0  0  0  0  0  0  0
   10.0648  -15.1621   22.8402 C   0  0  0  0  0  0  0  0  0  0  0  0
    9.5852  -14.5335   23.7955 O   0  0  0  0  0  0  0  0  0  0  0  0
   11.3108  -15.7951   23.0419 N   0  0  0  0  0  0  0  0  0  0  0  0
   11.6604  -16.6908   24.1112 C   0  0  1  0  0  0  0  0  0  0  0  0
   10.5818  -17.7242   24.4588 C   0  0  0  0  0  0  0  0  0  0  0  0
   10.9813  -18.6308   25.5434 C   0  0  0  0  0  0  0  0  0  0  0  0
   11.8651  -18.3405   26.5913 C   0  0  0  0  0  0  0  0  0  0  0  0
   11.9913  -19.4099   27.3960 N   0  0  0  0  0  0  0  0  0  0  0  0
   11.2073  -20.3644   26.8773 C   0  0  0  0  0  0  0  0  0  0  0  0
   10.6048  -19.8791   25.7601 N   0  0  0  0  0  0  0  0  0  0  0  0
   13.0092  -17.2291   24.0856 C   0  0  0  0  0  0  0  0  0  0  0  0
   13.5055  -17.9874   24.9672 O   0  0  0  0  0  0  0  0  0  0  0  0
   13.8627  -16.9161   23.0297 O   0  0  0  0  0  0  0  0  0  0  0  0
  2  3  2  0
  2  1  1  0
  4  2  1  0
  5  4  1  0
  5  6  1  0
  6  8  1  0
  6  7  1  6
  8  9  2  0
 11 10  1  1
 12 11  1  0
 13 11  1  0
 14 13  1  1
 15 14  1  0
 15  8  1  0
 16 17  2  0
 16 14  1  0
 18 16  1  0
 19 18  1  0
 19 26  1  0
 19 20  1  6
 21 25  1  0
 21 20  1  0
 22 21  2  0
 23 22  1  0
 23 24  1  0
 24 25  2  0
 26 28  1  0
 27 26  2  0
M  END
$$$$
