QLH.pdb
     RDKit          3D

 28 28  0  0  1  0  0  0  0  0999 V2000
    9.6596  -19.7437   21.4645 N   0  0  0  0  0  0  0  0  0  0  0  0
    8.8678  -19.4884   20.2917 C   0  0  0  0  0  0  0  0  0  0  0  0
    8.7025  -20.3700   19.4219 O   0  0  0  0  0  0  0  0  0  0  0  0
    8.2701  -18.1621   20.1654 C   0  0  0  0  0  0  0  0  0  0  0  0
    8.5204  -17.2357   21.3131 C   0  0  0  0  0  0  0  0  0  0  0  0
    7.8738  -15.9026   21.1232 C   0  0  2  0  0  0  0  0  0  0  0  0
    8.3607  -15.2967   19.9164 N   0  0  0  0  0  0  0  0  0  0  0  0
    8.3004  -15.0484   22.2955 C   0  0  0  0  0  0  0  0  0  0  0  0
    9.3610  -14.3909   22.2315 O   0  0  0  0  0  0  0  0  0  0  0  0
    5.6406  -12.2352   26.9794 C   0  0  0  0  0  0  0  0  0  0  0  0
    7.0553  -12.6514   26.4887 C   0  0  2  0  0  0  0  0  0  0  0  0
    7.7153  -11.2878   26.2154 C   0  0  0  0  0  0  0  0  0  0  0  0
    6.8779  -13.3921   25.2452 C   0  0  0  0  0  0  0  0  0  0  0  0
    7.8932  -14.2547   24.6522 C   0  0  2  0  0  0  0  0  0  0  0  0
    7.5198  -14.9774   23.4700 N   0  0  0  0  0  0  0  0  0  0  0  0
    8.7957  -15.0207   25.5414 C   0  0  0  0  0  0  0  0  0  0  0  0
    8.7217  -15.0189   26.7792 O   0  0  0  0  0  0  0  0  0  0  0  0
    9.8125  -15.8054   24.9547 N   0  0  0  0  0  0  0  0  0  0  0  0
   10.6587  -16.7589   25.6202 C   0  0  1  0  0  0  0  0  0  0  0  0
    9.9409  -17.6457   26.6451 C   0  0  0  0  0  0  0  0  0  0  0  0
   10.3598  -17.3819   28.0282 C   0  0  0  0  0  0  0  0  0  0  0  0
   11.2587  -16.3953   28.4545 C   0  0  0  0  0  0  0  0  0  0  0  0
   11.4006  -16.4486   29.7903 N   0  0  0  0  0  0  0  0  0  0  0  0
   10.6115  -17.4459   30.2119 C   0  0  0  0  0  0  0  0  0  0  0  0
    9.9904  -17.9990   29.1372 N   0  0  0  0  0  0  0  0  0  0  0  0
   11.6084  -17.4714   24.7836 C   0  0  0  0  0  0  0  0  0  0  0  0
   11.6293  -17.4403   23.5197 O   0  0  0  0  0  0  0  0  0  0  0  0
   12.5928  -18.2644   25.3695 O   0  0  0  0  0  0  0  0  0  0  0  0
  2  3  2  0
  2  1  1  0
  4  2  1  0
  5  4  1  0
  5  6  1  0
  6  8  1  0
  6  7  1  6
  8  9  2  0
 11 10  1  6
 12 11  1  0
 13 11  1  0
 14 13  1  1
 15 14  1  0
 15  8  1  0
 16 17  2  0
 16 14  1  0
 18 16  1  0
 19 18  1  0
 19 26  1  0
 19 20  1  6
 21 25  1  0
 21 20  1  0
 22 21  2  0
 23 22  1  0
 23 24  1  0
 24 25  2  0
 26 28  1  0
 27 26  2  0
M  END
$$$$
