QLH.pdb
     RDKit          3D

 28 28  0  0  1  0  0  0  0  0999 V2000
   14.0601  -19.4482   18.4746 N   0  0  0  0  0  0  0  0  0  0  0  0
   14.9150  -18.5036   17.8079 C   0  0  0  0  0  0  0  0  0  0  0  0
   16.0190  -18.8537   17.3389 O   0  0  0  0  0  0  0  0  0  0  0  0
   14.4372  -17.1277   17.7045 C   0  0  0  0  0  0  0  0  0  0  0  0
   13.0583  -16.8880   18.2330 C   0  0  0  0  0  0  0  0  0  0  0  0
   12.5792  -15.4978   17.9703 C   0  0  2  0  0  0  0  0  0  0  0  0
   13.6994  -14.6452   17.6901 N   0  0  0  0  0  0  0  0  0  0  0  0
   11.9214  -15.0229   19.2462 C   0  0  0  0  0  0  0  0  0  0  0  0
   12.6213  -14.5507   20.1673 O   0  0  0  0  0  0  0  0  0  0  0  0
    8.8509  -11.8192   19.3201 C   0  0  0  0  0  0  0  0  0  0  0  0
    8.2410  -13.2464   19.2399 C   0  0  2  0  0  0  0  0  0  0  0  0
    6.7303  -12.9505   19.2264 C   0  0  0  0  0  0  0  0  0  0  0  0
    8.6147  -13.9426   20.4655 C   0  0  0  0  0  0  0  0  0  0  0  0
    9.8300  -14.7332   20.6217 C   0  0  2  0  0  0  0  0  0  0  0  0
   10.5223  -15.1022   19.4202 N   0  0  0  0  0  0  0  0  0  0  0  0
    9.8774  -15.7820   21.6657 C   0  0  0  0  0  0  0  0  0  0  0  0
    8.9195  -16.5094   21.9674 O   0  0  0  0  0  0  0  0  0  0  0  0
   11.0843  -15.9743   22.3729 N   0  0  0  0  0  0  0  0  0  0  0  0
   11.3415  -16.9593   23.3886 C   0  0  1  0  0  0  0  0  0  0  0  0
   10.6910  -18.3248   23.1351 C   0  0  0  0  0  0  0  0  0  0  0  0
   11.2397  -19.0147   21.9601 C   0  0  0  0  0  0  0  0  0  0  0  0
   12.2300  -18.5310   21.0948 C   0  0  0  0  0  0  0  0  0  0  0  0
   12.4806  -19.4348   20.1316 N   0  0  0  0  0  0  0  0  0  0  0  0
   11.6706  -20.4744   20.3727 C   0  0  0  0  0  0  0  0  0  0  0  0
   10.9284  -20.2058   21.4788 N   0  0  0  0  0  0  0  0  0  0  0  0
   12.7060  -17.0362   23.8804 C   0  0  0  0  0  0  0  0  0  0  0  0
   13.1010  -17.7959   24.8108 O   0  0  0  0  0  0  0  0  0  0  0  0
   13.6944  -16.2316   23.3174 O   0  0  0  0  0  0  0  0  0  0  0  0
  2  3  2  0
  2  1  1  0
  4  2  1  0
  5  4  1  0
  5  6  1  0
  6  8  1  0
  6  7  1  1
  8  9  2  0
 11 10  1  1
 12 11  1  0
 13 11  1  0
 14 13  1  6
 15 14  1  0
 15  8  1  0
 16 17  2  0
 16 14  1  0
 18 16  1  0
 19 18  1  0
 19 26  1  0
 19 20  1  6
 21 25  1  0
 21 20  1  0
 22 21  2  0
 23 22  1  0
 23 24  1  0
 24 25  2  0
 26 28  1  0
 27 26  2  0
M  END
$$$$
