MYQ.pdb
     RDKit          3D

 30 30  0  0  1  0  0  0  0  0999 V2000
   16.6268  -16.8721  -16.1483 C   0  0  0  0  0  0  0  0  0  0  0  0
   17.9254  -17.5058  -17.2130 S   0  0  0  0  0  0  0  0  0  0  0  0
   18.4109  -16.2530  -18.4313 C   0  0  0  0  0  0  0  0  0  0  0  0
   19.0204  -15.0377  -17.8392 C   0  0  0  0  0  0  0  0  0  0  0  0
   20.3890  -14.7640  -18.2696 C   0  0  2  0  0  0  0  0  0  0  0  0
   21.3003  -15.9103  -17.9071 N   0  0  0  0  0  0  0  0  0  0  0  0
   21.1001  -13.6330  -17.5903 C   0  0  0  0  0  0  0  0  0  0  0  0
   21.0067  -13.5323  -16.3197 O   0  0  0  0  0  0  0  0  0  0  0  0
   26.6855   -6.5810  -17.0672 O   0  0  0  0  0  0  0  0  0  0  0  0
   26.0039   -7.7775  -17.2849 C   0  0  0  0  0  0  0  0  0  0  0  0
   25.2749   -7.9748  -18.4337 C   0  0  0  0  0  0  0  0  0  0  0  0
   24.6008   -9.1579  -18.6526 C   0  0  0  0  0  0  0  0  0  0  0  0
   24.6177  -10.1942  -17.7452 C   0  0  0  0  0  0  0  0  0  0  0  0
   23.8874  -11.4051  -18.0427 C   0  0  0  0  0  0  0  0  0  0  0  0
   22.5147  -11.5532  -17.4640 C   0  0  2  0  0  0  0  0  0  0  0  0
   21.8717  -12.6458  -18.2279 N   0  0  0  0  0  0  0  0  0  0  0  0
   21.7085  -10.3488  -17.4805 C   0  0  0  0  0  0  0  0  0  0  0  0
   21.2015  -10.0033  -18.6037 O   0  0  0  0  0  0  0  0  0  0  0  0
   25.3471   -9.9939  -16.5959 C   0  0  0  0  0  0  0  0  0  0  0  0
   26.0368   -8.8067  -16.3560 C   0  0  0  0  0  0  0  0  0  0  0  0
   16.8755  -10.3820  -14.4466 N   0  0  0  0  0  0  0  0  0  0  0  0
   17.2552   -9.1411  -15.0206 C   0  0  0  0  0  0  0  0  0  0  0  0
   16.3260   -8.4114  -15.4365 O   0  0  0  0  0  0  0  0  0  0  0  0
   18.6483   -8.7223  -15.1285 C   0  0  0  0  0  0  0  0  0  0  0  0
   19.2087   -8.6169  -16.4963 C   0  0  0  0  0  0  0  0  0  0  0  0
   20.6749   -8.2414  -16.5679 C   0  0  2  0  0  0  0  0  0  0  0  0
   21.4030   -9.4990  -16.4019 N   0  0  0  0  0  0  0  0  0  0  0  0
   21.0591   -7.3139  -15.4899 C   0  0  0  0  0  0  0  0  0  0  0  0
   20.6190   -6.0118  -15.5000 O   0  0  0  0  0  0  0  0  0  0  0  0
   21.7908   -7.7206  -14.5595 O   0  0  0  0  0  0  0  0  0  0  0  0
  2  3  1  0
  2  1  1  0
  4  3  1  0
  5  4  1  0
  5  6  1  1
  7  5  1  0
  8  7  2  0
  9 10  1  0
 10 11  2  0
 11 12  1  0
 13 14  1  0
 13 12  2  0
 15 14  1  6
 15 17  1  0
 15 16  1  0
 16  7  1  0
 17 18  2  0
 19 13  1  0
 20 19  2  0
 20 10  1  0
 22 21  1  0
 23 22  2  0
 24 22  1  0
 25 24  1  0
 26 25  1  1
 27 26  1  0
 27 17  1  0
 28 26  1  0
 29 28  1  0
 30 28  2  0
M  END
$$$$
