MYQ.pdb
     RDKit          3D

 30 30  0  0  1  0  0  0  0  0999 V2000
   32.0642  -22.7569   -9.4167 C   0  0  0  0  0  0  0  0  0  0  0  0
   30.4822  -21.9986   -9.7958 S   0  0  0  0  0  0  0  0  0  0  0  0
   30.5627  -21.1301  -11.3859 C   0  0  0  0  0  0  0  0  0  0  0  0
   29.3301  -20.3801  -11.7287 C   0  0  0  0  0  0  0  0  0  0  0  0
   28.2001  -21.2092  -12.1398 C   0  0  2  0  0  0  0  0  0  0  0  0
   28.5488  -22.0135  -13.3675 N   0  0  0  0  0  0  0  0  0  0  0  0
   26.9767  -20.4943  -12.6280 C   0  0  0  0  0  0  0  0  0  0  0  0
   26.3764  -19.7005  -11.8262 O   0  0  0  0  0  0  0  0  0  0  0  0
   25.8444  -13.5973  -16.0613 O   0  0  0  0  0  0  0  0  0  0  0  0
   25.7447  -14.9832  -15.9468 C   0  0  0  0  0  0  0  0  0  0  0  0
   26.7980  -15.7967  -16.2915 C   0  0  0  0  0  0  0  0  0  0  0  0
   26.7029  -17.1679  -16.1779 C   0  0  0  0  0  0  0  0  0  0  0  0
   25.5633  -17.7920  -15.7207 C   0  0  0  0  0  0  0  0  0  0  0  0
   25.5366  -19.2338  -15.6282 C   0  0  0  0  0  0  0  0  0  0  0  0
   25.2098  -19.8428  -14.3001 C   0  0  2  0  0  0  0  0  0  0  0  0
   26.4077  -20.6185  -13.9075 N   0  0  0  0  0  0  0  0  0  0  0  0
   24.0157  -20.6640  -14.2787 C   0  0  0  0  0  0  0  0  0  0  0  0
   24.1720  -21.9123  -14.0436 O   0  0  0  0  0  0  0  0  0  0  0  0
   24.5103  -16.9757  -15.3774 C   0  0  0  0  0  0  0  0  0  0  0  0
   24.5861  -15.5880  -15.4830 C   0  0  0  0  0  0  0  0  0  0  0  0
   19.0657  -21.9562  -11.4107 N   0  0  0  0  0  0  0  0  0  0  0  0
   19.6684  -20.6895  -11.1968 C   0  0  0  0  0  0  0  0  0  0  0  0
   19.0866  -19.9234  -10.3946 O   0  0  0  0  0  0  0  0  0  0  0  0
   20.8991  -20.2850  -11.8671 C   0  0  0  0  0  0  0  0  0  0  0  0
   21.5912  -21.3195  -12.6714 C   0  0  0  0  0  0  0  0  0  0  0  0
   21.5402  -21.1145  -14.1717 C   0  0  2  0  0  0  0  0  0  0  0  0
   22.6843  -20.2580  -14.4825 N   0  0  0  0  0  0  0  0  0  0  0  0
   20.3012  -20.4385  -14.5933 C   0  0  0  0  0  0  0  0  0  0  0  0
   20.2640  -19.0712  -14.7295 O   0  0  0  0  0  0  0  0  0  0  0  0
   19.2781  -21.1195  -14.8296 O   0  0  0  0  0  0  0  0  0  0  0  0
  2  3  1  0
  2  1  1  0
  4  3  1  0
  5  4  1  0
  5  6  1  6
  7  5  1  0
  8  7  2  0
  9 10  1  0
 10 11  2  0
 11 12  1  0
 13 14  1  0
 13 12  2  0
 15 14  1  6
 15 17  1  0
 15 16  1  0
 16  7  1  0
 17 18  2  0
 19 13  1  0
 20 19  2  0
 20 10  1  0
 22 21  1  0
 23 22  2  0
 24 22  1  0
 25 24  1  0
 26 25  1  1
 27 26  1  0
 27 17  1  0
 28 26  1  0
 29 28  1  0
 30 28  2  0
M  END
$$$$
