MYQ.pdb
     RDKit          3D

 30 30  0  0  1  0  0  0  0  0999 V2000
   35.0462  -25.8028  -24.6129 C   0  0  0  0  0  0  0  0  0  0  0  0
   36.5624  -25.3160  -23.7848 S   0  0  0  0  0  0  0  0  0  0  0  0
   36.9535  -26.4782  -22.4485 C   0  0  0  0  0  0  0  0  0  0  0  0
   36.0236  -26.4092  -21.2953 C   0  0  0  0  0  0  0  0  0  0  0  0
   36.6603  -26.1494  -20.0067 C   0  0  2  0  0  0  0  0  0  0  0  0
   37.5145  -27.3207  -19.5892 N   0  0  0  0  0  0  0  0  0  0  0  0
   35.7584  -26.0390  -18.8148 C   0  0  0  0  0  0  0  0  0  0  0  0
   35.2840  -27.1131  -18.3103 O   0  0  0  0  0  0  0  0  0  0  0  0
   31.7494  -22.6918  -11.5316 O   0  0  0  0  0  0  0  0  0  0  0  0
   32.4853  -22.9211  -12.6932 C   0  0  0  0  0  0  0  0  0  0  0  0
   33.6332  -23.6771  -12.6630 C   0  0  0  0  0  0  0  0  0  0  0  0
   34.3626  -23.9069  -13.8108 C   0  0  0  0  0  0  0  0  0  0  0  0
   33.9891  -23.3982  -15.0351 C   0  0  0  0  0  0  0  0  0  0  0  0
   34.8030  -23.6810  -16.1952 C   0  0  0  0  0  0  0  0  0  0  0  0
   34.4094  -24.8381  -17.0596 C   0  0  2  0  0  0  0  0  0  0  0  0
   35.3688  -24.8431  -18.1867 N   0  0  0  0  0  0  0  0  0  0  0  0
   33.0387  -24.8142  -17.5302 C   0  0  0  0  0  0  0  0  0  0  0  0
   32.7968  -24.1288  -18.5835 O   0  0  0  0  0  0  0  0  0  0  0  0
   32.8406  -22.6411  -15.0625 C   0  0  0  0  0  0  0  0  0  0  0  0
   32.0881  -22.3983  -13.9147 C   0  0  0  0  0  0  0  0  0  0  0  0
   26.6187  -27.5280  -15.7759 N   0  0  0  0  0  0  0  0  0  0  0  0
   27.5982  -27.6874  -16.7902 C   0  0  0  0  0  0  0  0  0  0  0  0
   27.7736  -28.8514  -17.2182 O   0  0  0  0  0  0  0  0  0  0  0  0
   28.3686  -26.5666  -17.3173 C   0  0  0  0  0  0  0  0  0  0  0  0
   29.8119  -26.5339  -16.9832 C   0  0  0  0  0  0  0  0  0  0  0  0
   30.5777  -25.3491  -17.5360 C   0  0  2  0  0  0  0  0  0  0  0  0
   31.9220  -25.4619  -16.9710 N   0  0  0  0  0  0  0  0  0  0  0  0
   29.9840  -24.0669  -17.1198 C   0  0  0  0  0  0  0  0  0  0  0  0
   30.0566  -23.6571  -15.8098 O   0  0  0  0  0  0  0  0  0  0  0  0
   29.4116  -23.3486  -17.9699 O   0  0  0  0  0  0  0  0  0  0  0  0
  2  3  1  0
  2  1  1  0
  4  3  1  0
  5  4  1  0
  5  6  1  1
  7  5  1  0
  8  7  2  0
  9 10  1  0
 10 11  2  0
 11 12  1  0
 13 14  1  0
 13 12  2  0
 15 14  1  1
 15 17  1  0
 15 16  1  0
 16  7  1  0
 17 18  2  0
 19 13  1  0
 20 19  2  0
 20 10  1  0
 22 21  1  0
 23 22  2  0
 24 22  1  0
 25 24  1  0
 26 25  1  1
 27 26  1  0
 27 17  1  0
 28 26  1  0
 29 28  1  0
 30 28  2  0
M  END
$$$$
