MYQ.pdb
     RDKit          3D

 30 30  0  0  1  0  0  0  0  0999 V2000
   16.2988  -21.9934    2.1812 C   0  0  0  0  0  0  0  0  0  0  0  0
   14.8615  -21.0456    1.6736 S   0  0  0  0  0  0  0  0  0  0  0  0
   14.5115  -19.7352    2.8776 C   0  0  0  0  0  0  0  0  0  0  0  0
   15.7231  -19.1145    3.4656 C   0  0  0  0  0  0  0  0  0  0  0  0
   15.4623  -18.1060    4.4895 C   0  0  2  0  0  0  0  0  0  0  0  0
   14.5391  -17.0367    3.9603 N   0  0  0  0  0  0  0  0  0  0  0  0
   16.6239  -17.2643    4.9237 C   0  0  0  0  0  0  0  0  0  0  0  0
   17.7956  -17.6023    4.5413 O   0  0  0  0  0  0  0  0  0  0  0  0
   21.5648  -10.1986    7.0999 O   0  0  0  0  0  0  0  0  0  0  0  0
   20.5501  -11.1214    6.8500 C   0  0  0  0  0  0  0  0  0  0  0  0
   20.2555  -11.5150    5.5661 C   0  0  0  0  0  0  0  0  0  0  0  0
   19.2532  -12.4288    5.3159 C   0  0  0  0  0  0  0  0  0  0  0  0
   18.4998  -12.9901    6.3231 C   0  0  0  0  0  0  0  0  0  0  0  0
   17.4659  -13.9414    5.9851 C   0  0  0  0  0  0  0  0  0  0  0  0
   17.7692  -15.3963    6.1651 C   0  0  2  0  0  0  0  0  0  0  0  0
   16.5509  -16.1177    5.7338 N   0  0  0  0  0  0  0  0  0  0  0  0
   18.1655  -15.7792    7.5058 C   0  0  0  0  0  0  0  0  0  0  0  0
   17.2302  -15.9535    8.3617 O   0  0  0  0  0  0  0  0  0  0  0  0
   18.7959  -12.5937    7.6069 C   0  0  0  0  0  0  0  0  0  0  0  0
   19.8056  -11.6731    7.8818 C   0  0  0  0  0  0  0  0  0  0  0  0
   20.7122  -21.2440    9.5640 N   0  0  0  0  0  0  0  0  0  0  0  0
   20.9955  -19.9814    8.9816 C   0  0  0  0  0  0  0  0  0  0  0  0
   22.0754  -19.8864    8.3540 O   0  0  0  0  0  0  0  0  0  0  0  0
   20.0891  -18.8446    9.0980 C   0  0  0  0  0  0  0  0  0  0  0  0
   20.7099  -17.5160    9.3112 C   0  0  0  0  0  0  0  0  0  0  0  0
   19.7413  -16.3532    9.3846 C   0  0  2  0  0  0  0  0  0  0  0  0
   19.4676  -15.9916    7.9940 N   0  0  0  0  0  0  0  0  0  0  0  0
   20.3251  -15.1932   10.0801 C   0  0  0  0  0  0  0  0  0  0  0  0
   20.9542  -14.1983    9.3704 O   0  0  0  0  0  0  0  0  0  0  0  0
   20.2433  -15.1176   11.3266 O   0  0  0  0  0  0  0  0  0  0  0  0
  2  3  1  0
  2  1  1  0
  4  3  1  0
  5  4  1  0
  5  6  1  6
  7  5  1  0
  8  7  2  0
  9 10  1  0
 10 11  2  0
 11 12  1  0
 13 14  1  0
 13 12  2  0
 15 14  1  1
 15 17  1  0
 15 16  1  0
 16  7  1  0
 17 18  2  0
 19 13  1  0
 20 19  2  0
 20 10  1  0
 22 21  1  0
 23 22  2  0
 24 22  1  0
 25 24  1  0
 26 25  1  6
 27 26  1  0
 27 17  1  0
 28 26  1  0
 29 28  1  0
 30 28  2  0
M  END
$$$$
