MYQ.pdb
     RDKit          3D

 30 30  0  0  1  0  0  0  0  0999 V2000
   24.0827  -24.7570  -15.0195 C   0  0  0  0  0  0  0  0  0  0  0  0
   25.2377  -26.0181  -15.5645 S   0  0  0  0  0  0  0  0  0  0  0  0
   25.1575  -26.2121  -17.3660 C   0  0  0  0  0  0  0  0  0  0  0  0
   26.0210  -27.2946  -17.8969 C   0  0  0  0  0  0  0  0  0  0  0  0
   27.3530  -27.3664  -17.3018 C   0  0  2  0  0  0  0  0  0  0  0  0
   28.2331  -26.2619  -17.8320 N   0  0  0  0  0  0  0  0  0  0  0  0
   28.1872  -28.5621  -17.6491 C   0  0  0  0  0  0  0  0  0  0  0  0
   28.6767  -28.6400  -18.8271 O   0  0  0  0  0  0  0  0  0  0  0  0
   34.5890  -27.5307  -18.9545 O   0  0  0  0  0  0  0  0  0  0  0  0
   33.6036  -28.3408  -18.3921 C   0  0  0  0  0  0  0  0  0  0  0  0
   32.9539  -27.9643  -17.2405 C   0  0  0  0  0  0  0  0  0  0  0  0
   31.9776  -28.7629  -16.6825 C   0  0  0  0  0  0  0  0  0  0  0  0
   31.6039  -29.9666  -17.2381 C   0  0  0  0  0  0  0  0  0  0  0  0
   30.5724  -30.7501  -16.5975 C   0  0  0  0  0  0  0  0  0  0  0  0
   29.2334  -30.8202  -17.2633 C   0  0  2  0  0  0  0  0  0  0  0  0
   28.4858  -29.6338  -16.7896 N   0  0  0  0  0  0  0  0  0  0  0  0
   28.4930  -32.0433  -17.0252 C   0  0  0  0  0  0  0  0  0  0  0  0
   29.0004  -33.1280  -17.4766 O   0  0  0  0  0  0  0  0  0  0  0  0
   32.2563  -30.3416  -18.3900 C   0  0  0  0  0  0  0  0  0  0  0  0
   33.2445  -29.5487  -18.9710 C   0  0  0  0  0  0  0  0  0  0  0  0
   24.4187  -32.9619  -12.3670 N   0  0  0  0  0  0  0  0  0  0  0  0
   25.6805  -33.6106  -12.3901 C   0  0  0  0  0  0  0  0  0  0  0  0
   26.1264  -34.0024  -11.2871 O   0  0  0  0  0  0  0  0  0  0  0  0
   26.4315  -33.8180  -13.6232 C   0  0  0  0  0  0  0  0  0  0  0  0
   25.8056  -33.3310  -14.8750 C   0  0  0  0  0  0  0  0  0  0  0  0
   26.6443  -33.4979  -16.1257 C   0  0  2  0  0  0  0  0  0  0  0  0
   27.2700  -32.1945  -16.3466 N   0  0  0  0  0  0  0  0  0  0  0  0
   25.8223  -33.8448  -17.2978 C   0  0  0  0  0  0  0  0  0  0  0  0
   25.6738  -35.1561  -17.6824 O   0  0  0  0  0  0  0  0  0  0  0  0
   25.2558  -32.9347  -17.9437 O   0  0  0  0  0  0  0  0  0  0  0  0
  2  3  1  0
  2  1  1  0
  4  3  1  0
  5  4  1  0
  5  6  1  6
  7  5  1  0
  8  7  2  0
  9 10  1  0
 10 11  2  0
 11 12  1  0
 13 14  1  0
 13 12  2  0
 15 14  1  1
 15 17  1  0
 15 16  1  0
 16  7  1  0
 17 18  2  0
 19 13  1  0
 20 19  2  0
 20 10  1  0
 22 21  1  0
 23 22  2  0
 24 22  1  0
 25 24  1  0
 26 25  1  1
 27 26  1  0
 27 17  1  0
 28 26  1  0
 29 28  1  0
 30 28  2  0
M  END
$$$$
