MYQ.pdb
     RDKit          3D

 30 30  0  0  1  0  0  0  0  0999 V2000
   29.6270  -20.3069   -4.1513 C   0  0  0  0  0  0  0  0  0  0  0  0
   28.3808  -20.9664   -5.2620 S   0  0  0  0  0  0  0  0  0  0  0  0
   27.0419  -19.7651   -5.4938 C   0  0  0  0  0  0  0  0  0  0  0  0
   26.2047  -20.0162   -6.6918 C   0  0  0  0  0  0  0  0  0  0  0  0
   26.9175  -19.9511   -7.9649 C   0  0  2  0  0  0  0  0  0  0  0  0
   27.6378  -18.6330   -8.1048 N   0  0  0  0  0  0  0  0  0  0  0  0
   26.0825  -19.9320   -9.2094 C   0  0  0  0  0  0  0  0  0  0  0  0
   25.5798  -18.8192   -9.5867 O   0  0  0  0  0  0  0  0  0  0  0  0
   29.7627  -19.6106  -15.7382 O   0  0  0  0  0  0  0  0  0  0  0  0
   28.7858  -20.1393  -14.8957 C   0  0  0  0  0  0  0  0  0  0  0  0
   29.1230  -21.0007  -13.8786 C   0  0  0  0  0  0  0  0  0  0  0  0
   28.1590  -21.5242  -13.0426 C   0  0  0  0  0  0  0  0  0  0  0  0
   26.8225  -21.2197  -13.1777 C   0  0  0  0  0  0  0  0  0  0  0  0
   25.8689  -21.8062  -12.2640 C   0  0  0  0  0  0  0  0  0  0  0  0
   25.1339  -20.8887  -11.3371 C   0  0  2  0  0  0  0  0  0  0  0  0
   25.7855  -21.0436  -10.0172 N   0  0  0  0  0  0  0  0  0  0  0  0
   23.7050  -21.1170  -11.2531 C   0  0  0  0  0  0  0  0  0  0  0  0
   23.3112  -22.0661  -10.4903 O   0  0  0  0  0  0  0  0  0  0  0  0
   26.4876  -20.3583  -14.1969 C   0  0  0  0  0  0  0  0  0  0  0  0
   27.4461  -19.8168  -15.0518 C   0  0  0  0  0  0  0  0  0  0  0  0
   18.9500  -17.2775  -13.1877 N   0  0  0  0  0  0  0  0  0  0  0  0
   18.3065  -18.3974  -12.6002 C   0  0  0  0  0  0  0  0  0  0  0  0
   17.0551  -18.3637  -12.5594 O   0  0  0  0  0  0  0  0  0  0  0  0
   19.0475  -19.5352  -12.0672 C   0  0  0  0  0  0  0  0  0  0  0  0
   20.5261  -19.4526  -12.1218 C   0  0  0  0  0  0  0  0  0  0  0  0
   21.2606  -20.7094  -11.7016 C   0  0  2  0  0  0  0  0  0  0  0  0
   22.6780  -20.4149  -11.9098 N   0  0  0  0  0  0  0  0  0  0  0  0
   20.8815  -21.8702  -12.5256 C   0  0  0  0  0  0  0  0  0  0  0  0
   19.8175  -22.6628  -12.1666 O   0  0  0  0  0  0  0  0  0  0  0  0
   21.5360  -22.1310  -13.5599 O   0  0  0  0  0  0  0  0  0  0  0  0
  2  3  1  0
  2  1  1  0
  4  3  1  0
  5  4  1  0
  5  6  1  1
  7  5  1  0
  8  7  2  0
  9 10  1  0
 10 11  2  0
 11 12  1  0
 13 14  1  0
 13 12  2  0
 15 14  1  6
 15 17  1  0
 15 16  1  0
 16  7  1  0
 17 18  2  0
 19 13  1  0
 20 19  2  0
 20 10  1  0
 22 21  1  0
 23 22  2  0
 24 22  1  0
 25 24  1  0
 26 25  1  6
 27 26  1  0
 27 17  1  0
 28 26  1  0
 29 28  1  0
 30 28  2  0
M  END
$$$$
