MYQ.pdb
     RDKit          3D

 30 30  0  0  1  0  0  0  0  0999 V2000
   17.9844  -14.6251  -16.8135 C   0  0  0  0  0  0  0  0  0  0  0  0
   19.4119  -15.3652  -17.6111 S   0  0  0  0  0  0  0  0  0  0  0  0
   19.8440  -14.4453  -19.1132 C   0  0  0  0  0  0  0  0  0  0  0  0
   20.3457  -13.0731  -18.8590 C   0  0  0  0  0  0  0  0  0  0  0  0
   20.6367  -12.2926  -20.0588 C   0  0  2  0  0  0  0  0  0  0  0  0
   21.9270  -12.7508  -20.6919 N   0  0  0  0  0  0  0  0  0  0  0  0
   20.9370  -10.8371  -19.8646 C   0  0  0  0  0  0  0  0  0  0  0  0
   22.1560  -10.4828  -19.7171 O   0  0  0  0  0  0  0  0  0  0  0  0
   22.0845   -7.9992  -25.8860 O   0  0  0  0  0  0  0  0  0  0  0  0
   21.4984   -7.9280  -24.6230 C   0  0  0  0  0  0  0  0  0  0  0  0
   21.8208   -6.9141  -23.7523 C   0  0  0  0  0  0  0  0  0  0  0  0
   21.2416   -6.8402  -22.5028 C   0  0  0  0  0  0  0  0  0  0  0  0
   20.3215   -7.7654  -22.0615 C   0  0  0  0  0  0  0  0  0  0  0  0
   19.7561   -7.6235  -20.7392 C   0  0  0  0  0  0  0  0  0  0  0  0
   20.3915   -8.3906  -19.6216 C   0  0  2  0  0  0  0  0  0  0  0  0
   19.9882   -9.8007  -19.8212 N   0  0  0  0  0  0  0  0  0  0  0  0
   20.0557   -7.9265  -18.2901 C   0  0  0  0  0  0  0  0  0  0  0  0
   18.8781   -8.1878  -17.8625 O   0  0  0  0  0  0  0  0  0  0  0  0
   20.0014   -8.7796  -22.9343 C   0  0  0  0  0  0  0  0  0  0  0  0
   20.5737   -8.8718  -24.2018 C   0  0  0  0  0  0  0  0  0  0  0  0
   21.6235   -9.6476  -13.0260 N   0  0  0  0  0  0  0  0  0  0  0  0
   20.8926   -8.4791  -12.6887 C   0  0  0  0  0  0  0  0  0  0  0  0
   20.5507   -8.3617  -11.4895 O   0  0  0  0  0  0  0  0  0  0  0  0
   20.5491   -7.4593  -13.6735 C   0  0  0  0  0  0  0  0  0  0  0  0
   20.8744   -7.7614  -15.0873 C   0  0  0  0  0  0  0  0  0  0  0  0
   20.3922   -6.7381  -16.0954 C   0  0  2  0  0  0  0  0  0  0  0  0
   20.8729   -7.2176  -17.3908 N   0  0  0  0  0  0  0  0  0  0  0  0
   20.9544   -5.4016  -15.8353 C   0  0  0  0  0  0  0  0  0  0  0  0
   20.3503   -4.5531  -14.9383 O   0  0  0  0  0  0  0  0  0  0  0  0
   21.9909   -5.0418  -16.4373 O   0  0  0  0  0  0  0  0  0  0  0  0
  2  3  1  0
  2  1  1  0
  4  3  1  0
  5  4  1  0
  5  6  1  1
  7  5  1  0
  8  7  2  0
  9 10  1  0
 10 11  2  0
 11 12  1  0
 13 14  1  0
 13 12  2  0
 15 14  1  6
 15 17  1  0
 15 16  1  0
 16  7  1  0
 17 18  2  0
 19 13  1  0
 20 19  2  0
 20 10  1  0
 22 21  1  0
 23 22  2  0
 24 22  1  0
 25 24  1  0
 26 25  1  1
 27 26  1  0
 27 17  1  0
 28 26  1  0
 29 28  1  0
 30 28  2  0
M  END
$$$$
