MYQ.pdb
     RDKit          3D

 30 30  0  0  1  0  0  0  0  0999 V2000
   31.8684  -22.3497  -10.1553 C   0  0  0  0  0  0  0  0  0  0  0  0
   30.4143  -21.5063  -10.7847 S   0  0  0  0  0  0  0  0  0  0  0  0
   30.7603  -20.7776  -12.4091 C   0  0  0  0  0  0  0  0  0  0  0  0
   29.6123  -20.0507  -13.0030 C   0  0  0  0  0  0  0  0  0  0  0  0
   28.3390  -20.7644  -12.9506 C   0  0  2  0  0  0  0  0  0  0  0  0
   28.3976  -22.0197  -13.7851 N   0  0  0  0  0  0  0  0  0  0  0  0
   27.1555  -20.0863  -13.5717 C   0  0  0  0  0  0  0  0  0  0  0  0
   26.7995  -18.9468  -13.1155 O   0  0  0  0  0  0  0  0  0  0  0  0
   20.6069  -18.0365  -19.3386 O   0  0  0  0  0  0  0  0  0  0  0  0
   21.7258  -18.5057  -18.6520 C   0  0  0  0  0  0  0  0  0  0  0  0
   21.8628  -19.8415  -18.3566 C   0  0  0  0  0  0  0  0  0  0  0  0
   22.9693  -20.3089  -17.6788 C   0  0  0  0  0  0  0  0  0  0  0  0
   23.9850  -19.4763  -17.2636 C   0  0  0  0  0  0  0  0  0  0  0  0
   25.1143  -20.0377  -16.5583 C   0  0  0  0  0  0  0  0  0  0  0  0
   25.1352  -19.9193  -15.0660 C   0  0  2  0  0  0  0  0  0  0  0  0
   26.3768  -20.5944  -14.6261 N   0  0  0  0  0  0  0  0  0  0  0  0
   23.9710  -20.4581  -14.3913 C   0  0  0  0  0  0  0  0  0  0  0  0
   23.8470  -21.7317  -14.3722 O   0  0  0  0  0  0  0  0  0  0  0  0
   23.8449  -18.1400  -17.5595 C   0  0  0  0  0  0  0  0  0  0  0  0
   22.7358  -17.6471  -18.2449 C   0  0  0  0  0  0  0  0  0  0  0  0
   24.2353  -21.9650  -10.2484 N   0  0  0  0  0  0  0  0  0  0  0  0
   23.0244  -21.2277  -10.1866 C   0  0  0  0  0  0  0  0  0  0  0  0
   22.0629  -21.7821   -9.6060 O   0  0  0  0  0  0  0  0  0  0  0  0
   22.8893  -19.8948  -10.7633 C   0  0  0  0  0  0  0  0  0  0  0  0
   21.7563  -19.6830  -11.6946 C   0  0  0  0  0  0  0  0  0  0  0  0
   21.8606  -20.4138  -13.0178 C   0  0  2  0  0  0  0  0  0  0  0  0
   22.9449  -19.7494  -13.7403 N   0  0  0  0  0  0  0  0  0  0  0  0
   20.6195  -20.3087  -13.8043 C   0  0  0  0  0  0  0  0  0  0  0  0
   20.5401  -19.4443  -14.8700 O   0  0  0  0  0  0  0  0  0  0  0  0
   19.6336  -21.0154  -13.4962 O   0  0  0  0  0  0  0  0  0  0  0  0
  2  3  1  0
  2  1  1  0
  4  3  1  0
  5  4  1  0
  5  6  1  6
  7  5  1  0
  8  7  2  0
  9 10  1  0
 10 11  2  0
 11 12  1  0
 13 14  1  0
 13 12  2  0
 15 14  1  6
 15 17  1  0
 15 16  1  0
 16  7  1  0
 17 18  2  0
 19 13  1  0
 20 19  2  0
 20 10  1  0
 22 21  1  0
 23 22  2  0
 24 22  1  0
 25 24  1  0
 26 25  1  1
 27 26  1  0
 27 17  1  0
 28 26  1  0
 29 28  1  0
 30 28  2  0
M  END
$$$$
