MYQ.pdb
     RDKit          3D

 30 30  0  0  1  0  0  0  0  0999 V2000
   19.8088  -14.1062  -22.7673 C   0  0  0  0  0  0  0  0  0  0  0  0
   20.1484  -15.8060  -22.3017 S   0  0  0  0  0  0  0  0  0  0  0  0
   20.6648  -15.8943  -20.5653 C   0  0  0  0  0  0  0  0  0  0  0  0
   20.9664  -14.5763  -19.9562 C   0  0  0  0  0  0  0  0  0  0  0  0
   21.4846  -14.6336  -18.5918 C   0  0  2  0  0  0  0  0  0  0  0  0
   20.8775  -15.7922  -17.8401 N   0  0  0  0  0  0  0  0  0  0  0  0
   21.1183  -13.5025  -17.6793 C   0  0  0  0  0  0  0  0  0  0  0  0
   19.9523  -13.4971  -17.1562 O   0  0  0  0  0  0  0  0  0  0  0  0
   21.9130   -6.3959  -12.2735 O   0  0  0  0  0  0  0  0  0  0  0  0
   22.1027   -7.4674  -13.1449 C   0  0  0  0  0  0  0  0  0  0  0  0
   21.8447   -8.7568  -12.7437 C   0  0  0  0  0  0  0  0  0  0  0  0
   22.0299   -9.8187  -13.6040 C   0  0  0  0  0  0  0  0  0  0  0  0
   22.4791   -9.6510  -14.8953 C   0  0  0  0  0  0  0  0  0  0  0  0
   22.6493  -10.8111  -15.7399 C   0  0  0  0  0  0  0  0  0  0  0  0
   21.4568  -11.3035  -16.4993 C   0  0  2  0  0  0  0  0  0  0  0  0
   21.9472  -12.4190  -17.3395 N   0  0  0  0  0  0  0  0  0  0  0  0
   20.7782  -10.2994  -17.2945 C   0  0  0  0  0  0  0  0  0  0  0  0
   20.9656  -10.3349  -18.5600 O   0  0  0  0  0  0  0  0  0  0  0  0
   22.7376   -8.3598  -15.2941 C   0  0  0  0  0  0  0  0  0  0  0  0
   22.5555   -7.2726  -14.4412 C   0  0  0  0  0  0  0  0  0  0  0  0
   15.9495  -10.4406  -19.7300 N   0  0  0  0  0  0  0  0  0  0  0  0
   16.1063   -9.0354  -19.8493 C   0  0  0  0  0  0  0  0  0  0  0  0
   15.2602   -8.4375  -20.5532 O   0  0  0  0  0  0  0  0  0  0  0  0
   17.1893   -8.3102  -19.1944 C   0  0  0  0  0  0  0  0  0  0  0  0
   18.1578   -9.1182  -18.4164 C   0  0  0  0  0  0  0  0  0  0  0  0
   19.2740   -8.3334  -17.7577 C   0  0  2  0  0  0  0  0  0  0  0  0
   19.9224   -9.2765  -16.8470 N   0  0  0  0  0  0  0  0  0  0  0  0
   18.7608   -7.1894  -16.9845 C   0  0  0  0  0  0  0  0  0  0  0  0
   18.5732   -5.9682  -17.5868 O   0  0  0  0  0  0  0  0  0  0  0  0
   18.4938   -7.3367  -15.7707 O   0  0  0  0  0  0  0  0  0  0  0  0
  2  3  1  0
  2  1  1  0
  4  3  1  0
  5  4  1  0
  5  6  1  1
  7  5  1  0
  8  7  2  0
  9 10  1  0
 10 11  2  0
 11 12  1  0
 13 14  1  0
 13 12  2  0
 15 14  1  6
 15 17  1  0
 15 16  1  0
 16  7  1  0
 17 18  2  0
 19 13  1  0
 20 19  2  0
 20 10  1  0
 22 21  1  0
 23 22  2  0
 24 22  1  0
 25 24  1  0
 26 25  1  1
 27 26  1  0
 27 17  1  0
 28 26  1  0
 29 28  1  0
 30 28  2  0
M  END
$$$$
