GPP.pdb
     RDKit          3D

 19 20  0  0  1  0  0  0  0  0999 V2000
   24.9953  -21.4912  -12.1253 N   0  0  0  0  0  0  0  0  0  0  0  0
   26.0435  -20.6956  -11.5747 C   0  0  0  0  0  0  0  0  0  0  0  0
   26.4546  -21.1089  -10.2231 C   0  0  0  0  0  0  0  0  0  0  0  0
   25.5775  -21.5110   -9.4228 O   0  0  0  0  0  0  0  0  0  0  0  0
   27.8446  -21.0460   -9.8438 N   0  0  0  0  0  0  0  0  0  0  0  0
   28.8735  -20.6494  -10.7753 C   0  0  0  0  0  0  0  0  0  0  0  0
   30.2026  -21.0609  -10.2111 C   0  0  0  0  0  0  0  0  0  0  0  0
   29.8782  -21.7424   -8.9273 C   0  0  0  0  0  0  0  0  0  0  0  0
   28.4432  -21.3468   -8.5987 C   0  0  1  0  0  0  0  0  0  0  0  0
   28.4784  -20.3359   -7.5604 C   0  0  0  0  0  0  0  0  0  0  0  0
   28.1702  -19.1415   -7.9732 O   0  0  0  0  0  0  0  0  0  0  0  0
   28.7848  -20.4210   -6.2013 N   0  0  0  0  0  0  0  0  0  0  0  0
   29.4127  -21.5219   -5.5192 C   0  0  0  0  0  0  0  0  0  0  0  0
   29.1733  -21.3119   -4.0365 C   0  0  0  0  0  0  0  0  0  0  0  0
   28.1613  -20.2043   -3.9714 C   0  0  0  0  0  0  0  0  0  0  0  0
   28.5330  -19.3951   -5.2173 C   0  0  1  0  0  0  0  0  0  0  0  0
   29.7303  -18.6084   -4.8827 C   0  0  0  0  0  0  0  0  0  0  0  0
   30.8585  -18.7799   -5.3844 O   0  0  0  0  0  0  0  0  0  0  0  0
   29.5922  -17.6000   -3.9376 O   0  0  0  0  0  0  0  0  0  0  0  0
  1  2  1  0
  3  2  1  0
  3  4  2  0
  5  3  1  0
  6  5  1  0
  7  8  1  0
  7  6  1  0
  8  9  1  0
  9  5  1  0
  9 10  1  1
 10 11  2  0
 12 10  1  0
 12 16  1  0
 13 12  1  0
 14 13  1  0
 14 15  1  0
 15 16  1  0
 16 17  1  1
 17 19  1  0
 18 17  2  0
M  END
$$$$
