GPP.pdb
     RDKit          3D

 19 20  0  0  1  0  0  0  0  0999 V2000
   25.3604  -21.3537  -12.0537 N   0  0  0  0  0  0  0  0  0  0  0  0
   26.4609  -20.6409  -11.4920 C   0  0  0  0  0  0  0  0  0  0  0  0
   26.7886  -21.0447  -10.1150 C   0  0  0  0  0  0  0  0  0  0  0  0
   25.8566  -21.3842   -9.3484 O   0  0  0  0  0  0  0  0  0  0  0  0
   28.1614  -21.0438   -9.6730 N   0  0  0  0  0  0  0  0  0  0  0  0
   29.2509  -20.7254  -10.5648 C   0  0  0  0  0  0  0  0  0  0  0  0
   30.5295  -21.1903   -9.9298 C   0  0  0  0  0  0  0  0  0  0  0  0
   30.1119  -21.8203   -8.6467 C   0  0  0  0  0  0  0  0  0  0  0  0
   28.6864  -21.3426   -8.3946 C   0  0  1  0  0  0  0  0  0  0  0  0
   28.7280  -20.3080   -7.3801 C   0  0  0  0  0  0  0  0  0  0  0  0
   28.5397  -19.1063   -7.8409 O   0  0  0  0  0  0  0  0  0  0  0  0
   28.9348  -20.3771   -6.0014 N   0  0  0  0  0  0  0  0  0  0  0  0
   29.4008  -21.5116   -5.2482 C   0  0  0  0  0  0  0  0  0  0  0  0
   29.0880  -21.2281   -3.7916 C   0  0  0  0  0  0  0  0  0  0  0  0
   28.1928  -20.0229   -3.8261 C   0  0  0  0  0  0  0  0  0  0  0  0
   28.7259  -19.2981   -5.0653 C   0  0  1  0  0  0  0  0  0  0  0  0
   29.9732  -18.6247   -4.6714 C   0  0  0  0  0  0  0  0  0  0  0  0
   31.1141  -18.9656   -5.0404 O   0  0  0  0  0  0  0  0  0  0  0  0
   29.8707  -17.5279   -3.8254 O   0  0  0  0  0  0  0  0  0  0  0  0
  1  2  1  0
  3  2  1  0
  3  4  2  0
  5  3  1  0
  6  5  1  0
  7  8  1  0
  7  6  1  0
  8  9  1  0
  9  5  1  0
  9 10  1  1
 10 11  2  0
 12 10  1  0
 12 16  1  0
 13 12  1  0
 14 13  1  0
 14 15  1  0
 15 16  1  0
 16 17  1  1
 17 19  1  0
 18 17  2  0
M  END
$$$$
