GPP.pdb
     RDKit          3D

 19 20  0  0  1  0  0  0  0  0999 V2000
   22.0217  -20.0150  -13.8556 N   0  0  0  0  0  0  0  0  0  0  0  0
   23.4344  -20.0594  -13.6629 C   0  0  0  0  0  0  0  0  0  0  0  0
   23.8371  -20.5609  -12.3389 C   0  0  0  0  0  0  0  0  0  0  0  0
   22.9491  -20.7800  -11.4816 O   0  0  0  0  0  0  0  0  0  0  0  0
   25.2314  -20.7902  -12.0507 N   0  0  0  0  0  0  0  0  0  0  0  0
   26.2641  -20.5456  -13.0292 C   0  0  0  0  0  0  0  0  0  0  0  0
   27.5161  -21.2388  -12.5750 C   0  0  0  0  0  0  0  0  0  0  0  0
   27.1369  -21.9194  -11.3059 C   0  0  0  0  0  0  0  0  0  0  0  0
   25.8285  -21.2742  -10.8639 C   0  0  1  0  0  0  0  0  0  0  0  0
   26.1201  -20.3523   -9.7839 C   0  0  0  0  0  0  0  0  0  0  0  0
   26.3096  -19.1251  -10.1715 O   0  0  0  0  0  0  0  0  0  0  0  0
   26.2330  -20.5519   -8.4071 N   0  0  0  0  0  0  0  0  0  0  0  0
   26.1631  -21.8046   -7.7019 C   0  0  0  0  0  0  0  0  0  0  0  0
   25.9461  -21.4713   -6.2384 C   0  0  0  0  0  0  0  0  0  0  0  0
   25.6302  -20.0032   -6.2291 C   0  0  0  0  0  0  0  0  0  0  0  0
   26.4568  -19.5188   -7.4238 C   0  0  1  0  0  0  0  0  0  0  0  0
   27.8567  -19.4374   -6.9788 C   0  0  0  0  0  0  0  0  0  0  0  0
   28.7574  -20.2322   -7.3120 O   0  0  0  0  0  0  0  0  0  0  0  0
   28.1990  -18.3975   -6.1241 O   0  0  0  0  0  0  0  0  0  0  0  0
  1  2  1  0
  3  2  1  0
  3  4  2  0
  5  3  1  0
  6  5  1  0
  7  8  1  0
  7  6  1  0
  8  9  1  0
  9  5  1  0
  9 10  1  1
 10 11  2  0
 12 10  1  0
 12 16  1  0
 13 12  1  0
 14 13  1  0
 14 15  1  0
 15 16  1  0
 16 17  1  1
 17 19  1  0
 18 17  2  0
M  END
$$$$
