GPP.pdb
     RDKit          3D

 19 20  0  0  1  0  0  0  0  0999 V2000
   23.5611  -20.4857  -11.6934 N   0  0  0  0  0  0  0  0  0  0  0  0
   24.9647  -20.3059  -11.5134 C   0  0  0  0  0  0  0  0  0  0  0  0
   25.4470  -20.6994  -10.1796 C   0  0  0  0  0  0  0  0  0  0  0  0
   24.6067  -20.9244   -9.2769 O   0  0  0  0  0  0  0  0  0  0  0  0
   26.8630  -20.8190   -9.9336 N   0  0  0  0  0  0  0  0  0  0  0  0
   27.8404  -20.5938  -10.9716 C   0  0  0  0  0  0  0  0  0  0  0  0
   29.1503  -21.1697  -10.5170 C   0  0  0  0  0  0  0  0  0  0  0  0
   28.8634  -21.7649   -9.1824 C   0  0  0  0  0  0  0  0  0  0  0  0
   27.5338  -21.1660   -8.7383 C   0  0  1  0  0  0  0  0  0  0  0  0
   27.8061  -20.1419   -7.7491 C   0  0  0  0  0  0  0  0  0  0  0  0
   27.7364  -18.9277   -8.2105 O   0  0  0  0  0  0  0  0  0  0  0  0
   28.1292  -20.2321   -6.3942 N   0  0  0  0  0  0  0  0  0  0  0  0
   28.4357  -21.4262   -5.6514 C   0  0  0  0  0  0  0  0  0  0  0  0
   28.3284  -21.0669   -4.1819 C   0  0  0  0  0  0  0  0  0  0  0  0
   27.6873  -19.7090   -4.1718 C   0  0  0  0  0  0  0  0  0  0  0  0
   28.2281  -19.1206   -5.4782 C   0  0  1  0  0  0  0  0  0  0  0  0
   29.6155  -18.7022   -5.2243 C   0  0  0  0  0  0  0  0  0  0  0  0
   30.6261  -19.2709   -5.6817 O   0  0  0  0  0  0  0  0  0  0  0  0
   29.8126  -17.5908   -4.4148 O   0  0  0  0  0  0  0  0  0  0  0  0
  1  2  1  0
  3  2  1  0
  3  4  2  0
  5  3  1  0
  6  5  1  0
  7  8  1  0
  7  6  1  0
  8  9  1  0
  9  5  1  0
  9 10  1  1
 10 11  2  0
 12 10  1  0
 12 16  1  0
 13 12  1  0
 14 13  1  0
 14 15  1  0
 15 16  1  0
 16 17  1  1
 17 19  1  0
 18 17  2  0
M  END
$$$$
