GPP.pdb
     RDKit          3D

 19 20  0  0  1  0  0  0  0  0999 V2000
   15.2791  -20.7853    2.0901 N   0  0  0  0  0  0  0  0  0  0  0  0
   16.5484  -20.6098    2.7167 C   0  0  0  0  0  0  0  0  0  0  0  0
   16.6634  -21.2799    4.0222 C   0  0  0  0  0  0  0  0  0  0  0  0
   15.6379  -21.3921    4.7345 O   0  0  0  0  0  0  0  0  0  0  0  0
   17.9394  -21.7915    4.4577 N   0  0  0  0  0  0  0  0  0  0  0  0
   19.1164  -21.7180    3.6253 C   0  0  0  0  0  0  0  0  0  0  0  0
   20.1439  -22.6623    4.1793 C   0  0  0  0  0  0  0  0  0  0  0  0
   19.4821  -23.3036    5.3491 C   0  0  0  0  0  0  0  0  0  0  0  0
   18.2758  -22.4300    5.6737 C   0  0  1  0  0  0  0  0  0  0  0  0
   18.5977  -21.6268    6.8367 C   0  0  0  0  0  0  0  0  0  0  0  0
   18.8731  -20.3852    6.5634 O   0  0  0  0  0  0  0  0  0  0  0  0
   18.6640  -21.9531    8.1922 N   0  0  0  0  0  0  0  0  0  0  0  0
   18.5976  -23.2678    8.7740 C   0  0  0  0  0  0  0  0  0  0  0  0
   18.3183  -23.0784   10.2525 C   0  0  0  0  0  0  0  0  0  0  0  0
   17.9675  -21.6244   10.3865 C   0  0  0  0  0  0  0  0  0  0  0  0
   18.8263  -21.0130    9.2757 C   0  0  1  0  0  0  0  0  0  0  0  0
   20.2063  -20.9457    9.7811 C   0  0  0  0  0  0  0  0  0  0  0  0
   21.1254  -21.7194    9.4482 O   0  0  0  0  0  0  0  0  0  0  0  0
   20.5063  -19.9457   10.6972 O   0  0  0  0  0  0  0  0  0  0  0  0
  1  2  1  0
  3  2  1  0
  3  4  2  0
  5  3  1  0
  6  5  1  0
  7  8  1  0
  7  6  1  0
  8  9  1  0
  9  5  1  0
  9 10  1  1
 10 11  2  0
 12 10  1  0
 12 16  1  0
 13 12  1  0
 14 13  1  0
 14 15  1  0
 15 16  1  0
 16 17  1  1
 17 19  1  0
 18 17  2  0
M  END
$$$$
