GPP.pdb
     RDKit          3D

 19 20  0  0  1  0  0  0  0  0999 V2000
   28.0488  -22.8233  -18.8960 N   0  0  0  0  0  0  0  0  0  0  0  0
   27.5767  -21.6181  -18.2964 C   0  0  0  0  0  0  0  0  0  0  0  0
   27.6398  -21.6228  -16.8259 C   0  0  0  0  0  0  0  0  0  0  0  0
   27.8486  -22.7085  -16.2349 O   0  0  0  0  0  0  0  0  0  0  0  0
   27.4626  -20.3924  -16.0948 N   0  0  0  0  0  0  0  0  0  0  0  0
   27.3801  -19.1138  -16.7598 C   0  0  0  0  0  0  0  0  0  0  0  0
   27.5952  -18.0367  -15.7361 C   0  0  0  0  0  0  0  0  0  0  0  0
   27.8385  -18.7652  -14.4603 C   0  0  0  0  0  0  0  0  0  0  0  0
   27.3578  -20.1920  -14.6991 C   0  0  1  0  0  0  0  0  0  0  0  0
   26.0719  -20.3516  -14.0493 C   0  0  0  0  0  0  0  0  0  0  0  0
   25.0613  -20.3554  -14.8683 O   0  0  0  0  0  0  0  0  0  0  0  0
   25.7315  -20.5006  -12.7039 N   0  0  0  0  0  0  0  0  0  0  0  0
   26.5226  -20.1280  -11.5607 C   0  0  0  0  0  0  0  0  0  0  0  0
   25.9182  -20.8331  -10.3618 C   0  0  0  0  0  0  0  0  0  0  0  0
   24.9425  -21.8104  -10.9517 C   0  0  0  0  0  0  0  0  0  0  0  0
   24.4948  -21.0552  -12.2065 C   0  0  1  0  0  0  0  0  0  0  0  0
   23.5328  -20.0290  -11.7755 C   0  0  0  0  0  0  0  0  0  0  0  0
   23.7957  -18.8178  -11.6409 O   0  0  0  0  0  0  0  0  0  0  0  0
   22.2358  -20.4413  -11.4983 O   0  0  0  0  0  0  0  0  0  0  0  0
  1  2  1  0
  3  2  1  0
  3  4  2  0
  5  3  1  0
  6  5  1  0
  7  8  1  0
  7  6  1  0
  8  9  1  0
  9  5  1  0
  9 10  1  6
 10 11  2  0
 12 10  1  0
 12 16  1  0
 13 12  1  0
 14 13  1  0
 14 15  1  0
 15 16  1  0
 16 17  1  1
 17 19  1  0
 18 17  2  0
M  END
$$$$
