GPP.pdb
     RDKit          3D

 19 20  0  0  1  0  0  0  0  0999 V2000
   28.3436  -23.3370  -18.1353 N   0  0  0  0  0  0  0  0  0  0  0  0
   27.8828  -22.0624  -17.6905 C   0  0  0  0  0  0  0  0  0  0  0  0
   27.7594  -21.9534  -16.2278 C   0  0  0  0  0  0  0  0  0  0  0  0
   27.8646  -22.9928  -15.5349 O   0  0  0  0  0  0  0  0  0  0  0  0
   27.5221  -20.6672  -15.6203 N   0  0  0  0  0  0  0  0  0  0  0  0
   27.5545  -19.4434  -16.3851 C   0  0  0  0  0  0  0  0  0  0  0  0
   27.6660  -18.2928  -15.4269 C   0  0  0  0  0  0  0  0  0  0  0  0
   27.7300  -18.9230  -14.0791 C   0  0  0  0  0  0  0  0  0  0  0  0
   27.2484  -20.3569  -14.2682 C   0  0  1  0  0  0  0  0  0  0  0  0
   25.8878  -20.4466  -13.7763 C   0  0  0  0  0  0  0  0  0  0  0  0
   24.9869  -20.4845  -14.7138 O   0  0  0  0  0  0  0  0  0  0  0  0
   25.3790  -20.4983  -12.4775 N   0  0  0  0  0  0  0  0  0  0  0  0
   26.0067  -20.0095  -11.2781 C   0  0  0  0  0  0  0  0  0  0  0  0
   25.2676  -20.6356  -10.1112 C   0  0  0  0  0  0  0  0  0  0  0  0
   24.3986  -21.6886  -10.7368 C   0  0  0  0  0  0  0  0  0  0  0  0
   24.1009  -21.0515  -12.0972 C   0  0  1  0  0  0  0  0  0  0  0  0
   23.0686  -20.0261  -11.8799 C   0  0  0  0  0  0  0  0  0  0  0  0
   23.2793  -18.7977  -11.8520 O   0  0  0  0  0  0  0  0  0  0  0  0
   21.7626  -20.4600  -11.6918 O   0  0  0  0  0  0  0  0  0  0  0  0
  1  2  1  0
  3  2  1  0
  3  4  2  0
  5  3  1  0
  6  5  1  0
  7  8  1  0
  7  6  1  0
  8  9  1  0
  9  5  1  0
  9 10  1  6
 10 11  2  0
 12 10  1  0
 12 16  1  0
 13 12  1  0
 14 13  1  0
 14 15  1  0
 15 16  1  0
 16 17  1  1
 17 19  1  0
 18 17  2  0
M  END
$$$$
