GPP.pdb
     RDKit          3D

 19 20  0  0  1  0  0  0  0  0999 V2000
   15.0950  -11.7703  -15.1603 N   0  0  0  0  0  0  0  0  0  0  0  0
   15.8822  -10.5865  -15.0441 C   0  0  0  0  0  0  0  0  0  0  0  0
   16.0851  -10.1427  -13.6555 C   0  0  0  0  0  0  0  0  0  0  0  0
   15.4753  -10.7392  -12.7368 O   0  0  0  0  0  0  0  0  0  0  0  0
   16.9722   -9.0408  -13.3753 N   0  0  0  0  0  0  0  0  0  0  0  0
   17.8051   -8.4518  -14.3966 C   0  0  0  0  0  0  0  0  0  0  0  0
   18.8650   -7.6292  -13.7226 C   0  0  0  0  0  0  0  0  0  0  0  0
   18.6162   -7.8057  -12.2650 C   0  0  0  0  0  0  0  0  0  0  0  0
   17.2064   -8.3741  -12.1506 C   0  0  1  0  0  0  0  0  0  0  0  0
   16.3187   -7.3046  -11.7386 C   0  0  0  0  0  0  0  0  0  0  0  0
   15.8076   -6.6302  -12.7265 O   0  0  0  0  0  0  0  0  0  0  0  0
   15.9198   -6.8746  -10.4721 N   0  0  0  0  0  0  0  0  0  0  0  0
   16.4884   -7.2553   -9.2059 C   0  0  0  0  0  0  0  0  0  0  0  0
   15.4895   -6.8515   -8.1386 C   0  0  0  0  0  0  0  0  0  0  0  0
   14.2481   -6.4891   -8.9021 C   0  0  0  0  0  0  0  0  0  0  0  0
   14.8517   -5.9425  -10.1990 C   0  0  1  0  0  0  0  0  0  0  0  0
   15.3309   -4.5809   -9.9147 C   0  0  0  0  0  0  0  0  0  0  0  0
   14.5958   -3.5926   -9.7223 O   0  0  0  0  0  0  0  0  0  0  0  0
   16.7045   -4.3831   -9.8568 O   0  0  0  0  0  0  0  0  0  0  0  0
  1  2  1  0
  3  2  1  0
  3  4  2  0
  5  3  1  0
  6  5  1  0
  7  8  1  0
  7  6  1  0
  8  9  1  0
  9  5  1  0
  9 10  1  6
 10 11  2  0
 12 10  1  0
 12 16  1  0
 13 12  1  0
 14 13  1  0
 14 15  1  0
 15 16  1  0
 16 17  1  1
 17 19  1  0
 18 17  2  0
M  END
$$$$
