GPP.pdb
     RDKit          3D

 19 20  0  0  1  0  0  0  0  0999 V2000
   24.5970  -23.0491  -17.0093 N   0  0  0  0  0  0  0  0  0  0  0  0
   25.0257  -21.8602  -16.3480 C   0  0  0  0  0  0  0  0  0  0  0  0
   25.6178  -22.0996  -15.0218 C   0  0  0  0  0  0  0  0  0  0  0  0
   25.3751  -23.1831  -14.4400 O   0  0  0  0  0  0  0  0  0  0  0  0
   26.4589  -21.0955  -14.4182 N   0  0  0  0  0  0  0  0  0  0  0  0
   26.8712  -19.9125  -15.1353 C   0  0  0  0  0  0  0  0  0  0  0  0
   28.0235  -19.2936  -14.3982 C   0  0  0  0  0  0  0  0  0  0  0  0
   28.2702  -20.2011  -13.2436 C   0  0  0  0  0  0  0  0  0  0  0  0
   27.0206  -21.0656  -13.1210 C   0  0  1  0  0  0  0  0  0  0  0  0
   26.2313  -20.5665  -12.0123 C   0  0  0  0  0  0  0  0  0  0  0  0
   25.1910  -19.8736  -12.3722 O   0  0  0  0  0  0  0  0  0  0  0  0
   26.3934  -20.6992  -10.6324 N   0  0  0  0  0  0  0  0  0  0  0  0
   27.6291  -20.6653   -9.8951 C   0  0  0  0  0  0  0  0  0  0  0  0
   27.3347  -21.2362   -8.5213 C   0  0  0  0  0  0  0  0  0  0  0  0
   25.9599  -21.8275   -8.6456 C   0  0  0  0  0  0  0  0  0  0  0  0
   25.3287  -20.8861   -9.6754 C   0  0  1  0  0  0  0  0  0  0  0  0
   24.9643  -19.6493   -8.9669 C   0  0  0  0  0  0  0  0  0  0  0  0
   25.6287  -18.5946   -8.9870 O   0  0  0  0  0  0  0  0  0  0  0  0
   23.7930  -19.6586   -8.2205 O   0  0  0  0  0  0  0  0  0  0  0  0
  1  2  1  0
  3  2  1  0
  3  4  2  0
  5  3  1  0
  6  5  1  0
  7  8  1  0
  7  6  1  0
  8  9  1  0
  9  5  1  0
  9 10  1  1
 10 11  2  0
 12 10  1  0
 12 16  1  0
 13 12  1  0
 14 13  1  0
 14 15  1  0
 15 16  1  0
 16 17  1  1
 17 19  1  0
 18 17  2  0
M  END
$$$$
