GPP.pdb
     RDKit          3D

 19 20  0  0  1  0  0  0  0  0999 V2000
   28.7314  -22.1337  -17.8337 N   0  0  0  0  0  0  0  0  0  0  0  0
   28.0586  -20.9450  -17.4225 C   0  0  0  0  0  0  0  0  0  0  0  0
   27.8913  -20.8320  -15.9645 C   0  0  0  0  0  0  0  0  0  0  0  0
   28.2737  -21.7798  -15.2386 O   0  0  0  0  0  0  0  0  0  0  0  0
   27.2966  -19.6462  -15.3989 N   0  0  0  0  0  0  0  0  0  0  0  0
   26.9903  -18.4872  -16.2030 C   0  0  0  0  0  0  0  0  0  0  0  0
   26.7653  -17.3224  -15.2827 C   0  0  0  0  0  0  0  0  0  0  0  0
   26.9921  -17.8667  -13.9152 C   0  0  0  0  0  0  0  0  0  0  0  0
   26.9348  -19.3833  -14.0576 C   0  0  1  0  0  0  0  0  0  0  0  0
   25.6501  -19.8367  -13.5624 C   0  0  0  0  0  0  0  0  0  0  0  0
   24.7733  -20.0652  -14.4958 O   0  0  0  0  0  0  0  0  0  0  0  0
   25.1925  -20.0688  -12.2644 N   0  0  0  0  0  0  0  0  0  0  0  0
   25.6737  -19.4614  -11.0516 C   0  0  0  0  0  0  0  0  0  0  0  0
   25.1538  -20.3050   -9.9036 C   0  0  0  0  0  0  0  0  0  0  0  0
   24.6057  -21.5391  -10.5608 C   0  0  0  0  0  0  0  0  0  0  0  0
   24.1247  -20.9689  -11.8982 C   0  0  1  0  0  0  0  0  0  0  0  0
   22.8499  -20.2803  -11.6433 C   0  0  0  0  0  0  0  0  0  0  0  0
   21.7644  -20.8509  -11.4192 O   0  0  0  0  0  0  0  0  0  0  0  0
   22.8575  -18.8914  -11.6533 O   0  0  0  0  0  0  0  0  0  0  0  0
  1  2  1  0
  3  2  1  0
  3  4  2  0
  5  3  1  0
  6  5  1  0
  7  8  1  0
  7  6  1  0
  8  9  1  0
  9  5  1  0
  9 10  1  6
 10 11  2  0
 12 10  1  0
 12 16  1  0
 13 12  1  0
 14 13  1  0
 14 15  1  0
 15 16  1  0
 16 17  1  1
 17 19  1  0
 18 17  2  0
M  END
$$$$
