GPP.pdb
     RDKit          3D

 19 20  0  0  1  0  0  0  0  0999 V2000
   24.3655  -20.8526  -11.9258 N   0  0  0  0  0  0  0  0  0  0  0  0
   25.5908  -20.2649  -11.4923 C   0  0  0  0  0  0  0  0  0  0  0  0
   25.9778  -20.6417  -10.1230 C   0  0  0  0  0  0  0  0  0  0  0  0
   25.0777  -20.8075   -9.2663 O   0  0  0  0  0  0  0  0  0  0  0  0
   27.3707  -20.8125   -9.7909 N   0  0  0  0  0  0  0  0  0  0  0  0
   28.4163  -20.6417  -10.7713 C   0  0  0  0  0  0  0  0  0  0  0  0
   29.6729  -21.2611  -10.2313 C   0  0  0  0  0  0  0  0  0  0  0  0
   29.2837  -21.8238   -8.9086 C   0  0  0  0  0  0  0  0  0  0  0  0
   27.9550  -21.1667   -8.5530 C   0  0  1  0  0  0  0  0  0  0  0  0
   28.2086  -20.1387   -7.5629 C   0  0  0  0  0  0  0  0  0  0  0  0
   28.1850  -18.9280   -8.0381 O   0  0  0  0  0  0  0  0  0  0  0  0
   28.4731  -20.2220   -6.1949 N   0  0  0  0  0  0  0  0  0  0  0  0
   28.7197  -21.4151   -5.4285 C   0  0  0  0  0  0  0  0  0  0  0  0
   28.5604  -21.0377   -3.9683 C   0  0  0  0  0  0  0  0  0  0  0  0
   27.9522  -19.6650   -3.9980 C   0  0  0  0  0  0  0  0  0  0  0  0
   28.5605  -19.1035   -5.2864 C   0  0  1  0  0  0  0  0  0  0  0  0
   29.9459  -18.7152   -4.9790 C   0  0  0  0  0  0  0  0  0  0  0  0
   30.9606  -19.2464   -5.4713 O   0  0  0  0  0  0  0  0  0  0  0  0
   30.1361  -17.6798   -4.0730 O   0  0  0  0  0  0  0  0  0  0  0  0
  1  2  1  0
  3  2  1  0
  3  4  2  0
  5  3  1  0
  6  5  1  0
  7  8  1  0
  7  6  1  0
  8  9  1  0
  9  5  1  0
  9 10  1  1
 10 11  2  0
 12 10  1  0
 12 16  1  0
 13 12  1  0
 14 13  1  0
 14 15  1  0
 15 16  1  0
 16 17  1  1
 17 19  1  0
 18 17  2  0
M  END
$$$$
