GPP.pdb
     RDKit          3D

 19 20  0  0  1  0  0  0  0  0999 V2000
   24.0105  -21.2717  -11.5439 N   0  0  0  0  0  0  0  0  0  0  0  0
   25.1158  -20.4863  -11.1010 C   0  0  0  0  0  0  0  0  0  0  0  0
   25.7161  -20.9621   -9.8441 C   0  0  0  0  0  0  0  0  0  0  0  0
   24.9659  -21.4402   -8.9609 O   0  0  0  0  0  0  0  0  0  0  0  0
   27.1422  -20.8725   -9.6495 N   0  0  0  0  0  0  0  0  0  0  0  0
   28.0282  -20.4131  -10.6924 C   0  0  0  0  0  0  0  0  0  0  0  0
   29.4301  -20.8058  -10.3253 C   0  0  0  0  0  0  0  0  0  0  0  0
   29.2959  -21.5420   -9.0378 C   0  0  0  0  0  0  0  0  0  0  0  0
   27.9083  -21.2002   -8.5072 C   0  0  1  0  0  0  0  0  0  0  0  0
   28.0570  -20.2265   -7.4436 C   0  0  0  0  0  0  0  0  0  0  0  0
   27.6415  -19.0339   -7.7553 O   0  0  0  0  0  0  0  0  0  0  0  0
   28.5669  -20.3457   -6.1498 N   0  0  0  0  0  0  0  0  0  0  0  0
   29.3762  -21.4162   -5.6297 C   0  0  0  0  0  0  0  0  0  0  0  0
   29.3423  -21.2958   -4.1183 C   0  0  0  0  0  0  0  0  0  0  0  0
   28.2644  -20.2866   -3.8448 C   0  0  0  0  0  0  0  0  0  0  0  0
   28.3808  -19.3919   -5.0821 C   0  0  1  0  0  0  0  0  0  0  0  0
   29.5464  -18.5179   -4.8778 C   0  0  0  0  0  0  0  0  0  0  0  0
   30.5826  -18.5387   -5.5706 O   0  0  0  0  0  0  0  0  0  0  0  0
   29.4869  -17.6021   -3.8352 O   0  0  0  0  0  0  0  0  0  0  0  0
  1  2  1  0
  3  2  1  0
  3  4  2  0
  5  3  1  0
  6  5  1  0
  7  8  1  0
  7  6  1  0
  8  9  1  0
  9  5  1  0
  9 10  1  1
 10 11  2  0
 12 10  1  0
 12 16  1  0
 13 12  1  0
 14 13  1  0
 14 15  1  0
 15 16  1  0
 16 17  1  1
 17 19  1  0
 18 17  2  0
M  END
$$$$
