GPP.pdb
     RDKit          3D

 19 20  0  0  1  0  0  0  0  0999 V2000
   24.1156  -21.6236  -12.0401 N   0  0  0  0  0  0  0  0  0  0  0  0
   24.8679  -20.6014  -11.3890 C   0  0  0  0  0  0  0  0  0  0  0  0
   25.5441  -21.0527  -10.1619 C   0  0  0  0  0  0  0  0  0  0  0  0
   24.8726  -21.6521   -9.2893 O   0  0  0  0  0  0  0  0  0  0  0  0
   26.9529  -20.8015   -9.9835 N   0  0  0  0  0  0  0  0  0  0  0  0
   27.7569  -20.1917  -11.0157 C   0  0  0  0  0  0  0  0  0  0  0  0
   29.2026  -20.4297  -10.6879 C   0  0  0  0  0  0  0  0  0  0  0  0
   29.1828  -21.2351   -9.4354 C   0  0  0  0  0  0  0  0  0  0  0  0
   27.7752  -21.0871   -8.8693 C   0  0  1  0  0  0  0  0  0  0  0  0
   27.8279  -20.1525   -7.7625 C   0  0  0  0  0  0  0  0  0  0  0  0
   27.2680  -19.0050   -8.0109 O   0  0  0  0  0  0  0  0  0  0  0  0
   28.3731  -20.2694   -6.4829 N   0  0  0  0  0  0  0  0  0  0  0  0
   29.3865  -21.1958   -6.0512 C   0  0  0  0  0  0  0  0  0  0  0  0
   29.3551  -21.2032   -4.5350 C   0  0  0  0  0  0  0  0  0  0  0  0
   28.1040  -20.4522   -4.1802 C   0  0  0  0  0  0  0  0  0  0  0  0
   28.0205  -19.4580   -5.3420 C   0  0  1  0  0  0  0  0  0  0  0  0
   28.9941  -18.3892   -5.0696 C   0  0  0  0  0  0  0  0  0  0  0  0
   30.0481  -18.2056   -5.7093 O   0  0  0  0  0  0  0  0  0  0  0  0
   28.7171  -17.5208   -4.0215 O   0  0  0  0  0  0  0  0  0  0  0  0
  1  2  1  0
  3  2  1  0
  3  4  2  0
  5  3  1  0
  6  5  1  0
  7  8  1  0
  7  6  1  0
  8  9  1  0
  9  5  1  0
  9 10  1  1
 10 11  2  0
 12 10  1  0
 12 16  1  0
 13 12  1  0
 14 13  1  0
 14 15  1  0
 15 16  1  0
 16 17  1  1
 17 19  1  0
 18 17  2  0
M  END
$$$$
