TWD.pdb
     RDKit          3D

 30 31  0  0  1  0  0  0  0  0999 V2000
   27.7467  -18.5402  -14.2346 C   0  0  0  0  0  0  0  0  0  0  0  0
   27.5679  -19.6902  -15.1875 C   0  0  1  0  0  0  0  0  0  0  0  0
   28.2315  -19.4271  -16.3555 O   0  0  0  0  0  0  0  0  0  0  0  0
   27.9361  -21.0236  -14.5646 C   0  0  2  0  0  0  0  0  0  0  0  0
   27.6729  -22.1026  -15.4974 N   0  0  0  0  0  0  0  0  0  0  0  0
   27.2534  -21.2099  -13.2551 C   0  0  0  0  0  0  0  0  0  0  0  0
   26.0498  -21.6006  -13.3282 O   0  0  0  0  0  0  0  0  0  0  0  0
   27.8558  -20.9844  -11.9984 N   0  0  0  0  0  0  0  0  0  0  0  0
   27.0539  -20.9815  -10.7972 C   0  0  1  0  0  0  0  0  0  0  0  0
   27.8645  -20.8084   -9.5637 C   0  0  0  0  0  0  0  0  0  0  0  0
   27.1287  -20.6790   -8.2920 C   0  0  0  0  0  0  0  0  0  0  0  0
   25.7803  -21.0567   -8.1182 C   0  0  0  0  0  0  0  0  0  0  0  0
   25.4411  -20.8596   -6.8499 N   0  0  0  0  0  0  0  0  0  0  0  0
   26.4640  -20.3702   -6.1356 C   0  0  0  0  0  0  0  0  0  0  0  0
   26.5538  -20.0079   -4.8124 C   0  0  0  0  0  0  0  0  0  0  0  0
   27.7740  -19.5013   -4.3778 C   0  0  0  0  0  0  0  0  0  0  0  0
   28.8481  -19.3753   -5.2652 C   0  0  0  0  0  0  0  0  0  0  0  0
   28.7134  -19.7513   -6.5803 C   0  0  0  0  0  0  0  0  0  0  0  0
   27.5159  -20.2589   -7.0436 C   0  0  0  0  0  0  0  0  0  0  0  0
   25.8538  -20.1853  -10.8434 C   0  0  0  0  0  0  0  0  0  0  0  0
   25.9311  -18.9580  -11.0997 O   0  0  0  0  0  0  0  0  0  0  0  0
   24.5353  -20.6819  -10.6112 N   0  0  0  0  0  0  0  0  0  0  0  0
   23.3620  -20.0425  -11.1700 C   0  0  1  0  0  0  0  0  0  0  0  0
   23.3540  -20.0087  -12.6564 C   0  0  0  0  0  0  0  0  0  0  0  0
   22.1249  -19.3811  -13.1704 C   0  0  0  0  0  0  0  0  0  0  0  0
   21.5628  -18.5011  -12.4901 O   0  0  0  0  0  0  0  0  0  0  0  0
   22.1262  -20.8114  -10.6914 C   0  0  0  0  0  0  0  0  0  0  0  0
   20.8563  -20.3303  -10.9483 O   0  0  0  0  0  0  0  0  0  0  0  0
   21.5615  -19.7287  -14.3885 O   0  0  0  0  0  0  0  0  0  0  0  0
   22.2521  -21.8847  -10.0618 O   0  0  0  0  0  0  0  0  0  0  0  0
  2  1  1  1
  2  3  1  0
  4  2  1  0
  4  5  1  6
  6  7  2  0
  6  4  1  0
  8  6  1  0
  9  8  1  0
  9 10  1  1
 10 11  1  0
 11 12  2  0
 11 19  1  0
 12 13  1  0
 13 14  1  0
 14 15  2  0
 15 16  1  0
 17 16  2  0
 18 17  1  0
 19 18  2  0
 19 14  1  0
 20 21  2  0
 20  9  1  0
 22 20  1  0
 23 24  1  6
 23 22  1  0
 25 29  1  0
 25 24  1  0
 26 25  2  0
 27 23  1  0
 28 27  1  0
 30 27  2  0
M  END
$$$$
