TWD.pdb
     RDKit          3D

 30 31  0  0  1  0  0  0  0  0999 V2000
   29.2141  -21.4809  -18.8923 C   0  0  0  0  0  0  0  0  0  0  0  0
   28.3072  -21.4789  -17.6922 C   0  0  1  0  0  0  0  0  0  0  0  0
   27.0098  -21.6440  -18.0959 O   0  0  0  0  0  0  0  0  0  0  0  0
   28.7459  -22.4701  -16.6307 C   0  0  2  0  0  0  0  0  0  0  0  0
   28.6807  -23.8227  -17.1502 N   0  0  0  0  0  0  0  0  0  0  0  0
   27.9644  -22.2926  -15.3763 C   0  0  0  0  0  0  0  0  0  0  0  0
   27.0438  -23.1442  -15.1925 O   0  0  0  0  0  0  0  0  0  0  0  0
   28.1918  -21.2712  -14.4286 N   0  0  0  0  0  0  0  0  0  0  0  0
   27.3405  -21.1529  -13.2680 C   0  0  1  0  0  0  0  0  0  0  0  0
   27.9660  -20.3678  -12.1722 C   0  0  0  0  0  0  0  0  0  0  0  0
   27.2083  -20.2565  -10.9117 C   0  0  0  0  0  0  0  0  0  0  0  0
   25.8174  -20.0287  -10.8443 C   0  0  0  0  0  0  0  0  0  0  0  0
   25.4445  -20.0339   -9.5701 N   0  0  0  0  0  0  0  0  0  0  0  0
   26.4841  -20.2490   -8.7524 C   0  0  0  0  0  0  0  0  0  0  0  0
   26.5597  -20.3162   -7.3813 C   0  0  0  0  0  0  0  0  0  0  0  0
   27.8173  -20.5324   -6.8279 C   0  0  0  0  0  0  0  0  0  0  0  0
   28.9410  -20.6722   -7.6494 C   0  0  0  0  0  0  0  0  0  0  0  0
   28.8183  -20.5990   -9.0164 C   0  0  0  0  0  0  0  0  0  0  0  0
   27.5841  -20.3866   -9.5977 C   0  0  0  0  0  0  0  0  0  0  0  0
   25.9617  -20.8256  -13.5294 C   0  0  0  0  0  0  0  0  0  0  0  0
   25.6786  -19.7579  -14.1276 O   0  0  0  0  0  0  0  0  0  0  0  0
   24.8456  -21.6324  -13.1523 N   0  0  0  0  0  0  0  0  0  0  0  0
   23.4937  -21.3191  -13.5671 C   0  0  1  0  0  0  0  0  0  0  0  0
   22.7269  -22.5024  -14.0387 C   0  0  0  0  0  0  0  0  0  0  0  0
   23.0850  -22.8546  -15.4230 C   0  0  0  0  0  0  0  0  0  0  0  0
   23.1115  -21.9592  -16.2895 O   0  0  0  0  0  0  0  0  0  0  0  0
   22.7585  -20.7041  -12.3718 C   0  0  0  0  0  0  0  0  0  0  0  0
   21.7062  -19.8299  -12.5683 O   0  0  0  0  0  0  0  0  0  0  0  0
   23.3972  -24.1494  -15.8077 O   0  0  0  0  0  0  0  0  0  0  0  0
   23.1022  -20.9862  -11.2029 O   0  0  0  0  0  0  0  0  0  0  0  0
  2  1  1  6
  2  3  1  0
  4  2  1  0
  4  5  1  6
  6  7  2  0
  6  4  1  0
  8  6  1  0
  9  8  1  0
  9 10  1  1
 10 11  1  0
 11 12  2  0
 11 19  1  0
 12 13  1  0
 13 14  1  0
 14 15  2  0
 15 16  1  0
 17 16  2  0
 18 17  1  0
 19 18  2  0
 19 14  1  0
 20 21  2  0
 20  9  1  0
 22 20  1  0
 23 24  1  1
 23 22  1  0
 25 29  1  0
 25 24  1  0
 26 25  2  0
 27 23  1  0
 28 27  1  0
 30 27  2  0
M  END
$$$$
