TWD.pdb
     RDKit          3D

 30 31  0  0  1  0  0  0  0  0999 V2000
   18.1924   -8.0397  -16.5322 C   0  0  0  0  0  0  0  0  0  0  0  0
   17.4894   -9.2162  -15.9124 C   0  0  1  0  0  0  0  0  0  0  0  0
   17.9887  -10.3783  -16.4357 O   0  0  0  0  0  0  0  0  0  0  0  0
   17.5101   -9.1725  -14.3961 C   0  0  2  0  0  0  0  0  0  0  0  0
   17.2589  -10.4936  -13.8529 N   0  0  0  0  0  0  0  0  0  0  0  0
   16.5681   -8.1435  -13.8768 C   0  0  0  0  0  0  0  0  0  0  0  0
   16.8297   -6.9527  -14.2236 O   0  0  0  0  0  0  0  0  0  0  0  0
   15.4515   -8.4198  -13.0583 N   0  0  0  0  0  0  0  0  0  0  0  0
   14.5949   -7.3470  -12.6098 C   0  0  1  0  0  0  0  0  0  0  0  0
   13.1801   -7.7705  -12.4439 C   0  0  0  0  0  0  0  0  0  0  0  0
   12.8692   -8.6264  -11.2838 C   0  0  0  0  0  0  0  0  0  0  0  0
   13.4255   -9.9064  -11.0756 C   0  0  0  0  0  0  0  0  0  0  0  0
   12.9804  -10.3832   -9.9192 N   0  0  0  0  0  0  0  0  0  0  0  0
   12.1533   -9.5193   -9.3147 C   0  0  0  0  0  0  0  0  0  0  0  0
   11.4608   -9.6057   -8.1301 C   0  0  0  0  0  0  0  0  0  0  0  0
   10.6523   -8.5260   -7.7910 C   0  0  0  0  0  0  0  0  0  0  0  0
   10.5633   -7.4124   -8.6331 C   0  0  0  0  0  0  0  0  0  0  0  0
   11.2749   -7.3686   -9.8081 C   0  0  0  0  0  0  0  0  0  0  0  0
   12.0876   -8.4232  -10.1736 C   0  0  0  0  0  0  0  0  0  0  0  0
   15.1095   -6.5384  -11.5339 C   0  0  0  0  0  0  0  0  0  0  0  0
   16.0626   -6.9654  -10.8359 O   0  0  0  0  0  0  0  0  0  0  0  0
   14.6132   -5.2493  -11.1721 N   0  0  0  0  0  0  0  0  0  0  0  0
   15.2708   -4.4208  -10.1827 C   0  0  1  0  0  0  0  0  0  0  0  0
   16.6765   -4.0827  -10.5294 C   0  0  0  0  0  0  0  0  0  0  0  0
   17.1966   -3.0087   -9.6663 C   0  0  0  0  0  0  0  0  0  0  0  0
   16.8870   -2.9969   -8.4591 O   0  0  0  0  0  0  0  0  0  0  0  0
   14.4742   -3.1193  -10.0450 C   0  0  0  0  0  0  0  0  0  0  0  0
   14.5650   -2.3582   -8.8949 O   0  0  0  0  0  0  0  0  0  0  0  0
   18.0229   -2.0022  -10.1418 O   0  0  0  0  0  0  0  0  0  0  0  0
   13.7314   -2.7296  -10.9727 O   0  0  0  0  0  0  0  0  0  0  0  0
  2  1  1  6
  2  3  1  0
  4  2  1  0
  4  5  1  1
  6  7  2  0
  6  4  1  0
  8  6  1  0
  9  8  1  0
  9 10  1  1
 10 11  1  0
 11 12  2  0
 11 19  1  0
 12 13  1  0
 13 14  1  0
 14 15  2  0
 15 16  1  0
 17 16  2  0
 18 17  1  0
 19 18  2  0
 19 14  1  0
 20 21  2  0
 20  9  1  0
 22 20  1  0
 23 24  1  6
 23 22  1  0
 25 29  1  0
 25 24  1  0
 26 25  2  0
 27 23  1  0
 28 27  1  0
 30 27  2  0
M  END
$$$$
