TWD.pdb
     RDKit          3D

 30 31  0  0  1  0  0  0  0  0999 V2000
   14.3760  -19.9197    5.1136 C   0  0  0  0  0  0  0  0  0  0  0  0
   15.0300  -20.0879    3.7695 C   0  0  1  0  0  0  0  0  0  0  0  0
   14.0995  -20.4987    2.8534 O   0  0  0  0  0  0  0  0  0  0  0  0
   15.8036  -18.8550    3.3413 C   0  0  2  0  0  0  0  0  0  0  0  0
   16.2532  -18.9964    1.9698 N   0  0  0  0  0  0  0  0  0  0  0  0
   16.9144  -18.5638    4.2885 C   0  0  0  0  0  0  0  0  0  0  0  0
   18.0393  -19.0475    3.9613 O   0  0  0  0  0  0  0  0  0  0  0  0
   16.7790  -17.8096    5.4743 N   0  0  0  0  0  0  0  0  0  0  0  0
   17.9327  -17.5386    6.2998 C   0  0  1  0  0  0  0  0  0  0  0  0
   17.9332  -16.1598    6.8544 C   0  0  0  0  0  0  0  0  0  0  0  0
   18.1102  -15.0529    5.8959 C   0  0  0  0  0  0  0  0  0  0  0  0
   17.2310  -14.7883    4.8245 C   0  0  0  0  0  0  0  0  0  0  0  0
   17.6461  -13.6986    4.1897 N   0  0  0  0  0  0  0  0  0  0  0  0
   18.7537  -13.1930    4.7497 C   0  0  0  0  0  0  0  0  0  0  0  0
   19.5213  -12.1025    4.4152 C   0  0  0  0  0  0  0  0  0  0  0  0
   20.6441  -11.8564    5.1984 C   0  0  0  0  0  0  0  0  0  0  0  0
   20.9584  -12.6944    6.2736 C   0  0  0  0  0  0  0  0  0  0  0  0
   20.1613  -13.7734    6.5725 C   0  0  0  0  0  0  0  0  0  0  0  0
   19.0389  -14.0450    5.8156 C   0  0  0  0  0  0  0  0  0  0  0  0
   18.2850  -18.5664    7.2462 C   0  0  0  0  0  0  0  0  0  0  0  0
   17.4251  -18.9813    8.0625 O   0  0  0  0  0  0  0  0  0  0  0  0
   19.5722  -19.1761    7.3477 N   0  0  0  0  0  0  0  0  0  0  0  0
   19.8599  -20.2105    8.3198 C   0  0  1  0  0  0  0  0  0  0  0  0
   20.6393  -21.3484    7.7646 C   0  0  0  0  0  0  0  0  0  0  0  0
   19.7697  -22.5006    7.4732 C   0  0  0  0  0  0  0  0  0  0  0  0
   18.5597  -22.4366    7.7650 O   0  0  0  0  0  0  0  0  0  0  0  0
   20.6611  -19.5805    9.4637 C   0  0  0  0  0  0  0  0  0  0  0  0
   20.7527  -20.2132   10.6891 O   0  0  0  0  0  0  0  0  0  0  0  0
   20.2419  -23.6628    6.8831 O   0  0  0  0  0  0  0  0  0  0  0  0
   21.2423  -18.4850    9.3022 O   0  0  0  0  0  0  0  0  0  0  0  0
  2  1  1  1
  2  3  1  0
  4  2  1  0
  4  5  1  6
  6  7  2  0
  6  4  1  0
  8  6  1  0
  9  8  1  0
  9 10  1  1
 10 11  1  0
 11 12  2  0
 11 19  1  0
 12 13  1  0
 13 14  1  0
 14 15  2  0
 15 16  1  0
 17 16  2  0
 18 17  1  0
 19 18  2  0
 19 14  1  0
 20 21  2  0
 20  9  1  0
 22 20  1  0
 23 24  1  6
 23 22  1  0
 25 29  1  0
 25 24  1  0
 26 25  2  0
 27 23  1  0
 28 27  1  0
 30 27  2  0
M  END
$$$$
