TWD.pdb
     RDKit          3D

 30 31  0  0  1  0  0  0  0  0999 V2000
   26.0250  -23.1294  -13.2677 C   0  0  0  0  0  0  0  0  0  0  0  0
   24.8771  -22.3221  -13.8090 C   0  0  1  0  0  0  0  0  0  0  0  0
   23.7840  -23.1296  -13.9732 O   0  0  0  0  0  0  0  0  0  0  0  0
   24.5989  -21.0808  -12.9824 C   0  0  2  0  0  0  0  0  0  0  0  0
   24.3031  -21.4476  -11.6107 N   0  0  0  0  0  0  0  0  0  0  0  0
   23.5305  -20.2515  -13.6040 C   0  0  0  0  0  0  0  0  0  0  0  0
   22.5237  -20.0320  -12.8659 O   0  0  0  0  0  0  0  0  0  0  0  0
   23.5855  -19.7232  -14.9120 N   0  0  0  0  0  0  0  0  0  0  0  0
   22.5058  -18.9048  -15.4122 C   0  0  1  0  0  0  0  0  0  0  0  0
   22.9048  -18.0740  -16.5780 C   0  0  0  0  0  0  0  0  0  0  0  0
   21.9058  -17.1186  -17.0924 C   0  0  0  0  0  0  0  0  0  0  0  0
   21.8295  -15.7665  -16.6962 C   0  0  0  0  0  0  0  0  0  0  0  0
   20.8587  -15.1743  -17.3813 N   0  0  0  0  0  0  0  0  0  0  0  0
   20.2582  -16.0263  -18.2235 C   0  0  0  0  0  0  0  0  0  0  0  0
   19.2113  -15.8501  -19.0971 C   0  0  0  0  0  0  0  0  0  0  0  0
   18.8019  -16.9626  -19.8248 C   0  0  0  0  0  0  0  0  0  0  0  0
   19.4417  -18.1955  -19.6587 C   0  0  0  0  0  0  0  0  0  0  0  0
   20.4855  -18.3254  -18.7741 C   0  0  0  0  0  0  0  0  0  0  0  0
   20.9173  -17.2406  -18.0372 C   0  0  0  0  0  0  0  0  0  0  0  0
   21.2306  -19.5612  -15.5514 C   0  0  0  0  0  0  0  0  0  0  0  0
   21.1879  -20.7989  -15.7616 O   0  0  0  0  0  0  0  0  0  0  0  0
   19.9633  -18.9078  -15.4737 N   0  0  0  0  0  0  0  0  0  0  0  0
   18.7416  -19.6291  -15.1825 C   0  0  1  0  0  0  0  0  0  0  0  0
   18.8422  -20.5133  -13.9914 C   0  0  0  0  0  0  0  0  0  0  0  0
   18.4869  -21.9029  -14.3255 C   0  0  0  0  0  0  0  0  0  0  0  0
   18.1846  -22.1860  -15.5010 O   0  0  0  0  0  0  0  0  0  0  0  0
   17.6292  -18.6041  -14.9385 C   0  0  0  0  0  0  0  0  0  0  0  0
   17.9224  -17.3620  -14.4078 O   0  0  0  0  0  0  0  0  0  0  0  0
   18.4744  -22.9184  -13.3818 O   0  0  0  0  0  0  0  0  0  0  0  0
   16.4415  -18.8794  -15.2169 O   0  0  0  0  0  0  0  0  0  0  0  0
  2  1  1  1
  2  3  1  0
  4  2  1  0
  4  5  1  1
  6  7  2  0
  6  4  1  0
  8  6  1  0
  9  8  1  0
  9 10  1  6
 10 11  1  0
 11 12  2  0
 11 19  1  0
 12 13  1  0
 13 14  1  0
 14 15  2  0
 15 16  1  0
 17 16  2  0
 18 17  1  0
 19 18  2  0
 19 14  1  0
 20 21  2  0
 20  9  1  0
 22 20  1  0
 23 24  1  1
 23 22  1  0
 25 29  1  0
 25 24  1  0
 26 25  2  0
 27 23  1  0
 28 27  1  0
 30 27  2  0
M  END
$$$$
