TWD.pdb
     RDKit          3D

 30 31  0  0  1  0  0  0  0  0999 V2000
   26.9237  -23.0508  -17.9542 C   0  0  0  0  0  0  0  0  0  0  0  0
   25.6793  -22.9387  -17.1167 C   0  0  1  0  0  0  0  0  0  0  0  0
   24.6471  -23.5892  -17.7373 O   0  0  0  0  0  0  0  0  0  0  0  0
   25.9027  -23.3793  -15.6823 C   0  0  2  0  0  0  0  0  0  0  0  0
   26.2218  -24.7933  -15.6360 N   0  0  0  0  0  0  0  0  0  0  0  0
   24.7410  -23.0189  -14.8241 C   0  0  0  0  0  0  0  0  0  0  0  0
   23.9929  -23.9888  -14.4984 O   0  0  0  0  0  0  0  0  0  0  0  0
   24.4503  -21.7116  -14.3773 N   0  0  0  0  0  0  0  0  0  0  0  0
   23.2594  -21.4560  -13.6012 C   0  0  1  0  0  0  0  0  0  0  0  0
   23.3882  -20.2633  -12.7241 C   0  0  0  0  0  0  0  0  0  0  0  0
   22.2836  -20.0027  -11.7822 C   0  0  0  0  0  0  0  0  0  0  0  0
   22.2641  -20.4520  -10.4447 C   0  0  0  0  0  0  0  0  0  0  0  0
   21.1587  -20.0063   -9.8599 N   0  0  0  0  0  0  0  0  0  0  0  0
   20.4124  -19.2802  -10.7035 C   0  0  0  0  0  0  0  0  0  0  0  0
   19.2017  -18.6519  -10.5310 C   0  0  0  0  0  0  0  0  0  0  0  0
   18.6717  -17.9888  -11.6328 C   0  0  0  0  0  0  0  0  0  0  0  0
   19.3577  -17.9748  -12.8519 C   0  0  0  0  0  0  0  0  0  0  0  0
   20.5668  -18.6159  -12.9785 C   0  0  0  0  0  0  0  0  0  0  0  0
   21.1212  -19.2825  -11.9039 C   0  0  0  0  0  0  0  0  0  0  0  0
   22.0114  -21.5433  -14.3162 C   0  0  0  0  0  0  0  0  0  0  0  0
   21.9913  -21.3538  -15.5578 O   0  0  0  0  0  0  0  0  0  0  0  0
   20.7469  -21.8320  -13.7188 N   0  0  0  0  0  0  0  0  0  0  0  0
   19.5728  -22.1363  -14.5103 C   0  0  1  0  0  0  0  0  0  0  0  0
   19.6535  -23.4423  -15.2164 C   0  0  0  0  0  0  0  0  0  0  0  0
   18.4325  -23.7046  -15.9969 C   0  0  0  0  0  0  0  0  0  0  0  0
   17.8066  -22.7439  -16.4853 O   0  0  0  0  0  0  0  0  0  0  0  0
   18.3598  -22.1600  -13.5746 C   0  0  0  0  0  0  0  0  0  0  0  0
   18.2981  -23.0594  -12.5270 O   0  0  0  0  0  0  0  0  0  0  0  0
   17.9452  -24.9841  -16.2145 O   0  0  0  0  0  0  0  0  0  0  0  0
   17.4101  -21.3650  -13.7479 O   0  0  0  0  0  0  0  0  0  0  0  0
  2  1  1  6
  2  3  1  0
  4  2  1  0
  4  5  1  6
  6  7  2  0
  6  4  1  0
  8  6  1  0
  9  8  1  0
  9 10  1  6
 10 11  1  0
 11 12  2  0
 11 19  1  0
 12 13  1  0
 13 14  1  0
 14 15  2  0
 15 16  1  0
 17 16  2  0
 18 17  1  0
 19 18  2  0
 19 14  1  0
 20 21  2  0
 20  9  1  0
 22 20  1  0
 23 24  1  1
 23 22  1  0
 25 29  1  0
 25 24  1  0
 26 25  2  0
 27 23  1  0
 28 27  1  0
 30 27  2  0
M  END
$$$$
