TWD.pdb
     RDKit          3D

 30 31  0  0  1  0  0  0  0  0999 V2000
   26.0308  -20.1191  -15.9196 C   0  0  0  0  0  0  0  0  0  0  0  0
   26.4795  -21.5317  -16.1759 C   0  0  1  0  0  0  0  0  0  0  0  0
   27.3589  -21.5517  -17.2248 O   0  0  0  0  0  0  0  0  0  0  0  0
   27.0071  -22.2098  -14.9255 C   0  0  2  0  0  0  0  0  0  0  0  0
   27.3804  -23.5804  -15.2179 N   0  0  0  0  0  0  0  0  0  0  0  0
   26.0329  -22.1006  -13.8053 C   0  0  0  0  0  0  0  0  0  0  0  0
   25.1172  -22.9769  -13.8031 O   0  0  0  0  0  0  0  0  0  0  0  0
   26.0812  -21.1158  -12.7949 N   0  0  0  0  0  0  0  0  0  0  0  0
   24.9877  -20.9765  -11.8618 C   0  0  1  0  0  0  0  0  0  0  0  0
   25.4062  -20.3738  -10.5695 C   0  0  0  0  0  0  0  0  0  0  0  0
   26.7005  -20.8121  -10.0145 C   0  0  0  0  0  0  0  0  0  0  0  0
   27.5898  -21.6831  -10.6789 C   0  0  0  0  0  0  0  0  0  0  0  0
   28.6782  -21.8330   -9.9336 N   0  0  0  0  0  0  0  0  0  0  0  0
   28.6005  -21.1251   -8.7984 C   0  0  0  0  0  0  0  0  0  0  0  0
   29.4762  -21.0017   -7.7457 C   0  0  0  0  0  0  0  0  0  0  0  0
   29.0799  -20.1927   -6.6860 C   0  0  0  0  0  0  0  0  0  0  0  0
   27.8410  -19.5434   -6.7120 C   0  0  0  0  0  0  0  0  0  0  0  0
   26.9973  -19.6947   -7.7864 C   0  0  0  0  0  0  0  0  0  0  0  0
   27.3609  -20.4897   -8.8550 C   0  0  0  0  0  0  0  0  0  0  0  0
   23.7623  -20.4455  -12.4029 C   0  0  0  0  0  0  0  0  0  0  0  0
   23.7940  -19.4129  -13.1174 O   0  0  0  0  0  0  0  0  0  0  0  0
   22.4658  -21.0045  -12.1891 N   0  0  0  0  0  0  0  0  0  0  0  0
   21.2840  -20.4802  -12.8420 C   0  0  1  0  0  0  0  0  0  0  0  0
   21.1042  -20.9742  -14.2328 C   0  0  0  0  0  0  0  0  0  0  0  0
   21.0310  -22.4446  -14.2727 C   0  0  0  0  0  0  0  0  0  0  0  0
   21.1040  -23.0849  -13.2060 O   0  0  0  0  0  0  0  0  0  0  0  0
   20.0610  -20.8901  -12.0152 C   0  0  0  0  0  0  0  0  0  0  0  0
   20.2102  -21.6420  -10.8652 O   0  0  0  0  0  0  0  0  0  0  0  0
   20.8825  -23.1535  -15.4548 O   0  0  0  0  0  0  0  0  0  0  0  0
   18.9117  -20.5487  -12.3714 O   0  0  0  0  0  0  0  0  0  0  0  0
  2  1  1  1
  2  3  1  0
  4  2  1  0
  4  5  1  6
  6  7  2  0
  6  4  1  0
  8  6  1  0
  9  8  1  0
  9 10  1  1
 10 11  1  0
 11 12  2  0
 11 19  1  0
 12 13  1  0
 13 14  1  0
 14 15  2  0
 15 16  1  0
 17 16  2  0
 18 17  1  0
 19 18  2  0
 19 14  1  0
 20 21  2  0
 20  9  1  0
 22 20  1  0
 23 24  1  6
 23 22  1  0
 25 29  1  0
 25 24  1  0
 26 25  2  0
 27 23  1  0
 28 27  1  0
 30 27  2  0
M  END
$$$$
