TWD.pdb
     RDKit          3D

 30 31  0  0  1  0  0  0  0  0999 V2000
   28.6546  -18.4539  -15.4613 C   0  0  0  0  0  0  0  0  0  0  0  0
   27.5465  -19.1554  -14.7248 C   0  0  1  0  0  0  0  0  0  0  0  0
   26.4274  -19.2000  -15.5118 O   0  0  0  0  0  0  0  0  0  0  0  0
   27.9705  -20.5108  -14.1912 C   0  0  2  0  0  0  0  0  0  0  0  0
   28.2016  -21.4315  -15.2877 N   0  0  0  0  0  0  0  0  0  0  0  0
   26.9887  -21.0266  -13.1982 C   0  0  0  0  0  0  0  0  0  0  0  0
   26.1523  -21.8623  -13.6548 O   0  0  0  0  0  0  0  0  0  0  0  0
   26.9500  -20.6476  -11.8388 N   0  0  0  0  0  0  0  0  0  0  0  0
   25.7379  -20.8139  -11.0714 C   0  0  1  0  0  0  0  0  0  0  0  0
   25.9179  -20.4892   -9.6323 C   0  0  0  0  0  0  0  0  0  0  0  0
   27.2315  -20.7960   -9.0362 C   0  0  0  0  0  0  0  0  0  0  0  0
   28.2096  -21.6037   -9.6543 C   0  0  0  0  0  0  0  0  0  0  0  0
   29.2884  -21.6361   -8.8811 N   0  0  0  0  0  0  0  0  0  0  0  0
   29.1213  -20.9061   -7.7698 C   0  0  0  0  0  0  0  0  0  0  0  0
   29.9568  -20.6765   -6.7024 C   0  0  0  0  0  0  0  0  0  0  0  0
   29.4654  -19.8761   -5.6765 C   0  0  0  0  0  0  0  0  0  0  0  0
   28.1756  -19.3394   -5.7492 C   0  0  0  0  0  0  0  0  0  0  0  0
   27.3749  -19.5945   -6.8368 C   0  0  0  0  0  0  0  0  0  0  0  0
   27.8327  -20.3842   -7.8727 C   0  0  0  0  0  0  0  0  0  0  0  0
   24.5395  -20.2753  -11.6629 C   0  0  0  0  0  0  0  0  0  0  0  0
   24.6249  -19.3518  -12.5101 O   0  0  0  0  0  0  0  0  0  0  0  0
   23.2132  -20.7087  -11.3591 N   0  0  0  0  0  0  0  0  0  0  0  0
   22.1654  -20.7402  -12.3585 C   0  0  1  0  0  0  0  0  0  0  0  0
   22.4651  -21.6364  -13.5064 C   0  0  0  0  0  0  0  0  0  0  0  0
   21.3488  -21.6669  -14.4665 C   0  0  0  0  0  0  0  0  0  0  0  0
   20.9199  -20.5936  -14.9327 O   0  0  0  0  0  0  0  0  0  0  0  0
   20.8773  -21.2231  -11.6839 C   0  0  0  0  0  0  0  0  0  0  0  0
   20.9204  -22.1928  -10.7000 O   0  0  0  0  0  0  0  0  0  0  0  0
   20.7495  -22.8473  -14.8784 O   0  0  0  0  0  0  0  0  0  0  0  0
   19.7704  -20.7451  -12.0159 O   0  0  0  0  0  0  0  0  0  0  0  0
  2  1  1  6
  2  3  1  0
  4  2  1  0
  4  5  1  6
  6  7  2  0
  6  4  1  0
  8  6  1  0
  9  8  1  0
  9 10  1  1
 10 11  1  0
 11 12  2  0
 11 19  1  0
 12 13  1  0
 13 14  1  0
 14 15  2  0
 15 16  1  0
 17 16  2  0
 18 17  1  0
 19 18  2  0
 19 14  1  0
 20 21  2  0
 20  9  1  0
 22 20  1  0
 23 24  1  6
 23 22  1  0
 25 29  1  0
 25 24  1  0
 26 25  2  0
 27 23  1  0
 28 27  1  0
 30 27  2  0
M  END
$$$$
