GQI.pdb
     RDKit          3D

 22 21  0  0  1  0  0  0  0  0999 V2000
    7.5398  -15.7662   18.3209 N   0  0  0  0  0  0  0  0  0  0  0  0
    8.5627  -15.9105   19.3201 C   0  0  0  0  0  0  0  0  0  0  0  0
    7.9336  -16.1446   20.6566 C   0  0  0  0  0  0  0  0  0  0  0  0
    6.8134  -15.6266   20.9090 O   0  0  0  0  0  0  0  0  0  0  0  0
    5.8441  -19.8078   23.2896 N   0  0  0  0  0  0  0  0  0  0  0  0
    6.5055  -19.6725   24.5384 C   0  0  0  0  0  0  0  0  0  0  0  0
    5.9275  -20.0927   25.5667 O   0  0  0  0  0  0  0  0  0  0  0  0
    7.8706  -19.0435   24.6615 C   0  0  0  0  0  0  0  0  0  0  0  0
    8.2774  -18.5658   23.3197 C   0  0  0  0  0  0  0  0  0  0  0  0
    7.8803  -17.1562   22.9653 C   0  0  2  0  0  0  0  0  0  0  0  0
    8.5279  -16.9206   21.6635 N   0  0  0  0  0  0  0  0  0  0  0  0
    8.4466  -16.1734   23.9121 C   0  0  0  0  0  0  0  0  0  0  0  0
    9.7030  -15.9973   23.9029 O   0  0  0  0  0  0  0  0  0  0  0  0
    5.4746  -11.9700   25.8178 C   0  0  0  0  0  0  0  0  0  0  0  0
    6.5824  -12.8135   25.2709 C   0  0  0  0  0  0  0  0  0  0  0  0
    7.3433  -13.5385   26.3783 C   0  0  2  0  0  0  0  0  0  0  0  0
    8.1391  -12.5009   27.1362 C   0  0  0  0  0  0  0  0  0  0  0  0
    8.3306  -14.4935   25.7122 C   0  0  2  0  0  0  0  0  0  0  0  0
    7.6583  -15.4089   24.8331 N   0  0  0  0  0  0  0  0  0  0  0  0
    9.1193  -15.2023   26.7501 C   0  0  0  0  0  0  0  0  0  0  0  0
   10.3596  -14.7602   27.1721 O   0  0  0  0  0  0  0  0  0  0  0  0
    8.6945  -16.2568   27.3072 O   0  0  0  0  0  0  0  0  0  0  0  0
  2  3  1  0
  2  1  1  0
  3 11  1  0
  4  3  2  0
  6  8  1  0
  6  5  1  0
  7  6  2  0
  9  8  1  0
 10  9  1  1
 10 12  1  0
 11 10  1  0
 12 13  2  0
 12 19  1  0
 15 14  1  0
 15 16  1  0
 16 18  1  0
 16 17  1  6
 18 20  1  0
 18 19  1  1
 20 21  1  0
 22 20  2  0
M  END
$$$$
