GQI.pdb
     RDKit          3D

 22 21  0  0  1  0  0  0  0  0999 V2000
    3.7866  -19.5076   21.1729 N   0  0  0  0  0  0  0  0  0  0  0  0
    5.0980  -18.9948   21.4608 C   0  0  0  0  0  0  0  0  0  0  0  0
    5.1585  -18.5322   22.8818 C   0  0  0  0  0  0  0  0  0  0  0  0
    4.1631  -17.9423   23.3801 O   0  0  0  0  0  0  0  0  0  0  0  0
    8.5843  -21.1985   27.0412 N   0  0  0  0  0  0  0  0  0  0  0  0
    8.1176  -20.1291   27.8498 C   0  0  0  0  0  0  0  0  0  0  0  0
    8.3863  -20.1465   29.0727 O   0  0  0  0  0  0  0  0  0  0  0  0
    7.3156  -18.9840   27.2845 C   0  0  0  0  0  0  0  0  0  0  0  0
    7.0759  -19.2576   25.8485 C   0  0  0  0  0  0  0  0  0  0  0  0
    6.3463  -18.1874   25.0788 C   0  0  2  0  0  0  0  0  0  0  0  0
    6.2779  -18.7197   23.7071 N   0  0  0  0  0  0  0  0  0  0  0  0
    7.1233  -16.9324   25.0155 C   0  0  0  0  0  0  0  0  0  0  0  0
    8.0851  -16.8716   24.1904 O   0  0  0  0  0  0  0  0  0  0  0  0
    5.2416  -11.9167   26.5820 C   0  0  0  0  0  0  0  0  0  0  0  0
    5.9824  -12.9434   25.7851 C   0  0  0  0  0  0  0  0  0  0  0  0
    7.2051  -13.4686   26.5334 C   0  0  2  0  0  0  0  0  0  0  0  0
    8.2552  -12.3820   26.5058 C   0  0  0  0  0  0  0  0  0  0  0  0
    7.7459  -14.6645   25.7538 C   0  0  2  0  0  0  0  0  0  0  0  0
    6.8492  -15.7840   25.8281 N   0  0  0  0  0  0  0  0  0  0  0  0
    9.1029  -15.0098   26.2445 C   0  0  0  0  0  0  0  0  0  0  0  0
   10.2535  -14.5186   25.6554 O   0  0  0  0  0  0  0  0  0  0  0  0
    9.2792  -15.7781   27.2352 O   0  0  0  0  0  0  0  0  0  0  0  0
  2  3  1  0
  2  1  1  0
  3 11  1  0
  4  3  2  0
  6  8  1  0
  6  5  1  0
  7  6  2  0
  9  8  1  0
 10  9  1  1
 10 12  1  0
 11 10  1  0
 12 13  2  0
 12 19  1  0
 15 14  1  0
 15 16  1  0
 16 18  1  0
 16 17  1  6
 18 20  1  0
 18 19  1  1
 20 21  1  0
 22 20  2  0
M  END
$$$$
