GQI.pdb
     RDKit          3D

 22 21  0  0  1  0  0  0  0  0999 V2000
    7.7573  -12.5452   18.3741 N   0  0  0  0  0  0  0  0  0  0  0  0
    8.8758  -13.1741   19.0215 C   0  0  0  0  0  0  0  0  0  0  0  0
    8.3883  -14.0625   20.1216 C   0  0  0  0  0  0  0  0  0  0  0  0
    7.1670  -14.0469   20.4301 O   0  0  0  0  0  0  0  0  0  0  0  0
   11.2821  -19.1647   21.9744 N   0  0  0  0  0  0  0  0  0  0  0  0
   10.1161  -19.2639   21.1707 C   0  0  0  0  0  0  0  0  0  0  0  0
    9.9291  -20.3177   20.5207 O   0  0  0  0  0  0  0  0  0  0  0  0
    9.1060  -18.1479   21.0778 C   0  0  0  0  0  0  0  0  0  0  0  0
    9.6142  -17.0031   21.8685 C   0  0  0  0  0  0  0  0  0  0  0  0
    8.7257  -15.7878   21.9287 C   0  0  2  0  0  0  0  0  0  0  0  0
    9.2257  -14.9273   20.8428 N   0  0  0  0  0  0  0  0  0  0  0  0
    8.9068  -15.0391   23.1895 C   0  0  0  0  0  0  0  0  0  0  0  0
    9.9894  -14.3968   23.3473 O   0  0  0  0  0  0  0  0  0  0  0  0
    6.4079  -11.3920   27.2530 C   0  0  0  0  0  0  0  0  0  0  0  0
    7.4242  -12.4468   26.9489 C   0  0  0  0  0  0  0  0  0  0  0  0
    7.0297  -13.2808   25.7325 C   0  0  2  0  0  0  0  0  0  0  0  0
    5.8651  -14.1539   26.1394 C   0  0  0  0  0  0  0  0  0  0  0  0
    8.2063  -14.1936   25.3965 C   0  0  2  0  0  0  0  0  0  0  0  0
    7.9298  -14.9953   24.2373 N   0  0  0  0  0  0  0  0  0  0  0  0
    8.5465  -15.0267   26.5763 C   0  0  0  0  0  0  0  0  0  0  0  0
    8.3918  -16.4008   26.5853 O   0  0  0  0  0  0  0  0  0  0  0  0
    8.9992  -14.5190   27.6440 O   0  0  0  0  0  0  0  0  0  0  0  0
  2  3  1  0
  2  1  1  0
  3 11  1  0
  4  3  2  0
  6  8  1  0
  6  5  1  0
  7  6  2  0
  9  8  1  0
 10  9  1  1
 10 12  1  0
 11 10  1  0
 12 13  2  0
 12 19  1  0
 15 14  1  0
 15 16  1  0
 16 18  1  0
 16 17  1  1
 18 20  1  0
 18 19  1  6
 20 21  1  0
 22 20  2  0
M  END
$$$$
