GQI.pdb
     RDKit          3D

 22 21  0  0  1  0  0  0  0  0999 V2000
    3.3116  -19.1457   21.8682 N   0  0  0  0  0  0  0  0  0  0  0  0
    3.6224  -17.8623   22.4356 C   0  0  0  0  0  0  0  0  0  0  0  0
    5.0790  -17.7968   22.7688 C   0  0  0  0  0  0  0  0  0  0  0  0
    5.5253  -18.4941   23.7182 O   0  0  0  0  0  0  0  0  0  0  0  0
   11.1180  -18.5061   22.3575 N   0  0  0  0  0  0  0  0  0  0  0  0
   10.0390  -18.2297   21.4774 C   0  0  0  0  0  0  0  0  0  0  0  0
    9.4323  -19.1943   20.9582 O   0  0  0  0  0  0  0  0  0  0  0  0
    9.6063  -16.8221   21.1526 C   0  0  0  0  0  0  0  0  0  0  0  0
    8.1259  -16.7960   21.1111 C   0  0  0  0  0  0  0  0  0  0  0  0
    7.4196  -16.9211   22.4361 C   0  0  2  0  0  0  0  0  0  0  0  0
    5.9935  -16.9904   22.0741 N   0  0  0  0  0  0  0  0  0  0  0  0
    7.5949  -15.7116   23.2663 C   0  0  0  0  0  0  0  0  0  0  0  0
    7.8117  -14.6115   22.6728 O   0  0  0  0  0  0  0  0  0  0  0  0
    5.6922  -12.1744   26.1026 C   0  0  0  0  0  0  0  0  0  0  0  0
    6.6443  -13.0448   25.3452 C   0  0  0  0  0  0  0  0  0  0  0  0
    7.5471  -13.8459   26.2802 C   0  0  2  0  0  0  0  0  0  0  0  0
    8.4977  -12.8720   26.9375 C   0  0  0  0  0  0  0  0  0  0  0  0
    8.3723  -14.8002   25.4207 C   0  0  2  0  0  0  0  0  0  0  0  0
    7.5299  -15.7120   24.6981 N   0  0  0  0  0  0  0  0  0  0  0  0
    9.3581  -15.5135   26.2699 C   0  0  0  0  0  0  0  0  0  0  0  0
    9.0197  -16.6118   27.0388 O   0  0  0  0  0  0  0  0  0  0  0  0
   10.5692  -15.1507   26.3353 O   0  0  0  0  0  0  0  0  0  0  0  0
  2  3  1  0
  2  1  1  0
  3 11  1  0
  4  3  2  0
  6  8  1  0
  6  5  1  0
  7  6  2  0
  9  8  1  0
 10  9  1  6
 10 12  1  0
 11 10  1  0
 12 13  2  0
 12 19  1  0
 15 14  1  0
 15 16  1  0
 16 18  1  0
 16 17  1  6
 18 20  1  0
 18 19  1  1
 20 21  1  0
 22 20  2  0
M  END
$$$$
