GQI.pdb
     RDKit          3D

 22 21  0  0  1  0  0  0  0  0999 V2000
    6.0230  -19.6439   23.4227 N   0  0  0  0  0  0  0  0  0  0  0  0
    5.5513  -18.2901   23.3219 C   0  0  0  0  0  0  0  0  0  0  0  0
    6.6459  -17.4111   22.8059 C   0  0  0  0  0  0  0  0  0  0  0  0
    7.8297  -17.8419   22.7987 O   0  0  0  0  0  0  0  0  0  0  0  0
    7.7452  -14.9005   18.6285 N   0  0  0  0  0  0  0  0  0  0  0  0
    8.1709  -13.6480   19.1437 C   0  0  0  0  0  0  0  0  0  0  0  0
    8.9656  -12.9625   18.4606 O   0  0  0  0  0  0  0  0  0  0  0  0
    7.6984  -13.1241   20.4765 C   0  0  0  0  0  0  0  0  0  0  0  0
    6.8275  -14.1531   21.0904 C   0  0  0  0  0  0  0  0  0  0  0  0
    7.5261  -15.2501   21.8510 C   0  0  2  0  0  0  0  0  0  0  0  0
    6.4282  -16.1124   22.3208 N   0  0  0  0  0  0  0  0  0  0  0  0
    8.2114  -14.7322   23.0531 C   0  0  0  0  0  0  0  0  0  0  0  0
    9.4170  -14.3560   22.9324 O   0  0  0  0  0  0  0  0  0  0  0  0
    5.7734  -12.0668   27.2276 C   0  0  0  0  0  0  0  0  0  0  0  0
    6.3888  -13.2230   26.5049 C   0  0  0  0  0  0  0  0  0  0  0  0
    7.8272  -12.9297   26.0858 C   0  0  2  0  0  0  0  0  0  0  0  0
    7.7798  -11.8596   25.0195 C   0  0  0  0  0  0  0  0  0  0  0  0
    8.3924  -14.1987   25.4529 C   0  0  2  0  0  0  0  0  0  0  0  0
    7.5911  -14.6283   24.3411 N   0  0  0  0  0  0  0  0  0  0  0  0
    8.5205  -15.2581   26.4839 C   0  0  0  0  0  0  0  0  0  0  0  0
    9.3506  -15.1298   27.5823 O   0  0  0  0  0  0  0  0  0  0  0  0
    7.8716  -16.3428   26.4108 O   0  0  0  0  0  0  0  0  0  0  0  0
  2  3  1  0
  2  1  1  0
  3 11  1  0
  4  3  2  0
  6  8  1  0
  6  5  1  0
  7  6  2  0
  9  8  1  0
 10  9  1  1
 10 12  1  0
 11 10  1  0
 12 13  2  0
 12 19  1  0
 15 14  1  0
 15 16  1  0
 16 18  1  0
 16 17  1  6
 18 20  1  0
 18 19  1  6
 20 21  1  0
 22 20  2  0
M  END
$$$$
