GQI.pdb
     RDKit          3D

 22 21  0  0  1  0  0  0  0  0999 V2000
    7.7625  -12.6158   18.5375 N   0  0  0  0  0  0  0  0  0  0  0  0
    8.5950  -13.6529   19.0827 C   0  0  0  0  0  0  0  0  0  0  0  0
    7.9618  -14.2120   20.3170 C   0  0  0  0  0  0  0  0  0  0  0  0
    6.9454  -13.6447   20.7986 O   0  0  0  0  0  0  0  0  0  0  0  0
    5.4558  -18.0518   24.5544 N   0  0  0  0  0  0  0  0  0  0  0  0
    6.1771  -18.1948   23.3401 C   0  0  0  0  0  0  0  0  0  0  0  0
    5.5307  -18.3374   22.2771 O   0  0  0  0  0  0  0  0  0  0  0  0
    7.6843  -18.1800   23.2934 C   0  0  0  0  0  0  0  0  0  0  0  0
    8.0984  -17.3750   22.1209 C   0  0  0  0  0  0  0  0  0  0  0  0
    7.7844  -15.9025   22.1790 C   0  0  2  0  0  0  0  0  0  0  0  0
    8.4415  -15.3510   20.9816 N   0  0  0  0  0  0  0  0  0  0  0  0
    8.4101  -15.2550   23.3503 C   0  0  0  0  0  0  0  0  0  0  0  0
    9.6711  -15.1159   23.3476 O   0  0  0  0  0  0  0  0  0  0  0  0
    5.7243  -11.9849   27.1629 C   0  0  0  0  0  0  0  0  0  0  0  0
    6.3604  -13.1752   26.5176 C   0  0  0  0  0  0  0  0  0  0  0  0
    7.7630  -12.8600   26.0035 C   0  0  2  0  0  0  0  0  0  0  0  0
    7.6118  -11.9872   24.7789 C   0  0  0  0  0  0  0  0  0  0  0  0
    8.4018  -14.1759   25.5666 C   0  0  2  0  0  0  0  0  0  0  0  0
    7.6741  -14.7740   24.4823 N   0  0  0  0  0  0  0  0  0  0  0  0
    8.5106  -15.0902   26.7301 C   0  0  0  0  0  0  0  0  0  0  0  0
    9.2531  -14.7778   27.8540 O   0  0  0  0  0  0  0  0  0  0  0  0
    7.9252  -16.2125   26.7543 O   0  0  0  0  0  0  0  0  0  0  0  0
  2  3  1  0
  2  1  1  0
  3 11  1  0
  4  3  2  0
  6  8  1  0
  6  5  1  0
  7  6  2  0
  9  8  1  0
 10  9  1  1
 10 12  1  0
 11 10  1  0
 12 13  2  0
 12 19  1  0
 15 14  1  0
 15 16  1  0
 16 18  1  0
 16 17  1  6
 18 20  1  0
 18 19  1  6
 20 21  1  0
 22 20  2  0
M  END
$$$$
