GQI.pdb
     RDKit          3D

 22 21  0  0  1  0  0  0  0  0999 V2000
    7.1224  -12.7956   18.5880 N   0  0  0  0  0  0  0  0  0  0  0  0
    8.3367  -13.3483   19.1224 C   0  0  0  0  0  0  0  0  0  0  0  0
    8.0319  -14.1400   20.3542 C   0  0  0  0  0  0  0  0  0  0  0  0
    6.8779  -14.0786   20.8556 O   0  0  0  0  0  0  0  0  0  0  0  0
   10.9636  -20.0987   22.3094 N   0  0  0  0  0  0  0  0  0  0  0  0
    9.7023  -19.4621   22.1705 C   0  0  0  0  0  0  0  0  0  0  0  0
    8.8399  -20.0028   21.4411 O   0  0  0  0  0  0  0  0  0  0  0  0
    9.3740  -18.1665   22.8689 C   0  0  0  0  0  0  0  0  0  0  0  0
    9.5041  -17.0689   21.8827 C   0  0  0  0  0  0  0  0  0  0  0  0
    8.6049  -15.8776   22.0888 C   0  0  2  0  0  0  0  0  0  0  0  0
    8.9718  -14.9614   20.9954 N   0  0  0  0  0  0  0  0  0  0  0  0
    8.9043  -15.1782   23.3553 C   0  0  0  0  0  0  0  0  0  0  0  0
   10.0201  -14.5826   23.4542 O   0  0  0  0  0  0  0  0  0  0  0  0
    5.4887  -11.9520   25.6759 C   0  0  0  0  0  0  0  0  0  0  0  0
    6.6770  -12.7163   25.1842 C   0  0  0  0  0  0  0  0  0  0  0  0
    7.2359  -13.6479   26.2569 C   0  0  2  0  0  0  0  0  0  0  0  0
    7.7738  -12.7829   27.3735 C   0  0  0  0  0  0  0  0  0  0  0  0
    8.4098  -14.4073   25.6439 C   0  0  2  0  0  0  0  0  0  0  0  0
    8.0064  -15.1325   24.4715 N   0  0  0  0  0  0  0  0  0  0  0  0
    9.0169  -15.2983   26.6633 C   0  0  0  0  0  0  0  0  0  0  0  0
   10.0259  -14.8788   27.5107 O   0  0  0  0  0  0  0  0  0  0  0  0
    8.6400  -16.4978   26.8111 O   0  0  0  0  0  0  0  0  0  0  0  0
  2  3  1  0
  2  1  1  0
  3 11  1  0
  4  3  2  0
  6  8  1  0
  6  5  1  0
  7  6  2  0
  9  8  1  0
 10  9  1  6
 10 12  1  0
 11 10  1  0
 12 13  2  0
 12 19  1  0
 15 14  1  0
 15 16  1  0
 16 18  1  0
 16 17  1  1
 18 20  1  0
 18 19  1  6
 20 21  1  0
 22 20  2  0
M  END
$$$$
