GQI.pdb
     RDKit          3D

 22 21  0  0  1  0  0  0  0  0999 V2000
    5.8615  -18.6332   19.2239 N   0  0  0  0  0  0  0  0  0  0  0  0
    7.0615  -18.4911   20.0020 C   0  0  0  0  0  0  0  0  0  0  0  0
    6.7084  -18.2618   21.4372 C   0  0  0  0  0  0  0  0  0  0  0  0
    5.5029  -18.0770   21.7527 O   0  0  0  0  0  0  0  0  0  0  0  0
    6.4611  -20.9440   25.8731 N   0  0  0  0  0  0  0  0  0  0  0  0
    7.2193  -20.0644   26.6897 C   0  0  0  0  0  0  0  0  0  0  0  0
    7.2085  -20.2448   27.9288 O   0  0  0  0  0  0  0  0  0  0  0  0
    8.0293  -18.9301   26.1139 C   0  0  0  0  0  0  0  0  0  0  0  0
    8.0217  -19.0645   24.6388 C   0  0  0  0  0  0  0  0  0  0  0  0
    7.2899  -17.9912   23.8754 C   0  0  2  0  0  0  0  0  0  0  0  0
    7.6573  -18.2401   22.4709 N   0  0  0  0  0  0  0  0  0  0  0  0
    7.7850  -16.6419   24.2174 C   0  0  0  0  0  0  0  0  0  0  0  0
    8.9496  -16.3216   23.8290 O   0  0  0  0  0  0  0  0  0  0  0  0
    6.4243  -10.9652   26.3152 C   0  0  0  0  0  0  0  0  0  0  0  0
    7.3620  -12.0798   25.9745 C   0  0  0  0  0  0  0  0  0  0  0  0
    6.6183  -13.3875   25.7145 C   0  0  2  0  0  0  0  0  0  0  0  0
    6.0041  -13.8281   27.0232 C   0  0  0  0  0  0  0  0  0  0  0  0
    7.6518  -14.4337   25.3048 C   0  0  2  0  0  0  0  0  0  0  0  0
    7.0244  -15.6780   24.9568 N   0  0  0  0  0  0  0  0  0  0  0  0
    8.6503  -14.6025   26.3893 C   0  0  0  0  0  0  0  0  0  0  0  0
    8.5977  -15.6490   27.2916 O   0  0  0  0  0  0  0  0  0  0  0  0
    9.6092  -13.7910   26.5462 O   0  0  0  0  0  0  0  0  0  0  0  0
  2  3  1  0
  2  1  1  0
  3 11  1  0
  4  3  2  0
  6  8  1  0
  6  5  1  0
  7  6  2  0
  9  8  1  0
 10  9  1  1
 10 12  1  0
 11 10  1  0
 12 13  2  0
 12 19  1  0
 15 14  1  0
 15 16  1  0
 16 18  1  0
 16 17  1  1
 18 20  1  0
 18 19  1  1
 20 21  1  0
 22 20  2  0
M  END
$$$$
