GQI.pdb
     RDKit          3D

 22 21  0  0  1  0  0  0  0  0999 V2000
    5.2277  -18.1262   19.7763 N   0  0  0  0  0  0  0  0  0  0  0  0
    6.4054  -18.3621   20.5656 C   0  0  0  0  0  0  0  0  0  0  0  0
    6.1871  -17.8650   21.9592 C   0  0  0  0  0  0  0  0  0  0  0  0
    5.3794  -16.9185   22.1559 O   0  0  0  0  0  0  0  0  0  0  0  0
    7.8826  -21.2745   26.7022 N   0  0  0  0  0  0  0  0  0  0  0  0
    7.3305  -20.1946   27.4399 C   0  0  0  0  0  0  0  0  0  0  0  0
    7.2746  -20.2927   28.6871 O   0  0  0  0  0  0  0  0  0  0  0  0
    6.8145  -18.9449   26.7720 C   0  0  0  0  0  0  0  0  0  0  0  0
    6.8900  -19.1445   25.3062 C   0  0  0  0  0  0  0  0  0  0  0  0
    6.5513  -17.9501   24.4525 C   0  0  2  0  0  0  0  0  0  0  0  0
    6.8403  -18.4001   23.0801 N   0  0  0  0  0  0  0  0  0  0  0  0
    7.4470  -16.8080   24.7288 C   0  0  0  0  0  0  0  0  0  0  0  0
    8.5980  -16.8147   24.1951 O   0  0  0  0  0  0  0  0  0  0  0  0
    5.5182  -11.8343   26.0132 C   0  0  0  0  0  0  0  0  0  0  0  0
    6.3924  -12.8805   25.3973 C   0  0  0  0  0  0  0  0  0  0  0  0
    7.4182  -13.4197   26.3912 C   0  0  2  0  0  0  0  0  0  0  0  0
    8.4939  -12.3696   26.5475 C   0  0  0  0  0  0  0  0  0  0  0  0
    8.0578  -14.6585   25.7693 C   0  0  2  0  0  0  0  0  0  0  0  0
    7.0876  -15.6965   25.5592 N   0  0  0  0  0  0  0  0  0  0  0  0
    9.1852  -15.1190   26.6170 C   0  0  0  0  0  0  0  0  0  0  0  0
   10.4948  -14.7439   26.3799 O   0  0  0  0  0  0  0  0  0  0  0  0
    9.0053  -15.8851   27.6087 O   0  0  0  0  0  0  0  0  0  0  0  0
  2  3  1  0
  2  1  1  0
  3 11  1  0
  4  3  2  0
  6  8  1  0
  6  5  1  0
  7  6  2  0
  9  8  1  0
 10  9  1  1
 10 12  1  0
 11 10  1  0
 12 13  2  0
 12 19  1  0
 15 14  1  0
 15 16  1  0
 16 18  1  0
 16 17  1  6
 18 20  1  0
 18 19  1  1
 20 21  1  0
 22 20  2  0
M  END
$$$$
