GQI.pdb
     RDKit          3D

 22 21  0  0  1  0  0  0  0  0999 V2000
    4.6553  -18.7646   20.1943 N   0  0  0  0  0  0  0  0  0  0  0  0
    5.9403  -18.6211   20.8220 C   0  0  0  0  0  0  0  0  0  0  0  0
    5.7634  -18.1714   22.2374 C   0  0  0  0  0  0  0  0  0  0  0  0
    4.7099  -17.5622   22.5628 O   0  0  0  0  0  0  0  0  0  0  0  0
    8.1755  -21.1760   26.7932 N   0  0  0  0  0  0  0  0  0  0  0  0
    7.7125  -20.0748   27.5603 C   0  0  0  0  0  0  0  0  0  0  0  0
    7.8387  -20.1217   28.8052 O   0  0  0  0  0  0  0  0  0  0  0  0
    7.0793  -18.8621   26.9257 C   0  0  0  0  0  0  0  0  0  0  0  0
    7.0172  -19.0902   25.4634 C   0  0  0  0  0  0  0  0  0  0  0  0
    6.5256  -17.9359   24.6291 C   0  0  2  0  0  0  0  0  0  0  0  0
    6.7183  -18.3921   23.2418 N   0  0  0  0  0  0  0  0  0  0  0  0
    7.3661  -16.7341   24.8078 C   0  0  0  0  0  0  0  0  0  0  0  0
    8.5166  -16.7303   24.2731 O   0  0  0  0  0  0  0  0  0  0  0  0
    5.3261  -11.7382   26.0913 C   0  0  0  0  0  0  0  0  0  0  0  0
    6.1678  -12.7986   25.4550 C   0  0  0  0  0  0  0  0  0  0  0  0
    7.2545  -13.3040   26.4008 C   0  0  2  0  0  0  0  0  0  0  0  0
    8.3007  -12.2189   26.5111 C   0  0  0  0  0  0  0  0  0  0  0  0
    7.9063  -14.5205   25.7483 C   0  0  2  0  0  0  0  0  0  0  0  0
    6.9539  -15.5762   25.5451 N   0  0  0  0  0  0  0  0  0  0  0  0
    9.0615  -14.9679   26.5650 C   0  0  0  0  0  0  0  0  0  0  0  0
   10.3517  -14.5292   26.3307 O   0  0  0  0  0  0  0  0  0  0  0  0
    8.9248  -15.7809   27.5258 O   0  0  0  0  0  0  0  0  0  0  0  0
  2  3  1  0
  2  1  1  0
  3 11  1  0
  4  3  2  0
  6  8  1  0
  6  5  1  0
  7  6  2  0
  9  8  1  0
 10  9  1  1
 10 12  1  0
 11 10  1  0
 12 13  2  0
 12 19  1  0
 15 14  1  0
 15 16  1  0
 16 18  1  0
 16 17  1  6
 18 20  1  0
 18 19  1  1
 20 21  1  0
 22 20  2  0
M  END
$$$$
