GQI.pdb
     RDKit          3D

 22 21  0  0  1  0  0  0  0  0999 V2000
   11.0261  -19.0897   20.1706 N   0  0  0  0  0  0  0  0  0  0  0  0
    9.8007  -19.0157   20.9178 C   0  0  0  0  0  0  0  0  0  0  0  0
    9.6409  -17.6435   21.4911 C   0  0  0  0  0  0  0  0  0  0  0  0
   10.6294  -17.0859   22.0380 O   0  0  0  0  0  0  0  0  0  0  0  0
    7.3284  -12.4437   19.1093 N   0  0  0  0  0  0  0  0  0  0  0  0
    7.8078  -12.8069   20.3952 C   0  0  0  0  0  0  0  0  0  0  0  0
    8.9915  -12.5245   20.6907 O   0  0  0  0  0  0  0  0  0  0  0  0
    6.9417  -13.5160   21.4058 C   0  0  0  0  0  0  0  0  0  0  0  0
    7.1505  -14.9737   21.2454 C   0  0  0  0  0  0  0  0  0  0  0  0
    8.3040  -15.5699   22.0097 C   0  0  2  0  0  0  0  0  0  0  0  0
    8.4341  -16.9282   21.4552 N   0  0  0  0  0  0  0  0  0  0  0  0
    7.9904  -15.7193   23.4458 C   0  0  0  0  0  0  0  0  0  0  0  0
    7.2766  -16.7075   23.7970 O   0  0  0  0  0  0  0  0  0  0  0  0
    5.9912  -11.9092   26.2978 C   0  0  0  0  0  0  0  0  0  0  0  0
    6.2752  -13.3567   26.0488 C   0  0  0  0  0  0  0  0  0  0  0  0
    7.6730  -13.7499   26.5202 C   0  0  2  0  0  0  0  0  0  0  0  0
    8.6285  -12.6769   26.0512 C   0  0  0  0  0  0  0  0  0  0  0  0
    8.0483  -15.0525   25.8182 C   0  0  2  0  0  0  0  0  0  0  0  0
    8.4493  -14.8159   24.4595 N   0  0  0  0  0  0  0  0  0  0  0  0
    6.9179  -16.0101   25.9020 C   0  0  0  0  0  0  0  0  0  0  0  0
    6.2343  -16.4525   24.7844 O   0  0  0  0  0  0  0  0  0  0  0  0
    6.5175  -16.4751   27.0093 O   0  0  0  0  0  0  0  0  0  0  0  0
  2  3  1  0
  2  1  1  0
  3 11  1  0
  4  3  2  0
  6  8  1  0
  6  5  1  0
  7  6  2  0
  9  8  1  0
 10  9  1  6
 10 12  1  0
 11 10  1  0
 12 13  2  0
 12 19  1  0
 15 14  1  0
 15 16  1  0
 16 18  1  0
 16 17  1  6
 18 20  1  0
 18 19  1  6
 20 21  1  0
 22 20  2  0
M  END
$$$$
