SRQ.pdb
     RDKit          3D

 27 26  0  0  1  0  0  0  0  0999 V2000
   26.3858  -20.2912  -19.0912 O   0  0  0  0  0  0  0  0  0  0  0  0
   26.8470  -21.5389  -18.6808 C   0  0  0  0  0  0  0  0  0  0  0  0
   27.5402  -21.4130  -17.3414 C   0  0  2  0  0  0  0  0  0  0  0  0
   28.5651  -22.4006  -17.2056 N   0  0  0  0  0  0  0  0  0  0  0  0
   26.5733  -21.5081  -16.2170 C   0  0  0  0  0  0  0  0  0  0  0  0
   25.5209  -22.1924  -16.3284 O   0  0  0  0  0  0  0  0  0  0  0  0
   24.9820  -22.5104   -9.0026 N   0  0  0  0  0  0  0  0  0  0  0  0
   24.3209  -21.2962   -8.6713 C   0  0  0  0  0  0  0  0  0  0  0  0
   23.3265  -21.2918   -7.8488 N   0  0  0  0  0  0  0  0  0  0  0  0
   24.7029  -20.0390   -9.2114 N   0  0  0  0  0  0  0  0  0  0  0  0
   25.7108  -19.9237  -10.2148 C   0  0  0  0  0  0  0  0  0  0  0  0
   25.2963  -20.4643  -11.5625 C   0  0  0  0  0  0  0  0  0  0  0  0
   26.3804  -20.3477  -12.5969 C   0  0  0  0  0  0  0  0  0  0  0  0
   25.8476  -20.9236  -13.8948 C   0  0  2  0  0  0  0  0  0  0  0  0
   26.7800  -20.8442  -14.9780 N   0  0  0  0  0  0  0  0  0  0  0  0
   24.6244  -20.1157  -14.2166 C   0  0  0  0  0  0  0  0  0  0  0  0
   24.7339  -18.9017  -14.5459 O   0  0  0  0  0  0  0  0  0  0  0  0
   22.8941  -20.3779   -7.6009 N   0  0  0  0  0  0  0  0  0  0  0  0
   20.4671  -20.9863  -18.4502 C   0  0  0  0  0  0  0  0  0  0  0  0
   19.8034  -20.0283  -17.5848 O   0  0  0  0  0  0  0  0  0  0  0  0
   18.7423  -19.5749  -18.0244 C   0  0  0  0  0  0  0  0  0  0  0  0
   20.3712  -19.6539  -16.3104 C   0  0  0  0  0  0  0  0  0  0  0  0
   21.6126  -20.2852  -15.8396 C   0  0  1  0  0  0  0  0  0  0  0  0
   22.1089  -19.9414  -14.4769 N   0  0  0  0  0  0  0  0  0  0  0  0
   23.3268  -20.6835  -14.1615 C   0  0  0  0  0  0  0  0  0  0  0  0
   21.1552  -19.9714  -13.3780 O   0  0  0  0  0  0  0  0  0  0  0  0
   20.2471  -18.9617  -13.1163 O   0  0  0  0  0  0  0  0  0  0  0  0
  1  2  1  0
  2  3  1  0
  3  5  1  0
  3  4  1  1
  5 15  1  0
  6  5  2  0
  8  7  1  0
  8 10  1  0
  9  8  2  0
 11 10  1  0
 12 11  1  0
 13 12  1  0
 14 13  1  1
 15 14  1  0
 16 14  1  0
 16 24  1  0
 17 16  2  0
 18 19  1  0
 19 21  1  0
 20 19  2  0
 21 22  1  0
 23 24  1  0
 23 22  1  6
 25 23  1  0
 26 25  1  0
 27 25  2  0
M  END
$$$$
