SRQ.pdb
     RDKit          3D

 27 26  0  0  1  0  0  0  0  0999 V2000
   27.8156  -22.6554  -19.1454 O   0  0  0  0  0  0  0  0  0  0  0  0
   26.6058  -22.6890  -18.4575 C   0  0  0  0  0  0  0  0  0  0  0  0
   26.7841  -23.4195  -17.1442 C   0  0  2  0  0  0  0  0  0  0  0  0
   26.9613  -24.8213  -17.3631 N   0  0  0  0  0  0  0  0  0  0  0  0
   25.6408  -23.1764  -16.2265 C   0  0  0  0  0  0  0  0  0  0  0  0
   24.6006  -23.8848  -16.2916 O   0  0  0  0  0  0  0  0  0  0  0  0
   23.6946  -20.8770   -8.3238 N   0  0  0  0  0  0  0  0  0  0  0  0
   24.9401  -20.6987   -8.9854 C   0  0  0  0  0  0  0  0  0  0  0  0
   26.0517  -20.8663   -8.3516 N   0  0  0  0  0  0  0  0  0  0  0  0
   25.0396  -20.3330  -10.3546 N   0  0  0  0  0  0  0  0  0  0  0  0
   23.8908  -19.9971  -11.1313 C   0  0  0  0  0  0  0  0  0  0  0  0
   23.6784  -20.8936  -12.3277 C   0  0  0  0  0  0  0  0  0  0  0  0
   24.9051  -21.0214  -13.1867 C   0  0  0  0  0  0  0  0  0  0  0  0
   24.5503  -21.8929  -14.3761 C   0  0  2  0  0  0  0  0  0  0  0  0
   25.6591  -22.1503  -15.2440 N   0  0  0  0  0  0  0  0  0  0  0  0
   23.4869  -21.1386  -15.1195 C   0  0  0  0  0  0  0  0  0  0  0  0
   23.7695  -20.0584  -15.7093 O   0  0  0  0  0  0  0  0  0  0  0  0
   26.9414  -20.6579   -8.8503 N   0  0  0  0  0  0  0  0  0  0  0  0
   18.6152  -23.5542  -18.3931 C   0  0  0  0  0  0  0  0  0  0  0  0
   18.3519  -22.1287  -18.3182 O   0  0  0  0  0  0  0  0  0  0  0  0
   17.3842  -21.7407  -18.9799 C   0  0  0  0  0  0  0  0  0  0  0  0
   19.1822  -21.2563  -17.5204 C   0  0  0  0  0  0  0  0  0  0  0  0
   20.3337  -21.7996  -16.7854 C   0  0  1  0  0  0  0  0  0  0  0  0
   21.0759  -20.8941  -15.8631 N   0  0  0  0  0  0  0  0  0  0  0  0
   22.1515  -21.6096  -15.1815 C   0  0  0  0  0  0  0  0  0  0  0  0
   20.3001  -20.0759  -14.9429 O   0  0  0  0  0  0  0  0  0  0  0  0
   19.9727  -20.4611  -13.6556 O   0  0  0  0  0  0  0  0  0  0  0  0
  1  2  1  0
  2  3  1  0
  3  5  1  0
  3  4  1  6
  5 15  1  0
  6  5  2  0
  8  7  1  0
  8 10  1  0
  9  8  2  0
 11 10  1  0
 12 11  1  0
 13 12  1  0
 14 13  1  1
 15 14  1  0
 16 14  1  0
 16 24  1  0
 17 16  2  0
 18 19  1  0
 19 21  1  0
 20 19  2  0
 21 22  1  0
 23 24  1  0
 23 22  1  6
 25 23  1  0
 26 25  1  0
 27 25  2  0
M  END
$$$$
