SRQ.pdb
     RDKit          3D

 27 26  0  0  1  0  0  0  0  0999 V2000
   30.0530  -20.5372  -19.4263 O   0  0  0  0  0  0  0  0  0  0  0  0
   28.7355  -20.8927  -19.1514 C   0  0  0  0  0  0  0  0  0  0  0  0
   27.9084  -19.6478  -18.9141 C   0  0  2  0  0  0  0  0  0  0  0  0
   28.7167  -18.5954  -18.3816 N   0  0  0  0  0  0  0  0  0  0  0  0
   26.7554  -19.9229  -18.0179 C   0  0  0  0  0  0  0  0  0  0  0  0
   25.8233  -20.6881  -18.3838 O   0  0  0  0  0  0  0  0  0  0  0  0
   26.5274  -22.4380  -11.1329 N   0  0  0  0  0  0  0  0  0  0  0  0
   25.9707  -21.1497  -10.9062 C   0  0  0  0  0  0  0  0  0  0  0  0
   25.0628  -20.9745  -10.0059 N   0  0  0  0  0  0  0  0  0  0  0  0
   26.3682  -19.9991  -11.6386 N   0  0  0  0  0  0  0  0  0  0  0  0
   27.4644  -20.0273  -12.5516 C   0  0  0  0  0  0  0  0  0  0  0  0
   27.0547  -20.2149  -13.9929 C   0  0  0  0  0  0  0  0  0  0  0  0
   25.8779  -19.3643  -14.3808 C   0  0  0  0  0  0  0  0  0  0  0  0
   25.5608  -19.6467  -15.8368 C   0  0  2  0  0  0  0  0  0  0  0  0
   26.6440  -19.3479  -16.7235 N   0  0  0  0  0  0  0  0  0  0  0  0
   24.3816  -18.7776  -16.1635 C   0  0  0  0  0  0  0  0  0  0  0  0
   24.5393  -17.5396  -16.3557 O   0  0  0  0  0  0  0  0  0  0  0  0
   24.6842  -20.0150   -9.8660 N   0  0  0  0  0  0  0  0  0  0  0  0
   20.0520  -19.8342  -20.4198 C   0  0  0  0  0  0  0  0  0  0  0  0
   19.5194  -18.7123  -19.6683 O   0  0  0  0  0  0  0  0  0  0  0  0
   18.5283  -18.1718  -20.1685 C   0  0  0  0  0  0  0  0  0  0  0  0
   20.1298  -18.2847  -18.4308 C   0  0  0  0  0  0  0  0  0  0  0  0
   21.2890  -19.0086  -17.8889 C   0  0  2  0  0  0  0  0  0  0  0  0
   21.9025  -18.5163  -16.6230 N   0  0  0  0  0  0  0  0  0  0  0  0
   23.0731  -19.3130  -16.2650 C   0  0  0  0  0  0  0  0  0  0  0  0
   21.0256  -18.2974  -15.4823 O   0  0  0  0  0  0  0  0  0  0  0  0
   20.1341  -17.2446  -15.3849 O   0  0  0  0  0  0  0  0  0  0  0  0
  1  2  1  0
  2  3  1  0
  3  5  1  0
  3  4  1  1
  5 15  1  0
  6  5  2  0
  8  7  1  0
  8 10  1  0
  9  8  2  0
 11 10  1  0
 12 11  1  0
 13 12  1  0
 14 13  1  1
 15 14  1  0
 16 14  1  0
 16 24  1  0
 17 16  2  0
 18 19  1  0
 19 21  1  0
 20 19  2  0
 21 22  1  0
 23 24  1  0
 23 22  1  6
 25 23  1  0
 26 25  1  0
 27 25  2  0
M  END
$$$$
