SRQ.pdb
     RDKit          3D

 27 26  0  0  1  0  0  0  0  0999 V2000
   17.1862  -29.7076   -0.6607 O   0  0  0  0  0  0  0  0  0  0  0  0
   16.6983  -28.4788   -1.0966 C   0  0  0  0  0  0  0  0  0  0  0  0
   17.8528  -27.5570   -1.4246 C   0  0  2  0  0  0  0  0  0  0  0  0
   18.3709  -26.9506   -0.2379 N   0  0  0  0  0  0  0  0  0  0  0  0
   17.4567  -26.5177   -2.4100 C   0  0  0  0  0  0  0  0  0  0  0  0
   16.8605  -25.4714   -2.0383 O   0  0  0  0  0  0  0  0  0  0  0  0
   19.2040  -24.6605  -11.1583 N   0  0  0  0  0  0  0  0  0  0  0  0
   18.3498  -23.6770  -10.5891 C   0  0  0  0  0  0  0  0  0  0  0  0
   17.8873  -22.7110  -11.3091 N   0  0  0  0  0  0  0  0  0  0  0  0
   17.9594  -23.6933   -9.2232 N   0  0  0  0  0  0  0  0  0  0  0  0
   18.3925  -24.7155   -8.3268 C   0  0  0  0  0  0  0  0  0  0  0  0
   17.7468  -24.6467   -6.9635 C   0  0  0  0  0  0  0  0  0  0  0  0
   18.1805  -25.7626   -6.0550 C   0  0  0  0  0  0  0  0  0  0  0  0
   17.4447  -25.6023   -4.7386 C   0  0  2  0  0  0  0  0  0  0  0  0
   17.7242  -26.6457   -3.7994 N   0  0  0  0  0  0  0  0  0  0  0  0
   15.9864  -25.6147   -5.0934 C   0  0  0  0  0  0  0  0  0  0  0  0
   15.4224  -26.6952   -5.4231 O   0  0  0  0  0  0  0  0  0  0  0  0
   17.2126  -22.0488  -10.8732 N   0  0  0  0  0  0  0  0  0  0  0  0
   11.9210  -20.5719   -4.1798 C   0  0  0  0  0  0  0  0  0  0  0  0
   12.6065  -20.7047   -5.4525 O   0  0  0  0  0  0  0  0  0  0  0  0
   12.6460  -19.6760   -6.1343 C   0  0  0  0  0  0  0  0  0  0  0  0
   13.1864  -21.9631   -5.8611 C   0  0  0  0  0  0  0  0  0  0  0  0
   13.1649  -23.1177   -4.9513 C   0  0  1  0  0  0  0  0  0  0  0  0
   13.7887  -24.3915   -5.4091 N   0  0  0  0  0  0  0  0  0  0  0  0
   15.2086  -24.4299   -5.0691 C   0  0  0  0  0  0  0  0  0  0  0  0
   13.5477  -24.8121   -6.7814 O   0  0  0  0  0  0  0  0  0  0  0  0
   14.4934  -24.7412   -7.7879 O   0  0  0  0  0  0  0  0  0  0  0  0
  1  2  1  0
  2  3  1  0
  3  5  1  0
  3  4  1  1
  5 15  1  0
  6  5  2  0
  8  7  1  0
  8 10  1  0
  9  8  2  0
 11 10  1  0
 12 11  1  0
 13 12  1  0
 14 13  1  6
 15 14  1  0
 16 14  1  0
 16 24  1  0
 17 16  2  0
 18 19  1  0
 19 21  1  0
 20 19  2  0
 21 22  1  0
 23 24  1  0
 23 22  1  1
 25 23  1  0
 26 25  1  0
 27 25  2  0
M  END
$$$$
