SRQ.pdb
     RDKit          3D

 27 26  0  0  1  0  0  0  0  0999 V2000
   27.6667  -21.6598  -15.5139 O   0  0  0  0  0  0  0  0  0  0  0  0
   26.3125  -21.6761  -15.8360 C   0  0  0  0  0  0  0  0  0  0  0  0
   25.5474  -20.7914  -14.8756 C   0  0  2  0  0  0  0  0  0  0  0  0
   26.0332  -20.9524  -13.5406 N   0  0  0  0  0  0  0  0  0  0  0  0
   24.0870  -21.0597  -14.9340 C   0  0  0  0  0  0  0  0  0  0  0  0
   23.4798  -21.0824  -16.0382 O   0  0  0  0  0  0  0  0  0  0  0  0
   19.6197  -25.7640  -13.2167 N   0  0  0  0  0  0  0  0  0  0  0  0
   19.6477  -25.5786  -11.8075 C   0  0  0  0  0  0  0  0  0  0  0  0
   19.4386  -26.5708  -11.0091 N   0  0  0  0  0  0  0  0  0  0  0  0
   19.9016  -24.3192  -11.2011 N   0  0  0  0  0  0  0  0  0  0  0  0
   19.2334  -23.1308  -11.6220 C   0  0  0  0  0  0  0  0  0  0  0  0
   19.8886  -22.4446  -12.7969 C   0  0  0  0  0  0  0  0  0  0  0  0
   21.3258  -22.0891  -12.5382 C   0  0  0  0  0  0  0  0  0  0  0  0
   21.8928  -21.4918  -13.8117 C   0  0  2  0  0  0  0  0  0  0  0  0
   23.3108  -21.3007  -13.7687 N   0  0  0  0  0  0  0  0  0  0  0  0
   21.2058  -20.1669  -13.9706 C   0  0  0  0  0  0  0  0  0  0  0  0
   21.5812  -19.1715  -13.2904 O   0  0  0  0  0  0  0  0  0  0  0  0
   19.4967  -26.4009   -9.9837 N   0  0  0  0  0  0  0  0  0  0  0  0
   23.3801  -17.6546  -18.1417 C   0  0  0  0  0  0  0  0  0  0  0  0
   22.2545  -16.7545  -17.9689 O   0  0  0  0  0  0  0  0  0  0  0  0
   22.3512  -15.6770  -18.5642 C   0  0  0  0  0  0  0  0  0  0  0  0
   21.1216  -17.1230  -17.1520 C   0  0  0  0  0  0  0  0  0  0  0  0
   21.1426  -18.3733  -16.3789 C   0  0  2  0  0  0  0  0  0  0  0  0
   19.9091  -18.7713  -15.6429 N   0  0  0  0  0  0  0  0  0  0  0  0
   20.1295  -19.9952  -14.8768 C   0  0  0  0  0  0  0  0  0  0  0  0
   18.6579  -18.8134  -16.3850 O   0  0  0  0  0  0  0  0  0  0  0  0
   17.9546  -17.6890  -16.7767 O   0  0  0  0  0  0  0  0  0  0  0  0
  1  2  1  0
  2  3  1  0
  3  5  1  0
  3  4  1  1
  5 15  1  0
  6  5  2  0
  8  7  1  0
  8 10  1  0
  9  8  2  0
 11 10  1  0
 12 11  1  0
 13 12  1  0
 14 13  1  1
 15 14  1  0
 16 14  1  0
 16 24  1  0
 17 16  2  0
 18 19  1  0
 19 21  1  0
 20 19  2  0
 21 22  1  0
 23 24  1  0
 23 22  1  1
 25 23  1  0
 26 25  1  0
 27 25  2  0
M  END
$$$$
