SRQ.pdb
     RDKit          3D

 27 26  0  0  1  0  0  0  0  0999 V2000
   25.5549  -29.9357  -16.9960 O   0  0  0  0  0  0  0  0  0  0  0  0
   25.6003  -28.7414  -16.2822 C   0  0  0  0  0  0  0  0  0  0  0  0
   26.9213  -28.0463  -16.5313 C   0  0  2  0  0  0  0  0  0  0  0  0
   27.9651  -28.6494  -15.7626 N   0  0  0  0  0  0  0  0  0  0  0  0
   26.8344  -26.5917  -16.2403 C   0  0  0  0  0  0  0  0  0  0  0  0
   26.7952  -26.1737  -15.0520 O   0  0  0  0  0  0  0  0  0  0  0  0
   30.8638  -25.1007  -18.1385 N   0  0  0  0  0  0  0  0  0  0  0  0
   31.0377  -24.5093  -16.8574 C   0  0  0  0  0  0  0  0  0  0  0  0
   31.6621  -25.1404  -15.9208 N   0  0  0  0  0  0  0  0  0  0  0  0
   30.5468  -23.2162  -16.5330 N   0  0  0  0  0  0  0  0  0  0  0  0
   29.7812  -22.4457  -17.4582 C   0  0  0  0  0  0  0  0  0  0  0  0
   28.3075  -22.3883  -17.1336 C   0  0  0  0  0  0  0  0  0  0  0  0
   27.4916  -23.3493  -17.9518 C   0  0  0  0  0  0  0  0  0  0  0  0
   26.6903  -24.2102  -16.9944 C   0  0  2  0  0  0  0  0  0  0  0  0
   26.7917  -25.6116  -17.2680 N   0  0  0  0  0  0  0  0  0  0  0  0
   25.2664  -23.7629  -17.1528 C   0  0  0  0  0  0  0  0  0  0  0  0
   24.5835  -24.1559  -18.1395 O   0  0  0  0  0  0  0  0  0  0  0  0
   31.6949  -24.7117  -14.9727 N   0  0  0  0  0  0  0  0  0  0  0  0
   20.4755  -24.7149  -13.7753 C   0  0  0  0  0  0  0  0  0  0  0  0
   20.0506  -23.5180  -14.4782 O   0  0  0  0  0  0  0  0  0  0  0  0
   18.8708  -23.1994  -14.3013 C   0  0  0  0  0  0  0  0  0  0  0  0
   20.9660  -22.7790  -15.3165 C   0  0  0  0  0  0  0  0  0  0  0  0
   22.3872  -23.1519  -15.3680 C   0  0  1  0  0  0  0  0  0  0  0  0
   23.2736  -22.4322  -16.3260 N   0  0  0  0  0  0  0  0  0  0  0  0
   24.6533  -22.8977  -16.2122 C   0  0  0  0  0  0  0  0  0  0  0  0
   23.1926  -20.9797  -16.3679 O   0  0  0  0  0  0  0  0  0  0  0  0
   22.0991  -20.2811  -16.8461 O   0  0  0  0  0  0  0  0  0  0  0  0
  1  2  1  0
  2  3  1  0
  3  5  1  0
  3  4  1  1
  5 15  1  0
  6  5  2  0
  8  7  1  0
  8 10  1  0
  9  8  2  0
 11 10  1  0
 12 11  1  0
 13 12  1  0
 14 13  1  6
 15 14  1  0
 16 14  1  0
 16 24  1  0
 17 16  2  0
 18 19  1  0
 19 21  1  0
 20 19  2  0
 21 22  1  0
 23 24  1  0
 23 22  1  6
 25 23  1  0
 26 25  1  0
 27 25  2  0
M  END
$$$$
