SRQ.pdb
     RDKit          3D

 27 26  0  0  1  0  0  0  0  0999 V2000
   26.0107  -13.1624  -15.4923 O   0  0  0  0  0  0  0  0  0  0  0  0
   25.4162  -12.0332  -16.0486 C   0  0  0  0  0  0  0  0  0  0  0  0
   25.1476  -12.2683  -17.5192 C   0  0  2  0  0  0  0  0  0  0  0  0
   26.3723  -12.4291  -18.2394 N   0  0  0  0  0  0  0  0  0  0  0  0
   24.3384  -11.1695  -18.1073 C   0  0  0  0  0  0  0  0  0  0  0  0
   24.8922  -10.1287  -18.5527 O   0  0  0  0  0  0  0  0  0  0  0  0
   18.5401  -11.1918  -15.3904 N   0  0  0  0  0  0  0  0  0  0  0  0
   18.1954  -12.4922  -15.8500 C   0  0  0  0  0  0  0  0  0  0  0  0
   17.7036  -13.3676  -15.0392 N   0  0  0  0  0  0  0  0  0  0  0  0
   18.3659  -12.9026  -17.1993 N   0  0  0  0  0  0  0  0  0  0  0  0
   18.8381  -12.0084  -18.2060 C   0  0  0  0  0  0  0  0  0  0  0  0
   20.2124  -11.4472  -17.9293 C   0  0  0  0  0  0  0  0  0  0  0  0
   20.7046  -10.5419  -19.0234 C   0  0  0  0  0  0  0  0  0  0  0  0
   22.1310  -10.1469  -18.6927 C   0  0  2  0  0  0  0  0  0  0  0  0
   22.9219  -11.2323  -18.1972 N   0  0  0  0  0  0  0  0  0  0  0  0
   22.0160   -9.0807  -17.6427 C   0  0  0  0  0  0  0  0  0  0  0  0
   22.3119   -9.3374  -16.4423 O   0  0  0  0  0  0  0  0  0  0  0  0
   17.4102  -14.2888  -15.4251 N   0  0  0  0  0  0  0  0  0  0  0  0
   22.5497   -6.7755  -13.4859 C   0  0  0  0  0  0  0  0  0  0  0  0
   22.8711   -5.4796  -14.0556 O   0  0  0  0  0  0  0  0  0  0  0  0
   22.9650   -4.5585  -13.2385 C   0  0  0  0  0  0  0  0  0  0  0  0
   23.0588   -5.3145  -15.4784 C   0  0  0  0  0  0  0  0  0  0  0  0
   22.8822   -6.4581  -16.3853 C   0  0  1  0  0  0  0  0  0  0  0  0
   21.5405   -6.6761  -16.9967 N   0  0  0  0  0  0  0  0  0  0  0  0
   21.5779   -7.7711  -17.9625 C   0  0  0  0  0  0  0  0  0  0  0  0
   20.8343   -5.5157  -17.5190 O   0  0  0  0  0  0  0  0  0  0  0  0
   20.0444   -4.6817  -16.7489 O   0  0  0  0  0  0  0  0  0  0  0  0
  1  2  1  0
  2  3  1  0
  3  5  1  0
  3  4  1  6
  5 15  1  0
  6  5  2  0
  8  7  1  0
  8 10  1  0
  9  8  2  0
 11 10  1  0
 12 11  1  0
 13 12  1  0
 14 13  1  1
 15 14  1  0
 16 14  1  0
 16 24  1  0
 17 16  2  0
 18 19  1  0
 19 21  1  0
 20 19  2  0
 21 22  1  0
 23 24  1  0
 23 22  1  1
 25 23  1  0
 26 25  1  0
 27 25  2  0
M  END
$$$$
