SRQ.pdb
     RDKit          3D

 27 26  0  0  1  0  0  0  0  0999 V2000
   25.8761  -18.0205  -15.9914 O   0  0  0  0  0  0  0  0  0  0  0  0
   27.1665  -18.2737  -15.5346 C   0  0  0  0  0  0  0  0  0  0  0  0
   27.4541  -19.7575  -15.6104 C   0  0  2  0  0  0  0  0  0  0  0  0
   27.6404  -20.1697  -16.9668 N   0  0  0  0  0  0  0  0  0  0  0  0
   26.3772  -20.5544  -14.9675 C   0  0  0  0  0  0  0  0  0  0  0  0
   25.4732  -21.0934  -15.6607 O   0  0  0  0  0  0  0  0  0  0  0  0
   29.0261  -22.6212   -9.9781 N   0  0  0  0  0  0  0  0  0  0  0  0
   29.1586  -21.2892   -9.4994 C   0  0  0  0  0  0  0  0  0  0  0  0
   30.3242  -20.7528   -9.3605 N   0  0  0  0  0  0  0  0  0  0  0  0
   28.0431  -20.4814   -9.1510 N   0  0  0  0  0  0  0  0  0  0  0  0
   26.7048  -20.8707   -9.4566 C   0  0  0  0  0  0  0  0  0  0  0  0
   26.3132  -20.6351  -10.8959 C   0  0  0  0  0  0  0  0  0  0  0  0
   25.4877  -21.7538  -11.4670 C   0  0  0  0  0  0  0  0  0  0  0  0
   25.2297  -21.4411  -12.9284 C   0  0  2  0  0  0  0  0  0  0  0  0
   26.3102  -20.7477  -13.5615 N   0  0  0  0  0  0  0  0  0  0  0  0
   23.9982  -20.5832  -12.9408 C   0  0  0  0  0  0  0  0  0  0  0  0
   24.0753  -19.3577  -12.6464 O   0  0  0  0  0  0  0  0  0  0  0  0
   30.3857  -19.8109   -8.9217 N   0  0  0  0  0  0  0  0  0  0  0  0
   19.3102  -20.9840  -17.1500 C   0  0  0  0  0  0  0  0  0  0  0  0
   18.8069  -20.0819  -16.1302 O   0  0  0  0  0  0  0  0  0  0  0  0
   17.7216  -19.5533  -16.3900 C   0  0  0  0  0  0  0  0  0  0  0  0
   19.5478  -19.8413  -14.9136 C   0  0  0  0  0  0  0  0  0  0  0  0
   20.7903  -20.5801  -14.6460 C   0  0  2  0  0  0  0  0  0  0  0  0
   21.5158  -20.3074  -13.3728 N   0  0  0  0  0  0  0  0  0  0  0  0
   22.7288  -21.1154  -13.2790 C   0  0  0  0  0  0  0  0  0  0  0  0
   20.7504  -20.3317  -12.1352 O   0  0  0  0  0  0  0  0  0  0  0  0
   19.9889  -19.2719  -11.6776 O   0  0  0  0  0  0  0  0  0  0  0  0
  1  2  1  0
  2  3  1  0
  3  5  1  0
  3  4  1  6
  5 15  1  0
  6  5  2  0
  8  7  1  0
  8 10  1  0
  9  8  2  0
 11 10  1  0
 12 11  1  0
 13 12  1  0
 14 13  1  1
 15 14  1  0
 16 14  1  0
 16 24  1  0
 17 16  2  0
 18 19  1  0
 19 21  1  0
 20 19  2  0
 21 22  1  0
 23 24  1  0
 23 22  1  6
 25 23  1  0
 26 25  1  0
 27 25  2  0
M  END
$$$$
