SRQ.pdb
     RDKit          3D

 27 26  0  0  1  0  0  0  0  0999 V2000
   26.0535  -16.8063  -17.5673 O   0  0  0  0  0  0  0  0  0  0  0  0
   25.7789  -17.9180  -16.7756 C   0  0  0  0  0  0  0  0  0  0  0  0
   26.8789  -18.9449  -16.9364 C   0  0  2  0  0  0  0  0  0  0  0  0
   26.6966  -19.7000  -18.1368 N   0  0  0  0  0  0  0  0  0  0  0  0
   26.9561  -19.8489  -15.7595 C   0  0  0  0  0  0  0  0  0  0  0  0
   26.1308  -20.7903  -15.6151 O   0  0  0  0  0  0  0  0  0  0  0  0
   32.0503  -22.3051   -8.6340 N   0  0  0  0  0  0  0  0  0  0  0  0
   32.1482  -22.4697  -10.0426 C   0  0  0  0  0  0  0  0  0  0  0  0
   32.9838  -23.3121  -10.5501 N   0  0  0  0  0  0  0  0  0  0  0  0
   31.3515  -21.7349  -10.9611 N   0  0  0  0  0  0  0  0  0  0  0  0
   30.2365  -20.9529  -10.5355 C   0  0  0  0  0  0  0  0  0  0  0  0
   29.0344  -21.0576  -11.4435 C   0  0  0  0  0  0  0  0  0  0  0  0
   29.2455  -20.3863  -12.7715 C   0  0  0  0  0  0  0  0  0  0  0  0
   27.9490  -20.4836  -13.5523 C   0  0  2  0  0  0  0  0  0  0  0  0
   27.9469  -19.7026  -14.7519 N   0  0  0  0  0  0  0  0  0  0  0  0
   26.8839  -19.9856  -12.6194 C   0  0  0  0  0  0  0  0  0  0  0  0
   26.7944  -18.7534  -12.3581 O   0  0  0  0  0  0  0  0  0  0  0  0
   33.0620  -23.3673  -11.5867 N   0  0  0  0  0  0  0  0  0  0  0  0
   20.8666  -21.1465  -12.8263 C   0  0  0  0  0  0  0  0  0  0  0  0
   21.0381  -20.5105  -11.5328 O   0  0  0  0  0  0  0  0  0  0  0  0
   19.9888  -20.2066  -10.9568 C   0  0  0  0  0  0  0  0  0  0  0  0
   22.3538  -20.2641  -10.9898 C   0  0  0  0  0  0  0  0  0  0  0  0
   23.5503  -20.7072  -11.7202 C   0  0  2  0  0  0  0  0  0  0  0  0
   24.8874  -20.4308  -11.1224 N   0  0  0  0  0  0  0  0  0  0  0  0
   25.9588  -20.8712  -12.0120 C   0  0  0  0  0  0  0  0  0  0  0  0
   25.1173  -20.8489   -9.7475 O   0  0  0  0  0  0  0  0  0  0  0  0
   25.9203  -21.9164   -9.3893 O   0  0  0  0  0  0  0  0  0  0  0  0
  1  2  1  0
  2  3  1  0
  3  5  1  0
  3  4  1  6
  5 15  1  0
  6  5  2  0
  8  7  1  0
  8 10  1  0
  9  8  2  0
 11 10  1  0
 12 11  1  0
 13 12  1  0
 14 13  1  1
 15 14  1  0
 16 14  1  0
 16 24  1  0
 17 16  2  0
 18 19  1  0
 19 21  1  0
 20 19  2  0
 21 22  1  0
 23 24  1  0
 23 22  1  6
 25 23  1  0
 26 25  1  0
 27 25  2  0
M  END
$$$$
