SRQ.pdb
     RDKit          3D

 27 26  0  0  1  0  0  0  0  0999 V2000
   24.7615  -10.5828  -14.4876 O   0  0  0  0  0  0  0  0  0  0  0  0
   23.6330   -9.8889  -14.9155 C   0  0  0  0  0  0  0  0  0  0  0  0
   22.7136  -10.8237  -15.6712 C   0  0  2  0  0  0  0  0  0  0  0  0
   23.2814  -11.1836  -16.9332 N   0  0  0  0  0  0  0  0  0  0  0  0
   21.3652  -10.2278  -15.8580 C   0  0  0  0  0  0  0  0  0  0  0  0
   21.0913   -9.5664  -16.8952 O   0  0  0  0  0  0  0  0  0  0  0  0
   12.8617  -11.9853  -13.6140 N   0  0  0  0  0  0  0  0  0  0  0  0
   12.9440  -10.7053  -14.2270 C   0  0  0  0  0  0  0  0  0  0  0  0
   11.8747  -10.0755  -14.5812 N   0  0  0  0  0  0  0  0  0  0  0  0
   14.1792  -10.0521  -14.4835 N   0  0  0  0  0  0  0  0  0  0  0  0
   15.4324  -10.6567  -14.1675 C   0  0  0  0  0  0  0  0  0  0  0  0
   16.6287   -9.8747  -14.6551 C   0  0  0  0  0  0  0  0  0  0  0  0
   17.9342  -10.5537  -14.3495 C   0  0  0  0  0  0  0  0  0  0  0  0
   19.0327   -9.7910  -15.0647 C   0  0  2  0  0  0  0  0  0  0  0  0
   20.3310  -10.3692  -14.8942 N   0  0  0  0  0  0  0  0  0  0  0  0
   19.0090   -8.4112  -14.4744 C   0  0  0  0  0  0  0  0  0  0  0  0
   19.3986   -8.2214  -13.2884 O   0  0  0  0  0  0  0  0  0  0  0  0
   11.9739   -9.1207  -14.9841 N   0  0  0  0  0  0  0  0  0  0  0  0
   22.1778   -3.7102  -16.0309 C   0  0  0  0  0  0  0  0  0  0  0  0
   21.1903   -3.0983  -15.1605 O   0  0  0  0  0  0  0  0  0  0  0  0
   21.4175   -1.9229  -14.8580 C   0  0  0  0  0  0  0  0  0  0  0  0
   20.0395   -3.8394  -14.6990 C   0  0  0  0  0  0  0  0  0  0  0  0
   19.8495   -5.2394  -15.1056 C   0  0  1  0  0  0  0  0  0  0  0  0
   18.5840   -5.9241  -14.7167 N   0  0  0  0  0  0  0  0  0  0  0  0
   18.5552   -7.2947  -15.2204 C   0  0  0  0  0  0  0  0  0  0  0  0
   17.3302   -5.2281  -14.9650 O   0  0  0  0  0  0  0  0  0  0  0  0
   16.8778   -4.1602  -14.2117 O   0  0  0  0  0  0  0  0  0  0  0  0
  1  2  1  0
  2  3  1  0
  3  5  1  0
  3  4  1  6
  5 15  1  0
  6  5  2  0
  8  7  1  0
  8 10  1  0
  9  8  2  0
 11 10  1  0
 12 11  1  0
 13 12  1  0
 14 13  1  1
 15 14  1  0
 16 14  1  0
 16 24  1  0
 17 16  2  0
 18 19  1  0
 19 21  1  0
 20 19  2  0
 21 22  1  0
 23 24  1  0
 23 22  1  1
 25 23  1  0
 26 25  1  0
 27 25  2  0
M  END
$$$$
