SRQ.pdb
     RDKit          3D

 27 26  0  0  1  0  0  0  0  0999 V2000
   21.2272  -22.2911  -11.2628 O   0  0  0  0  0  0  0  0  0  0  0  0
   21.1432  -21.5611  -10.0804 C   0  0  0  0  0  0  0  0  0  0  0  0
   22.5030  -20.9969   -9.7296 C   0  0  2  0  0  0  0  0  0  0  0  0
   22.4463  -20.2598   -8.5058 N   0  0  0  0  0  0  0  0  0  0  0  0
   23.0388  -20.1473  -10.8247 C   0  0  0  0  0  0  0  0  0  0  0  0
   22.5081  -19.0372  -11.0973 O   0  0  0  0  0  0  0  0  0  0  0  0
   26.9442  -19.2765  -17.4003 N   0  0  0  0  0  0  0  0  0  0  0  0
   27.7307  -18.1966  -16.9142 C   0  0  0  0  0  0  0  0  0  0  0  0
   28.0311  -17.2038  -17.6820 N   0  0  0  0  0  0  0  0  0  0  0  0
   28.2253  -18.1417  -15.5836 N   0  0  0  0  0  0  0  0  0  0  0  0
   27.8502  -19.1038  -14.5989 C   0  0  0  0  0  0  0  0  0  0  0  0
   26.3922  -19.0441  -14.2103 C   0  0  0  0  0  0  0  0  0  0  0  0
   26.0421  -20.0034  -13.1076 C   0  0  0  0  0  0  0  0  0  0  0  0
   24.5772  -19.8063  -12.7684 C   0  0  2  0  0  0  0  0  0  0  0  0
   24.1582  -20.5343  -11.6093 N   0  0  0  0  0  0  0  0  0  0  0  0
   23.8212  -20.2880  -13.9722 C   0  0  0  0  0  0  0  0  0  0  0  0
   23.6646  -21.5252  -14.1702 O   0  0  0  0  0  0  0  0  0  0  0  0
   28.6588  -16.4622  -17.3083 N   0  0  0  0  0  0  0  0  0  0  0  0
   18.6502  -21.1626  -13.3405 C   0  0  0  0  0  0  0  0  0  0  0  0
   18.8412  -21.5497  -14.7264 O   0  0  0  0  0  0  0  0  0  0  0  0
   17.9403  -22.2469  -15.2029 C   0  0  0  0  0  0  0  0  0  0  0  0
   20.0117  -21.1341  -15.4638 C   0  0  0  0  0  0  0  0  0  0  0  0
   20.9854  -20.2186  -14.8513 C   0  0  2  0  0  0  0  0  0  0  0  0
   22.0774  -19.6716  -15.7056 N   0  0  0  0  0  0  0  0  0  0  0  0
   23.2675  -19.3811  -14.9103 C   0  0  0  0  0  0  0  0  0  0  0  0
   21.7505  -18.5807  -16.6117 O   0  0  0  0  0  0  0  0  0  0  0  0
   21.2376  -18.7608  -17.8833 O   0  0  0  0  0  0  0  0  0  0  0  0
  1  2  1  0
  2  3  1  0
  3  5  1  0
  3  4  1  1
  5 15  1  0
  6  5  2  0
  8  7  1  0
  8 10  1  0
  9  8  2  0
 11 10  1  0
 12 11  1  0
 13 12  1  0
 14 13  1  6
 15 14  1  0
 16 14  1  0
 16 24  1  0
 17 16  2  0
 18 19  1  0
 19 21  1  0
 20 19  2  0
 21 22  1  0
 23 24  1  0
 23 22  1  6
 25 23  1  0
 26 25  1  0
 27 25  2  0
M  END
$$$$
