SRQ.pdb
     RDKit          3D

 27 26  0  0  1  0  0  0  0  0999 V2000
   24.0100  -13.2788  -14.8091 O   0  0  0  0  0  0  0  0  0  0  0  0
   25.3644  -13.5196  -14.5956 C   0  0  0  0  0  0  0  0  0  0  0  0
   25.9949  -14.0551  -15.8628 C   0  0  2  0  0  0  0  0  0  0  0  0
   25.7813  -13.1569  -16.9546 N   0  0  0  0  0  0  0  0  0  0  0  0
   25.4828  -15.4098  -16.1953 C   0  0  0  0  0  0  0  0  0  0  0  0
   24.5809  -15.5627  -17.0621 O   0  0  0  0  0  0  0  0  0  0  0  0
   29.1877  -23.3572  -16.2070 N   0  0  0  0  0  0  0  0  0  0  0  0
   29.0941  -22.2823  -17.1326 C   0  0  0  0  0  0  0  0  0  0  0  0
   29.9643  -22.1491  -18.0763 N   0  0  0  0  0  0  0  0  0  0  0  0
   28.0614  -21.3082  -17.0799 N   0  0  0  0  0  0  0  0  0  0  0  0
   26.9754  -21.4089  -16.1600 C   0  0  0  0  0  0  0  0  0  0  0  0
   25.9957  -20.2627  -16.2431 C   0  0  0  0  0  0  0  0  0  0  0  0
   26.5565  -18.9752  -15.7076 C   0  0  0  0  0  0  0  0  0  0  0  0
   25.5107  -17.8951  -15.9064 C   0  0  2  0  0  0  0  0  0  0  0  0
   25.9740  -16.5844  -15.5648 N   0  0  0  0  0  0  0  0  0  0  0  0
   24.3669  -18.2788  -15.0136 C   0  0  0  0  0  0  0  0  0  0  0  0
   24.4973  -18.2303  -13.7586 O   0  0  0  0  0  0  0  0  0  0  0  0
   29.8607  -21.3496  -18.7349 N   0  0  0  0  0  0  0  0  0  0  0  0
   18.6936  -17.1233  -12.7057 C   0  0  0  0  0  0  0  0  0  0  0  0
   18.8593  -17.2594  -14.1414 O   0  0  0  0  0  0  0  0  0  0  0  0
   18.4816  -16.2891  -14.8052 C   0  0  0  0  0  0  0  0  0  0  0  0
   19.4261  -18.4566  -14.7179 C   0  0  0  0  0  0  0  0  0  0  0  0
   20.7128  -18.3987  -15.4268 C   0  0  2  0  0  0  0  0  0  0  0  0
   21.9280  -18.9089  -14.7308 N   0  0  0  0  0  0  0  0  0  0  0  0
   23.1226  -18.7012  -15.5450 C   0  0  0  0  0  0  0  0  0  0  0  0
   21.8785  -20.2520  -14.1725 O   0  0  0  0  0  0  0  0  0  0  0  0
   22.4597  -21.3570  -14.7671 O   0  0  0  0  0  0  0  0  0  0  0  0
  1  2  1  0
  2  3  1  0
  3  5  1  0
  3  4  1  6
  5 15  1  0
  6  5  2  0
  8  7  1  0
  8 10  1  0
  9  8  2  0
 11 10  1  0
 12 11  1  0
 13 12  1  0
 14 13  1  1
 15 14  1  0
 16 14  1  0
 16 24  1  0
 17 16  2  0
 18 19  1  0
 19 21  1  0
 20 19  2  0
 21 22  1  0
 23 24  1  0
 23 22  1  1
 25 23  1  0
 26 25  1  0
 27 25  2  0
M  END
$$$$
