SRQ.pdb
     RDKit          3D

 27 26  0  0  1  0  0  0  0  0999 V2000
   16.8445  -21.3022   -9.7493 O   0  0  0  0  0  0  0  0  0  0  0  0
   18.1861  -21.6073   -9.9614 C   0  0  0  0  0  0  0  0  0  0  0  0
   18.3002  -22.9048  -10.7318 C   0  0  2  0  0  0  0  0  0  0  0  0
   17.6609  -22.7963  -12.0061 N   0  0  0  0  0  0  0  0  0  0  0  0
   17.7384  -24.0456   -9.9631 C   0  0  0  0  0  0  0  0  0  0  0  0
   16.4927  -24.2216   -9.8894 O   0  0  0  0  0  0  0  0  0  0  0  0
   21.0533  -31.5254  -10.4756 N   0  0  0  0  0  0  0  0  0  0  0  0
   21.4480  -30.2192  -10.0768 C   0  0  0  0  0  0  0  0  0  0  0  0
   22.6960  -29.9253   -9.9292 N   0  0  0  0  0  0  0  0  0  0  0  0
   20.5165  -29.1776   -9.8207 N   0  0  0  0  0  0  0  0  0  0  0  0
   19.1230  -29.3292  -10.0871 C   0  0  0  0  0  0  0  0  0  0  0  0
   18.3047  -28.0974   -9.7814 C   0  0  0  0  0  0  0  0  0  0  0  0
   18.8190  -27.3350   -8.5927 C   0  0  0  0  0  0  0  0  0  0  0  0
   18.0254  -26.0468   -8.4887 C   0  0  2  0  0  0  0  0  0  0  0  0
   18.5611  -24.9825   -9.2820 N   0  0  0  0  0  0  0  0  0  0  0  0
   18.0671  -25.6694   -7.0366 C   0  0  0  0  0  0  0  0  0  0  0  0
   19.0099  -24.9562   -6.5929 O   0  0  0  0  0  0  0  0  0  0  0  0
   22.9436  -28.9647   -9.6139 N   0  0  0  0  0  0  0  0  0  0  0  0
   13.7006  -22.8902   -3.9025 C   0  0  0  0  0  0  0  0  0  0  0  0
   14.6205  -23.3000   -2.8571 O   0  0  0  0  0  0  0  0  0  0  0  0
   14.4361  -22.7648   -1.7596 C   0  0  0  0  0  0  0  0  0  0  0  0
   15.6649  -24.2638   -3.1163 C   0  0  0  0  0  0  0  0  0  0  0  0
   15.8218  -24.8413   -4.4592 C   0  0  2  0  0  0  0  0  0  0  0  0
   17.0169  -25.6898   -4.7297 N   0  0  0  0  0  0  0  0  0  0  0  0
   17.0630  -26.0961   -6.1318 C   0  0  0  0  0  0  0  0  0  0  0  0
   17.2757  -26.8060   -3.8324 O   0  0  0  0  0  0  0  0  0  0  0  0
   17.8074  -26.6688   -2.5631 O   0  0  0  0  0  0  0  0  0  0  0  0
  1  2  1  0
  2  3  1  0
  3  5  1  0
  3  4  1  6
  5 15  1  0
  6  5  2  0
  8  7  1  0
  8 10  1  0
  9  8  2  0
 11 10  1  0
 12 11  1  0
 13 12  1  0
 14 13  1  1
 15 14  1  0
 16 14  1  0
 16 24  1  0
 17 16  2  0
 18 19  1  0
 19 21  1  0
 20 19  2  0
 21 22  1  0
 23 24  1  0
 23 22  1  6
 25 23  1  0
 26 25  1  0
 27 25  2  0
M  END
$$$$
