SRQ.pdb
     RDKit          3D

 27 26  0  0  1  0  0  0  0  0999 V2000
   11.8321  -12.9079  -12.5337 O   0  0  0  0  0  0  0  0  0  0  0  0
   12.7790  -12.1707  -11.8282 C   0  0  0  0  0  0  0  0  0  0  0  0
   14.1475  -12.3761  -12.4407 C   0  0  2  0  0  0  0  0  0  0  0  0
   14.6171  -13.7050  -12.1999 N   0  0  0  0  0  0  0  0  0  0  0  0
   15.1258  -11.3787  -11.9345 C   0  0  0  0  0  0  0  0  0  0  0  0
   15.5679  -11.4503  -10.7565 O   0  0  0  0  0  0  0  0  0  0  0  0
   19.7423  -11.6216  -16.4234 N   0  0  0  0  0  0  0  0  0  0  0  0
   18.9378  -10.5873  -16.9747 C   0  0  0  0  0  0  0  0  0  0  0  0
   18.3562  -10.7438  -18.1161 N   0  0  0  0  0  0  0  0  0  0  0  0
   18.7271   -9.3439  -16.3206 N   0  0  0  0  0  0  0  0  0  0  0  0
   19.2466   -9.0788  -15.0184 C   0  0  0  0  0  0  0  0  0  0  0  0
   18.4139   -9.6563  -13.8989 C   0  0  0  0  0  0  0  0  0  0  0  0
   17.3555   -8.7080  -13.4094 C   0  0  0  0  0  0  0  0  0  0  0  0
   16.6056   -9.3911  -12.2821 C   0  0  2  0  0  0  0  0  0  0  0  0
   15.6066  -10.3097  -12.7374 N   0  0  0  0  0  0  0  0  0  0  0  0
   15.9598   -8.2821  -11.5038 C   0  0  0  0  0  0  0  0  0  0  0  0
   14.8051   -7.8769  -11.8151 O   0  0  0  0  0  0  0  0  0  0  0  0
   17.7534   -9.9740  -18.4733 N   0  0  0  0  0  0  0  0  0  0  0  0
   11.9481   -6.9806   -8.6019 C   0  0  0  0  0  0  0  0  0  0  0  0
   12.7961   -6.1951   -7.7239 O   0  0  0  0  0  0  0  0  0  0  0  0
   12.1933   -5.4661   -6.9301 C   0  0  0  0  0  0  0  0  0  0  0  0
   14.2360   -6.2823   -7.8012 C   0  0  0  0  0  0  0  0  0  0  0  0
   14.8716   -7.1596   -8.7950 C   0  0  1  0  0  0  0  0  0  0  0  0
   16.0098   -6.6193   -9.5912 N   0  0  0  0  0  0  0  0  0  0  0  0
   16.6175   -7.6647  -10.4104 C   0  0  0  0  0  0  0  0  0  0  0  0
   17.0109   -5.8252   -8.8944 O   0  0  0  0  0  0  0  0  0  0  0  0
   16.7901   -4.5426   -8.4268 O   0  0  0  0  0  0  0  0  0  0  0  0
  1  2  1  0
  2  3  1  0
  3  5  1  0
  3  4  1  1
  5 15  1  0
  6  5  2  0
  8  7  1  0
  8 10  1  0
  9  8  2  0
 11 10  1  0
 12 11  1  0
 13 12  1  0
 14 13  1  6
 15 14  1  0
 16 14  1  0
 16 24  1  0
 17 16  2  0
 18 19  1  0
 19 21  1  0
 20 19  2  0
 21 22  1  0
 23 24  1  0
 23 22  1  6
 25 23  1  0
 26 25  1  0
 27 25  2  0
M  END
$$$$
