SRQ.pdb
     RDKit          3D

 27 26  0  0  1  0  0  0  0  0999 V2000
   24.3684  -14.0162  -18.0760 O   0  0  0  0  0  0  0  0  0  0  0  0
   23.7510  -15.2588  -18.1888 C   0  0  0  0  0  0  0  0  0  0  0  0
   24.7323  -16.3525  -17.8269 C   0  0  2  0  0  0  0  0  0  0  0  0
   25.6081  -16.6314  -18.9222 N   0  0  0  0  0  0  0  0  0  0  0  0
   24.0329  -17.5892  -17.3916 C   0  0  0  0  0  0  0  0  0  0  0  0
   23.4420  -18.3235  -18.2281 O   0  0  0  0  0  0  0  0  0  0  0  0
   23.6275  -24.5099  -15.0524 N   0  0  0  0  0  0  0  0  0  0  0  0
   24.9462  -23.9885  -14.9520 C   0  0  0  0  0  0  0  0  0  0  0  0
   25.8942  -24.4487  -15.6971 N   0  0  0  0  0  0  0  0  0  0  0  0
   25.2978  -22.9518  -14.0465 N   0  0  0  0  0  0  0  0  0  0  0  0
   24.3112  -22.1797  -13.3636 C   0  0  0  0  0  0  0  0  0  0  0  0
   23.5153  -21.2682  -14.2670 C   0  0  0  0  0  0  0  0  0  0  0  0
   24.2631  -20.0194  -14.6417 C   0  0  0  0  0  0  0  0  0  0  0  0
   23.4048  -19.2400  -15.6193 C   0  0  2  0  0  0  0  0  0  0  0  0
   23.9937  -18.0026  -16.0329 N   0  0  0  0  0  0  0  0  0  0  0  0
   22.1177  -18.9735  -14.8947 C   0  0  0  0  0  0  0  0  0  0  0  0
   22.1252  -18.3552  -13.7938 O   0  0  0  0  0  0  0  0  0  0  0  0
   26.8375  -24.0151  -15.6210 N   0  0  0  0  0  0  0  0  0  0  0  0
   16.3520  -18.8684  -17.8615 C   0  0  0  0  0  0  0  0  0  0  0  0
   16.1302  -18.4347  -16.4940 O   0  0  0  0  0  0  0  0  0  0  0  0
   14.9734  -18.0873  -16.2373 C   0  0  0  0  0  0  0  0  0  0  0  0
   17.2065  -18.4211  -15.5306 C   0  0  0  0  0  0  0  0  0  0  0  0
   18.5484  -18.8835  -15.9140 C   0  0  2  0  0  0  0  0  0  0  0  0
   19.5835  -19.0128  -14.8494 N   0  0  0  0  0  0  0  0  0  0  0  0
   20.8717  -19.4017  -15.4174 C   0  0  0  0  0  0  0  0  0  0  0  0
   19.2515  -19.7974  -13.6695 O   0  0  0  0  0  0  0  0  0  0  0  0
   18.4873  -19.3248  -12.6182 O   0  0  0  0  0  0  0  0  0  0  0  0
  1  2  1  0
  2  3  1  0
  3  5  1  0
  3  4  1  6
  5 15  1  0
  6  5  2  0
  8  7  1  0
  8 10  1  0
  9  8  2  0
 11 10  1  0
 12 11  1  0
 13 12  1  0
 14 13  1  1
 15 14  1  0
 16 14  1  0
 16 24  1  0
 17 16  2  0
 18 19  1  0
 19 21  1  0
 20 19  2  0
 21 22  1  0
 23 24  1  0
 23 22  1  6
 25 23  1  0
 26 25  1  0
 27 25  2  0
M  END
$$$$
