SRQ.pdb
     RDKit          3D

 27 26  0  0  1  0  0  0  0  0999 V2000
   26.9935  -18.5774  -15.9318 O   0  0  0  0  0  0  0  0  0  0  0  0
   28.0412  -18.9287  -15.0850 C   0  0  0  0  0  0  0  0  0  0  0  0
   28.1114  -20.4348  -14.9554 C   0  0  2  0  0  0  0  0  0  0  0  0
   28.3159  -21.0451  -16.2322 N   0  0  0  0  0  0  0  0  0  0  0  0
   26.8924  -20.9827  -14.3058 C   0  0  0  0  0  0  0  0  0  0  0  0
   26.1324  -21.7741  -14.9258 O   0  0  0  0  0  0  0  0  0  0  0  0
   22.2974  -22.2492   -7.4093 N   0  0  0  0  0  0  0  0  0  0  0  0
   21.4722  -21.4085   -8.2052 C   0  0  0  0  0  0  0  0  0  0  0  0
   20.2112  -21.6525   -8.3306 N   0  0  0  0  0  0  0  0  0  0  0  0
   21.9705  -20.2725   -8.8976 N   0  0  0  0  0  0  0  0  0  0  0  0
   23.3461  -20.1510   -9.2565 C   0  0  0  0  0  0  0  0  0  0  0  0
   23.6840  -20.7583  -10.5971 C   0  0  0  0  0  0  0  0  0  0  0  0
   25.1459  -20.6586  -10.9315 C   0  0  0  0  0  0  0  0  0  0  0  0
   25.3298  -21.1398  -12.3579 C   0  0  2  0  0  0  0  0  0  0  0  0
   26.5250  -20.6495  -12.9745 N   0  0  0  0  0  0  0  0  0  0  0  0
   24.1291  -20.6380  -13.1055 C   0  0  0  0  0  0  0  0  0  0  0  0
   24.1316  -19.4785  -13.6055 O   0  0  0  0  0  0  0  0  0  0  0  0
   19.6527  -21.0512   -8.9711 N   0  0  0  0  0  0  0  0  0  0  0  0
   20.3406  -16.9964  -13.3747 C   0  0  0  0  0  0  0  0  0  0  0  0
   19.7276  -17.8558  -14.3711 O   0  0  0  0  0  0  0  0  0  0  0  0
   18.7623  -17.3634  -14.9630 C   0  0  0  0  0  0  0  0  0  0  0  0
   20.2339  -19.1848  -14.6249 C   0  0  0  0  0  0  0  0  0  0  0  0
   21.3676  -19.7055  -13.8471 C   0  0  2  0  0  0  0  0  0  0  0  0
   21.8613  -21.0792  -14.1484 N   0  0  0  0  0  0  0  0  0  0  0  0
   22.9719  -21.4396  -13.2710 C   0  0  0  0  0  0  0  0  0  0  0  0
   22.1367  -21.4134  -15.5379 O   0  0  0  0  0  0  0  0  0  0  0  0
   21.1604  -21.7386  -16.4617 O   0  0  0  0  0  0  0  0  0  0  0  0
  1  2  1  0
  2  3  1  0
  3  5  1  0
  3  4  1  6
  5 15  1  0
  6  5  2  0
  8  7  1  0
  8 10  1  0
  9  8  2  0
 11 10  1  0
 12 11  1  0
 13 12  1  0
 14 13  1  1
 15 14  1  0
 16 14  1  0
 16 24  1  0
 17 16  2  0
 18 19  1  0
 19 21  1  0
 20 19  2  0
 21 22  1  0
 23 24  1  0
 23 22  1  1
 25 23  1  0
 26 25  1  0
 27 25  2  0
M  END
$$$$
