KFV.pdb
     RDKit          3D

 28 28  0  0  1  0  0  0  0  0999 V2000
    9.4588  -16.5849   19.4443 N   0  0  0  0  0  0  0  0  0  0  0  0
   10.1231  -17.1113   20.5968 C   0  0  1  0  0  0  0  0  0  0  0  0
   11.5906  -17.2956   20.2842 C   0  0  0  0  0  0  0  0  0  0  0  0
   11.6756  -18.2794   19.1166 C   0  0  0  0  0  0  0  0  0  0  0  0
   13.1076  -18.7082   18.8799 C   0  0  0  0  0  0  0  0  0  0  0  0
   13.1024  -19.7286   17.7679 C   0  0  0  0  0  0  0  0  0  0  0  0
   14.4216  -19.8737   17.2097 N   0  0  0  0  0  0  0  0  0  0  0  0
    9.9713  -16.1896   21.7687 C   0  0  0  0  0  0  0  0  0  0  0  0
   10.7363  -15.2293   21.9716 O   0  0  0  0  0  0  0  0  0  0  0  0
    8.9195  -16.4015   22.6976 N   0  0  0  0  0  0  0  0  0  0  0  0
    8.7544  -15.5603   23.8730 C   0  0  1  0  0  0  0  0  0  0  0  0
    7.2986  -15.1657   23.9113 C   0  0  0  0  0  0  0  0  0  0  0  0
    6.9968  -14.1046   24.8879 C   0  0  0  0  0  0  0  0  0  0  0  0
    7.4147  -12.8025   24.7086 C   0  0  0  0  0  0  0  0  0  0  0  0
    7.1176  -11.8085   25.6449 C   0  0  0  0  0  0  0  0  0  0  0  0
    6.3930  -12.1106   26.7798 C   0  0  0  0  0  0  0  0  0  0  0  0
    5.9668  -13.4189   26.9712 C   0  0  0  0  0  0  0  0  0  0  0  0
    6.2754  -14.3729   26.0314 C   0  0  0  0  0  0  0  0  0  0  0  0
    9.2269  -16.2123   25.0982 C   0  0  0  0  0  0  0  0  0  0  0  0
    9.1555  -17.4501   25.2903 O   0  0  0  0  0  0  0  0  0  0  0  0
    9.5075  -14.3831   28.8017 C   0  0  0  0  0  0  0  0  0  0  0  0
   10.8093  -14.8763   28.2089 C   0  0  2  0  0  0  0  0  0  0  0  0
   11.5818  -13.7746   27.5401 C   0  0  0  0  0  0  0  0  0  0  0  0
   10.5507  -16.0364   27.2374 C   0  0  2  0  0  0  0  0  0  0  0  0
    9.7990  -15.4333   26.1386 N   0  0  0  0  0  0  0  0  0  0  0  0
    9.7151  -17.0179   27.9719 C   0  0  0  0  0  0  0  0  0  0  0  0
   10.3337  -17.8357   28.9022 O   0  0  0  0  0  0  0  0  0  0  0  0
    8.4964  -17.1203   27.7745 O   0  0  0  0  0  0  0  0  0  0  0  0
  2  1  1  6
  2  3  1  0
  4  3  1  0
  5  4  1  0
  6  5  1  0
  7  6  1  0
  8  9  2  0
  8  2  1  0
 10  8  1  0
 11 10  1  0
 12 13  1  0
 11 12  1  1
 13 18  2  0
 14 13  1  0
 14 15  2  0
 15 16  1  0
 16 17  2  0
 18 17  1  0
 19 20  2  0
 19 11  1  0
 22 21  1  6
 22 23  1  0
 24 25  1  6
 24 22  1  0
 25 19  1  0
 26 24  1  0
 27 26  1  0
 28 26  2  0
M  END
$$$$
