KFV.pdb
     RDKit          3D

 28 28  0  0  1  0  0  0  0  0999 V2000
    9.0720  -18.0138   20.4233 N   0  0  0  0  0  0  0  0  0  0  0  0
   10.3151  -17.6658   21.0401 C   0  0  1  0  0  0  0  0  0  0  0  0
   11.2743  -17.1710   19.9817 C   0  0  0  0  0  0  0  0  0  0  0  0
   11.0396  -18.0255   18.7355 C   0  0  0  0  0  0  0  0  0  0  0  0
   11.9552  -17.5950   17.6099 C   0  0  0  0  0  0  0  0  0  0  0  0
   11.7498  -18.5518   16.4610 C   0  0  0  0  0  0  0  0  0  0  0  0
   12.4293  -18.0794   15.2829 N   0  0  0  0  0  0  0  0  0  0  0  0
   10.1180  -16.6012   22.0763 C   0  0  0  0  0  0  0  0  0  0  0  0
   10.9106  -15.6534   22.2249 O   0  0  0  0  0  0  0  0  0  0  0  0
    8.9886  -16.6560   22.9339 N   0  0  0  0  0  0  0  0  0  0  0  0
    8.8012  -15.7016   24.0159 C   0  0  1  0  0  0  0  0  0  0  0  0
    7.3507  -15.2889   23.9712 C   0  0  0  0  0  0  0  0  0  0  0  0
    7.0069  -14.2241   24.9298 C   0  0  0  0  0  0  0  0  0  0  0  0
    6.1955  -14.4540   26.0212 C   0  0  0  0  0  0  0  0  0  0  0  0
    5.8814  -13.4321   26.9212 C   0  0  0  0  0  0  0  0  0  0  0  0
    6.3806  -12.1590   26.7361 C   0  0  0  0  0  0  0  0  0  0  0  0
    7.1990  -11.9156   25.6403 C   0  0  0  0  0  0  0  0  0  0  0  0
    7.4888  -12.9422   24.7739 C   0  0  0  0  0  0  0  0  0  0  0  0
    9.2286  -16.2355   25.3127 C   0  0  0  0  0  0  0  0  0  0  0  0
    9.0786  -17.4358   25.6459 O   0  0  0  0  0  0  0  0  0  0  0  0
    9.6572  -14.1194   28.9778 C   0  0  0  0  0  0  0  0  0  0  0  0
   10.8830  -14.6443   28.2626 C   0  0  2  0  0  0  0  0  0  0  0  0
   11.5274  -13.5977   27.3982 C   0  0  0  0  0  0  0  0  0  0  0  0
   10.5320  -15.8950   27.4446 C   0  0  2  0  0  0  0  0  0  0  0  0
    9.8464  -15.3786   26.2617 N   0  0  0  0  0  0  0  0  0  0  0  0
    9.6066  -16.6962   28.2829 C   0  0  0  0  0  0  0  0  0  0  0  0
   10.1491  -17.4909   29.2784 O   0  0  0  0  0  0  0  0  0  0  0  0
    8.3795  -16.6705   28.1145 O   0  0  0  0  0  0  0  0  0  0  0  0
  2  1  1  6
  2  3  1  0
  4  3  1  0
  5  4  1  0
  6  5  1  0
  7  6  1  0
  8  9  2  0
  8  2  1  0
 10  8  1  0
 11 10  1  0
 12 13  1  0
 11 12  1  1
 13 18  2  0
 14 13  1  0
 14 15  2  0
 15 16  1  0
 16 17  2  0
 18 17  1  0
 19 20  2  0
 19 11  1  0
 22 21  1  6
 22 23  1  0
 24 25  1  6
 24 22  1  0
 25 19  1  0
 26 24  1  0
 27 26  1  0
 28 26  2  0
M  END
$$$$
