KFV.pdb
     RDKit          3D

 28 28  0  0  1  0  0  0  0  0999 V2000
    9.6453  -16.5952   19.0531 N   0  0  0  0  0  0  0  0  0  0  0  0
    8.5837  -16.6972   20.0067 C   0  0  1  0  0  0  0  0  0  0  0  0
    8.3092  -18.1563   20.2914 C   0  0  0  0  0  0  0  0  0  0  0  0
    7.6165  -18.7274   19.0537 C   0  0  0  0  0  0  0  0  0  0  0  0
    6.1137  -18.7276   19.2324 C   0  0  0  0  0  0  0  0  0  0  0  0
    5.5712  -19.9593   18.5493 C   0  0  0  0  0  0  0  0  0  0  0  0
    4.1368  -20.0092   18.6627 N   0  0  0  0  0  0  0  0  0  0  0  0
    8.9413  -15.9955   21.2816 C   0  0  0  0  0  0  0  0  0  0  0  0
   10.1019  -15.9667   21.7299 O   0  0  0  0  0  0  0  0  0  0  0  0
    7.9317  -15.3299   22.0244 N   0  0  0  0  0  0  0  0  0  0  0  0
    8.1869  -14.7896   23.3509 C   0  0  1  0  0  0  0  0  0  0  0  0
    7.0483  -13.8462   23.6510 C   0  0  0  0  0  0  0  0  0  0  0  0
    7.1193  -13.2377   24.9910 C   0  0  0  0  0  0  0  0  0  0  0  0
    6.3093  -13.6510   26.0279 C   0  0  0  0  0  0  0  0  0  0  0  0
    6.3917  -13.0633   27.2931 C   0  0  0  0  0  0  0  0  0  0  0  0
    7.2937  -12.0473   27.5350 C   0  0  0  0  0  0  0  0  0  0  0  0
    8.1149  -11.6226   26.4982 C   0  0  0  0  0  0  0  0  0  0  0  0
    8.0089  -12.2213   25.2657 C   0  0  0  0  0  0  0  0  0  0  0  0
    8.3705  -15.8401   24.3569 C   0  0  0  0  0  0  0  0  0  0  0  0
    7.4608  -16.6351   24.6955 O   0  0  0  0  0  0  0  0  0  0  0  0
   12.3134  -16.6085   25.4195 C   0  0  0  0  0  0  0  0  0  0  0  0
   11.2431  -17.6779   25.4101 C   0  0  2  0  0  0  0  0  0  0  0  0
   11.0885  -18.3144   24.0578 C   0  0  0  0  0  0  0  0  0  0  0  0
    9.9079  -17.1047   25.9052 C   0  0  2  0  0  0  0  0  0  0  0  0
    9.6280  -15.9929   24.9988 N   0  0  0  0  0  0  0  0  0  0  0  0
   10.1499  -16.6132   27.2839 C   0  0  0  0  0  0  0  0  0  0  0  0
   10.2564  -17.5466   28.3009 O   0  0  0  0  0  0  0  0  0  0  0  0
   10.2570  -15.4061   27.5411 O   0  0  0  0  0  0  0  0  0  0  0  0
  2  1  1  6
  2  3  1  0
  4  3  1  0
  5  4  1  0
  6  5  1  0
  7  6  1  0
  8  9  2  0
  8  2  1  0
 10  8  1  0
 11 10  1  0
 12 13  1  0
 11 12  1  1
 13 18  2  0
 14 13  1  0
 14 15  2  0
 15 16  1  0
 16 17  2  0
 18 17  1  0
 19 20  2  0
 19 11  1  0
 22 21  1  6
 22 23  1  0
 24 25  1  6
 24 22  1  0
 25 19  1  0
 26 24  1  0
 27 26  1  0
 28 26  2  0
M  END
$$$$
