KFV.pdb
     RDKit          3D

 28 28  0  0  1  0  0  0  0  0999 V2000
    9.9135  -16.4349   18.8301 N   0  0  0  0  0  0  0  0  0  0  0  0
    8.7807  -16.4818   19.7026 C   0  0  1  0  0  0  0  0  0  0  0  0
    8.3563  -17.9206   19.8897 C   0  0  0  0  0  0  0  0  0  0  0  0
    8.6010  -18.6324   18.5587 C   0  0  0  0  0  0  0  0  0  0  0  0
    7.4853  -19.6105   18.2606 C   0  0  0  0  0  0  0  0  0  0  0  0
    7.7714  -20.2363   16.9174 C   0  0  0  0  0  0  0  0  0  0  0  0
    6.7719  -21.2215   16.5962 N   0  0  0  0  0  0  0  0  0  0  0  0
    9.1065  -15.8771   21.0345 C   0  0  0  0  0  0  0  0  0  0  0  0
   10.2521  -15.8989   21.5200 O   0  0  0  0  0  0  0  0  0  0  0  0
    8.0827  -15.2487   21.7902 N   0  0  0  0  0  0  0  0  0  0  0  0
    8.3212  -14.7468   23.1347 C   0  0  1  0  0  0  0  0  0  0  0  0
    7.1796  -13.8111   23.4471 C   0  0  0  0  0  0  0  0  0  0  0  0
    7.2395  -13.2333   24.8011 C   0  0  0  0  0  0  0  0  0  0  0  0
    6.4232  -13.6724   25.8225 C   0  0  0  0  0  0  0  0  0  0  0  0
    6.4951  -13.1136   27.1014 C   0  0  0  0  0  0  0  0  0  0  0  0
    7.3925  -12.1012   27.3730 C   0  0  0  0  0  0  0  0  0  0  0  0
    8.2198  -11.6507   26.3521 C   0  0  0  0  0  0  0  0  0  0  0  0
    8.1243  -12.2211   25.1055 C   0  0  0  0  0  0  0  0  0  0  0  0
    8.4910  -15.8261   24.1125 C   0  0  0  0  0  0  0  0  0  0  0  0
    7.6258  -16.7113   24.3173 O   0  0  0  0  0  0  0  0  0  0  0  0
   11.5468  -17.9711   24.0282 C   0  0  0  0  0  0  0  0  0  0  0  0
   11.4362  -17.4006   25.4252 C   0  0  2  0  0  0  0  0  0  0  0  0
   12.0052  -18.3264   26.4630 C   0  0  0  0  0  0  0  0  0  0  0  0
    9.9776  -17.0444   25.7450 C   0  0  2  0  0  0  0  0  0  0  0  0
    9.6818  -15.9024   24.8823 N   0  0  0  0  0  0  0  0  0  0  0  0
    9.9484  -16.6473   27.1742 C   0  0  0  0  0  0  0  0  0  0  0  0
    9.8150  -17.6434   28.1264 O   0  0  0  0  0  0  0  0  0  0  0  0
   10.0392  -15.4636   27.5286 O   0  0  0  0  0  0  0  0  0  0  0  0
  2  1  1  6
  2  3  1  0
  4  3  1  0
  5  4  1  0
  6  5  1  0
  7  6  1  0
  8  9  2  0
  8  2  1  0
 10  8  1  0
 11 10  1  0
 12 13  1  0
 11 12  1  1
 13 18  2  0
 14 13  1  0
 14 15  2  0
 15 16  1  0
 16 17  2  0
 18 17  1  0
 19 20  2  0
 19 11  1  0
 22 21  1  6
 22 23  1  0
 24 25  1  6
 24 22  1  0
 25 19  1  0
 26 24  1  0
 27 26  1  0
 28 26  2  0
M  END
$$$$
