KFV.pdb
     RDKit          3D

 28 28  0  0  1  0  0  0  0  0999 V2000
    9.6180  -18.1834   20.8743 N   0  0  0  0  0  0  0  0  0  0  0  0
   10.8013  -17.4507   21.2056 C   0  0  1  0  0  0  0  0  0  0  0  0
   11.2493  -16.6574   19.9993 C   0  0  0  0  0  0  0  0  0  0  0  0
   11.8700  -17.6532   19.0188 C   0  0  0  0  0  0  0  0  0  0  0  0
   10.9395  -17.9085   17.8528 C   0  0  0  0  0  0  0  0  0  0  0  0
   11.6206  -18.8888   16.9293 C   0  0  0  0  0  0  0  0  0  0  0  0
   10.7181  -19.3158   15.8920 N   0  0  0  0  0  0  0  0  0  0  0  0
   10.5500  -16.5204   22.3533 C   0  0  0  0  0  0  0  0  0  0  0  0
   11.4122  -15.7304   22.7790 O   0  0  0  0  0  0  0  0  0  0  0  0
    9.2846  -16.5231   22.9959 N   0  0  0  0  0  0  0  0  0  0  0  0
    8.9878  -15.6322   24.1071 C   0  0  1  0  0  0  0  0  0  0  0  0
    7.5283  -15.2705   23.9828 C   0  0  0  0  0  0  0  0  0  0  0  0
    7.0944  -14.2225   24.9233 C   0  0  0  0  0  0  0  0  0  0  0  0
    6.3349  -14.5071   26.0387 C   0  0  0  0  0  0  0  0  0  0  0  0
    5.9338  -13.5003   26.9210 C   0  0  0  0  0  0  0  0  0  0  0  0
    6.2922  -12.1873   26.6935 C   0  0  0  0  0  0  0  0  0  0  0  0
    7.0572  -11.8885   25.5731 C   0  0  0  0  0  0  0  0  0  0  0  0
    7.4353  -12.9017   24.7251 C   0  0  0  0  0  0  0  0  0  0  0  0
    9.3483  -16.2154   25.4031 C   0  0  0  0  0  0  0  0  0  0  0  0
    9.2397  -17.4384   25.6613 O   0  0  0  0  0  0  0  0  0  0  0  0
    9.2164  -14.2997   29.0461 C   0  0  0  0  0  0  0  0  0  0  0  0
   10.5931  -14.7354   28.5939 C   0  0  2  0  0  0  0  0  0  0  0  0
   11.3694  -13.6088   27.9727 C   0  0  0  0  0  0  0  0  0  0  0  0
   10.4895  -15.9285   27.6336 C   0  0  2  0  0  0  0  0  0  0  0  0
    9.8483  -15.3827   26.4391 N   0  0  0  0  0  0  0  0  0  0  0  0
    9.6104  -16.9230   28.2964 C   0  0  0  0  0  0  0  0  0  0  0  0
   10.1519  -17.7067   29.3011 O   0  0  0  0  0  0  0  0  0  0  0  0
    8.4221  -17.0655   27.9760 O   0  0  0  0  0  0  0  0  0  0  0  0
  2  1  1  6
  2  3  1  0
  4  3  1  0
  5  4  1  0
  6  5  1  0
  7  6  1  0
  8  9  2  0
  8  2  1  0
 10  8  1  0
 11 10  1  0
 12 13  1  0
 11 12  1  1
 13 18  2  0
 14 13  1  0
 14 15  2  0
 15 16  1  0
 16 17  2  0
 18 17  1  0
 19 20  2  0
 19 11  1  0
 22 21  1  6
 22 23  1  0
 24 25  1  6
 24 22  1  0
 25 19  1  0
 26 24  1  0
 27 26  1  0
 28 26  2  0
M  END
$$$$
