KFV.pdb
     RDKit          3D

 28 28  0  0  1  0  0  0  0  0999 V2000
    8.8728  -17.0422   20.2239 N   0  0  0  0  0  0  0  0  0  0  0  0
    9.9642  -16.1351   20.4051 C   0  0  1  0  0  0  0  0  0  0  0  0
    9.9396  -15.1008   19.3028 C   0  0  0  0  0  0  0  0  0  0  0  0
    8.7596  -15.4480   18.3945 C   0  0  0  0  0  0  0  0  0  0  0  0
    9.1087  -15.1991   16.9431 C   0  0  0  0  0  0  0  0  0  0  0  0
    8.1649  -14.1441   16.4194 C   0  0  0  0  0  0  0  0  0  0  0  0
    8.4476  -13.8550   15.0376 N   0  0  0  0  0  0  0  0  0  0  0  0
    9.8762  -15.4524   21.7363 C   0  0  0  0  0  0  0  0  0  0  0  0
   10.6793  -14.5715   22.0939 O   0  0  0  0  0  0  0  0  0  0  0  0
    8.8433  -15.8088   22.6418 N   0  0  0  0  0  0  0  0  0  0  0  0
    8.6916  -15.1485   23.9293 C   0  0  1  0  0  0  0  0  0  0  0  0
    7.2215  -14.8439   24.0794 C   0  0  0  0  0  0  0  0  0  0  0  0
    6.9259  -13.8439   25.1203 C   0  0  0  0  0  0  0  0  0  0  0  0
    6.2735  -14.1737   26.2898 C   0  0  0  0  0  0  0  0  0  0  0  0
    6.0030  -13.2121   27.2671 C   0  0  0  0  0  0  0  0  0  0  0  0
    6.3863  -11.8995   27.0819 C   0  0  0  0  0  0  0  0  0  0  0  0
    7.0441  -11.5554   25.9077 C   0  0  0  0  0  0  0  0  0  0  0  0
    7.2951  -12.5248   24.9665 C   0  0  0  0  0  0  0  0  0  0  0  0
    9.2518  -15.9366   25.0314 C   0  0  0  0  0  0  0  0  0  0  0  0
    9.2439  -17.1911   25.0536 O   0  0  0  0  0  0  0  0  0  0  0  0
    9.3352  -14.5742   28.9056 C   0  0  0  0  0  0  0  0  0  0  0  0
   10.6792  -14.9779   28.3400 C   0  0  2  0  0  0  0  0  0  0  0  0
   11.4711  -13.7949   27.8591 C   0  0  0  0  0  0  0  0  0  0  0  0
   10.5009  -16.0133   27.2208 C   0  0  2  0  0  0  0  0  0  0  0  0
    9.8400  -15.2787   26.1440 N   0  0  0  0  0  0  0  0  0  0  0  0
    9.6096  -17.0671   27.7649 C   0  0  0  0  0  0  0  0  0  0  0  0
   10.1618  -18.0219   28.6017 O   0  0  0  0  0  0  0  0  0  0  0  0
    8.4020  -17.1109   27.4916 O   0  0  0  0  0  0  0  0  0  0  0  0
  2  1  1  6
  2  3  1  0
  4  3  1  0
  5  4  1  0
  6  5  1  0
  7  6  1  0
  8  9  2  0
  8  2  1  0
 10  8  1  0
 11 10  1  0
 12 13  1  0
 11 12  1  1
 13 18  2  0
 14 13  1  0
 14 15  2  0
 15 16  1  0
 16 17  2  0
 18 17  1  0
 19 20  2  0
 19 11  1  0
 22 21  1  6
 22 23  1  0
 24 25  1  6
 24 22  1  0
 25 19  1  0
 26 24  1  0
 27 26  1  0
 28 26  2  0
M  END
$$$$
