KFV.pdb
     RDKit          3D

 28 28  0  0  1  0  0  0  0  0999 V2000
    9.8213  -18.6774   20.9553 N   0  0  0  0  0  0  0  0  0  0  0  0
   10.9542  -17.8186   21.1159 C   0  0  1  0  0  0  0  0  0  0  0  0
   11.2419  -17.1241   19.8044 C   0  0  0  0  0  0  0  0  0  0  0  0
   12.0837  -18.0877   18.9671 C   0  0  0  0  0  0  0  0  0  0  0  0
   12.4688  -17.4553   17.6472 C   0  0  0  0  0  0  0  0  0  0  0  0
   13.3164  -18.4502   16.8925 C   0  0  0  0  0  0  0  0  0  0  0  0
   13.7541  -17.8926   15.6393 N   0  0  0  0  0  0  0  0  0  0  0  0
   10.7023  -16.7952   22.1813 C   0  0  0  0  0  0  0  0  0  0  0  0
   11.5344  -15.9204   22.4827 O   0  0  0  0  0  0  0  0  0  0  0  0
    9.4717  -16.8052   22.8882 N   0  0  0  0  0  0  0  0  0  0  0  0
    9.1888  -15.8486   23.9472 C   0  0  1  0  0  0  0  0  0  0  0  0
    7.6976  -15.6203   23.9256 C   0  0  0  0  0  0  0  0  0  0  0  0
    7.2624  -14.4646   24.7293 C   0  0  0  0  0  0  0  0  0  0  0  0
    6.5871  -14.6139   25.9226 C   0  0  0  0  0  0  0  0  0  0  0  0
    6.1834  -13.5060   26.6727 C   0  0  0  0  0  0  0  0  0  0  0  0
    6.4542  -12.2267   26.2320 C   0  0  0  0  0  0  0  0  0  0  0  0
    7.1339  -12.0639   25.0314 C   0  0  0  0  0  0  0  0  0  0  0  0
    7.5170  -13.1740   24.3177 C   0  0  0  0  0  0  0  0  0  0  0  0
    9.7054  -16.2854   25.2480 C   0  0  0  0  0  0  0  0  0  0  0  0
    9.8413  -17.4919   25.5644 O   0  0  0  0  0  0  0  0  0  0  0  0
    9.2532  -14.0825   28.7232 C   0  0  0  0  0  0  0  0  0  0  0  0
   10.6756  -14.4142   28.3278 C   0  0  2  0  0  0  0  0  0  0  0  0
   11.3453  -13.2763   27.6105 C   0  0  0  0  0  0  0  0  0  0  0  0
   10.7125  -15.6957   27.4836 C   0  0  2  0  0  0  0  0  0  0  0  0
   10.0798  -15.3208   26.2206 N   0  0  0  0  0  0  0  0  0  0  0  0
    9.8915  -16.6969   28.2080 C   0  0  0  0  0  0  0  0  0  0  0  0
    8.6112  -16.9496   27.7456 O   0  0  0  0  0  0  0  0  0  0  0  0
   10.3190  -17.3017   29.2011 O   0  0  0  0  0  0  0  0  0  0  0  0
  2  1  1  6
  2  3  1  0
  4  3  1  0
  5  4  1  0
  6  5  1  0
  7  6  1  0
  8  9  2  0
  8  2  1  0
 10  8  1  0
 11 10  1  0
 12 13  1  0
 11 12  1  1
 13 18  2  0
 14 13  1  0
 14 15  2  0
 15 16  1  0
 16 17  2  0
 18 17  1  0
 19 20  2  0
 19 11  1  0
 22 21  1  6
 22 23  1  0
 24 25  1  6
 24 22  1  0
 25 19  1  0
 26 24  1  0
 27 26  1  0
 28 26  2  0
M  END
$$$$
