KFV.pdb
     RDKit          3D

 28 28  0  0  1  0  0  0  0  0999 V2000
    9.3471  -18.2135   20.7457 N   0  0  0  0  0  0  0  0  0  0  0  0
   10.5666  -17.5210   21.0284 C   0  0  1  0  0  0  0  0  0  0  0  0
   11.0502  -16.8322   19.7726 C   0  0  0  0  0  0  0  0  0  0  0  0
   11.0636  -17.8865   18.6652 C   0  0  0  0  0  0  0  0  0  0  0  0
   12.4663  -18.0887   18.1342 C   0  0  0  0  0  0  0  0  0  0  0  0
   12.3928  -19.1060   17.0217 C   0  0  0  0  0  0  0  0  0  0  0  0
   13.6785  -19.2596   16.3923 N   0  0  0  0  0  0  0  0  0  0  0  0
   10.3657  -16.5057   22.1123 C   0  0  0  0  0  0  0  0  0  0  0  0
   11.2356  -15.6709   22.4204 O   0  0  0  0  0  0  0  0  0  0  0  0
    9.1416  -16.4767   22.8297 N   0  0  0  0  0  0  0  0  0  0  0  0
    8.9230  -15.5561   23.9349 C   0  0  1  0  0  0  0  0  0  0  0  0
    7.4687  -15.1590   23.8749 C   0  0  0  0  0  0  0  0  0  0  0  0
    7.1182  -14.0511   24.7808 C   0  0  0  0  0  0  0  0  0  0  0  0
    7.5445  -12.7585   24.5576 C   0  0  0  0  0  0  0  0  0  0  0  0
    7.2008  -11.7196   25.4269 C   0  0  0  0  0  0  0  0  0  0  0  0
    6.4203  -11.9664   26.5377 C   0  0  0  0  0  0  0  0  0  0  0  0
    5.9850  -13.2645   26.7729 C   0  0  0  0  0  0  0  0  0  0  0  0
    6.3404  -14.2636   25.8988 C   0  0  0  0  0  0  0  0  0  0  0  0
    9.3329  -16.1223   25.2237 C   0  0  0  0  0  0  0  0  0  0  0  0
    9.2014  -17.3355   25.5152 O   0  0  0  0  0  0  0  0  0  0  0  0
    9.6135  -14.6064   29.3277 C   0  0  0  0  0  0  0  0  0  0  0  0
   10.7507  -14.6268   28.3298 C   0  0  2  0  0  0  0  0  0  0  0  0
   10.8568  -13.3384   27.5639 C   0  0  0  0  0  0  0  0  0  0  0  0
   10.6082  -15.8232   27.3786 C   0  0  2  0  0  0  0  0  0  0  0  0
    9.9108  -15.2835   26.2131 N   0  0  0  0  0  0  0  0  0  0  0  0
    9.7643  -16.8191   28.0838 C   0  0  0  0  0  0  0  0  0  0  0  0
   10.3534  -17.5947   29.0678 O   0  0  0  0  0  0  0  0  0  0  0  0
    8.5641  -16.9696   27.8160 O   0  0  0  0  0  0  0  0  0  0  0  0
  2  1  1  6
  2  3  1  0
  4  3  1  0
  5  4  1  0
  6  5  1  0
  7  6  1  0
  8  9  2  0
  8  2  1  0
 10  8  1  0
 11 10  1  0
 12 13  1  0
 11 12  1  1
 13 18  2  0
 14 13  1  0
 14 15  2  0
 15 16  1  0
 16 17  2  0
 18 17  1  0
 19 20  2  0
 19 11  1  0
 22 21  1  1
 22 23  1  0
 24 25  1  6
 24 22  1  0
 25 19  1  0
 26 24  1  0
 27 26  1  0
 28 26  2  0
M  END
$$$$
