KFV.pdb
     RDKit          3D

 28 28  0  0  1  0  0  0  0  0999 V2000
   10.8135  -16.8857   19.4625 N   0  0  0  0  0  0  0  0  0  0  0  0
   10.4649  -17.4622   20.7246 C   0  0  1  0  0  0  0  0  0  0  0  0
   11.5746  -18.3854   21.1734 C   0  0  0  0  0  0  0  0  0  0  0  0
   11.4117  -19.6887   20.3904 C   0  0  0  0  0  0  0  0  0  0  0  0
   12.4682  -20.6936   20.7959 C   0  0  0  0  0  0  0  0  0  0  0  0
   12.3210  -21.8997   19.9007 C   0  0  0  0  0  0  0  0  0  0  0  0
   13.2967  -22.9025   20.2402 N   0  0  0  0  0  0  0  0  0  0  0  0
   10.2490  -16.3977   21.7570 C   0  0  0  0  0  0  0  0  0  0  0  0
   11.0224  -15.4333   21.8995 O   0  0  0  0  0  0  0  0  0  0  0  0
    9.1233  -16.4719   22.6181 N   0  0  0  0  0  0  0  0  0  0  0  0
    8.9107  -15.5071   23.6860 C   0  0  1  0  0  0  0  0  0  0  0  0
    7.4540  -15.1191   23.6236 C   0  0  0  0  0  0  0  0  0  0  0  0
    7.0651  -14.1103   24.6246 C   0  0  0  0  0  0  0  0  0  0  0  0
    7.4066  -12.7802   24.4962 C   0  0  0  0  0  0  0  0  0  0  0  0
    7.0274  -11.8368   25.4549 C   0  0  0  0  0  0  0  0  0  0  0  0
    6.2964  -12.2187   26.5612 C   0  0  0  0  0  0  0  0  0  0  0  0
    5.9466  -13.5558   26.7013 C   0  0  0  0  0  0  0  0  0  0  0  0
    6.3350  -14.4585   25.7407 C   0  0  0  0  0  0  0  0  0  0  0  0
    9.3354  -16.0172   24.9933 C   0  0  0  0  0  0  0  0  0  0  0  0
    9.1856  -17.2115   25.3476 O   0  0  0  0  0  0  0  0  0  0  0  0
   11.1515  -14.7790   29.4428 C   0  0  0  0  0  0  0  0  0  0  0  0
   10.5233  -14.4243   28.1128 C   0  0  2  0  0  0  0  0  0  0  0  0
    9.1229  -13.9020   28.2679 C   0  0  0  0  0  0  0  0  0  0  0  0
   10.5596  -15.6304   27.1639 C   0  0  2  0  0  0  0  0  0  0  0  0
    9.9502  -15.1428   25.9282 N   0  0  0  0  0  0  0  0  0  0  0  0
    9.7172  -16.6794   27.7893 C   0  0  0  0  0  0  0  0  0  0  0  0
   10.3264  -17.5843   28.6418 O   0  0  0  0  0  0  0  0  0  0  0  0
    8.5008  -16.7621   27.5692 O   0  0  0  0  0  0  0  0  0  0  0  0
  2  1  1  6
  2  3  1  0
  4  3  1  0
  5  4  1  0
  6  5  1  0
  7  6  1  0
  8  9  2  0
  8  2  1  0
 10  8  1  0
 11 10  1  0
 12 13  1  0
 11 12  1  1
 13 18  2  0
 14 13  1  0
 14 15  2  0
 15 16  1  0
 16 17  2  0
 18 17  1  0
 19 20  2  0
 19 11  1  0
 22 21  1  1
 22 23  1  0
 24 25  1  6
 24 22  1  0
 25 19  1  0
 26 24  1  0
 27 26  1  0
 28 26  2  0
M  END
$$$$
