KFV.pdb
     RDKit          3D

 28 28  0  0  1  0  0  0  0  0999 V2000
   10.9504  -16.8375   19.5713 N   0  0  0  0  0  0  0  0  0  0  0  0
   10.3714  -17.4344   20.7354 C   0  0  1  0  0  0  0  0  0  0  0  0
   11.2528  -18.5701   21.2029 C   0  0  0  0  0  0  0  0  0  0  0  0
   11.0509  -19.7228   20.2187 C   0  0  0  0  0  0  0  0  0  0  0  0
   11.8244  -20.9465   20.6601 C   0  0  0  0  0  0  0  0  0  0  0  0
   11.6851  -21.9909   19.5796 C   0  0  0  0  0  0  0  0  0  0  0  0
   12.5107  -23.1335   19.8725 N   0  0  0  0  0  0  0  0  0  0  0  0
   10.2243  -16.4273   21.8354 C   0  0  0  0  0  0  0  0  0  0  0  0
   11.1163  -15.6071   22.1189 O   0  0  0  0  0  0  0  0  0  0  0  0
    9.0279  -16.3890   22.5978 N   0  0  0  0  0  0  0  0  0  0  0  0
    8.8105  -15.3899   23.6326 C   0  0  1  0  0  0  0  0  0  0  0  0
    7.3790  -14.9352   23.4895 C   0  0  0  0  0  0  0  0  0  0  0  0
    6.9747  -13.9258   24.4837 C   0  0  0  0  0  0  0  0  0  0  0  0
    6.1368  -14.2283   25.5367 C   0  0  0  0  0  0  0  0  0  0  0  0
    5.7652  -13.2582   26.4715 C   0  0  0  0  0  0  0  0  0  0  0  0
    6.2327  -11.9647   26.3607 C   0  0  0  0  0  0  0  0  0  0  0  0
    7.0773  -11.6482   25.3041 C   0  0  0  0  0  0  0  0  0  0  0  0
    7.4237  -12.6252   24.4019 C   0  0  0  0  0  0  0  0  0  0  0  0
    9.1460  -15.8879   24.9701 C   0  0  0  0  0  0  0  0  0  0  0  0
    8.9376  -17.0697   25.3366 O   0  0  0  0  0  0  0  0  0  0  0  0
   11.2549  -14.6095   29.3072 C   0  0  0  0  0  0  0  0  0  0  0  0
   10.6442  -14.2450   27.9717 C   0  0  2  0  0  0  0  0  0  0  0  0
    9.4092  -13.4027   28.1233 C   0  0  0  0  0  0  0  0  0  0  0  0
   10.3513  -15.5100   27.1529 C   0  0  2  0  0  0  0  0  0  0  0  0
    9.7375  -15.0158   25.9220 N   0  0  0  0  0  0  0  0  0  0  0  0
    9.3800  -16.3044   27.9445 C   0  0  0  0  0  0  0  0  0  0  0  0
    9.8721  -17.1492   28.9248 O   0  0  0  0  0  0  0  0  0  0  0  0
    8.1586  -16.2297   27.7511 O   0  0  0  0  0  0  0  0  0  0  0  0
  2  1  1  6
  2  3  1  0
  4  3  1  0
  5  4  1  0
  6  5  1  0
  7  6  1  0
  8  9  2  0
  8  2  1  0
 10  8  1  0
 11 10  1  0
 12 13  1  0
 11 12  1  1
 13 18  2  0
 14 13  1  0
 14 15  2  0
 15 16  1  0
 16 17  2  0
 18 17  1  0
 19 20  2  0
 19 11  1  0
 22 21  1  1
 22 23  1  0
 24 25  1  6
 24 22  1  0
 25 19  1  0
 26 24  1  0
 27 26  1  0
 28 26  2  0
M  END
$$$$
