KFV.pdb
     RDKit          3D

 28 28  0  0  1  0  0  0  0  0999 V2000
    9.4910  -18.4066   20.9017 N   0  0  0  0  0  0  0  0  0  0  0  0
   10.7213  -17.7731   21.2649 C   0  0  1  0  0  0  0  0  0  0  0  0
   11.3241  -17.1195   20.0423 C   0  0  0  0  0  0  0  0  0  0  0  0
   11.6603  -18.2415   19.0593 C   0  0  0  0  0  0  0  0  0  0  0  0
   11.5137  -17.7645   17.6306 C   0  0  0  0  0  0  0  0  0  0  0  0
   11.9728  -18.8814   16.7253 C   0  0  0  0  0  0  0  0  0  0  0  0
   11.8665  -18.4881   15.3444 N   0  0  0  0  0  0  0  0  0  0  0  0
   10.4973  -16.7403   22.3274 C   0  0  0  0  0  0  0  0  0  0  0  0
   11.4124  -16.0225   22.7701 O   0  0  0  0  0  0  0  0  0  0  0  0
    9.1970  -16.5559   22.8652 N   0  0  0  0  0  0  0  0  0  0  0  0
    8.9413  -15.6177   23.9472 C   0  0  1  0  0  0  0  0  0  0  0  0
    7.5300  -15.1207   23.7534 C   0  0  0  0  0  0  0  0  0  0  0  0
    7.1325  -14.0742   24.7113 C   0  0  0  0  0  0  0  0  0  0  0  0
    7.5496  -12.7659   24.5830 C   0  0  0  0  0  0  0  0  0  0  0  0
    7.1610  -11.7860   25.5005 C   0  0  0  0  0  0  0  0  0  0  0  0
    6.3440  -12.1087   26.5646 C   0  0  0  0  0  0  0  0  0  0  0  0
    5.9175  -13.4234   26.7042 C   0  0  0  0  0  0  0  0  0  0  0  0
    6.3175  -14.3632   25.7848 C   0  0  0  0  0  0  0  0  0  0  0  0
    9.1895  -16.2053   25.2673 C   0  0  0  0  0  0  0  0  0  0  0  0
    8.9598  -17.4085   25.5390 O   0  0  0  0  0  0  0  0  0  0  0  0
    9.3897  -14.0501   28.7640 C   0  0  0  0  0  0  0  0  0  0  0  0
   10.6648  -14.7747   28.3919 C   0  0  2  0  0  0  0  0  0  0  0  0
   11.6676  -13.8625   27.7440 C   0  0  0  0  0  0  0  0  0  0  0  0
   10.3541  -15.9794   27.4927 C   0  0  2  0  0  0  0  0  0  0  0  0
    9.7156  -15.4006   26.3123 N   0  0  0  0  0  0  0  0  0  0  0  0
    9.3985  -16.8278   28.2465 C   0  0  0  0  0  0  0  0  0  0  0  0
    9.8776  -17.5511   29.3255 O   0  0  0  0  0  0  0  0  0  0  0  0
    8.2012  -16.9022   27.9370 O   0  0  0  0  0  0  0  0  0  0  0  0
  2  1  1  6
  2  3  1  0
  4  3  1  0
  5  4  1  0
  6  5  1  0
  7  6  1  0
  8  9  2  0
  8  2  1  0
 10  8  1  0
 11 10  1  0
 12 13  1  0
 11 12  1  1
 13 18  2  0
 14 13  1  0
 14 15  2  0
 15 16  1  0
 16 17  2  0
 18 17  1  0
 19 20  2  0
 19 11  1  0
 22 21  1  6
 22 23  1  0
 24 25  1  6
 24 22  1  0
 25 19  1  0
 26 24  1  0
 27 26  1  0
 28 26  2  0
M  END
$$$$
