KFV.pdb
     RDKit          3D

 28 28  0  0  1  0  0  0  0  0999 V2000
   10.6639  -16.8924   19.6002 N   0  0  0  0  0  0  0  0  0  0  0  0
   10.3960  -17.5265   20.8544 C   0  0  1  0  0  0  0  0  0  0  0  0
   11.5404  -18.4524   21.1982 C   0  0  0  0  0  0  0  0  0  0  0  0
   10.9212  -19.7408   21.7411 C   0  0  0  0  0  0  0  0  0  0  0  0
   10.4617  -20.6336   20.6088 C   0  0  0  0  0  0  0  0  0  0  0  0
    9.9150  -21.9016   21.2181 C   0  0  0  0  0  0  0  0  0  0  0  0
    9.4259  -22.7848   20.1917 N   0  0  0  0  0  0  0  0  0  0  0  0
   10.2287  -16.5095   21.9424 C   0  0  0  0  0  0  0  0  0  0  0  0
   11.0856  -15.6411   22.1877 O   0  0  0  0  0  0  0  0  0  0  0  0
    9.0534  -16.5182   22.7377 N   0  0  0  0  0  0  0  0  0  0  0  0
    8.8880  -15.6200   23.8701 C   0  0  1  0  0  0  0  0  0  0  0  0
    7.4530  -15.1550   23.8368 C   0  0  0  0  0  0  0  0  0  0  0  0
    7.1501  -14.0942   24.8135 C   0  0  0  0  0  0  0  0  0  0  0  0
    7.5397  -12.7855   24.6192 C   0  0  0  0  0  0  0  0  0  0  0  0
    7.2420  -11.7920   25.5558 C   0  0  0  0  0  0  0  0  0  0  0  0
    6.5453  -12.1013   26.7061 C   0  0  0  0  0  0  0  0  0  0  0  0
    6.1477  -13.4162   26.9127 C   0  0  0  0  0  0  0  0  0  0  0  0
    6.4562  -14.3696   25.9722 C   0  0  0  0  0  0  0  0  0  0  0  0
    9.2834  -16.2403   25.1383 C   0  0  0  0  0  0  0  0  0  0  0  0
    9.1424  -17.4635   25.3794 O   0  0  0  0  0  0  0  0  0  0  0  0
    9.3417  -14.4186   28.8312 C   0  0  0  0  0  0  0  0  0  0  0  0
   10.6884  -14.8693   28.3092 C   0  0  2  0  0  0  0  0  0  0  0  0
   11.4594  -13.7431   27.6807 C   0  0  0  0  0  0  0  0  0  0  0  0
   10.5195  -16.0369   27.3270 C   0  0  2  0  0  0  0  0  0  0  0  0
    9.8577  -15.4458   26.1657 N   0  0  0  0  0  0  0  0  0  0  0  0
    9.6324  -17.0202   27.9958 C   0  0  0  0  0  0  0  0  0  0  0  0
    8.3257  -17.1292   27.5515 O   0  0  0  0  0  0  0  0  0  0  0  0
   10.0284  -17.7340   28.9277 O   0  0  0  0  0  0  0  0  0  0  0  0
  2  1  1  6
  2  3  1  0
  4  3  1  0
  5  4  1  0
  6  5  1  0
  7  6  1  0
  8  9  2  0
  8  2  1  0
 10  8  1  0
 11 10  1  0
 12 13  1  0
 11 12  1  1
 13 18  2  0
 14 13  1  0
 14 15  2  0
 15 16  1  0
 16 17  2  0
 18 17  1  0
 19 20  2  0
 19 11  1  0
 22 21  1  6
 22 23  1  0
 24 25  1  6
 24 22  1  0
 25 19  1  0
 26 24  1  0
 27 26  1  0
 28 26  2  0
M  END
$$$$
