KFV.pdb
     RDKit          3D

 28 28  0  0  1  0  0  0  0  0999 V2000
    9.4668  -18.5646   20.8620 N   0  0  0  0  0  0  0  0  0  0  0  0
   10.6161  -17.7194   20.9693 C   0  0  1  0  0  0  0  0  0  0  0  0
   10.8575  -17.0371   19.6421 C   0  0  0  0  0  0  0  0  0  0  0  0
   10.9360  -18.1386   18.5844 C   0  0  0  0  0  0  0  0  0  0  0  0
   11.1631  -17.5471   17.2100 C   0  0  0  0  0  0  0  0  0  0  0  0
   11.3664  -18.6911   16.2468 C   0  0  0  0  0  0  0  0  0  0  0  0
   11.6772  -18.1947   14.9316 N   0  0  0  0  0  0  0  0  0  0  0  0
   10.4216  -16.6860   22.0371 C   0  0  0  0  0  0  0  0  0  0  0  0
   11.2545  -15.7897   22.2642 O   0  0  0  0  0  0  0  0  0  0  0  0
    9.2475  -16.7112   22.8339 N   0  0  0  0  0  0  0  0  0  0  0  0
    9.0291  -15.7535   23.9070 C   0  0  1  0  0  0  0  0  0  0  0  0
    7.5588  -15.4160   23.8818 C   0  0  0  0  0  0  0  0  0  0  0  0
    7.2124  -14.2141   24.6604 C   0  0  0  0  0  0  0  0  0  0  0  0
    7.6299  -12.9535   24.2878 C   0  0  0  0  0  0  0  0  0  0  0  0
    7.2902  -11.8242   25.0378 C   0  0  0  0  0  0  0  0  0  0  0  0
    6.5225  -11.9467   26.1779 C   0  0  0  0  0  0  0  0  0  0  0  0
    6.0962  -13.2115   26.5631 C   0  0  0  0  0  0  0  0  0  0  0  0
    6.4474  -14.3017   25.8037 C   0  0  0  0  0  0  0  0  0  0  0  0
    9.5044  -16.2477   25.2029 C   0  0  0  0  0  0  0  0  0  0  0  0
    9.5185  -17.4635   25.5124 O   0  0  0  0  0  0  0  0  0  0  0  0
    9.4622  -14.4366   29.1060 C   0  0  0  0  0  0  0  0  0  0  0  0
   10.7265  -14.5300   28.2800 C   0  0  2  0  0  0  0  0  0  0  0  0
   10.9710  -13.2858   27.4739 C   0  0  0  0  0  0  0  0  0  0  0  0
   10.6875  -15.7719   27.3786 C   0  0  2  0  0  0  0  0  0  0  0  0
    9.9789  -15.3315   26.1786 N   0  0  0  0  0  0  0  0  0  0  0  0
    9.9005  -16.7947   28.1104 C   0  0  0  0  0  0  0  0  0  0  0  0
   10.5348  -17.5179   29.1061 O   0  0  0  0  0  0  0  0  0  0  0  0
    8.7080  -17.0125   27.8545 O   0  0  0  0  0  0  0  0  0  0  0  0
  2  1  1  6
  2  3  1  0
  4  3  1  0
  5  4  1  0
  6  5  1  0
  7  6  1  0
  8  9  2  0
  8  2  1  0
 10  8  1  0
 11 10  1  0
 12 13  1  0
 11 12  1  1
 13 18  2  0
 14 13  1  0
 14 15  2  0
 15 16  1  0
 16 17  2  0
 18 17  1  0
 19 20  2  0
 19 11  1  0
 22 21  1  6
 22 23  1  0
 24 25  1  6
 24 22  1  0
 25 19  1  0
 26 24  1  0
 27 26  1  0
 28 26  2  0
M  END
$$$$
