HWC.pdb
     RDKit          3D

 31 33  0  0  1  0  0  0  0  0999 V2000
   21.9271  -24.9233  -15.0512 N   0  0  0  0  0  0  0  0  0  0  0  0
   20.7665  -25.4347  -14.3934 C   0  0  1  0  0  0  0  0  0  0  0  0
   20.8523  -26.9086  -14.1298 C   0  0  0  0  0  0  0  0  0  0  0  0
   20.9925  -27.6376  -15.3990 C   0  0  0  0  0  0  0  0  0  0  0  0
   22.0141  -28.5192  -15.7285 C   0  0  0  0  0  0  0  0  0  0  0  0
   21.8029  -28.9946  -16.9848 N   0  0  0  0  0  0  0  0  0  0  0  0
   20.6713  -28.4133  -17.4158 C   0  0  0  0  0  0  0  0  0  0  0  0
   20.1727  -27.5954  -16.4739 N   0  0  0  0  0  0  0  0  0  0  0  0
   20.5313  -24.7499  -13.0692 C   0  0  0  0  0  0  0  0  0  0  0  0
   21.1751  -25.1193  -12.0681 O   0  0  0  0  0  0  0  0  0  0  0  0
   19.5866  -23.6989  -12.9735 N   0  0  0  0  0  0  0  0  0  0  0  0
   19.2142  -22.9895  -11.7964 C   0  0  1  0  0  0  0  0  0  0  0  0
   19.2637  -21.4731  -11.9050 C   0  0  0  0  0  0  0  0  0  0  0  0
   20.6698  -21.0345  -12.0523 C   0  0  0  0  0  0  0  0  0  0  0  0
   21.4153  -20.6504  -13.1345 C   0  0  0  0  0  0  0  0  0  0  0  0
   22.6681  -20.3373  -12.7606 N   0  0  0  0  0  0  0  0  0  0  0  0
   22.7924  -20.4994  -11.4435 C   0  0  0  0  0  0  0  0  0  0  0  0
   23.8904  -20.2980  -10.6000 C   0  0  0  0  0  0  0  0  0  0  0  0
   23.6906  -20.5528   -9.2636 C   0  0  0  0  0  0  0  0  0  0  0  0
   22.4797  -20.9838   -8.7676 C   0  0  0  0  0  0  0  0  0  0  0  0
   21.4117  -21.1749   -9.6220 C   0  0  0  0  0  0  0  0  0  0  0  0
   21.5617  -20.9346  -10.9650 C   0  0  0  0  0  0  0  0  0  0  0  0
   18.0487  -23.5053  -11.0871 C   0  0  0  0  0  0  0  0  0  0  0  0
   17.0597  -23.9459  -11.7243 O   0  0  0  0  0  0  0  0  0  0  0  0
   18.0748  -23.4902   -9.6487 N   0  0  0  0  0  0  0  0  0  0  0  0
   16.9737  -24.0384   -8.8835 C   0  0  1  0  0  0  0  0  0  0  0  0
   17.3456  -24.1540   -7.4253 C   0  0  0  0  0  0  0  0  0  0  0  0
   18.8679  -25.1549   -7.3224 S   0  0  0  0  0  0  0  0  0  0  0  0
   15.7926  -23.1574   -9.0006 C   0  0  0  0  0  0  0  0  0  0  0  0
   15.9011  -22.0508   -9.5883 O   0  0  0  0  0  0  0  0  0  0  0  0
   14.5506  -23.4910   -8.4894 O   0  0  0  0  0  0  0  0  0  0  0  0
  2  1  1  1
  2  3  1  0
  3  4  1  0
  4  8  1  0
  4  5  2  0
  5  6  1  0
  7  6  1  0
  8  7  2  0
  9  2  1  0
  9 10  2  0
 11  9  1  0
 12 11  1  0
 12 13  1  6
 13 14  1  0
 14 15  2  0
 14 22  1  0
 15 16  1  0
 16 17  1  0
 17 18  2  0
 18 19  1  0
 20 19  2  0
 21 20  1  0
 22 21  2  0
 22 17  1  0
 23 12  1  0
 24 23  2  0
 25 23  1  0
 26 29  1  0
 26 25  1  0
 27 28  1  0
 26 27  1  1
 29 31  1  0
 30 29  2  0
M  END
$$$$
