HWC.pdb
     RDKit          3D

 31 33  0  0  1  0  0  0  0  0999 V2000
   21.4199  -17.6464  -17.5726 N   0  0  0  0  0  0  0  0  0  0  0  0
   21.3850  -16.5442  -18.4809 C   0  0  1  0  0  0  0  0  0  0  0  0
   20.0816  -16.4397  -19.2153 C   0  0  0  0  0  0  0  0  0  0  0  0
   19.8943  -17.6182  -20.0744 C   0  0  0  0  0  0  0  0  0  0  0  0
   19.0570  -18.6958  -19.8154 C   0  0  0  0  0  0  0  0  0  0  0  0
   19.1521  -19.5881  -20.8369 N   0  0  0  0  0  0  0  0  0  0  0  0
   20.0326  -19.0647  -21.7057 C   0  0  0  0  0  0  0  0  0  0  0  0
   20.4872  -17.8812  -21.2613 N   0  0  0  0  0  0  0  0  0  0  0  0
   21.6122  -15.2318  -17.7710 C   0  0  0  0  0  0  0  0  0  0  0  0
   21.0707  -15.0337  -16.6663 O   0  0  0  0  0  0  0  0  0  0  0  0
   22.4339  -14.2405  -18.3613 N   0  0  0  0  0  0  0  0  0  0  0  0
   22.7294  -12.9511  -17.8344 C   0  0  1  0  0  0  0  0  0  0  0  0
   24.2012  -12.6777  -17.5646 C   0  0  0  0  0  0  0  0  0  0  0  0
   24.7439  -13.7300  -16.6762 C   0  0  0  0  0  0  0  0  0  0  0  0
   24.3937  -14.1620  -15.4250 C   0  0  0  0  0  0  0  0  0  0  0  0
   25.1989  -15.1618  -15.0258 N   0  0  0  0  0  0  0  0  0  0  0  0
   26.0918  -15.4216  -15.9806 C   0  0  0  0  0  0  0  0  0  0  0  0
   27.1224  -16.3666  -16.0320 C   0  0  0  0  0  0  0  0  0  0  0  0
   27.8775  -16.3869  -17.1810 C   0  0  0  0  0  0  0  0  0  0  0  0
   27.6433  -15.5290  -18.2332 C   0  0  0  0  0  0  0  0  0  0  0  0
   26.6194  -14.6053  -18.1568 C   0  0  0  0  0  0  0  0  0  0  0  0
   25.8381  -14.5456  -17.0300 C   0  0  0  0  0  0  0  0  0  0  0  0
   22.0112  -11.8373  -18.4436 C   0  0  0  0  0  0  0  0  0  0  0  0
   22.0725  -11.6425  -19.6831 O   0  0  0  0  0  0  0  0  0  0  0  0
   21.2401  -10.9814  -17.5817 N   0  0  0  0  0  0  0  0  0  0  0  0
   20.4482   -9.8996  -18.1303 C   0  0  1  0  0  0  0  0  0  0  0  0
   19.1329   -9.7806  -17.3999 C   0  0  0  0  0  0  0  0  0  0  0  0
   18.3078   -8.2650  -17.9934 S   0  0  0  0  0  0  0  0  0  0  0  0
   21.1799   -8.6224  -17.9953 C   0  0  0  0  0  0  0  0  0  0  0  0
   21.8261   -8.3871  -16.9424 O   0  0  0  0  0  0  0  0  0  0  0  0
   21.1929   -7.6538  -18.9837 O   0  0  0  0  0  0  0  0  0  0  0  0
  2  1  1  1
  2  3  1  0
  3  4  1  0
  4  8  1  0
  4  5  2  0
  5  6  1  0
  7  6  1  0
  8  7  2  0
  9  2  1  0
  9 10  2  0
 11  9  1  0
 12 11  1  0
 12 13  1  6
 13 14  1  0
 14 15  2  0
 14 22  1  0
 15 16  1  0
 16 17  1  0
 17 18  2  0
 18 19  1  0
 20 19  2  0
 21 20  1  0
 22 21  2  0
 22 17  1  0
 23 12  1  0
 24 23  2  0
 25 23  1  0
 26 29  1  0
 26 25  1  0
 27 28  1  0
 26 27  1  1
 29 31  1  0
 30 29  2  0
M  END
$$$$
