HWC.pdb
     RDKit          3D

 31 33  0  0  1  0  0  0  0  0999 V2000
   29.3940  -26.1298  -16.4764 N   0  0  0  0  0  0  0  0  0  0  0  0
   29.7372  -24.8907  -17.0994 C   0  0  1  0  0  0  0  0  0  0  0  0
   29.7891  -24.9891  -18.5950 C   0  0  0  0  0  0  0  0  0  0  0  0
   30.9536  -25.7878  -19.0049 C   0  0  0  0  0  0  0  0  0  0  0  0
   32.2852  -25.4055  -18.9044 C   0  0  0  0  0  0  0  0  0  0  0  0
   33.0720  -26.4054  -19.3838 N   0  0  0  0  0  0  0  0  0  0  0  0
   32.2355  -27.3824  -19.7709 C   0  0  0  0  0  0  0  0  0  0  0  0
   30.9593  -27.0259  -19.5493 N   0  0  0  0  0  0  0  0  0  0  0  0
   28.7524  -23.8016  -16.7503 C   0  0  0  0  0  0  0  0  0  0  0  0
   27.5480  -24.0896  -16.6106 O   0  0  0  0  0  0  0  0  0  0  0  0
   29.2005  -22.4682  -16.5850 N   0  0  0  0  0  0  0  0  0  0  0  0
   28.4146  -21.3440  -16.2031 C   0  0  1  0  0  0  0  0  0  0  0  0
   29.1960  -20.1488  -15.6791 C   0  0  0  0  0  0  0  0  0  0  0  0
   28.2580  -19.1620  -15.0981 C   0  0  0  0  0  0  0  0  0  0  0  0
   27.5287  -19.1429  -13.9396 C   0  0  0  0  0  0  0  0  0  0  0  0
   26.8089  -18.0110  -13.8507 N   0  0  0  0  0  0  0  0  0  0  0  0
   27.0332  -17.2560  -14.9261 C   0  0  0  0  0  0  0  0  0  0  0  0
   26.5241  -16.0024  -15.2819 C   0  0  0  0  0  0  0  0  0  0  0  0
   26.9644  -15.4789  -16.4747 C   0  0  0  0  0  0  0  0  0  0  0  0
   27.8588  -16.1420  -17.2861 C   0  0  0  0  0  0  0  0  0  0  0  0
   28.3460  -17.3787  -16.9115 C   0  0  0  0  0  0  0  0  0  0  0  0
   27.9358  -17.9434  -15.7297 C   0  0  0  0  0  0  0  0  0  0  0  0
   27.3195  -21.0005  -17.1033 C   0  0  0  0  0  0  0  0  0  0  0  0
   27.5343  -20.8258  -18.3287 O   0  0  0  0  0  0  0  0  0  0  0  0
   26.0014  -20.8708  -16.5414 N   0  0  0  0  0  0  0  0  0  0  0  0
   24.8703  -20.5309  -17.3802 C   0  0  1  0  0  0  0  0  0  0  0  0
   23.8116  -21.6039  -17.3051 C   0  0  0  0  0  0  0  0  0  0  0  0
   24.6629  -23.2045  -17.0968 S   0  0  0  0  0  0  0  0  0  0  0  0
   24.2788  -19.2525  -16.9323 C   0  0  0  0  0  0  0  0  0  0  0  0
   24.7459  -18.6759  -15.9169 O   0  0  0  0  0  0  0  0  0  0  0  0
   23.2192  -18.6442  -17.5824 O   0  0  0  0  0  0  0  0  0  0  0  0
  2  1  1  1
  2  3  1  0
  3  4  1  0
  4  8  1  0
  4  5  2  0
  5  6  1  0
  7  6  1  0
  8  7  2  0
  9  2  1  0
  9 10  2  0
 11  9  1  0
 12 11  1  0
 12 13  1  6
 13 14  1  0
 14 15  2  0
 14 22  1  0
 15 16  1  0
 16 17  1  0
 17 18  2  0
 18 19  1  0
 20 19  2  0
 21 20  1  0
 22 21  2  0
 22 17  1  0
 23 12  1  0
 24 23  2  0
 25 23  1  0
 26 29  1  0
 26 25  1  0
 27 28  1  0
 26 27  1  1
 29 31  1  0
 30 29  2  0
M  END
$$$$
