HWC.pdb
     RDKit          3D

 31 33  0  0  1  0  0  0  0  0999 V2000
   28.1434  -21.5444  -15.1119 N   0  0  0  0  0  0  0  0  0  0  0  0
   27.4163  -20.4886  -14.4811 C   0  0  1  0  0  0  0  0  0  0  0  0
   26.7623  -19.5663  -15.4664 C   0  0  0  0  0  0  0  0  0  0  0  0
   27.7777  -18.7224  -16.1136 C   0  0  0  0  0  0  0  0  0  0  0  0
   28.6453  -19.1149  -17.1249 C   0  0  0  0  0  0  0  0  0  0  0  0
   29.4358  -18.0624  -17.4656 N   0  0  0  0  0  0  0  0  0  0  0  0
   29.0578  -17.0438  -16.6758 C   0  0  0  0  0  0  0  0  0  0  0  0
   28.0624  -17.4251  -15.8582 N   0  0  0  0  0  0  0  0  0  0  0  0
   26.3353  -21.0233  -13.5736 C   0  0  0  0  0  0  0  0  0  0  0  0
   25.6358  -21.9812  -13.9561 O   0  0  0  0  0  0  0  0  0  0  0  0
   26.1244  -20.4368  -12.3018 N   0  0  0  0  0  0  0  0  0  0  0  0
   25.0803  -20.7419  -11.3829 C   0  0  1  0  0  0  0  0  0  0  0  0
   25.3331  -20.3194   -9.9437 C   0  0  0  0  0  0  0  0  0  0  0  0
   26.7183  -20.6743   -9.5612 C   0  0  0  0  0  0  0  0  0  0  0  0
   27.6886  -21.4227  -10.1721 C   0  0  0  0  0  0  0  0  0  0  0  0
   28.8033  -21.4581   -9.4213 N   0  0  0  0  0  0  0  0  0  0  0  0
   28.6134  -20.7475   -8.3098 C   0  0  0  0  0  0  0  0  0  0  0  0
   29.4721  -20.4877   -7.2362 C   0  0  0  0  0  0  0  0  0  0  0  0
   28.9700  -19.6996   -6.2275 C   0  0  0  0  0  0  0  0  0  0  0  0
   27.6919  -19.1863   -6.2589 C   0  0  0  0  0  0  0  0  0  0  0  0
   26.8643  -19.4582   -7.3306 C   0  0  0  0  0  0  0  0  0  0  0  0
   27.3197  -20.2409   -8.3620 C   0  0  0  0  0  0  0  0  0  0  0  0
   23.7243  -20.4876  -11.8564 C   0  0  0  0  0  0  0  0  0  0  0  0
   23.2345  -19.3325  -11.7932 O   0  0  0  0  0  0  0  0  0  0  0  0
   22.9790  -21.5959  -12.3913 N   0  0  0  0  0  0  0  0  0  0  0  0
   21.6976  -21.3843  -13.0328 C   0  0  1  0  0  0  0  0  0  0  0  0
   21.3760  -22.5255  -13.9667 C   0  0  0  0  0  0  0  0  0  0  0  0
   22.6051  -23.8418  -13.6723 S   0  0  0  0  0  0  0  0  0  0  0  0
   20.6327  -21.2963  -12.0115 C   0  0  0  0  0  0  0  0  0  0  0  0
   20.8768  -21.6515  -10.8300 O   0  0  0  0  0  0  0  0  0  0  0  0
   19.3580  -20.8351  -12.2903 O   0  0  0  0  0  0  0  0  0  0  0  0
  2  1  1  6
  2  3  1  0
  3  4  1  0
  4  8  1  0
  4  5  2  0
  5  6  1  0
  7  6  1  0
  8  7  2  0
  9  2  1  0
  9 10  2  0
 11  9  1  0
 12 11  1  0
 12 13  1  1
 13 14  1  0
 14 15  2  0
 14 22  1  0
 15 16  1  0
 16 17  1  0
 17 18  2  0
 18 19  1  0
 20 19  2  0
 21 20  1  0
 22 21  2  0
 22 17  1  0
 23 12  1  0
 24 23  2  0
 25 23  1  0
 26 29  1  0
 26 25  1  0
 27 28  1  0
 26 27  1  6
 29 31  1  0
 30 29  2  0
M  END
$$$$
