HWC.pdb
     RDKit          3D

 31 33  0  0  1  0  0  0  0  0999 V2000
   26.4088  -18.7589  -18.3098 N   0  0  0  0  0  0  0  0  0  0  0  0
   27.1043  -19.4001  -17.2390 C   0  0  1  0  0  0  0  0  0  0  0  0
   28.4492  -18.7913  -16.9752 C   0  0  0  0  0  0  0  0  0  0  0  0
   29.2850  -18.8796  -18.1817 C   0  0  0  0  0  0  0  0  0  0  0  0
   29.8638  -20.0335  -18.6944 C   0  0  0  0  0  0  0  0  0  0  0  0
   30.5627  -19.7190  -19.8175 N   0  0  0  0  0  0  0  0  0  0  0  0
   30.4135  -18.3951  -19.9884 C   0  0  0  0  0  0  0  0  0  0  0  0
   29.6483  -17.8768  -19.0134 N   0  0  0  0  0  0  0  0  0  0  0  0
   26.3188  -19.3403  -15.9517 C   0  0  0  0  0  0  0  0  0  0  0  0
   26.2888  -18.2762  -15.3038 O   0  0  0  0  0  0  0  0  0  0  0  0
   25.6255  -20.4865  -15.4914 N   0  0  0  0  0  0  0  0  0  0  0  0
   24.7613  -20.5661  -14.3626 C   0  0  1  0  0  0  0  0  0  0  0  0
   23.3401  -21.0201  -14.6592 C   0  0  0  0  0  0  0  0  0  0  0  0
   22.5424  -19.8669  -15.1332 C   0  0  0  0  0  0  0  0  0  0  0  0
   21.6818  -19.0094  -14.5017 C   0  0  0  0  0  0  0  0  0  0  0  0
   21.1904  -18.1068  -15.3684 N   0  0  0  0  0  0  0  0  0  0  0  0
   21.6997  -18.3307  -16.5797 C   0  0  0  0  0  0  0  0  0  0  0  0
   21.4964  -17.6619  -17.7917 C   0  0  0  0  0  0  0  0  0  0  0  0
   22.1862  -18.1430  -18.8796 C   0  0  0  0  0  0  0  0  0  0  0  0
   23.0354  -19.2246  -18.7954 C   0  0  0  0  0  0  0  0  0  0  0  0
   23.2182  -19.8671  -17.5866 C   0  0  0  0  0  0  0  0  0  0  0  0
   22.5510  -19.4246  -16.4718 C   0  0  0  0  0  0  0  0  0  0  0  0
   25.3421  -21.1509  -13.1592 C   0  0  0  0  0  0  0  0  0  0  0  0
   25.9624  -22.2418  -13.2176 O   0  0  0  0  0  0  0  0  0  0  0  0
   25.1794  -20.4398  -11.9191 N   0  0  0  0  0  0  0  0  0  0  0  0
   25.4440  -21.0918  -10.6528 C   0  0  1  0  0  0  0  0  0  0  0  0
   26.3927  -20.2664   -9.8183 C   0  0  0  0  0  0  0  0  0  0  0  0
   27.7257  -19.6792  -10.9175 S   0  0  0  0  0  0  0  0  0  0  0  0
   24.1822  -21.2628   -9.9022 C   0  0  0  0  0  0  0  0  0  0  0  0
   23.1190  -20.7686  -10.3571 O   0  0  0  0  0  0  0  0  0  0  0  0
   24.1062  -21.9507   -8.7037 O   0  0  0  0  0  0  0  0  0  0  0  0
  2  1  1  6
  2  3  1  0
  3  4  1  0
  4  8  1  0
  4  5  2  0
  5  6  1  0
  7  6  1  0
  8  7  2  0
  9  2  1  0
  9 10  2  0
 11  9  1  0
 12 11  1  0
 12 13  1  6
 13 14  1  0
 14 15  2  0
 14 22  1  0
 15 16  1  0
 16 17  1  0
 17 18  2  0
 18 19  1  0
 20 19  2  0
 21 20  1  0
 22 21  2  0
 22 17  1  0
 23 12  1  0
 24 23  2  0
 25 23  1  0
 26 29  1  0
 26 25  1  0
 27 28  1  0
 26 27  1  1
 29 31  1  0
 30 29  2  0
M  END
$$$$
