HWC.pdb
     RDKit          3D

 31 33  0  0  1  0  0  0  0  0999 V2000
   25.4678  -21.6935  -15.2756 N   0  0  0  0  0  0  0  0  0  0  0  0
   24.3682  -21.0586  -14.6205 C   0  0  1  0  0  0  0  0  0  0  0  0
   23.0473  -21.4005  -15.2430 C   0  0  0  0  0  0  0  0  0  0  0  0
   22.9468  -20.7862  -16.5751 C   0  0  0  0  0  0  0  0  0  0  0  0
   22.6465  -19.4568  -16.8433 C   0  0  0  0  0  0  0  0  0  0  0  0
   22.6442  -19.2646  -18.1893 N   0  0  0  0  0  0  0  0  0  0  0  0
   22.9380  -20.4563  -18.7346 C   0  0  0  0  0  0  0  0  0  0  0  0
   23.1226  -21.3805  -17.7773 N   0  0  0  0  0  0  0  0  0  0  0  0
   24.2948  -21.4401  -13.1621 C   0  0  0  0  0  0  0  0  0  0  0  0
   24.1619  -22.6395  -12.8509 O   0  0  0  0  0  0  0  0  0  0  0  0
   24.3767  -20.4391  -12.1634 N   0  0  0  0  0  0  0  0  0  0  0  0
   24.3220  -20.6323  -10.7537 C   0  0  1  0  0  0  0  0  0  0  0  0
   25.1999  -19.7003   -9.9325 C   0  0  0  0  0  0  0  0  0  0  0  0
   26.5298  -20.3200   -9.7367 C   0  0  0  0  0  0  0  0  0  0  0  0
   27.2857  -21.1619  -10.5077 C   0  0  0  0  0  0  0  0  0  0  0  0
   28.4442  -21.4566   -9.8925 N   0  0  0  0  0  0  0  0  0  0  0  0
   28.4945  -20.8314   -8.7164 C   0  0  0  0  0  0  0  0  0  0  0  0
   29.4869  -20.8233   -7.7302 C   0  0  0  0  0  0  0  0  0  0  0  0
   29.2354  -20.0593   -6.6149 C   0  0  0  0  0  0  0  0  0  0  0  0
   28.0731  -19.3355   -6.4632 C   0  0  0  0  0  0  0  0  0  0  0  0
   27.1092  -19.3609   -7.4518 C   0  0  0  0  0  0  0  0  0  0  0  0
   27.3137  -20.1095   -8.5839 C   0  0  0  0  0  0  0  0  0  0  0  0
   22.9933  -20.8565  -10.1954 C   0  0  0  0  0  0  0  0  0  0  0  0
   21.9851  -20.3176  -10.7164 O   0  0  0  0  0  0  0  0  0  0  0  0
   22.8831  -21.7070   -9.0402 N   0  0  0  0  0  0  0  0  0  0  0  0
   21.5907  -21.9860   -8.4481 C   0  0  1  0  0  0  0  0  0  0  0  0
   21.6453  -23.2494   -7.6244 C   0  0  0  0  0  0  0  0  0  0  0  0
   19.9629  -23.5700   -6.9946 S   0  0  0  0  0  0  0  0  0  0  0  0
   21.1884  -20.8673   -7.5697 C   0  0  0  0  0  0  0  0  0  0  0  0
   20.0193  -20.4100   -7.6452 O   0  0  0  0  0  0  0  0  0  0  0  0
   22.0448  -20.2853   -6.6513 O   0  0  0  0  0  0  0  0  0  0  0  0
  2  1  1  6
  2  3  1  0
  3  4  1  0
  4  8  1  0
  4  5  2  0
  5  6  1  0
  7  6  1  0
  8  7  2  0
  9  2  1  0
  9 10  2  0
 11  9  1  0
 12 11  1  0
 12 13  1  1
 13 14  1  0
 14 15  2  0
 14 22  1  0
 15 16  1  0
 16 17  1  0
 17 18  2  0
 18 19  1  0
 20 19  2  0
 21 20  1  0
 22 21  2  0
 22 17  1  0
 23 12  1  0
 24 23  2  0
 25 23  1  0
 26 29  1  0
 26 25  1  0
 27 28  1  0
 26 27  1  1
 29 31  1  0
 30 29  2  0
M  END
$$$$
