HWC.pdb
     RDKit          3D

 31 33  0  0  1  0  0  0  0  0999 V2000
   28.2881  -20.9198  -14.7538 N   0  0  0  0  0  0  0  0  0  0  0  0
   27.4578  -19.9960  -14.0478 C   0  0  1  0  0  0  0  0  0  0  0  0
   26.6090  -19.1641  -14.9625 C   0  0  0  0  0  0  0  0  0  0  0  0
   27.4610  -18.2785  -15.7698 C   0  0  0  0  0  0  0  0  0  0  0  0
   28.1761  -17.1825  -15.3044 C   0  0  0  0  0  0  0  0  0  0  0  0
   28.8436  -16.6136  -16.3434 N   0  0  0  0  0  0  0  0  0  0  0  0
   28.5417  -17.3496  -17.4256 C   0  0  0  0  0  0  0  0  0  0  0  0
   27.7119  -18.3536  -17.0968 N   0  0  0  0  0  0  0  0  0  0  0  0
   26.5322  -20.7024  -13.0875 C   0  0  0  0  0  0  0  0  0  0  0  0
   26.0189  -21.7879  -13.4213 O   0  0  0  0  0  0  0  0  0  0  0  0
   26.2548  -20.1308  -11.8216 N   0  0  0  0  0  0  0  0  0  0  0  0
   25.2650  -20.5562  -10.8906 C   0  0  1  0  0  0  0  0  0  0  0  0
   25.5121  -20.1524   -9.4450 C   0  0  0  0  0  0  0  0  0  0  0  0
   26.8478  -20.6289   -9.0209 C   0  0  0  0  0  0  0  0  0  0  0  0
   27.7915  -21.4127   -9.6290 C   0  0  0  0  0  0  0  0  0  0  0  0
   28.8623  -21.5709   -8.8316 N   0  0  0  0  0  0  0  0  0  0  0  0
   28.6684  -20.9094   -7.6908 C   0  0  0  0  0  0  0  0  0  0  0  0
   29.4892  -20.7722   -6.5660 C   0  0  0  0  0  0  0  0  0  0  0  0
   28.9950  -20.0048   -5.5375 C   0  0  0  0  0  0  0  0  0  0  0  0
   27.7598  -19.3977   -5.5975 C   0  0  0  0  0  0  0  0  0  0  0  0
   26.9691  -19.5493   -6.7196 C   0  0  0  0  0  0  0  0  0  0  0  0
   27.4183  -20.3065   -7.7726 C   0  0  0  0  0  0  0  0  0  0  0  0
   23.8807  -20.4149  -11.3277 C   0  0  0  0  0  0  0  0  0  0  0  0
   23.3479  -19.2792  -11.3960 O   0  0  0  0  0  0  0  0  0  0  0  0
   23.1582  -21.6102  -11.6729 N   0  0  0  0  0  0  0  0  0  0  0  0
   21.8019  -21.5349  -12.1763 C   0  0  1  0  0  0  0  0  0  0  0  0
   21.5086  -22.7004  -13.0893 C   0  0  0  0  0  0  0  0  0  0  0  0
   22.6170  -22.5627  -14.5323 S   0  0  0  0  0  0  0  0  0  0  0  0
   20.8453  -21.5657  -11.0499 C   0  0  0  0  0  0  0  0  0  0  0  0
   21.2746  -21.7072   -9.8763 O   0  0  0  0  0  0  0  0  0  0  0  0
   19.4772  -21.4444  -11.2202 O   0  0  0  0  0  0  0  0  0  0  0  0
  2  1  1  6
  2  3  1  0
  3  4  1  0
  4  8  1  0
  4  5  2  0
  5  6  1  0
  7  6  1  0
  8  7  2  0
  9  2  1  0
  9 10  2  0
 11  9  1  0
 12 11  1  0
 12 13  1  1
 13 14  1  0
 14 15  2  0
 14 22  1  0
 15 16  1  0
 16 17  1  0
 17 18  2  0
 18 19  1  0
 20 19  2  0
 21 20  1  0
 22 21  2  0
 22 17  1  0
 23 12  1  0
 24 23  2  0
 25 23  1  0
 26 29  1  0
 26 25  1  0
 27 28  1  0
 26 27  1  6
 29 31  1  0
 30 29  2  0
M  END
$$$$
