HWC.pdb
     RDKit          3D

 31 33  0  0  1  0  0  0  0  0999 V2000
   21.9837  -15.2916  -15.9411 N   0  0  0  0  0  0  0  0  0  0  0  0
   21.3555  -14.2575  -16.7009 C   0  0  1  0  0  0  0  0  0  0  0  0
   19.8666  -14.2311  -16.5232 C   0  0  0  0  0  0  0  0  0  0  0  0
   19.2939  -15.5329  -16.8966 C   0  0  0  0  0  0  0  0  0  0  0  0
   19.7964  -16.7795  -16.5462 C   0  0  0  0  0  0  0  0  0  0  0  0
   18.9983  -17.7450  -17.0750 N   0  0  0  0  0  0  0  0  0  0  0  0
   18.0244  -17.0994  -17.7375 C   0  0  0  0  0  0  0  0  0  0  0  0
   18.1886  -15.7696  -17.6393 N   0  0  0  0  0  0  0  0  0  0  0  0
   21.8816  -12.8939  -16.3247 C   0  0  0  0  0  0  0  0  0  0  0  0
   21.9264  -12.5671  -15.1230 O   0  0  0  0  0  0  0  0  0  0  0  0
   22.3180  -12.0003  -17.3334 N   0  0  0  0  0  0  0  0  0  0  0  0
   22.8476  -10.6921  -17.1450 C   0  0  1  0  0  0  0  0  0  0  0  0
   24.1341  -10.3937  -17.8999 C   0  0  0  0  0  0  0  0  0  0  0  0
   25.1171  -11.4705  -17.6447 C   0  0  0  0  0  0  0  0  0  0  0  0
   25.4073  -12.6383  -18.2980 C   0  0  0  0  0  0  0  0  0  0  0  0
   26.3983  -13.2978  -17.6732 N   0  0  0  0  0  0  0  0  0  0  0  0
   26.7913  -12.6024  -16.6061 C   0  0  0  0  0  0  0  0  0  0  0  0
   27.7823  -12.8729  -15.6563 C   0  0  0  0  0  0  0  0  0  0  0  0
   27.9501  -11.9370  -14.6630 C   0  0  0  0  0  0  0  0  0  0  0  0
   27.1904  -10.7898  -14.5942 C   0  0  0  0  0  0  0  0  0  0  0  0
   26.2183  -10.5468  -15.5446 C   0  0  0  0  0  0  0  0  0  0  0  0
   26.0124  -11.4518  -16.5557 C   0  0  0  0  0  0  0  0  0  0  0  0
   21.8745   -9.6058  -17.1593 C   0  0  0  0  0  0  0  0  0  0  0  0
   21.0615   -9.4924  -18.1104 O   0  0  0  0  0  0  0  0  0  0  0  0
   21.8814   -8.6810  -16.0572 N   0  0  0  0  0  0  0  0  0  0  0  0
   20.8931   -7.6253  -15.9717 C   0  0  1  0  0  0  0  0  0  0  0  0
   19.8086   -7.9911  -14.9880 C   0  0  0  0  0  0  0  0  0  0  0  0
   18.7421   -6.5261  -14.7732 S   0  0  0  0  0  0  0  0  0  0  0  0
   21.5345   -6.3718  -15.5221 C   0  0  0  0  0  0  0  0  0  0  0  0
   22.6762   -6.4141  -14.9964 O   0  0  0  0  0  0  0  0  0  0  0  0
   20.9354   -5.1309  -15.6512 O   0  0  0  0  0  0  0  0  0  0  0  0
  2  1  1  1
  2  3  1  0
  3  4  1  0
  4  8  1  0
  4  5  2  0
  5  6  1  0
  7  6  1  0
  8  7  2  0
  9  2  1  0
  9 10  2  0
 11  9  1  0
 12 11  1  0
 12 13  1  6
 13 14  1  0
 14 15  2  0
 14 22  1  0
 15 16  1  0
 16 17  1  0
 17 18  2  0
 18 19  1  0
 20 19  2  0
 21 20  1  0
 22 21  2  0
 22 17  1  0
 23 12  1  0
 24 23  2  0
 25 23  1  0
 26 29  1  0
 26 25  1  0
 27 28  1  0
 26 27  1  1
 29 31  1  0
 30 29  2  0
M  END
$$$$
