HWC.pdb
     RDKit          3D

 31 33  0  0  1  0  0  0  0  0999 V2000
   27.4711  -18.7171  -19.3685 N   0  0  0  0  0  0  0  0  0  0  0  0
   26.5405  -18.1268  -18.4593 C   0  0  1  0  0  0  0  0  0  0  0  0
   25.2846  -17.6634  -19.1354 C   0  0  0  0  0  0  0  0  0  0  0  0
   25.5635  -16.4701  -19.9479 C   0  0  0  0  0  0  0  0  0  0  0  0
   25.3238  -16.3319  -21.3091 C   0  0  0  0  0  0  0  0  0  0  0  0
   25.7111  -15.0900  -21.7047 N   0  0  0  0  0  0  0  0  0  0  0  0
   26.1797  -14.4795  -20.6039 C   0  0  0  0  0  0  0  0  0  0  0  0
   26.0974  -15.2961  -19.5403 N   0  0  0  0  0  0  0  0  0  0  0  0
   26.1399  -19.0914  -17.3699 C   0  0  0  0  0  0  0  0  0  0  0  0
   25.5441  -20.1429  -17.6743 O   0  0  0  0  0  0  0  0  0  0  0  0
   26.4415  -18.7973  -16.0176 N   0  0  0  0  0  0  0  0  0  0  0  0
   26.0545  -19.5503  -14.8727 C   0  0  1  0  0  0  0  0  0  0  0  0
   26.9425  -19.3812  -13.6493 C   0  0  0  0  0  0  0  0  0  0  0  0
   26.6279  -20.4375  -12.6612 C   0  0  0  0  0  0  0  0  0  0  0  0
   26.6647  -21.8049  -12.7187 C   0  0  0  0  0  0  0  0  0  0  0  0
   26.2807  -22.3395  -11.5465 N   0  0  0  0  0  0  0  0  0  0  0  0
   25.9832  -21.3633  -10.6891 C   0  0  0  0  0  0  0  0  0  0  0  0
   25.5463  -21.4185   -9.3610 C   0  0  0  0  0  0  0  0  0  0  0  0
   25.3294  -20.2124   -8.7373 C   0  0  0  0  0  0  0  0  0  0  0  0
   25.5277  -19.0065   -9.3735 C   0  0  0  0  0  0  0  0  0  0  0  0
   25.9593  -18.9801  -10.6851 C   0  0  0  0  0  0  0  0  0  0  0  0
   26.1889  -20.1581  -11.3509 C   0  0  0  0  0  0  0  0  0  0  0  0
   24.6254  -19.5727  -14.5817 C   0  0  0  0  0  0  0  0  0  0  0  0
   24.0054  -18.5037  -14.3557 O   0  0  0  0  0  0  0  0  0  0  0  0
   23.9619  -20.8491  -14.5634 N   0  0  0  0  0  0  0  0  0  0  0  0
   22.6773  -21.0054  -13.9124 C   0  0  1  0  0  0  0  0  0  0  0  0
   22.8215  -21.7972  -12.6357 C   0  0  0  0  0  0  0  0  0  0  0  0
   21.1488  -22.0495  -11.9515 S   0  0  0  0  0  0  0  0  0  0  0  0
   22.1159  -19.6782  -13.5834 C   0  0  0  0  0  0  0  0  0  0  0  0
   22.8791  -18.7678  -13.1705 O   0  0  0  0  0  0  0  0  0  0  0  0
   20.7707  -19.3776  -13.7080 O   0  0  0  0  0  0  0  0  0  0  0  0
  2  1  1  6
  2  3  1  0
  3  4  1  0
  4  8  1  0
  4  5  2  0
  5  6  1  0
  7  6  1  0
  8  7  2  0
  9  2  1  0
  9 10  2  0
 11  9  1  0
 12 11  1  0
 12 13  1  1
 13 14  1  0
 14 15  2  0
 14 22  1  0
 15 16  1  0
 16 17  1  0
 17 18  2  0
 18 19  1  0
 20 19  2  0
 21 20  1  0
 22 21  2  0
 22 17  1  0
 23 12  1  0
 24 23  2  0
 25 23  1  0
 26 29  1  0
 26 25  1  0
 27 28  1  0
 26 27  1  1
 29 31  1  0
 30 29  2  0
M  END
$$$$
