HWC.pdb
     RDKit          3D

 31 33  0  0  1  0  0  0  0  0999 V2000
   25.2495  -12.6426  -21.8524 N   0  0  0  0  0  0  0  0  0  0  0  0
   24.3386  -11.7351  -21.2295 C   0  0  1  0  0  0  0  0  0  0  0  0
   23.9901  -10.5702  -22.1075 C   0  0  0  0  0  0  0  0  0  0  0  0
   25.2053   -9.8124  -22.4409 C   0  0  0  0  0  0  0  0  0  0  0  0
   25.9086   -8.9746  -21.5850 C   0  0  0  0  0  0  0  0  0  0  0  0
   26.9733   -8.4522  -22.2500 N   0  0  0  0  0  0  0  0  0  0  0  0
   26.9216   -8.9621  -23.4915 C   0  0  0  0  0  0  0  0  0  0  0  0
   25.8648   -9.7813  -23.6214 N   0  0  0  0  0  0  0  0  0  0  0  0
   23.0478  -12.4177  -20.8479 C   0  0  0  0  0  0  0  0  0  0  0  0
   22.4004  -13.0300  -21.7191 O   0  0  0  0  0  0  0  0  0  0  0  0
   22.5838  -12.3584  -19.5110 N   0  0  0  0  0  0  0  0  0  0  0  0
   21.4076  -12.9664  -18.9872 C   0  0  1  0  0  0  0  0  0  0  0  0
   21.6422  -14.0749  -17.9724 C   0  0  0  0  0  0  0  0  0  0  0  0
   22.3380  -15.2050  -18.6279 C   0  0  0  0  0  0  0  0  0  0  0  0
   23.6437  -15.4120  -18.9841 C   0  0  0  0  0  0  0  0  0  0  0  0
   23.7919  -16.6154  -19.5649 N   0  0  0  0  0  0  0  0  0  0  0  0
   22.6126  -17.2347  -19.6114 C   0  0  0  0  0  0  0  0  0  0  0  0
   22.2633  -18.4935  -20.1125 C   0  0  0  0  0  0  0  0  0  0  0  0
   20.9397  -18.8499  -20.0037 C   0  0  0  0  0  0  0  0  0  0  0  0
   19.9971  -18.0223  -19.4342 C   0  0  0  0  0  0  0  0  0  0  0  0
   20.3684  -16.7844  -18.9473 C   0  0  0  0  0  0  0  0  0  0  0  0
   21.6780  -16.3829  -19.0336 C   0  0  0  0  0  0  0  0  0  0  0  0
   20.3216  -12.0550  -18.6442 C   0  0  0  0  0  0  0  0  0  0  0  0
   20.5639  -10.9641  -18.0703 O   0  0  0  0  0  0  0  0  0  0  0  0
   18.9800  -12.4484  -18.9838 N   0  0  0  0  0  0  0  0  0  0  0  0
   17.8647  -11.5554  -18.7443 C   0  0  1  0  0  0  0  0  0  0  0  0
   16.8518  -11.6599  -19.8582 C   0  0  0  0  0  0  0  0  0  0  0  0
   16.1101  -13.3251  -19.7744 S   0  0  0  0  0  0  0  0  0  0  0  0
   17.2031  -11.9081  -17.4704 C   0  0  0  0  0  0  0  0  0  0  0  0
   17.5686  -12.9373  -16.8468 O   0  0  0  0  0  0  0  0  0  0  0  0
   16.1845  -11.1526  -16.9164 O   0  0  0  0  0  0  0  0  0  0  0  0
  2  1  1  6
  2  3  1  0
  3  4  1  0
  4  8  1  0
  4  5  2  0
  5  6  1  0
  7  6  1  0
  8  7  2  0
  9  2  1  0
  9 10  2  0
 11  9  1  0
 12 11  1  0
 12 13  1  1
 13 14  1  0
 14 15  2  0
 14 22  1  0
 15 16  1  0
 16 17  1  0
 17 18  2  0
 18 19  1  0
 20 19  2  0
 21 20  1  0
 22 21  2  0
 22 17  1  0
 23 12  1  0
 24 23  2  0
 25 23  1  0
 26 29  1  0
 26 25  1  0
 27 28  1  0
 26 27  1  6
 29 31  1  0
 30 29  2  0
M  END
$$$$
