HWC.pdb
     RDKit          3D

 31 33  0  0  1  0  0  0  0  0999 V2000
   27.1138  -20.9537  -13.5405 N   0  0  0  0  0  0  0  0  0  0  0  0
   25.9984  -20.3932  -12.8455 C   0  0  1  0  0  0  0  0  0  0  0  0
   24.7010  -20.6026  -13.5680 C   0  0  0  0  0  0  0  0  0  0  0  0
   24.6753  -19.7953  -14.7966 C   0  0  0  0  0  0  0  0  0  0  0  0
   24.2301  -18.4840  -14.9059 C   0  0  0  0  0  0  0  0  0  0  0  0
   24.3603  -18.0766  -16.1965 N   0  0  0  0  0  0  0  0  0  0  0  0
   24.8763  -19.1211  -16.8649 C   0  0  0  0  0  0  0  0  0  0  0  0
   25.0712  -20.1611  -16.0371 N   0  0  0  0  0  0  0  0  0  0  0  0
   25.8496  -20.9849  -11.4650 C   0  0  0  0  0  0  0  0  0  0  0  0
   25.6846  -22.2140  -11.3423 O   0  0  0  0  0  0  0  0  0  0  0  0
   25.8980  -20.1448  -10.3257 N   0  0  0  0  0  0  0  0  0  0  0  0
   25.3748  -20.4287   -9.0321 C   0  0  1  0  0  0  0  0  0  0  0  0
   25.9597  -19.6037   -7.8959 C   0  0  0  0  0  0  0  0  0  0  0  0
   27.3456  -20.0482   -7.6259 C   0  0  0  0  0  0  0  0  0  0  0  0
   28.2264  -20.8253   -8.3294 C   0  0  0  0  0  0  0  0  0  0  0  0
   29.3869  -20.9499   -7.6623 N   0  0  0  0  0  0  0  0  0  0  0  0
   29.3160  -20.2719   -6.5169 C   0  0  0  0  0  0  0  0  0  0  0  0
   30.2611  -20.0999   -5.4997 C   0  0  0  0  0  0  0  0  0  0  0  0
   29.8767  -19.3236   -4.4318 C   0  0  0  0  0  0  0  0  0  0  0  0
   28.6310  -18.7402   -4.3542 C   0  0  0  0  0  0  0  0  0  0  0  0
   27.7164  -18.9260   -5.3722 C   0  0  0  0  0  0  0  0  0  0  0  0
   28.0530  -19.6935   -6.4591 C   0  0  0  0  0  0  0  0  0  0  0  0
   23.9301  -20.6160   -8.9594 C   0  0  0  0  0  0  0  0  0  0  0  0
   23.1508  -19.6959   -9.3121 O   0  0  0  0  0  0  0  0  0  0  0  0
   23.4384  -21.8781   -8.4744 N   0  0  0  0  0  0  0  0  0  0  0  0
   22.0601  -22.0216   -8.0522 C   0  0  1  0  0  0  0  0  0  0  0  0
   21.8760  -21.4932   -6.6505 C   0  0  0  0  0  0  0  0  0  0  0  0
   21.2368  -22.8608   -5.6253 S   0  0  0  0  0  0  0  0  0  0  0  0
   21.1745  -21.2646   -8.9618 C   0  0  0  0  0  0  0  0  0  0  0  0
   21.6577  -20.3516   -9.6791 O   0  0  0  0  0  0  0  0  0  0  0  0
   19.8169  -21.5113   -9.0690 O   0  0  0  0  0  0  0  0  0  0  0  0
  2  1  1  6
  2  3  1  0
  3  4  1  0
  4  8  1  0
  4  5  2  0
  5  6  1  0
  7  6  1  0
  8  7  2  0
  9  2  1  0
  9 10  2  0
 11  9  1  0
 12 11  1  0
 12 13  1  1
 13 14  1  0
 14 15  2  0
 14 22  1  0
 15 16  1  0
 16 17  1  0
 17 18  2  0
 18 19  1  0
 20 19  2  0
 21 20  1  0
 22 21  2  0
 22 17  1  0
 23 12  1  0
 24 23  2  0
 25 23  1  0
 26 29  1  0
 26 25  1  0
 27 28  1  0
 26 27  1  1
 29 31  1  0
 30 29  2  0
M  END
$$$$
