HWC.pdb
     RDKit          3D

 31 33  0  0  1  0  0  0  0  0999 V2000
   25.5440  -20.0026  -16.6172 N   0  0  0  0  0  0  0  0  0  0  0  0
   26.5907  -19.8823  -15.6522 C   0  0  1  0  0  0  0  0  0  0  0  0
   27.5218  -18.7440  -15.9464 C   0  0  0  0  0  0  0  0  0  0  0  0
   28.1188  -18.9162  -17.2790 C   0  0  0  0  0  0  0  0  0  0  0  0
   28.9383  -19.9636  -17.6801 C   0  0  0  0  0  0  0  0  0  0  0  0
   29.2933  -19.7775  -18.9794 N   0  0  0  0  0  0  0  0  0  0  0  0
   28.7009  -18.6358  -19.3659 C   0  0  0  0  0  0  0  0  0  0  0  0
   27.9916  -18.1067  -18.3551 N   0  0  0  0  0  0  0  0  0  0  0  0
   26.0429  -19.6725  -14.2616 C   0  0  0  0  0  0  0  0  0  0  0  0
   25.8923  -18.5119  -13.8335 O   0  0  0  0  0  0  0  0  0  0  0  0
   25.7060  -20.7888  -13.4575 N   0  0  0  0  0  0  0  0  0  0  0  0
   25.0862  -20.7625  -12.1758 C   0  0  1  0  0  0  0  0  0  0  0  0
   23.7385  -21.4623  -12.0879 C   0  0  0  0  0  0  0  0  0  0  0  0
   22.7722  -20.7865  -12.9828 C   0  0  0  0  0  0  0  0  0  0  0  0
   22.1048  -19.5939  -12.8992 C   0  0  0  0  0  0  0  0  0  0  0  0
   21.3211  -19.4124  -13.9764 N   0  0  0  0  0  0  0  0  0  0  0  0
   21.4411  -20.4578  -14.7946 C   0  0  0  0  0  0  0  0  0  0  0  0
   20.8365  -20.7240  -16.0279 C   0  0  0  0  0  0  0  0  0  0  0  0
   21.1800  -21.9090  -16.6350 C   0  0  0  0  0  0  0  0  0  0  0  0
   22.0705  -22.7960  -16.0709 C   0  0  0  0  0  0  0  0  0  0  0  0
   22.6532  -22.5091  -14.8522 C   0  0  0  0  0  0  0  0  0  0  0  0
   22.3416  -21.3388  -14.2064 C   0  0  0  0  0  0  0  0  0  0  0  0
   25.9677  -21.0073  -11.0399 C   0  0  0  0  0  0  0  0  0  0  0  0
   26.5354  -22.1197  -10.9033 O   0  0  0  0  0  0  0  0  0  0  0  0
   26.1595  -19.9402  -10.0942 N   0  0  0  0  0  0  0  0  0  0  0  0
   26.5276  -20.2253   -8.7224 C   0  0  1  0  0  0  0  0  0  0  0  0
   27.0355  -18.9793   -8.0387 C   0  0  0  0  0  0  0  0  0  0  0  0
   27.3489  -19.3986   -6.2906 S   0  0  0  0  0  0  0  0  0  0  0  0
   25.3511  -20.7246   -7.9798 C   0  0  0  0  0  0  0  0  0  0  0  0
   24.2068  -20.2889   -8.2668 O   0  0  0  0  0  0  0  0  0  0  0  0
   25.4426  -21.6634   -6.9671 O   0  0  0  0  0  0  0  0  0  0  0  0
  2  1  1  6
  2  3  1  0
  3  4  1  0
  4  8  1  0
  4  5  2  0
  5  6  1  0
  7  6  1  0
  8  7  2  0
  9  2  1  0
  9 10  2  0
 11  9  1  0
 12 11  1  0
 12 13  1  6
 13 14  1  0
 14 15  2  0
 14 22  1  0
 15 16  1  0
 16 17  1  0
 17 18  2  0
 18 19  1  0
 20 19  2  0
 21 20  1  0
 22 21  2  0
 22 17  1  0
 23 12  1  0
 24 23  2  0
 25 23  1  0
 26 29  1  0
 26 25  1  0
 27 28  1  0
 26 27  1  1
 29 31  1  0
 30 29  2  0
M  END
$$$$
