HWC.pdb
     RDKit          3D

 31 33  0  0  1  0  0  0  0  0999 V2000
   26.9159  -18.2744  -16.2526 N   0  0  0  0  0  0  0  0  0  0  0  0
   27.4447  -19.6009  -16.2974 C   0  0  1  0  0  0  0  0  0  0  0  0
   28.8308  -19.6531  -16.8676 C   0  0  0  0  0  0  0  0  0  0  0  0
   28.8421  -19.0600  -18.2130 C   0  0  0  0  0  0  0  0  0  0  0  0
   28.6617  -19.7413  -19.4099 C   0  0  0  0  0  0  0  0  0  0  0  0
   28.7383  -18.8575  -20.4403 N   0  0  0  0  0  0  0  0  0  0  0  0
   28.9618  -17.6562  -19.8826 C   0  0  0  0  0  0  0  0  0  0  0  0
   29.0265  -17.7618  -18.5449 N   0  0  0  0  0  0  0  0  0  0  0  0
   27.4951  -20.2256  -14.9244 C   0  0  0  0  0  0  0  0  0  0  0  0
   28.4947  -20.0372  -14.2044 O   0  0  0  0  0  0  0  0  0  0  0  0
   26.4133  -21.0167  -14.4662 N   0  0  0  0  0  0  0  0  0  0  0  0
   25.5575  -20.7370  -13.3631 C   0  0  1  0  0  0  0  0  0  0  0  0
   26.1158  -19.7667  -12.3333 C   0  0  0  0  0  0  0  0  0  0  0  0
   27.1629  -20.4429  -11.5349 C   0  0  0  0  0  0  0  0  0  0  0  0
   28.3373  -21.0597  -11.8739 C   0  0  0  0  0  0  0  0  0  0  0  0
   28.9577  -21.5331  -10.7792 N   0  0  0  0  0  0  0  0  0  0  0  0
   28.2300  -21.2508   -9.6988 C   0  0  0  0  0  0  0  0  0  0  0  0
   28.4592  -21.5299   -8.3471 C   0  0  0  0  0  0  0  0  0  0  0  0
   27.5035  -21.0914   -7.4609 C   0  0  0  0  0  0  0  0  0  0  0  0
   26.3759  -20.4125   -7.8679 C   0  0  0  0  0  0  0  0  0  0  0  0
   26.1737  -20.1500   -9.2086 C   0  0  0  0  0  0  0  0  0  0  0  0
   27.0989  -20.5681  -10.1321 C   0  0  0  0  0  0  0  0  0  0  0  0
   24.1512  -20.5274  -13.6886 C   0  0  0  0  0  0  0  0  0  0  0  0
   23.7898  -19.5016  -14.3175 O   0  0  0  0  0  0  0  0  0  0  0  0
   23.2062  -21.5270  -13.2671 N   0  0  0  0  0  0  0  0  0  0  0  0
   21.8013  -21.4024  -13.5976 C   0  0  1  0  0  0  0  0  0  0  0  0
   21.2785  -22.6888  -14.1889 C   0  0  0  0  0  0  0  0  0  0  0  0
   21.7497  -24.0449  -13.0625 S   0  0  0  0  0  0  0  0  0  0  0  0
   21.0239  -21.0932  -12.3791 C   0  0  0  0  0  0  0  0  0  0  0  0
   19.8073  -20.7911  -12.4805 O   0  0  0  0  0  0  0  0  0  0  0  0
   21.5728  -21.1190  -11.1089 O   0  0  0  0  0  0  0  0  0  0  0  0
  2  1  1  1
  2  3  1  0
  3  4  1  0
  4  8  1  0
  4  5  2  0
  5  6  1  0
  7  6  1  0
  8  7  2  0
  9  2  1  0
  9 10  2  0
 11  9  1  0
 12 11  1  0
 12 13  1  6
 13 14  1  0
 14 15  2  0
 14 22  1  0
 15 16  1  0
 16 17  1  0
 17 18  2  0
 18 19  1  0
 20 19  2  0
 21 20  1  0
 22 21  2  0
 22 17  1  0
 23 12  1  0
 24 23  2  0
 25 23  1  0
 26 29  1  0
 26 25  1  0
 27 28  1  0
 26 27  1  1
 29 31  1  0
 30 29  2  0
M  END
$$$$
