HWC.pdb
     RDKit          3D

 31 33  0  0  1  0  0  0  0  0999 V2000
   25.7278  -20.7129  -14.0454 N   0  0  0  0  0  0  0  0  0  0  0  0
   24.9772  -20.0697  -13.0139 C   0  0  1  0  0  0  0  0  0  0  0  0
   23.5222  -19.9376  -13.3527 C   0  0  0  0  0  0  0  0  0  0  0  0
   23.3578  -19.0688  -14.5275 C   0  0  0  0  0  0  0  0  0  0  0  0
   23.2534  -19.4877  -15.8477 C   0  0  0  0  0  0  0  0  0  0  0  0
   23.1129  -18.3988  -16.6497 N   0  0  0  0  0  0  0  0  0  0  0  0
   23.1312  -17.3323  -15.8334 C   0  0  0  0  0  0  0  0  0  0  0  0
   23.2777  -17.7189  -14.5552 N   0  0  0  0  0  0  0  0  0  0  0  0
   25.0725  -20.8194  -11.7075 C   0  0  0  0  0  0  0  0  0  0  0  0
   24.5039  -21.9225  -11.5938 O   0  0  0  0  0  0  0  0  0  0  0  0
   25.8028  -20.2680  -10.6263 N   0  0  0  0  0  0  0  0  0  0  0  0
   26.0198  -20.8622   -9.3506 C   0  0  1  0  0  0  0  0  0  0  0  0
   27.4413  -20.7638   -8.8180 C   0  0  0  0  0  0  0  0  0  0  0  0
   27.4612  -19.8906   -7.6230 C   0  0  0  0  0  0  0  0  0  0  0  0
   26.7037  -18.8144   -7.2452 C   0  0  0  0  0  0  0  0  0  0  0  0
   27.1088  -18.3444   -6.0526 N   0  0  0  0  0  0  0  0  0  0  0  0
   28.1279  -19.0795   -5.6080 C   0  0  0  0  0  0  0  0  0  0  0  0
   28.8739  -18.9842   -4.4282 C   0  0  0  0  0  0  0  0  0  0  0  0
   29.8730  -19.9138   -4.2590 C   0  0  0  0  0  0  0  0  0  0  0  0
   30.1365  -20.8921   -5.1926 C   0  0  0  0  0  0  0  0  0  0  0  0
   29.3850  -20.9639   -6.3490 C   0  0  0  0  0  0  0  0  0  0  0  0
   28.3768  -20.0578   -6.5640 C   0  0  0  0  0  0  0  0  0  0  0  0
   24.9841  -20.6185   -8.3530 C   0  0  0  0  0  0  0  0  0  0  0  0
   24.5225  -19.4623   -8.1845 O   0  0  0  0  0  0  0  0  0  0  0  0
   24.5176  -21.7382   -7.5793 N   0  0  0  0  0  0  0  0  0  0  0  0
   23.4174  -21.5872   -6.6492 C   0  0  1  0  0  0  0  0  0  0  0  0
   22.7295  -22.9110   -6.4205 C   0  0  0  0  0  0  0  0  0  0  0  0
   23.9930  -24.0973   -5.8492 S   0  0  0  0  0  0  0  0  0  0  0  0
   23.9205  -21.0868   -5.3526 C   0  0  0  0  0  0  0  0  0  0  0  0
   23.1023  -20.7325   -4.4657 O   0  0  0  0  0  0  0  0  0  0  0  0
   25.2686  -20.9856   -5.0563 O   0  0  0  0  0  0  0  0  0  0  0  0
  2  1  1  6
  2  3  1  0
  3  4  1  0
  4  8  1  0
  4  5  2  0
  5  6  1  0
  7  6  1  0
  8  7  2  0
  9  2  1  0
  9 10  2  0
 11  9  1  0
 12 11  1  0
 12 13  1  1
 13 14  1  0
 14 15  2  0
 14 22  1  0
 15 16  1  0
 16 17  1  0
 17 18  2  0
 18 19  1  0
 20 19  2  0
 21 20  1  0
 22 21  2  0
 22 17  1  0
 23 12  1  0
 24 23  2  0
 25 23  1  0
 26 29  1  0
 26 25  1  0
 27 28  1  0
 26 27  1  1
 29 31  1  0
 30 29  2  0
M  END
$$$$
