HWC.pdb
     RDKit          3D

 31 33  0  0  1  0  0  0  0  0999 V2000
   28.4691  -22.8023  -16.2477 N   0  0  0  0  0  0  0  0  0  0  0  0
   27.5289  -21.7378  -16.0930 C   0  0  1  0  0  0  0  0  0  0  0  0
   26.5729  -21.6374  -17.2441 C   0  0  0  0  0  0  0  0  0  0  0  0
   27.2951  -21.2440  -18.4629 C   0  0  0  0  0  0  0  0  0  0  0  0
   27.3939  -21.9872  -19.6322 C   0  0  0  0  0  0  0  0  0  0  0  0
   28.1405  -21.2975  -20.5354 N   0  0  0  0  0  0  0  0  0  0  0  0
   28.4921  -20.1522  -19.9283 C   0  0  0  0  0  0  0  0  0  0  0  0
   27.9915  -20.1055  -18.6826 N   0  0  0  0  0  0  0  0  0  0  0  0
   26.7098  -21.8983  -14.8355 C   0  0  0  0  0  0  0  0  0  0  0  0
   26.0548  -22.9444  -14.6631 O   0  0  0  0  0  0  0  0  0  0  0  0
   26.6910  -20.8658  -13.8661 N   0  0  0  0  0  0  0  0  0  0  0  0
   25.8591  -20.7919  -12.7129 C   0  0  1  0  0  0  0  0  0  0  0  0
   26.3136  -19.8120  -11.6418 C   0  0  0  0  0  0  0  0  0  0  0  0
   27.4527  -20.3910  -10.8947 C   0  0  0  0  0  0  0  0  0  0  0  0
   28.5826  -21.0555  -11.2903 C   0  0  0  0  0  0  0  0  0  0  0  0
   29.3319  -21.3925  -10.2263 N   0  0  0  0  0  0  0  0  0  0  0  0
   28.7360  -20.9701   -9.1113 C   0  0  0  0  0  0  0  0  0  0  0  0
   29.1263  -21.0786   -7.7721 C   0  0  0  0  0  0  0  0  0  0  0  0
   28.2800  -20.5239   -6.8410 C   0  0  0  0  0  0  0  0  0  0  0  0
   27.1075  -19.8922   -7.1934 C   0  0  0  0  0  0  0  0  0  0  0  0
   26.7454  -19.7990   -8.5229 C   0  0  0  0  0  0  0  0  0  0  0  0
   27.5570  -20.3379   -9.4897 C   0  0  0  0  0  0  0  0  0  0  0  0
   24.4227  -20.7842  -12.9664 C   0  0  0  0  0  0  0  0  0  0  0  0
   23.9507  -20.1348  -13.9326 O   0  0  0  0  0  0  0  0  0  0  0  0
   23.5783  -21.5388  -12.0789 N   0  0  0  0  0  0  0  0  0  0  0  0
   22.1473  -21.6012  -12.2950 C   0  0  1  0  0  0  0  0  0  0  0  0
   21.4630  -22.2742  -11.1303 C   0  0  0  0  0  0  0  0  0  0  0  0
   21.9304  -21.3673   -9.6173 S   0  0  0  0  0  0  0  0  0  0  0  0
   21.6007  -20.2354  -12.4382 C   0  0  0  0  0  0  0  0  0  0  0  0
   22.2313  -19.2617  -11.9524 O   0  0  0  0  0  0  0  0  0  0  0  0
   20.4103  -19.9651  -13.0905 O   0  0  0  0  0  0  0  0  0  0  0  0
  2  1  1  6
  2  3  1  0
  3  4  1  0
  4  8  1  0
  4  5  2  0
  5  6  1  0
  7  6  1  0
  8  7  2  0
  9  2  1  0
  9 10  2  0
 11  9  1  0
 12 11  1  0
 12 13  1  6
 13 14  1  0
 14 15  2  0
 14 22  1  0
 15 16  1  0
 16 17  1  0
 17 18  2  0
 18 19  1  0
 20 19  2  0
 21 20  1  0
 22 21  2  0
 22 17  1  0
 23 12  1  0
 24 23  2  0
 25 23  1  0
 26 29  1  0
 26 25  1  0
 27 28  1  0
 26 27  1  1
 29 31  1  0
 30 29  2  0
M  END
$$$$
