NRV.pdb
     RDKit          3D

 27 26  0  0  1  0  0  0  0  0999 V2000
   11.1034  -17.1501   12.6582 N   0  0  0  0  0  0  0  0  0  0  0  0
   11.2785  -15.8881   13.3270 C   0  0  0  0  0  0  0  0  0  0  0  0
   12.0850  -15.0721   12.8433 O   0  0  0  0  0  0  0  0  0  0  0  0
   10.4782  -15.6760   14.5285 C   0  0  0  0  0  0  0  0  0  0  0  0
    9.4529  -16.7315   14.8351 C   0  0  2  0  0  0  0  0  0  0  0  0
    8.2832  -16.4341   13.9898 N   0  0  0  0  0  0  0  0  0  0  0  0
    9.0454  -16.6313   16.2655 C   0  0  0  0  0  0  0  0  0  0  0  0
    8.1406  -15.8442   16.6118 O   0  0  0  0  0  0  0  0  0  0  0  0
   12.4152  -20.2247   20.6204 N   0  0  0  0  0  0  0  0  0  0  0  0
   11.8512  -20.3967   21.9383 C   0  0  0  0  0  0  0  0  0  0  0  0
   12.5923  -20.3594   22.9876 N   0  0  0  0  0  0  0  0  0  0  0  0
   10.4539  -20.6085   22.1107 N   0  0  0  0  0  0  0  0  0  0  0  0
    9.5328  -20.5352   21.0161 C   0  0  0  0  0  0  0  0  0  0  0  0
    9.1403  -19.1058   20.6483 C   0  0  0  0  0  0  0  0  0  0  0  0
    9.4858  -18.9390   19.2046 C   0  0  0  0  0  0  0  0  0  0  0  0
    9.2133  -17.6124   18.6018 C   0  0  2  0  0  0  0  0  0  0  0  0
    9.6890  -17.4350   17.2482 N   0  0  0  0  0  0  0  0  0  0  0  0
    9.5904  -16.4510   19.4538 C   0  0  0  0  0  0  0  0  0  0  0  0
   10.8290  -16.2058   19.6494 O   0  0  0  0  0  0  0  0  0  0  0  0
   12.1706  -20.5360   23.9169 C   0  0  0  0  0  0  0  0  0  0  0  0
    8.0940  -12.7033   19.5932 C   0  0  2  0  0  0  0  0  0  0  0  0
    8.1909  -13.3465   20.9900 C   0  0  0  0  0  0  0  0  0  0  0  0
    6.7792  -13.6477   21.4186 C   0  0  2  0  0  0  0  0  0  0  0  0
    9.0981  -14.5259   20.9763 N   0  0  0  0  0  0  0  0  0  0  0  0
    8.6513  -15.5808   20.0773 C   0  0  0  0  0  0  0  0  0  0  0  0
    9.2033  -15.1100   22.3787 O   0  0  0  0  0  0  0  0  0  0  0  0
    8.7158  -16.2286   22.6404 O   0  0  0  0  0  0  0  0  0  0  0  0
  2  1  1  0
  3  2  2  0
  4  2  1  0
  4  5  1  0
  5  6  1  6
  5  7  1  0
  7  8  2  0
 10  9  1  0
 10 12  1  0
 11 10  2  0
 13 12  1  0
 13 14  1  0
 15 14  1  0
 16 15  1  1
 17  7  1  0
 17 16  1  0
 18 16  1  0
 18 19  2  0
 21 20  1  1
 21 23  1  0
 22 21  1  0
 23 24  1  1
 23 25  1  0
 24 18  1  0
 25 27  1  0
 26 25  2  0
M  END
$$$$
