NRV.pdb
     RDKit          3D

 27 26  0  0  1  0  0  0  0  0999 V2000
   13.3238  -20.1334   22.3896 N   0  0  0  0  0  0  0  0  0  0  0  0
   12.6726  -19.8584   23.6430 C   0  0  0  0  0  0  0  0  0  0  0  0
   12.7790  -20.6959   24.5581 O   0  0  0  0  0  0  0  0  0  0  0  0
   11.9388  -18.6001   23.7285 C   0  0  0  0  0  0  0  0  0  0  0  0
   11.8434  -17.8023   22.4582 C   0  0  2  0  0  0  0  0  0  0  0  0
   13.2196  -17.4066   22.1105 N   0  0  0  0  0  0  0  0  0  0  0  0
   11.0400  -16.5704   22.7013 C   0  0  0  0  0  0  0  0  0  0  0  0
   11.5949  -15.5172   23.0764 O   0  0  0  0  0  0  0  0  0  0  0  0
    9.7122  -13.8086   19.1159 N   0  0  0  0  0  0  0  0  0  0  0  0
    8.5214  -13.4122   18.4021 C   0  0  0  0  0  0  0  0  0  0  0  0
    8.4908  -13.3995   17.1173 N   0  0  0  0  0  0  0  0  0  0  0  0
    7.3445  -13.0280   19.1053 N   0  0  0  0  0  0  0  0  0  0  0  0
    6.6831  -13.9098   20.0199 C   0  0  0  0  0  0  0  0  0  0  0  0
    7.2729  -13.8768   21.4283 C   0  0  0  0  0  0  0  0  0  0  0  0
    7.6703  -15.2816   21.7448 C   0  0  0  0  0  0  0  0  0  0  0  0
    8.7561  -15.4606   22.7379 C   0  0  2  0  0  0  0  0  0  0  0  0
    9.6301  -16.5888   22.5071 N   0  0  0  0  0  0  0  0  0  0  0  0
    8.3153  -15.4125   24.1594 C   0  0  0  0  0  0  0  0  0  0  0  0
    8.2396  -16.5041   24.8190 O   0  0  0  0  0  0  0  0  0  0  0  0
    7.6219  -13.1164   16.6301 C   0  0  0  0  0  0  0  0  0  0  0  0
    8.1798  -11.9235   26.6632 C   0  0  2  0  0  0  0  0  0  0  0  0
    7.0139  -12.9298   26.7114 C   0  0  0  0  0  0  0  0  0  0  0  0
    5.8759  -12.2991   25.9534 C   0  0  2  0  0  0  0  0  0  0  0  0
    7.4337  -14.2629   26.2008 N   0  0  0  0  0  0  0  0  0  0  0  0
    7.9651  -14.2150   24.8458 C   0  0  0  0  0  0  0  0  0  0  0  0
    6.2453  -15.2151   26.2114 O   0  0  0  0  0  0  0  0  0  0  0  0
    5.6610  -15.5154   25.1505 O   0  0  0  0  0  0  0  0  0  0  0  0
  2  1  1  0
  3  2  2  0
  4  2  1  0
  4  5  1  0
  5  6  1  1
  5  7  1  0
  7  8  2  0
 10  9  1  0
 10 12  1  0
 11 10  2  0
 13 12  1  0
 13 14  1  0
 15 14  1  0
 16 15  1  6
 17  7  1  0
 17 16  1  0
 18 16  1  0
 18 19  2  0
 21 20  1  1
 21 23  1  0
 22 21  1  0
 23 24  1  1
 23 25  1  0
 24 18  1  0
 25 27  1  0
 26 25  2  0
M  END
$$$$
