NRV.pdb
     RDKit          3D

 27 26  0  0  1  0  0  0  0  0999 V2000
   14.6295  -15.3227   20.2780 N   0  0  0  0  0  0  0  0  0  0  0  0
   13.8220  -14.2831   19.6968 C   0  0  0  0  0  0  0  0  0  0  0  0
   14.3716  -13.4687   18.9319 O   0  0  0  0  0  0  0  0  0  0  0  0
   12.4090  -14.2817   20.0604 C   0  0  0  0  0  0  0  0  0  0  0  0
   11.7478  -15.6286   20.1504 C   0  0  2  0  0  0  0  0  0  0  0  0
   11.5805  -16.1040   18.7657 N   0  0  0  0  0  0  0  0  0  0  0  0
   10.4002  -15.4829   20.7707 C   0  0  0  0  0  0  0  0  0  0  0  0
    9.4712  -14.9338   20.1435 O   0  0  0  0  0  0  0  0  0  0  0  0
   10.7899  -19.8533   21.4722 N   0  0  0  0  0  0  0  0  0  0  0  0
    9.9135  -20.4483   20.4911 C   0  0  0  0  0  0  0  0  0  0  0  0
   10.3334  -21.3664   19.6958 N   0  0  0  0  0  0  0  0  0  0  0  0
    8.5555  -20.0350   20.3815 N   0  0  0  0  0  0  0  0  0  0  0  0
    8.0538  -18.8819   21.0674 C   0  0  0  0  0  0  0  0  0  0  0  0
    8.9239  -18.4510   22.2462 C   0  0  0  0  0  0  0  0  0  0  0  0
    8.2246  -17.2908   22.8760 C   0  0  0  0  0  0  0  0  0  0  0  0
    8.8773  -15.9663   22.7446 C   0  0  2  0  0  0  0  0  0  0  0  0
   10.1648  -15.9702   22.0872 N   0  0  0  0  0  0  0  0  0  0  0  0
    8.9244  -15.1670   23.9999 C   0  0  0  0  0  0  0  0  0  0  0  0
    9.9867  -15.1946   24.7092 O   0  0  0  0  0  0  0  0  0  0  0  0
    9.7073  -21.7228   18.9517 C   0  0  0  0  0  0  0  0  0  0  0  0
    5.5125  -13.2840   25.9838 C   0  0  2  0  0  0  0  0  0  0  0  0
    6.8931  -12.6049   25.9002 C   0  0  0  0  0  0  0  0  0  0  0  0
    7.0282  -11.7616   27.1404 C   0  0  1  0  0  0  0  0  0  0  0  0
    7.9751  -13.6091   25.7140 N   0  0  0  0  0  0  0  0  0  0  0  0
    7.8496  -14.3618   24.4737 C   0  0  0  0  0  0  0  0  0  0  0  0
    7.9641  -14.5975   26.8725 O   0  0  0  0  0  0  0  0  0  0  0  0
    7.5022  -15.7472   26.7237 O   0  0  0  0  0  0  0  0  0  0  0  0
  2  1  1  0
  3  2  2  0
  4  2  1  0
  4  5  1  0
  5  6  1  6
  5  7  1  0
  7  8  2  0
 10  9  1  0
 10 12  1  0
 11 10  2  0
 13 12  1  0
 13 14  1  0
 15 14  1  0
 16 15  1  1
 17  7  1  0
 17 16  1  0
 18 16  1  0
 18 19  2  0
 21 20  1  6
 21 23  1  0
 22 21  1  0
 23 24  1  6
 23 25  1  0
 24 18  1  0
 25 27  1  0
 26 25  2  0
M  END
$$$$
