NRV.pdb
     RDKit          3D

 27 26  0  0  1  0  0  0  0  0999 V2000
    8.9107  -12.7140   17.9358 N   0  0  0  0  0  0  0  0  0  0  0  0
    7.6520  -13.2778   18.3464 C   0  0  0  0  0  0  0  0  0  0  0  0
    6.6776  -13.1638   17.5798 O   0  0  0  0  0  0  0  0  0  0  0  0
    7.6347  -13.9459   19.6435 C   0  0  0  0  0  0  0  0  0  0  0  0
    8.8775  -13.8046   20.4771 C   0  0  2  0  0  0  0  0  0  0  0  0
    9.9689  -14.4260   19.7064 N   0  0  0  0  0  0  0  0  0  0  0  0
    8.7094  -14.5535   21.7550 C   0  0  0  0  0  0  0  0  0  0  0  0
    7.8388  -14.2088   22.5803 O   0  0  0  0  0  0  0  0  0  0  0  0
   11.4407  -20.5104   19.2390 N   0  0  0  0  0  0  0  0  0  0  0  0
   10.0565  -20.8061   19.5241 C   0  0  0  0  0  0  0  0  0  0  0  0
    9.2172  -21.0316   18.5774 N   0  0  0  0  0  0  0  0  0  0  0  0
    9.5847  -20.8600   20.8663 N   0  0  0  0  0  0  0  0  0  0  0  0
   10.0681  -19.9693   21.8787 C   0  0  0  0  0  0  0  0  0  0  0  0
    9.3235  -18.6365   21.9198 C   0  0  0  0  0  0  0  0  0  0  0  0
    9.8753  -17.8888   23.0895 C   0  0  0  0  0  0  0  0  0  0  0  0
    9.4521  -16.4760   23.2387 C   0  0  2  0  0  0  0  0  0  0  0  0
    9.5448  -15.6695   22.0425 N   0  0  0  0  0  0  0  0  0  0  0  0
   10.0471  -15.7666   24.4049 C   0  0  0  0  0  0  0  0  0  0  0  0
   11.2000  -15.2307   24.2782 O   0  0  0  0  0  0  0  0  0  0  0  0
    8.2201  -21.1922   18.8067 C   0  0  0  0  0  0  0  0  0  0  0  0
    7.8399  -13.9444   27.3976 C   0  0  2  0  0  0  0  0  0  0  0  0
    9.3319  -13.6668   27.1307 C   0  0  0  0  0  0  0  0  0  0  0  0
    9.8636  -12.9802   28.3608 C   0  0  1  0  0  0  0  0  0  0  0  0
   10.0520  -14.9146   26.7587 N   0  0  0  0  0  0  0  0  0  0  0  0
    9.4108  -15.6430   25.6728 C   0  0  0  0  0  0  0  0  0  0  0  0
   10.1363  -15.8391   27.9659 O   0  0  0  0  0  0  0  0  0  0  0  0
    9.4228  -16.8604   28.0363 O   0  0  0  0  0  0  0  0  0  0  0  0
  2  1  1  0
  3  2  2  0
  4  2  1  0
  4  5  1  0
  5  6  1  6
  5  7  1  0
  7  8  2  0
 10  9  1  0
 10 12  1  0
 11 10  2  0
 13 12  1  0
 13 14  1  0
 15 14  1  0
 16 15  1  6
 17  7  1  0
 17 16  1  0
 18 16  1  0
 18 19  2  0
 21 20  1  6
 21 23  1  0
 22 21  1  0
 23 24  1  6
 23 25  1  0
 24 18  1  0
 25 27  1  0
 26 25  2  0
M  END
$$$$
