NRV.pdb
     RDKit          3D

 27 26  0  0  1  0  0  0  0  0999 V2000
    8.5748  -12.4536   16.7110 N   0  0  0  0  0  0  0  0  0  0  0  0
    8.0679  -13.7705   16.9929 C   0  0  0  0  0  0  0  0  0  0  0  0
    8.0816  -14.6151   16.0782 O   0  0  0  0  0  0  0  0  0  0  0  0
    7.5801  -13.9995   18.3489 C   0  0  0  0  0  0  0  0  0  0  0  0
    8.6262  -14.0622   19.4264 C   0  0  2  0  0  0  0  0  0  0  0  0
    9.5431  -15.1540   19.0540 N   0  0  0  0  0  0  0  0  0  0  0  0
    7.9832  -14.4023   20.7275 C   0  0  0  0  0  0  0  0  0  0  0  0
    7.0938  -13.6679   21.2046 O   0  0  0  0  0  0  0  0  0  0  0  0
    7.2942  -20.6523   19.7766 N   0  0  0  0  0  0  0  0  0  0  0  0
    8.6528  -20.7235   20.2600 C   0  0  0  0  0  0  0  0  0  0  0  0
    9.5906  -21.2192   19.5343 N   0  0  0  0  0  0  0  0  0  0  0  0
    8.9911  -20.2410   21.5561 N   0  0  0  0  0  0  0  0  0  0  0  0
    8.0016  -19.7433   22.4644 C   0  0  0  0  0  0  0  0  0  0  0  0
    7.4476  -18.3763   22.0684 C   0  0  0  0  0  0  0  0  0  0  0  0
    7.9996  -17.4023   23.0575 C   0  0  0  0  0  0  0  0  0  0  0  0
    7.8621  -15.9640   22.7264 C   0  0  2  0  0  0  0  0  0  0  0  0
    8.3820  -15.5705   21.4361 N   0  0  0  0  0  0  0  0  0  0  0  0
    8.3239  -15.0318   23.7918 C   0  0  0  0  0  0  0  0  0  0  0  0
    9.5753  -14.8040   23.9120 O   0  0  0  0  0  0  0  0  0  0  0  0
   10.5560  -21.2617   19.9068 C   0  0  0  0  0  0  0  0  0  0  0  0
    5.7310  -12.9140   26.6417 C   0  0  2  0  0  0  0  0  0  0  0  0
    7.0146  -12.3367   26.0144 C   0  0  0  0  0  0  0  0  0  0  0  0
    7.5396  -11.3129   26.9859 C   0  0  1  0  0  0  0  0  0  0  0  0
    7.9787  -13.4176   25.6736 N   0  0  0  0  0  0  0  0  0  0  0  0
    7.4537  -14.3668   24.7019 C   0  0  0  0  0  0  0  0  0  0  0  0
    8.3554  -14.1865   26.9329 O   0  0  0  0  0  0  0  0  0  0  0  0
    7.9370  -15.3474   27.1187 O   0  0  0  0  0  0  0  0  0  0  0  0
  2  1  1  0
  3  2  2  0
  4  2  1  0
  4  5  1  0
  5  6  1  6
  5  7  1  0
  7  8  2  0
 10  9  1  0
 10 12  1  0
 11 10  2  0
 13 12  1  0
 13 14  1  0
 15 14  1  0
 16 15  1  1
 17  7  1  0
 17 16  1  0
 18 16  1  0
 18 19  2  0
 21 20  1  6
 21 23  1  0
 22 21  1  0
 23 24  1  6
 23 25  1  0
 24 18  1  0
 25 27  1  0
 26 25  2  0
M  END
$$$$
