NRV.pdb
     RDKit          3D

 27 26  0  0  1  0  0  0  0  0999 V2000
   15.9502  -17.9838   22.0113 N   0  0  0  0  0  0  0  0  0  0  0  0
   15.3800  -17.4064   20.8229 C   0  0  0  0  0  0  0  0  0  0  0  0
   16.1441  -16.8446   20.0163 O   0  0  0  0  0  0  0  0  0  0  0  0
   13.9352  -17.5386   20.6684 C   0  0  0  0  0  0  0  0  0  0  0  0
   13.1887  -18.0727   21.8588 C   0  0  2  0  0  0  0  0  0  0  0  0
   12.1603  -18.9861   21.3301 N   0  0  0  0  0  0  0  0  0  0  0  0
   12.5108  -16.9504   22.5679 C   0  0  0  0  0  0  0  0  0  0  0  0
   13.1813  -16.0488   23.1115 O   0  0  0  0  0  0  0  0  0  0  0  0
    7.5147  -14.2328   18.7178 N   0  0  0  0  0  0  0  0  0  0  0  0
    7.4501  -13.7399   20.0733 C   0  0  0  0  0  0  0  0  0  0  0  0
    7.6343  -12.4956   20.3368 N   0  0  0  0  0  0  0  0  0  0  0  0
    7.1755  -14.6219   21.1568 N   0  0  0  0  0  0  0  0  0  0  0  0
    7.0525  -14.1547   22.5052 C   0  0  0  0  0  0  0  0  0  0  0  0
    8.3208  -14.3508   23.3332 C   0  0  0  0  0  0  0  0  0  0  0  0
    9.0718  -15.4671   22.6839 C   0  0  0  0  0  0  0  0  0  0  0  0
   10.3347  -15.8897   23.3350 C   0  0  2  0  0  0  0  0  0  0  0  0
   11.0897  -16.9010   22.6299 N   0  0  0  0  0  0  0  0  0  0  0  0
   10.2079  -16.2318   24.7787 C   0  0  0  0  0  0  0  0  0  0  0  0
   10.2047  -17.4622   25.1230 O   0  0  0  0  0  0  0  0  0  0  0  0
    7.5827  -12.1685   21.3181 C   0  0  0  0  0  0  0  0  0  0  0  0
   11.0862  -13.6836   28.1410 C   0  0  2  0  0  0  0  0  0  0  0  0
    9.8065  -14.5417   28.1499 C   0  0  0  0  0  0  0  0  0  0  0  0
    8.6635  -13.6041   27.8641 C   0  0  2  0  0  0  0  0  0  0  0  0
    9.9200  -15.6851   27.2044 N   0  0  0  0  0  0  0  0  0  0  0  0
   10.0866  -15.2674   25.8193 C   0  0  0  0  0  0  0  0  0  0  0  0
    8.6704  -16.5510   27.2923 O   0  0  0  0  0  0  0  0  0  0  0  0
    7.7758  -16.4670   26.4264 O   0  0  0  0  0  0  0  0  0  0  0  0
  2  1  1  0
  3  2  2  0
  4  2  1  0
  4  5  1  0
  5  6  1  6
  5  7  1  0
  7  8  2  0
 10  9  1  0
 10 12  1  0
 11 10  2  0
 13 12  1  0
 13 14  1  0
 15 14  1  0
 16 15  1  6
 17  7  1  0
 17 16  1  0
 18 16  1  0
 18 19  2  0
 21 20  1  1
 21 23  1  0
 22 21  1  0
 23 24  1  1
 23 25  1  0
 24 18  1  0
 25 27  1  0
 26 25  2  0
M  END
$$$$
