NRV.pdb
     RDKit          3D

 27 26  0  0  1  0  0  0  0  0999 V2000
    8.1360  -12.5537   16.5473 N   0  0  0  0  0  0  0  0  0  0  0  0
    7.5034  -13.8398   16.6754 C   0  0  0  0  0  0  0  0  0  0  0  0
    7.0266  -14.3660   15.6527 O   0  0  0  0  0  0  0  0  0  0  0  0
    7.4825  -14.4201   18.0140 C   0  0  0  0  0  0  0  0  0  0  0  0
    7.8736  -13.5029   19.1388 C   0  0  2  0  0  0  0  0  0  0  0  0
    9.1501  -12.8811   18.7447 N   0  0  0  0  0  0  0  0  0  0  0  0
    8.0941  -14.2997   20.3792 C   0  0  0  0  0  0  0  0  0  0  0  0
    7.1464  -14.9089   20.9163 O   0  0  0  0  0  0  0  0  0  0  0  0
   14.0728  -14.1276   20.7013 N   0  0  0  0  0  0  0  0  0  0  0  0
   14.3008  -15.2730   19.8525 C   0  0  0  0  0  0  0  0  0  0  0  0
   14.9187  -15.1562   18.7316 N   0  0  0  0  0  0  0  0  0  0  0  0
   13.8493  -16.5670   20.2382 N   0  0  0  0  0  0  0  0  0  0  0  0
   13.0084  -16.7700   21.3799 C   0  0  0  0  0  0  0  0  0  0  0  0
   11.5380  -16.4545   21.1141 C   0  0  0  0  0  0  0  0  0  0  0  0
   11.0756  -15.6275   22.2690 C   0  0  0  0  0  0  0  0  0  0  0  0
    9.7040  -15.0713   22.1852 C   0  0  2  0  0  0  0  0  0  0  0  0
    9.3914  -14.3695   20.9606 N   0  0  0  0  0  0  0  0  0  0  0  0
    9.2776  -14.2817   23.3734 C   0  0  0  0  0  0  0  0  0  0  0  0
    9.2224  -13.0086   23.2806 O   0  0  0  0  0  0  0  0  0  0  0  0
   15.1148  -16.0015   18.1663 C   0  0  0  0  0  0  0  0  0  0  0  0
    6.0496  -14.0148   25.4282 C   0  0  1  0  0  0  0  0  0  0  0  0
    7.3375  -13.1693   25.4517 C   0  0  0  0  0  0  0  0  0  0  0  0
    7.0982  -12.0570   26.4381 C   0  0  1  0  0  0  0  0  0  0  0  0
    8.5278  -14.0120   25.7465 N   0  0  0  0  0  0  0  0  0  0  0  0
    8.9224  -14.8560   24.6271 C   0  0  0  0  0  0  0  0  0  0  0  0
    8.2380  -14.9117   26.9404 O   0  0  0  0  0  0  0  0  0  0  0  0
    8.0709  -16.1388   26.7870 O   0  0  0  0  0  0  0  0  0  0  0  0
  2  1  1  0
  3  2  2  0
  4  2  1  0
  4  5  1  0
  5  6  1  6
  5  7  1  0
  7  8  2  0
 10  9  1  0
 10 12  1  0
 11 10  2  0
 13 12  1  0
 13 14  1  0
 15 14  1  0
 16 15  1  1
 17  7  1  0
 17 16  1  0
 18 16  1  0
 18 19  2  0
 21 20  1  6
 21 23  1  0
 22 21  1  0
 23 24  1  6
 23 25  1  0
 24 18  1  0
 25 27  1  0
 26 25  2  0
M  END
$$$$
