AHN.pdb
     RDKit          3D

 24 24  0  0  1  0  0  0  0  0999 V2000
   11.6666  -24.0182   22.1203 C   0  0  0  0  0  0  0  0  0  0  0  0
   11.3856  -23.0570   23.2536 C   0  0  2  0  0  0  0  0  0  0  0  0
   11.7001  -21.7037   22.9307 N   0  0  0  0  0  0  0  0  0  0  0  0
   12.0500  -23.4548   24.5066 C   0  0  0  0  0  0  0  0  0  0  0  0
   11.8306  -24.5711   25.0339 O   0  0  0  0  0  0  0  0  0  0  0  0
   12.9535  -22.5720   25.1366 N   0  0  0  0  0  0  0  0  0  0  0  0
   13.6883  -22.8881   26.3658 C   0  0  1  0  0  0  0  0  0  0  0  0
   15.0636  -22.3309   26.1829 C   0  0  0  0  0  0  0  0  0  0  0  0
   15.9639  -23.1607   25.3473 C   0  0  0  0  0  0  0  0  0  0  0  0
   16.0840  -24.5049   25.2667 C   0  0  0  0  0  0  0  0  0  0  0  0
   17.0063  -24.8099   24.3023 N   0  0  0  0  0  0  0  0  0  0  0  0
   17.4610  -23.6651   23.7800 C   0  0  0  0  0  0  0  0  0  0  0  0
   16.8352  -22.6675   24.4066 N   0  0  0  0  0  0  0  0  0  0  0  0
   13.0041  -21.9939   27.3858 C   0  0  0  0  0  0  0  0  0  0  0  0
   12.2895  -21.0713   26.9705 O   0  0  0  0  0  0  0  0  0  0  0  0
    8.6496  -20.7896   29.9461 N   0  0  0  0  0  0  0  0  0  0  0  0
    9.8131  -21.5073   30.3658 C   0  0  0  0  0  0  0  0  0  0  0  0
    9.9263  -21.6655   31.6114 O   0  0  0  0  0  0  0  0  0  0  0  0
   10.7899  -22.0121   29.3856 C   0  0  0  0  0  0  0  0  0  0  0  0
   12.1823  -21.5824   29.7363 C   0  0  2  0  0  0  0  0  0  0  0  0
   13.1369  -22.1547   28.7719 N   0  0  0  0  0  0  0  0  0  0  0  0
   12.5895  -21.8807   31.1142 C   0  0  0  0  0  0  0  0  0  0  0  0
   13.1710  -23.1095   31.4774 O   0  0  0  0  0  0  0  0  0  0  0  0
   12.4278  -21.0344   32.0211 O   0  0  0  0  0  0  0  0  0  0  0  0
  2  1  1  6
  2  4  1  0
  2  3  1  0
  4  5  2  0
  6  7  1  0
  6  4  1  0
  7 14  1  0
  7  8  1  6
  9 10  2  0
  9  8  1  0
 11 10  1  0
 12 13  2  0
 12 11  1  0
 13  9  1  0
 14 21  1  0
 14 15  2  0
 17 18  2  0
 17 16  1  0
 19 17  1  0
 20 19  1  6
 21 20  1  0
 22 23  1  0
 22 20  1  0
 24 22  2  0
M  END
$$$$
