AHN.pdb
     RDKit          3D

 24 24  0  0  1  0  0  0  0  0999 V2000
    9.8165  -18.6332   17.0785 C   0  0  0  0  0  0  0  0  0  0  0  0
   10.2442  -18.6322   18.5292 C   0  0  2  0  0  0  0  0  0  0  0  0
    9.2862  -19.2372   19.3956 N   0  0  0  0  0  0  0  0  0  0  0  0
   10.5959  -17.2856   19.0112 C   0  0  0  0  0  0  0  0  0  0  0  0
   11.6798  -16.7421   18.6915 O   0  0  0  0  0  0  0  0  0  0  0  0
    9.7049  -16.5818   19.8498 N   0  0  0  0  0  0  0  0  0  0  0  0
    9.9463  -15.2244   20.3497 C   0  0  1  0  0  0  0  0  0  0  0  0
    8.6107  -14.5539   20.3936 C   0  0  0  0  0  0  0  0  0  0  0  0
    8.1608  -13.9807   19.1027 C   0  0  0  0  0  0  0  0  0  0  0  0
    8.7609  -13.9860   17.8911 C   0  0  0  0  0  0  0  0  0  0  0  0
    7.9292  -13.3886   16.9827 N   0  0  0  0  0  0  0  0  0  0  0  0
    6.8141  -13.0122   17.6192 C   0  0  0  0  0  0  0  0  0  0  0  0
    6.9487  -13.3673   18.8979 N   0  0  0  0  0  0  0  0  0  0  0  0
   10.3361  -15.4811   21.7954 C   0  0  0  0  0  0  0  0  0  0  0  0
    9.4597  -15.3813   22.6652 O   0  0  0  0  0  0  0  0  0  0  0  0
   11.3089  -17.3971   26.3751 N   0  0  0  0  0  0  0  0  0  0  0  0
   11.3770  -18.1196   25.1428 C   0  0  0  0  0  0  0  0  0  0  0  0
   11.7644  -19.3152   25.2418 O   0  0  0  0  0  0  0  0  0  0  0  0
   11.0128  -17.4814   23.8661 C   0  0  0  0  0  0  0  0  0  0  0  0
   11.9377  -16.3471   23.5432 C   0  0  2  0  0  0  0  0  0  0  0  0
   11.6333  -15.8245   22.2004 N   0  0  0  0  0  0  0  0  0  0  0  0
   13.3653  -16.6622   23.6699 C   0  0  0  0  0  0  0  0  0  0  0  0
   14.2369  -16.6604   22.5653 O   0  0  0  0  0  0  0  0  0  0  0  0
   13.8559  -16.9464   24.7850 O   0  0  0  0  0  0  0  0  0  0  0  0
  2  1  1  6
  2  4  1  0
  2  3  1  0
  4  5  2  0
  6  7  1  0
  6  4  1  0
  7 14  1  0
  7  8  1  1
  9 10  2  0
  9  8  1  0
 11 10  1  0
 12 13  2  0
 12 11  1  0
 13  9  1  0
 14 21  1  0
 14 15  2  0
 17 18  2  0
 17 16  1  0
 19 17  1  0
 20 19  1  6
 21 20  1  0
 22 23  1  0
 22 20  1  0
 24 22  2  0
M  END
$$$$
