AHN.pdb
     RDKit          3D

 24 24  0  0  1  0  0  0  0  0999 V2000
    8.2682  -12.4228   20.0706 C   0  0  0  0  0  0  0  0  0  0  0  0
    8.3730  -13.3006   18.8435 C   0  0  2  0  0  0  0  0  0  0  0  0
    7.1672  -13.3457   18.0828 N   0  0  0  0  0  0  0  0  0  0  0  0
    8.8305  -14.6635   19.1640 C   0  0  0  0  0  0  0  0  0  0  0  0
    8.0157  -15.6032   19.3231 O   0  0  0  0  0  0  0  0  0  0  0  0
   10.2100  -14.9310   19.2976 N   0  0  0  0  0  0  0  0  0  0  0  0
   10.7649  -16.2561   19.5926 C   0  0  1  0  0  0  0  0  0  0  0  0
   11.7034  -16.5725   18.4726 C   0  0  0  0  0  0  0  0  0  0  0  0
   11.0907  -17.3002   17.3357 C   0  0  0  0  0  0  0  0  0  0  0  0
   10.0544  -18.1683   17.3142 C   0  0  0  0  0  0  0  0  0  0  0  0
    9.8077  -18.5311   16.0176 N   0  0  0  0  0  0  0  0  0  0  0  0
   10.6821  -17.8941   15.2302 C   0  0  0  0  0  0  0  0  0  0  0  0
   11.4579  -17.1502   16.0204 N   0  0  0  0  0  0  0  0  0  0  0  0
   11.6361  -15.9749   20.8050 C   0  0  0  0  0  0  0  0  0  0  0  0
   12.1844  -14.8672   20.8885 O   0  0  0  0  0  0  0  0  0  0  0  0
    9.5057  -17.6385   24.0672 N   0  0  0  0  0  0  0  0  0  0  0  0
   10.5814  -16.7413   24.3555 C   0  0  0  0  0  0  0  0  0  0  0  0
   10.2340  -15.5798   24.7016 O   0  0  0  0  0  0  0  0  0  0  0  0
   11.9845  -17.1763   24.2459 C   0  0  0  0  0  0  0  0  0  0  0  0
   12.6436  -16.5831   23.0376 C   0  0  2  0  0  0  0  0  0  0  0  0
   11.8546  -16.9000   21.8351 N   0  0  0  0  0  0  0  0  0  0  0  0
   14.0493  -16.9627   22.8551 C   0  0  0  0  0  0  0  0  0  0  0  0
   15.0760  -16.4645   23.6783 O   0  0  0  0  0  0  0  0  0  0  0  0
   14.3798  -17.7549   21.9450 O   0  0  0  0  0  0  0  0  0  0  0  0
  2  1  1  1
  2  4  1  0
  2  3  1  0
  4  5  2  0
  6  7  1  0
  6  4  1  0
  7 14  1  0
  7  8  1  6
  9 10  2  0
  9  8  1  0
 11 10  1  0
 12 13  2  0
 12 11  1  0
 13  9  1  0
 14 21  1  0
 14 15  2  0
 17 18  2  0
 17 16  1  0
 19 17  1  0
 20 19  1  1
 21 20  1  0
 22 23  1  0
 22 20  1  0
 24 22  2  0
M  END
$$$$
