AHN.pdb
     RDKit          3D

 24 24  0  0  1  0  0  0  0  0999 V2000
    8.3098  -17.2124   26.3878 C   0  0  0  0  0  0  0  0  0  0  0  0
    7.1437  -17.4574   25.4564 C   0  0  2  0  0  0  0  0  0  0  0  0
    6.5295  -18.7300   25.6511 N   0  0  0  0  0  0  0  0  0  0  0  0
    7.5057  -17.2720   24.0407 C   0  0  0  0  0  0  0  0  0  0  0  0
    7.7573  -18.2516   23.2994 O   0  0  0  0  0  0  0  0  0  0  0  0
    7.5746  -15.9721   23.4949 N   0  0  0  0  0  0  0  0  0  0  0  0
    8.0087  -15.6783   22.1252 C   0  0  1  0  0  0  0  0  0  0  0  0
    7.5529  -14.2843   21.8347 C   0  0  0  0  0  0  0  0  0  0  0  0
    7.9361  -13.7715   20.4977 C   0  0  0  0  0  0  0  0  0  0  0  0
    7.1989  -13.6376   19.3722 C   0  0  0  0  0  0  0  0  0  0  0  0
    7.9707  -13.0533   18.4045 N   0  0  0  0  0  0  0  0  0  0  0  0
    9.1836  -12.8205   18.9191 C   0  0  0  0  0  0  0  0  0  0  0  0
    9.1678  -13.2516   20.1815 N   0  0  0  0  0  0  0  0  0  0  0  0
    9.5184  -15.6044   22.2776 C   0  0  0  0  0  0  0  0  0  0  0  0
    9.9793  -15.0531   23.2868 O   0  0  0  0  0  0  0  0  0  0  0  0
   11.5208  -19.1558   22.8603 N   0  0  0  0  0  0  0  0  0  0  0  0
   12.2409  -17.9208   22.8252 C   0  0  0  0  0  0  0  0  0  0  0  0
   12.5711  -17.4593   23.9510 O   0  0  0  0  0  0  0  0  0  0  0  0
   12.5577  -17.2614   21.5466 C   0  0  0  0  0  0  0  0  0  0  0  0
   11.8762  -15.9309   21.4387 C   0  0  2  0  0  0  0  0  0  0  0  0
   10.4198  -16.1252   21.3390 N   0  0  0  0  0  0  0  0  0  0  0  0
   12.3649  -15.0759   20.3508 C   0  0  0  0  0  0  0  0  0  0  0  0
   13.5615  -14.3422   20.4503 O   0  0  0  0  0  0  0  0  0  0  0  0
   11.7186  -14.9738   19.2847 O   0  0  0  0  0  0  0  0  0  0  0  0
  2  1  1  1
  2  4  1  0
  2  3  1  0
  4  5  2  0
  6  7  1  0
  6  4  1  0
  7 14  1  0
  7  8  1  1
  9 10  2  0
  9  8  1  0
 11 10  1  0
 12 13  2  0
 12 11  1  0
 13  9  1  0
 14 21  1  0
 14 15  2  0
 17 18  2  0
 17 16  1  0
 19 17  1  0
 20 19  1  6
 21 20  1  0
 22 23  1  0
 22 20  1  0
 24 22  2  0
M  END
$$$$
