AHN.pdb
     RDKit          3D

 24 24  0  0  1  0  0  0  0  0999 V2000
   10.8509  -18.4235   13.6894 C   0  0  0  0  0  0  0  0  0  0  0  0
   10.3197  -17.0447   13.3665 C   0  0  2  0  0  0  0  0  0  0  0  0
   10.7993  -16.5371   12.1228 N   0  0  0  0  0  0  0  0  0  0  0  0
   10.5712  -16.0773   14.4484 C   0  0  0  0  0  0  0  0  0  0  0  0
   11.6326  -15.4111   14.4924 O   0  0  0  0  0  0  0  0  0  0  0  0
    9.6072  -15.8864   15.4617 N   0  0  0  0  0  0  0  0  0  0  0  0
    9.7814  -14.9790   16.6006 C   0  0  1  0  0  0  0  0  0  0  0  0
    8.4712  -14.9592   17.3205 C   0  0  0  0  0  0  0  0  0  0  0  0
    8.4325  -14.0837   18.5161 C   0  0  0  0  0  0  0  0  0  0  0  0
    9.4090  -13.3399   19.0827 C   0  0  0  0  0  0  0  0  0  0  0  0
    8.8803  -12.6436   20.1361 N   0  0  0  0  0  0  0  0  0  0  0  0
    7.5805  -12.9471   20.2292 C   0  0  0  0  0  0  0  0  0  0  0  0
    7.3054  -13.8151   19.2542 N   0  0  0  0  0  0  0  0  0  0  0  0
   10.7372  -15.7589   17.4872 C   0  0  0  0  0  0  0  0  0  0  0  0
   11.0859  -16.8897   17.1207 O   0  0  0  0  0  0  0  0  0  0  0  0
   14.4597  -18.1642   17.3261 N   0  0  0  0  0  0  0  0  0  0  0  0
   14.0277  -17.4803   18.5054 C   0  0  0  0  0  0  0  0  0  0  0  0
   14.1211  -18.1419   19.5746 O   0  0  0  0  0  0  0  0  0  0  0  0
   13.5154  -16.1008   18.4399 C   0  0  0  0  0  0  0  0  0  0  0  0
   12.3806  -15.8973   19.3975 C   0  0  2  0  0  0  0  0  0  0  0  0
   11.2464  -15.2701   18.6982 N   0  0  0  0  0  0  0  0  0  0  0  0
   12.7262  -15.1468   20.6103 C   0  0  0  0  0  0  0  0  0  0  0  0
   12.7896  -13.7413   20.6326 O   0  0  0  0  0  0  0  0  0  0  0  0
   12.9785  -15.7476   21.6781 O   0  0  0  0  0  0  0  0  0  0  0  0
  2  1  1  1
  2  4  1  0
  2  3  1  0
  4  5  2  0
  6  7  1  0
  6  4  1  0
  7 14  1  0
  7  8  1  1
  9 10  2  0
  9  8  1  0
 11 10  1  0
 12 13  2  0
 12 11  1  0
 13  9  1  0
 14 21  1  0
 14 15  2  0
 17 18  2  0
 17 16  1  0
 19 17  1  0
 20 19  1  6
 21 20  1  0
 22 23  1  0
 22 20  1  0
 24 22  2  0
M  END
$$$$
