AHN.pdb
     RDKit          3D

 24 24  0  0  1  0  0  0  0  0999 V2000
    6.5064  -20.0491   22.5386 C   0  0  0  0  0  0  0  0  0  0  0  0
    6.3592  -19.0329   21.4282 C   0  0  2  0  0  0  0  0  0  0  0  0
    5.8159  -19.5866   20.2311 N   0  0  0  0  0  0  0  0  0  0  0  0
    7.6190  -18.3253   21.1424 C   0  0  0  0  0  0  0  0  0  0  0  0
    8.5686  -18.8975   20.5565 O   0  0  0  0  0  0  0  0  0  0  0  0
    7.7739  -16.9768   21.5298 N   0  0  0  0  0  0  0  0  0  0  0  0
    8.9738  -16.1777   21.2611 C   0  0  1  0  0  0  0  0  0  0  0  0
    8.5399  -14.7477   21.3074 C   0  0  0  0  0  0  0  0  0  0  0  0
    8.1030  -14.1887   20.0059 C   0  0  0  0  0  0  0  0  0  0  0  0
    8.0982  -14.7485   18.7752 C   0  0  0  0  0  0  0  0  0  0  0  0
    7.5386  -13.8668   17.8901 N   0  0  0  0  0  0  0  0  0  0  0  0
    7.1931  -12.7618   18.5607 C   0  0  0  0  0  0  0  0  0  0  0  0
    7.5311  -12.9510   19.8372 N   0  0  0  0  0  0  0  0  0  0  0  0
    9.7987  -16.4081   22.5159 C   0  0  0  0  0  0  0  0  0  0  0  0
    9.2049  -16.4967   23.5994 O   0  0  0  0  0  0  0  0  0  0  0  0
   13.9551  -19.7330   24.6557 N   0  0  0  0  0  0  0  0  0  0  0  0
   12.7592  -18.9787   24.8706 C   0  0  0  0  0  0  0  0  0  0  0  0
   12.4585  -18.7814   26.0790 O   0  0  0  0  0  0  0  0  0  0  0  0
   11.9593  -18.4825   23.7376 C   0  0  0  0  0  0  0  0  0  0  0  0
   11.9572  -16.9845   23.6898 C   0  0  2  0  0  0  0  0  0  0  0  0
   11.1954  -16.5257   22.5159 N   0  0  0  0  0  0  0  0  0  0  0  0
   13.2876  -16.3661   23.7235 C   0  0  0  0  0  0  0  0  0  0  0  0
   14.0798  -16.3488   24.8862 O   0  0  0  0  0  0  0  0  0  0  0  0
   13.7629  -15.8269   22.6996 O   0  0  0  0  0  0  0  0  0  0  0  0
  2  1  1  1
  2  4  1  0
  2  3  1  0
  4  5  2  0
  6  7  1  0
  6  4  1  0
  7 14  1  0
  7  8  1  1
  9 10  2  0
  9  8  1  0
 11 10  1  0
 12 13  2  0
 12 11  1  0
 13  9  1  0
 14 21  1  0
 14 15  2  0
 17 18  2  0
 17 16  1  0
 19 17  1  0
 20 19  1  6
 21 20  1  0
 22 23  1  0
 22 20  1  0
 24 22  2  0
M  END
$$$$
