AHN.pdb
     RDKit          3D

 24 24  0  0  1  0  0  0  0  0999 V2000
    7.9435  -12.2959   20.4537 C   0  0  0  0  0  0  0  0  0  0  0  0
    8.2197  -12.7325   19.0323 C   0  0  2  0  0  0  0  0  0  0  0  0
    7.0322  -12.9493   18.2725 N   0  0  0  0  0  0  0  0  0  0  0  0
    9.0954  -13.9151   18.9671 C   0  0  0  0  0  0  0  0  0  0  0  0
    8.6473  -15.0398   18.6404 O   0  0  0  0  0  0  0  0  0  0  0  0
   10.4675  -13.7944   19.2757 N   0  0  0  0  0  0  0  0  0  0  0  0
   11.4250  -14.9032   19.2090 C   0  0  1  0  0  0  0  0  0  0  0  0
   12.6557  -14.3515   18.5638 C   0  0  0  0  0  0  0  0  0  0  0  0
   12.9763  -14.9331   17.2386 C   0  0  0  0  0  0  0  0  0  0  0  0
   12.2241  -15.0142   16.1181 C   0  0  0  0  0  0  0  0  0  0  0  0
   12.9739  -15.5783   15.1214 N   0  0  0  0  0  0  0  0  0  0  0  0
   14.1890  -15.8481   15.6124 C   0  0  0  0  0  0  0  0  0  0  0  0
   14.1956  -15.4606   16.8888 N   0  0  0  0  0  0  0  0  0  0  0  0
   11.7745  -15.1119   20.6727 C   0  0  0  0  0  0  0  0  0  0  0  0
   11.9733  -14.1117   21.3760 O   0  0  0  0  0  0  0  0  0  0  0  0
   11.9042  -19.0878   25.2025 N   0  0  0  0  0  0  0  0  0  0  0  0
   11.5689  -17.7819   24.7256 C   0  0  0  0  0  0  0  0  0  0  0  0
   11.5636  -16.8752   25.6015 O   0  0  0  0  0  0  0  0  0  0  0  0
   11.2574  -17.5479   23.3050 C   0  0  0  0  0  0  0  0  0  0  0  0
   12.2019  -16.5546   22.6988 C   0  0  2  0  0  0  0  0  0  0  0  0
   11.8851  -16.3741   21.2720 N   0  0  0  0  0  0  0  0  0  0  0  0
   13.6240  -16.8664   22.8828 C   0  0  0  0  0  0  0  0  0  0  0  0
   14.4131  -16.2314   23.8596 O   0  0  0  0  0  0  0  0  0  0  0  0
   14.1846  -17.7217   22.1623 O   0  0  0  0  0  0  0  0  0  0  0  0
  2  1  1  1
  2  4  1  0
  2  3  1  0
  4  5  2  0
  6  7  1  0
  6  4  1  0
  7 14  1  0
  7  8  1  6
  9 10  2  0
  9  8  1  0
 11 10  1  0
 12 13  2  0
 12 11  1  0
 13  9  1  0
 14 21  1  0
 14 15  2  0
 17 18  2  0
 17 16  1  0
 19 17  1  0
 20 19  1  6
 21 20  1  0
 22 23  1  0
 22 20  1  0
 24 22  2  0
M  END
$$$$
