AHN.pdb
     RDKit          3D

 24 24  0  0  1  0  0  0  0  0999 V2000
   12.1673  -19.4002   17.7369 C   0  0  0  0  0  0  0  0  0  0  0  0
   11.7690  -17.9908   17.3599 C   0  0  2  0  0  0  0  0  0  0  0  0
   12.5239  -17.4690   16.2678 N   0  0  0  0  0  0  0  0  0  0  0  0
   11.8164  -17.0670   18.5061 C   0  0  0  0  0  0  0  0  0  0  0  0
   12.8429  -16.3915   18.7559 O   0  0  0  0  0  0  0  0  0  0  0  0
   10.6916  -16.9296   19.3479 N   0  0  0  0  0  0  0  0  0  0  0  0
   10.6584  -16.0787   20.5419 C   0  0  1  0  0  0  0  0  0  0  0  0
    9.2207  -15.7373   20.7691 C   0  0  0  0  0  0  0  0  0  0  0  0
    8.7169  -14.6011   19.9613 C   0  0  0  0  0  0  0  0  0  0  0  0
    9.3557  -13.8237   19.0583 C   0  0  0  0  0  0  0  0  0  0  0  0
    8.4577  -12.9428   18.5186 N   0  0  0  0  0  0  0  0  0  0  0  0
    7.2629  -13.1665   19.0779 C   0  0  0  0  0  0  0  0  0  0  0  0
    7.4139  -14.1659   19.9485 N   0  0  0  0  0  0  0  0  0  0  0  0
   11.0378  -17.0561   21.6413 C   0  0  0  0  0  0  0  0  0  0  0  0
   11.1120  -18.2593   21.3559 O   0  0  0  0  0  0  0  0  0  0  0  0
   15.0215  -19.2414   23.7795 N   0  0  0  0  0  0  0  0  0  0  0  0
   14.7463  -17.8410   23.8703 C   0  0  0  0  0  0  0  0  0  0  0  0
   15.4816  -17.1998   24.6688 O   0  0  0  0  0  0  0  0  0  0  0  0
   13.6724  -17.2237   23.0731 C   0  0  0  0  0  0  0  0  0  0  0  0
   12.3536  -17.3103   23.7800 C   0  0  2  0  0  0  0  0  0  0  0  0
   11.3084  -16.6720   22.9619 N   0  0  0  0  0  0  0  0  0  0  0  0
   12.3506  -16.7712   25.1448 C   0  0  0  0  0  0  0  0  0  0  0  0
   12.0171  -15.4331   25.4243 O   0  0  0  0  0  0  0  0  0  0  0  0
   12.6502  -17.5006   26.1159 O   0  0  0  0  0  0  0  0  0  0  0  0
  2  1  1  1
  2  4  1  0
  2  3  1  0
  4  5  2  0
  6  7  1  0
  6  4  1  0
  7 14  1  0
  7  8  1  1
  9 10  2  0
  9  8  1  0
 11 10  1  0
 12 13  2  0
 12 11  1  0
 13  9  1  0
 14 21  1  0
 14 15  2  0
 17 18  2  0
 17 16  1  0
 19 17  1  0
 20 19  1  6
 21 20  1  0
 22 23  1  0
 22 20  1  0
 24 22  2  0
M  END
$$$$
