AHN.pdb
     RDKit          3D

 24 24  0  0  1  0  0  0  0  0999 V2000
    8.4649  -18.8815   18.8898 C   0  0  0  0  0  0  0  0  0  0  0  0
    8.1827  -18.9488   20.3741 C   0  0  2  0  0  0  0  0  0  0  0  0
    6.8030  -19.1535   20.6728 N   0  0  0  0  0  0  0  0  0  0  0  0
    8.6973  -17.7742   21.0985 C   0  0  0  0  0  0  0  0  0  0  0  0
    9.9144  -17.4736   21.0704 O   0  0  0  0  0  0  0  0  0  0  0  0
    7.8145  -16.9623   21.8428 N   0  0  0  0  0  0  0  0  0  0  0  0
    8.2336  -15.7924   22.6215 C   0  0  1  0  0  0  0  0  0  0  0  0
    7.3446  -14.6687   22.1947 C   0  0  0  0  0  0  0  0  0  0  0  0
    7.8090  -13.9301   20.9963 C   0  0  0  0  0  0  0  0  0  0  0  0
    8.9135  -14.1083   20.2372 C   0  0  0  0  0  0  0  0  0  0  0  0
    8.8804  -13.2239   19.1930 N   0  0  0  0  0  0  0  0  0  0  0  0
    7.7621  -12.4965   19.2948 C   0  0  0  0  0  0  0  0  0  0  0  0
    7.1122  -12.9187   20.3806 N   0  0  0  0  0  0  0  0  0  0  0  0
    7.7921  -16.1684   24.0257 C   0  0  0  0  0  0  0  0  0  0  0  0
    6.5774  -16.2361   24.2596 O   0  0  0  0  0  0  0  0  0  0  0  0
    6.1849  -19.7844   27.2692 N   0  0  0  0  0  0  0  0  0  0  0  0
    7.5233  -19.5348   26.8316 C   0  0  0  0  0  0  0  0  0  0  0  0
    8.4199  -20.1550   27.4648 O   0  0  0  0  0  0  0  0  0  0  0  0
    7.7993  -18.6126   25.7166 C   0  0  0  0  0  0  0  0  0  0  0  0
    8.3313  -17.3030   26.2146 C   0  0  2  0  0  0  0  0  0  0  0  0
    8.6832  -16.4427   25.0723 N   0  0  0  0  0  0  0  0  0  0  0  0
    9.4550  -17.4119   27.1521 C   0  0  0  0  0  0  0  0  0  0  0  0
    9.2710  -17.4374   28.5470 O   0  0  0  0  0  0  0  0  0  0  0  0
   10.6297  -17.4865   26.7288 O   0  0  0  0  0  0  0  0  0  0  0  0
  2  1  1  6
  2  4  1  0
  2  3  1  0
  4  5  2  0
  6  7  1  0
  6  4  1  0
  7 14  1  0
  7  8  1  6
  9 10  2  0
  9  8  1  0
 11 10  1  0
 12 13  2  0
 12 11  1  0
 13  9  1  0
 14 21  1  0
 14 15  2  0
 17 18  2  0
 17 16  1  0
 19 17  1  0
 20 19  1  6
 21 20  1  0
 22 23  1  0
 22 20  1  0
 24 22  2  0
M  END
$$$$
