AHN.pdb
     RDKit          3D

 24 24  0  0  1  0  0  0  0  0999 V2000
   11.9178  -19.3993   17.2576 C   0  0  0  0  0  0  0  0  0  0  0  0
   11.1169  -18.2964   16.6022 C   0  0  2  0  0  0  0  0  0  0  0  0
   11.5393  -18.0141   15.2693 N   0  0  0  0  0  0  0  0  0  0  0  0
   11.0942  -17.0630   17.4069 C   0  0  0  0  0  0  0  0  0  0  0  0
   12.0436  -16.2446   17.3709 O   0  0  0  0  0  0  0  0  0  0  0  0
    9.9887  -16.7842   18.2391 N   0  0  0  0  0  0  0  0  0  0  0  0
    9.9114  -15.6325   19.1438 C   0  0  1  0  0  0  0  0  0  0  0  0
    8.4639  -15.2681   19.2300 C   0  0  0  0  0  0  0  0  0  0  0  0
    7.9502  -14.4880   18.0789 C   0  0  0  0  0  0  0  0  0  0  0  0
    7.9095  -13.1511   17.8815 C   0  0  0  0  0  0  0  0  0  0  0  0
    7.4049  -12.9031   16.6335 N   0  0  0  0  0  0  0  0  0  0  0  0
    7.1321  -14.0762   16.0507 C   0  0  0  0  0  0  0  0  0  0  0  0
    7.4595  -15.0352   16.9182 N   0  0  0  0  0  0  0  0  0  0  0  0
   10.2695  -16.2538   20.4831 C   0  0  0  0  0  0  0  0  0  0  0  0
    9.4473  -17.0118   21.0160 O   0  0  0  0  0  0  0  0  0  0  0  0
   12.5058  -18.5038   24.4122 N   0  0  0  0  0  0  0  0  0  0  0  0
   12.1004  -19.1009   23.1776 C   0  0  0  0  0  0  0  0  0  0  0  0
   12.1117  -20.3614   23.1613 O   0  0  0  0  0  0  0  0  0  0  0  0
   11.7039  -18.2721   22.0262 C   0  0  0  0  0  0  0  0  0  0  0  0
   11.9236  -16.8159   22.3045 C   0  0  2  0  0  0  0  0  0  0  0  0
   11.4792  -16.0167   21.1500 N   0  0  0  0  0  0  0  0  0  0  0  0
   13.2956  -16.4629   22.6872 C   0  0  0  0  0  0  0  0  0  0  0  0
   13.8250  -16.7680   23.9547 O   0  0  0  0  0  0  0  0  0  0  0  0
   14.0465  -15.8696   21.8816 O   0  0  0  0  0  0  0  0  0  0  0  0
  2  1  1  1
  2  4  1  0
  2  3  1  0
  4  5  2  0
  6  7  1  0
  6  4  1  0
  7 14  1  0
  7  8  1  1
  9 10  2  0
  9  8  1  0
 11 10  1  0
 12 13  2  0
 12 11  1  0
 13  9  1  0
 14 21  1  0
 14 15  2  0
 17 18  2  0
 17 16  1  0
 19 17  1  0
 20 19  1  6
 21 20  1  0
 22 23  1  0
 22 20  1  0
 24 22  2  0
M  END
$$$$
