ERT.pdb
     RDKit          3D

 28 27  0  0  1  0  0  0  0  0999 V2000
   15.4021  -18.7201   16.4019 N   0  0  0  0  0  0  0  0  0  0  0  0
   16.0030  -19.1787   17.6315 C   0  0  1  0  0  0  0  0  0  0  0  0
   17.0452  -18.2080   18.0673 C   0  0  0  0  0  0  0  0  0  0  0  0
   18.1187  -18.0950   17.0236 C   0  0  0  0  0  0  0  0  0  0  0  0
   19.1731  -17.1177   17.3028 C   0  0  0  0  0  0  0  0  0  0  0  0
   19.1167  -15.9503   16.8451 O   0  0  0  0  0  0  0  0  0  0  0  0
   14.9211  -19.3486   18.6410 C   0  0  0  0  0  0  0  0  0  0  0  0
   13.7447  -18.9705   18.4205 O   0  0  0  0  0  0  0  0  0  0  0  0
   20.2676  -17.4553   18.0835 O   0  0  0  0  0  0  0  0  0  0  0  0
   15.2514  -24.5918   21.6459 N   0  0  0  0  0  0  0  0  0  0  0  0
   13.8503  -24.8651   21.7971 C   0  0  0  0  0  0  0  0  0  0  0  0
   13.3131  -25.8039   21.1309 N   0  0  0  0  0  0  0  0  0  0  0  0
   13.0574  -24.0744   22.7039 N   0  0  0  0  0  0  0  0  0  0  0  0
   13.6460  -22.9836   23.4532 C   0  0  0  0  0  0  0  0  0  0  0  0
   13.3688  -21.6879   22.7213 C   0  0  0  0  0  0  0  0  0  0  0  0
   14.3953  -21.4322   21.6571 C   0  0  0  0  0  0  0  0  0  0  0  0
   14.2322  -20.1764   20.9042 C   0  0  2  0  0  0  0  0  0  0  0  0
   15.2292  -19.9527   19.8812 N   0  0  0  0  0  0  0  0  0  0  0  0
   13.9328  -18.9602   21.7192 C   0  0  0  0  0  0  0  0  0  0  0  0
   14.8072  -18.2584   22.2780 O   0  0  0  0  0  0  0  0  0  0  0  0
   12.3013  -26.0160   21.2439 C   0  0  0  0  0  0  0  0  0  0  0  0
   10.3659  -15.7444   23.1129 C   0  0  1  0  0  0  0  0  0  0  0  0
   10.8634  -16.9371   22.3312 O   0  0  0  0  0  0  0  0  0  0  0  0
   10.7446  -16.6752   20.9622 C   0  0  1  0  0  0  0  0  0  0  0  0
   12.3007  -17.2968   22.6861 N   0  0  0  0  0  0  0  0  0  0  0  0
   12.5947  -18.5130   21.9142 C   0  0  0  0  0  0  0  0  0  0  0  0
   12.4752  -17.4837   24.1239 O   0  0  0  0  0  0  0  0  0  0  0  0
   12.8797  -16.3745   24.8633 O   0  0  0  0  0  0  0  0  0  0  0  0
  2  1  1  6
  2  7  1  0
  2  3  1  0
  4  3  1  0
  4  5  1  0
  5  6  2  0
  7  8  2  0
  9  5  1  0
 11 12  2  0
 11 10  1  0
 13 11  1  0
 14 15  1  0
 14 13  1  0
 16 15  1  0
 17 16  1  1
 18 17  1  0
 18  7  1  0
 19 20  2  0
 19 17  1  0
 22 21  1  1
 22 23  1  0
 24 22  1  0
 24 25  1  1
 25 19  1  0
 26 27  1  0
 26 24  1  0
 28 26  2  0
M  END
$$$$
