ERT.pdb
     RDKit          3D

 28 27  0  0  1  0  0  0  0  0999 V2000
    9.2025  -20.1803   24.0493 N   0  0  0  0  0  0  0  0  0  0  0  0
    8.2744  -19.1136   24.3389 C   0  0  1  0  0  0  0  0  0  0  0  0
    8.1063  -18.9881   25.8134 C   0  0  0  0  0  0  0  0  0  0  0  0
    8.4440  -20.2868   26.4871 C   0  0  0  0  0  0  0  0  0  0  0  0
    7.4879  -20.7431   27.4981 C   0  0  0  0  0  0  0  0  0  0  0  0
    6.4014  -20.1429   27.6848 O   0  0  0  0  0  0  0  0  0  0  0  0
    8.7933  -17.8652   23.7135 C   0  0  0  0  0  0  0  0  0  0  0  0
   10.0233  -17.6337   23.6197 O   0  0  0  0  0  0  0  0  0  0  0  0
    7.7564  -21.8553   28.2807 O   0  0  0  0  0  0  0  0  0  0  0  0
    8.8382  -12.1378   18.3338 N   0  0  0  0  0  0  0  0  0  0  0  0
    8.0968  -13.3513   18.1386 C   0  0  0  0  0  0  0  0  0  0  0  0
    8.3219  -14.0733   17.1179 N   0  0  0  0  0  0  0  0  0  0  0  0
    7.0999  -13.7473   19.1007 N   0  0  0  0  0  0  0  0  0  0  0  0
    6.9200  -13.0111   20.3350 C   0  0  0  0  0  0  0  0  0  0  0  0
    7.8612  -13.5758   21.3774 C   0  0  0  0  0  0  0  0  0  0  0  0
    7.4064  -14.9258   21.8488 C   0  0  0  0  0  0  0  0  0  0  0  0
    8.2637  -15.5690   22.8596 C   0  0  2  0  0  0  0  0  0  0  0  0
    7.8736  -16.9159   23.2124 N   0  0  0  0  0  0  0  0  0  0  0  0
    8.6276  -14.7269   24.0391 C   0  0  0  0  0  0  0  0  0  0  0  0
    9.2200  -13.6260   23.9581 O   0  0  0  0  0  0  0  0  0  0  0  0
    7.7712  -14.9406   16.9561 C   0  0  0  0  0  0  0  0  0  0  0  0
    7.3003  -12.3428   25.9478 C   0  0  2  0  0  0  0  0  0  0  0  0
    7.4940  -13.5071   26.8900 O   0  0  0  0  0  0  0  0  0  0  0  0
    6.3418  -14.3004   26.8880 C   0  0  2  0  0  0  0  0  0  0  0  0
    8.7189  -14.3387   26.5304 N   0  0  0  0  0  0  0  0  0  0  0  0
    8.3125  -15.1385   25.3657 C   0  0  0  0  0  0  0  0  0  0  0  0
    9.1668  -15.1599   27.6518 O   0  0  0  0  0  0  0  0  0  0  0  0
    9.6496  -14.4914   28.7746 O   0  0  0  0  0  0  0  0  0  0  0  0
  2  1  1  1
  2  7  1  0
  2  3  1  0
  4  3  1  0
  4  5  1  0
  5  6  2  0
  7  8  2  0
  9  5  1  0
 11 12  2  0
 11 10  1  0
 13 11  1  0
 14 15  1  0
 14 13  1  0
 16 15  1  0
 17 16  1  1
 18 17  1  0
 18  7  1  0
 19 20  2  0
 19 17  1  0
 22 21  1  1
 22 23  1  0
 24 22  1  0
 24 25  1  1
 25 19  1  0
 26 27  1  0
 26 24  1  0
 28 26  2  0
M  END
$$$$
