ERT.pdb
     RDKit          3D

 28 27  0  0  1  0  0  0  0  0999 V2000
    9.4539  -14.9538   16.0221 N   0  0  0  0  0  0  0  0  0  0  0  0
    9.6650  -14.2793   17.2806 C   0  0  1  0  0  0  0  0  0  0  0  0
    8.3703  -14.1692   18.0085 C   0  0  0  0  0  0  0  0  0  0  0  0
    8.5771  -13.5041   19.3387 C   0  0  0  0  0  0  0  0  0  0  0  0
    7.3720  -13.3241   20.1510 C   0  0  0  0  0  0  0  0  0  0  0  0
    6.2631  -13.7815   19.7812 O   0  0  0  0  0  0  0  0  0  0  0  0
   10.6902  -15.0401   18.0479 C   0  0  0  0  0  0  0  0  0  0  0  0
   10.6396  -16.2890   18.1622 O   0  0  0  0  0  0  0  0  0  0  0  0
    7.4216  -12.6409   21.3560 O   0  0  0  0  0  0  0  0  0  0  0  0
   16.0985  -13.2753   17.1492 N   0  0  0  0  0  0  0  0  0  0  0  0
   16.7227  -14.5658   17.0739 C   0  0  0  0  0  0  0  0  0  0  0  0
   17.0558  -15.0428   15.9447 N   0  0  0  0  0  0  0  0  0  0  0  0
   16.9699  -15.3160   18.2790 N   0  0  0  0  0  0  0  0  0  0  0  0
   16.5871  -14.7941   19.5748 C   0  0  0  0  0  0  0  0  0  0  0  0
   15.2100  -15.3188   19.9208 C   0  0  0  0  0  0  0  0  0  0  0  0
   14.1402  -14.5765   19.1750 C   0  0  0  0  0  0  0  0  0  0  0  0
   12.7569  -14.9922   19.4652 C   0  0  2  0  0  0  0  0  0  0  0  0
   11.7490  -14.3345   18.6639 N   0  0  0  0  0  0  0  0  0  0  0  0
   12.3947  -15.0931   20.9114 C   0  0  0  0  0  0  0  0  0  0  0  0
   12.7428  -14.2609   21.7807 O   0  0  0  0  0  0  0  0  0  0  0  0
   17.6816  -15.8716   15.8885 C   0  0  0  0  0  0  0  0  0  0  0  0
    8.8732  -15.9423   22.4145 C   0  0  2  0  0  0  0  0  0  0  0  0
    9.9214  -16.9115   22.9075 O   0  0  0  0  0  0  0  0  0  0  0  0
    9.8442  -18.0940   22.1640 C   0  0  2  0  0  0  0  0  0  0  0  0
   11.3251  -16.3236   22.8369 N   0  0  0  0  0  0  0  0  0  0  0  0
   11.6078  -16.1741   21.4019 C   0  0  0  0  0  0  0  0  0  0  0  0
   12.3024  -17.1659   23.5210 O   0  0  0  0  0  0  0  0  0  0  0  0
   12.2638  -17.1795   24.9134 O   0  0  0  0  0  0  0  0  0  0  0  0
  2  1  1  6
  2  7  1  0
  2  3  1  0
  4  3  1  0
  4  5  1  0
  5  6  2  0
  7  8  2  0
  9  5  1  0
 11 12  2  0
 11 10  1  0
 13 11  1  0
 14 15  1  0
 14 13  1  0
 16 15  1  0
 17 16  1  1
 18 17  1  0
 18  7  1  0
 19 20  2  0
 19 17  1  0
 22 21  1  1
 22 23  1  0
 24 22  1  0
 24 25  1  1
 25 19  1  0
 26 27  1  0
 26 24  1  0
 28 26  2  0
M  END
$$$$
