ERT.pdb
     RDKit          3D

 28 27  0  0  1  0  0  0  0  0999 V2000
   13.3071  -16.8772   20.0758 N   0  0  0  0  0  0  0  0  0  0  0  0
   13.4922  -15.7596   20.9703 C   0  0  1  0  0  0  0  0  0  0  0  0
   14.1866  -14.6565   20.2498 C   0  0  0  0  0  0  0  0  0  0  0  0
   14.4163  -15.0365   18.8155 C   0  0  0  0  0  0  0  0  0  0  0  0
   15.7395  -14.7118   18.2784 C   0  0  0  0  0  0  0  0  0  0  0  0
   16.5067  -13.9166   18.8737 O   0  0  0  0  0  0  0  0  0  0  0  0
   12.1556  -15.3535   21.4873 C   0  0  0  0  0  0  0  0  0  0  0  0
   11.3416  -14.7080   20.7829 O   0  0  0  0  0  0  0  0  0  0  0  0
   16.1840  -15.2757   17.0927 O   0  0  0  0  0  0  0  0  0  0  0  0
    7.7512  -13.8014   18.5222 N   0  0  0  0  0  0  0  0  0  0  0  0
    7.7376  -13.3844   19.8957 C   0  0  0  0  0  0  0  0  0  0  0  0
    8.1808  -12.2371   20.2131 N   0  0  0  0  0  0  0  0  0  0  0  0
    7.2210  -14.2679   20.9100 N   0  0  0  0  0  0  0  0  0  0  0  0
    7.5188  -14.0510   22.3108 C   0  0  0  0  0  0  0  0  0  0  0  0
    8.0016  -15.3541   22.9108 C   0  0  0  0  0  0  0  0  0  0  0  0
    9.3706  -15.7109   22.4106 C   0  0  0  0  0  0  0  0  0  0  0  0
   10.4780  -15.4512   23.3469 C   0  0  2  0  0  0  0  0  0  0  0  0
   11.7954  -15.7056   22.8081 N   0  0  0  0  0  0  0  0  0  0  0  0
   10.2935  -15.9686   24.7365 C   0  0  0  0  0  0  0  0  0  0  0  0
   10.2335  -17.1853   25.0291 O   0  0  0  0  0  0  0  0  0  0  0  0
    8.1299  -11.9084   21.1986 C   0  0  0  0  0  0  0  0  0  0  0  0
   10.5724  -13.1728   27.9888 C   0  0  2  0  0  0  0  0  0  0  0  0
    9.7680  -14.4462   28.1000 O   0  0  0  0  0  0  0  0  0  0  0  0
    8.4358  -14.1826   27.7642 C   0  0  2  0  0  0  0  0  0  0  0  0
   10.3319  -15.5593   27.2259 N   0  0  0  0  0  0  0  0  0  0  0  0
   10.1720  -15.0820   25.8445 C   0  0  0  0  0  0  0  0  0  0  0  0
    9.6585  -16.8328   27.4656 O   0  0  0  0  0  0  0  0  0  0  0  0
    9.8499  -17.4269   28.7110 O   0  0  0  0  0  0  0  0  0  0  0  0
  2  1  1  6
  2  7  1  0
  2  3  1  0
  4  3  1  0
  4  5  1  0
  5  6  2  0
  7  8  2  0
  9  5  1  0
 11 12  2  0
 11 10  1  0
 13 11  1  0
 14 15  1  0
 14 13  1  0
 16 15  1  0
 17 16  1  6
 18 17  1  0
 18  7  1  0
 19 20  2  0
 19 17  1  0
 22 21  1  1
 22 23  1  0
 24 22  1  0
 24 25  1  1
 25 19  1  0
 26 27  1  0
 26 24  1  0
 28 26  2  0
M  END
$$$$
