ERT.pdb
     RDKit          3D

 28 27  0  0  1  0  0  0  0  0999 V2000
    5.6275  -19.4470   25.3536 N   0  0  0  0  0  0  0  0  0  0  0  0
    6.9143  -19.5077   26.0045 C   0  0  1  0  0  0  0  0  0  0  0  0
    7.4512  -20.8941   25.9152 C   0  0  0  0  0  0  0  0  0  0  0  0
    6.9950  -21.5468   24.6423 C   0  0  0  0  0  0  0  0  0  0  0  0
    7.5765  -22.8611   24.3608 C   0  0  0  0  0  0  0  0  0  0  0  0
    7.4464  -23.8164   25.1645 O   0  0  0  0  0  0  0  0  0  0  0  0
    7.8076  -18.5053   25.3597 C   0  0  0  0  0  0  0  0  0  0  0  0
    9.0315  -18.4384   25.6301 O   0  0  0  0  0  0  0  0  0  0  0  0
    8.2898  -23.0884   23.1943 O   0  0  0  0  0  0  0  0  0  0  0  0
    9.0077  -13.4137   18.1458 N   0  0  0  0  0  0  0  0  0  0  0  0
    8.2946  -12.7077   19.1723 C   0  0  0  0  0  0  0  0  0  0  0  0
    8.2886  -11.4375   19.1796 N   0  0  0  0  0  0  0  0  0  0  0  0
    7.5876  -13.4416   20.1910 N   0  0  0  0  0  0  0  0  0  0  0  0
    7.9547  -14.8035   20.5204 C   0  0  0  0  0  0  0  0  0  0  0  0
    8.2995  -14.8697   21.9928 C   0  0  0  0  0  0  0  0  0  0  0  0
    7.4098  -15.8360   22.7184 C   0  0  0  0  0  0  0  0  0  0  0  0
    7.9964  -16.4669   23.9135 C   0  0  2  0  0  0  0  0  0  0  0  0
    7.2604  -17.6049   24.4174 N   0  0  0  0  0  0  0  0  0  0  0  0
    8.4561  -15.5335   24.9861 C   0  0  0  0  0  0  0  0  0  0  0  0
    7.8172  -14.5211   25.3552 O   0  0  0  0  0  0  0  0  0  0  0  0
    7.7099  -10.9188   19.8708 C   0  0  0  0  0  0  0  0  0  0  0  0
    7.8530  -14.0794   27.2278 C   0  0  2  0  0  0  0  0  0  0  0  0
    9.1438  -14.6817   27.7296 O   0  0  0  0  0  0  0  0  0  0  0  0
    8.8865  -15.9494   28.2623 C   0  0  2  0  0  0  0  0  0  0  0  0
   10.2021  -14.7634   26.6366 N   0  0  0  0  0  0  0  0  0  0  0  0
    9.6852  -15.7466   25.6734 C   0  0  0  0  0  0  0  0  0  0  0  0
   11.5100  -15.1305   27.1725 O   0  0  0  0  0  0  0  0  0  0  0  0
   12.1492  -14.1943   27.9821 O   0  0  0  0  0  0  0  0  0  0  0  0
  2  1  1  6
  2  7  1  0
  2  3  1  0
  4  3  1  0
  4  5  1  0
  5  6  2  0
  7  8  2  0
  9  5  1  0
 11 12  2  0
 11 10  1  0
 13 11  1  0
 14 15  1  0
 14 13  1  0
 16 15  1  0
 17 16  1  6
 18 17  1  0
 18  7  1  0
 19 20  2  0
 19 17  1  0
 22 21  1  1
 22 23  1  0
 24 22  1  0
 24 25  1  1
 25 19  1  0
 26 27  1  0
 26 24  1  0
 28 26  2  0
M  END
$$$$
