ERT.pdb
     RDKit          3D

 28 27  0  0  1  0  0  0  0  0999 V2000
   10.2772  -13.6532   18.6636 N   0  0  0  0  0  0  0  0  0  0  0  0
   10.4994  -14.8004   19.5108 C   0  0  1  0  0  0  0  0  0  0  0  0
   11.9331  -14.8519   19.9111 C   0  0  0  0  0  0  0  0  0  0  0  0
   12.7956  -14.2668   18.8303 C   0  0  0  0  0  0  0  0  0  0  0  0
   14.2399  -14.3542   19.0557 C   0  0  0  0  0  0  0  0  0  0  0  0
   14.7050  -14.7667   20.1461 O   0  0  0  0  0  0  0  0  0  0  0  0
    9.5820  -14.6982   20.6797 C   0  0  0  0  0  0  0  0  0  0  0  0
    8.9664  -13.6376   20.9472 O   0  0  0  0  0  0  0  0  0  0  0  0
   15.1381  -13.9824   18.0676 O   0  0  0  0  0  0  0  0  0  0  0  0
    4.3517  -20.8962   21.1237 N   0  0  0  0  0  0  0  0  0  0  0  0
    4.9058  -20.2402   19.9734 C   0  0  0  0  0  0  0  0  0  0  0  0
    4.5803  -20.6251   18.8074 N   0  0  0  0  0  0  0  0  0  0  0  0
    5.8289  -19.1472   20.1444 N   0  0  0  0  0  0  0  0  0  0  0  0
    6.2178  -18.6984   21.4655 C   0  0  0  0  0  0  0  0  0  0  0  0
    7.1176  -17.4898   21.3212 C   0  0  0  0  0  0  0  0  0  0  0  0
    7.5559  -16.9731   22.6602 C   0  0  0  0  0  0  0  0  0  0  0  0
    8.4842  -15.8296   22.6283 C   0  0  2  0  0  0  0  0  0  0  0  0
    9.4006  -15.8279   21.5098 N   0  0  0  0  0  0  0  0  0  0  0  0
    9.1314  -15.4770   23.9281 C   0  0  0  0  0  0  0  0  0  0  0  0
   10.3603  -15.5789   24.1495 O   0  0  0  0  0  0  0  0  0  0  0  0
    4.9973  -20.1721   17.9691 C   0  0  0  0  0  0  0  0  0  0  0  0
    8.3695  -12.2413   26.0222 C   0  0  2  0  0  0  0  0  0  0  0  0
    8.1995  -13.4857   26.8608 O   0  0  0  0  0  0  0  0  0  0  0  0
    6.8404  -13.8077   26.9405 C   0  0  2  0  0  0  0  0  0  0  0  0
    8.9983  -14.6612   26.3119 N   0  0  0  0  0  0  0  0  0  0  0  0
    8.3662  -14.9887   25.0256 C   0  0  0  0  0  0  0  0  0  0  0  0
    9.0117  -15.7895   27.2388 O   0  0  0  0  0  0  0  0  0  0  0  0
    9.6495  -15.5977   28.4624 O   0  0  0  0  0  0  0  0  0  0  0  0
  2  1  1  6
  2  7  1  0
  2  3  1  0
  4  3  1  0
  4  5  1  0
  5  6  2  0
  7  8  2  0
  9  5  1  0
 11 12  2  0
 11 10  1  0
 13 11  1  0
 14 15  1  0
 14 13  1  0
 16 15  1  0
 17 16  1  1
 18 17  1  0
 18  7  1  0
 19 20  2  0
 19 17  1  0
 22 21  1  1
 22 23  1  0
 24 22  1  0
 24 25  1  1
 25 19  1  0
 26 27  1  0
 26 24  1  0
 28 26  2  0
M  END
$$$$
