LIT.pdb
     RDKit          3D

 24 23  0  0  1  0  0  0  0  0999 V2000
   22.1599  -34.5654  -15.5101 C   0  0  0  0  0  0  0  0  0  0  0  0
   23.4826  -34.0290  -16.0569 C   0  0  2  0  0  0  0  0  0  0  0  0
   24.4584  -35.1774  -16.2714 C   0  0  0  0  0  0  0  0  0  0  0  0
   24.1211  -33.0984  -15.0525 C   0  0  0  0  0  0  0  0  0  0  0  0
   23.1615  -31.9640  -14.8017 C   0  0  2  0  0  0  0  0  0  0  0  0
   23.3032  -30.9350  -15.8119 N   0  0  0  0  0  0  0  0  0  0  0  0
   23.4195  -31.3662  -13.4394 C   0  0  0  0  0  0  0  0  0  0  0  0
   24.2231  -30.4372  -13.2758 O   0  0  0  0  0  0  0  0  0  0  0  0
   20.5002  -28.3485  -10.7001 C   0  0  0  0  0  0  0  0  0  0  0  0
   21.6420  -29.2147  -11.2748 C   0  0  0  0  0  0  0  0  0  0  0  0
   21.7646  -30.4956  -10.5055 C   0  0  2  0  0  0  0  0  0  0  0  0
   22.2056  -30.0564   -9.0960 C   0  0  0  0  0  0  0  0  0  0  0  0
   22.8384  -31.4238  -11.0097 C   0  0  2  0  0  0  0  0  0  0  0  0
   22.7274  -31.8827  -12.3408 N   0  0  0  0  0  0  0  0  0  0  0  0
   23.0971  -32.5384  -10.1159 C   0  0  0  0  0  0  0  0  0  0  0  0
   22.3140  -33.4971  -10.0131 O   0  0  0  0  0  0  0  0  0  0  0  0
   26.7373  -34.1731   -9.5114 C   0  0  0  0  0  0  0  0  0  0  0  0
   26.0670  -33.8019   -8.2085 C   0  0  1  0  0  0  0  0  0  0  0  0
   26.6402  -32.6774   -7.6692 O   0  0  0  0  0  0  0  0  0  0  0  0
   24.5755  -33.6512   -8.4274 C   0  0  2  0  0  0  0  0  0  0  0  0
   24.2761  -32.5556   -9.3240 N   0  0  0  0  0  0  0  0  0  0  0  0
   23.8662  -33.4328   -7.1605 C   0  0  0  0  0  0  0  0  0  0  0  0
   23.2574  -32.3826   -6.9291 O   0  0  0  0  0  0  0  0  0  0  0  0
   23.8726  -34.4275   -6.1868 O   0  0  0  0  0  0  0  0  0  0  0  0
  2  1  1  1
  2  4  1  0
  3  2  1  0
  5  4  1  0
  5  6  1  6
  7  5  1  0
  8  7  2  0
  9 10  1  0
 11 10  1  0
 11 13  1  0
 11 12  1  1
 13 14  1  6
 14  7  1  0
 15 16  2  0
 15 13  1  0
 18 17  1  6
 18 20  1  0
 19 18  1  0
 20 21  1  6
 21 15  1  0
 22 20  1  0
 23 22  2  0
 24 22  1  0
M  END
$$$$
