LIT.pdb
     RDKit          3D

 24 23  0  0  1  0  0  0  0  0999 V2000
   19.9631   -9.9993  -21.2735 C   0  0  0  0  0  0  0  0  0  0  0  0
   18.7584   -9.2194  -20.7472 C   0  0  2  0  0  0  0  0  0  0  0  0
   18.5204   -7.9887  -21.6108 C   0  0  0  0  0  0  0  0  0  0  0  0
   19.0328   -8.7214  -19.3476 C   0  0  0  0  0  0  0  0  0  0  0  0
   19.2834   -9.9225  -18.4728 C   0  0  2  0  0  0  0  0  0  0  0  0
   18.0968  -10.7485  -18.3776 N   0  0  0  0  0  0  0  0  0  0  0  0
   19.6923   -9.4734  -17.0904 C   0  0  0  0  0  0  0  0  0  0  0  0
   18.8644   -9.3283  -16.1798 O   0  0  0  0  0  0  0  0  0  0  0  0
   23.3510  -12.0715  -14.3316 C   0  0  0  0  0  0  0  0  0  0  0  0
   22.1925  -11.1985  -14.8605 C   0  0  0  0  0  0  0  0  0  0  0  0
   22.6355   -9.7736  -15.0057 C   0  0  2  0  0  0  0  0  0  0  0  0
   22.8611   -9.2923  -13.5595 C   0  0  0  0  0  0  0  0  0  0  0  0
   21.5964   -8.8560  -15.5948 C   0  0  2  0  0  0  0  0  0  0  0  0
   21.0435   -9.2177  -16.8431 N   0  0  0  0  0  0  0  0  0  0  0  0
   22.0077   -7.4636  -15.6141 C   0  0  0  0  0  0  0  0  0  0  0  0
   22.9329   -7.0590  -16.3375 O   0  0  0  0  0  0  0  0  0  0  0  0
   20.2703   -4.4407  -16.6779 C   0  0  0  0  0  0  0  0  0  0  0  0
   20.5605   -4.2329  -15.2091 C   0  0  1  0  0  0  0  0  0  0  0  0
   19.4322   -4.4408  -14.4557 O   0  0  0  0  0  0  0  0  0  0  0  0
   21.7166   -5.1167  -14.7879 C   0  0  2  0  0  0  0  0  0  0  0  0
   21.3463   -6.5156  -14.7887 N   0  0  0  0  0  0  0  0  0  0  0  0
   22.2076   -4.7581  -13.4514 C   0  0  0  0  0  0  0  0  0  0  0  0
   22.0499   -5.5046  -12.4792 O   0  0  0  0  0  0  0  0  0  0  0  0
   22.8693   -3.5484  -13.2620 O   0  0  0  0  0  0  0  0  0  0  0  0
  2  1  1  6
  2  4  1  0
  3  2  1  0
  5  4  1  0
  5  6  1  1
  7  5  1  0
  8  7  2  0
  9 10  1  0
 11 10  1  0
 11 13  1  0
 11 12  1  1
 13 14  1  6
 14  7  1  0
 15 16  2  0
 15 13  1  0
 18 17  1  6
 18 20  1  0
 19 18  1  0
 20 21  1  1
 21 15  1  0
 22 20  1  0
 23 22  2  0
 24 22  1  0
M  END
$$$$
