LIT.pdb
     RDKit          3D

 24 23  0  0  1  0  0  0  0  0999 V2000
   19.3395  -29.3394   -3.6771 C   0  0  0  0  0  0  0  0  0  0  0  0
   17.9608  -29.0912   -3.0653 C   0  0  2  0  0  0  0  0  0  0  0  0
   17.1398  -30.3724   -3.1012 C   0  0  0  0  0  0  0  0  0  0  0  0
   17.2062  -28.0687   -3.8823 C   0  0  0  0  0  0  0  0  0  0  0  0
   17.9831  -26.7784   -3.8359 C   0  0  2  0  0  0  0  0  0  0  0  0
   17.8937  -26.1688   -2.5245 N   0  0  0  0  0  0  0  0  0  0  0  0
   17.4462  -25.8192   -4.8710 C   0  0  0  0  0  0  0  0  0  0  0  0
   16.6824  -24.8918   -4.5673 O   0  0  0  0  0  0  0  0  0  0  0  0
   20.5712  -22.8644   -8.0076 C   0  0  0  0  0  0  0  0  0  0  0  0
   19.3901  -23.4374   -7.1948 C   0  0  0  0  0  0  0  0  0  0  0  0
   18.6546  -24.4685   -7.9970 C   0  0  2  0  0  0  0  0  0  0  0  0
   18.0272  -23.6751   -9.1593 C   0  0  0  0  0  0  0  0  0  0  0  0
   17.5086  -25.1216   -7.2696 C   0  0  2  0  0  0  0  0  0  0  0  0
   17.8277  -25.9919   -6.2040 N   0  0  0  0  0  0  0  0  0  0  0  0
   16.5501  -25.7511   -8.1602 C   0  0  0  0  0  0  0  0  0  0  0  0
   16.8234  -26.7772   -8.8046 O   0  0  0  0  0  0  0  0  0  0  0  0
   13.2006  -27.3746   -7.4918 C   0  0  0  0  0  0  0  0  0  0  0  0
   12.9888  -26.1324   -8.3266 C   0  0  1  0  0  0  0  0  0  0  0  0
   12.6008  -25.0771   -7.5394 O   0  0  0  0  0  0  0  0  0  0  0  0
   14.2407  -25.8365   -9.1269 C   0  0  2  0  0  0  0  0  0  0  0  0
   15.2527  -25.1944   -8.3160 N   0  0  0  0  0  0  0  0  0  0  0  0
   13.9487  -24.9811  -10.2839 C   0  0  0  0  0  0  0  0  0  0  0  0
   14.3957  -23.8324  -10.3722 O   0  0  0  0  0  0  0  0  0  0  0  0
   13.1486  -25.4656  -11.3147 O   0  0  0  0  0  0  0  0  0  0  0  0
  2  1  1  6
  2  4  1  0
  3  2  1  0
  5  4  1  0
  5  6  1  1
  7  5  1  0
  8  7  2  0
  9 10  1  0
 11 10  1  0
 11 13  1  0
 11 12  1  6
 13 14  1  1
 14  7  1  0
 15 16  2  0
 15 13  1  0
 18 17  1  1
 18 20  1  0
 19 18  1  0
 20 21  1  1
 21 15  1  0
 22 20  1  0
 23 22  2  0
 24 22  1  0
M  END
$$$$
