LIT.pdb
     RDKit          3D

 24 23  0  0  1  0  0  0  0  0999 V2000
   20.7523  -13.3877  -20.6441 C   0  0  0  0  0  0  0  0  0  0  0  0
   19.7326  -13.1936  -19.5220 C   0  0  2  0  0  0  0  0  0  0  0  0
   18.5103  -12.4589  -20.0541 C   0  0  0  0  0  0  0  0  0  0  0  0
   20.3187  -12.3281  -18.4312 C   0  0  0  0  0  0  0  0  0  0  0  0
   21.5010  -13.0591  -17.8493 C   0  0  2  0  0  0  0  0  0  0  0  0
   21.0959  -14.3323  -17.2887 N   0  0  0  0  0  0  0  0  0  0  0  0
   22.1427  -12.2194  -16.7710 C   0  0  0  0  0  0  0  0  0  0  0  0
   21.7114  -12.2079  -15.6093 O   0  0  0  0  0  0  0  0  0  0  0  0
   27.4851  -11.9572  -15.7259 C   0  0  0  0  0  0  0  0  0  0  0  0
   25.9410  -11.9570  -15.7209 C   0  0  0  0  0  0  0  0  0  0  0  0
   25.4168  -10.6256  -16.1685 C   0  0  2  0  0  0  0  0  0  0  0  0
   25.8502   -9.6492  -15.0581 C   0  0  0  0  0  0  0  0  0  0  0  0
   23.9146  -10.5399  -16.2381 C   0  0  2  0  0  0  0  0  0  0  0  0
   23.2525  -11.4382  -17.1038 N   0  0  0  0  0  0  0  0  0  0  0  0
   23.4279   -9.1887  -16.4515 C   0  0  0  0  0  0  0  0  0  0  0  0
   23.7423   -8.5247  -17.4530 O   0  0  0  0  0  0  0  0  0  0  0  0
   19.9804   -8.4629  -16.6389 C   0  0  0  0  0  0  0  0  0  0  0  0
   20.9611   -7.3356  -16.8675 C   0  0  1  0  0  0  0  0  0  0  0  0
   20.3018   -6.1444  -17.0414 O   0  0  0  0  0  0  0  0  0  0  0  0
   21.9606   -7.2909  -15.7299 C   0  0  2  0  0  0  0  0  0  0  0  0
   22.5639   -8.5857  -15.4989 N   0  0  0  0  0  0  0  0  0  0  0  0
   21.3353   -6.8312  -14.4835 C   0  0  0  0  0  0  0  0  0  0  0  0
   20.8215   -5.7113  -14.3888 O   0  0  0  0  0  0  0  0  0  0  0  0
   21.3147   -7.6698  -13.3728 O   0  0  0  0  0  0  0  0  0  0  0  0
  2  1  1  6
  2  4  1  0
  3  2  1  0
  5  4  1  0
  5  6  1  1
  7  5  1  0
  8  7  2  0
  9 10  1  0
 11 10  1  0
 11 13  1  0
 11 12  1  1
 13 14  1  6
 14  7  1  0
 15 16  2  0
 15 13  1  0
 18 17  1  1
 18 20  1  0
 19 18  1  0
 20 21  1  1
 21 15  1  0
 22 20  1  0
 23 22  2  0
 24 22  1  0
M  END
$$$$
