LIT.pdb
     RDKit          3D

 24 23  0  0  1  0  0  0  0  0999 V2000
   29.1490  -20.4721  -14.2855 C   0  0  0  0  0  0  0  0  0  0  0  0
   28.0028  -19.5350  -14.6659 C   0  0  2  0  0  0  0  0  0  0  0  0
   28.5507  -18.3137  -15.3907 C   0  0  0  0  0  0  0  0  0  0  0  0
   27.3114  -19.0280  -13.4220 C   0  0  0  0  0  0  0  0  0  0  0  0
   26.8808  -20.2252  -12.6146 C   0  0  2  0  0  0  0  0  0  0  0  0
   25.8297  -20.9552  -13.2940 N   0  0  0  0  0  0  0  0  0  0  0  0
   26.3846  -19.7786  -11.2604 C   0  0  0  0  0  0  0  0  0  0  0  0
   25.9551  -18.6321  -11.0681 O   0  0  0  0  0  0  0  0  0  0  0  0
   22.1315  -21.3471   -8.9896 C   0  0  0  0  0  0  0  0  0  0  0  0
   23.4396  -20.6526   -9.4265 C   0  0  0  0  0  0  0  0  0  0  0  0
   24.5813  -21.0966   -8.5622 C   0  0  2  0  0  0  0  0  0  0  0  0
   24.2170  -20.5887   -7.1538 C   0  0  0  0  0  0  0  0  0  0  0  0
   25.9044  -20.4640   -8.9059 C   0  0  2  0  0  0  0  0  0  0  0  0
   26.4153  -20.6913  -10.2028 N   0  0  0  0  0  0  0  0  0  0  0  0
   26.9330  -20.7133   -7.9119 C   0  0  0  0  0  0  0  0  0  0  0  0
   27.5871  -21.7690   -7.8899 O   0  0  0  0  0  0  0  0  0  0  0  0
   30.2116  -19.2627   -6.8948 C   0  0  0  0  0  0  0  0  0  0  0  0
   29.2477  -19.0049   -5.7594 C   0  0  1  0  0  0  0  0  0  0  0  0
   28.8101  -17.7041   -5.7780 O   0  0  0  0  0  0  0  0  0  0  0  0
   28.1117  -20.0055   -5.8179 C   0  0  2  0  0  0  0  0  0  0  0  0
   27.2184  -19.7340   -6.9234 N   0  0  0  0  0  0  0  0  0  0  0  0
   27.3349  -20.0095   -4.5720 C   0  0  0  0  0  0  0  0  0  0  0  0
   26.1283  -19.7428   -4.5576 O   0  0  0  0  0  0  0  0  0  0  0  0
   27.9628  -20.3203   -3.3694 O   0  0  0  0  0  0  0  0  0  0  0  0
  2  1  1  1
  2  4  1  0
  3  2  1  0
  5  4  1  0
  5  6  1  6
  7  5  1  0
  8  7  2  0
  9 10  1  0
 11 10  1  0
 11 13  1  0
 11 12  1  1
 13 14  1  6
 14  7  1  0
 15 16  2  0
 15 13  1  0
 18 17  1  6
 18 20  1  0
 19 18  1  0
 20 21  1  6
 21 15  1  0
 22 20  1  0
 23 22  2  0
 24 22  1  0
M  END
$$$$
