LIT.pdb
     RDKit          3D

 24 23  0  0  1  0  0  0  0  0999 V2000
   16.3759  -13.8848  -18.5872 C   0  0  0  0  0  0  0  0  0  0  0  0
   17.4656  -14.6647  -17.8518 C   0  0  2  0  0  0  0  0  0  0  0  0
   16.8419  -15.8057  -17.0606 C   0  0  0  0  0  0  0  0  0  0  0  0
   18.1592  -13.7705  -16.8510 C   0  0  0  0  0  0  0  0  0  0  0  0
   18.6767  -12.5650  -17.5923 C   0  0  2  0  0  0  0  0  0  0  0  0
   19.6939  -12.9460  -18.5513 N   0  0  0  0  0  0  0  0  0  0  0  0
   19.2583  -11.5725  -16.6143 C   0  0  0  0  0  0  0  0  0  0  0  0
   18.6470  -11.2279  -15.5929 O   0  0  0  0  0  0  0  0  0  0  0  0
   24.3258  -12.0956  -14.8156 C   0  0  0  0  0  0  0  0  0  0  0  0
   22.8255  -11.7832  -15.0046 C   0  0  0  0  0  0  0  0  0  0  0  0
   22.6492  -10.4709  -15.7079 C   0  0  2  0  0  0  0  0  0  0  0  0
   23.1048   -9.4191  -14.6783 C   0  0  0  0  0  0  0  0  0  0  0  0
   21.2207  -10.1336  -16.0465 C   0  0  2  0  0  0  0  0  0  0  0  0
   20.5206  -11.0347  -16.8787 N   0  0  0  0  0  0  0  0  0  0  0  0
   21.0526   -8.7741  -16.5278 C   0  0  0  0  0  0  0  0  0  0  0  0
   21.5495   -8.3871  -17.5985 O   0  0  0  0  0  0  0  0  0  0  0  0
   18.2800   -6.9736  -17.7650 C   0  0  0  0  0  0  0  0  0  0  0  0
   18.6852   -6.1706  -16.5503 C   0  0  1  0  0  0  0  0  0  0  0  0
   17.8271   -6.4031  -15.5045 O   0  0  0  0  0  0  0  0  0  0  0  0
   20.1287   -6.4688  -16.2003 C   0  0  2  0  0  0  0  0  0  0  0  0
   20.3005   -7.8390  -15.7679 N   0  0  0  0  0  0  0  0  0  0  0  0
   20.6213   -5.5745  -15.1452 C   0  0  0  0  0  0  0  0  0  0  0  0
   20.9246   -5.9972  -14.0242 O   0  0  0  0  0  0  0  0  0  0  0  0
   20.7543   -4.2131  -15.4022 O   0  0  0  0  0  0  0  0  0  0  0  0
  2  1  1  1
  2  4  1  0
  3  2  1  0
  5  4  1  0
  5  6  1  6
  7  5  1  0
  8  7  2  0
  9 10  1  0
 11 10  1  0
 11 13  1  0
 11 12  1  1
 13 14  1  6
 14  7  1  0
 15 16  2  0
 15 13  1  0
 18 17  1  6
 18 20  1  0
 19 18  1  0
 20 21  1  1
 21 15  1  0
 22 20  1  0
 23 22  2  0
 24 22  1  0
M  END
$$$$
