LIT.pdb
     RDKit          3D

 24 23  0  0  1  0  0  0  0  0999 V2000
   21.4245  -11.0650  -21.9608 C   0  0  0  0  0  0  0  0  0  0  0  0
   19.9300  -11.2188  -21.6793 C   0  0  2  0  0  0  0  0  0  0  0  0
   19.1264  -10.4208  -22.6963 C   0  0  0  0  0  0  0  0  0  0  0  0
   19.5961  -10.6508  -20.3198 C   0  0  0  0  0  0  0  0  0  0  0  0
   20.4062  -11.4026  -19.2955 C   0  0  2  0  0  0  0  0  0  0  0  0
   19.9251  -12.7619  -19.1532 N   0  0  0  0  0  0  0  0  0  0  0  0
   20.3239  -10.7008  -17.9612 C   0  0  0  0  0  0  0  0  0  0  0  0
   19.3591  -10.8578  -17.1995 O   0  0  0  0  0  0  0  0  0  0  0  0
   24.3672  -10.8098  -14.4265 C   0  0  0  0  0  0  0  0  0  0  0  0
   23.0154  -10.7303  -15.1686 C   0  0  0  0  0  0  0  0  0  0  0  0
   22.7139   -9.3136  -15.5557 C   0  0  2  0  0  0  0  0  0  0  0  0
   22.4586   -8.5956  -14.2165 C   0  0  0  0  0  0  0  0  0  0  0  0
   21.4563   -9.1447  -16.3674 C   0  0  2  0  0  0  0  0  0  0  0  0
   21.3699   -9.8538  -17.5858 N   0  0  0  0  0  0  0  0  0  0  0  0
   21.0886   -7.7548  -16.5701 C   0  0  0  0  0  0  0  0  0  0  0  0
   21.8648   -6.9361  -17.0899 O   0  0  0  0  0  0  0  0  0  0  0  0
   18.4739   -6.2923  -18.6987 C   0  0  0  0  0  0  0  0  0  0  0  0
   18.1259   -5.8988  -17.2815 C   0  0  1  0  0  0  0  0  0  0  0  0
   17.1186   -6.6909  -16.7896 O   0  0  0  0  0  0  0  0  0  0  0  0
   19.3726   -5.9358  -16.4215 C   0  0  2  0  0  0  0  0  0  0  0  0
   19.8065   -7.2931  -16.1694 N   0  0  0  0  0  0  0  0  0  0  0  0
   19.1579   -5.2613  -15.1351 C   0  0  0  0  0  0  0  0  0  0  0  0
   19.0070   -4.0371  -15.0605 O   0  0  0  0  0  0  0  0  0  0  0  0
   19.1213   -6.0098  -13.9622 O   0  0  0  0  0  0  0  0  0  0  0  0
  2  1  1  6
  2  4  1  0
  3  2  1  0
  5  4  1  0
  5  6  1  1
  7  5  1  0
  8  7  2  0
  9 10  1  0
 11 10  1  0
 11 13  1  0
 11 12  1  1
 13 14  1  6
 14  7  1  0
 15 16  2  0
 15 13  1  0
 18 17  1  6
 18 20  1  0
 19 18  1  0
 20 21  1  1
 21 15  1  0
 22 20  1  0
 23 22  2  0
 24 22  1  0
M  END
$$$$
