LIT.pdb
     RDKit          3D

 24 23  0  0  1  0  0  0  0  0999 V2000
   29.0785  -17.8429  -15.6006 C   0  0  0  0  0  0  0  0  0  0  0  0
   28.3172  -18.6980  -16.6134 C   0  0  2  0  0  0  0  0  0  0  0  0
   27.7046  -17.8085  -17.6860 C   0  0  0  0  0  0  0  0  0  0  0  0
   27.1715  -19.4112  -15.9343 C   0  0  0  0  0  0  0  0  0  0  0  0
   27.7519  -20.2976  -14.8628 C   0  0  2  0  0  0  0  0  0  0  0  0
   28.5828  -21.3330  -15.4433 N   0  0  0  0  0  0  0  0  0  0  0  0
   26.6387  -20.9369  -14.0679 C   0  0  0  0  0  0  0  0  0  0  0  0
   26.2225  -22.0751  -14.3263 O   0  0  0  0  0  0  0  0  0  0  0  0
   26.5905  -20.7319   -8.6451 C   0  0  0  0  0  0  0  0  0  0  0  0
   26.3608  -21.1886  -10.1021 C   0  0  0  0  0  0  0  0  0  0  0  0
   25.1867  -20.4701  -10.6963 C   0  0  2  0  0  0  0  0  0  0  0  0
   23.9595  -21.1307  -10.0393 C   0  0  0  0  0  0  0  0  0  0  0  0
   25.0233  -20.6668  -12.1807 C   0  0  2  0  0  0  0  0  0  0  0  0
   26.0703  -20.2159  -13.0145 N   0  0  0  0  0  0  0  0  0  0  0  0
   23.7451  -20.1952  -12.6829 C   0  0  0  0  0  0  0  0  0  0  0  0
   23.4133  -18.9997  -12.6234 O   0  0  0  0  0  0  0  0  0  0  0  0
   22.3471  -20.5215  -16.1277 C   0  0  0  0  0  0  0  0  0  0  0  0
   21.3371  -21.1689  -15.2084 C   0  0  1  0  0  0  0  0  0  0  0  0
   21.3913  -22.5366  -15.3115 O   0  0  0  0  0  0  0  0  0  0  0  0
   21.5512  -20.6799  -13.7906 C   0  0  2  0  0  0  0  0  0  0  0  0
   22.8286  -21.1111  -13.2650 N   0  0  0  0  0  0  0  0  0  0  0  0
   20.4878  -21.1501  -12.8940 C   0  0  0  0  0  0  0  0  0  0  0  0
   20.7203  -21.9262  -11.9609 O   0  0  0  0  0  0  0  0  0  0  0  0
   19.1795  -20.7172  -13.0902 O   0  0  0  0  0  0  0  0  0  0  0  0
  2  1  1  1
  2  4  1  0
  3  2  1  0
  5  4  1  0
  5  6  1  6
  7  5  1  0
  8  7  2  0
  9 10  1  0
 11 10  1  0
 11 13  1  0
 11 12  1  1
 13 14  1  6
 14  7  1  0
 15 16  2  0
 15 13  1  0
 18 17  1  6
 18 20  1  0
 19 18  1  0
 20 21  1  1
 21 15  1  0
 22 20  1  0
 23 22  2  0
 24 22  1  0
M  END
$$$$
