LIT.pdb
     RDKit          3D

 24 23  0  0  1  0  0  0  0  0999 V2000
   28.5157  -16.9110  -14.6453 C   0  0  0  0  0  0  0  0  0  0  0  0
   27.9026  -17.7359  -15.7767 C   0  0  2  0  0  0  0  0  0  0  0  0
   27.1389  -16.8247  -16.7272 C   0  0  0  0  0  0  0  0  0  0  0  0
   26.9007  -18.7194  -15.2189 C   0  0  0  0  0  0  0  0  0  0  0  0
   27.6349  -19.6415  -14.2801 C   0  0  2  0  0  0  0  0  0  0  0  0
   28.5527  -20.4949  -15.0073 N   0  0  0  0  0  0  0  0  0  0  0  0
   26.6465  -20.4982  -13.5259 C   0  0  0  0  0  0  0  0  0  0  0  0
   26.2971  -21.6119  -13.9421 O   0  0  0  0  0  0  0  0  0  0  0  0
   26.6258  -20.3481   -8.0211 C   0  0  0  0  0  0  0  0  0  0  0  0
   26.4279  -20.9823   -9.4149 C   0  0  0  0  0  0  0  0  0  0  0  0
   25.1817  -20.4524  -10.0583 C   0  0  2  0  0  0  0  0  0  0  0  0
   24.0490  -21.3158   -9.4703 C   0  0  0  0  0  0  0  0  0  0  0  0
   25.1223  -20.6445  -11.5511 C   0  0  2  0  0  0  0  0  0  0  0  0
   26.1182  -20.0116  -12.3273 N   0  0  0  0  0  0  0  0  0  0  0  0
   23.8086  -20.3799  -12.1102 C   0  0  0  0  0  0  0  0  0  0  0  0
   23.2840  -19.2552  -12.0584 O   0  0  0  0  0  0  0  0  0  0  0  0
   22.6085  -21.1996  -15.6710 C   0  0  0  0  0  0  0  0  0  0  0  0
   21.6665  -21.8636  -14.6930 C   0  0  1  0  0  0  0  0  0  0  0  0
   21.8952  -23.2159  -14.6384 O   0  0  0  0  0  0  0  0  0  0  0  0
   21.7834  -21.1950  -13.3386 C   0  0  2  0  0  0  0  0  0  0  0  0
   23.0812  -21.4241  -12.7411 N   0  0  0  0  0  0  0  0  0  0  0  0
   20.7465  -21.6700  -12.4140 C   0  0  0  0  0  0  0  0  0  0  0  0
   21.0273  -22.3181  -11.4000 O   0  0  0  0  0  0  0  0  0  0  0  0
   19.4086  -21.3891  -12.6758 O   0  0  0  0  0  0  0  0  0  0  0  0
  2  1  1  1
  2  4  1  0
  3  2  1  0
  5  4  1  0
  5  6  1  6
  7  5  1  0
  8  7  2  0
  9 10  1  0
 11 10  1  0
 11 13  1  0
 11 12  1  1
 13 14  1  6
 14  7  1  0
 15 16  2  0
 15 13  1  0
 18 17  1  6
 18 20  1  0
 19 18  1  0
 20 21  1  1
 21 15  1  0
 22 20  1  0
 23 22  2  0
 24 22  1  0
M  END
$$$$
