LIT.pdb
     RDKit          3D

 24 23  0  0  1  0  0  0  0  0999 V2000
   18.9404  -10.5776  -21.0128 C   0  0  0  0  0  0  0  0  0  0  0  0
   17.7898  -10.2707  -20.0545 C   0  0  2  0  0  0  0  0  0  0  0  0
   16.9478   -9.1283  -20.6050 C   0  0  0  0  0  0  0  0  0  0  0  0
   18.3321   -9.8079  -18.7226 C   0  0  0  0  0  0  0  0  0  0  0  0
   19.1589  -10.9289  -18.1479 C   0  0  2  0  0  0  0  0  0  0  0  0
   18.3252  -12.0652  -17.8113 N   0  0  0  0  0  0  0  0  0  0  0  0
   19.8783  -10.4522  -16.9090 C   0  0  0  0  0  0  0  0  0  0  0  0
   19.3245  -10.4297  -15.8006 O   0  0  0  0  0  0  0  0  0  0  0  0
   24.5110  -12.4761  -15.3040 C   0  0  0  0  0  0  0  0  0  0  0  0
   23.1361  -11.7914  -15.4618 C   0  0  0  0  0  0  0  0  0  0  0  0
   23.3089  -10.3253  -15.7236 C   0  0  2  0  0  0  0  0  0  0  0  0
   23.8856   -9.7657  -14.4090 C   0  0  0  0  0  0  0  0  0  0  0  0
   22.0223   -9.5808  -15.9666 C   0  0  2  0  0  0  0  0  0  0  0  0
   21.2041  -10.0274  -17.0277 N   0  0  0  0  0  0  0  0  0  0  0  0
   22.1997   -8.1417  -16.0428 C   0  0  0  0  0  0  0  0  0  0  0  0
   22.9545   -7.6133  -16.8758 O   0  0  0  0  0  0  0  0  0  0  0  0
   20.0945   -5.4294  -17.0429 C   0  0  0  0  0  0  0  0  0  0  0  0
   20.3823   -5.1537  -15.5849 C   0  0  1  0  0  0  0  0  0  0  0  0
   19.3118   -5.5074  -14.8020 O   0  0  0  0  0  0  0  0  0  0  0  0
   21.6625   -5.8533  -15.1768 C   0  0  2  0  0  0  0  0  0  0  0  0
   21.4986   -7.2908  -15.1473 N   0  0  0  0  0  0  0  0  0  0  0  0
   22.1238   -5.4027  -13.8577 C   0  0  0  0  0  0  0  0  0  0  0  0
   22.1659   -6.1674  -12.8878 O   0  0  0  0  0  0  0  0  0  0  0  0
   22.5267   -4.0820  -13.6827 O   0  0  0  0  0  0  0  0  0  0  0  0
  2  1  1  6
  2  4  1  0
  3  2  1  0
  5  4  1  0
  5  6  1  1
  7  5  1  0
  8  7  2  0
  9 10  1  0
 11 10  1  0
 11 13  1  0
 11 12  1  1
 13 14  1  6
 14  7  1  0
 15 16  2  0
 15 13  1  0
 18 17  1  6
 18 20  1  0
 19 18  1  0
 20 21  1  1
 21 15  1  0
 22 20  1  0
 23 22  2  0
 24 22  1  0
M  END
$$$$
