LIT.pdb
     RDKit          3D

 24 23  0  0  1  0  0  0  0  0999 V2000
   23.9238  -24.1886  -14.5392 C   0  0  0  0  0  0  0  0  0  0  0  0
   23.2394  -23.7581  -13.2419 C   0  0  2  0  0  0  0  0  0  0  0  0
   21.7458  -24.0394  -13.3259 C   0  0  0  0  0  0  0  0  0  0  0  0
   23.3903  -22.2679  -13.0445 C   0  0  0  0  0  0  0  0  0  0  0  0
   24.8512  -21.9298  -13.1931 C   0  0  2  0  0  0  0  0  0  0  0  0
   25.5914  -22.3049  -12.0053 N   0  0  0  0  0  0  0  0  0  0  0  0
   25.0123  -20.4482  -13.4356 C   0  0  0  0  0  0  0  0  0  0  0  0
   24.9364  -19.6239  -12.5134 O   0  0  0  0  0  0  0  0  0  0  0  0
   29.3641  -18.3875  -14.9854 C   0  0  0  0  0  0  0  0  0  0  0  0
   27.9391  -18.6419  -14.4480 C   0  0  0  0  0  0  0  0  0  0  0  0
   26.9185  -18.3111  -15.4952 C   0  0  2  0  0  0  0  0  0  0  0  0
   26.9572  -16.7742  -15.5973 C   0  0  0  0  0  0  0  0  0  0  0  0
   25.5043  -18.6701  -15.1209 C   0  0  2  0  0  0  0  0  0  0  0  0
   25.2531  -20.0065  -14.7392 N   0  0  0  0  0  0  0  0  0  0  0  0
   24.5255  -18.2375  -16.1022 C   0  0  0  0  0  0  0  0  0  0  0  0
   24.5449  -18.6424  -17.2763 O   0  0  0  0  0  0  0  0  0  0  0  0
   20.8849  -18.7537  -16.1063 C   0  0  0  0  0  0  0  0  0  0  0  0
   21.0848  -17.2555  -16.1167 C   0  0  1  0  0  0  0  0  0  0  0  0
   20.8639  -16.7261  -14.8697 O   0  0  0  0  0  0  0  0  0  0  0  0
   22.4624  -16.9287  -16.6556 C   0  0  2  0  0  0  0  0  0  0  0  0
   23.5039  -17.3229  -15.7315 N   0  0  0  0  0  0  0  0  0  0  0  0
   22.6013  -15.4952  -16.9412 C   0  0  0  0  0  0  0  0  0  0  0  0
   23.4438  -14.7968  -16.3672 O   0  0  0  0  0  0  0  0  0  0  0  0
   21.7677  -14.8959  -17.8811 O   0  0  0  0  0  0  0  0  0  0  0  0
  2  1  1  6
  2  4  1  0
  3  2  1  0
  5  4  1  0
  5  6  1  1
  7  5  1  0
  8  7  2  0
  9 10  1  0
 11 10  1  0
 11 13  1  0
 11 12  1  1
 13 14  1  6
 14  7  1  0
 15 16  2  0
 15 13  1  0
 18 17  1  1
 18 20  1  0
 19 18  1  0
 20 21  1  1
 21 15  1  0
 22 20  1  0
 23 22  2  0
 24 22  1  0
M  END
$$$$
