LIT.pdb
     RDKit          3D

 24 23  0  0  1  0  0  0  0  0999 V2000
   29.0961  -17.6788  -15.2491 C   0  0  0  0  0  0  0  0  0  0  0  0
   28.3255  -18.4236  -16.3389 C   0  0  2  0  0  0  0  0  0  0  0  0
   27.7014  -17.4270  -17.3055 C   0  0  0  0  0  0  0  0  0  0  0  0
   27.1874  -19.2069  -15.7277 C   0  0  0  0  0  0  0  0  0  0  0  0
   27.7774  -20.1836  -14.7435 C   0  0  2  0  0  0  0  0  0  0  0  0
   28.5705  -21.1870  -15.4243 N   0  0  0  0  0  0  0  0  0  0  0  0
   26.6728  -20.8606  -13.9683 C   0  0  0  0  0  0  0  0  0  0  0  0
   26.1909  -21.9436  -14.3296 O   0  0  0  0  0  0  0  0  0  0  0  0
   26.7406  -20.2981   -8.5188 C   0  0  0  0  0  0  0  0  0  0  0  0
   26.4371  -21.0419   -9.8374 C   0  0  0  0  0  0  0  0  0  0  0  0
   25.2430  -20.4393  -10.5148 C   0  0  2  0  0  0  0  0  0  0  0  0
   24.0366  -21.1430   -9.8643 C   0  0  0  0  0  0  0  0  0  0  0  0
   25.1519  -20.7303  -11.9899 C   0  0  2  0  0  0  0  0  0  0  0  0
   26.1889  -20.2398  -12.8138 N   0  0  0  0  0  0  0  0  0  0  0  0
   23.8591  -20.3962  -12.5601 C   0  0  0  0  0  0  0  0  0  0  0  0
   23.4383  -19.2282  -12.6016 O   0  0  0  0  0  0  0  0  0  0  0  0
   20.0708  -21.8386  -15.3811 C   0  0  0  0  0  0  0  0  0  0  0  0
   21.4715  -22.0766  -14.8655 C   0  0  1  0  0  0  0  0  0  0  0  0
   22.3875  -21.9831  -15.8835 O   0  0  0  0  0  0  0  0  0  0  0  0
   21.7640  -21.1229  -13.7254 C   0  0  2  0  0  0  0  0  0  0  0  0
   23.0315  -21.4199  -13.0935 N   0  0  0  0  0  0  0  0  0  0  0  0
   20.7070  -21.1628  -12.7072 C   0  0  0  0  0  0  0  0  0  0  0  0
   20.7109  -22.0008  -11.7989 O   0  0  0  0  0  0  0  0  0  0  0  0
   19.6680  -20.2379  -12.7558 O   0  0  0  0  0  0  0  0  0  0  0  0
  2  1  1  1
  2  4  1  0
  3  2  1  0
  5  4  1  0
  5  6  1  6
  7  5  1  0
  8  7  2  0
  9 10  1  0
 11 10  1  0
 11 13  1  0
 11 12  1  1
 13 14  1  6
 14  7  1  0
 15 16  2  0
 15 13  1  0
 18 17  1  6
 18 20  1  0
 19 18  1  0
 20 21  1  1
 21 15  1  0
 22 20  1  0
 23 22  2  0
 24 22  1  0
M  END
$$$$
