LIT.pdb
     RDKit          3D

 24 23  0  0  1  0  0  0  0  0999 V2000
   37.6600   -8.7506   -9.1317 C   0  0  0  0  0  0  0  0  0  0  0  0
   38.4979   -7.5986   -9.6859 C   0  0  2  0  0  0  0  0  0  0  0  0
   38.2763   -6.3470   -8.8485 C   0  0  0  0  0  0  0  0  0  0  0  0
   38.0565   -7.2643  -11.0916 C   0  0  0  0  0  0  0  0  0  0  0  0
   38.1527   -8.5224  -11.9154 C   0  0  2  0  0  0  0  0  0  0  0  0
   39.5103   -9.0285  -11.9284 N   0  0  0  0  0  0  0  0  0  0  0  0
   37.7096   -8.2430  -13.3315 C   0  0  0  0  0  0  0  0  0  0  0  0
   38.4683   -7.7235  -14.1623 O   0  0  0  0  0  0  0  0  0  0  0  0
   34.5338  -11.7225  -16.2687 C   0  0  0  0  0  0  0  0  0  0  0  0
   35.5428  -10.7115  -15.6822 C   0  0  0  0  0  0  0  0  0  0  0  0
   34.9067   -9.3616  -15.5380 C   0  0  2  0  0  0  0  0  0  0  0  0
   34.6123   -8.9192  -16.9843 C   0  0  0  0  0  0  0  0  0  0  0  0
   35.8100   -8.3073  -14.9537 C   0  0  2  0  0  0  0  0  0  0  0  0
   36.4066   -8.5837  -13.7037 N   0  0  0  0  0  0  0  0  0  0  0  0
   35.2120   -6.9843  -14.9413 C   0  0  0  0  0  0  0  0  0  0  0  0
   34.1676   -6.7383  -14.3154 O   0  0  0  0  0  0  0  0  0  0  0  0
   36.8303   -3.6716  -13.9018 C   0  0  0  0  0  0  0  0  0  0  0  0
   36.3845   -3.5581  -15.3416 C   0  0  1  0  0  0  0  0  0  0  0  0
   37.4538   -3.6798  -16.1935 O   0  0  0  0  0  0  0  0  0  0  0  0
   35.2959   -4.5744  -15.6198 C   0  0  2  0  0  0  0  0  0  0  0  0
   35.8220   -5.9218  -15.6600 N   0  0  0  0  0  0  0  0  0  0  0  0
   34.6124   -4.2954  -16.8889 C   0  0  0  0  0  0  0  0  0  0  0  0
   34.7539   -5.0239  -17.8771 O   0  0  0  0  0  0  0  0  0  0  0  0
   33.7808   -3.1842  -16.9941 O   0  0  0  0  0  0  0  0  0  0  0  0
  2  1  1  1
  2  4  1  0
  3  2  1  0
  5  4  1  0
  5  6  1  6
  7  5  1  0
  8  7  2  0
  9 10  1  0
 11 10  1  0
 11 13  1  0
 11 12  1  6
 13 14  1  1
 14  7  1  0
 15 16  2  0
 15 13  1  0
 18 17  1  1
 18 20  1  0
 19 18  1  0
 20 21  1  6
 21 15  1  0
 22 20  1  0
 23 22  2  0
 24 22  1  0
M  END
$$$$
