LIT.pdb
     RDKit          3D

 24 23  0  0  1  0  0  0  0  0999 V2000
   25.0416  -22.6643  -12.6935 C   0  0  0  0  0  0  0  0  0  0  0  0
   25.9454  -21.4926  -12.3107 C   0  0  2  0  0  0  0  0  0  0  0  0
   26.4431  -21.6671  -10.8828 C   0  0  0  0  0  0  0  0  0  0  0  0
   25.1631  -20.2006  -12.3431 C   0  0  0  0  0  0  0  0  0  0  0  0
   24.6104  -20.0323  -13.7348 C   0  0  2  0  0  0  0  0  0  0  0  0
   25.5984  -20.3965  -14.7302 N   0  0  0  0  0  0  0  0  0  0  0  0
   24.1897  -18.5982  -13.9493 C   0  0  0  0  0  0  0  0  0  0  0  0
   23.4622  -18.0036  -13.1413 O   0  0  0  0  0  0  0  0  0  0  0  0
   27.6683  -14.9860  -15.9459 C   0  0  0  0  0  0  0  0  0  0  0  0
   26.4510  -15.5051  -15.1504 C   0  0  0  0  0  0  0  0  0  0  0  0
   25.2852  -15.7300  -16.0659 C   0  0  2  0  0  0  0  0  0  0  0  0
   24.6239  -14.3442  -16.1932 C   0  0  0  0  0  0  0  0  0  0  0  0
   24.2279  -16.6491  -15.5126 C   0  0  2  0  0  0  0  0  0  0  0  0
   24.6389  -17.9337  -15.0935 N   0  0  0  0  0  0  0  0  0  0  0  0
   23.0563  -16.7515  -16.3641 C   0  0  0  0  0  0  0  0  0  0  0  0
   23.1392  -17.0479  -17.5675 O   0  0  0  0  0  0  0  0  0  0  0  0
   20.3517  -18.9775  -16.6318 C   0  0  0  0  0  0  0  0  0  0  0  0
   19.6619  -17.6698  -16.3173 C   0  0  1  0  0  0  0  0  0  0  0  0
   19.2398  -17.6437  -15.0115 O   0  0  0  0  0  0  0  0  0  0  0  0
   20.5800  -16.5141  -16.6589 C   0  0  2  0  0  0  0  0  0  0  0  0
   21.7639  -16.5096  -15.8268 N   0  0  0  0  0  0  0  0  0  0  0  0
   19.8952  -15.2234  -16.5143 C   0  0  0  0  0  0  0  0  0  0  0  0
   20.2828  -14.3686  -15.7103 O   0  0  0  0  0  0  0  0  0  0  0  0
   18.7793  -14.9438  -17.2977 O   0  0  0  0  0  0  0  0  0  0  0  0
  2  1  1  1
  2  4  1  0
  3  2  1  0
  5  4  1  0
  5  6  1  6
  7  5  1  0
  8  7  2  0
  9 10  1  0
 11 10  1  0
 11 13  1  0
 11 12  1  1
 13 14  1  6
 14  7  1  0
 15 16  2  0
 15 13  1  0
 18 17  1  1
 18 20  1  0
 19 18  1  0
 20 21  1  1
 21 15  1  0
 22 20  1  0
 23 22  2  0
 24 22  1  0
M  END
$$$$
