THC.pdb
     RDKit          3D

 24 24  0  0  1  0  0  0  0  0999 V2000
   11.1155  -14.6812   20.0984 C   0  0  0  0  0  0  0  0  0  0  0  0
   10.5414  -13.5013   19.3781 C   0  0  1  0  0  0  0  0  0  0  0  0
   11.4050  -13.0487   18.4054 O   0  0  0  0  0  0  0  0  0  0  0  0
    9.2256  -13.9222   18.7447 C   0  0  2  0  0  0  0  0  0  0  0  0
    8.6404  -12.8255   18.0189 N   0  0  0  0  0  0  0  0  0  0  0  0
    8.3124  -14.3842   19.8159 C   0  0  0  0  0  0  0  0  0  0  0  0
    7.6866  -13.5377   20.5152 O   0  0  0  0  0  0  0  0  0  0  0  0
    8.1643  -15.7753   20.0291 N   0  0  0  0  0  0  0  0  0  0  0  0
    7.2977  -16.3022   21.0575 C   0  0  1  0  0  0  0  0  0  0  0  0
    6.9240  -17.7023   20.6387 C   0  0  0  0  0  0  0  0  0  0  0  0
    6.0899  -18.3855   21.6579 C   0  0  0  0  0  0  0  0  0  0  0  0
    6.5013  -19.2937   22.6073 C   0  0  0  0  0  0  0  0  0  0  0  0
    5.4452  -19.6821   23.3382 N   0  0  0  0  0  0  0  0  0  0  0  0
    4.3558  -19.0417   22.8794 C   0  0  0  0  0  0  0  0  0  0  0  0
    4.7533  -18.2582   21.8620 N   0  0  0  0  0  0  0  0  0  0  0  0
    7.9858  -16.2492   22.3478 C   0  0  0  0  0  0  0  0  0  0  0  0
    9.2301  -16.4716   22.4214 O   0  0  0  0  0  0  0  0  0  0  0  0
    7.2871  -15.9524   23.5276 N   0  0  0  0  0  0  0  0  0  0  0  0
    7.9295  -15.8888   24.8281 C   0  0  1  0  0  0  0  0  0  0  0  0
    6.9294  -15.1963   25.7568 C   0  0  0  0  0  0  0  0  0  0  0  0
    6.5660  -13.5483   25.1002 S   0  0  0  0  0  0  0  0  0  0  0  0
    8.2093  -17.2112   25.3806 C   0  0  0  0  0  0  0  0  0  0  0  0
    8.7147  -17.3568   26.5180 O   0  0  0  0  0  0  0  0  0  0  0  0
    7.9146  -18.3418   24.6415 O   0  0  0  0  0  0  0  0  0  0  0  0
  2  1  1  6
  3  2  1  0
  4  5  1  1
  4  6  1  0
  4  2  1  0
  6  7  2  0
  8  9  1  0
  8  6  1  0
  9 10  1  6
 10 11  1  0
 11 15  1  0
 11 12  2  0
 12 13  1  0
 14 13  1  0
 15 14  2  0
 16 17  2  0
 16  9  1  0
 18 16  1  0
 19 22  1  0
 19 18  1  0
 19 20  1  1
 21 20  1  0
 22 24  1  0
 23 22  2  0
M  END
$$$$
