THC.pdb
     RDKit          3D

 24 24  0  0  1  0  0  0  0  0999 V2000
    8.8735  -12.7598   20.1076 C   0  0  0  0  0  0  0  0  0  0  0  0
    8.2370  -13.5065   18.9771 C   0  0  1  0  0  0  0  0  0  0  0  0
    8.7829  -13.1326   17.7692 O   0  0  0  0  0  0  0  0  0  0  0  0
    8.4552  -14.9933   19.2039 C   0  0  2  0  0  0  0  0  0  0  0  0
    7.9329  -15.7550   18.0998 N   0  0  0  0  0  0  0  0  0  0  0  0
    7.7859  -15.3814   20.4673 C   0  0  0  0  0  0  0  0  0  0  0  0
    6.5256  -15.4639   20.5100 O   0  0  0  0  0  0  0  0  0  0  0  0
    8.5846  -15.6520   21.6038 N   0  0  0  0  0  0  0  0  0  0  0  0
    8.0069  -16.0557   22.8645 C   0  0  1  0  0  0  0  0  0  0  0  0
    8.6451  -17.3710   23.2362 C   0  0  0  0  0  0  0  0  0  0  0  0
    8.2226  -17.8359   24.5803 C   0  0  0  0  0  0  0  0  0  0  0  0
    7.3096  -17.2446   25.4241 C   0  0  0  0  0  0  0  0  0  0  0  0
    7.2073  -17.9707   26.5477 N   0  0  0  0  0  0  0  0  0  0  0  0
    8.0381  -19.0229   26.4476 C   0  0  0  0  0  0  0  0  0  0  0  0
    8.6498  -18.9351   25.2539 N   0  0  0  0  0  0  0  0  0  0  0  0
    8.2267  -15.0052   23.8591 C   0  0  0  0  0  0  0  0  0  0  0  0
    9.3673  -14.4706   23.9868 O   0  0  0  0  0  0  0  0  0  0  0  0
    7.1847  -14.5676   24.6903 N   0  0  0  0  0  0  0  0  0  0  0  0
    7.3783  -13.5924   25.7483 C   0  0  1  0  0  0  0  0  0  0  0  0
    6.0241  -12.9053   25.9387 C   0  0  0  0  0  0  0  0  0  0  0  0
    6.1513  -11.7327   27.3126 S   0  0  0  0  0  0  0  0  0  0  0  0
    7.7478  -14.2095   27.0190 C   0  0  0  0  0  0  0  0  0  0  0  0
    7.4122  -15.3827   27.3042 O   0  0  0  0  0  0  0  0  0  0  0  0
    8.4871  -13.4934   27.9421 O   0  0  0  0  0  0  0  0  0  0  0  0
  2  1  1  1
  3  2  1  0
  4  5  1  6
  4  6  1  0
  4  2  1  0
  6  7  2  0
  8  9  1  0
  8  6  1  0
  9 10  1  1
 10 11  1  0
 11 15  1  0
 11 12  2  0
 12 13  1  0
 14 13  1  0
 15 14  2  0
 16 17  2  0
 16  9  1  0
 18 16  1  0
 19 22  1  0
 19 18  1  0
 19 20  1  1
 21 20  1  0
 22 24  1  0
 23 22  2  0
M  END
$$$$
