THC.pdb
     RDKit          3D

 24 24  0  0  1  0  0  0  0  0999 V2000
    8.9973  -12.4642   20.0456 C   0  0  0  0  0  0  0  0  0  0  0  0
    8.2170  -13.2462   19.0356 C   0  0  1  0  0  0  0  0  0  0  0  0
    8.4334  -12.7644   17.7636 O   0  0  0  0  0  0  0  0  0  0  0  0
    8.6517  -14.7002   19.1176 C   0  0  2  0  0  0  0  0  0  0  0  0
    8.0110  -15.4781   18.0898 N   0  0  0  0  0  0  0  0  0  0  0  0
    8.3031  -15.2222   20.4595 C   0  0  0  0  0  0  0  0  0  0  0  0
    7.1039  -15.5200   20.7248 O   0  0  0  0  0  0  0  0  0  0  0  0
    9.3333  -15.3748   21.4177 N   0  0  0  0  0  0  0  0  0  0  0  0
    9.0756  -15.8975   22.7393 C   0  0  1  0  0  0  0  0  0  0  0  0
   10.2267  -16.8110   23.0798 C   0  0  0  0  0  0  0  0  0  0  0  0
   10.1144  -17.3618   24.4528 C   0  0  0  0  0  0  0  0  0  0  0  0
    9.0538  -17.2393   25.3219 C   0  0  0  0  0  0  0  0  0  0  0  0
    9.3412  -17.8771   26.4669 N   0  0  0  0  0  0  0  0  0  0  0  0
   10.5699  -18.4112   26.3557 C   0  0  0  0  0  0  0  0  0  0  0  0
   11.0324  -18.0954   25.1337 N   0  0  0  0  0  0  0  0  0  0  0  0
    8.9210  -14.7873   23.6799 C   0  0  0  0  0  0  0  0  0  0  0  0
    9.7567  -13.8363   23.6935 O   0  0  0  0  0  0  0  0  0  0  0  0
    7.8490  -14.7505   24.5842 N   0  0  0  0  0  0  0  0  0  0  0  0
    7.6431  -13.6570   25.5168 C   0  0  1  0  0  0  0  0  0  0  0  0
    6.1281  -13.4573   25.6015 C   0  0  0  0  0  0  0  0  0  0  0  0
    5.7748  -12.1786   26.8340 S   0  0  0  0  0  0  0  0  0  0  0  0
    8.1278  -13.9660   26.8591 C   0  0  0  0  0  0  0  0  0  0  0  0
    8.3097  -15.1463   27.2387 O   0  0  0  0  0  0  0  0  0  0  0  0
    8.3978  -12.9403   27.7459 O   0  0  0  0  0  0  0  0  0  0  0  0
  2  1  1  1
  3  2  1  0
  4  5  1  6
  4  6  1  0
  4  2  1  0
  6  7  2  0
  8  9  1  0
  8  6  1  0
  9 10  1  1
 10 11  1  0
 11 15  1  0
 11 12  2  0
 12 13  1  0
 14 13  1  0
 15 14  2  0
 16 17  2  0
 16  9  1  0
 18 16  1  0
 19 22  1  0
 19 18  1  0
 19 20  1  1
 21 20  1  0
 22 24  1  0
 23 22  2  0
M  END
$$$$
