THC.pdb
     RDKit          3D

 24 24  0  0  1  0  0  0  0  0999 V2000
    6.0150  -22.3441   19.3182 C   0  0  0  0  0  0  0  0  0  0  0  0
    6.9757  -21.2232   19.5656 C   0  0  1  0  0  0  0  0  0  0  0  0
    8.2228  -21.7056   19.8958 O   0  0  0  0  0  0  0  0  0  0  0  0
    7.0652  -20.3832   18.3023 C   0  0  2  0  0  0  0  0  0  0  0  0
    7.5893  -21.1637   17.2123 N   0  0  0  0  0  0  0  0  0  0  0  0
    7.9358  -19.2154   18.5725 C   0  0  0  0  0  0  0  0  0  0  0  0
    9.1730  -19.3864   18.7653 O   0  0  0  0  0  0  0  0  0  0  0  0
    7.3521  -17.9266   18.6077 N   0  0  0  0  0  0  0  0  0  0  0  0
    8.1027  -16.7590   19.0067 C   0  0  1  0  0  0  0  0  0  0  0  0
    7.3148  -15.5563   18.5506 C   0  0  0  0  0  0  0  0  0  0  0  0
    7.9617  -14.2818   18.9489 C   0  0  0  0  0  0  0  0  0  0  0  0
    7.3490  -13.0806   19.2265 C   0  0  0  0  0  0  0  0  0  0  0  0
    8.2807  -12.1697   19.5463 N   0  0  0  0  0  0  0  0  0  0  0  0
    9.4873  -12.7590   19.4810 C   0  0  0  0  0  0  0  0  0  0  0  0
    9.2869  -14.0378   19.1188 N   0  0  0  0  0  0  0  0  0  0  0  0
    8.3214  -16.7921   20.4532 C   0  0  0  0  0  0  0  0  0  0  0  0
    7.3517  -16.9819   21.2448 O   0  0  0  0  0  0  0  0  0  0  0  0
    9.6036  -16.6151   20.9943 N   0  0  0  0  0  0  0  0  0  0  0  0
    9.8489  -16.5172   22.4220 C   0  0  1  0  0  0  0  0  0  0  0  0
    9.8403  -17.9541   22.9488 C   0  0  0  0  0  0  0  0  0  0  0  0
   10.1942  -17.9280   24.7245 S   0  0  0  0  0  0  0  0  0  0  0  0
   11.1536  -15.9376   22.7283 C   0  0  0  0  0  0  0  0  0  0  0  0
   11.9880  -15.6803   21.8294 O   0  0  0  0  0  0  0  0  0  0  0  0
   11.4920  -15.6599   24.0397 O   0  0  0  0  0  0  0  0  0  0  0  0
  2  1  1  6
  3  2  1  0
  4  5  1  6
  4  6  1  0
  4  2  1  0
  6  7  2  0
  8  9  1  0
  8  6  1  0
  9 10  1  1
 10 11  1  0
 11 15  1  0
 11 12  2  0
 12 13  1  0
 14 13  1  0
 15 14  2  0
 16 17  2  0
 16  9  1  0
 18 16  1  0
 19 22  1  0
 19 18  1  0
 19 20  1  6
 21 20  1  0
 22 24  1  0
 23 22  2  0
M  END
$$$$
