THC.pdb
     RDKit          3D

 24 24  0  0  1  0  0  0  0  0999 V2000
    7.0492  -20.4402   20.2799 C   0  0  0  0  0  0  0  0  0  0  0  0
    7.8349  -19.3274   20.9003 C   0  0  1  0  0  0  0  0  0  0  0  0
    9.0164  -19.7941   21.4324 O   0  0  0  0  0  0  0  0  0  0  0  0
    8.1257  -18.2917   19.8268 C   0  0  2  0  0  0  0  0  0  0  0  0
    8.9574  -18.8532   18.7949 N   0  0  0  0  0  0  0  0  0  0  0  0
    8.7934  -17.1305   20.4596 C   0  0  0  0  0  0  0  0  0  0  0  0
   10.0459  -16.9954   20.3591 O   0  0  0  0  0  0  0  0  0  0  0  0
    8.0021  -16.1943   21.1668 N   0  0  0  0  0  0  0  0  0  0  0  0
    8.5650  -14.9886   21.7287 C   0  0  1  0  0  0  0  0  0  0  0  0
    7.6335  -13.8600   21.3628 C   0  0  0  0  0  0  0  0  0  0  0  0
    7.5994  -13.6170   19.8996 C   0  0  0  0  0  0  0  0  0  0  0  0
    6.4999  -13.6354   19.0713 C   0  0  0  0  0  0  0  0  0  0  0  0
    6.8857  -13.3693   17.8141 N   0  0  0  0  0  0  0  0  0  0  0  0
    8.2165  -13.1786   17.8123 C   0  0  0  0  0  0  0  0  0  0  0  0
    8.6423  -13.3301   19.0783 N   0  0  0  0  0  0  0  0  0  0  0  0
    8.7307  -15.1562   23.1729 C   0  0  0  0  0  0  0  0  0  0  0  0
    7.9885  -14.5253   23.9816 O   0  0  0  0  0  0  0  0  0  0  0  0
    9.7106  -16.0150   23.6929 N   0  0  0  0  0  0  0  0  0  0  0  0
    9.8663  -16.2621   25.1151 C   0  0  1  0  0  0  0  0  0  0  0  0
    8.6340  -17.0647   25.5389 C   0  0  0  0  0  0  0  0  0  0  0  0
    8.7979  -17.5085   27.2868 S   0  0  0  0  0  0  0  0  0  0  0  0
   11.0475  -17.0651   25.4187 C   0  0  0  0  0  0  0  0  0  0  0  0
   11.6720  -17.6828   24.5250 O   0  0  0  0  0  0  0  0  0  0  0  0
   11.5010  -17.1560   26.7216 O   0  0  0  0  0  0  0  0  0  0  0  0
  2  1  1  6
  3  2  1  0
  4  5  1  6
  4  6  1  0
  4  2  1  0
  6  7  2  0
  8  9  1  0
  8  6  1  0
  9 10  1  1
 10 11  1  0
 11 15  1  0
 11 12  2  0
 12 13  1  0
 14 13  1  0
 15 14  2  0
 16 17  2  0
 16  9  1  0
 18 16  1  0
 19 22  1  0
 19 18  1  0
 19 20  1  6
 21 20  1  0
 22 24  1  0
 23 22  2  0
M  END
$$$$
