THC.pdb
     RDKit          3D

 24 24  0  0  1  0  0  0  0  0999 V2000
    8.7880  -12.4998   20.2654 C   0  0  0  0  0  0  0  0  0  0  0  0
    8.1791  -13.3167   19.1689 C   0  0  1  0  0  0  0  0  0  0  0  0
    8.4915  -12.7953   17.9330 O   0  0  0  0  0  0  0  0  0  0  0  0
    8.7102  -14.7363   19.2794 C   0  0  2  0  0  0  0  0  0  0  0  0
    8.1759  -15.5594   18.2263 N   0  0  0  0  0  0  0  0  0  0  0  0
    8.3350  -15.2789   20.6059 C   0  0  0  0  0  0  0  0  0  0  0  0
    7.1354  -15.6048   20.8339 O   0  0  0  0  0  0  0  0  0  0  0  0
    9.3405  -15.4188   21.5918 N   0  0  0  0  0  0  0  0  0  0  0  0
    9.0475  -15.9142   22.9165 C   0  0  1  0  0  0  0  0  0  0  0  0
   10.1515  -16.8769   23.2769 C   0  0  0  0  0  0  0  0  0  0  0  0
    9.9096  -18.2339   22.7277 C   0  0  0  0  0  0  0  0  0  0  0  0
    8.8538  -18.6472   21.9469 C   0  0  0  0  0  0  0  0  0  0  0  0
    8.9976  -19.9495   21.6578 N   0  0  0  0  0  0  0  0  0  0  0  0
   10.1284  -20.3883   22.2376 C   0  0  0  0  0  0  0  0  0  0  0  0
   10.6757  -19.3444   22.8838 N   0  0  0  0  0  0  0  0  0  0  0  0
    8.9372  -14.7878   23.8439 C   0  0  0  0  0  0  0  0  0  0  0  0
    9.8816  -13.9516   23.9534 O   0  0  0  0  0  0  0  0  0  0  0  0
    7.7889  -14.6084   24.6296 N   0  0  0  0  0  0  0  0  0  0  0  0
    7.6566  -13.5334   25.5964 C   0  0  1  0  0  0  0  0  0  0  0  0
    6.1558  -13.2589   25.7160 C   0  0  0  0  0  0  0  0  0  0  0  0
    5.8970  -11.9436   26.9334 S   0  0  0  0  0  0  0  0  0  0  0  0
    8.1487  -13.9057   26.9198 C   0  0  0  0  0  0  0  0  0  0  0  0
    8.2507  -15.1041   27.2719 O   0  0  0  0  0  0  0  0  0  0  0  0
    8.5156  -12.9218   27.8191 O   0  0  0  0  0  0  0  0  0  0  0  0
  2  1  1  1
  3  2  1  0
  4  5  1  6
  4  6  1  0
  4  2  1  0
  6  7  2  0
  8  9  1  0
  8  6  1  0
  9 10  1  1
 10 11  1  0
 11 15  1  0
 11 12  2  0
 12 13  1  0
 14 13  1  0
 15 14  2  0
 16 17  2  0
 16  9  1  0
 18 16  1  0
 19 22  1  0
 19 18  1  0
 19 20  1  1
 21 20  1  0
 22 24  1  0
 23 22  2  0
M  END
$$$$
