THC.pdb
     RDKit          3D

 24 24  0  0  1  0  0  0  0  0999 V2000
    9.3827  -19.9332   19.8757 C   0  0  0  0  0  0  0  0  0  0  0  0
    9.7340  -18.9473   18.8056 C   0  0  1  0  0  0  0  0  0  0  0  0
    9.4946  -19.4706   17.5543 O   0  0  0  0  0  0  0  0  0  0  0  0
    8.8934  -17.6982   19.0122 C   0  0  2  0  0  0  0  0  0  0  0  0
    9.0308  -16.8054   17.8915 N   0  0  0  0  0  0  0  0  0  0  0  0
    9.3314  -17.0358   20.2628 C   0  0  0  0  0  0  0  0  0  0  0  0
   10.4604  -16.4700   20.3108 O   0  0  0  0  0  0  0  0  0  0  0  0
    8.4646  -17.0549   21.3812 N   0  0  0  0  0  0  0  0  0  0  0  0
    8.8734  -16.5542   22.6728 C   0  0  1  0  0  0  0  0  0  0  0  0
    7.6163  -16.3576   23.4830 C   0  0  0  0  0  0  0  0  0  0  0  0
    7.4291  -14.9424   23.8875 C   0  0  0  0  0  0  0  0  0  0  0  0
    8.3143  -13.9001   23.7286 C   0  0  0  0  0  0  0  0  0  0  0  0
    7.7739  -12.7778   24.2273 N   0  0  0  0  0  0  0  0  0  0  0  0
    6.5534  -13.0739   24.7069 C   0  0  0  0  0  0  0  0  0  0  0  0
    6.3509  -14.3862   24.4980 N   0  0  0  0  0  0  0  0  0  0  0  0
    9.8136  -17.4944   23.2838 C   0  0  0  0  0  0  0  0  0  0  0  0
    9.5845  -18.7394   23.2579 O   0  0  0  0  0  0  0  0  0  0  0  0
   10.9846  -17.0413   23.9096 N   0  0  0  0  0  0  0  0  0  0  0  0
   11.9130  -17.9323   24.5821 C   0  0  1  0  0  0  0  0  0  0  0  0
   13.2559  -17.1986   24.6062 C   0  0  0  0  0  0  0  0  0  0  0  0
   14.4817  -18.2493   25.4263 S   0  0  0  0  0  0  0  0  0  0  0  0
   11.5283  -18.2037   25.9642 C   0  0  0  0  0  0  0  0  0  0  0  0
   10.8020  -17.4151   26.6132 O   0  0  0  0  0  0  0  0  0  0  0  0
   11.9689  -19.3566   26.5871 O   0  0  0  0  0  0  0  0  0  0  0  0
  2  1  1  1
  3  2  1  0
  4  5  1  6
  4  6  1  0
  4  2  1  0
  6  7  2  0
  8  9  1  0
  8  6  1  0
  9 10  1  1
 10 11  1  0
 11 15  1  0
 11 12  2  0
 12 13  1  0
 14 13  1  0
 15 14  2  0
 16 17  2  0
 16  9  1  0
 18 16  1  0
 19 22  1  0
 19 18  1  0
 19 20  1  1
 21 20  1  0
 22 24  1  0
 23 22  2  0
M  END
$$$$
