THC.pdb
     RDKit          3D

 24 24  0  0  1  0  0  0  0  0999 V2000
    8.5040  -12.8950   20.0439 C   0  0  0  0  0  0  0  0  0  0  0  0
    7.8892  -13.3975   18.7750 C   0  0  1  0  0  0  0  0  0  0  0  0
    7.2367  -12.3847   18.1077 O   0  0  0  0  0  0  0  0  0  0  0  0
    8.9953  -13.9634   17.8998 C   0  0  2  0  0  0  0  0  0  0  0  0
    8.4836  -14.3106   16.5999 N   0  0  0  0  0  0  0  0  0  0  0  0
    9.5651  -15.1550   18.5706 C   0  0  0  0  0  0  0  0  0  0  0  0
    9.5012  -16.2836   18.0056 O   0  0  0  0  0  0  0  0  0  0  0  0
   10.1719  -14.9953   19.8391 N   0  0  0  0  0  0  0  0  0  0  0  0
   10.6438  -16.1236   20.6074 C   0  0  1  0  0  0  0  0  0  0  0  0
   11.5934  -16.8896   19.7203 C   0  0  0  0  0  0  0  0  0  0  0  0
   12.5795  -15.9998   19.0591 C   0  0  0  0  0  0  0  0  0  0  0  0
   13.0642  -14.7961   19.5189 C   0  0  0  0  0  0  0  0  0  0  0  0
   13.9376  -14.2995   18.6296 N   0  0  0  0  0  0  0  0  0  0  0  0
   14.0278  -15.1600   17.6007 C   0  0  0  0  0  0  0  0  0  0  0  0
   13.2029  -16.1874   17.8672 N   0  0  0  0  0  0  0  0  0  0  0  0
   11.2654  -15.6454   21.8427 C   0  0  0  0  0  0  0  0  0  0  0  0
   11.5735  -14.4245   21.9754 O   0  0  0  0  0  0  0  0  0  0  0  0
   11.5334  -16.5233   22.9036 N   0  0  0  0  0  0  0  0  0  0  0  0
   11.0254  -16.3126   24.2473 C   0  0  1  0  0  0  0  0  0  0  0  0
    9.4999  -16.3127   24.1239 C   0  0  0  0  0  0  0  0  0  0  0  0
    8.7832  -15.8882   25.7318 S   0  0  0  0  0  0  0  0  0  0  0  0
   11.3988  -17.3871   25.1628 C   0  0  0  0  0  0  0  0  0  0  0  0
   11.2076  -18.5923   24.8777 O   0  0  0  0  0  0  0  0  0  0  0  0
   11.9795  -17.0827   26.3801 O   0  0  0  0  0  0  0  0  0  0  0  0
  2  1  1  1
  3  2  1  0
  4  5  1  6
  4  6  1  0
  4  2  1  0
  6  7  2  0
  8  9  1  0
  8  6  1  0
  9 10  1  6
 10 11  1  0
 11 15  1  0
 11 12  2  0
 12 13  1  0
 14 13  1  0
 15 14  2  0
 16 17  2  0
 16  9  1  0
 18 16  1  0
 19 22  1  0
 19 18  1  0
 19 20  1  6
 21 20  1  0
 22 24  1  0
 23 22  2  0
M  END
$$$$
