THC.pdb
     RDKit          3D

 24 24  0  0  1  0  0  0  0  0999 V2000
    8.9102  -12.7117   19.4376 C   0  0  0  0  0  0  0  0  0  0  0  0
    8.1514  -13.3508   18.3168 C   0  0  1  0  0  0  0  0  0  0  0  0
    7.5856  -12.3989   17.4978 O   0  0  0  0  0  0  0  0  0  0  0  0
    9.1150  -14.2123   17.5176 C   0  0  2  0  0  0  0  0  0  0  0  0
    8.4455  -14.8079   16.3911 N   0  0  0  0  0  0  0  0  0  0  0  0
    9.6640  -15.2593   18.4104 C   0  0  0  0  0  0  0  0  0  0  0  0
    8.9449  -16.2462   18.7363 O   0  0  0  0  0  0  0  0  0  0  0  0
   10.9925  -15.1244   18.8790 N   0  0  0  0  0  0  0  0  0  0  0  0
   11.5577  -16.0366   19.8456 C   0  0  1  0  0  0  0  0  0  0  0  0
   13.0301  -16.1440   19.5361 C   0  0  0  0  0  0  0  0  0  0  0  0
   13.3165  -17.2174   18.5526 C   0  0  0  0  0  0  0  0  0  0  0  0
   12.8086  -18.4969   18.5353 C   0  0  0  0  0  0  0  0  0  0  0  0
   13.3137  -19.1616   17.4849 N   0  0  0  0  0  0  0  0  0  0  0  0
   14.1405  -18.3356   16.8205 C   0  0  0  0  0  0  0  0  0  0  0  0
   14.1376  -17.1601   17.4724 N   0  0  0  0  0  0  0  0  0  0  0  0
   11.2855  -15.5442   21.1964 C   0  0  0  0  0  0  0  0  0  0  0  0
   11.8597  -14.5014   21.6274 O   0  0  0  0  0  0  0  0  0  0  0  0
   10.3868  -16.2123   22.0416 N   0  0  0  0  0  0  0  0  0  0  0  0
   10.1558  -15.8130   23.4182 C   0  0  1  0  0  0  0  0  0  0  0  0
    8.6603  -16.0191   23.6696 C   0  0  0  0  0  0  0  0  0  0  0  0
    7.7320  -14.7949   22.7112 S   0  0  0  0  0  0  0  0  0  0  0  0
   10.8868  -16.6418   24.3727 C   0  0  0  0  0  0  0  0  0  0  0  0
   11.5274  -17.6558   24.0098 O   0  0  0  0  0  0  0  0  0  0  0  0
   10.8815  -16.3120   25.7153 O   0  0  0  0  0  0  0  0  0  0  0  0
  2  1  1  1
  3  2  1  0
  4  5  1  6
  4  6  1  0
  4  2  1  0
  6  7  2  0
  8  9  1  0
  8  6  1  0
  9 10  1  6
 10 11  1  0
 11 15  1  0
 11 12  2  0
 12 13  1  0
 14 13  1  0
 15 14  2  0
 16 17  2  0
 16  9  1  0
 18 16  1  0
 19 22  1  0
 19 18  1  0
 19 20  1  1
 21 20  1  0
 22 24  1  0
 23 22  2  0
M  END
$$$$
