THC.pdb
     RDKit          3D

 24 24  0  0  1  0  0  0  0  0999 V2000
    5.3743  -15.8757   20.8567 C   0  0  0  0  0  0  0  0  0  0  0  0
    4.9028  -17.2852   21.0348 C   0  0  1  0  0  0  0  0  0  0  0  0
    3.6658  -17.4686   20.4576 O   0  0  0  0  0  0  0  0  0  0  0  0
    5.9171  -18.2136   20.3876 C   0  0  2  0  0  0  0  0  0  0  0  0
    5.4733  -19.5806   20.4661 N   0  0  0  0  0  0  0  0  0  0  0  0
    7.2172  -18.0475   21.0781 C   0  0  0  0  0  0  0  0  0  0  0  0
    7.5045  -18.7880   22.0611 O   0  0  0  0  0  0  0  0  0  0  0  0
    8.1112  -17.0538   20.6134 N   0  0  0  0  0  0  0  0  0  0  0  0
    9.3822  -16.8099   21.2545 C   0  0  1  0  0  0  0  0  0  0  0  0
   10.2620  -16.1294   20.2355 C   0  0  0  0  0  0  0  0  0  0  0  0
   11.6401  -15.9161   20.7421 C   0  0  0  0  0  0  0  0  0  0  0  0
   12.1592  -16.3115   21.9543 C   0  0  0  0  0  0  0  0  0  0  0  0
   13.4424  -15.9280   22.0350 N   0  0  0  0  0  0  0  0  0  0  0  0
   13.7649  -15.2906   20.8961 C   0  0  0  0  0  0  0  0  0  0  0  0
   12.6690  -15.2869   20.1176 N   0  0  0  0  0  0  0  0  0  0  0  0
    9.1726  -16.0112   22.4625 C   0  0  0  0  0  0  0  0  0  0  0  0
    8.7022  -14.8384   22.3830 O   0  0  0  0  0  0  0  0  0  0  0  0
    9.4860  -16.5230   23.7306 N   0  0  0  0  0  0  0  0  0  0  0  0
    9.3235  -15.7548   24.9518 C   0  0  1  0  0  0  0  0  0  0  0  0
    7.9035  -16.0440   25.4437 C   0  0  0  0  0  0  0  0  0  0  0  0
    6.7993  -14.7412   24.8415 S   0  0  0  0  0  0  0  0  0  0  0  0
   10.2516  -16.1668   26.0011 C   0  0  0  0  0  0  0  0  0  0  0  0
   11.0544  -17.1147   25.8360 O   0  0  0  0  0  0  0  0  0  0  0  0
   10.2566  -15.5035   27.2141 O   0  0  0  0  0  0  0  0  0  0  0  0
  2  1  1  6
  3  2  1  0
  4  5  1  1
  4  6  1  0
  4  2  1  0
  6  7  2  0
  8  9  1  0
  8  6  1  0
  9 10  1  6
 10 11  1  0
 11 15  1  0
 11 12  2  0
 12 13  1  0
 14 13  1  0
 15 14  2  0
 16 17  2  0
 16  9  1  0
 18 16  1  0
 19 22  1  0
 19 18  1  0
 19 20  1  1
 21 20  1  0
 22 24  1  0
 23 22  2  0
M  END
$$$$
