WDK.pdb
     RDKit          3D

 32 33  0  0  1  0  0  0  0  0999 V2000
    6.6415  -15.2250   20.4917 N   0  0  0  0  0  0  0  0  0  0  0  0
    7.2490  -15.4358   21.7647 C   0  0  1  0  0  0  0  0  0  0  0  0
    6.3872  -16.0656   22.8079 C   0  0  0  0  0  0  0  0  0  0  0  0
    6.8451  -15.7026   24.1449 C   0  0  0  0  0  0  0  0  0  0  0  0
    7.1350  -16.5905   25.1546 C   0  0  0  0  0  0  0  0  0  0  0  0
    7.5439  -15.8846   26.2057 N   0  0  0  0  0  0  0  0  0  0  0  0
    7.5304  -14.5706   25.9181 C   0  0  0  0  0  0  0  0  0  0  0  0
    7.8603  -13.4556   26.6809 C   0  0  0  0  0  0  0  0  0  0  0  0
    7.7566  -12.1807   26.1599 C   0  0  0  0  0  0  0  0  0  0  0  0
    7.3170  -12.0653   24.8670 C   0  0  0  0  0  0  0  0  0  0  0  0
    6.9839  -13.1552   24.0904 C   0  0  0  0  0  0  0  0  0  0  0  0
    7.0901  -14.4413   24.6182 C   0  0  0  0  0  0  0  0  0  0  0  0
    8.5049  -16.2210   21.6870 C   0  0  0  0  0  0  0  0  0  0  0  0
    8.4720  -17.4423   21.5047 O   0  0  0  0  0  0  0  0  0  0  0  0
    9.7433  -15.5519   21.8245 N   0  0  0  0  0  0  0  0  0  0  0  0
   11.0200  -16.1989   21.7716 C   0  0  1  0  0  0  0  0  0  0  0  0
   12.1245  -15.4128   21.1577 C   0  0  0  0  0  0  0  0  0  0  0  0
   13.3182  -16.2485   20.9375 C   0  0  0  0  0  0  0  0  0  0  0  0
   14.4411  -15.8663   21.3333 O   0  0  0  0  0  0  0  0  0  0  0  0
   11.3791  -16.6918   23.1448 C   0  0  0  0  0  0  0  0  0  0  0  0
   12.3842  -17.4515   23.2911 O   0  0  0  0  0  0  0  0  0  0  0  0
   13.2424  -17.4734   20.2916 O   0  0  0  0  0  0  0  0  0  0  0  0
   10.6491  -16.3525   24.3029 N   0  0  0  0  0  0  0  0  0  0  0  0
   11.0962  -16.7017   25.6297 C   0  0  1  0  0  0  0  0  0  0  0  0
   10.4279  -15.8619   26.6894 C   0  0  0  0  0  0  0  0  0  0  0  0
   10.8429  -16.2478   28.0818 C   0  0  0  0  0  0  0  0  0  0  0  0
   10.1868  -15.3458   29.0798 C   0  0  0  0  0  0  0  0  0  0  0  0
   10.5519  -15.6638   30.5085 C   0  0  0  0  0  0  0  0  0  0  0  0
    9.9263  -14.7811   31.4471 N   0  0  0  0  0  0  0  0  0  0  0  0
   10.9339  -18.1558   25.8951 C   0  0  0  0  0  0  0  0  0  0  0  0
   10.1189  -18.8687   25.2908 O   0  0  0  0  0  0  0  0  0  0  0  0
   11.7250  -18.7604   26.8629 O   0  0  0  0  0  0  0  0  0  0  0  0
  2  1  1  6
  3  4  1  0
  3  2  1  0
  4  5  2  0
  5  6  1  0
  7  6  1  0
  8  7  2  0
  9  8  1  0
 10 11  1  0
 10  9  2  0
 11 12  2  0
 12  4  1  0
 12  7  1  0
 13  2  1  0
 13 14  2  0
 15 13  1  0
 16 15  1  0
 16 17  1  1
 18 19  2  0
 18 17  1  0
 20 16  1  0
 21 20  2  0
 22 18  1  0
 23 20  1  0
 24 25  1  1
 24 23  1  0
 25 26  1  0
 27 28  1  0
 27 26  1  0
 28 29  1  0
 30 32  1  0
 30 24  1  0
 31 30  2  0
M  END
$$$$
