WDK.pdb
     RDKit          3D

 32 33  0  0  1  0  0  0  0  0999 V2000
    6.4424  -17.5271   24.0898 N   0  0  0  0  0  0  0  0  0  0  0  0
    7.4758  -16.6098   23.7372 C   0  0  1  0  0  0  0  0  0  0  0  0
    8.1068  -15.8650   24.8662 C   0  0  0  0  0  0  0  0  0  0  0  0
    7.1701  -14.9044   25.4395 C   0  0  0  0  0  0  0  0  0  0  0  0
    5.9919  -15.2237   26.0735 C   0  0  0  0  0  0  0  0  0  0  0  0
    5.4325  -14.0866   26.4790 N   0  0  0  0  0  0  0  0  0  0  0  0
    6.2021  -13.0394   26.1322 C   0  0  0  0  0  0  0  0  0  0  0  0
    6.0413  -11.6717   26.3262 C   0  0  0  0  0  0  0  0  0  0  0  0
    6.9815  -10.7717   25.8641 C   0  0  0  0  0  0  0  0  0  0  0  0
    8.0718  -11.2839   25.2105 C   0  0  0  0  0  0  0  0  0  0  0  0
    8.2540  -12.6355   25.0057 C   0  0  0  0  0  0  0  0  0  0  0  0
    7.3039  -13.5421   25.4737 C   0  0  0  0  0  0  0  0  0  0  0  0
    8.5651  -17.2357   22.9489 C   0  0  0  0  0  0  0  0  0  0  0  0
    8.9225  -18.3950   23.1812 O   0  0  0  0  0  0  0  0  0  0  0  0
    9.1906  -16.4864   21.9254 N   0  0  0  0  0  0  0  0  0  0  0  0
   10.4108  -16.8660   21.2784 C   0  0  1  0  0  0  0  0  0  0  0  0
   10.7402  -16.1328   20.0259 C   0  0  0  0  0  0  0  0  0  0  0  0
    9.8736  -16.5586   18.9126 C   0  0  0  0  0  0  0  0  0  0  0  0
    9.6688  -17.7733   18.6978 O   0  0  0  0  0  0  0  0  0  0  0  0
   11.5345  -16.8075   22.2740 C   0  0  0  0  0  0  0  0  0  0  0  0
   11.9633  -15.6793   22.6641 O   0  0  0  0  0  0  0  0  0  0  0  0
    9.2610  -15.6407   18.0725 O   0  0  0  0  0  0  0  0  0  0  0  0
   12.1524  -17.9564   22.8101 N   0  0  0  0  0  0  0  0  0  0  0  0
   13.1804  -17.8824   23.8201 C   0  0  1  0  0  0  0  0  0  0  0  0
   13.1110  -19.0424   24.7816 C   0  0  0  0  0  0  0  0  0  0  0  0
   11.9696  -18.9229   25.7525 C   0  0  0  0  0  0  0  0  0  0  0  0
   11.9727  -20.0882   26.6918 C   0  0  0  0  0  0  0  0  0  0  0  0
   10.9706  -19.9598   27.8121 C   0  0  0  0  0  0  0  0  0  0  0  0
   11.0091  -21.0699   28.7163 N   0  0  0  0  0  0  0  0  0  0  0  0
   14.5318  -17.7485   23.2144 C   0  0  0  0  0  0  0  0  0  0  0  0
   15.3866  -16.9535   23.6325 O   0  0  0  0  0  0  0  0  0  0  0  0
   14.8691  -18.5442   22.1275 O   0  0  0  0  0  0  0  0  0  0  0  0
  2  1  1  1
  3  4  1  0
  3  2  1  0
  4  5  2  0
  5  6  1  0
  7  6  1  0
  8  7  2  0
  9  8  1  0
 10 11  1  0
 10  9  2  0
 11 12  2  0
 12  4  1  0
 12  7  1  0
 13  2  1  0
 13 14  2  0
 15 13  1  0
 16 15  1  0
 16 17  1  6
 18 19  2  0
 18 17  1  0
 20 16  1  0
 21 20  2  0
 22 18  1  0
 23 20  1  0
 24 25  1  6
 24 23  1  0
 25 26  1  0
 27 28  1  0
 27 26  1  0
 28 29  1  0
 30 32  1  0
 30 24  1  0
 31 30  2  0
M  END
$$$$
