WDK.pdb
     RDKit          3D

 32 33  0  0  1  0  0  0  0  0999 V2000
    6.5939  -18.1521   24.8953 N   0  0  0  0  0  0  0  0  0  0  0  0
    7.0821  -17.0067   24.2000 C   0  0  1  0  0  0  0  0  0  0  0  0
    7.9571  -16.0858   24.9835 C   0  0  0  0  0  0  0  0  0  0  0  0
    7.1669  -15.0341   25.6148 C   0  0  0  0  0  0  0  0  0  0  0  0
    5.9524  -15.2153   26.2346 C   0  0  0  0  0  0  0  0  0  0  0  0
    5.5617  -14.0344   26.7068 N   0  0  0  0  0  0  0  0  0  0  0  0
    6.4761  -13.0913   26.4171 C   0  0  0  0  0  0  0  0  0  0  0  0
    6.5140  -11.7281   26.6896 C   0  0  0  0  0  0  0  0  0  0  0  0
    7.5763  -10.9487   26.2756 C   0  0  0  0  0  0  0  0  0  0  0  0
    8.5837  -11.5750   25.5891 C   0  0  0  0  0  0  0  0  0  0  0  0
    8.5694  -12.9248   25.3067 C   0  0  0  0  0  0  0  0  0  0  0  0
    7.4962  -13.7097   25.7262 C   0  0  0  0  0  0  0  0  0  0  0  0
    7.7990  -17.3484   22.9474 C   0  0  0  0  0  0  0  0  0  0  0  0
    8.2944  -18.4693   22.7928 O   0  0  0  0  0  0  0  0  0  0  0  0
    7.9081  -16.3721   21.9299 N   0  0  0  0  0  0  0  0  0  0  0  0
    8.6555  -16.5473   20.7206 C   0  0  1  0  0  0  0  0  0  0  0  0
    8.0621  -15.9475   19.4947 C   0  0  0  0  0  0  0  0  0  0  0  0
    8.8175  -16.3345   18.2899 C   0  0  0  0  0  0  0  0  0  0  0  0
    8.7887  -15.6169   17.2662 O   0  0  0  0  0  0  0  0  0  0  0  0
   10.0676  -16.0850   20.9436 C   0  0  0  0  0  0  0  0  0  0  0  0
   10.3288  -14.8441   20.9151 O   0  0  0  0  0  0  0  0  0  0  0  0
    9.5780  -17.4935   18.2464 O   0  0  0  0  0  0  0  0  0  0  0  0
   11.1403  -16.9677   21.1871 N   0  0  0  0  0  0  0  0  0  0  0  0
   12.2281  -16.6374   22.0758 C   0  0  1  0  0  0  0  0  0  0  0  0
   11.7343  -16.1609   23.4189 C   0  0  0  0  0  0  0  0  0  0  0  0
   11.0766  -17.2531   24.2154 C   0  0  0  0  0  0  0  0  0  0  0  0
   11.7066  -17.3492   25.5697 C   0  0  0  0  0  0  0  0  0  0  0  0
   11.1149  -18.4364   26.4319 C   0  0  0  0  0  0  0  0  0  0  0  0
   11.7640  -18.5458   27.7040 N   0  0  0  0  0  0  0  0  0  0  0  0
   13.1857  -17.7671   22.2095 C   0  0  0  0  0  0  0  0  0  0  0  0
   14.2986  -17.6531   22.7443 O   0  0  0  0  0  0  0  0  0  0  0  0
   12.8327  -19.0165   21.7171 O   0  0  0  0  0  0  0  0  0  0  0  0
  2  1  1  1
  3  4  1  0
  3  2  1  0
  4  5  2  0
  5  6  1  0
  7  6  1  0
  8  7  2  0
  9  8  1  0
 10 11  1  0
 10  9  2  0
 11 12  2  0
 12  4  1  0
 12  7  1  0
 13  2  1  0
 13 14  2  0
 15 13  1  0
 16 15  1  0
 16 17  1  6
 18 19  2  0
 18 17  1  0
 20 16  1  0
 21 20  2  0
 22 18  1  0
 23 20  1  0
 24 25  1  1
 24 23  1  0
 25 26  1  0
 27 28  1  0
 27 26  1  0
 28 29  1  0
 30 32  1  0
 30 24  1  0
 31 30  2  0
M  END
$$$$
