WDK.pdb
     RDKit          3D

 32 33  0  0  1  0  0  0  0  0999 V2000
    6.4655  -17.7967   24.4814 N   0  0  0  0  0  0  0  0  0  0  0  0
    7.2923  -16.7731   23.9315 C   0  0  1  0  0  0  0  0  0  0  0  0
    7.9901  -15.8930   24.9144 C   0  0  0  0  0  0  0  0  0  0  0  0
    7.0569  -14.9436   25.5117 C   0  0  0  0  0  0  0  0  0  0  0  0
    5.9325  -15.2782   26.2299 C   0  0  0  0  0  0  0  0  0  0  0  0
    5.3591  -14.1461   26.6297 N   0  0  0  0  0  0  0  0  0  0  0  0
    6.0678  -13.0874   26.1982 C   0  0  0  0  0  0  0  0  0  0  0  0
    5.8705  -11.7195   26.3538 C   0  0  0  0  0  0  0  0  0  0  0  0
    6.7475  -10.8065   25.8017 C   0  0  0  0  0  0  0  0  0  0  0  0
    7.8127  -11.3060   25.0988 C   0  0  0  0  0  0  0  0  0  0  0  0
    8.0302  -12.6575   24.9306 C   0  0  0  0  0  0  0  0  0  0  0  0
    7.1439  -13.5772   25.4894 C   0  0  0  0  0  0  0  0  0  0  0  0
    8.3146  -17.2936   22.9913 C   0  0  0  0  0  0  0  0  0  0  0  0
    8.9339  -18.3310   23.2479 O   0  0  0  0  0  0  0  0  0  0  0  0
    8.5715  -16.5851   21.7944 N   0  0  0  0  0  0  0  0  0  0  0  0
    9.6736  -16.8523   20.9196 C   0  0  1  0  0  0  0  0  0  0  0  0
    9.6599  -16.1350   19.6156 C   0  0  0  0  0  0  0  0  0  0  0  0
    8.6713  -16.7207   18.6929 C   0  0  0  0  0  0  0  0  0  0  0  0
    8.0491  -15.9949   17.8868 O   0  0  0  0  0  0  0  0  0  0  0  0
   10.9589  -16.6330   21.6662 C   0  0  0  0  0  0  0  0  0  0  0  0
   11.3137  -15.4518   21.9624 O   0  0  0  0  0  0  0  0  0  0  0  0
    8.3970  -18.0802   18.6841 O   0  0  0  0  0  0  0  0  0  0  0  0
   11.8104  -17.6846   22.0641 N   0  0  0  0  0  0  0  0  0  0  0  0
   13.0174  -17.4585   22.8220 C   0  0  1  0  0  0  0  0  0  0  0  0
   13.2332  -18.5221   23.8694 C   0  0  0  0  0  0  0  0  0  0  0  0
   12.1067  -18.5948   24.8622 C   0  0  0  0  0  0  0  0  0  0  0  0
   12.4104  -19.6234   25.9062 C   0  0  0  0  0  0  0  0  0  0  0  0
   11.4207  -19.6345   27.0447 C   0  0  0  0  0  0  0  0  0  0  0  0
   11.1272  -20.9579   27.5073 N   0  0  0  0  0  0  0  0  0  0  0  0
   14.2004  -17.3120   21.9331 C   0  0  0  0  0  0  0  0  0  0  0  0
   14.1588  -17.5124   20.7102 O   0  0  0  0  0  0  0  0  0  0  0  0
   15.4181  -16.9336   22.4827 O   0  0  0  0  0  0  0  0  0  0  0  0
  2  1  1  1
  3  4  1  0
  3  2  1  0
  4  5  2  0
  5  6  1  0
  7  6  1  0
  8  7  2  0
  9  8  1  0
 10 11  1  0
 10  9  2  0
 11 12  2  0
 12  4  1  0
 12  7  1  0
 13  2  1  0
 13 14  2  0
 15 13  1  0
 16 15  1  0
 16 17  1  6
 18 19  2  0
 18 17  1  0
 20 16  1  0
 21 20  2  0
 22 18  1  0
 23 20  1  0
 24 25  1  1
 24 23  1  0
 25 26  1  0
 27 28  1  0
 27 26  1  0
 28 29  1  0
 30 32  1  0
 30 24  1  0
 31 30  2  0
M  END
$$$$
