WDK.pdb
     RDKit          3D

 32 33  0  0  1  0  0  0  0  0999 V2000
    9.8073  -15.8301   21.6690 N   0  0  0  0  0  0  0  0  0  0  0  0
    9.1327  -15.8541   22.9252 C   0  0  1  0  0  0  0  0  0  0  0  0
    7.6672  -15.5732   22.8897 C   0  0  0  0  0  0  0  0  0  0  0  0
    7.4096  -14.1480   23.0674 C   0  0  0  0  0  0  0  0  0  0  0  0
    7.3896  -13.2117   22.0600 C   0  0  0  0  0  0  0  0  0  0  0  0
    7.0959  -12.0361   22.6094 N   0  0  0  0  0  0  0  0  0  0  0  0
    6.9245  -12.1721   23.9367 C   0  0  0  0  0  0  0  0  0  0  0  0
    6.6166  -11.2456   24.9271 C   0  0  0  0  0  0  0  0  0  0  0  0
    6.4978  -11.6292   26.2485 C   0  0  0  0  0  0  0  0  0  0  0  0
    6.6957  -12.9543   26.5372 C   0  0  0  0  0  0  0  0  0  0  0  0
    7.0017  -13.8920   25.5733 C   0  0  0  0  0  0  0  0  0  0  0  0
    7.1205  -13.5025   24.2399 C   0  0  0  0  0  0  0  0  0  0  0  0
    9.3277  -17.1241   23.6661 C   0  0  0  0  0  0  0  0  0  0  0  0
    8.4089  -17.6092   24.3340 O   0  0  0  0  0  0  0  0  0  0  0  0
   10.5820  -17.7739   23.5977 N   0  0  0  0  0  0  0  0  0  0  0  0
   11.7281  -17.3987   24.3705 C   0  0  1  0  0  0  0  0  0  0  0  0
   12.2415  -16.0197   24.1481 C   0  0  0  0  0  0  0  0  0  0  0  0
   13.5537  -16.0387   23.4776 C   0  0  0  0  0  0  0  0  0  0  0  0
   13.6824  -16.5673   22.3517 O   0  0  0  0  0  0  0  0  0  0  0  0
   11.4512  -17.6660   25.8229 C   0  0  0  0  0  0  0  0  0  0  0  0
   12.3984  -17.5868   26.6627 O   0  0  0  0  0  0  0  0  0  0  0  0
   14.6801  -15.4789   24.0621 O   0  0  0  0  0  0  0  0  0  0  0  0
   10.1746  -18.0070   26.3160 N   0  0  0  0  0  0  0  0  0  0  0  0
    9.9391  -18.3176   27.7054 C   0  0  1  0  0  0  0  0  0  0  0  0
    9.1510  -19.5927   27.8726 C   0  0  0  0  0  0  0  0  0  0  0  0
    8.1213  -19.7832   26.7941 C   0  0  0  0  0  0  0  0  0  0  0  0
    7.4504  -21.1113   26.9559 C   0  0  0  0  0  0  0  0  0  0  0  0
    6.3532  -21.3569   25.9503 C   0  0  0  0  0  0  0  0  0  0  0  0
    5.6971  -22.6149   26.1461 N   0  0  0  0  0  0  0  0  0  0  0  0
   11.2078  -18.3481   28.4803 C   0  0  0  0  0  0  0  0  0  0  0  0
   11.4331  -17.5990   29.4425 O   0  0  0  0  0  0  0  0  0  0  0  0
   12.1988  -19.2526   28.1225 O   0  0  0  0  0  0  0  0  0  0  0  0
  2  1  1  6
  3  4  1  0
  3  2  1  0
  4  5  2  0
  5  6  1  0
  7  6  1  0
  8  7  2  0
  9  8  1  0
 10 11  1  0
 10  9  2  0
 11 12  2  0
 12  4  1  0
 12  7  1  0
 13  2  1  0
 13 14  2  0
 15 13  1  0
 16 15  1  0
 16 17  1  1
 18 19  2  0
 18 17  1  0
 20 16  1  0
 21 20  2  0
 22 18  1  0
 23 20  1  0
 24 25  1  6
 24 23  1  0
 25 26  1  0
 27 28  1  0
 27 26  1  0
 28 29  1  0
 30 32  1  0
 30 24  1  0
 31 30  2  0
M  END
$$$$
