WDK.pdb
     RDKit          3D

 32 33  0  0  1  0  0  0  0  0999 V2000
    7.2413  -16.6414   23.5700 N   0  0  0  0  0  0  0  0  0  0  0  0
    8.4583  -16.1661   24.1417 C   0  0  1  0  0  0  0  0  0  0  0  0
    8.4013  -15.7813   25.5826 C   0  0  0  0  0  0  0  0  0  0  0  0
    7.3586  -14.7865   25.8111 C   0  0  0  0  0  0  0  0  0  0  0  0
    6.0815  -15.0580   26.2441 C   0  0  0  0  0  0  0  0  0  0  0  0
    5.4400  -13.8978   26.3569 N   0  0  0  0  0  0  0  0  0  0  0  0
    6.2514  -12.8816   26.0131 C   0  0  0  0  0  0  0  0  0  0  0  0
    6.0400  -11.5079   25.9640 C   0  0  0  0  0  0  0  0  0  0  0  0
    7.0432  -10.6472   25.5639 C   0  0  0  0  0  0  0  0  0  0  0  0
    8.2473  -11.2040   25.2199 C   0  0  0  0  0  0  0  0  0  0  0  0
    8.4817  -12.5625   25.2604 C   0  0  0  0  0  0  0  0  0  0  0  0
    7.4677  -13.4294   25.6653 C   0  0  0  0  0  0  0  0  0  0  0  0
    9.5879  -17.1127   23.9750 C   0  0  0  0  0  0  0  0  0  0  0  0
    9.6138  -18.1765   24.6021 O   0  0  0  0  0  0  0  0  0  0  0  0
   10.6373  -16.7807   23.0867 N   0  0  0  0  0  0  0  0  0  0  0  0
   11.8714  -17.5014   22.9909 C   0  0  1  0  0  0  0  0  0  0  0  0
   12.8387  -17.0057   21.9743 C   0  0  0  0  0  0  0  0  0  0  0  0
   12.2971  -17.1393   20.6103 C   0  0  0  0  0  0  0  0  0  0  0  0
   12.0130  -18.2662   20.1488 O   0  0  0  0  0  0  0  0  0  0  0  0
   12.4926  -17.5969   24.3556 C   0  0  0  0  0  0  0  0  0  0  0  0
   12.8613  -16.5376   24.9480 O   0  0  0  0  0  0  0  0  0  0  0  0
   12.0851  -16.0353   19.7979 O   0  0  0  0  0  0  0  0  0  0  0  0
   12.6937  -18.8196   25.0292 N   0  0  0  0  0  0  0  0  0  0  0  0
   13.2240  -18.8869   26.3696 C   0  0  1  0  0  0  0  0  0  0  0  0
   12.4991  -19.9062   27.2124 C   0  0  0  0  0  0  0  0  0  0  0  0
   13.1019  -20.0609   28.5808 C   0  0  0  0  0  0  0  0  0  0  0  0
   12.3554  -21.1027   29.3540 C   0  0  0  0  0  0  0  0  0  0  0  0
   12.8805  -21.3034   30.7539 C   0  0  0  0  0  0  0  0  0  0  0  0
   12.2254  -22.3765   31.4399 N   0  0  0  0  0  0  0  0  0  0  0  0
   14.6926  -19.1198   26.3643 C   0  0  0  0  0  0  0  0  0  0  0  0
   15.4719  -18.5534   27.1449 O   0  0  0  0  0  0  0  0  0  0  0  0
   15.2340  -20.0113   25.4476 O   0  0  0  0  0  0  0  0  0  0  0  0
  2  1  1  1
  3  4  1  0
  3  2  1  0
  4  5  2  0
  5  6  1  0
  7  6  1  0
  8  7  2  0
  9  8  1  0
 10 11  1  0
 10  9  2  0
 11 12  2  0
 12  4  1  0
 12  7  1  0
 13  2  1  0
 13 14  2  0
 15 13  1  0
 16 15  1  0
 16 17  1  6
 18 19  2  0
 18 17  1  0
 20 16  1  0
 21 20  2  0
 22 18  1  0
 23 20  1  0
 24 25  1  1
 24 23  1  0
 25 26  1  0
 27 28  1  0
 27 26  1  0
 28 29  1  0
 30 32  1  0
 30 24  1  0
 31 30  2  0
M  END
$$$$
