WDK.pdb
     RDKit          3D

 32 33  0  0  1  0  0  0  0  0999 V2000
    6.3890  -17.8787   24.3459 N   0  0  0  0  0  0  0  0  0  0  0  0
    7.3351  -16.9048   23.9096 C   0  0  1  0  0  0  0  0  0  0  0  0
    8.0713  -16.1762   24.9842 C   0  0  0  0  0  0  0  0  0  0  0  0
    7.2134  -15.1772   25.6126 C   0  0  0  0  0  0  0  0  0  0  0  0
    6.0997  -15.4499   26.3724 C   0  0  0  0  0  0  0  0  0  0  0  0
    5.6034  -14.2882   26.7899 N   0  0  0  0  0  0  0  0  0  0  0  0
    6.3519  -13.2696   26.3298 C   0  0  0  0  0  0  0  0  0  0  0  0
    6.2348  -11.8930   26.4888 C   0  0  0  0  0  0  0  0  0  0  0  0
    7.1390  -11.0292   25.9025 C   0  0  0  0  0  0  0  0  0  0  0  0
    8.1491  -11.5861   25.1624 C   0  0  0  0  0  0  0  0  0  0  0  0
    8.2868  -12.9475   24.9900 C   0  0  0  0  0  0  0  0  0  0  0  0
    7.3732  -13.8175   25.5835 C   0  0  0  0  0  0  0  0  0  0  0  0
    8.3422  -17.4528   22.9687 C   0  0  0  0  0  0  0  0  0  0  0  0
    8.6413  -18.6509   22.9964 O   0  0  0  0  0  0  0  0  0  0  0  0
    8.9569  -16.5838   22.0374 N   0  0  0  0  0  0  0  0  0  0  0  0
   10.2801  -16.7625   21.5190 C   0  0  1  0  0  0  0  0  0  0  0  0
   10.6978  -15.8094   20.4550 C   0  0  0  0  0  0  0  0  0  0  0  0
   11.9684  -16.2237   19.8340 C   0  0  0  0  0  0  0  0  0  0  0  0
   12.3881  -17.3939   19.9696 O   0  0  0  0  0  0  0  0  0  0  0  0
   11.2563  -16.7907   22.6608 C   0  0  0  0  0  0  0  0  0  0  0  0
   11.6736  -15.6977   23.1509 O   0  0  0  0  0  0  0  0  0  0  0  0
   12.7364  -15.3436   19.0862 O   0  0  0  0  0  0  0  0  0  0  0  0
   11.7452  -17.9848   23.2301 N   0  0  0  0  0  0  0  0  0  0  0  0
   12.6763  -17.9922   24.3325 C   0  0  1  0  0  0  0  0  0  0  0  0
   12.1177  -18.7067   25.5377 C   0  0  0  0  0  0  0  0  0  0  0  0
   11.2716  -19.8928   25.1677 C   0  0  0  0  0  0  0  0  0  0  0  0
   10.7410  -20.5485   26.4041 C   0  0  0  0  0  0  0  0  0  0  0  0
    9.7640  -21.6626   26.1215 C   0  0  0  0  0  0  0  0  0  0  0  0
    9.2894  -22.2960   27.3153 N   0  0  0  0  0  0  0  0  0  0  0  0
   13.9967  -18.5434   23.9278 C   0  0  0  0  0  0  0  0  0  0  0  0
   14.2045  -19.0628   22.8212 O   0  0  0  0  0  0  0  0  0  0  0  0
   15.0589  -18.4816   24.8200 O   0  0  0  0  0  0  0  0  0  0  0  0
  2  1  1  1
  3  4  1  0
  3  2  1  0
  4  5  2  0
  5  6  1  0
  7  6  1  0
  8  7  2  0
  9  8  1  0
 10 11  1  0
 10  9  2  0
 11 12  2  0
 12  4  1  0
 12  7  1  0
 13  2  1  0
 13 14  2  0
 15 13  1  0
 16 15  1  0
 16 17  1  6
 18 19  2  0
 18 17  1  0
 20 16  1  0
 21 20  2  0
 22 18  1  0
 23 20  1  0
 24 25  1  1
 24 23  1  0
 25 26  1  0
 27 28  1  0
 27 26  1  0
 28 29  1  0
 30 32  1  0
 30 24  1  0
 31 30  2  0
M  END
$$$$
