WDK.pdb
     RDKit          3D

 32 33  0  0  1  0  0  0  0  0999 V2000
    6.3770  -17.3529   23.9828 N   0  0  0  0  0  0  0  0  0  0  0  0
    7.5296  -16.5238   23.8498 C   0  0  1  0  0  0  0  0  0  0  0  0
    8.0211  -15.8759   25.1014 C   0  0  0  0  0  0  0  0  0  0  0  0
    7.0854  -14.8526   25.5556 C   0  0  0  0  0  0  0  0  0  0  0  0
    5.8678  -15.0948   26.1479 C   0  0  0  0  0  0  0  0  0  0  0  0
    5.3225  -13.9174   26.4424 N   0  0  0  0  0  0  0  0  0  0  0  0
    6.1393  -12.9181   26.0634 C   0  0  0  0  0  0  0  0  0  0  0  0
    6.0095  -11.5363   26.1519 C   0  0  0  0  0  0  0  0  0  0  0  0
    6.9980  -10.6966   25.6775 C   0  0  0  0  0  0  0  0  0  0  0  0
    8.1043  -11.2825   25.1197 C   0  0  0  0  0  0  0  0  0  0  0  0
    8.2566  -12.6496   25.0205 C   0  0  0  0  0  0  0  0  0  0  0  0
    7.2576  -13.4953   25.5007 C   0  0  0  0  0  0  0  0  0  0  0  0
    8.6795  -17.2219   23.2252 C   0  0  0  0  0  0  0  0  0  0  0  0
    8.8522  -18.4319   23.4037 O   0  0  0  0  0  0  0  0  0  0  0  0
    9.5778  -16.4827   22.4208 N   0  0  0  0  0  0  0  0  0  0  0  0
   10.9224  -16.8846   22.1345 C   0  0  1  0  0  0  0  0  0  0  0  0
   11.6810  -16.0067   21.2025 C   0  0  0  0  0  0  0  0  0  0  0  0
   11.3843  -16.3352   19.7969 C   0  0  0  0  0  0  0  0  0  0  0  0
   10.8942  -17.4455   19.4955 O   0  0  0  0  0  0  0  0  0  0  0  0
   11.6580  -17.0978   23.4271 C   0  0  0  0  0  0  0  0  0  0  0  0
   11.7660  -16.1372   24.2484 O   0  0  0  0  0  0  0  0  0  0  0  0
   11.6344  -15.4380   18.7693 O   0  0  0  0  0  0  0  0  0  0  0  0
   12.2471  -18.3277   23.7872 N   0  0  0  0  0  0  0  0  0  0  0  0
   12.8493  -18.5485   25.0798 C   0  0  1  0  0  0  0  0  0  0  0  0
   12.1740  -19.6672   25.8330 C   0  0  0  0  0  0  0  0  0  0  0  0
   12.7977  -19.9201   27.1772 C   0  0  0  0  0  0  0  0  0  0  0  0
   12.1334  -21.0871   27.8381 C   0  0  0  0  0  0  0  0  0  0  0  0
   12.5458  -21.2780   29.2766 C   0  0  0  0  0  0  0  0  0  0  0  0
   11.7806  -22.2908   29.9399 N   0  0  0  0  0  0  0  0  0  0  0  0
   14.3161  -18.7655   24.9685 C   0  0  0  0  0  0  0  0  0  0  0  0
   14.8513  -19.2881   23.9796 O   0  0  0  0  0  0  0  0  0  0  0  0
   15.1408  -18.3700   26.0133 O   0  0  0  0  0  0  0  0  0  0  0  0
  2  1  1  1
  3  4  1  0
  3  2  1  0
  4  5  2  0
  5  6  1  0
  7  6  1  0
  8  7  2  0
  9  8  1  0
 10 11  1  0
 10  9  2  0
 11 12  2  0
 12  4  1  0
 12  7  1  0
 13  2  1  0
 13 14  2  0
 15 13  1  0
 16 15  1  0
 16 17  1  6
 18 19  2  0
 18 17  1  0
 20 16  1  0
 21 20  2  0
 22 18  1  0
 23 20  1  0
 24 25  1  6
 24 23  1  0
 25 26  1  0
 27 28  1  0
 27 26  1  0
 28 29  1  0
 30 32  1  0
 30 24  1  0
 31 30  2  0
M  END
$$$$
