WDK.pdb
     RDKit          3D

 32 33  0  0  1  0  0  0  0  0999 V2000
    6.9885  -16.9672   23.0250 N   0  0  0  0  0  0  0  0  0  0  0  0
    8.1340  -16.3124   23.5660 C   0  0  1  0  0  0  0  0  0  0  0  0
    8.1991  -16.2247   25.0545 C   0  0  0  0  0  0  0  0  0  0  0  0
    7.1826  -15.3100   25.5634 C   0  0  0  0  0  0  0  0  0  0  0  0
    5.9592  -15.6826   26.0700 C   0  0  0  0  0  0  0  0  0  0  0  0
    5.3289  -14.5755   26.4540 N   0  0  0  0  0  0  0  0  0  0  0  0
    6.0959  -13.4965   26.2158 C   0  0  0  0  0  0  0  0  0  0  0  0
    5.8754  -12.1410   26.4353 C   0  0  0  0  0  0  0  0  0  0  0  0
    6.8278  -11.2006   26.0946 C   0  0  0  0  0  0  0  0  0  0  0  0
    7.9910  -11.6604   25.5345 C   0  0  0  0  0  0  0  0  0  0  0  0
    8.2334  -12.9989   25.3069 C   0  0  0  0  0  0  0  0  0  0  0  0
    7.2708  -13.9464   25.6524 C   0  0  0  0  0  0  0  0  0  0  0  0
    9.4139  -16.8954   23.0951 C   0  0  0  0  0  0  0  0  0  0  0  0
    9.4467  -18.0320   22.6126 O   0  0  0  0  0  0  0  0  0  0  0  0
   10.5990  -16.1314   23.2059 N   0  0  0  0  0  0  0  0  0  0  0  0
   11.9031  -16.6103   22.8571 C   0  0  1  0  0  0  0  0  0  0  0  0
   12.6999  -15.7343   21.9558 C   0  0  0  0  0  0  0  0  0  0  0  0
   14.0182  -16.3247   21.6635 C   0  0  0  0  0  0  0  0  0  0  0  0
   15.0669  -15.7109   21.9587 O   0  0  0  0  0  0  0  0  0  0  0  0
   12.6535  -16.9528   24.1128 C   0  0  0  0  0  0  0  0  0  0  0  0
   13.8572  -17.3448   24.0322 O   0  0  0  0  0  0  0  0  0  0  0  0
   14.1437  -17.5662   21.0581 O   0  0  0  0  0  0  0  0  0  0  0  0
   12.0863  -16.8624   25.4010 N   0  0  0  0  0  0  0  0  0  0  0  0
   11.8125  -18.0259   26.2096 C   0  0  1  0  0  0  0  0  0  0  0  0
   10.7124  -18.8745   25.6226 C   0  0  0  0  0  0  0  0  0  0  0  0
   10.4571  -20.1240   26.4185 C   0  0  0  0  0  0  0  0  0  0  0  0
    9.3260  -20.8945   25.8126 C   0  0  0  0  0  0  0  0  0  0  0  0
    8.9936  -22.1618   26.5601 C   0  0  0  0  0  0  0  0  0  0  0  0
    7.9188  -22.8919   25.9573 N   0  0  0  0  0  0  0  0  0  0  0  0
   13.0455  -18.8181   26.4608 C   0  0  0  0  0  0  0  0  0  0  0  0
   13.6566  -18.7980   27.5396 O   0  0  0  0  0  0  0  0  0  0  0  0
   13.5507  -19.6244   25.4495 O   0  0  0  0  0  0  0  0  0  0  0  0
  2  1  1  1
  3  4  1  0
  3  2  1  0
  4  5  2  0
  5  6  1  0
  7  6  1  0
  8  7  2  0
  9  8  1  0
 10 11  1  0
 10  9  2  0
 11 12  2  0
 12  4  1  0
 12  7  1  0
 13  2  1  0
 13 14  2  0
 15 13  1  0
 16 15  1  0
 16 17  1  1
 18 19  2  0
 18 17  1  0
 20 16  1  0
 21 20  2  0
 22 18  1  0
 23 20  1  0
 24 25  1  6
 24 23  1  0
 25 26  1  0
 27 28  1  0
 27 26  1  0
 28 29  1  0
 30 32  1  0
 30 24  1  0
 31 30  2  0
M  END
$$$$
