WDK.pdb
     RDKit          3D

 32 33  0  0  1  0  0  0  0  0999 V2000
    6.4285  -17.7727   24.2661 N   0  0  0  0  0  0  0  0  0  0  0  0
    7.4873  -16.8619   23.9777 C   0  0  1  0  0  0  0  0  0  0  0  0
    8.0934  -16.1660   25.1507 C   0  0  0  0  0  0  0  0  0  0  0  0
    7.1713  -15.1764   25.6979 C   0  0  0  0  0  0  0  0  0  0  0  0
    6.0058  -15.4616   26.3704 C   0  0  0  0  0  0  0  0  0  0  0  0
    5.4580  -14.3049   26.7339 N   0  0  0  0  0  0  0  0  0  0  0  0
    6.2229  -13.2776   26.3229 C   0  0  0  0  0  0  0  0  0  0  0  0
    6.0698  -11.9018   26.4563 C   0  0  0  0  0  0  0  0  0  0  0  0
    7.0026  -11.0278   25.9334 C   0  0  0  0  0  0  0  0  0  0  0  0
    8.0776  -11.5737   25.2819 C   0  0  0  0  0  0  0  0  0  0  0  0
    8.2521  -12.9340   25.1366 C   0  0  0  0  0  0  0  0  0  0  0  0
    7.3095  -13.8144   25.6659 C   0  0  0  0  0  0  0  0  0  0  0  0
    8.5913  -17.4795   23.2034 C   0  0  0  0  0  0  0  0  0  0  0  0
    8.7671  -18.7019   23.2258 O   0  0  0  0  0  0  0  0  0  0  0  0
    9.4418  -16.6489   22.4372 N   0  0  0  0  0  0  0  0  0  0  0  0
   10.7309  -17.0424   21.9526 C   0  0  1  0  0  0  0  0  0  0  0  0
   11.3373  -16.1581   20.9205 C   0  0  0  0  0  0  0  0  0  0  0  0
   12.5663  -16.7505   20.3632 C   0  0  0  0  0  0  0  0  0  0  0  0
   12.6496  -17.9852   20.1835 O   0  0  0  0  0  0  0  0  0  0  0  0
   11.6521  -17.2539   23.1205 C   0  0  0  0  0  0  0  0  0  0  0  0
   12.0439  -16.2532   23.7944 O   0  0  0  0  0  0  0  0  0  0  0  0
   13.6619  -15.9717   20.0218 O   0  0  0  0  0  0  0  0  0  0  0  0
   12.1158  -18.5250   23.5186 N   0  0  0  0  0  0  0  0  0  0  0  0
   12.9591  -18.7144   24.6742 C   0  0  1  0  0  0  0  0  0  0  0  0
   12.4067  -19.7603   25.6101 C   0  0  0  0  0  0  0  0  0  0  0  0
   11.1702  -19.2990   26.3298 C   0  0  0  0  0  0  0  0  0  0  0  0
   10.5856  -20.4288   27.1185 C   0  0  0  0  0  0  0  0  0  0  0  0
    9.4450  -20.0106   28.0127 C   0  0  0  0  0  0  0  0  0  0  0  0
    8.9034  -21.1036   28.7633 N   0  0  0  0  0  0  0  0  0  0  0  0
   14.3626  -19.0108   24.2828 C   0  0  0  0  0  0  0  0  0  0  0  0
   14.7059  -19.2451   23.1146 O   0  0  0  0  0  0  0  0  0  0  0  0
   15.3488  -19.0304   25.2601 O   0  0  0  0  0  0  0  0  0  0  0  0
  2  1  1  1
  3  4  1  0
  3  2  1  0
  4  5  2  0
  5  6  1  0
  7  6  1  0
  8  7  2  0
  9  8  1  0
 10 11  1  0
 10  9  2  0
 11 12  2  0
 12  4  1  0
 12  7  1  0
 13  2  1  0
 13 14  2  0
 15 13  1  0
 16 15  1  0
 16 17  1  6
 18 19  2  0
 18 17  1  0
 20 16  1  0
 21 20  2  0
 22 18  1  0
 23 20  1  0
 24 25  1  6
 24 23  1  0
 25 26  1  0
 27 28  1  0
 27 26  1  0
 28 29  1  0
 30 32  1  0
 30 24  1  0
 31 30  2  0
M  END
$$$$
