WDK.pdb
     RDKit          3D

 32 33  0  0  1  0  0  0  0  0999 V2000
    6.5859  -17.8999   24.3718 N   0  0  0  0  0  0  0  0  0  0  0  0
    7.3640  -16.7801   23.9540 C   0  0  1  0  0  0  0  0  0  0  0  0
    8.0242  -15.9970   25.0395 C   0  0  0  0  0  0  0  0  0  0  0  0
    7.1022  -15.0172   25.6042 C   0  0  0  0  0  0  0  0  0  0  0  0
    5.9730  -15.3144   26.3313 C   0  0  0  0  0  0  0  0  0  0  0  0
    5.4131  -14.1630   26.6932 N   0  0  0  0  0  0  0  0  0  0  0  0
    6.1352  -13.1276   26.2285 C   0  0  0  0  0  0  0  0  0  0  0  0
    5.9546  -11.7531   26.3391 C   0  0  0  0  0  0  0  0  0  0  0  0
    6.8433  -10.8694   25.7589 C   0  0  0  0  0  0  0  0  0  0  0  0
    7.9030  -11.4045   25.0741 C   0  0  0  0  0  0  0  0  0  0  0  0
    8.1040  -12.7633   24.9504 C   0  0  0  0  0  0  0  0  0  0  0  0
    7.2059  -13.6534   25.5376 C   0  0  0  0  0  0  0  0  0  0  0  0
    8.4059  -17.1343   22.9596 C   0  0  0  0  0  0  0  0  0  0  0  0
    8.9941  -18.2184   23.0250 O   0  0  0  0  0  0  0  0  0  0  0  0
    8.7177  -16.2125   21.9332 N   0  0  0  0  0  0  0  0  0  0  0  0
    9.8668  -16.3096   21.0836 C   0  0  1  0  0  0  0  0  0  0  0  0
    9.7316  -15.7013   19.7321 C   0  0  0  0  0  0  0  0  0  0  0  0
    8.7248  -16.4116   18.9237 C   0  0  0  0  0  0  0  0  0  0  0  0
    8.8334  -17.6392   18.7119 O   0  0  0  0  0  0  0  0  0  0  0  0
   11.0673  -15.7829   21.8176 C   0  0  0  0  0  0  0  0  0  0  0  0
   11.0156  -14.6345   22.3537 O   0  0  0  0  0  0  0  0  0  0  0  0
    7.6339  -15.7544   18.3745 O   0  0  0  0  0  0  0  0  0  0  0  0
   12.2718  -16.5050   21.9473 N   0  0  0  0  0  0  0  0  0  0  0  0
   12.9826  -16.6064   23.1990 C   0  0  1  0  0  0  0  0  0  0  0  0
   12.1038  -17.1340   24.3055 C   0  0  0  0  0  0  0  0  0  0  0  0
   12.8595  -17.3691   25.5836 C   0  0  0  0  0  0  0  0  0  0  0  0
   11.9480  -17.9536   26.6169 C   0  0  0  0  0  0  0  0  0  0  0  0
   12.6207  -18.1922   27.9458 C   0  0  0  0  0  0  0  0  0  0  0  0
   11.7222  -18.7101   28.9337 N   0  0  0  0  0  0  0  0  0  0  0  0
   14.2284  -17.4056   23.0559 C   0  0  0  0  0  0  0  0  0  0  0  0
   14.2892  -18.4549   22.3981 O   0  0  0  0  0  0  0  0  0  0  0  0
   15.3884  -16.9702   23.6827 O   0  0  0  0  0  0  0  0  0  0  0  0
  2  1  1  1
  3  4  1  0
  3  2  1  0
  4  5  2  0
  5  6  1  0
  7  6  1  0
  8  7  2  0
  9  8  1  0
 10 11  1  0
 10  9  2  0
 11 12  2  0
 12  4  1  0
 12  7  1  0
 13  2  1  0
 13 14  2  0
 15 13  1  0
 16 15  1  0
 16 17  1  6
 18 19  2  0
 18 17  1  0
 20 16  1  0
 21 20  2  0
 22 18  1  0
 23 20  1  0
 24 25  1  1
 24 23  1  0
 25 26  1  0
 27 28  1  0
 27 26  1  0
 28 29  1  0
 30 32  1  0
 30 24  1  0
 31 30  2  0
M  END
$$$$
