WDK.pdb
     RDKit          3D

 32 33  0  0  1  0  0  0  0  0999 V2000
    6.4276  -17.6000   24.6309 N   0  0  0  0  0  0  0  0  0  0  0  0
    7.1429  -17.0825   23.5110 C   0  0  1  0  0  0  0  0  0  0  0  0
    7.1536  -15.5970   23.3673 C   0  0  0  0  0  0  0  0  0  0  0  0
    6.8413  -14.9524   24.6385 C   0  0  0  0  0  0  0  0  0  0  0  0
    6.2839  -15.5758   25.7306 C   0  0  0  0  0  0  0  0  0  0  0  0
    6.1773  -14.6704   26.6996 N   0  0  0  0  0  0  0  0  0  0  0  0
    6.6439  -13.4809   26.2790 C   0  0  0  0  0  0  0  0  0  0  0  0
    6.7367  -12.2483   26.9163 C   0  0  0  0  0  0  0  0  0  0  0  0
    7.2555  -11.1470   26.2641 C   0  0  0  0  0  0  0  0  0  0  0  0
    7.6714  -11.3227   24.9701 C   0  0  0  0  0  0  0  0  0  0  0  0
    7.5900  -12.5344   24.3164 C   0  0  0  0  0  0  0  0  0  0  0  0
    7.0665  -13.6449   24.9771 C   0  0  0  0  0  0  0  0  0  0  0  0
    8.5499  -17.5484   23.4537 C   0  0  0  0  0  0  0  0  0  0  0  0
    8.9340  -18.4769   24.1721 O   0  0  0  0  0  0  0  0  0  0  0  0
    9.4480  -16.9144   22.5638 N   0  0  0  0  0  0  0  0  0  0  0  0
   10.7969  -17.3405   22.3395 C   0  0  1  0  0  0  0  0  0  0  0  0
   11.5184  -16.6632   21.2280 C   0  0  0  0  0  0  0  0  0  0  0  0
   12.8229  -17.2987   20.9708 C   0  0  0  0  0  0  0  0  0  0  0  0
   13.8649  -16.8379   21.4863 O   0  0  0  0  0  0  0  0  0  0  0  0
   11.5590  -17.2621   23.6320 C   0  0  0  0  0  0  0  0  0  0  0  0
   11.5819  -16.1700   24.2767 O   0  0  0  0  0  0  0  0  0  0  0  0
   12.9428  -18.4163   20.1583 O   0  0  0  0  0  0  0  0  0  0  0  0
   12.2642  -18.3534   24.1806 N   0  0  0  0  0  0  0  0  0  0  0  0
   12.6711  -18.3952   25.5644 C   0  0  1  0  0  0  0  0  0  0  0  0
   11.5941  -18.9672   26.4520 C   0  0  0  0  0  0  0  0  0  0  0  0
   12.0215  -19.0693   27.8896 C   0  0  0  0  0  0  0  0  0  0  0  0
   10.8850  -19.5663   28.7273 C   0  0  0  0  0  0  0  0  0  0  0  0
   11.2477  -19.7594   30.1787 C   0  0  0  0  0  0  0  0  0  0  0  0
   11.4135  -21.1388   30.5268 N   0  0  0  0  0  0  0  0  0  0  0  0
   13.9624  -19.1131   25.7320 C   0  0  0  0  0  0  0  0  0  0  0  0
   14.3625  -19.9824   24.9434 O   0  0  0  0  0  0  0  0  0  0  0  0
   14.7714  -18.8078   26.8185 O   0  0  0  0  0  0  0  0  0  0  0  0
  2  1  1  1
  3  4  1  0
  3  2  1  0
  4  5  2  0
  5  6  1  0
  7  6  1  0
  8  7  2  0
  9  8  1  0
 10 11  1  0
 10  9  2  0
 11 12  2  0
 12  4  1  0
 12  7  1  0
 13  2  1  0
 13 14  2  0
 15 13  1  0
 16 15  1  0
 16 17  1  6
 18 19  2  0
 18 17  1  0
 20 16  1  0
 21 20  2  0
 22 18  1  0
 23 20  1  0
 24 25  1  1
 24 23  1  0
 25 26  1  0
 27 28  1  0
 27 26  1  0
 28 29  1  0
 30 32  1  0
 30 24  1  0
 31 30  2  0
M  END
$$$$
