WDK.pdb
     RDKit          3D

 32 33  0  0  1  0  0  0  0  0999 V2000
    7.3079  -17.0750   22.9975 N   0  0  0  0  0  0  0  0  0  0  0  0
    8.4549  -16.2445   22.8289 C   0  0  1  0  0  0  0  0  0  0  0  0
    8.2471  -14.7835   23.0523 C   0  0  0  0  0  0  0  0  0  0  0  0
    7.4886  -14.5506   24.2768 C   0  0  0  0  0  0  0  0  0  0  0  0
    6.6871  -15.4759   24.9041 C   0  0  0  0  0  0  0  0  0  0  0  0
    6.1897  -14.9022   25.9966 N   0  0  0  0  0  0  0  0  0  0  0  0
    6.6369  -13.6381   26.1037 C   0  0  0  0  0  0  0  0  0  0  0  0
    6.3970  -12.6517   27.0542 C   0  0  0  0  0  0  0  0  0  0  0  0
    6.9749  -11.4021   26.9448 C   0  0  0  0  0  0  0  0  0  0  0  0
    7.7893  -11.1800   25.8651 C   0  0  0  0  0  0  0  0  0  0  0  0
    8.0430  -12.1415   24.9095 C   0  0  0  0  0  0  0  0  0  0  0  0
    7.4589  -13.4025   25.0224 C   0  0  0  0  0  0  0  0  0  0  0  0
    9.6062  -16.6662   23.6635 C   0  0  0  0  0  0  0  0  0  0  0  0
    9.8269  -16.1221   24.7503 O   0  0  0  0  0  0  0  0  0  0  0  0
   10.4497  -17.7016   23.1980 N   0  0  0  0  0  0  0  0  0  0  0  0
   11.8692  -17.7320   23.3870 C   0  0  1  0  0  0  0  0  0  0  0  0
   12.6036  -16.4930   23.0123 C   0  0  0  0  0  0  0  0  0  0  0  0
   13.3336  -16.6663   21.7439 C   0  0  0  0  0  0  0  0  0  0  0  0
   14.0870  -15.7637   21.3180 O   0  0  0  0  0  0  0  0  0  0  0  0
   12.1689  -18.1564   24.7968 C   0  0  0  0  0  0  0  0  0  0  0  0
   13.3707  -18.3724   25.1403 O   0  0  0  0  0  0  0  0  0  0  0  0
   13.2141  -17.8209   20.9850 O   0  0  0  0  0  0  0  0  0  0  0  0
   11.1724  -18.3322   25.7792 N   0  0  0  0  0  0  0  0  0  0  0  0
   11.4669  -18.8359   27.0990 C   0  0  1  0  0  0  0  0  0  0  0  0
   11.0520  -20.2773   27.2582 C   0  0  0  0  0  0  0  0  0  0  0  0
   11.4664  -20.8568   28.5819 C   0  0  0  0  0  0  0  0  0  0  0  0
   10.2566  -21.2619   29.3644 C   0  0  0  0  0  0  0  0  0  0  0  0
   10.5841  -21.8705   30.7053 C   0  0  0  0  0  0  0  0  0  0  0  0
    9.4193  -22.0968   31.5075 N   0  0  0  0  0  0  0  0  0  0  0  0
   12.8960  -18.6310   27.4548 C   0  0  0  0  0  0  0  0  0  0  0  0
   13.2648  -18.1886   28.5529 O   0  0  0  0  0  0  0  0  0  0  0  0
   13.8777  -18.9450   26.5244 O   0  0  0  0  0  0  0  0  0  0  0  0
  2  1  1  1
  3  4  1  0
  3  2  1  0
  4  5  2  0
  5  6  1  0
  7  6  1  0
  8  7  2  0
  9  8  1  0
 10 11  1  0
 10  9  2  0
 11 12  2  0
 12  4  1  0
 12  7  1  0
 13  2  1  0
 13 14  2  0
 15 13  1  0
 16 15  1  0
 16 17  1  1
 18 19  2  0
 18 17  1  0
 20 16  1  0
 21 20  2  0
 22 18  1  0
 23 20  1  0
 24 25  1  6
 24 23  1  0
 25 26  1  0
 27 28  1  0
 27 26  1  0
 28 29  1  0
 30 32  1  0
 30 24  1  0
 31 30  2  0
M  END
$$$$
