WDK.pdb
     RDKit          3D

 32 33  0  0  1  0  0  0  0  0999 V2000
    6.5200  -17.6257   24.1600 N   0  0  0  0  0  0  0  0  0  0  0  0
    7.6311  -16.8025   23.8116 C   0  0  1  0  0  0  0  0  0  0  0  0
    8.3184  -16.1127   24.9427 C   0  0  0  0  0  0  0  0  0  0  0  0
    7.4365  -15.1276   25.5599 C   0  0  0  0  0  0  0  0  0  0  0  0
    6.3113  -15.4179   26.2959 C   0  0  0  0  0  0  0  0  0  0  0  0
    5.7931  -14.2646   26.7102 N   0  0  0  0  0  0  0  0  0  0  0  0
    6.5385  -13.2346   26.2709 C   0  0  0  0  0  0  0  0  0  0  0  0
    6.4019  -11.8605   26.4354 C   0  0  0  0  0  0  0  0  0  0  0  0
    7.3072  -10.9826   25.8720 C   0  0  0  0  0  0  0  0  0  0  0  0
    8.3382  -11.5232   25.1489 C   0  0  0  0  0  0  0  0  0  0  0  0
    8.4954  -12.8818   24.9714 C   0  0  0  0  0  0  0  0  0  0  0  0
    7.5807  -13.7660   25.5417 C   0  0  0  0  0  0  0  0  0  0  0  0
    8.6662  -17.5226   23.0305 C   0  0  0  0  0  0  0  0  0  0  0  0
    8.9509  -18.6949   23.2956 O   0  0  0  0  0  0  0  0  0  0  0  0
    9.3244  -16.8480   21.9760 N   0  0  0  0  0  0  0  0  0  0  0  0
   10.6309  -17.1840   21.4946 C   0  0  1  0  0  0  0  0  0  0  0  0
   11.0429  -16.5355   20.2200 C   0  0  0  0  0  0  0  0  0  0  0  0
   10.1243  -16.8829   19.1213 C   0  0  0  0  0  0  0  0  0  0  0  0
    9.7293  -18.0602   18.9739 O   0  0  0  0  0  0  0  0  0  0  0  0
   11.6332  -16.9537   22.5900 C   0  0  0  0  0  0  0  0  0  0  0  0
   12.5282  -16.0676   22.4395 O   0  0  0  0  0  0  0  0  0  0  0  0
    9.6696  -15.9305   18.2214 O   0  0  0  0  0  0  0  0  0  0  0  0
   11.6369  -17.6798   23.7991 N   0  0  0  0  0  0  0  0  0  0  0  0
   12.6077  -17.4444   24.8404 C   0  0  1  0  0  0  0  0  0  0  0  0
   11.9993  -17.5609   26.2156 C   0  0  0  0  0  0  0  0  0  0  0  0
   11.0157  -18.6928   26.3202 C   0  0  0  0  0  0  0  0  0  0  0  0
   11.1572  -19.3728   27.6460 C   0  0  0  0  0  0  0  0  0  0  0  0
   10.1767  -20.5008   27.8505 C   0  0  0  0  0  0  0  0  0  0  0  0
   10.3686  -21.1791   29.0973 N   0  0  0  0  0  0  0  0  0  0  0  0
   13.7965  -18.3245   24.6871 C   0  0  0  0  0  0  0  0  0  0  0  0
   14.8382  -18.1777   25.3435 O   0  0  0  0  0  0  0  0  0  0  0  0
   13.7550  -19.3655   23.7691 O   0  0  0  0  0  0  0  0  0  0  0  0
  2  1  1  1
  3  4  1  0
  3  2  1  0
  4  5  2  0
  5  6  1  0
  7  6  1  0
  8  7  2  0
  9  8  1  0
 10 11  1  0
 10  9  2  0
 11 12  2  0
 12  4  1  0
 12  7  1  0
 13  2  1  0
 13 14  2  0
 15 13  1  0
 16 15  1  0
 16 17  1  6
 18 19  2  0
 18 17  1  0
 20 16  1  0
 21 20  2  0
 22 18  1  0
 23 20  1  0
 24 25  1  1
 24 23  1  0
 25 26  1  0
 27 28  1  0
 27 26  1  0
 28 29  1  0
 30 32  1  0
 30 24  1  0
 31 30  2  0
M  END
$$$$
