WDK.pdb
     RDKit          3D

 32 33  0  0  1  0  0  0  0  0999 V2000
    6.9614  -17.2572   23.2730 N   0  0  0  0  0  0  0  0  0  0  0  0
    8.0629  -16.3534   23.2134 C   0  0  1  0  0  0  0  0  0  0  0  0
    8.4505  -15.7038   24.5000 C   0  0  0  0  0  0  0  0  0  0  0  0
    7.3319  -14.9497   25.0559 C   0  0  0  0  0  0  0  0  0  0  0  0
    6.1588  -15.4952   25.5231 C   0  0  0  0  0  0  0  0  0  0  0  0
    5.4016  -14.4972   25.9713 N   0  0  0  0  0  0  0  0  0  0  0  0
    6.0377  -13.3225   25.8127 C   0  0  0  0  0  0  0  0  0  0  0  0
    5.6590  -12.0196   26.1176 C   0  0  0  0  0  0  0  0  0  0  0  0
    6.4957  -10.9540   25.8498 C   0  0  0  0  0  0  0  0  0  0  0  0
    7.7069  -11.2368   25.2741 C   0  0  0  0  0  0  0  0  0  0  0  0
    8.1054  -12.5198   24.9625 C   0  0  0  0  0  0  0  0  0  0  0  0
    7.2592  -13.5940   25.2345 C   0  0  0  0  0  0  0  0  0  0  0  0
    9.2845  -16.9625   22.6332 C   0  0  0  0  0  0  0  0  0  0  0  0
    9.5095  -18.1695   22.7681 O   0  0  0  0  0  0  0  0  0  0  0  0
   10.1903  -16.1417   21.9217 N   0  0  0  0  0  0  0  0  0  0  0  0
   11.5354  -16.5145   21.6005 C   0  0  1  0  0  0  0  0  0  0  0  0
   12.2578  -15.6085   20.6666 C   0  0  0  0  0  0  0  0  0  0  0  0
   13.5825  -16.1491   20.3138 C   0  0  0  0  0  0  0  0  0  0  0  0
   13.6930  -17.3082   19.8576 O   0  0  0  0  0  0  0  0  0  0  0  0
   12.3024  -16.7341   22.8736 C   0  0  0  0  0  0  0  0  0  0  0  0
   13.4995  -17.1495   22.8161 O   0  0  0  0  0  0  0  0  0  0  0  0
   14.7410  -15.4032   20.4726 O   0  0  0  0  0  0  0  0  0  0  0  0
   11.7581  -16.5010   24.1537 N   0  0  0  0  0  0  0  0  0  0  0  0
   12.5240  -16.6760   25.3641 C   0  0  1  0  0  0  0  0  0  0  0  0
   11.7385  -16.2835   26.5904 C   0  0  0  0  0  0  0  0  0  0  0  0
   11.5369  -17.4304   27.5411 C   0  0  0  0  0  0  0  0  0  0  0  0
   10.8081  -16.9615   28.7613 C   0  0  0  0  0  0  0  0  0  0  0  0
   10.5756  -18.0511   29.7783 C   0  0  0  0  0  0  0  0  0  0  0  0
   11.7950  -18.5533   30.3371 N   0  0  0  0  0  0  0  0  0  0  0  0
   13.0634  -18.0573   25.4736 C   0  0  0  0  0  0  0  0  0  0  0  0
   14.2086  -18.3083   25.8774 O   0  0  0  0  0  0  0  0  0  0  0  0
   12.2593  -19.1295   25.1101 O   0  0  0  0  0  0  0  0  0  0  0  0
  2  1  1  1
  3  4  1  0
  3  2  1  0
  4  5  2  0
  5  6  1  0
  7  6  1  0
  8  7  2  0
  9  8  1  0
 10 11  1  0
 10  9  2  0
 11 12  2  0
 12  4  1  0
 12  7  1  0
 13  2  1  0
 13 14  2  0
 15 13  1  0
 16 15  1  0
 16 17  1  1
 18 19  2  0
 18 17  1  0
 20 16  1  0
 21 20  2  0
 22 18  1  0
 23 20  1  0
 24 25  1  1
 24 23  1  0
 25 26  1  0
 27 28  1  0
 27 26  1  0
 28 29  1  0
 30 32  1  0
 30 24  1  0
 31 30  2  0
M  END
$$$$
