WDK.pdb
     RDKit          3D

 32 33  0  0  1  0  0  0  0  0999 V2000
    6.5878  -17.6609   24.0108 N   0  0  0  0  0  0  0  0  0  0  0  0
    7.6342  -16.7378   23.7164 C   0  0  1  0  0  0  0  0  0  0  0  0
    8.1711  -15.9621   24.8729 C   0  0  0  0  0  0  0  0  0  0  0  0
    7.1654  -15.0387   25.3875 C   0  0  0  0  0  0  0  0  0  0  0  0
    6.0581  -15.3966   26.1209 C   0  0  0  0  0  0  0  0  0  0  0  0
    5.4008  -14.2811   26.4273 N   0  0  0  0  0  0  0  0  0  0  0  0
    6.0385  -13.2107   25.9203 C   0  0  0  0  0  0  0  0  0  0  0  0
    5.7430  -11.8525   25.9678 C   0  0  0  0  0  0  0  0  0  0  0  0
    6.5605  -10.9243   25.3533 C   0  0  0  0  0  0  0  0  0  0  0  0
    7.6675  -11.3989   24.6994 C   0  0  0  0  0  0  0  0  0  0  0  0
    7.9821  -12.7403   24.6383 C   0  0  0  0  0  0  0  0  0  0  0  0
    7.1558  -13.6754   25.2600 C   0  0  0  0  0  0  0  0  0  0  0  0
    8.7861  -17.3657   23.0245 C   0  0  0  0  0  0  0  0  0  0  0  0
    9.2390  -18.4471   23.4131 O   0  0  0  0  0  0  0  0  0  0  0  0
    9.3605  -16.7087   21.9114 N   0  0  0  0  0  0  0  0  0  0  0  0
   10.6862  -16.9521   21.4268 C   0  0  1  0  0  0  0  0  0  0  0  0
   11.0828  -16.1988   20.2061 C   0  0  0  0  0  0  0  0  0  0  0  0
   10.7171  -16.9329   18.9817 C   0  0  0  0  0  0  0  0  0  0  0  0
   10.3668  -18.1318   19.0424 O   0  0  0  0  0  0  0  0  0  0  0  0
   11.6646  -16.7545   22.5498 C   0  0  0  0  0  0  0  0  0  0  0  0
   11.5253  -15.7647   23.3306 O   0  0  0  0  0  0  0  0  0  0  0  0
   10.7475  -16.3302   17.7330 O   0  0  0  0  0  0  0  0  0  0  0  0
   12.7501  -17.6222   22.7906 N   0  0  0  0  0  0  0  0  0  0  0  0
   13.2977  -17.8293   24.1095 C   0  0  1  0  0  0  0  0  0  0  0  0
   12.2733  -18.3902   25.0639 C   0  0  0  0  0  0  0  0  0  0  0  0
   12.8166  -18.5768   26.4531 C   0  0  0  0  0  0  0  0  0  0  0  0
   11.7414  -19.0919   27.3580 C   0  0  0  0  0  0  0  0  0  0  0  0
   12.1921  -19.2688   28.7868 C   0  0  0  0  0  0  0  0  0  0  0  0
   11.1566  -19.7837   29.6318 N   0  0  0  0  0  0  0  0  0  0  0  0
   14.5261  -18.6660   24.0650 C   0  0  0  0  0  0  0  0  0  0  0  0
   15.4670  -18.5323   24.8615 O   0  0  0  0  0  0  0  0  0  0  0  0
   14.6416  -19.6488   23.0909 O   0  0  0  0  0  0  0  0  0  0  0  0
  2  1  1  1
  3  4  1  0
  3  2  1  0
  4  5  2  0
  5  6  1  0
  7  6  1  0
  8  7  2  0
  9  8  1  0
 10 11  1  0
 10  9  2  0
 11 12  2  0
 12  4  1  0
 12  7  1  0
 13  2  1  0
 13 14  2  0
 15 13  1  0
 16 15  1  0
 16 17  1  6
 18 19  2  0
 18 17  1  0
 20 16  1  0
 21 20  2  0
 22 18  1  0
 23 20  1  0
 24 25  1  1
 24 23  1  0
 25 26  1  0
 27 28  1  0
 27 26  1  0
 28 29  1  0
 30 32  1  0
 30 24  1  0
 31 30  2  0
M  END
$$$$
