IIH.pdb
     RDKit          3D

 27 27  0  0  1  0  0  0  0  0999 V2000
    7.1634  -11.8955   19.8548 C   0  0  0  0  0  0  0  0  0  0  0  0
    7.1988  -13.1065   20.7601 C   0  0  0  0  0  0  0  0  0  0  0  0
    8.1306  -14.1803   20.2990 C   0  0  2  0  0  0  0  0  0  0  0  0
    7.6664  -14.6446   18.9320 C   0  0  0  0  0  0  0  0  0  0  0  0
    8.1529  -15.3315   21.2848 C   0  0  2  0  0  0  0  0  0  0  0  0
    6.7216  -15.7274   21.3859 N   0  0  0  0  0  0  0  0  0  0  0  0
    8.5394  -14.9256   22.6508 C   0  0  0  0  0  0  0  0  0  0  0  0
    9.7186  -14.5514   22.8634 O   0  0  0  0  0  0  0  0  0  0  0  0
    5.6927  -11.9326   26.3287 C   0  0  0  0  0  0  0  0  0  0  0  0
    6.7856  -12.5621   25.5061 C   0  0  0  0  0  0  0  0  0  0  0  0
    7.2786  -13.8615   25.9952 C   0  0  2  0  0  0  0  0  0  0  0  0
    8.0322  -13.7158   27.3306 C   0  0  0  0  0  0  0  0  0  0  0  0
    8.1465  -14.6842   25.1271 C   0  0  2  0  0  0  0  0  0  0  0  0
    7.6760  -14.9155   23.7834 N   0  0  0  0  0  0  0  0  0  0  0  0
    8.5982  -15.9576   25.7718 C   0  0  0  0  0  0  0  0  0  0  0  0
    7.8151  -16.8854   26.0986 O   0  0  0  0  0  0  0  0  0  0  0  0
    9.9739  -16.1734   26.0481 N   0  0  0  0  0  0  0  0  0  0  0  0
   10.4692  -17.4661   26.4870 C   0  0  1  0  0  0  0  0  0  0  0  0
   11.7896  -17.7031   25.7900 C   0  0  0  0  0  0  0  0  0  0  0  0
   12.3918  -18.9560   26.2774 C   0  0  0  0  0  0  0  0  0  0  0  0
   12.2778  -19.5348   27.5214 C   0  0  0  0  0  0  0  0  0  0  0  0
   12.9780  -20.6760   27.5716 N   0  0  0  0  0  0  0  0  0  0  0  0
   13.5417  -20.8327   26.3643 C   0  0  0  0  0  0  0  0  0  0  0  0
   13.1820  -19.7783   25.5720 N   0  0  0  0  0  0  0  0  0  0  0  0
   10.5932  -17.5499   27.9455 C   0  0  0  0  0  0  0  0  0  0  0  0
   10.6654  -16.5556   28.6857 O   0  0  0  0  0  0  0  0  0  0  0  0
   10.6294  -18.8380   28.5045 O   0  0  0  0  0  0  0  0  0  0  0  0
  1  2  1  0
  2  3  1  0
  3  4  1  6
  5  3  1  0
  5  6  1  1
  7  8  2  0
  7  5  1  0
  9 10  1  0
 10 11  1  0
 11 13  1  0
 11 12  1  1
 13 14  1  6
 14  7  1  0
 15 13  1  0
 16 15  2  0
 17 15  1  0
 18 25  1  0
 18 17  1  0
 18 19  1  6
 20 19  1  0
 21 20  2  0
 22 21  1  0
 23 22  1  0
 23 24  2  0
 24 20  1  0
 25 27  1  0
 26 25  2  0
M  END
$$$$
