IIH.pdb
     RDKit          3D

 27 27  0  0  1  0  0  0  0  0999 V2000
    7.1143  -18.2583   19.0340 C   0  0  0  0  0  0  0  0  0  0  0  0
    6.9032  -16.8414   19.5190 C   0  0  0  0  0  0  0  0  0  0  0  0
    7.5602  -16.5452   20.8283 C   0  0  2  0  0  0  0  0  0  0  0  0
    7.1010  -17.5898   21.8271 C   0  0  0  0  0  0  0  0  0  0  0  0
    7.2079  -15.1492   21.3021 C   0  0  2  0  0  0  0  0  0  0  0  0
    7.8314  -14.2686   20.2767 N   0  0  0  0  0  0  0  0  0  0  0  0
    7.8586  -14.7810   22.5754 C   0  0  0  0  0  0  0  0  0  0  0  0
    9.0875  -14.5246   22.5786 O   0  0  0  0  0  0  0  0  0  0  0  0
    5.8979  -11.4768   26.5144 C   0  0  0  0  0  0  0  0  0  0  0  0
    6.8088  -12.2113   25.5666 C   0  0  0  0  0  0  0  0  0  0  0  0
    7.2799  -13.5274   26.0323 C   0  0  2  0  0  0  0  0  0  0  0  0
    8.2674  -13.3932   27.2067 C   0  0  0  0  0  0  0  0  0  0  0  0
    7.9144  -14.4547   25.0724 C   0  0  2  0  0  0  0  0  0  0  0  0
    7.2055  -14.6840   23.8374 N   0  0  0  0  0  0  0  0  0  0  0  0
    8.3565  -15.7434   25.6929 C   0  0  0  0  0  0  0  0  0  0  0  0
    7.5646  -16.5725   26.2089 O   0  0  0  0  0  0  0  0  0  0  0  0
    9.7329  -16.0900   25.7234 N   0  0  0  0  0  0  0  0  0  0  0  0
   10.1962  -17.3157   26.3496 C   0  0  1  0  0  0  0  0  0  0  0  0
   11.4761  -17.7209   25.6548 C   0  0  0  0  0  0  0  0  0  0  0  0
   11.1924  -18.0682   24.2517 C   0  0  0  0  0  0  0  0  0  0  0  0
   10.1959  -18.8771   23.7535 C   0  0  0  0  0  0  0  0  0  0  0  0
   10.2720  -18.9429   22.4174 N   0  0  0  0  0  0  0  0  0  0  0  0
   11.3138  -18.1793   22.0551 C   0  0  0  0  0  0  0  0  0  0  0  0
   11.8772  -17.6437   23.1798 N   0  0  0  0  0  0  0  0  0  0  0  0
   10.3777  -17.1683   27.7971 C   0  0  0  0  0  0  0  0  0  0  0  0
   10.3972  -16.0707   28.3773 O   0  0  0  0  0  0  0  0  0  0  0  0
   10.5354  -18.3507   28.5387 O   0  0  0  0  0  0  0  0  0  0  0  0
  1  2  1  0
  2  3  1  0
  3  4  1  1
  5  3  1  0
  5  6  1  6
  7  8  2  0
  7  5  1  0
  9 10  1  0
 10 11  1  0
 11 13  1  0
 11 12  1  1
 13 14  1  6
 14  7  1  0
 15 13  1  0
 16 15  2  0
 17 15  1  0
 18 25  1  0
 18 17  1  0
 18 19  1  6
 20 19  1  0
 21 20  2  0
 22 21  1  0
 23 22  1  0
 23 24  2  0
 24 20  1  0
 25 27  1  0
 26 25  2  0
M  END
$$$$
