IIH.pdb
     RDKit          3D

 27 27  0  0  1  0  0  0  0  0999 V2000
    5.9121  -18.4240   19.5359 C   0  0  0  0  0  0  0  0  0  0  0  0
    6.0786  -16.9456   19.8077 C   0  0  0  0  0  0  0  0  0  0  0  0
    6.8263  -16.6414   21.0655 C   0  0  2  0  0  0  0  0  0  0  0  0
    6.2067  -17.4560   22.1846 C   0  0  0  0  0  0  0  0  0  0  0  0
    6.7709  -15.1593   21.3780 C   0  0  2  0  0  0  0  0  0  0  0  0
    7.4572  -14.5349   20.2141 N   0  0  0  0  0  0  0  0  0  0  0  0
    7.5787  -14.7779   22.5536 C   0  0  0  0  0  0  0  0  0  0  0  0
    8.8207  -14.6503   22.4227 O   0  0  0  0  0  0  0  0  0  0  0  0
    5.7069  -11.2180   26.3943 C   0  0  0  0  0  0  0  0  0  0  0  0
    6.7176  -11.8591   25.4806 C   0  0  0  0  0  0  0  0  0  0  0  0
    7.2359  -13.1646   25.9253 C   0  0  2  0  0  0  0  0  0  0  0  0
    8.2310  -13.0124   27.0911 C   0  0  0  0  0  0  0  0  0  0  0  0
    7.8897  -14.0594   24.9478 C   0  0  2  0  0  0  0  0  0  0  0  0
    7.0682  -14.5314   23.8602 N   0  0  0  0  0  0  0  0  0  0  0  0
    8.6483  -15.1828   25.5833 C   0  0  0  0  0  0  0  0  0  0  0  0
    9.6002  -15.0102   26.3863 O   0  0  0  0  0  0  0  0  0  0  0  0
    8.3105  -16.5310   25.2937 N   0  0  0  0  0  0  0  0  0  0  0  0
    9.1448  -17.6362   25.7311 C   0  0  1  0  0  0  0  0  0  0  0  0
   10.1865  -17.8659   24.6600 C   0  0  0  0  0  0  0  0  0  0  0  0
   11.0545  -18.9927   25.0432 C   0  0  0  0  0  0  0  0  0  0  0  0
   11.0078  -19.7612   26.1846 C   0  0  0  0  0  0  0  0  0  0  0  0
   11.9714  -20.6918   26.1609 N   0  0  0  0  0  0  0  0  0  0  0  0
   12.6373  -20.5242   25.0083 C   0  0  0  0  0  0  0  0  0  0  0  0
   12.0747  -19.4829   24.3241 N   0  0  0  0  0  0  0  0  0  0  0  0
    9.7492  -17.3929   27.0445 C   0  0  0  0  0  0  0  0  0  0  0  0
    9.5900  -18.1420   28.0219 O   0  0  0  0  0  0  0  0  0  0  0  0
   10.5453  -16.2427   27.1715 O   0  0  0  0  0  0  0  0  0  0  0  0
  1  2  1  0
  2  3  1  0
  3  4  1  1
  5  3  1  0
  5  6  1  6
  7  8  2  0
  7  5  1  0
  9 10  1  0
 10 11  1  0
 11 13  1  0
 11 12  1  1
 13 14  1  6
 14  7  1  0
 15 13  1  0
 16 15  2  0
 17 15  1  0
 18 25  1  0
 18 17  1  0
 18 19  1  6
 20 19  1  0
 21 20  2  0
 22 21  1  0
 23 22  1  0
 23 24  2  0
 24 20  1  0
 25 27  1  0
 26 25  2  0
M  END
$$$$
