IIH.pdb
     RDKit          3D

 27 27  0  0  1  0  0  0  0  0999 V2000
    6.8546  -18.0270   18.8685 C   0  0  0  0  0  0  0  0  0  0  0  0
    6.9872  -16.6098   19.3798 C   0  0  0  0  0  0  0  0  0  0  0  0
    7.4216  -16.5190   20.8069 C   0  0  2  0  0  0  0  0  0  0  0  0
    6.4059  -17.2638   21.6515 C   0  0  0  0  0  0  0  0  0  0  0  0
    7.5334  -15.0716   21.2430 C   0  0  2  0  0  0  0  0  0  0  0  0
    8.5932  -14.5236   20.3531 N   0  0  0  0  0  0  0  0  0  0  0  0
    8.0583  -14.9116   22.6137 C   0  0  0  0  0  0  0  0  0  0  0  0
    9.2714  -15.1497   22.8321 O   0  0  0  0  0  0  0  0  0  0  0  0
    5.8268  -11.4408   26.4960 C   0  0  0  0  0  0  0  0  0  0  0  0
    6.8756  -12.1360   25.6688 C   0  0  0  0  0  0  0  0  0  0  0  0
    7.1391  -13.5401   26.0291 C   0  0  2  0  0  0  0  0  0  0  0  0
    7.9091  -13.6495   27.3585 C   0  0  0  0  0  0  0  0  0  0  0  0
    7.8510  -14.4151   25.0745 C   0  0  2  0  0  0  0  0  0  0  0  0
    7.2979  -14.4987   23.7450 N   0  0  0  0  0  0  0  0  0  0  0  0
    8.1531  -15.7746   25.6241 C   0  0  0  0  0  0  0  0  0  0  0  0
    7.2705  -16.6361   25.8677 O   0  0  0  0  0  0  0  0  0  0  0  0
    9.4926  -16.1554   25.9003 N   0  0  0  0  0  0  0  0  0  0  0  0
    9.8224  -17.4844   26.3840 C   0  0  1  0  0  0  0  0  0  0  0  0
   10.8237  -18.0791   25.4200 C   0  0  0  0  0  0  0  0  0  0  0  0
   11.2477  -19.4062   25.8985 C   0  0  0  0  0  0  0  0  0  0  0  0
   10.8495  -20.0756   27.0339 C   0  0  0  0  0  0  0  0  0  0  0  0
   11.4653  -21.2627   27.1164 N   0  0  0  0  0  0  0  0  0  0  0  0
   12.2578  -21.3587   26.0382 C   0  0  0  0  0  0  0  0  0  0  0  0
   12.1238  -20.2206   25.2925 N   0  0  0  0  0  0  0  0  0  0  0  0
   10.3259  -17.4678   27.7609 C   0  0  0  0  0  0  0  0  0  0  0  0
   10.3619  -18.4723   28.4899 O   0  0  0  0  0  0  0  0  0  0  0  0
   10.7849  -16.2345   28.2520 O   0  0  0  0  0  0  0  0  0  0  0  0
  1  2  1  0
  2  3  1  0
  3  4  1  1
  5  3  1  0
  5  6  1  6
  7  8  2  0
  7  5  1  0
  9 10  1  0
 10 11  1  0
 11 13  1  0
 11 12  1  1
 13 14  1  6
 14  7  1  0
 15 13  1  0
 16 15  2  0
 17 15  1  0
 18 25  1  0
 18 17  1  0
 18 19  1  6
 20 19  1  0
 21 20  2  0
 22 21  1  0
 23 22  1  0
 23 24  2  0
 24 20  1  0
 25 27  1  0
 26 25  2  0
M  END
$$$$
