IIH.pdb
     RDKit          3D

 27 27  0  0  1  0  0  0  0  0999 V2000
    7.3741  -18.5904   19.1038 C   0  0  0  0  0  0  0  0  0  0  0  0
    7.0139  -17.1590   19.4333 C   0  0  0  0  0  0  0  0  0  0  0  0
    7.7120  -16.6212   20.6405 C   0  0  2  0  0  0  0  0  0  0  0  0
    7.5617  -17.6368   21.7567 C   0  0  0  0  0  0  0  0  0  0  0  0
    7.1308  -15.2808   21.0442 C   0  0  2  0  0  0  0  0  0  0  0  0
    7.5003  -14.3888   19.9114 N   0  0  0  0  0  0  0  0  0  0  0  0
    7.7849  -14.6918   22.2297 C   0  0  0  0  0  0  0  0  0  0  0  0
    8.9298  -14.1918   22.1071 O   0  0  0  0  0  0  0  0  0  0  0  0
    5.5422  -11.6419   26.2792 C   0  0  0  0  0  0  0  0  0  0  0  0
    6.5256  -12.1937   25.2813 C   0  0  0  0  0  0  0  0  0  0  0  0
    7.2358  -13.4148   25.6999 C   0  0  2  0  0  0  0  0  0  0  0  0
    8.2411  -13.1266   26.8307 C   0  0  0  0  0  0  0  0  0  0  0  0
    7.9724  -14.2091   24.6948 C   0  0  2  0  0  0  0  0  0  0  0  0
    7.2234  -14.6330   23.5373 N   0  0  0  0  0  0  0  0  0  0  0  0
    8.7489  -15.3446   25.2856 C   0  0  0  0  0  0  0  0  0  0  0  0
    8.2140  -16.3837   25.7491 O   0  0  0  0  0  0  0  0  0  0  0  0
   10.1662  -15.2894   25.3472 N   0  0  0  0  0  0  0  0  0  0  0  0
   10.9538  -16.4223   25.8001 C   0  0  1  0  0  0  0  0  0  0  0  0
   10.2873  -16.9663   27.0432 C   0  0  0  0  0  0  0  0  0  0  0  0
   10.5386  -16.0624   28.1788 C   0  0  0  0  0  0  0  0  0  0  0  0
   11.1008  -14.8056   28.1661 C   0  0  0  0  0  0  0  0  0  0  0  0
   11.1573  -14.3065   29.4082 N   0  0  0  0  0  0  0  0  0  0  0  0
   10.6333  -15.2380   30.2192 C   0  0  0  0  0  0  0  0  0  0  0  0
   10.2545  -16.3135   29.4650 N   0  0  0  0  0  0  0  0  0  0  0  0
   11.1047  -17.4471   24.7624 C   0  0  0  0  0  0  0  0  0  0  0  0
   10.5177  -17.4073   23.6691 O   0  0  0  0  0  0  0  0  0  0  0  0
   11.9664  -18.5181   25.0514 O   0  0  0  0  0  0  0  0  0  0  0  0
  1  2  1  0
  2  3  1  0
  3  4  1  1
  5  3  1  0
  5  6  1  6
  7  8  2  0
  7  5  1  0
  9 10  1  0
 10 11  1  0
 11 13  1  0
 11 12  1  1
 13 14  1  6
 14  7  1  0
 15 13  1  0
 16 15  2  0
 17 15  1  0
 18 25  1  0
 18 17  1  0
 18 19  1  1
 20 19  1  0
 21 20  2  0
 22 21  1  0
 23 22  1  0
 23 24  2  0
 24 20  1  0
 25 27  1  0
 26 25  2  0
M  END
$$$$
