IIH.pdb
     RDKit          3D

 27 27  0  0  1  0  0  0  0  0999 V2000
    6.9889  -13.0990   18.7699 C   0  0  0  0  0  0  0  0  0  0  0  0
    7.2990  -14.2674   19.6788 C   0  0  0  0  0  0  0  0  0  0  0  0
    7.7568  -13.8677   21.0443 C   0  0  2  0  0  0  0  0  0  0  0  0
    8.9984  -13.0112   20.8873 C   0  0  0  0  0  0  0  0  0  0  0  0
    8.0441  -15.0899   21.8934 C   0  0  2  0  0  0  0  0  0  0  0  0
    6.6917  -15.6532   22.1568 N   0  0  0  0  0  0  0  0  0  0  0  0
    8.5928  -14.7627   23.2245 C   0  0  0  0  0  0  0  0  0  0  0  0
    9.7990  -14.4280   23.3197 O   0  0  0  0  0  0  0  0  0  0  0  0
    5.7078  -11.8093   26.6996 C   0  0  0  0  0  0  0  0  0  0  0  0
    6.8759  -12.3530   25.9202 C   0  0  0  0  0  0  0  0  0  0  0  0
    7.5795  -13.4884   26.5420 C   0  0  2  0  0  0  0  0  0  0  0  0
    8.4717  -13.0310   27.7113 C   0  0  0  0  0  0  0  0  0  0  0  0
    8.4243  -14.3670   25.7064 C   0  0  2  0  0  0  0  0  0  0  0  0
    7.8623  -14.7889   24.4468 N   0  0  0  0  0  0  0  0  0  0  0  0
    9.0051  -15.5245   26.4575 C   0  0  0  0  0  0  0  0  0  0  0  0
    8.3124  -16.4562   26.9399 O   0  0  0  0  0  0  0  0  0  0  0  0
   10.4071  -15.6172   26.6606 N   0  0  0  0  0  0  0  0  0  0  0  0
   11.0115  -16.7821   27.2824 C   0  0  1  0  0  0  0  0  0  0  0  0
   12.4740  -16.7893   26.9000 C   0  0  0  0  0  0  0  0  0  0  0  0
   12.6057  -16.7195   25.4345 C   0  0  0  0  0  0  0  0  0  0  0  0
   12.0864  -17.5714   24.4856 C   0  0  0  0  0  0  0  0  0  0  0  0
   12.4306  -17.1661   23.2557 N   0  0  0  0  0  0  0  0  0  0  0  0
   13.1691  -16.0569   23.4108 C   0  0  0  0  0  0  0  0  0  0  0  0
   13.2758  -15.7840   24.7461 N   0  0  0  0  0  0  0  0  0  0  0  0
   10.8220  -16.7996   28.7362 C   0  0  0  0  0  0  0  0  0  0  0  0
   10.4446  -15.8140   29.3903 O   0  0  0  0  0  0  0  0  0  0  0  0
   11.0900  -18.0110   29.3947 O   0  0  0  0  0  0  0  0  0  0  0  0
  1  2  1  0
  2  3  1  0
  3  4  1  6
  5  3  1  0
  5  6  1  1
  7  8  2  0
  7  5  1  0
  9 10  1  0
 10 11  1  0
 11 13  1  0
 11 12  1  1
 13 14  1  6
 14  7  1  0
 15 13  1  0
 16 15  2  0
 17 15  1  0
 18 25  1  0
 18 17  1  0
 18 19  1  1
 20 19  1  0
 21 20  2  0
 22 21  1  0
 23 22  1  0
 23 24  2  0
 24 20  1  0
 25 27  1  0
 26 25  2  0
M  END
$$$$
