IIH.pdb
     RDKit          3D

 27 27  0  0  1  0  0  0  0  0999 V2000
    6.9448  -17.7179   18.8315 C   0  0  0  0  0  0  0  0  0  0  0  0
    6.8353  -16.2925   19.3251 C   0  0  0  0  0  0  0  0  0  0  0  0
    7.4178  -16.0758   20.6843 C   0  0  2  0  0  0  0  0  0  0  0  0
    6.8594  -17.1427   21.6061 C   0  0  0  0  0  0  0  0  0  0  0  0
    7.0854  -14.6882   21.1958 C   0  0  2  0  0  0  0  0  0  0  0  0
    7.7128  -13.7893   20.1888 N   0  0  0  0  0  0  0  0  0  0  0  0
    7.7489  -14.3604   22.4735 C   0  0  0  0  0  0  0  0  0  0  0  0
    8.9778  -14.1044   22.4726 O   0  0  0  0  0  0  0  0  0  0  0  0
    5.7683  -11.3269   26.5771 C   0  0  0  0  0  0  0  0  0  0  0  0
    6.7926  -11.9432   25.6614 C   0  0  0  0  0  0  0  0  0  0  0  0
    7.2198  -13.3081   26.0157 C   0  0  2  0  0  0  0  0  0  0  0  0
    8.2012  -13.3049   27.2028 C   0  0  0  0  0  0  0  0  0  0  0  0
    7.8339  -14.1693   24.9838 C   0  0  2  0  0  0  0  0  0  0  0  0
    7.1083  -14.3029   23.7443 N   0  0  0  0  0  0  0  0  0  0  0  0
    8.2709  -15.5033   25.5043 C   0  0  0  0  0  0  0  0  0  0  0  0
    7.4760  -16.3646   25.9594 O   0  0  0  0  0  0  0  0  0  0  0  0
    9.6455  -15.8584   25.5041 N   0  0  0  0  0  0  0  0  0  0  0  0
   10.1038  -17.1305   26.0338 C   0  0  1  0  0  0  0  0  0  0  0  0
   11.3849  -17.4835   25.3131 C   0  0  0  0  0  0  0  0  0  0  0  0
   11.0939  -17.7913   23.9023 C   0  0  0  0  0  0  0  0  0  0  0  0
    9.8809  -18.0874   23.3220 C   0  0  0  0  0  0  0  0  0  0  0  0
   10.0326  -18.3083   22.0092 N   0  0  0  0  0  0  0  0  0  0  0  0
   11.3387  -18.1553   21.7437 C   0  0  0  0  0  0  0  0  0  0  0  0
   11.9882  -17.8385   22.9043 N   0  0  0  0  0  0  0  0  0  0  0  0
   10.2811  -17.0974   27.4888 C   0  0  0  0  0  0  0  0  0  0  0  0
   10.2264  -16.0560   28.1626 O   0  0  0  0  0  0  0  0  0  0  0  0
   10.5245  -18.3260   28.1247 O   0  0  0  0  0  0  0  0  0  0  0  0
  1  2  1  0
  2  3  1  0
  3  4  1  1
  5  3  1  0
  5  6  1  6
  7  8  2  0
  7  5  1  0
  9 10  1  0
 10 11  1  0
 11 13  1  0
 11 12  1  1
 13 14  1  6
 14  7  1  0
 15 13  1  0
 16 15  2  0
 17 15  1  0
 18 25  1  0
 18 17  1  0
 18 19  1  6
 20 19  1  0
 21 20  2  0
 22 21  1  0
 23 22  1  0
 23 24  2  0
 24 20  1  0
 25 27  1  0
 26 25  2  0
M  END
$$$$
