IIH.pdb
     RDKit          3D

 27 27  0  0  1  0  0  0  0  0999 V2000
    8.0084  -12.0767   27.0306 C   0  0  0  0  0  0  0  0  0  0  0  0
    7.6093  -13.4999   26.7103 C   0  0  0  0  0  0  0  0  0  0  0  0
    6.3060  -13.6155   25.9879 C   0  0  2  0  0  0  0  0  0  0  0  0
    5.2076  -13.1717   26.9347 C   0  0  0  0  0  0  0  0  0  0  0  0
    6.0765  -15.0384   25.5189 C   0  0  2  0  0  0  0  0  0  0  0  0
    6.6905  -15.8608   26.5970 N   0  0  0  0  0  0  0  0  0  0  0  0
    6.8288  -15.3805   24.2954 C   0  0  0  0  0  0  0  0  0  0  0  0
    6.4049  -16.3047   23.5591 O   0  0  0  0  0  0  0  0  0  0  0  0
    7.6637  -12.5052   20.1749 C   0  0  0  0  0  0  0  0  0  0  0  0
    7.5326  -13.7353   21.0335 C   0  0  0  0  0  0  0  0  0  0  0  0
    8.7987  -14.2914   21.5417 C   0  0  2  0  0  0  0  0  0  0  0  0
    9.5691  -15.0453   20.4415 C   0  0  0  0  0  0  0  0  0  0  0  0
    8.7799  -15.1916   22.7135 C   0  0  2  0  0  0  0  0  0  0  0  0
    8.0236  -14.7417   23.8563 N   0  0  0  0  0  0  0  0  0  0  0  0
   10.1390  -15.6733   23.1163 C   0  0  0  0  0  0  0  0  0  0  0  0
   10.6345  -15.4787   24.2552 O   0  0  0  0  0  0  0  0  0  0  0  0
   10.9471  -16.3922   22.1967 N   0  0  0  0  0  0  0  0  0  0  0  0
   11.9393  -17.3537   22.6441 C   0  0  1  0  0  0  0  0  0  0  0  0
   11.1947  -18.5744   23.1347 C   0  0  0  0  0  0  0  0  0  0  0  0
   11.0757  -18.5286   24.6022 C   0  0  0  0  0  0  0  0  0  0  0  0
   11.4974  -17.5430   25.4661 C   0  0  0  0  0  0  0  0  0  0  0  0
   11.2047  -17.8740   26.7310 N   0  0  0  0  0  0  0  0  0  0  0  0
   10.5964  -19.0687   26.6832 C   0  0  0  0  0  0  0  0  0  0  0  0
   10.5178  -19.4690   25.3783 N   0  0  0  0  0  0  0  0  0  0  0  0
   12.9085  -17.6841   21.5949 C   0  0  0  0  0  0  0  0  0  0  0  0
   12.6246  -17.7227   20.3868 O   0  0  0  0  0  0  0  0  0  0  0  0
   14.2198  -17.9672   22.0112 O   0  0  0  0  0  0  0  0  0  0  0  0
  1  2  1  0
  2  3  1  0
  3  4  1  1
  5  3  1  0
  5  6  1  1
  7  8  2  0
  7  5  1  0
  9 10  1  0
 10 11  1  0
 11 13  1  0
 11 12  1  6
 13 14  1  1
 14  7  1  0
 15 13  1  0
 16 15  2  0
 17 15  1  0
 18 25  1  0
 18 17  1  0
 18 19  1  6
 20 19  1  0
 21 20  2  0
 22 21  1  0
 23 22  1  0
 23 24  2  0
 24 20  1  0
 25 27  1  0
 26 25  2  0
M  END
$$$$
