IIH.pdb
     RDKit          3D

 27 27  0  0  1  0  0  0  0  0999 V2000
    6.9569  -18.6641   19.4220 C   0  0  0  0  0  0  0  0  0  0  0  0
    7.0324  -17.1978   19.7846 C   0  0  0  0  0  0  0  0  0  0  0  0
    7.6357  -16.9360   21.1268 C   0  0  2  0  0  0  0  0  0  0  0  0
    7.0079  -17.8992   22.1157 C   0  0  0  0  0  0  0  0  0  0  0  0
    7.4049  -15.4984   21.5480 C   0  0  2  0  0  0  0  0  0  0  0  0
    8.1218  -14.7137   20.5059 N   0  0  0  0  0  0  0  0  0  0  0  0
    8.0668  -15.1473   22.8203 C   0  0  0  0  0  0  0  0  0  0  0  0
    9.3159  -15.0245   22.8424 O   0  0  0  0  0  0  0  0  0  0  0  0
    6.1259  -11.5397   26.5150 C   0  0  0  0  0  0  0  0  0  0  0  0
    7.0493  -12.3389   25.6342 C   0  0  0  0  0  0  0  0  0  0  0  0
    7.4813  -13.6370   26.1811 C   0  0  2  0  0  0  0  0  0  0  0  0
    8.4543  -13.4593   27.3618 C   0  0  0  0  0  0  0  0  0  0  0  0
    8.1072  -14.6320   25.2856 C   0  0  2  0  0  0  0  0  0  0  0  0
    7.4037  -14.9258   24.0612 N   0  0  0  0  0  0  0  0  0  0  0  0
    8.5232  -15.8869   25.9881 C   0  0  0  0  0  0  0  0  0  0  0  0
    7.7104  -16.6909   26.5114 O   0  0  0  0  0  0  0  0  0  0  0  0
    9.8971  -16.2284   26.0938 N   0  0  0  0  0  0  0  0  0  0  0  0
   10.3352  -17.4102   26.8152 C   0  0  1  0  0  0  0  0  0  0  0  0
   11.6325  -17.8663   26.1875 C   0  0  0  0  0  0  0  0  0  0  0  0
   11.3866  -18.3146   24.8061 C   0  0  0  0  0  0  0  0  0  0  0  0
   10.3336  -19.0569   24.3204 C   0  0  0  0  0  0  0  0  0  0  0  0
   10.4726  -19.2585   23.0031 N   0  0  0  0  0  0  0  0  0  0  0  0
   11.6110  -18.6485   22.6404 C   0  0  0  0  0  0  0  0  0  0  0  0
   12.1704  -18.0704   23.7459 N   0  0  0  0  0  0  0  0  0  0  0  0
   10.4753  -17.1652   28.2540 C   0  0  0  0  0  0  0  0  0  0  0  0
   10.4371  -16.0337   28.7637 O   0  0  0  0  0  0  0  0  0  0  0  0
   10.6615  -18.2915   29.0724 O   0  0  0  0  0  0  0  0  0  0  0  0
  1  2  1  0
  2  3  1  0
  3  4  1  1
  5  3  1  0
  5  6  1  6
  7  8  2  0
  7  5  1  0
  9 10  1  0
 10 11  1  0
 11 13  1  0
 11 12  1  1
 13 14  1  6
 14  7  1  0
 15 13  1  0
 16 15  2  0
 17 15  1  0
 18 25  1  0
 18 17  1  0
 18 19  1  6
 20 19  1  0
 21 20  2  0
 22 21  1  0
 23 22  1  0
 23 24  2  0
 24 20  1  0
 25 27  1  0
 26 25  2  0
M  END
$$$$
