IIH.pdb
     RDKit          3D

 27 27  0  0  1  0  0  0  0  0999 V2000
   11.6959  -16.8110   30.4124 C   0  0  0  0  0  0  0  0  0  0  0  0
   10.2624  -17.0332   29.9848 C   0  0  0  0  0  0  0  0  0  0  0  0
    9.9672  -16.5735   28.5936 C   0  0  2  0  0  0  0  0  0  0  0  0
   10.3574  -15.1115   28.4933 C   0  0  0  0  0  0  0  0  0  0  0  0
    8.5005  -16.7678   28.2638 C   0  0  2  0  0  0  0  0  0  0  0  0
    8.3464  -18.2480   28.2339 N   0  0  0  0  0  0  0  0  0  0  0  0
    8.1403  -16.3138   26.9058 C   0  0  0  0  0  0  0  0  0  0  0  0
    8.0306  -17.1644   25.9892 O   0  0  0  0  0  0  0  0  0  0  0  0
    6.1432  -11.3987   26.5102 C   0  0  0  0  0  0  0  0  0  0  0  0
    5.9355  -12.7643   25.9107 C   0  0  0  0  0  0  0  0  0  0  0  0
    6.9973  -13.2245   24.9990 C   0  0  2  0  0  0  0  0  0  0  0  0
    6.5550  -13.1420   23.5259 C   0  0  0  0  0  0  0  0  0  0  0  0
    7.5733  -14.5740   25.1747 C   0  0  2  0  0  0  0  0  0  0  0  0
    7.8960  -14.9631   26.5256 N   0  0  0  0  0  0  0  0  0  0  0  0
    8.7060  -14.8645   24.2400 C   0  0  0  0  0  0  0  0  0  0  0  0
    9.8468  -14.3479   24.3510 O   0  0  0  0  0  0  0  0  0  0  0  0
    8.5293  -15.7644   23.1563 N   0  0  0  0  0  0  0  0  0  0  0  0
    9.6120  -16.0750   22.2395 C   0  0  1  0  0  0  0  0  0  0  0  0
   10.0959  -14.7679   21.6543 C   0  0  0  0  0  0  0  0  0  0  0  0
    9.1080  -14.2595   20.6871 C   0  0  0  0  0  0  0  0  0  0  0  0
    7.9135  -14.8266   20.3034 C   0  0  0  0  0  0  0  0  0  0  0  0
    7.2989  -14.0536   19.3980 N   0  0  0  0  0  0  0  0  0  0  0  0
    8.0940  -12.9916   19.1983 C   0  0  0  0  0  0  0  0  0  0  0  0
    9.2023  -13.1187   19.9887 N   0  0  0  0  0  0  0  0  0  0  0  0
   10.6940  -16.8228   22.8874 C   0  0  0  0  0  0  0  0  0  0  0  0
   10.7011  -17.1104   24.0952 O   0  0  0  0  0  0  0  0  0  0  0  0
   11.7652  -17.2208   22.0707 O   0  0  0  0  0  0  0  0  0  0  0  0
  1  2  1  0
  2  3  1  0
  3  4  1  1
  5  3  1  0
  5  6  1  6
  7  8  2  0
  7  5  1  0
  9 10  1  0
 10 11  1  0
 11 13  1  0
 11 12  1  6
 13 14  1  1
 14  7  1  0
 15 13  1  0
 16 15  2  0
 17 15  1  0
 18 25  1  0
 18 17  1  0
 18 19  1  1
 20 19  1  0
 21 20  2  0
 22 21  1  0
 23 22  1  0
 23 24  2  0
 24 20  1  0
 25 27  1  0
 26 25  2  0
M  END
$$$$
