IIH.pdb
     RDKit          3D

 27 27  0  0  1  0  0  0  0  0999 V2000
    7.1667  -15.9105   17.5188 C   0  0  0  0  0  0  0  0  0  0  0  0
    7.1163  -14.6606   18.3687 C   0  0  0  0  0  0  0  0  0  0  0  0
    7.6380  -14.8504   19.7564 C   0  0  2  0  0  0  0  0  0  0  0  0
    6.9470  -16.0616   20.3525 C   0  0  0  0  0  0  0  0  0  0  0  0
    7.3885  -13.6143   20.5975 C   0  0  2  0  0  0  0  0  0  0  0  0
    8.2244  -12.5737   19.9387 N   0  0  0  0  0  0  0  0  0  0  0  0
    7.9186  -13.7237   21.9712 C   0  0  0  0  0  0  0  0  0  0  0  0
    9.1617  -13.7609   22.1423 O   0  0  0  0  0  0  0  0  0  0  0  0
    5.4161  -11.5302   26.4192 C   0  0  0  0  0  0  0  0  0  0  0  0
    6.5494  -11.9308   25.5124 C   0  0  0  0  0  0  0  0  0  0  0  0
    6.9550  -13.3450   25.5915 C   0  0  2  0  0  0  0  0  0  0  0  0
    7.7873  -13.6263   26.8566 C   0  0  0  0  0  0  0  0  0  0  0  0
    7.7029  -13.9515   24.4705 C   0  0  2  0  0  0  0  0  0  0  0  0
    7.1312  -13.7909   23.1561 N   0  0  0  0  0  0  0  0  0  0  0  0
    8.1013  -15.3728   24.7202 C   0  0  0  0  0  0  0  0  0  0  0  0
    7.2896  -16.3329   24.7086 O   0  0  0  0  0  0  0  0  0  0  0  0
    9.4560  -15.7018   24.9887 N   0  0  0  0  0  0  0  0  0  0  0  0
    9.8812  -17.0760   25.1880 C   0  0  1  0  0  0  0  0  0  0  0  0
   10.9019  -17.3915   24.1185 C   0  0  0  0  0  0  0  0  0  0  0  0
   11.3352  -18.7939   24.2421 C   0  0  0  0  0  0  0  0  0  0  0  0
   10.5658  -19.9352   24.2072 C   0  0  0  0  0  0  0  0  0  0  0  0
   11.3353  -21.0220   24.3554 N   0  0  0  0  0  0  0  0  0  0  0  0
   12.5964  -20.5834   24.4854 C   0  0  0  0  0  0  0  0  0  0  0  0
   12.5954  -19.2180   24.4159 N   0  0  0  0  0  0  0  0  0  0  0  0
   10.4071  -17.3070   26.5369 C   0  0  0  0  0  0  0  0  0  0  0  0
   10.7048  -18.4306   26.9736 O   0  0  0  0  0  0  0  0  0  0  0  0
   10.5714  -16.1766   27.3542 O   0  0  0  0  0  0  0  0  0  0  0  0
  1  2  1  0
  2  3  1  0
  3  4  1  1
  5  3  1  0
  5  6  1  6
  7  8  2  0
  7  5  1  0
  9 10  1  0
 10 11  1  0
 11 13  1  0
 11 12  1  1
 13 14  1  6
 14  7  1  0
 15 13  1  0
 16 15  2  0
 17 15  1  0
 18 25  1  0
 18 17  1  0
 18 19  1  6
 20 19  1  0
 21 20  2  0
 22 21  1  0
 23 22  1  0
 23 24  2  0
 24 20  1  0
 25 27  1  0
 26 25  2  0
M  END
$$$$
