IIH.pdb
     RDKit          3D

 27 27  0  0  1  0  0  0  0  0999 V2000
    7.4520  -16.3264   17.7594 C   0  0  0  0  0  0  0  0  0  0  0  0
    7.1449  -15.0669   18.5383 C   0  0  0  0  0  0  0  0  0  0  0  0
    7.7178  -15.0536   19.9187 C   0  0  2  0  0  0  0  0  0  0  0  0
    7.3007  -16.3380   20.6087 C   0  0  0  0  0  0  0  0  0  0  0  0
    7.2337  -13.8415   20.6893 C   0  0  2  0  0  0  0  0  0  0  0  0
    7.8283  -12.6983   19.9441 N   0  0  0  0  0  0  0  0  0  0  0  0
    7.7965  -13.7500   22.0513 C   0  0  0  0  0  0  0  0  0  0  0  0
    9.0092  -13.4567   22.1899 O   0  0  0  0  0  0  0  0  0  0  0  0
    5.4466  -11.5150   26.4679 C   0  0  0  0  0  0  0  0  0  0  0  0
    6.5476  -11.9507   25.5376 C   0  0  0  0  0  0  0  0  0  0  0  0
    6.9630  -13.3587   25.6627 C   0  0  2  0  0  0  0  0  0  0  0  0
    7.8106  -13.5896   26.9279 C   0  0  0  0  0  0  0  0  0  0  0  0
    7.7028  -14.0003   24.5560 C   0  0  2  0  0  0  0  0  0  0  0  0
    7.0730  -13.9670   23.2587 N   0  0  0  0  0  0  0  0  0  0  0  0
    8.1944  -15.3752   24.8865 C   0  0  0  0  0  0  0  0  0  0  0  0
    7.4318  -16.3439   25.1329 O   0  0  0  0  0  0  0  0  0  0  0  0
    9.5870  -15.6467   24.9361 N   0  0  0  0  0  0  0  0  0  0  0  0
   10.0941  -16.9785   25.2155 C   0  0  1  0  0  0  0  0  0  0  0  0
   11.4358  -17.1028   24.5302 C   0  0  0  0  0  0  0  0  0  0  0  0
   11.9697  -18.4620   24.7239 C   0  0  0  0  0  0  0  0  0  0  0  0
   11.3380  -19.5632   25.2568 C   0  0  0  0  0  0  0  0  0  0  0  0
   12.1638  -20.6184   25.2618 N   0  0  0  0  0  0  0  0  0  0  0  0
   13.3238  -20.1993   24.7342 C   0  0  0  0  0  0  0  0  0  0  0  0
   13.2039  -18.8778   24.4049 N   0  0  0  0  0  0  0  0  0  0  0  0
   10.1824  -17.2513   26.6534 C   0  0  0  0  0  0  0  0  0  0  0  0
   10.2311  -16.3618   27.5182 O   0  0  0  0  0  0  0  0  0  0  0  0
   10.2114  -18.6012   27.0407 O   0  0  0  0  0  0  0  0  0  0  0  0
  1  2  1  0
  2  3  1  0
  3  4  1  1
  5  3  1  0
  5  6  1  6
  7  8  2  0
  7  5  1  0
  9 10  1  0
 10 11  1  0
 11 13  1  0
 11 12  1  1
 13 14  1  6
 14  7  1  0
 15 13  1  0
 16 15  2  0
 17 15  1  0
 18 25  1  0
 18 17  1  0
 18 19  1  1
 20 19  1  0
 21 20  2  0
 22 21  1  0
 23 22  1  0
 23 24  2  0
 24 20  1  0
 25 27  1  0
 26 25  2  0
M  END
$$$$
