IIH.pdb
     RDKit          3D

 27 27  0  0  1  0  0  0  0  0999 V2000
    7.3934  -15.6279   17.5234 C   0  0  0  0  0  0  0  0  0  0  0  0
    7.4094  -14.4055   18.4139 C   0  0  0  0  0  0  0  0  0  0  0  0
    7.7406  -14.7003   19.8412 C   0  0  2  0  0  0  0  0  0  0  0  0
    6.7919  -15.7795   20.3263 C   0  0  0  0  0  0  0  0  0  0  0  0
    7.6201  -13.4501   20.6896 C   0  0  2  0  0  0  0  0  0  0  0  0
    8.6555  -12.5450   20.1201 N   0  0  0  0  0  0  0  0  0  0  0  0
    8.0179  -13.6562   22.0965 C   0  0  0  0  0  0  0  0  0  0  0  0
    9.2200  -13.9060   22.3583 O   0  0  0  0  0  0  0  0  0  0  0  0
    5.4569  -11.2675   26.4183 C   0  0  0  0  0  0  0  0  0  0  0  0
    6.6200  -11.7825   25.6124 C   0  0  0  0  0  0  0  0  0  0  0  0
    6.8239  -13.2411   25.6545 C   0  0  2  0  0  0  0  0  0  0  0  0
    7.5121  -13.6800   26.9607 C   0  0  0  0  0  0  0  0  0  0  0  0
    7.5662  -13.9040   24.5621 C   0  0  2  0  0  0  0  0  0  0  0  0
    7.1428  -13.5946   23.2184 N   0  0  0  0  0  0  0  0  0  0  0  0
    7.7204  -15.3803   24.7572 C   0  0  0  0  0  0  0  0  0  0  0  0
    7.0064  -16.2353   24.1742 O   0  0  0  0  0  0  0  0  0  0  0  0
    8.7119  -15.8881   25.6373 N   0  0  0  0  0  0  0  0  0  0  0  0
    9.4755  -17.0813   25.3176 C   0  0  1  0  0  0  0  0  0  0  0  0
   10.2346  -16.8018   24.0406 C   0  0  0  0  0  0  0  0  0  0  0  0
   10.9636  -18.0107   23.6200 C   0  0  0  0  0  0  0  0  0  0  0  0
   11.0623  -19.2213   24.2684 C   0  0  0  0  0  0  0  0  0  0  0  0
   11.8184  -20.0706   23.5597 N   0  0  0  0  0  0  0  0  0  0  0  0
   12.2060  -19.4101   22.4581 C   0  0  0  0  0  0  0  0  0  0  0  0
   11.6818  -18.1481   22.4960 N   0  0  0  0  0  0  0  0  0  0  0  0
   10.3656  -17.4834   26.4110 C   0  0  0  0  0  0  0  0  0  0  0  0
   10.8313  -18.6282   26.5302 O   0  0  0  0  0  0  0  0  0  0  0  0
   10.6899  -16.4979   27.3579 O   0  0  0  0  0  0  0  0  0  0  0  0
  1  2  1  0
  2  3  1  0
  3  4  1  1
  5  3  1  0
  5  6  1  6
  7  8  2  0
  7  5  1  0
  9 10  1  0
 10 11  1  0
 11 13  1  0
 11 12  1  1
 13 14  1  6
 14  7  1  0
 15 13  1  0
 16 15  2  0
 17 15  1  0
 18 25  1  0
 18 17  1  0
 18 19  1  6
 20 19  1  0
 21 20  2  0
 22 21  1  0
 23 22  1  0
 23 24  2  0
 24 20  1  0
 25 27  1  0
 26 25  2  0
M  END
$$$$
