IIH.pdb
     RDKit          3D

 27 27  0  0  1  0  0  0  0  0999 V2000
    6.6827  -18.1707   19.0348 C   0  0  0  0  0  0  0  0  0  0  0  0
    6.5756  -16.7449   19.5278 C   0  0  0  0  0  0  0  0  0  0  0  0
    7.2241  -16.5123   20.8541 C   0  0  2  0  0  0  0  0  0  0  0  0
    6.6840  -17.5451   21.8244 C   0  0  0  0  0  0  0  0  0  0  0  0
    6.9471  -15.1063   21.3479 C   0  0  2  0  0  0  0  0  0  0  0  0
    7.5764  -14.2452   20.3095 N   0  0  0  0  0  0  0  0  0  0  0  0
    7.6519  -14.7767   22.6028 C   0  0  0  0  0  0  0  0  0  0  0  0
    8.8972  -14.6203   22.5780 O   0  0  0  0  0  0  0  0  0  0  0  0
    5.5782  -11.5585   26.5705 C   0  0  0  0  0  0  0  0  0  0  0  0
    6.6021  -12.1691   25.6507 C   0  0  0  0  0  0  0  0  0  0  0  0
    7.1415  -13.4718   26.0782 C   0  0  2  0  0  0  0  0  0  0  0  0
    8.1596  -13.3157   27.2235 C   0  0  0  0  0  0  0  0  0  0  0  0
    7.7827  -14.3561   25.0829 C   0  0  2  0  0  0  0  0  0  0  0  0
    7.0354  -14.6122   23.8761 N   0  0  0  0  0  0  0  0  0  0  0  0
    8.3178  -15.6248   25.6707 C   0  0  0  0  0  0  0  0  0  0  0  0
    7.5894  -16.5172   26.1743 O   0  0  0  0  0  0  0  0  0  0  0  0
    9.7149  -15.8770   25.6821 N   0  0  0  0  0  0  0  0  0  0  0  0
   10.2645  -17.0948   26.2510 C   0  0  1  0  0  0  0  0  0  0  0  0
   11.5991  -17.3409   25.5851 C   0  0  0  0  0  0  0  0  0  0  0  0
   11.4010  -17.5745   24.1443 C   0  0  0  0  0  0  0  0  0  0  0  0
   10.5591  -18.4739   23.5294 C   0  0  0  0  0  0  0  0  0  0  0  0
   10.6686  -18.3808   22.1973 N   0  0  0  0  0  0  0  0  0  0  0  0
   11.5778  -17.4248   21.9538 C   0  0  0  0  0  0  0  0  0  0  0  0
   12.0260  -16.9314   23.1473 N   0  0  0  0  0  0  0  0  0  0  0  0
   10.3817  -17.0250   27.7109 C   0  0  0  0  0  0  0  0  0  0  0  0
   10.3783  -15.9597   28.3487 O   0  0  0  0  0  0  0  0  0  0  0  0
   10.5027  -18.2457   28.3951 O   0  0  0  0  0  0  0  0  0  0  0  0
  1  2  1  0
  2  3  1  0
  3  4  1  1
  5  3  1  0
  5  6  1  6
  7  8  2  0
  7  5  1  0
  9 10  1  0
 10 11  1  0
 11 13  1  0
 11 12  1  1
 13 14  1  6
 14  7  1  0
 15 13  1  0
 16 15  2  0
 17 15  1  0
 18 25  1  0
 18 17  1  0
 18 19  1  6
 20 19  1  0
 21 20  2  0
 22 21  1  0
 23 22  1  0
 23 24  2  0
 24 20  1  0
 25 27  1  0
 26 25  2  0
M  END
$$$$
