IIH.pdb
     RDKit          3D

 27 27  0  0  1  0  0  0  0  0999 V2000
    7.3532  -18.2266   20.5680 C   0  0  0  0  0  0  0  0  0  0  0  0
    7.8285  -16.8071   20.7836 C   0  0  0  0  0  0  0  0  0  0  0  0
    6.7260  -15.7990   20.8256 C   0  0  2  0  0  0  0  0  0  0  0  0
    6.0606  -15.7791   19.4630 C   0  0  0  0  0  0  0  0  0  0  0  0
    7.2647  -14.4290   21.1867 C   0  0  2  0  0  0  0  0  0  0  0  0
    8.3738  -14.2267   20.2148 N   0  0  0  0  0  0  0  0  0  0  0  0
    7.9030  -14.3826   22.5173 C   0  0  0  0  0  0  0  0  0  0  0  0
    9.1383  -14.5872   22.6067 O   0  0  0  0  0  0  0  0  0  0  0  0
    5.7222  -11.5727   26.8897 C   0  0  0  0  0  0  0  0  0  0  0  0
    6.8102  -12.0492   25.9641 C   0  0  0  0  0  0  0  0  0  0  0  0
    7.2191  -13.4541   26.1369 C   0  0  2  0  0  0  0  0  0  0  0  0
    8.1304  -13.6324   27.3658 C   0  0  0  0  0  0  0  0  0  0  0  0
    7.8936  -14.1577   25.0261 C   0  0  2  0  0  0  0  0  0  0  0  0
    7.2317  -14.1179   23.7452 N   0  0  0  0  0  0  0  0  0  0  0  0
    8.3203  -15.5497   25.3746 C   0  0  0  0  0  0  0  0  0  0  0  0
    7.5194  -16.5117   25.4923 O   0  0  0  0  0  0  0  0  0  0  0  0
    9.6914  -15.8465   25.5928 N   0  0  0  0  0  0  0  0  0  0  0  0
   10.1388  -17.1915   25.9089 C   0  0  1  0  0  0  0  0  0  0  0  0
   11.3076  -17.5024   25.0021 C   0  0  0  0  0  0  0  0  0  0  0  0
   11.9025  -18.7952   25.3823 C   0  0  0  0  0  0  0  0  0  0  0  0
   11.5220  -19.6500   26.3923 C   0  0  0  0  0  0  0  0  0  0  0  0
   12.3172  -20.7281   26.4162 N   0  0  0  0  0  0  0  0  0  0  0  0
   13.2075  -20.5692   25.4252 C   0  0  0  0  0  0  0  0  0  0  0  0
   12.9526  -19.3845   24.7923 N   0  0  0  0  0  0  0  0  0  0  0  0
   10.4840  -17.3459   27.3255 C   0  0  0  0  0  0  0  0  0  0  0  0
   10.6563  -18.4469   27.8730 O   0  0  0  0  0  0  0  0  0  0  0  0
   10.6197  -16.1664   28.0759 O   0  0  0  0  0  0  0  0  0  0  0  0
  1  2  1  0
  2  3  1  0
  3  4  1  6
  5  3  1  0
  5  6  1  6
  7  8  2  0
  7  5  1  0
  9 10  1  0
 10 11  1  0
 11 13  1  0
 11 12  1  1
 13 14  1  6
 14  7  1  0
 15 13  1  0
 16 15  2  0
 17 15  1  0
 18 25  1  0
 18 17  1  0
 18 19  1  6
 20 19  1  0
 21 20  2  0
 22 21  1  0
 23 22  1  0
 23 24  2  0
 24 20  1  0
 25 27  1  0
 26 25  2  0
M  END
$$$$
