TFR.pdb
     RDKit          3D

 30 30  0  0  1  0  0  0  0  0999 V2000
   26.9491  -21.1573  -18.4269 C   0  0  0  0  0  0  0  0  0  0  0  0
   28.0553  -22.1999  -18.4792 C   0  0  1  0  0  0  0  0  0  0  0  0
   28.8818  -21.8420  -19.5469 O   0  0  0  0  0  0  0  0  0  0  0  0
   28.9019  -22.1248  -17.2189 C   0  0  2  0  0  0  0  0  0  0  0  0
   29.8979  -23.1540  -17.2988 N   0  0  0  0  0  0  0  0  0  0  0  0
   27.9620  -22.3504  -16.0745 C   0  0  0  0  0  0  0  0  0  0  0  0
   27.4738  -23.4770  -15.8283 O   0  0  0  0  0  0  0  0  0  0  0  0
   27.6093  -21.2584  -15.2390 N   0  0  0  0  0  0  0  0  0  0  0  0
   26.7024  -21.4210  -14.1261 C   0  0  1  0  0  0  0  0  0  0  0  0
   27.1141  -20.4537  -13.0586 C   0  0  0  0  0  0  0  0  0  0  0  0
   26.2880  -20.4731  -11.8604 C   0  0  0  0  0  0  0  0  0  0  0  0
   25.1242  -19.7565  -11.7843 C   0  0  0  0  0  0  0  0  0  0  0  0
   24.3939  -19.8226  -10.6189 C   0  0  0  0  0  0  0  0  0  0  0  0
   24.7877  -20.5757   -9.5385 C   0  0  0  0  0  0  0  0  0  0  0  0
   25.9536  -21.2942   -9.6136 C   0  0  0  0  0  0  0  0  0  0  0  0
   26.6801  -21.2244  -10.7815 C   0  0  0  0  0  0  0  0  0  0  0  0
   25.3305  -21.2535  -14.6053 C   0  0  0  0  0  0  0  0  0  0  0  0
   24.9432  -20.3263  -15.3636 O   0  0  0  0  0  0  0  0  0  0  0  0
   18.1817  -24.7277  -15.8953 N   0  0  0  0  0  0  0  0  0  0  0  0
   18.1708  -23.6145  -16.7718 C   0  0  0  0  0  0  0  0  0  0  0  0
   16.9877  -23.1563  -17.0977 N   0  0  0  0  0  0  0  0  0  0  0  0
   19.3558  -23.0209  -17.2744 N   0  0  0  0  0  0  0  0  0  0  0  0
   20.6311  -23.5294  -16.8735 C   0  0  0  0  0  0  0  0  0  0  0  0
   20.9073  -23.2767  -15.3924 C   0  0  0  0  0  0  0  0  0  0  0  0
   22.3610  -23.3212  -15.0838 C   0  0  0  0  0  0  0  0  0  0  0  0
   22.9182  -21.9857  -14.6517 C   0  0  2  0  0  0  0  0  0  0  0  0
   24.3194  -22.1781  -14.2165 N   0  0  0  0  0  0  0  0  0  0  0  0
   22.1749  -21.5359  -13.4592 C   0  0  0  0  0  0  0  0  0  0  0  0
   22.4782  -21.8642  -12.1473 O   0  0  0  0  0  0  0  0  0  0  0  0
   21.1733  -20.7894  -13.6242 O   0  0  0  0  0  0  0  0  0  0  0  0
  2  1  1  1
  2  3  1  0
  4  2  1  0
  4  5  1  6
  6  4  1  0
  7  6  2  0
  8  6  1  0
  9  8  1  0
  9 10  1  1
 10 11  1  0
 11 12  2  0
 12 13  1  0
 14 13  2  0
 15 14  1  0
 16 11  1  0
 16 15  2  0
 17 18  2  0
 17  9  1  0
 19 20  1  0
 20 22  1  0
 21 20  2  0
 22 23  1  0
 24 25  1  0
 24 23  1  0
 26 25  1  1
 26 27  1  0
 27 17  1  0
 28 26  1  0
 29 28  1  0
 30 28  2  0
M  END
$$$$
