TFR.pdb
     RDKit          3D

 30 30  0  0  1  0  0  0  0  0999 V2000
   28.4102  -21.2490  -19.5209 C   0  0  0  0  0  0  0  0  0  0  0  0
   27.6987  -21.6331  -18.2325 C   0  0  1  0  0  0  0  0  0  0  0  0
   27.0155  -22.8216  -18.5008 O   0  0  0  0  0  0  0  0  0  0  0  0
   28.7171  -21.9426  -17.1474 C   0  0  2  0  0  0  0  0  0  0  0  0
   29.4086  -23.1413  -17.5253 N   0  0  0  0  0  0  0  0  0  0  0  0
   27.9332  -22.1294  -15.8846 C   0  0  0  0  0  0  0  0  0  0  0  0
   27.6707  -23.2656  -15.4279 O   0  0  0  0  0  0  0  0  0  0  0  0
   27.4703  -20.9884  -15.1785 N   0  0  0  0  0  0  0  0  0  0  0  0
   26.7143  -21.1134  -13.9537 C   0  0  1  0  0  0  0  0  0  0  0  0
   27.1456  -20.0088  -13.0380 C   0  0  0  0  0  0  0  0  0  0  0  0
   26.6497  -20.1131  -11.6736 C   0  0  0  0  0  0  0  0  0  0  0  0
   25.4626  -19.5429  -11.3002 C   0  0  0  0  0  0  0  0  0  0  0  0
   25.0563  -19.6824   -9.9919 C   0  0  0  0  0  0  0  0  0  0  0  0
   25.7933  -20.3675   -9.0555 C   0  0  0  0  0  0  0  0  0  0  0  0
   26.9828  -20.9393   -9.4285 C   0  0  0  0  0  0  0  0  0  0  0  0
   27.3843  -20.7967  -10.7381 C   0  0  0  0  0  0  0  0  0  0  0  0
   25.2876  -21.1165  -14.2765 C   0  0  0  0  0  0  0  0  0  0  0  0
   24.7273  -20.3067  -15.0608 O   0  0  0  0  0  0  0  0  0  0  0  0
   20.8410  -28.3648  -14.3227 N   0  0  0  0  0  0  0  0  0  0  0  0
   20.1527  -27.1289  -14.2427 C   0  0  0  0  0  0  0  0  0  0  0  0
   18.8624  -27.2070  -14.0304 N   0  0  0  0  0  0  0  0  0  0  0  0
   20.8029  -25.8771  -14.3813 N   0  0  0  0  0  0  0  0  0  0  0  0
   22.2146  -25.8302  -14.6063 C   0  0  0  0  0  0  0  0  0  0  0  0
   22.6988  -24.4128  -14.9074 C   0  0  0  0  0  0  0  0  0  0  0  0
   22.4437  -23.4868  -13.7727 C   0  0  0  0  0  0  0  0  0  0  0  0
   22.9790  -22.0946  -14.0096 C   0  0  2  0  0  0  0  0  0  0  0  0
   24.4235  -22.0841  -13.6887 N   0  0  0  0  0  0  0  0  0  0  0  0
   22.3368  -21.1797  -13.0465 C   0  0  0  0  0  0  0  0  0  0  0  0
   21.1524  -20.4906  -13.2540 O   0  0  0  0  0  0  0  0  0  0  0  0
   22.8970  -20.9924  -11.9336 O   0  0  0  0  0  0  0  0  0  0  0  0
  2  1  1  6
  2  3  1  0
  4  2  1  0
  4  5  1  6
  6  4  1  0
  7  6  2  0
  8  6  1  0
  9  8  1  0
  9 10  1  1
 10 11  1  0
 11 12  2  0
 12 13  1  0
 14 13  2  0
 15 14  1  0
 16 11  1  0
 16 15  2  0
 17 18  2  0
 17  9  1  0
 19 20  1  0
 20 22  1  0
 21 20  2  0
 22 23  1  0
 24 25  1  0
 24 23  1  0
 26 25  1  1
 26 27  1  0
 27 17  1  0
 28 26  1  0
 29 28  1  0
 30 28  2  0
M  END
$$$$
