TFR.pdb
     RDKit          3D

 30 30  0  0  1  0  0  0  0  0999 V2000
   27.5163  -19.8853  -19.0494 C   0  0  0  0  0  0  0  0  0  0  0  0
   26.8239  -20.4217  -17.8059 C   0  0  1  0  0  0  0  0  0  0  0  0
   25.9609  -21.4301  -18.2413 O   0  0  0  0  0  0  0  0  0  0  0  0
   27.8407  -21.0758  -16.8846 C   0  0  2  0  0  0  0  0  0  0  0  0
   28.3732  -22.2215  -17.5639 N   0  0  0  0  0  0  0  0  0  0  0  0
   27.0899  -21.4638  -15.6478 C   0  0  0  0  0  0  0  0  0  0  0  0
   26.5583  -22.5904  -15.5197 O   0  0  0  0  0  0  0  0  0  0  0  0
   26.9733  -20.5313  -14.5841 N   0  0  0  0  0  0  0  0  0  0  0  0
   26.2397  -20.8468  -13.3800 C   0  0  1  0  0  0  0  0  0  0  0  0
   26.7569  -19.9621  -12.2871 C   0  0  0  0  0  0  0  0  0  0  0  0
   26.0875  -20.1158  -11.0039 C   0  0  0  0  0  0  0  0  0  0  0  0
   24.8669  -19.5449  -10.7629 C   0  0  0  0  0  0  0  0  0  0  0  0
   24.2932  -19.7327   -9.5253 C   0  0  0  0  0  0  0  0  0  0  0  0
   24.8967  -20.4662   -8.5317 C   0  0  0  0  0  0  0  0  0  0  0  0
   26.1197  -21.0386   -8.7720 C   0  0  0  0  0  0  0  0  0  0  0  0
   26.6888  -20.8476  -10.0114 C   0  0  0  0  0  0  0  0  0  0  0  0
   24.8082  -20.7112  -13.6489 C   0  0  0  0  0  0  0  0  0  0  0  0
   24.2817  -19.7479  -14.2651 O   0  0  0  0  0  0  0  0  0  0  0  0
   21.4113  -26.8930  -14.2950 N   0  0  0  0  0  0  0  0  0  0  0  0
   20.3619  -26.4622  -13.4461 C   0  0  0  0  0  0  0  0  0  0  0  0
   20.0683  -27.2618  -12.4508 N   0  0  0  0  0  0  0  0  0  0  0  0
   19.6625  -25.2457  -13.6458 N   0  0  0  0  0  0  0  0  0  0  0  0
   20.0431  -24.3738  -14.7139 C   0  0  0  0  0  0  0  0  0  0  0  0
   20.4954  -23.0071  -14.2026 C   0  0  0  0  0  0  0  0  0  0  0  0
   21.9476  -22.9865  -13.8849 C   0  0  0  0  0  0  0  0  0  0  0  0
   22.4569  -21.6124  -13.5199 C   0  0  2  0  0  0  0  0  0  0  0  0
   23.8990  -21.7129  -13.2036 N   0  0  0  0  0  0  0  0  0  0  0  0
   21.7911  -21.1857  -12.2743 C   0  0  0  0  0  0  0  0  0  0  0  0
   22.2622  -21.4080  -10.9900 O   0  0  0  0  0  0  0  0  0  0  0  0
   20.6978  -20.5655  -12.3619 O   0  0  0  0  0  0  0  0  0  0  0  0
  2  1  1  6
  2  3  1  0
  4  2  1  0
  4  5  1  6
  6  4  1  0
  7  6  2  0
  8  6  1  0
  9  8  1  0
  9 10  1  1
 10 11  1  0
 11 12  2  0
 12 13  1  0
 14 13  2  0
 15 14  1  0
 16 11  1  0
 16 15  2  0
 17 18  2  0
 17  9  1  0
 19 20  1  0
 20 22  1  0
 21 20  2  0
 22 23  1  0
 24 25  1  0
 24 23  1  0
 26 25  1  1
 26 27  1  0
 27 17  1  0
 28 26  1  0
 29 28  1  0
 30 28  2  0
M  END
$$$$
