TFR.pdb
     RDKit          3D

 30 30  0  0  1  0  0  0  0  0999 V2000
   30.9578  -21.5899   -9.5393 C   0  0  0  0  0  0  0  0  0  0  0  0
   30.0474  -20.7455  -10.4178 C   0  0  1  0  0  0  0  0  0  0  0  0
   30.4473  -20.9785  -11.7357 O   0  0  0  0  0  0  0  0  0  0  0  0
   28.6117  -21.2303  -10.2979 C   0  0  2  0  0  0  0  0  0  0  0  0
   28.5455  -22.5463  -10.8647 N   0  0  0  0  0  0  0  0  0  0  0  0
   27.7786  -20.2523  -11.0682 C   0  0  0  0  0  0  0  0  0  0  0  0
   27.3775  -19.1789  -10.5629 O   0  0  0  0  0  0  0  0  0  0  0  0
   27.4290  -20.5441  -12.4126 N   0  0  0  0  0  0  0  0  0  0  0  0
   26.5817  -19.6617  -13.1814 C   0  0  1  0  0  0  0  0  0  0  0  0
   27.3914  -19.1386  -14.3283 C   0  0  0  0  0  0  0  0  0  0  0  0
   26.7119  -18.1593  -15.1636 C   0  0  0  0  0  0  0  0  0  0  0  0
   26.5889  -16.8525  -14.7750 C   0  0  0  0  0  0  0  0  0  0  0  0
   25.9334  -15.9819  -15.6166 C   0  0  0  0  0  0  0  0  0  0  0  0
   25.4027  -16.3741  -16.8224 C   0  0  0  0  0  0  0  0  0  0  0  0
   25.5253  -17.6831  -17.2128 C   0  0  0  0  0  0  0  0  0  0  0  0
   26.1818  -18.5495  -16.3673 C   0  0  0  0  0  0  0  0  0  0  0  0
   25.3717  -20.3866  -13.5690 C   0  0  0  0  0  0  0  0  0  0  0  0
   25.3555  -21.5458  -14.0597 O   0  0  0  0  0  0  0  0  0  0  0  0
   19.4477  -23.7488   -9.3045 N   0  0  0  0  0  0  0  0  0  0  0  0
   18.7767  -23.6365  -10.5474 C   0  0  0  0  0  0  0  0  0  0  0  0
   17.7333  -24.4127  -10.7049 N   0  0  0  0  0  0  0  0  0  0  0  0
   19.1940  -22.7457  -11.5679 N   0  0  0  0  0  0  0  0  0  0  0  0
   20.3714  -21.9547  -11.3836 C   0  0  0  0  0  0  0  0  0  0  0  0
   20.6242  -21.0217  -12.5665 C   0  0  0  0  0  0  0  0  0  0  0  0
   21.9239  -20.3104  -12.4440 C   0  0  0  0  0  0  0  0  0  0  0  0
   22.8575  -20.5743  -13.6014 C   0  0  2  0  0  0  0  0  0  0  0  0
   24.0923  -19.7839  -13.4006 N   0  0  0  0  0  0  0  0  0  0  0  0
   22.2312  -20.0537  -14.8317 C   0  0  0  0  0  0  0  0  0  0  0  0
   22.5921  -18.8894  -15.4912 O   0  0  0  0  0  0  0  0  0  0  0  0
   21.2832  -20.7071  -15.3437 O   0  0  0  0  0  0  0  0  0  0  0  0
  2  1  1  1
  2  3  1  0
  4  2  1  0
  4  5  1  6
  6  4  1  0
  7  6  2  0
  8  6  1  0
  9  8  1  0
  9 10  1  6
 10 11  1  0
 11 12  2  0
 12 13  1  0
 14 13  2  0
 15 14  1  0
 16 11  1  0
 16 15  2  0
 17 18  2  0
 17  9  1  0
 19 20  1  0
 20 22  1  0
 21 20  2  0
 22 23  1  0
 24 25  1  0
 24 23  1  0
 26 25  1  1
 26 27  1  0
 27 17  1  0
 28 26  1  0
 29 28  1  0
 30 28  2  0
M  END
$$$$
