TFR.pdb
     RDKit          3D

 30 30  0  0  1  0  0  0  0  0999 V2000
   16.4672   -9.1483  -17.2152 C   0  0  0  0  0  0  0  0  0  0  0  0
   16.7956   -9.0926  -15.7310 C   0  0  1  0  0  0  0  0  0  0  0  0
   16.3240  -10.2862  -15.1796 O   0  0  0  0  0  0  0  0  0  0  0  0
   18.3023   -9.0768  -15.5310 C   0  0  2  0  0  0  0  0  0  0  0  0
   18.8111  -10.3549  -15.9376 N   0  0  0  0  0  0  0  0  0  0  0  0
   18.5238   -8.8311  -14.0700 C   0  0  0  0  0  0  0  0  0  0  0  0
   18.3583   -9.7292  -13.2131 O   0  0  0  0  0  0  0  0  0  0  0  0
   18.9339   -7.5434  -13.6359 N   0  0  0  0  0  0  0  0  0  0  0  0
   19.1679   -7.2561  -12.2395 C   0  0  1  0  0  0  0  0  0  0  0  0
   20.5896   -6.8044  -12.0999 C   0  0  0  0  0  0  0  0  0  0  0  0
   21.5818   -7.8666  -12.1753 C   0  0  0  0  0  0  0  0  0  0  0  0
   21.9416   -8.5869  -11.0683 C   0  0  0  0  0  0  0  0  0  0  0  0
   22.8871   -9.5772  -11.2148 C   0  0  0  0  0  0  0  0  0  0  0  0
   23.4775   -9.8661  -12.4220 C   0  0  0  0  0  0  0  0  0  0  0  0
   23.1177   -9.1451  -13.5319 C   0  0  0  0  0  0  0  0  0  0  0  0
   22.1717   -8.1559  -13.3796 C   0  0  0  0  0  0  0  0  0  0  0  0
   18.1720   -6.2869  -11.7825 C   0  0  0  0  0  0  0  0  0  0  0  0
   17.8922   -5.2118  -12.3748 O   0  0  0  0  0  0  0  0  0  0  0  0
   11.2023   -8.9257   -8.1059 N   0  0  0  0  0  0  0  0  0  0  0  0
   12.2693   -9.5754   -8.7744 C   0  0  0  0  0  0  0  0  0  0  0  0
   12.0186  -10.7859   -9.2079 N   0  0  0  0  0  0  0  0  0  0  0  0
   13.5355   -8.9692   -8.9708 N   0  0  0  0  0  0  0  0  0  0  0  0
   13.7947   -7.6720   -8.4270 C   0  0  0  0  0  0  0  0  0  0  0  0
   15.2007   -7.1803   -8.7665 C   0  0  0  0  0  0  0  0  0  0  0  0
   15.1798   -6.1079   -9.7959 C   0  0  0  0  0  0  0  0  0  0  0  0
   16.5361   -5.4892  -10.0376 C   0  0  2  0  0  0  0  0  0  0  0  0
   17.4366   -6.5271  -10.5868 N   0  0  0  0  0  0  0  0  0  0  0  0
   17.1067   -5.0968   -8.7348 C   0  0  0  0  0  0  0  0  0  0  0  0
   18.1468   -5.7397   -8.0823 O   0  0  0  0  0  0  0  0  0  0  0  0
   16.6208   -4.0945   -8.1457 O   0  0  0  0  0  0  0  0  0  0  0  0
  2  1  1  6
  2  3  1  0
  4  2  1  0
  4  5  1  1
  6  4  1  0
  7  6  2  0
  8  6  1  0
  9  8  1  0
  9 10  1  6
 10 11  1  0
 11 12  2  0
 12 13  1  0
 14 13  2  0
 15 14  1  0
 16 11  1  0
 16 15  2  0
 17 18  2  0
 17  9  1  0
 19 20  1  0
 20 22  1  0
 21 20  2  0
 22 23  1  0
 24 25  1  0
 24 23  1  0
 26 25  1  1
 26 27  1  0
 27 17  1  0
 28 26  1  0
 29 28  1  0
 30 28  2  0
M  END
$$$$
