TFR.pdb
     RDKit          3D

 30 30  0  0  1  0  0  0  0  0999 V2000
   27.7302  -19.5912  -14.6807 C   0  0  0  0  0  0  0  0  0  0  0  0
   27.2384  -19.9736  -13.2931 C   0  0  1  0  0  0  0  0  0  0  0  0
   25.8641  -20.1940  -13.4107 O   0  0  0  0  0  0  0  0  0  0  0  0
   27.8634  -21.2910  -12.8636 C   0  0  2  0  0  0  0  0  0  0  0  0
   27.3734  -22.3144  -13.7413 N   0  0  0  0  0  0  0  0  0  0  0  0
   27.4241  -21.5164  -11.4493 C   0  0  0  0  0  0  0  0  0  0  0  0
   26.5029  -22.3137  -11.1592 O   0  0  0  0  0  0  0  0  0  0  0  0
   28.0668  -20.8082  -10.4005 N   0  0  0  0  0  0  0  0  0  0  0  0
   27.5984  -20.8896   -9.0362 C   0  0  1  0  0  0  0  0  0  0  0  0
   28.6945  -20.3857   -8.1479 C   0  0  0  0  0  0  0  0  0  0  0  0
   28.3177  -20.1951   -6.7550 C   0  0  0  0  0  0  0  0  0  0  0  0
   28.4076  -21.2142   -5.8455 C   0  0  0  0  0  0  0  0  0  0  0  0
   28.0336  -20.9608   -4.5447 C   0  0  0  0  0  0  0  0  0  0  0  0
   27.5773  -19.7324   -4.1301 C   0  0  0  0  0  0  0  0  0  0  0  0
   27.4868  -18.7105   -5.0404 C   0  0  0  0  0  0  0  0  0  0  0  0
   27.8621  -18.9694   -6.3400 C   0  0  0  0  0  0  0  0  0  0  0  0
   26.3371  -20.1571   -8.9245 C   0  0  0  0  0  0  0  0  0  0  0  0
   26.1751  -18.9526   -9.2528 O   0  0  0  0  0  0  0  0  0  0  0  0
   21.2299  -22.7845  -13.2875 N   0  0  0  0  0  0  0  0  0  0  0  0
   20.1627  -22.0273  -12.7439 C   0  0  0  0  0  0  0  0  0  0  0  0
   18.9683  -22.5491  -12.8746 N   0  0  0  0  0  0  0  0  0  0  0  0
   20.3565  -20.7816  -12.0961 N   0  0  0  0  0  0  0  0  0  0  0  0
   21.6826  -20.3236  -11.8179 C   0  0  0  0  0  0  0  0  0  0  0  0
   22.2700  -20.9931  -10.5766 C   0  0  0  0  0  0  0  0  0  0  0  0
   23.6086  -20.4456  -10.2321 C   0  0  0  0  0  0  0  0  0  0  0  0
   23.8261  -20.2989   -8.7449 C   0  0  2  0  0  0  0  0  0  0  0  0
   25.1765  -20.8055   -8.4137 N   0  0  0  0  0  0  0  0  0  0  0  0
   22.8725  -21.1819   -8.0463 C   0  0  0  0  0  0  0  0  0  0  0  0
   23.1675  -22.4254   -7.5101 O   0  0  0  0  0  0  0  0  0  0  0  0
   21.6813  -20.7928   -7.9159 O   0  0  0  0  0  0  0  0  0  0  0  0
  2  1  1  6
  2  3  1  0
  4  2  1  0
  4  5  1  6
  6  4  1  0
  7  6  2  0
  8  6  1  0
  9  8  1  0
  9 10  1  1
 10 11  1  0
 11 12  2  0
 12 13  1  0
 14 13  2  0
 15 14  1  0
 16 11  1  0
 16 15  2  0
 17 18  2  0
 17  9  1  0
 19 20  1  0
 20 22  1  0
 21 20  2  0
 22 23  1  0
 24 25  1  0
 24 23  1  0
 26 25  1  6
 26 27  1  0
 27 17  1  0
 28 26  1  0
 29 28  1  0
 30 28  2  0
M  END
$$$$
