TFR.pdb
     RDKit          3D

 30 30  0  0  1  0  0  0  0  0999 V2000
   28.0025  -16.5691  -15.1484 C   0  0  0  0  0  0  0  0  0  0  0  0
   27.1322  -17.7625  -14.7850 C   0  0  1  0  0  0  0  0  0  0  0  0
   26.6338  -18.2659  -15.9888 O   0  0  0  0  0  0  0  0  0  0  0  0
   27.9836  -18.8585  -14.1649 C   0  0  2  0  0  0  0  0  0  0  0  0
   28.8291  -19.3909  -15.1942 N   0  0  0  0  0  0  0  0  0  0  0  0
   27.0240  -19.8865  -13.6487 C   0  0  0  0  0  0  0  0  0  0  0  0
   26.8873  -21.0029  -14.1993 O   0  0  0  0  0  0  0  0  0  0  0  0
   26.2423  -19.5934  -12.5008 N   0  0  0  0  0  0  0  0  0  0  0  0
   25.4279  -20.6025  -11.8638 C   0  0  1  0  0  0  0  0  0  0  0  0
   25.3164  -20.2479  -10.4124 C   0  0  0  0  0  0  0  0  0  0  0  0
   26.5154  -20.4962   -9.6255 C   0  0  0  0  0  0  0  0  0  0  0  0
   26.7540  -19.8242   -8.4571 C   0  0  0  0  0  0  0  0  0  0  0  0
   27.9095  -20.1110   -7.7653 C   0  0  0  0  0  0  0  0  0  0  0  0
   28.8241  -21.0397   -8.2017 C   0  0  0  0  0  0  0  0  0  0  0  0
   28.5861  -21.7137   -9.3723 C   0  0  0  0  0  0  0  0  0  0  0  0
   27.4289  -21.4228  -10.0601 C   0  0  0  0  0  0  0  0  0  0  0  0
   24.1498  -20.6940  -12.5695 C   0  0  0  0  0  0  0  0  0  0  0  0
   23.6052  -19.7462  -13.1940 O   0  0  0  0  0  0  0  0  0  0  0  0
   17.2474  -24.5714  -11.2617 N   0  0  0  0  0  0  0  0  0  0  0  0
   18.2060  -25.5102  -11.7169 C   0  0  0  0  0  0  0  0  0  0  0  0
   18.0760  -26.7288  -11.2540 N   0  0  0  0  0  0  0  0  0  0  0  0
   19.2471  -25.1703  -12.6167 N   0  0  0  0  0  0  0  0  0  0  0  0
   19.3208  -23.8456  -13.1511 C   0  0  0  0  0  0  0  0  0  0  0  0
   20.4762  -23.6910  -14.1385 C   0  0  0  0  0  0  0  0  0  0  0  0
   21.7735  -23.4760  -13.4450 C   0  0  0  0  0  0  0  0  0  0  0  0
   22.1225  -22.0165  -13.2757 C   0  0  2  0  0  0  0  0  0  0  0  0
   23.4267  -21.9209  -12.5831 N   0  0  0  0  0  0  0  0  0  0  0  0
   21.1306  -21.4032  -12.3719 C   0  0  0  0  0  0  0  0  0  0  0  0
   21.2447  -21.3068  -10.9940 O   0  0  0  0  0  0  0  0  0  0  0  0
   20.0806  -20.9207  -12.8742 O   0  0  0  0  0  0  0  0  0  0  0  0
  2  1  1  6
  2  3  1  0
  4  2  1  0
  4  5  1  6
  6  4  1  0
  7  6  2  0
  8  6  1  0
  9  8  1  0
  9 10  1  1
 10 11  1  0
 11 12  2  0
 12 13  1  0
 14 13  2  0
 15 14  1  0
 16 11  1  0
 16 15  2  0
 17 18  2  0
 17  9  1  0
 19 20  1  0
 20 22  1  0
 21 20  2  0
 22 23  1  0
 24 25  1  0
 24 23  1  0
 26 25  1  1
 26 27  1  0
 27 17  1  0
 28 26  1  0
 29 28  1  0
 30 28  2  0
M  END
$$$$
