TFR.pdb
     RDKit          3D

 30 30  0  0  1  0  0  0  0  0999 V2000
   24.8320  -23.0241  -17.7765 C   0  0  0  0  0  0  0  0  0  0  0  0
   25.9135  -24.0693  -17.5497 C   0  0  1  0  0  0  0  0  0  0  0  0
   26.5756  -24.2202  -18.7703 O   0  0  0  0  0  0  0  0  0  0  0  0
   26.9366  -23.5521  -16.5515 C   0  0  2  0  0  0  0  0  0  0  0  0
   27.8982  -24.5935  -16.3312 N   0  0  0  0  0  0  0  0  0  0  0  0
   26.1722  -23.2303  -15.3040 C   0  0  0  0  0  0  0  0  0  0  0  0
   25.9373  -24.0937  -14.4278 O   0  0  0  0  0  0  0  0  0  0  0  0
   25.6965  -21.9084  -15.1017 N   0  0  0  0  0  0  0  0  0  0  0  0
   25.1353  -21.4928  -13.8369 C   0  0  1  0  0  0  0  0  0  0  0  0
   25.8273  -20.2294  -13.4252 C   0  0  0  0  0  0  0  0  0  0  0  0
   27.1401  -20.4157  -12.8250 C   0  0  0  0  0  0  0  0  0  0  0  0
   28.2773  -19.9715  -13.4441 C   0  0  0  0  0  0  0  0  0  0  0  0
   29.4849  -20.1825  -12.8170 C   0  0  0  0  0  0  0  0  0  0  0  0
   29.5889  -20.8176  -11.6024 C   0  0  0  0  0  0  0  0  0  0  0  0
   28.4501  -21.2631  -10.9811 C   0  0  0  0  0  0  0  0  0  0  0  0
   27.2451  -21.0493  -11.6128 C   0  0  0  0  0  0  0  0  0  0  0  0
   23.6841  -21.3753  -13.9789 C   0  0  0  0  0  0  0  0  0  0  0  0
   23.0967  -20.9235  -14.9966 O   0  0  0  0  0  0  0  0  0  0  0  0
   17.7560  -25.0351   -8.7908 N   0  0  0  0  0  0  0  0  0  0  0  0
   18.3204  -25.4332  -10.0279 C   0  0  0  0  0  0  0  0  0  0  0  0
   18.4230  -26.7251  -10.2190 N   0  0  0  0  0  0  0  0  0  0  0  0
   18.7526  -24.5059  -11.0089 N   0  0  0  0  0  0  0  0  0  0  0  0
   18.5901  -23.1031  -10.7819 C   0  0  0  0  0  0  0  0  0  0  0  0
   19.2257  -22.2671  -11.8914 C   0  0  0  0  0  0  0  0  0  0  0  0
   20.7060  -22.4028  -11.9094 C   0  0  0  0  0  0  0  0  0  0  0  0
   21.3582  -21.6511  -13.0453 C   0  0  2  0  0  0  0  0  0  0  0  0
   22.8263  -21.7872  -12.9192 N   0  0  0  0  0  0  0  0  0  0  0  0
   21.0626  -20.2147  -12.8824 C   0  0  0  0  0  0  0  0  0  0  0  0
   20.0005  -19.5383  -13.4612 O   0  0  0  0  0  0  0  0  0  0  0  0
   21.8298  -19.5237  -12.1603 O   0  0  0  0  0  0  0  0  0  0  0  0
  2  1  1  6
  2  3  1  0
  4  2  1  0
  4  5  1  1
  6  4  1  0
  7  6  2  0
  8  6  1  0
  9  8  1  0
  9 10  1  6
 10 11  1  0
 11 12  2  0
 12 13  1  0
 14 13  2  0
 15 14  1  0
 16 11  1  0
 16 15  2  0
 17 18  2  0
 17  9  1  0
 19 20  1  0
 20 22  1  0
 21 20  2  0
 22 23  1  0
 24 25  1  0
 24 23  1  0
 26 25  1  1
 26 27  1  0
 27 17  1  0
 28 26  1  0
 29 28  1  0
 30 28  2  0
M  END
$$$$
