TFR.pdb
     RDKit          3D

 30 30  0  0  1  0  0  0  0  0999 V2000
   26.2642  -20.8414  -17.4770 C   0  0  0  0  0  0  0  0  0  0  0  0
   26.7795  -22.2579  -17.6813 C   0  0  1  0  0  0  0  0  0  0  0  0
   27.5892  -22.2208  -18.8189 O   0  0  0  0  0  0  0  0  0  0  0  0
   27.6693  -22.6615  -16.5169 C   0  0  2  0  0  0  0  0  0  0  0  0
   28.1152  -24.0045  -16.7519 N   0  0  0  0  0  0  0  0  0  0  0  0
   26.8145  -22.5677  -15.2903 C   0  0  0  0  0  0  0  0  0  0  0  0
   25.9672  -23.4439  -15.0029 O   0  0  0  0  0  0  0  0  0  0  0  0
   26.9639  -21.4545  -14.4223 N   0  0  0  0  0  0  0  0  0  0  0  0
   26.2177  -21.3527  -13.1893 C   0  0  1  0  0  0  0  0  0  0  0  0
   27.0383  -20.5509  -12.2258 C   0  0  0  0  0  0  0  0  0  0  0  0
   26.3969  -20.2834  -10.9469 C   0  0  0  0  0  0  0  0  0  0  0  0
   25.8268  -19.0691  -10.6747 C   0  0  0  0  0  0  0  0  0  0  0  0
   25.2376  -18.8878   -9.4434 C   0  0  0  0  0  0  0  0  0  0  0  0
   25.2017  -19.8735   -8.4860 C   0  0  0  0  0  0  0  0  0  0  0  0
   25.7726  -21.0906   -8.7577 C   0  0  0  0  0  0  0  0  0  0  0  0
   26.3604  -21.2665   -9.9907 C   0  0  0  0  0  0  0  0  0  0  0  0
   24.8978  -20.7929  -13.4799 C   0  0  0  0  0  0  0  0  0  0  0  0
   24.6944  -19.7332  -14.1283 O   0  0  0  0  0  0  0  0  0  0  0  0
   23.5177  -26.3674  -16.1636 N   0  0  0  0  0  0  0  0  0  0  0  0
   23.3204  -25.3478  -17.1275 C   0  0  0  0  0  0  0  0  0  0  0  0
   23.6287  -25.6615  -18.3614 N   0  0  0  0  0  0  0  0  0  0  0  0
   22.8218  -24.0631  -16.7957 N   0  0  0  0  0  0  0  0  0  0  0  0
   22.4622  -23.7675  -15.4433 C   0  0  0  0  0  0  0  0  0  0  0  0
   21.8454  -22.3765  -15.3068 C   0  0  0  0  0  0  0  0  0  0  0  0
   21.5356  -22.0436  -13.8913 C   0  0  0  0  0  0  0  0  0  0  0  0
   22.3831  -20.9189  -13.3458 C   0  0  2  0  0  0  0  0  0  0  0  0
   23.7235  -21.4543  -13.0195 N   0  0  0  0  0  0  0  0  0  0  0  0
   21.7961  -20.4723  -12.0680 C   0  0  0  0  0  0  0  0  0  0  0  0
   22.0191  -21.0540  -10.8299 O   0  0  0  0  0  0  0  0  0  0  0  0
   21.0209  -19.4791  -12.0799 O   0  0  0  0  0  0  0  0  0  0  0  0
  2  1  1  1
  2  3  1  0
  4  2  1  0
  4  5  1  6
  6  4  1  0
  7  6  2  0
  8  6  1  0
  9  8  1  0
  9 10  1  1
 10 11  1  0
 11 12  2  0
 12 13  1  0
 14 13  2  0
 15 14  1  0
 16 11  1  0
 16 15  2  0
 17 18  2  0
 17  9  1  0
 19 20  1  0
 20 22  1  0
 21 20  2  0
 22 23  1  0
 24 25  1  0
 24 23  1  0
 26 25  1  1
 26 27  1  0
 27 17  1  0
 28 26  1  0
 29 28  1  0
 30 28  2  0
M  END
$$$$
