TFR.pdb
     RDKit          3D

 30 30  0  0  1  0  0  0  0  0999 V2000
   28.6183  -20.0239  -17.4383 C   0  0  0  0  0  0  0  0  0  0  0  0
   28.0646  -20.3586  -16.0618 C   0  0  1  0  0  0  0  0  0  0  0  0
   26.8101  -20.9355  -16.2730 O   0  0  0  0  0  0  0  0  0  0  0  0
   28.9311  -21.4142  -15.3943 C   0  0  2  0  0  0  0  0  0  0  0  0
   28.8309  -22.6168  -16.1697 N   0  0  0  0  0  0  0  0  0  0  0  0
   28.3747  -21.5956  -14.0154 C   0  0  0  0  0  0  0  0  0  0  0  0
   27.4418  -22.3959  -13.7757 O   0  0  0  0  0  0  0  0  0  0  0  0
   28.9164  -20.8406  -12.9423 N   0  0  0  0  0  0  0  0  0  0  0  0
   28.3990  -20.9593  -11.5985 C   0  0  1  0  0  0  0  0  0  0  0  0
   29.3903  -20.3245  -10.6716 C   0  0  0  0  0  0  0  0  0  0  0  0
   28.9463  -20.1968   -9.2914 C   0  0  0  0  0  0  0  0  0  0  0  0
   29.2259  -21.1601   -8.3599 C   0  0  0  0  0  0  0  0  0  0  0  0
   28.7739  -20.9720   -7.0729 C   0  0  0  0  0  0  0  0  0  0  0  0
   28.0584  -19.8615   -6.6930 C   0  0  0  0  0  0  0  0  0  0  0  0
   27.7777  -18.8957   -7.6255 C   0  0  0  0  0  0  0  0  0  0  0  0
   28.2321  -19.0890   -8.9111 C   0  0  0  0  0  0  0  0  0  0  0  0
   27.0595  -20.3732  -11.5537 C   0  0  0  0  0  0  0  0  0  0  0  0
   26.7222  -19.3082  -12.1341 O   0  0  0  0  0  0  0  0  0  0  0  0
   20.2246  -21.9873  -15.6852 N   0  0  0  0  0  0  0  0  0  0  0  0
   19.8186  -20.9472  -14.8129 C   0  0  0  0  0  0  0  0  0  0  0  0
   18.6453  -20.4198  -15.0608 N   0  0  0  0  0  0  0  0  0  0  0  0
   20.6185  -20.4927  -13.7346 N   0  0  0  0  0  0  0  0  0  0  0  0
   21.8972  -21.0882  -13.4976 C   0  0  0  0  0  0  0  0  0  0  0  0
   22.5552  -20.5441  -12.2308 C   0  0  0  0  0  0  0  0  0  0  0  0
   23.9431  -21.0506  -12.0653 C   0  0  0  0  0  0  0  0  0  0  0  0
   24.6409  -20.4868  -10.8503 C   0  0  2  0  0  0  0  0  0  0  0  0
   26.0236  -21.0126  -10.8145 N   0  0  0  0  0  0  0  0  0  0  0  0
   23.9702  -21.0100   -9.6447 C   0  0  0  0  0  0  0  0  0  0  0  0
   22.7867  -20.5299   -9.1066 O   0  0  0  0  0  0  0  0  0  0  0  0
   24.5027  -21.9754   -9.0347 O   0  0  0  0  0  0  0  0  0  0  0  0
  2  1  1  6
  2  3  1  0
  4  2  1  0
  4  5  1  6
  6  4  1  0
  7  6  2  0
  8  6  1  0
  9  8  1  0
  9 10  1  1
 10 11  1  0
 11 12  2  0
 12 13  1  0
 14 13  2  0
 15 14  1  0
 16 11  1  0
 16 15  2  0
 17 18  2  0
 17  9  1  0
 19 20  1  0
 20 22  1  0
 21 20  2  0
 22 23  1  0
 24 25  1  0
 24 23  1  0
 26 25  1  6
 26 27  1  0
 27 17  1  0
 28 26  1  0
 29 28  1  0
 30 28  2  0
M  END
$$$$
