TFR.pdb
     RDKit          3D

 30 30  0  0  1  0  0  0  0  0999 V2000
   22.1852  -22.6931  -13.4315 C   0  0  0  0  0  0  0  0  0  0  0  0
   21.3172  -21.8523  -12.5079 C   0  0  1  0  0  0  0  0  0  0  0  0
   20.2029  -22.6349  -12.1963 O   0  0  0  0  0  0  0  0  0  0  0  0
   22.0505  -21.5860  -11.2033 C   0  0  2  0  0  0  0  0  0  0  0  0
   21.1516  -20.8872  -10.3308 N   0  0  0  0  0  0  0  0  0  0  0  0
   23.2400  -20.7483  -11.5602 C   0  0  0  0  0  0  0  0  0  0  0  0
   23.1324  -19.5391  -11.8677 O   0  0  0  0  0  0  0  0  0  0  0  0
   24.5320  -21.3361  -11.5519 N   0  0  0  0  0  0  0  0  0  0  0  0
   25.7106  -20.5744  -11.8953 C   0  0  1  0  0  0  0  0  0  0  0  0
   26.8628  -21.1485  -11.1288 C   0  0  0  0  0  0  0  0  0  0  0  0
   27.0627  -20.5807   -9.8036 C   0  0  0  0  0  0  0  0  0  0  0  0
   27.8164  -21.2229   -8.8584 C   0  0  0  0  0  0  0  0  0  0  0  0
   27.9622  -20.6260   -7.6261 C   0  0  0  0  0  0  0  0  0  0  0  0
   27.3834  -19.4191   -7.3135 C   0  0  0  0  0  0  0  0  0  0  0  0
   26.6281  -18.7747   -8.2598 C   0  0  0  0  0  0  0  0  0  0  0  0
   26.4856  -19.3762   -9.4904 C   0  0  0  0  0  0  0  0  0  0  0  0
   25.8767  -20.5893  -13.3486 C   0  0  0  0  0  0  0  0  0  0  0  0
   25.8204  -21.6216  -14.0670 O   0  0  0  0  0  0  0  0  0  0  0  0
   26.1653  -14.4100  -19.3419 N   0  0  0  0  0  0  0  0  0  0  0  0
   25.3613  -15.3878  -19.9783 C   0  0  0  0  0  0  0  0  0  0  0  0
   25.2788  -15.2981  -21.2826 N   0  0  0  0  0  0  0  0  0  0  0  0
   24.6816  -16.4065  -19.2647 N   0  0  0  0  0  0  0  0  0  0  0  0
   24.8430  -16.5106  -17.8474 C   0  0  0  0  0  0  0  0  0  0  0  0
   25.4773  -17.8395  -17.4403 C   0  0  0  0  0  0  0  0  0  0  0  0
   25.4980  -18.0151  -15.9642 C   0  0  0  0  0  0  0  0  0  0  0  0
   26.0736  -19.3425  -15.5314 C   0  0  2  0  0  0  0  0  0  0  0  0
   26.1218  -19.3758  -14.0527 N   0  0  0  0  0  0  0  0  0  0  0  0
   27.4740  -19.4137  -15.9905 C   0  0  0  0  0  0  0  0  0  0  0  0
   28.5939  -19.1978  -15.2030 O   0  0  0  0  0  0  0  0  0  0  0  0
   27.6944  -19.6915  -17.1996 O   0  0  0  0  0  0  0  0  0  0  0  0
  2  1  1  6
  2  3  1  0
  4  2  1  0
  4  5  1  1
  6  4  1  0
  7  6  2  0
  8  6  1  0
  9  8  1  0
  9 10  1  1
 10 11  1  0
 11 12  2  0
 12 13  1  0
 14 13  2  0
 15 14  1  0
 16 11  1  0
 16 15  2  0
 17 18  2  0
 17  9  1  0
 19 20  1  0
 20 22  1  0
 21 20  2  0
 22 23  1  0
 24 25  1  0
 24 23  1  0
 26 25  1  1
 26 27  1  0
 27 17  1  0
 28 26  1  0
 29 28  1  0
 30 28  2  0
M  END
$$$$
