TFR.pdb
     RDKit          3D

 30 30  0  0  1  0  0  0  0  0999 V2000
   23.1867  -24.1432   -6.9458 C   0  0  0  0  0  0  0  0  0  0  0  0
   22.6666  -22.7694   -7.3405 C   0  0  1  0  0  0  0  0  0  0  0  0
   21.2768  -22.8241   -7.2116 O   0  0  0  0  0  0  0  0  0  0  0  0
   23.1621  -21.7223   -6.3564 C   0  0  2  0  0  0  0  0  0  0  0  0
   22.0252  -20.9723   -5.9062 N   0  0  0  0  0  0  0  0  0  0  0  0
   24.1272  -20.8642   -7.1155 C   0  0  0  0  0  0  0  0  0  0  0  0
   23.8300  -19.7094   -7.4983 O   0  0  0  0  0  0  0  0  0  0  0  0
   25.4200  -21.3685   -7.4139 N   0  0  0  0  0  0  0  0  0  0  0  0
   26.3937  -20.5756   -8.1284 C   0  0  1  0  0  0  0  0  0  0  0  0
   27.7399  -20.8694   -7.5400 C   0  0  0  0  0  0  0  0  0  0  0  0
   28.0554  -20.1281   -6.3278 C   0  0  0  0  0  0  0  0  0  0  0  0
   28.5008  -20.7620   -5.1993 C   0  0  0  0  0  0  0  0  0  0  0  0
   28.7798  -19.9961   -4.0895 C   0  0  0  0  0  0  0  0  0  0  0  0
   28.6287  -18.6299   -4.0740 C   0  0  0  0  0  0  0  0  0  0  0  0
   28.1825  -17.9938   -5.2042 C   0  0  0  0  0  0  0  0  0  0  0  0
   27.9050  -18.7646   -6.3112 C   0  0  0  0  0  0  0  0  0  0  0  0
   26.2777  -20.8600   -9.5587 C   0  0  0  0  0  0  0  0  0  0  0  0
   25.9306  -21.9683  -10.0443 O   0  0  0  0  0  0  0  0  0  0  0  0
   28.0374  -18.5634  -16.5198 N   0  0  0  0  0  0  0  0  0  0  0  0
   26.7636  -18.1794  -17.0070 C   0  0  0  0  0  0  0  0  0  0  0  0
   26.5366  -18.4318  -18.2722 N   0  0  0  0  0  0  0  0  0  0  0  0
   25.7838  -17.5599  -16.1912 N   0  0  0  0  0  0  0  0  0  0  0  0
   25.9919  -17.4631  -14.7794 C   0  0  0  0  0  0  0  0  0  0  0  0
   26.0264  -18.8364  -14.1112 C   0  0  0  0  0  0  0  0  0  0  0  0
   26.1637  -18.7315  -12.6346 C   0  0  0  0  0  0  0  0  0  0  0  0
   26.3042  -20.0722  -11.9537 C   0  0  2  0  0  0  0  0  0  0  0  0
   26.5667  -19.8451  -10.5152 N   0  0  0  0  0  0  0  0  0  0  0  0
   27.5041  -20.7424  -12.4902 C   0  0  0  0  0  0  0  0  0  0  0  0
   27.5225  -21.6453  -13.5416 O   0  0  0  0  0  0  0  0  0  0  0  0
   28.6190  -20.4882  -11.9611 O   0  0  0  0  0  0  0  0  0  0  0  0
  2  1  1  1
  2  3  1  0
  4  2  1  0
  4  5  1  6
  6  4  1  0
  7  6  2  0
  8  6  1  0
  9  8  1  0
  9 10  1  1
 10 11  1  0
 11 12  2  0
 12 13  1  0
 14 13  2  0
 15 14  1  0
 16 11  1  0
 16 15  2  0
 17 18  2  0
 17  9  1  0
 19 20  1  0
 20 22  1  0
 21 20  2  0
 22 23  1  0
 24 25  1  0
 24 23  1  0
 26 25  1  6
 26 27  1  0
 27 17  1  0
 28 26  1  0
 29 28  1  0
 30 28  2  0
M  END
$$$$
