TFR.pdb
     RDKit          3D

 30 30  0  0  1  0  0  0  0  0999 V2000
   27.2361  -19.5322  -16.1895 C   0  0  0  0  0  0  0  0  0  0  0  0
   27.6672  -20.8735  -16.7626 C   0  0  1  0  0  0  0  0  0  0  0  0
   28.3164  -20.5949  -17.9677 O   0  0  0  0  0  0  0  0  0  0  0  0
   28.6912  -21.5259  -15.8481 C   0  0  2  0  0  0  0  0  0  0  0  0
   29.0324  -22.8000  -16.4118 N   0  0  0  0  0  0  0  0  0  0  0  0
   28.0235  -21.6703  -14.5150 C   0  0  0  0  0  0  0  0  0  0  0  0
   27.0985  -22.4920  -14.3211 O   0  0  0  0  0  0  0  0  0  0  0  0
   28.4467  -20.8543  -13.4334 N   0  0  0  0  0  0  0  0  0  0  0  0
   27.8213  -20.9387  -12.1337 C   0  0  1  0  0  0  0  0  0  0  0  0
   28.7319  -20.2746  -11.1466 C   0  0  0  0  0  0  0  0  0  0  0  0
   28.2174  -20.2043   -9.7869 C   0  0  0  0  0  0  0  0  0  0  0  0
   28.4720  -21.1935   -8.8756 C   0  0  0  0  0  0  0  0  0  0  0  0
   27.9527  -21.0597   -7.6073 C   0  0  0  0  0  0  0  0  0  0  0  0
   27.1945  -19.9781   -7.2266 C   0  0  0  0  0  0  0  0  0  0  0  0
   26.9389  -18.9864   -8.1389 C   0  0  0  0  0  0  0  0  0  0  0  0
   27.4606  -19.1254   -9.4058 C   0  0  0  0  0  0  0  0  0  0  0  0
   26.4813  -20.3575  -12.2148 C   0  0  0  0  0  0  0  0  0  0  0  0
   26.1830  -19.3315  -12.8806 O   0  0  0  0  0  0  0  0  0  0  0  0
   19.9567  -23.3119  -16.3178 N   0  0  0  0  0  0  0  0  0  0  0  0
   19.3427  -22.3292  -15.5024 C   0  0  0  0  0  0  0  0  0  0  0  0
   18.0984  -22.0415  -15.7944 N   0  0  0  0  0  0  0  0  0  0  0  0
   20.0168  -21.6872  -14.4336 N   0  0  0  0  0  0  0  0  0  0  0  0
   21.4127  -21.9228  -14.2296 C   0  0  0  0  0  0  0  0  0  0  0  0
   21.9771  -21.0683  -13.0959 C   0  0  0  0  0  0  0  0  0  0  0  0
   23.4201  -21.3391  -12.8627 C   0  0  0  0  0  0  0  0  0  0  0  0
   24.0083  -20.5083  -11.7471 C   0  0  2  0  0  0  0  0  0  0  0  0
   25.3986  -20.9556  -11.5089 N   0  0  0  0  0  0  0  0  0  0  0  0
   23.2636  -20.8011  -10.5074 C   0  0  0  0  0  0  0  0  0  0  0  0
   22.0398  -20.2558  -10.1528 O   0  0  0  0  0  0  0  0  0  0  0  0
   23.7658  -21.6127   -9.6848 O   0  0  0  0  0  0  0  0  0  0  0  0
  2  1  1  1
  2  3  1  0
  4  2  1  0
  4  5  1  6
  6  4  1  0
  7  6  2  0
  8  6  1  0
  9  8  1  0
  9 10  1  1
 10 11  1  0
 11 12  2  0
 12 13  1  0
 14 13  2  0
 15 14  1  0
 16 11  1  0
 16 15  2  0
 17 18  2  0
 17  9  1  0
 19 20  1  0
 20 22  1  0
 21 20  2  0
 22 23  1  0
 24 25  1  0
 24 23  1  0
 26 25  1  6
 26 27  1  0
 27 17  1  0
 28 26  1  0
 29 28  1  0
 30 28  2  0
M  END
$$$$
