TFR.pdb
     RDKit          3D

 30 30  0  0  1  0  0  0  0  0999 V2000
   23.5326  -20.7374  -15.5991 C   0  0  0  0  0  0  0  0  0  0  0  0
   24.4392  -21.7787  -16.2373 C   0  0  1  0  0  0  0  0  0  0  0  0
   24.4881  -21.4744  -17.5997 O   0  0  0  0  0  0  0  0  0  0  0  0
   25.8542  -21.6369  -15.7004 C   0  0  2  0  0  0  0  0  0  0  0  0
   26.6651  -22.6355  -16.3350 N   0  0  0  0  0  0  0  0  0  0  0  0
   25.7601  -21.8565  -14.2216 C   0  0  0  0  0  0  0  0  0  0  0  0
   25.5444  -22.9883  -13.7308 O   0  0  0  0  0  0  0  0  0  0  0  0
   25.9193  -20.7529  -13.3433 N   0  0  0  0  0  0  0  0  0  0  0  0
   25.8758  -20.9169  -11.9086 C   0  0  1  0  0  0  0  0  0  0  0  0
   26.8571  -19.9556  -11.3107 C   0  0  0  0  0  0  0  0  0  0  0  0
   26.9236  -19.9702   -9.8568 C   0  0  0  0  0  0  0  0  0  0  0  0
   26.1169  -19.1661   -9.0975 C   0  0  0  0  0  0  0  0  0  0  0  0
   26.2348  -19.2334   -7.7272 C   0  0  0  0  0  0  0  0  0  0  0  0
   27.1254  -20.0716   -7.0997 C   0  0  0  0  0  0  0  0  0  0  0  0
   27.9341  -20.8777   -7.8595 C   0  0  0  0  0  0  0  0  0  0  0  0
   27.8120  -20.8063   -9.2294 C   0  0  0  0  0  0  0  0  0  0  0  0
   24.4964  -20.7425  -11.4540 C   0  0  0  0  0  0  0  0  0  0  0  0
   23.7512  -19.7799  -11.7748 O   0  0  0  0  0  0  0  0  0  0  0  0
   19.2769  -24.1832   -6.3371 N   0  0  0  0  0  0  0  0  0  0  0  0
   18.2778  -23.7296   -7.2335 C   0  0  0  0  0  0  0  0  0  0  0  0
   17.0756  -23.5992   -6.7297 N   0  0  0  0  0  0  0  0  0  0  0  0
   18.5440  -23.4309   -8.5933 N   0  0  0  0  0  0  0  0  0  0  0  0
   19.8675  -23.5929   -9.1109 C   0  0  0  0  0  0  0  0  0  0  0  0
   20.8298  -22.5427   -8.5587 C   0  0  0  0  0  0  0  0  0  0  0  0
   22.1833  -22.6584   -9.1629 C   0  0  0  0  0  0  0  0  0  0  0  0
   22.5313  -21.5006  -10.0679 C   0  0  2  0  0  0  0  0  0  0  0  0
   23.9035  -21.7017  -10.5841 N   0  0  0  0  0  0  0  0  0  0  0  0
   22.5739  -20.2708   -9.2538 C   0  0  0  0  0  0  0  0  0  0  0  0
   21.6991  -19.2012   -9.3604 O   0  0  0  0  0  0  0  0  0  0  0  0
   23.4763  -20.1613   -8.3813 O   0  0  0  0  0  0  0  0  0  0  0  0
  2  1  1  1
  2  3  1  0
  4  2  1  0
  4  5  1  6
  6  4  1  0
  7  6  2  0
  8  6  1  0
  9  8  1  0
  9 10  1  1
 10 11  1  0
 11 12  2  0
 12 13  1  0
 14 13  2  0
 15 14  1  0
 16 11  1  0
 16 15  2  0
 17 18  2  0
 17  9  1  0
 19 20  1  0
 20 22  1  0
 21 20  2  0
 22 23  1  0
 24 25  1  0
 24 23  1  0
 26 25  1  1
 26 27  1  0
 27 17  1  0
 28 26  1  0
 29 28  1  0
 30 28  2  0
M  END
$$$$
