TFR.pdb
     RDKit          3D

 30 30  0  0  1  0  0  0  0  0999 V2000
   26.0674  -21.1638  -17.8412 C   0  0  0  0  0  0  0  0  0  0  0  0
   27.0312  -22.3333  -17.9710 C   0  0  1  0  0  0  0  0  0  0  0  0
   27.7076  -22.1522  -19.1796 O   0  0  0  0  0  0  0  0  0  0  0  0
   28.0737  -22.2743  -16.8664 C   0  0  2  0  0  0  0  0  0  0  0  0
   28.9130  -23.4306  -16.9946 N   0  0  0  0  0  0  0  0  0  0  0  0
   27.3117  -22.2826  -15.5767 C   0  0  0  0  0  0  0  0  0  0  0  0
   26.9253  -23.3463  -15.0405 O   0  0  0  0  0  0  0  0  0  0  0  0
   27.0147  -21.0509  -14.9368 N   0  0  0  0  0  0  0  0  0  0  0  0
   26.3693  -21.0071  -13.6449 C   0  0  1  0  0  0  0  0  0  0  0  0
   26.9906  -19.8901  -12.8634 C   0  0  0  0  0  0  0  0  0  0  0  0
   27.2968  -20.2071  -11.4762 C   0  0  0  0  0  0  0  0  0  0  0  0
   26.3471  -20.1082  -10.4953 C   0  0  0  0  0  0  0  0  0  0  0  0
   26.7086  -20.4245   -9.2048 C   0  0  0  0  0  0  0  0  0  0  0  0
   27.9776  -20.8322   -8.8689 C   0  0  0  0  0  0  0  0  0  0  0  0
   28.9299  -20.9316   -9.8508 C   0  0  0  0  0  0  0  0  0  0  0  0
   28.5629  -20.6142  -11.1397 C   0  0  0  0  0  0  0  0  0  0  0  0
   24.9249  -20.8846  -13.8416 C   0  0  0  0  0  0  0  0  0  0  0  0
   24.3789  -20.1889  -14.7376 O   0  0  0  0  0  0  0  0  0  0  0  0
   17.8107  -24.2233  -11.1031 N   0  0  0  0  0  0  0  0  0  0  0  0
   17.4308  -23.4942  -12.2571 C   0  0  0  0  0  0  0  0  0  0  0  0
   16.1830  -23.0974  -12.2964 N   0  0  0  0  0  0  0  0  0  0  0  0
   18.3308  -23.2032  -13.3127 N   0  0  0  0  0  0  0  0  0  0  0  0
   19.7292  -23.4520  -13.1438 C   0  0  0  0  0  0  0  0  0  0  0  0
   20.4033  -22.3740  -12.2968 C   0  0  0  0  0  0  0  0  0  0  0  0
   21.8842  -22.5050  -12.3085 C   0  0  0  0  0  0  0  0  0  0  0  0
   22.5636  -21.4929  -13.2000 C   0  0  2  0  0  0  0  0  0  0  0  0
   24.0251  -21.5816  -12.9855 N   0  0  0  0  0  0  0  0  0  0  0  0
   22.1641  -20.1427  -12.7590 C   0  0  0  0  0  0  0  0  0  0  0  0
   21.1327  -19.3896  -13.2975 O   0  0  0  0  0  0  0  0  0  0  0  0
   22.8031  -19.6081  -11.8138 O   0  0  0  0  0  0  0  0  0  0  0  0
  2  1  1  1
  2  3  1  0
  4  2  1  0
  4  5  1  1
  6  4  1  0
  7  6  2  0
  8  6  1  0
  9  8  1  0
  9 10  1  1
 10 11  1  0
 11 12  2  0
 12 13  1  0
 14 13  2  0
 15 14  1  0
 16 11  1  0
 16 15  2  0
 17 18  2  0
 17  9  1  0
 19 20  1  0
 20 22  1  0
 21 20  2  0
 22 23  1  0
 24 25  1  0
 24 23  1  0
 26 25  1  1
 26 27  1  0
 27 17  1  0
 28 26  1  0
 29 28  1  0
 30 28  2  0
M  END
$$$$
