GND.pdb
     RDKit          3D

 21 20  0  0  1  0  0  0  0  0999 V2000
    9.7671  -15.6095   13.4133 N   0  0  0  0  0  0  0  0  0  0  0  0
    8.8746  -15.8109   14.5147 C   0  0  0  0  0  0  0  0  0  0  0  0
    9.4006  -15.1768   15.7874 C   0  0  0  0  0  0  0  0  0  0  0  0
   10.6126  -14.8825   15.7475 O   0  0  0  0  0  0  0  0  0  0  0  0
    7.5677  -11.9060   20.2329 N   0  0  0  0  0  0  0  0  0  0  0  0
    7.7877  -13.3477   20.1319 C   0  0  0  0  0  0  0  0  0  0  0  0
    8.0034  -13.8804   21.2265 O   0  0  0  0  0  0  0  0  0  0  0  0
    7.7196  -13.9045   18.8058 C   0  0  0  0  0  0  0  0  0  0  0  0
    8.9664  -14.3449   18.1008 C   0  0  2  0  0  0  0  0  0  0  0  0
    8.5103  -14.9899   16.8422 N   0  0  0  0  0  0  0  0  0  0  0  0
    9.8175  -15.2998   18.8283 C   0  0  0  0  0  0  0  0  0  0  0  0
   10.1135  -16.4093   18.2423 O   0  0  0  0  0  0  0  0  0  0  0  0
   10.3404  -15.0877   20.1170 N   0  0  0  0  0  0  0  0  0  0  0  0
   11.7115  -15.4604   20.4613 C   0  0  1  0  0  0  0  0  0  0  0  0
   12.7060  -14.7441   19.5835 C   0  0  0  0  0  0  0  0  0  0  0  0
   14.0979  -15.0661   19.9476 C   0  0  0  0  0  0  0  0  0  0  0  0
   14.3423  -16.1779   20.4709 O   0  0  0  0  0  0  0  0  0  0  0  0
   11.9620  -15.3348   21.9021 C   0  0  0  0  0  0  0  0  0  0  0  0
   11.1998  -14.6631   22.6195 O   0  0  0  0  0  0  0  0  0  0  0  0
   15.1545  -14.1956   19.7386 O   0  0  0  0  0  0  0  0  0  0  0  0
   13.0479  -15.9621   22.4782 O   0  0  0  0  0  0  0  0  0  0  0  0
  2  1  1  0
  3  2  1  0
  3 10  1  0
  4  3  2  0
  5  6  1  0
  6  7  2  0
  6  8  1  0
  9  8  1  1
 10  9  1  0
 11  9  1  0
 12 11  2  0
 13 11  1  0
 14 13  1  0
 14 15  1  6
 16 15  1  0
 16 17  2  0
 18 14  1  0
 18 21  1  0
 19 18  2  0
 20 16  1  0
M  END
$$$$
