GND.pdb
     RDKit          3D

 21 20  0  0  1  0  0  0  0  0999 V2000
  -10.6151  -24.6012   25.7620 N   0  0  0  0  0  0  0  0  0  0  0  0
  -11.6431  -23.6834   26.1505 C   0  0  0  0  0  0  0  0  0  0  0  0
  -11.1480  -22.6889   27.1822 C   0  0  0  0  0  0  0  0  0  0  0  0
  -11.8097  -21.6320   27.2305 O   0  0  0  0  0  0  0  0  0  0  0  0
   -8.8296  -24.7961   30.2063 N   0  0  0  0  0  0  0  0  0  0  0  0
  -10.0482  -24.2549   30.8058 C   0  0  0  0  0  0  0  0  0  0  0  0
  -10.5148  -24.9824   31.6899 O   0  0  0  0  0  0  0  0  0  0  0  0
  -10.5000  -22.9912   30.2841 C   0  0  0  0  0  0  0  0  0  0  0  0
   -9.7319  -22.2973   29.2006 C   0  0  2  0  0  0  0  0  0  0  0  0
  -10.0403  -23.0392   27.9506 N   0  0  0  0  0  0  0  0  0  0  0  0
   -8.2704  -22.2586   29.3673 C   0  0  0  0  0  0  0  0  0  0  0  0
   -7.8047  -21.8661   30.5036 O   0  0  0  0  0  0  0  0  0  0  0  0
   -7.3404  -22.6268   28.3779 N   0  0  0  0  0  0  0  0  0  0  0  0
   -5.9682  -23.0023   28.7144 C   0  0  1  0  0  0  0  0  0  0  0  0
   -5.7606  -23.0216   30.2074 C   0  0  0  0  0  0  0  0  0  0  0  0
   -4.3796  -23.3900   30.5693 C   0  0  0  0  0  0  0  0  0  0  0  0
   -3.4715  -23.2315   29.7209 O   0  0  0  0  0  0  0  0  0  0  0  0
   -5.5561  -24.2288   28.0214 C   0  0  0  0  0  0  0  0  0  0  0  0
   -4.6488  -24.1996   27.1713 O   0  0  0  0  0  0  0  0  0  0  0  0
   -4.0348  -23.9053   31.8076 O   0  0  0  0  0  0  0  0  0  0  0  0
   -6.1716  -25.4307   28.3061 O   0  0  0  0  0  0  0  0  0  0  0  0
  2  1  1  0
  3  2  1  0
  3 10  1  0
  4  3  2  0
  5  6  1  0
  6  7  2  0
  6  8  1  0
  9  8  1  1
 10  9  1  0
 11  9  1  0
 12 11  2  0
 13 11  1  0
 14 13  1  0
 14 15  1  1
 16 15  1  0
 16 17  2  0
 18 14  1  0
 18 21  1  0
 19 18  2  0
 20 16  1  0
M  END
$$$$
