GND.pdb
     RDKit          3D

 21 20  0  0  1  0  0  0  0  0999 V2000
    9.7516  -15.6683   13.6691 N   0  0  0  0  0  0  0  0  0  0  0  0
    9.6031  -16.2277   14.9788 C   0  0  0  0  0  0  0  0  0  0  0  0
   10.0577  -15.2633   16.0566 C   0  0  0  0  0  0  0  0  0  0  0  0
   10.9062  -14.4326   15.6730 O   0  0  0  0  0  0  0  0  0  0  0  0
    8.0365  -12.4978   18.5746 N   0  0  0  0  0  0  0  0  0  0  0  0
    7.8852  -13.6043   19.5182 C   0  0  0  0  0  0  0  0  0  0  0  0
    6.8630  -13.5137   20.2076 O   0  0  0  0  0  0  0  0  0  0  0  0
    8.9256  -14.5994   19.4948 C   0  0  0  0  0  0  0  0  0  0  0  0
    9.9983  -14.5538   18.4495 C   0  0  2  0  0  0  0  0  0  0  0  0
    9.5028  -15.3929   17.3277 N   0  0  0  0  0  0  0  0  0  0  0  0
   11.3194  -15.0583   18.8564 C   0  0  0  0  0  0  0  0  0  0  0  0
   11.5085  -16.3334   18.8371 O   0  0  0  0  0  0  0  0  0  0  0  0
   12.3976  -14.2492   19.2588 N   0  0  0  0  0  0  0  0  0  0  0  0
   13.7336  -14.8013   19.4773 C   0  0  1  0  0  0  0  0  0  0  0  0
   14.8012  -13.8100   19.0897 C   0  0  0  0  0  0  0  0  0  0  0  0
   16.1571  -14.3663   19.2503 C   0  0  0  0  0  0  0  0  0  0  0  0
   16.7434  -14.2182   20.3476 O   0  0  0  0  0  0  0  0  0  0  0  0
   13.8754  -15.3599   20.8272 C   0  0  0  0  0  0  0  0  0  0  0  0
   14.9118  -15.9644   21.1549 O   0  0  0  0  0  0  0  0  0  0  0  0
   16.8185  -15.0482   18.2426 O   0  0  0  0  0  0  0  0  0  0  0  0
   12.8589  -15.2200   21.7500 O   0  0  0  0  0  0  0  0  0  0  0  0
  2  1  1  0
  3  2  1  0
  3 10  1  0
  4  3  2  0
  5  6  1  0
  6  7  2  0
  6  8  1  0
  9  8  1  1
 10  9  1  0
 11  9  1  0
 12 11  2  0
 13 11  1  0
 14 13  1  0
 14 15  1  1
 16 15  1  0
 16 17  2  0
 18 14  1  0
 18 21  1  0
 19 18  2  0
 20 16  1  0
M  END
$$$$
