GND.pdb
     RDKit          3D

 21 20  0  0  1  0  0  0  0  0999 V2000
    9.1517  -18.4484   16.5149 N   0  0  0  0  0  0  0  0  0  0  0  0
    8.8425  -17.8410   17.7742 C   0  0  0  0  0  0  0  0  0  0  0  0
    9.5380  -16.5040   17.9391 C   0  0  0  0  0  0  0  0  0  0  0  0
   10.3510  -16.2365   17.0310 O   0  0  0  0  0  0  0  0  0  0  0  0
    7.7765  -12.0266   18.4193 N   0  0  0  0  0  0  0  0  0  0  0  0
    7.6934  -13.1876   19.3039 C   0  0  0  0  0  0  0  0  0  0  0  0
    6.5623  -13.6852   19.3415 O   0  0  0  0  0  0  0  0  0  0  0  0
    8.9128  -13.5580   19.9741 C   0  0  0  0  0  0  0  0  0  0  0  0
    9.9145  -14.4429   19.2966 C   0  0  2  0  0  0  0  0  0  0  0  0
    9.2130  -15.7295   19.0503 N   0  0  0  0  0  0  0  0  0  0  0  0
   11.1450  -14.7241   20.0531 C   0  0  0  0  0  0  0  0  0  0  0  0
   11.0342  -15.3694   21.1637 O   0  0  0  0  0  0  0  0  0  0  0  0
   12.4386  -14.3465   19.6491 N   0  0  0  0  0  0  0  0  0  0  0  0
   13.6258  -14.7394   20.4062 C   0  0  1  0  0  0  0  0  0  0  0  0
   13.6402  -16.2251   20.6619 C   0  0  0  0  0  0  0  0  0  0  0  0
   14.8682  -16.6553   21.3552 C   0  0  0  0  0  0  0  0  0  0  0  0
   15.9779  -16.3742   20.8460 O   0  0  0  0  0  0  0  0  0  0  0  0
   14.8541  -14.2085   19.8029 C   0  0  0  0  0  0  0  0  0  0  0  0
   15.9279  -14.2341   20.4299 O   0  0  0  0  0  0  0  0  0  0  0  0
   14.8557  -17.3587   22.5481 O   0  0  0  0  0  0  0  0  0  0  0  0
   14.8314  -13.6743   18.5307 O   0  0  0  0  0  0  0  0  0  0  0  0
  2  1  1  0
  3  2  1  0
  3 10  1  0
  4  3  2  0
  5  6  1  0
  6  7  2  0
  6  8  1  0
  9  8  1  1
 10  9  1  0
 11  9  1  0
 12 11  2  0
 13 11  1  0
 14 13  1  0
 14 15  1  6
 16 15  1  0
 16 17  2  0
 18 14  1  0
 18 21  1  0
 19 18  2  0
 20 16  1  0
M  END
$$$$
