GND.pdb
     RDKit          3D

 21 20  0  0  1  0  0  0  0  0999 V2000
    9.2532  -19.1886   19.1230 N   0  0  0  0  0  0  0  0  0  0  0  0
    8.1487  -18.2809   19.0438 C   0  0  0  0  0  0  0  0  0  0  0  0
    8.5793  -16.8487   19.2925 C   0  0  0  0  0  0  0  0  0  0  0  0
    8.5160  -16.1147   18.2853 O   0  0  0  0  0  0  0  0  0  0  0  0
    8.7014  -13.1563   18.9061 N   0  0  0  0  0  0  0  0  0  0  0  0
    7.6389  -13.4069   19.8786 C   0  0  0  0  0  0  0  0  0  0  0  0
    6.6337  -12.7140   19.6837 O   0  0  0  0  0  0  0  0  0  0  0  0
    7.9252  -14.3970   20.8841 C   0  0  0  0  0  0  0  0  0  0  0  0
    9.2579  -15.0812   20.9199 C   0  0  2  0  0  0  0  0  0  0  0  0
    8.9898  -16.5022   20.5777 N   0  0  0  0  0  0  0  0  0  0  0  0
    9.9706  -15.0416   22.2067 C   0  0  0  0  0  0  0  0  0  0  0  0
    9.2718  -14.8700   23.2764 O   0  0  0  0  0  0  0  0  0  0  0  0
   11.3619  -15.1854   22.3575 N   0  0  0  0  0  0  0  0  0  0  0  0
   11.9388  -16.0309   23.4013 C   0  0  1  0  0  0  0  0  0  0  0  0
   11.1808  -17.3275   23.5308 C   0  0  0  0  0  0  0  0  0  0  0  0
   11.7410  -18.1930   24.5849 C   0  0  0  0  0  0  0  0  0  0  0  0
   12.6717  -18.9777   24.2891 O   0  0  0  0  0  0  0  0  0  0  0  0
   13.3895  -16.1817   23.2369 C   0  0  0  0  0  0  0  0  0  0  0  0
   13.8799  -16.3855   22.1122 O   0  0  0  0  0  0  0  0  0  0  0  0
   11.2867  -18.1812   25.8931 O   0  0  0  0  0  0  0  0  0  0  0  0
   14.2275  -16.0984   24.3302 O   0  0  0  0  0  0  0  0  0  0  0  0
  2  1  1  0
  3  2  1  0
  3 10  1  0
  4  3  2  0
  5  6  1  0
  6  7  2  0
  6  8  1  0
  9  8  1  1
 10  9  1  0
 11  9  1  0
 12 11  2  0
 13 11  1  0
 14 13  1  0
 14 15  1  6
 16 15  1  0
 16 17  2  0
 18 14  1  0
 18 21  1  0
 19 18  2  0
 20 16  1  0
M  END
$$$$
