GND.pdb
     RDKit          3D

 21 20  0  0  1  0  0  0  0  0999 V2000
    6.0215  -19.5003   19.1091 N   0  0  0  0  0  0  0  0  0  0  0  0
    6.0459  -18.3588   19.9732 C   0  0  0  0  0  0  0  0  0  0  0  0
    7.3480  -17.5914   19.8536 C   0  0  0  0  0  0  0  0  0  0  0  0
    8.2722  -18.2355   19.3169 O   0  0  0  0  0  0  0  0  0  0  0  0
    6.7583  -12.5315   19.2036 N   0  0  0  0  0  0  0  0  0  0  0  0
    7.8173  -13.5312   19.0753 C   0  0  0  0  0  0  0  0  0  0  0  0
    8.1379  -13.7459   17.9008 O   0  0  0  0  0  0  0  0  0  0  0  0
    8.3067  -14.0928   20.3075 C   0  0  0  0  0  0  0  0  0  0  0  0
    8.6718  -15.5438   20.3899 C   0  0  2  0  0  0  0  0  0  0  0  0
    7.3854  -16.2858   20.3377 N   0  0  0  0  0  0  0  0  0  0  0  0
    9.3976  -15.9602   21.6004 C   0  0  0  0  0  0  0  0  0  0  0  0
    8.8961  -15.6373   22.7433 O   0  0  0  0  0  0  0  0  0  0  0  0
   10.5980  -16.6937   21.6031 N   0  0  0  0  0  0  0  0  0  0  0  0
   11.2870  -17.0359   22.8463 C   0  0  1  0  0  0  0  0  0  0  0  0
   11.7594  -18.4674   22.8293 C   0  0  0  0  0  0  0  0  0  0  0  0
   10.6952  -19.4059   23.2299 C   0  0  0  0  0  0  0  0  0  0  0  0
    9.5820  -18.9444   23.5726 O   0  0  0  0  0  0  0  0  0  0  0  0
   12.3231  -16.0515   23.1808 C   0  0  0  0  0  0  0  0  0  0  0  0
   12.8199  -16.0200   24.3206 O   0  0  0  0  0  0  0  0  0  0  0  0
   10.8661  -20.7801   23.2460 O   0  0  0  0  0  0  0  0  0  0  0  0
   12.7590  -15.1485   22.2326 O   0  0  0  0  0  0  0  0  0  0  0  0
  2  1  1  0
  3  2  1  0
  3 10  1  0
  4  3  2  0
  5  6  1  0
  6  7  2  0
  6  8  1  0
  9  8  1  1
 10  9  1  0
 11  9  1  0
 12 11  2  0
 13 11  1  0
 14 13  1  0
 14 15  1  6
 16 15  1  0
 16 17  2  0
 18 14  1  0
 18 21  1  0
 19 18  2  0
 20 16  1  0
M  END
$$$$
