GND.pdb
     RDKit          3D

 21 20  0  0  1  0  0  0  0  0999 V2000
    5.5708  -19.3652   19.7556 N   0  0  0  0  0  0  0  0  0  0  0  0
    5.5502  -18.0550   20.3329 C   0  0  0  0  0  0  0  0  0  0  0  0
    6.9295  -17.4258   20.3475 C   0  0  0  0  0  0  0  0  0  0  0  0
    7.8361  -18.1742   19.9293 O   0  0  0  0  0  0  0  0  0  0  0  0
    7.1687  -12.2091   19.2094 N   0  0  0  0  0  0  0  0  0  0  0  0
    7.8152  -13.5181   19.2855 C   0  0  0  0  0  0  0  0  0  0  0  0
    8.0135  -14.0233   18.1747 O   0  0  0  0  0  0  0  0  0  0  0  0
    8.1112  -13.9990   20.6100 C   0  0  0  0  0  0  0  0  0  0  0  0
    8.3766  -15.4542   20.8492 C   0  0  2  0  0  0  0  0  0  0  0  0
    7.0473  -16.1172   20.8103 N   0  0  0  0  0  0  0  0  0  0  0  0
    9.0250  -15.7919   22.1263 C   0  0  0  0  0  0  0  0  0  0  0  0
    8.6592  -15.1409   23.1773 O   0  0  0  0  0  0  0  0  0  0  0  0
   10.0123  -16.7811   22.2875 N   0  0  0  0  0  0  0  0  0  0  0  0
   10.6409  -17.0360   23.5825 C   0  0  1  0  0  0  0  0  0  0  0  0
   10.7410  -18.5150   23.8562 C   0  0  0  0  0  0  0  0  0  0  0  0
   11.4832  -18.7989   25.0981 C   0  0  0  0  0  0  0  0  0  0  0  0
   11.0533  -18.3307   26.1777 O   0  0  0  0  0  0  0  0  0  0  0  0
   11.9014  -16.2981   23.7280 C   0  0  0  0  0  0  0  0  0  0  0  0
   12.4579  -16.2110   24.8369 O   0  0  0  0  0  0  0  0  0  0  0  0
   12.6385  -19.5619   25.1305 O   0  0  0  0  0  0  0  0  0  0  0  0
   12.4846  -15.6918   22.6341 O   0  0  0  0  0  0  0  0  0  0  0  0
  2  1  1  0
  3  2  1  0
  3 10  1  0
  4  3  2  0
  5  6  1  0
  6  7  2  0
  6  8  1  0
  9  8  1  1
 10  9  1  0
 11  9  1  0
 12 11  2  0
 13 11  1  0
 14 13  1  0
 14 15  1  6
 16 15  1  0
 16 17  2  0
 18 14  1  0
 18 21  1  0
 19 18  2  0
 20 16  1  0
M  END
$$$$
