GND.pdb
     RDKit          3D

 21 20  0  0  1  0  0  0  0  0999 V2000
   10.1859  -15.8236   12.5873 N   0  0  0  0  0  0  0  0  0  0  0  0
   10.3318  -16.5326   13.8227 C   0  0  0  0  0  0  0  0  0  0  0  0
   10.5706  -15.5906   14.9864 C   0  0  0  0  0  0  0  0  0  0  0  0
   11.6484  -14.9650   14.9234 O   0  0  0  0  0  0  0  0  0  0  0  0
    7.6627  -12.5054   19.0318 N   0  0  0  0  0  0  0  0  0  0  0  0
    8.3039  -13.8189   19.0575 C   0  0  0  0  0  0  0  0  0  0  0  0
    8.6310  -14.1737   20.1957 O   0  0  0  0  0  0  0  0  0  0  0  0
    8.4487  -14.4747   17.7838 C   0  0  0  0  0  0  0  0  0  0  0  0
    9.8034  -14.6478   17.1670 C   0  0  2  0  0  0  0  0  0  0  0  0
    9.5967  -15.5168   15.9795 N   0  0  0  0  0  0  0  0  0  0  0  0
   10.8284  -15.2678   18.0215 C   0  0  0  0  0  0  0  0  0  0  0  0
   10.8439  -16.5542   18.1055 O   0  0  0  0  0  0  0  0  0  0  0  0
   11.8011  -14.5589   18.7500 N   0  0  0  0  0  0  0  0  0  0  0  0
   12.7350  -15.2369   19.6474 C   0  0  1  0  0  0  0  0  0  0  0  0
   14.0275  -14.4702   19.7666 C   0  0  0  0  0  0  0  0  0  0  0  0
   14.8396  -14.5606   18.5393 C   0  0  0  0  0  0  0  0  0  0  0  0
   14.9608  -15.6737   17.9773 O   0  0  0  0  0  0  0  0  0  0  0  0
   12.1046  -15.5802   20.9277 C   0  0  0  0  0  0  0  0  0  0  0  0
   11.2658  -14.8198   21.4426 O   0  0  0  0  0  0  0  0  0  0  0  0
   15.4786  -13.4698   17.9739 O   0  0  0  0  0  0  0  0  0  0  0  0
   12.4356  -16.7528   21.5756 O   0  0  0  0  0  0  0  0  0  0  0  0
  2  1  1  0
  3  2  1  0
  3 10  1  0
  4  3  2  0
  5  6  1  0
  6  7  2  0
  6  8  1  0
  9  8  1  1
 10  9  1  0
 11  9  1  0
 12 11  2  0
 13 11  1  0
 14 13  1  0
 14 15  1  1
 16 15  1  0
 16 17  2  0
 18 14  1  0
 18 21  1  0
 19 18  2  0
 20 16  1  0
M  END
$$$$
