GND.pdb
     RDKit          3D

 21 20  0  0  1  0  0  0  0  0999 V2000
    7.7707  -19.2424   20.2427 N   0  0  0  0  0  0  0  0  0  0  0  0
    7.8732  -18.9879   21.6480 C   0  0  0  0  0  0  0  0  0  0  0  0
    8.6790  -17.7362   21.9351 C   0  0  0  0  0  0  0  0  0  0  0  0
    9.0977  -17.1537   20.9140 O   0  0  0  0  0  0  0  0  0  0  0  0
    8.1759  -17.5634   26.0127 N   0  0  0  0  0  0  0  0  0  0  0  0
    7.9364  -16.2324   25.4573 C   0  0  0  0  0  0  0  0  0  0  0  0
    6.7709  -15.8491   25.6091 O   0  0  0  0  0  0  0  0  0  0  0  0
    9.0688  -15.5951   24.8371 C   0  0  0  0  0  0  0  0  0  0  0  0
    9.6893  -16.1789   23.6044 C   0  0  2  0  0  0  0  0  0  0  0  0
    8.8675  -17.3696   23.2656 N   0  0  0  0  0  0  0  0  0  0  0  0
   11.0927  -16.6046   23.7264 C   0  0  0  0  0  0  0  0  0  0  0  0
   11.3232  -17.8195   24.0910 O   0  0  0  0  0  0  0  0  0  0  0  0
   12.2052  -15.7837   23.4662 N   0  0  0  0  0  0  0  0  0  0  0  0
   13.5670  -16.3152   23.4557 C   0  0  1  0  0  0  0  0  0  0  0  0
   14.5120  -15.3745   22.7522 C   0  0  0  0  0  0  0  0  0  0  0  0
   15.8741  -15.9300   22.6535 C   0  0  0  0  0  0  0  0  0  0  0  0
   16.5013  -16.1796   23.7090 O   0  0  0  0  0  0  0  0  0  0  0  0
   13.9979  -16.7292   24.7963 C   0  0  0  0  0  0  0  0  0  0  0  0
   13.5914  -16.1255   25.8049 O   0  0  0  0  0  0  0  0  0  0  0  0
   16.4981  -16.1909   21.4451 O   0  0  0  0  0  0  0  0  0  0  0  0
   14.8601  -17.7952   24.9533 O   0  0  0  0  0  0  0  0  0  0  0  0
  2  1  1  0
  3  2  1  0
  3 10  1  0
  4  3  2  0
  5  6  1  0
  6  7  2  0
  6  8  1  0
  9  8  1  1
 10  9  1  0
 11  9  1  0
 12 11  2  0
 13 11  1  0
 14 13  1  0
 14 15  1  1
 16 15  1  0
 16 17  2  0
 18 14  1  0
 18 21  1  0
 19 18  2  0
 20 16  1  0
M  END
$$$$
