GND.pdb
     RDKit          3D

 21 20  0  0  1  0  0  0  0  0999 V2000
    7.8575  -19.3408   17.3815 N   0  0  0  0  0  0  0  0  0  0  0  0
    7.2637  -18.4557   18.3377 C   0  0  0  0  0  0  0  0  0  0  0  0
    8.2873  -17.5174   18.9463 C   0  0  0  0  0  0  0  0  0  0  0  0
    9.4619  -17.7442   18.5910 O   0  0  0  0  0  0  0  0  0  0  0  0
    6.3295  -12.8697   19.6723 N   0  0  0  0  0  0  0  0  0  0  0  0
    7.6564  -13.4778   19.5884 C   0  0  0  0  0  0  0  0  0  0  0  0
    8.2663  -13.1643   18.5597 O   0  0  0  0  0  0  0  0  0  0  0  0
    8.0328  -14.3242   20.6907 C   0  0  0  0  0  0  0  0  0  0  0  0
    8.7961  -15.5912   20.4507 C   0  0  2  0  0  0  0  0  0  0  0  0
    7.8332  -16.5264   19.8133 N   0  0  0  0  0  0  0  0  0  0  0  0
    9.3554  -16.2451   21.6444 C   0  0  0  0  0  0  0  0  0  0  0  0
    8.5933  -17.0513   22.3013 O   0  0  0  0  0  0  0  0  0  0  0  0
   10.6668  -16.0613   22.1192 N   0  0  0  0  0  0  0  0  0  0  0  0
   11.1418  -16.7143   23.3379 C   0  0  1  0  0  0  0  0  0  0  0  0
   12.6479  -16.7709   23.3724 C   0  0  0  0  0  0  0  0  0  0  0  0
   13.2168  -17.1606   22.0692 C   0  0  0  0  0  0  0  0  0  0  0  0
   12.9571  -18.2986   21.6141 O   0  0  0  0  0  0  0  0  0  0  0  0
   10.5215  -16.1401   24.5379 C   0  0  0  0  0  0  0  0  0  0  0  0
   10.7474  -16.6265   25.6600 O   0  0  0  0  0  0  0  0  0  0  0  0
   14.0286  -16.3263   21.3191 O   0  0  0  0  0  0  0  0  0  0  0  0
    9.6794  -15.0517   24.4345 O   0  0  0  0  0  0  0  0  0  0  0  0
  2  1  1  0
  3  2  1  0
  3 10  1  0
  4  3  2  0
  5  6  1  0
  6  7  2  0
  6  8  1  0
  9  8  1  1
 10  9  1  0
 11  9  1  0
 12 11  2  0
 13 11  1  0
 14 13  1  0
 14 15  1  1
 16 15  1  0
 16 17  2  0
 18 14  1  0
 18 21  1  0
 19 18  2  0
 20 16  1  0
M  END
$$$$
