GND.pdb
     RDKit          3D

 21 20  0  0  1  0  0  0  0  0999 V2000
    4.8057  -19.6606   18.2274 N   0  0  0  0  0  0  0  0  0  0  0  0
    4.8490  -18.6774   19.2674 C   0  0  0  0  0  0  0  0  0  0  0  0
    6.1748  -17.9423   19.2909 C   0  0  0  0  0  0  0  0  0  0  0  0
    7.0398  -18.4261   18.5328 O   0  0  0  0  0  0  0  0  0  0  0  0
    7.4555  -12.1608   20.2167 N   0  0  0  0  0  0  0  0  0  0  0  0
    8.0152  -13.5075   20.1144 C   0  0  0  0  0  0  0  0  0  0  0  0
    9.2370  -13.5089   19.9259 O   0  0  0  0  0  0  0  0  0  0  0  0
    7.0770  -14.5918   20.2465 C   0  0  0  0  0  0  0  0  0  0  0  0
    7.5322  -16.0126   20.1073 C   0  0  2  0  0  0  0  0  0  0  0  0
    6.2949  -16.8353   20.1278 N   0  0  0  0  0  0  0  0  0  0  0  0
    8.4350  -16.5083   21.1584 C   0  0  0  0  0  0  0  0  0  0  0  0
    7.9248  -16.7800   22.3107 O   0  0  0  0  0  0  0  0  0  0  0  0
    9.8170  -16.7157   20.9962 N   0  0  0  0  0  0  0  0  0  0  0  0
   10.6455  -17.2531   22.0742 C   0  0  1  0  0  0  0  0  0  0  0  0
   11.8636  -17.9521   21.5265 C   0  0  0  0  0  0  0  0  0  0  0  0
   12.7437  -18.4518   22.5987 C   0  0  0  0  0  0  0  0  0  0  0  0
   12.2809  -19.2716   23.4254 O   0  0  0  0  0  0  0  0  0  0  0  0
   10.9276  -16.2397   23.0979 C   0  0  0  0  0  0  0  0  0  0  0  0
   10.8596  -15.0286   22.8233 O   0  0  0  0  0  0  0  0  0  0  0  0
   14.0640  -18.0578   22.7379 O   0  0  0  0  0  0  0  0  0  0  0  0
   11.2717  -16.6199   24.3791 O   0  0  0  0  0  0  0  0  0  0  0  0
  2  1  1  0
  3  2  1  0
  3 10  1  0
  4  3  2  0
  5  6  1  0
  6  7  2  0
  6  8  1  0
  9  8  1  1
 10  9  1  0
 11  9  1  0
 12 11  2  0
 13 11  1  0
 14 13  1  0
 14 15  1  6
 16 15  1  0
 16 17  2  0
 18 14  1  0
 18 21  1  0
 19 18  2  0
 20 16  1  0
M  END
$$$$
