GND.pdb
     RDKit          3D

 21 20  0  0  1  0  0  0  0  0999 V2000
    9.7223  -16.1953   13.6914 N   0  0  0  0  0  0  0  0  0  0  0  0
    9.2256  -16.3736   15.0224 C   0  0  0  0  0  0  0  0  0  0  0  0
    9.8632  -15.4010   15.9951 C   0  0  0  0  0  0  0  0  0  0  0  0
   10.8100  -14.7458   15.5143 O   0  0  0  0  0  0  0  0  0  0  0  0
    7.8271  -12.5884   17.8883 N   0  0  0  0  0  0  0  0  0  0  0  0
    7.8157  -13.3343   19.1457 C   0  0  0  0  0  0  0  0  0  0  0  0
    6.8376  -13.0700   19.8542 O   0  0  0  0  0  0  0  0  0  0  0  0
    8.9184  -14.2365   19.3535 C   0  0  0  0  0  0  0  0  0  0  0  0
    9.9580  -14.4244   18.2907 C   0  0  2  0  0  0  0  0  0  0  0  0
    9.3477  -15.3349   17.2874 N   0  0  0  0  0  0  0  0  0  0  0  0
   11.2343  -15.0097   18.7310 C   0  0  0  0  0  0  0  0  0  0  0  0
   11.3006  -16.2922   18.8444 O   0  0  0  0  0  0  0  0  0  0  0  0
   12.3939  -14.2716   19.0309 N   0  0  0  0  0  0  0  0  0  0  0  0
   13.6730  -14.9258   19.3015 C   0  0  1  0  0  0  0  0  0  0  0  0
   14.8290  -14.0476   18.8950 C   0  0  0  0  0  0  0  0  0  0  0  0
   16.1298  -14.6985   19.1364 C   0  0  0  0  0  0  0  0  0  0  0  0
   16.5976  -14.6979   20.2986 O   0  0  0  0  0  0  0  0  0  0  0  0
   13.7420  -15.4339   20.6767 C   0  0  0  0  0  0  0  0  0  0  0  0
   12.9767  -14.9927   21.5522 O   0  0  0  0  0  0  0  0  0  0  0  0
   16.8641  -15.3139   18.1365 O   0  0  0  0  0  0  0  0  0  0  0  0
   14.6582  -16.4091   21.0145 O   0  0  0  0  0  0  0  0  0  0  0  0
  2  1  1  0
  3  2  1  0
  3 10  1  0
  4  3  2  0
  5  6  1  0
  6  7  2  0
  6  8  1  0
  9  8  1  1
 10  9  1  0
 11  9  1  0
 12 11  2  0
 13 11  1  0
 14 13  1  0
 14 15  1  1
 16 15  1  0
 16 17  2  0
 18 14  1  0
 18 21  1  0
 19 18  2  0
 20 16  1  0
M  END
$$$$
