RDL.pdb
     RDKit          3D

 28 27  0  0  1  0  0  0  0  0999 V2000
    7.7785  -14.3292   14.7269 N   0  0  0  0  0  0  0  0  0  0  0  0
    8.3922  -15.3110   15.5626 C   0  0  0  0  0  0  0  0  0  0  0  0
    8.4439  -16.5254   15.1619 N   0  0  0  0  0  0  0  0  0  0  0  0
    8.9208  -14.8925   16.8103 N   0  0  0  0  0  0  0  0  0  0  0  0
    8.8632  -13.4585   17.1501 C   0  0  0  0  0  0  0  0  0  0  0  0
    7.6151  -13.2410   17.9250 C   0  0  0  0  0  0  0  0  0  0  0  0
    7.4218  -14.0466   19.1506 C   0  0  0  0  0  0  0  0  0  0  0  0
    7.9194  -13.4559   20.4365 C   0  0  2  0  0  0  0  0  0  0  0  0
    9.1438  -12.7396   20.1849 N   0  0  0  0  0  0  0  0  0  0  0  0
    8.2422  -14.6211   21.3232 C   0  0  0  0  0  0  0  0  0  0  0  0
    7.2786  -15.3821   21.6295 O   0  0  0  0  0  0  0  0  0  0  0  0
    8.9219  -17.2866   15.6480 N   0  0  0  0  0  0  0  0  0  0  0  0
    9.5450  -14.8646   21.7954 C   0  0  1  0  0  0  0  0  0  0  0  0
    9.7288  -16.0713   22.6648 C   0  0  0  0  0  0  0  0  0  0  0  0
   11.0161  -16.6690   22.1983 C   0  0  0  0  0  0  0  0  0  0  0  0
   11.4865  -17.8677   22.8596 O   0  0  0  0  0  0  0  0  0  0  0  0
   10.7893  -18.6068   23.5849 C   0  0  0  0  0  0  0  0  0  0  0  0
    9.6984  -15.6100   24.0588 O   0  0  0  0  0  0  0  0  0  0  0  0
   10.7449  -14.9878   24.4678 O   0  0  0  0  0  0  0  0  0  0  0  0
   12.8261  -18.3049   22.7255 C   0  0  0  0  0  0  0  0  0  0  0  0
    6.0429  -12.7753   26.2875 C   0  0  1  0  0  0  0  0  0  0  0  0
    7.4232  -13.3233   26.0319 C   0  0  0  0  0  0  0  0  0  0  0  0
    8.3936  -12.2055   26.4616 C   0  0  0  0  0  0  0  0  0  0  0  0
    7.7467  -14.5052   26.8959 C   0  0  2  0  0  0  0  0  0  0  0  0
    8.8740  -15.3532   26.4150 N   0  0  0  0  0  0  0  0  0  0  0  0
    8.6745  -15.7508   25.0101 C   0  0  0  0  0  0  0  0  0  0  0  0
    9.1421  -16.5486   27.2511 O   0  0  0  0  0  0  0  0  0  0  0  0
    8.9457  -17.6983   26.7824 O   0  0  0  0  0  0  0  0  0  0  0  0
  2  4  1  0
  2  1  1  0
  3  2  2  0
  5  4  1  0
  6  5  1  0
  7  6  1  0
  8  9  1  6
  8  7  1  0
 10  8  1  0
 11 10  2  0
 12 10  1  0
 13 14  1  1
 13 12  1  0
 15 19  1  0
 15 14  1  0
 16 15  2  0
 17 13  1  0
 18 17  2  0
 21 20  1  6
 22 21  1  0
 23 21  1  0
 24 23  1  6
 24 25  1  0
 25 17  1  0
 26 28  1  0
 26 24  1  0
 27 26  2  0
M  END
$$$$
