RDL.pdb
     RDKit          3D

 28 27  0  0  1  0  0  0  0  0999 V2000
    8.6573  -12.6223   20.4919 N   0  0  0  0  0  0  0  0  0  0  0  0
    7.6472  -12.8700   19.5135 C   0  0  0  0  0  0  0  0  0  0  0  0
    7.7677  -12.3523   18.3493 N   0  0  0  0  0  0  0  0  0  0  0  0
    6.5459  -13.6852   19.8795 N   0  0  0  0  0  0  0  0  0  0  0  0
    6.6949  -14.5850   21.0385 C   0  0  0  0  0  0  0  0  0  0  0  0
    7.7585  -15.5645   20.6995 C   0  0  0  0  0  0  0  0  0  0  0  0
    8.0455  -16.6306   21.6841 C   0  0  0  0  0  0  0  0  0  0  0  0
    9.2236  -17.5154   21.4022 C   0  0  2  0  0  0  0  0  0  0  0  0
    8.7614  -18.8623   21.1838 N   0  0  0  0  0  0  0  0  0  0  0  0
   10.0478  -17.5094   22.6548 C   0  0  0  0  0  0  0  0  0  0  0  0
    9.8951  -18.4929   23.4364 O   0  0  0  0  0  0  0  0  0  0  0  0
    7.1003  -12.4626   17.5832 N   0  0  0  0  0  0  0  0  0  0  0  0
   10.9469  -16.4696   22.9547 C   0  0  2  0  0  0  0  0  0  0  0  0
   11.8230  -16.6655   24.1546 C   0  0  0  0  0  0  0  0  0  0  0  0
   12.9033  -15.6465   23.9924 C   0  0  0  0  0  0  0  0  0  0  0  0
   13.7350  -15.7218   22.8100 O   0  0  0  0  0  0  0  0  0  0  0  0
   14.2266  -14.7402   22.2156 C   0  0  0  0  0  0  0  0  0  0  0  0
   10.9709  -16.5204   25.3419 O   0  0  0  0  0  0  0  0  0  0  0  0
   11.5607  -16.6474   26.4758 O   0  0  0  0  0  0  0  0  0  0  0  0
   14.0633  -16.9654   22.2189 C   0  0  0  0  0  0  0  0  0  0  0  0
    6.6402  -13.1910   26.0395 C   0  0  1  0  0  0  0  0  0  0  0  0
    7.9109  -13.9876   26.1856 C   0  0  0  0  0  0  0  0  0  0  0  0
    8.6919  -13.3070   27.3270 C   0  0  0  0  0  0  0  0  0  0  0  0
    7.6637  -15.3957   26.6373 C   0  0  2  0  0  0  0  0  0  0  0  0
    8.8728  -16.2653   26.6947 N   0  0  0  0  0  0  0  0  0  0  0  0
    9.5933  -16.2542   25.4093 C   0  0  0  0  0  0  0  0  0  0  0  0
    8.6045  -17.6612   27.1181 O   0  0  0  0  0  0  0  0  0  0  0  0
    8.4412  -18.5583   26.2528 O   0  0  0  0  0  0  0  0  0  0  0  0
  2  4  1  0
  2  1  1  0
  3  2  2  0
  5  4  1  0
  6  5  1  0
  7  6  1  0
  8  9  1  1
  8  7  1  0
 10  8  1  0
 11 10  2  0
 12 10  1  0
 13 14  1  6
 13 12  1  0
 15 19  1  0
 15 14  1  0
 16 15  2  0
 17 13  1  0
 18 17  2  0
 21 20  1  6
 22 21  1  0
 23 21  1  0
 24 23  1  1
 24 25  1  0
 25 17  1  0
 26 28  1  0
 26 24  1  0
 27 26  2  0
M  END
$$$$
