RDL.pdb
     RDKit          3D

 28 27  0  0  1  0  0  0  0  0999 V2000
    8.3936  -13.9315   15.8726 N   0  0  0  0  0  0  0  0  0  0  0  0
    8.3631  -13.8874   17.2995 C   0  0  0  0  0  0  0  0  0  0  0  0
    8.3859  -12.7511   17.8880 N   0  0  0  0  0  0  0  0  0  0  0  0
    8.3090  -15.1157   18.0065 N   0  0  0  0  0  0  0  0  0  0  0  0
    7.0141  -15.5454   18.5663 C   0  0  0  0  0  0  0  0  0  0  0  0
    7.1050  -15.4028   20.0418 C   0  0  0  0  0  0  0  0  0  0  0  0
    8.0203  -16.3149   20.7620 C   0  0  0  0  0  0  0  0  0  0  0  0
    7.9552  -16.2975   22.2605 C   0  0  2  0  0  0  0  0  0  0  0  0
    7.8938  -14.9319   22.7151 N   0  0  0  0  0  0  0  0  0  0  0  0
    9.2532  -16.8815   22.7325 C   0  0  0  0  0  0  0  0  0  0  0  0
    9.3742  -18.1378   22.6404 O   0  0  0  0  0  0  0  0  0  0  0  0
    8.4093  -12.6119   18.9001 N   0  0  0  0  0  0  0  0  0  0  0  0
   10.2886  -16.0831   23.2520 C   0  0  2  0  0  0  0  0  0  0  0  0
   11.4979  -16.8036   23.7658 C   0  0  0  0  0  0  0  0  0  0  0  0
   12.6498  -16.0596   23.1730 C   0  0  0  0  0  0  0  0  0  0  0  0
   12.6898  -15.9058   21.7342 O   0  0  0  0  0  0  0  0  0  0  0  0
   12.3720  -16.7879   20.9098 C   0  0  0  0  0  0  0  0  0  0  0  0
   11.4134  -16.8019   25.2320 O   0  0  0  0  0  0  0  0  0  0  0  0
   12.4944  -17.1015   25.8575 O   0  0  0  0  0  0  0  0  0  0  0  0
   13.1099  -14.6944   21.1347 C   0  0  0  0  0  0  0  0  0  0  0  0
    8.4835  -13.2895   27.7334 C   0  0  1  0  0  0  0  0  0  0  0  0
    9.7302  -14.1279   27.6162 C   0  0  0  0  0  0  0  0  0  0  0  0
   10.7647  -13.4546   28.5394 C   0  0  0  0  0  0  0  0  0  0  0  0
    9.5460  -15.5178   28.1475 C   0  0  2  0  0  0  0  0  0  0  0  0
   10.4097  -16.5571   27.5189 N   0  0  0  0  0  0  0  0  0  0  0  0
   10.3090  -16.5101   26.0494 C   0  0  0  0  0  0  0  0  0  0  0  0
   10.1611  -17.9364   28.0042 O   0  0  0  0  0  0  0  0  0  0  0  0
   10.4377  -18.2426   29.1916 O   0  0  0  0  0  0  0  0  0  0  0  0
  2  4  1  0
  2  1  1  0
  3  2  2  0
  5  4  1  0
  6  5  1  0
  7  6  1  0
  8  9  1  1
  8  7  1  0
 10  8  1  0
 11 10  2  0
 12 10  1  0
 13 14  1  6
 13 12  1  0
 15 19  1  0
 15 14  1  0
 16 15  2  0
 17 13  1  0
 18 17  2  0
 21 20  1  6
 22 21  1  0
 23 21  1  0
 24 23  1  6
 24 25  1  0
 25 17  1  0
 26 28  1  0
 26 24  1  0
 27 26  2  0
M  END
$$$$
