RDL.pdb
     RDKit          3D

 28 27  0  0  1  0  0  0  0  0999 V2000
    9.3356  -13.5661   15.4674 N   0  0  0  0  0  0  0  0  0  0  0  0
    8.0134  -14.0905   15.5921 C   0  0  0  0  0  0  0  0  0  0  0  0
    7.6332  -15.0169   14.7950 N   0  0  0  0  0  0  0  0  0  0  0  0
    7.1734  -13.5561   16.6022 N   0  0  0  0  0  0  0  0  0  0  0  0
    7.7302  -13.3815   17.9566 C   0  0  0  0  0  0  0  0  0  0  0  0
    8.1460  -14.7240   18.4364 C   0  0  0  0  0  0  0  0  0  0  0  0
    8.8063  -14.8039   19.7578 C   0  0  0  0  0  0  0  0  0  0  0  0
    7.9272  -15.0876   20.9397 C   0  0  2  0  0  0  0  0  0  0  0  0
    8.0974  -14.0428   21.9169 N   0  0  0  0  0  0  0  0  0  0  0  0
    8.4431  -16.3632   21.5356 C   0  0  0  0  0  0  0  0  0  0  0  0
    8.7546  -17.2814   20.7224 O   0  0  0  0  0  0  0  0  0  0  0  0
    6.7394  -15.5096   14.8475 N   0  0  0  0  0  0  0  0  0  0  0  0
    8.5778  -16.5400   22.9249 C   0  0  2  0  0  0  0  0  0  0  0  0
    9.9758  -16.5991   23.4613 C   0  0  0  0  0  0  0  0  0  0  0  0
   10.8146  -16.0217   22.3681 C   0  0  0  0  0  0  0  0  0  0  0  0
   11.8050  -16.8770   21.7492 O   0  0  0  0  0  0  0  0  0  0  0  0
   12.7541  -16.4796   21.0421 C   0  0  0  0  0  0  0  0  0  0  0  0
    9.9827  -15.8687   24.7353 O   0  0  0  0  0  0  0  0  0  0  0  0
   11.1381  -15.6535   25.2535 O   0  0  0  0  0  0  0  0  0  0  0  0
   11.7660  -18.2830   21.9079 C   0  0  0  0  0  0  0  0  0  0  0  0
    6.0701  -12.5078   25.9053 C   0  0  1  0  0  0  0  0  0  0  0  0
    7.3798  -13.1829   25.5897 C   0  0  0  0  0  0  0  0  0  0  0  0
    8.1750  -12.1624   24.7519 C   0  0  0  0  0  0  0  0  0  0  0  0
    8.2061  -13.4457   26.8128 C   0  0  2  0  0  0  0  0  0  0  0  0
    9.0929  -14.6410   26.7349 N   0  0  0  0  0  0  0  0  0  0  0  0
    8.8945  -15.3646   25.4666 C   0  0  0  0  0  0  0  0  0  0  0  0
    8.9663  -15.5741   27.8808 O   0  0  0  0  0  0  0  0  0  0  0  0
    8.6441  -16.7726   27.6806 O   0  0  0  0  0  0  0  0  0  0  0  0
  2  4  1  0
  2  1  1  0
  3  2  2  0
  5  4  1  0
  6  5  1  0
  7  6  1  0
  8  9  1  1
  8  7  1  0
 10  8  1  0
 11 10  2  0
 12 10  1  0
 13 14  1  6
 13 12  1  0
 15 19  1  0
 15 14  1  0
 16 15  2  0
 17 13  1  0
 18 17  2  0
 21 20  1  6
 22 21  1  0
 23 21  1  0
 24 23  1  6
 24 25  1  0
 25 17  1  0
 26 28  1  0
 26 24  1  0
 27 26  2  0
M  END
$$$$
