RDL.pdb
     RDKit          3D

 28 27  0  0  1  0  0  0  0  0999 V2000
    8.2022  -15.5441   15.2390 N   0  0  0  0  0  0  0  0  0  0  0  0
    7.7154  -14.2366   14.9347 C   0  0  0  0  0  0  0  0  0  0  0  0
    7.2732  -13.9951   13.7582 N   0  0  0  0  0  0  0  0  0  0  0  0
    7.7448  -13.2559   15.9588 N   0  0  0  0  0  0  0  0  0  0  0  0
    8.2281  -13.6522   17.2946 C   0  0  0  0  0  0  0  0  0  0  0  0
    7.0326  -13.8443   18.1545 C   0  0  0  0  0  0  0  0  0  0  0  0
    7.2256  -14.5301   19.4510 C   0  0  0  0  0  0  0  0  0  0  0  0
    8.2334  -13.9356   20.3897 C   0  0  2  0  0  0  0  0  0  0  0  0
    9.4774  -13.7452   19.6887 N   0  0  0  0  0  0  0  0  0  0  0  0
    8.4585  -14.9675   21.4541 C   0  0  0  0  0  0  0  0  0  0  0  0
    7.4241  -15.4603   21.9912 O   0  0  0  0  0  0  0  0  0  0  0  0
    7.0317  -13.0698   13.3978 N   0  0  0  0  0  0  0  0  0  0  0  0
    9.7484  -15.3737   21.8425 C   0  0  1  0  0  0  0  0  0  0  0  0
    9.8281  -16.4404   22.8920 C   0  0  0  0  0  0  0  0  0  0  0  0
   11.0528  -17.2180   22.5347 C   0  0  0  0  0  0  0  0  0  0  0  0
   11.4951  -18.2464   23.4523 O   0  0  0  0  0  0  0  0  0  0  0  0
   10.7568  -18.8627   24.2484 C   0  0  0  0  0  0  0  0  0  0  0  0
    9.8491  -15.7651   24.1959 O   0  0  0  0  0  0  0  0  0  0  0  0
    9.8967  -14.4821   24.1636 O   0  0  0  0  0  0  0  0  0  0  0  0
   12.8525  -18.6428   23.5151 C   0  0  0  0  0  0  0  0  0  0  0  0
    6.6309  -13.0004   25.7453 C   0  0  1  0  0  0  0  0  0  0  0  0
    8.0222  -13.5533   25.9167 C   0  0  0  0  0  0  0  0  0  0  0  0
    8.6677  -12.7009   27.0268 C   0  0  0  0  0  0  0  0  0  0  0  0
    8.0269  -14.9641   26.4244 C   0  0  2  0  0  0  0  0  0  0  0  0
    9.3773  -15.5523   26.6514 N   0  0  0  0  0  0  0  0  0  0  0  0
    9.8179  -16.3317   25.4809 C   0  0  0  0  0  0  0  0  0  0  0  0
    9.4900  -16.3716   27.8826 O   0  0  0  0  0  0  0  0  0  0  0  0
    9.3302  -17.6170   27.8238 O   0  0  0  0  0  0  0  0  0  0  0  0
  2  4  1  0
  2  1  1  0
  3  2  2  0
  5  4  1  0
  6  5  1  0
  7  6  1  0
  8  9  1  6
  8  7  1  0
 10  8  1  0
 11 10  2  0
 12 10  1  0
 13 14  1  1
 13 12  1  0
 15 19  1  0
 15 14  1  0
 16 15  2  0
 17 13  1  0
 18 17  2  0
 21 20  1  6
 22 21  1  0
 23 21  1  0
 24 23  1  6
 24 25  1  0
 25 17  1  0
 26 28  1  0
 26 24  1  0
 27 26  2  0
M  END
$$$$
