RDL.pdb
     RDKit          3D

 28 27  0  0  1  0  0  0  0  0999 V2000
    7.8709  -11.2338   19.3460 N   0  0  0  0  0  0  0  0  0  0  0  0
    8.3519  -12.4664   18.8091 C   0  0  0  0  0  0  0  0  0  0  0  0
    9.4923  -12.4898   18.2286 N   0  0  0  0  0  0  0  0  0  0  0  0
    7.5367  -13.6191   18.9439 N   0  0  0  0  0  0  0  0  0  0  0  0
    7.1151  -14.0246   20.2978 C   0  0  0  0  0  0  0  0  0  0  0  0
    7.5889  -15.4165   20.5064 C   0  0  0  0  0  0  0  0  0  0  0  0
    7.1918  -16.0935   21.7603 C   0  0  0  0  0  0  0  0  0  0  0  0
    7.5967  -17.5298   21.9137 C   0  0  2  0  0  0  0  0  0  0  0  0
    6.4256  -18.3635   21.8194 N   0  0  0  0  0  0  0  0  0  0  0  0
    8.1393  -17.6547   23.3059 C   0  0  0  0  0  0  0  0  0  0  0  0
    7.2900  -17.8025   24.2323 O   0  0  0  0  0  0  0  0  0  0  0  0
    9.9423  -13.3242   17.8468 N   0  0  0  0  0  0  0  0  0  0  0  0
    9.5189  -17.6112   23.5787 C   0  0  2  0  0  0  0  0  0  0  0  0
    9.9225  -17.7321   25.0168 C   0  0  0  0  0  0  0  0  0  0  0  0
   11.2179  -18.4752   24.9747 C   0  0  0  0  0  0  0  0  0  0  0  0
   11.8358  -18.8333   26.2338 O   0  0  0  0  0  0  0  0  0  0  0  0
   11.3559  -18.5947   27.3614 C   0  0  0  0  0  0  0  0  0  0  0  0
    9.9755  -16.3720   25.5682 O   0  0  0  0  0  0  0  0  0  0  0  0
   10.9271  -15.6264   25.1343 O   0  0  0  0  0  0  0  0  0  0  0  0
   13.0797  -19.5073   26.2780 C   0  0  0  0  0  0  0  0  0  0  0  0
    7.4788  -12.0882   25.0992 C   0  0  1  0  0  0  0  0  0  0  0  0
    8.5232  -13.1288   25.4108 C   0  0  0  0  0  0  0  0  0  0  0  0
    9.8645  -12.5055   24.9768 C   0  0  0  0  0  0  0  0  0  0  0  0
    8.6506  -13.4005   26.8798 C   0  0  2  0  0  0  0  0  0  0  0  0
    9.5224  -14.5548   27.2384 N   0  0  0  0  0  0  0  0  0  0  0  0
    9.1208  -15.7684   26.5053 C   0  0  0  0  0  0  0  0  0  0  0  0
    9.5978  -14.8377   28.6924 O   0  0  0  0  0  0  0  0  0  0  0  0
    9.9855  -13.9431   29.4859 O   0  0  0  0  0  0  0  0  0  0  0  0
  2  4  1  0
  2  1  1  0
  3  2  2  0
  5  4  1  0
  6  5  1  0
  7  6  1  0
  8  9  1  1
  8  7  1  0
 10  8  1  0
 11 10  2  0
 12 10  1  0
 13 14  1  6
 13 12  1  0
 15 19  1  0
 15 14  1  0
 16 15  2  0
 17 13  1  0
 18 17  2  0
 21 20  1  6
 22 21  1  0
 23 21  1  0
 24 23  1  6
 24 25  1  0
 25 17  1  0
 26 28  1  0
 26 24  1  0
 27 26  2  0
M  END
$$$$
