RDL.pdb
     RDKit          3D

 28 27  0  0  1  0  0  0  0  0999 V2000
    8.5353  -13.3228   17.6670 N   0  0  0  0  0  0  0  0  0  0  0  0
    8.6043  -12.4767   18.8151 C   0  0  0  0  0  0  0  0  0  0  0  0
    9.5831  -11.6600   18.9288 N   0  0  0  0  0  0  0  0  0  0  0  0
    7.5763  -12.5809   19.7867 N   0  0  0  0  0  0  0  0  0  0  0  0
    7.6849  -13.6364   20.8110 C   0  0  0  0  0  0  0  0  0  0  0  0
    7.2510  -14.9080   20.1783 C   0  0  0  0  0  0  0  0  0  0  0  0
    6.6260  -15.9271   21.0496 C   0  0  0  0  0  0  0  0  0  0  0  0
    7.2235  -17.3027   21.0215 C   0  0  2  0  0  0  0  0  0  0  0  0
    6.1649  -18.2788   21.0675 N   0  0  0  0  0  0  0  0  0  0  0  0
    8.0199  -17.4279   22.2858 C   0  0  0  0  0  0  0  0  0  0  0  0
    7.3692  -17.6849   23.3403 O   0  0  0  0  0  0  0  0  0  0  0  0
    9.7058  -10.9892   19.6900 N   0  0  0  0  0  0  0  0  0  0  0  0
    9.4177  -17.2699   22.3092 C   0  0  2  0  0  0  0  0  0  0  0  0
   10.1008  -17.5324   23.6169 C   0  0  0  0  0  0  0  0  0  0  0  0
   11.4915  -17.9217   23.2346 C   0  0  0  0  0  0  0  0  0  0  0  0
   12.4282  -18.2220   24.2967 O   0  0  0  0  0  0  0  0  0  0  0  0
   12.1557  -18.2186   25.5151 C   0  0  0  0  0  0  0  0  0  0  0  0
    9.9702  -16.3142   24.4266 O   0  0  0  0  0  0  0  0  0  0  0  0
   10.0173  -15.2038   23.7827 O   0  0  0  0  0  0  0  0  0  0  0  0
   13.7755  -18.5544   24.0179 C   0  0  0  0  0  0  0  0  0  0  0  0
    9.4257  -11.7790   26.1090 C   0  0  2  0  0  0  0  0  0  0  0  0
    8.2605  -12.7287   26.2152 C   0  0  0  0  0  0  0  0  0  0  0  0
    7.1659  -12.1371   25.3054 C   0  0  0  0  0  0  0  0  0  0  0  0
    8.5678  -14.0875   25.6609 C   0  0  1  0  0  0  0  0  0  0  0  0
    9.5505  -14.8861   26.4469 N   0  0  0  0  0  0  0  0  0  0  0  0
    9.7938  -16.1950   25.8150 C   0  0  0  0  0  0  0  0  0  0  0  0
    9.1915  -15.0668   27.8746 O   0  0  0  0  0  0  0  0  0  0  0  0
    8.8664  -14.0714   28.5701 O   0  0  0  0  0  0  0  0  0  0  0  0
  2  4  1  0
  2  1  1  0
  3  2  2  0
  5  4  1  0
  6  5  1  0
  7  6  1  0
  8  9  1  1
  8  7  1  0
 10  8  1  0
 11 10  2  0
 12 10  1  0
 13 14  1  6
 13 12  1  0
 15 19  1  0
 15 14  1  0
 16 15  2  0
 17 13  1  0
 18 17  2  0
 21 20  1  1
 22 21  1  0
 23 21  1  0
 24 23  1  6
 24 25  1  0
 25 17  1  0
 26 28  1  0
 26 24  1  0
 27 26  2  0
M  END
$$$$
