RDL.pdb
     RDKit          3D

 28 27  0  0  1  0  0  0  0  0999 V2000
    8.1112  -14.6251   16.5780 N   0  0  0  0  0  0  0  0  0  0  0  0
    8.2437  -13.5038   17.4521 C   0  0  0  0  0  0  0  0  0  0  0  0
    8.4432  -12.3434   16.9504 N   0  0  0  0  0  0  0  0  0  0  0  0
    8.1480  -13.7286   18.8491 N   0  0  0  0  0  0  0  0  0  0  0  0
    8.1336  -15.1210   19.3352 C   0  0  0  0  0  0  0  0  0  0  0  0
    7.0060  -15.2391   20.2944 C   0  0  0  0  0  0  0  0  0  0  0  0
    7.3269  -15.6428   21.6810 C   0  0  0  0  0  0  0  0  0  0  0  0
    8.4169  -16.6582   21.8571 C   0  0  2  0  0  0  0  0  0  0  0  0
    8.0712  -17.8534   21.1309 N   0  0  0  0  0  0  0  0  0  0  0  0
    8.4290  -16.9951   23.3182 C   0  0  0  0  0  0  0  0  0  0  0  0
    7.6553  -17.9249   23.6901 O   0  0  0  0  0  0  0  0  0  0  0  0
    8.5935  -11.4870   17.4874 N   0  0  0  0  0  0  0  0  0  0  0  0
    9.2536  -16.3189   24.2359 C   0  0  2  0  0  0  0  0  0  0  0  0
   10.1417  -17.1691   25.0927 C   0  0  0  0  0  0  0  0  0  0  0  0
   11.0376  -17.8636   24.1196 C   0  0  0  0  0  0  0  0  0  0  0  0
   12.1229  -18.6628   24.6476 O   0  0  0  0  0  0  0  0  0  0  0  0
   12.2575  -18.9869   25.8457 C   0  0  0  0  0  0  0  0  0  0  0  0
   10.8010  -16.2759   26.0541 O   0  0  0  0  0  0  0  0  0  0  0  0
   11.5501  -16.8456   26.9282 O   0  0  0  0  0  0  0  0  0  0  0  0
   13.1516  -19.1537   23.8083 C   0  0  0  0  0  0  0  0  0  0  0  0
    7.4652  -12.1558   27.5473 C   0  0  2  0  0  0  0  0  0  0  0  0
    7.2890  -13.6033   27.1670 C   0  0  0  0  0  0  0  0  0  0  0  0
    6.0332  -13.6421   26.2742 C   0  0  0  0  0  0  0  0  0  0  0  0
    8.4131  -14.1212   26.3207 C   0  0  1  0  0  0  0  0  0  0  0  0
    9.7329  -14.2145   27.0066 N   0  0  0  0  0  0  0  0  0  0  0  0
   10.7300  -14.8760   26.1464 C   0  0  0  0  0  0  0  0  0  0  0  0
    9.6883  -14.8716   28.3355 O   0  0  0  0  0  0  0  0  0  0  0  0
    9.9998  -14.2230   29.3663 O   0  0  0  0  0  0  0  0  0  0  0  0
  2  4  1  0
  2  1  1  0
  3  2  2  0
  5  4  1  0
  6  5  1  0
  7  6  1  0
  8  9  1  6
  8  7  1  0
 10  8  1  0
 11 10  2  0
 12 10  1  0
 13 14  1  6
 13 12  1  0
 15 19  1  0
 15 14  1  0
 16 15  2  0
 17 13  1  0
 18 17  2  0
 21 20  1  1
 22 21  1  0
 23 21  1  0
 24 23  1  6
 24 25  1  0
 25 17  1  0
 26 28  1  0
 26 24  1  0
 27 26  2  0
M  END
$$$$
