RDL.pdb
     RDKit          3D

 28 27  0  0  1  0  0  0  0  0999 V2000
    8.6355  -13.1566   17.5894 N   0  0  0  0  0  0  0  0  0  0  0  0
    8.7876  -12.9428   18.9930 C   0  0  0  0  0  0  0  0  0  0  0  0
    8.9515  -11.7500   19.4269 N   0  0  0  0  0  0  0  0  0  0  0  0
    8.7506  -14.0720   19.8503 N   0  0  0  0  0  0  0  0  0  0  0  0
    8.2170  -15.3393   19.3170 C   0  0  0  0  0  0  0  0  0  0  0  0
    6.7930  -15.4239   19.7298 C   0  0  0  0  0  0  0  0  0  0  0  0
    6.5040  -15.9269   21.0906 C   0  0  0  0  0  0  0  0  0  0  0  0
    7.2847  -17.1216   21.5525 C   0  0  2  0  0  0  0  0  0  0  0  0
    6.8386  -18.2857   20.8305 N   0  0  0  0  0  0  0  0  0  0  0  0
    6.9263  -17.3105   22.9962 C   0  0  0  0  0  0  0  0  0  0  0  0
    5.8982  -18.0082   23.2365 O   0  0  0  0  0  0  0  0  0  0  0  0
    9.2492  -11.5026   20.3727 N   0  0  0  0  0  0  0  0  0  0  0  0
    7.6866  -16.7459   24.0367 C   0  0  2  0  0  0  0  0  0  0  0  0
    7.5711  -17.3970   25.3815 C   0  0  0  0  0  0  0  0  0  0  0  0
    8.0559  -18.7923   25.1582 C   0  0  0  0  0  0  0  0  0  0  0  0
    8.1969  -19.6544   26.3125 O   0  0  0  0  0  0  0  0  0  0  0  0
    7.4008  -19.7023   27.2729 C   0  0  0  0  0  0  0  0  0  0  0  0
    8.3509  -16.5852   26.3247 O   0  0  0  0  0  0  0  0  0  0  0  0
    8.5496  -17.1047   27.4824 O   0  0  0  0  0  0  0  0  0  0  0  0
    9.2930  -20.5409   26.4397 C   0  0  0  0  0  0  0  0  0  0  0  0
    6.5075  -13.4902   26.1259 C   0  0  2  0  0  0  0  0  0  0  0  0
    7.5569  -12.8010   26.9593 C   0  0  0  0  0  0  0  0  0  0  0  0
    6.7833  -11.8210   27.8632 C   0  0  0  0  0  0  0  0  0  0  0  0
    8.2709  -13.7399   27.8847 C   0  0  2  0  0  0  0  0  0  0  0  0
    9.3915  -14.5067   27.2704 N   0  0  0  0  0  0  0  0  0  0  0  0
    8.9179  -15.3145   26.1325 C   0  0  0  0  0  0  0  0  0  0  0  0
   10.1464  -15.3577   28.2221 O   0  0  0  0  0  0  0  0  0  0  0  0
    9.8442  -16.5707   28.3541 O   0  0  0  0  0  0  0  0  0  0  0  0
  2  4  1  0
  2  1  1  0
  3  2  2  0
  5  4  1  0
  6  5  1  0
  7  6  1  0
  8  9  1  6
  8  7  1  0
 10  8  1  0
 11 10  2  0
 12 10  1  0
 13 14  1  6
 13 12  1  0
 15 19  1  0
 15 14  1  0
 16 15  2  0
 17 13  1  0
 18 17  2  0
 21 20  1  6
 22 21  1  0
 23 21  1  0
 24 23  1  6
 24 25  1  0
 25 17  1  0
 26 28  1  0
 26 24  1  0
 27 26  2  0
M  END
$$$$
