RDL.pdb
     RDKit          3D

 28 27  0  0  1  0  0  0  0  0999 V2000
    9.2773  -13.2512   20.0791 N   0  0  0  0  0  0  0  0  0  0  0  0
    7.9650  -13.2559   19.5164 C   0  0  0  0  0  0  0  0  0  0  0  0
    7.7931  -12.7990   18.3333 N   0  0  0  0  0  0  0  0  0  0  0  0
    6.9016  -13.7705   20.3012 N   0  0  0  0  0  0  0  0  0  0  0  0
    7.2321  -14.4650   21.5596 C   0  0  0  0  0  0  0  0  0  0  0  0
    7.9524  -15.7119   21.1965 C   0  0  0  0  0  0  0  0  0  0  0  0
    8.3150  -16.6364   22.2930 C   0  0  0  0  0  0  0  0  0  0  0  0
    9.1358  -17.8368   21.9250 C   0  0  2  0  0  0  0  0  0  0  0  0
    8.4037  -19.0311   22.2614 N   0  0  0  0  0  0  0  0  0  0  0  0
   10.3533  -17.7824   22.7986 C   0  0  0  0  0  0  0  0  0  0  0  0
   10.6382  -18.8371   23.4372 O   0  0  0  0  0  0  0  0  0  0  0  0
    6.8920  -12.7167   17.8584 N   0  0  0  0  0  0  0  0  0  0  0  0
   11.1444  -16.6242   22.9094 C   0  0  2  0  0  0  0  0  0  0  0  0
   12.3029  -16.6912   23.8575 C   0  0  0  0  0  0  0  0  0  0  0  0
   13.2600  -15.6660   23.3430 C   0  0  0  0  0  0  0  0  0  0  0  0
   13.9795  -15.9617   22.1223 O   0  0  0  0  0  0  0  0  0  0  0  0
   14.2269  -17.1087   21.6959 C   0  0  0  0  0  0  0  0  0  0  0  0
   11.7725  -16.4602   25.2074 O   0  0  0  0  0  0  0  0  0  0  0  0
   12.6248  -16.5301   26.1656 O   0  0  0  0  0  0  0  0  0  0  0  0
   14.4747  -14.9287   21.2909 C   0  0  0  0  0  0  0  0  0  0  0  0
    7.8199  -12.9906   26.3335 C   0  0  1  0  0  0  0  0  0  0  0  0
    9.1168  -13.7480   26.4570 C   0  0  0  0  0  0  0  0  0  0  0  0
   10.0165  -12.8758   27.3545 C   0  0  0  0  0  0  0  0  0  0  0  0
    8.9590  -15.0542   27.1761 C   0  0  2  0  0  0  0  0  0  0  0  0
   10.0934  -16.0076   27.0165 N   0  0  0  0  0  0  0  0  0  0  0  0
   10.4554  -16.1655   25.5968 C   0  0  0  0  0  0  0  0  0  0  0  0
    9.8700  -17.3358   27.6376 O   0  0  0  0  0  0  0  0  0  0  0  0
    9.6737  -17.4236   28.8762 O   0  0  0  0  0  0  0  0  0  0  0  0
  2  4  1  0
  2  1  1  0
  3  2  2  0
  5  4  1  0
  6  5  1  0
  7  6  1  0
  8  9  1  1
  8  7  1  0
 10  8  1  0
 11 10  2  0
 12 10  1  0
 13 14  1  6
 13 12  1  0
 15 19  1  0
 15 14  1  0
 16 15  2  0
 17 13  1  0
 18 17  2  0
 21 20  1  6
 22 21  1  0
 23 21  1  0
 24 23  1  1
 24 25  1  0
 25 17  1  0
 26 28  1  0
 26 24  1  0
 27 26  2  0
M  END
$$$$
