RDL.pdb
     RDKit          3D

 28 27  0  0  1  0  0  0  0  0999 V2000
    6.4456  -12.9834   16.0062 N   0  0  0  0  0  0  0  0  0  0  0  0
    7.1505  -13.1651   17.2346 C   0  0  0  0  0  0  0  0  0  0  0  0
    6.8247  -12.4574   18.2500 N   0  0  0  0  0  0  0  0  0  0  0  0
    8.1896  -14.1296   17.2742 N   0  0  0  0  0  0  0  0  0  0  0  0
    8.0441  -15.2790   18.1867 C   0  0  0  0  0  0  0  0  0  0  0  0
    8.3685  -14.7978   19.5537 C   0  0  0  0  0  0  0  0  0  0  0  0
    8.4089  -15.8008   20.6403 C   0  0  0  0  0  0  0  0  0  0  0  0
    9.4024  -16.9157   20.4981 C   0  0  2  0  0  0  0  0  0  0  0  0
    8.8695  -17.9125   19.6048 N   0  0  0  0  0  0  0  0  0  0  0  0
    9.5203  -17.5338   21.8591 C   0  0  0  0  0  0  0  0  0  0  0  0
    9.6267  -18.7941   21.9001 O   0  0  0  0  0  0  0  0  0  0  0  0
    7.2675  -12.5072   19.1697 N   0  0  0  0  0  0  0  0  0  0  0  0
    9.5140  -16.7618   23.0353 C   0  0  2  0  0  0  0  0  0  0  0  0
   10.7649  -16.7857   23.8602 C   0  0  0  0  0  0  0  0  0  0  0  0
   11.8248  -16.2796   22.9369 C   0  0  0  0  0  0  0  0  0  0  0  0
   13.1622  -16.8142   23.0814 O   0  0  0  0  0  0  0  0  0  0  0  0
   13.4344  -17.9699   23.4672 C   0  0  0  0  0  0  0  0  0  0  0  0
   10.5102  -15.9748   25.0578 O   0  0  0  0  0  0  0  0  0  0  0  0
   11.5044  -15.8254   25.8571 O   0  0  0  0  0  0  0  0  0  0  0  0
   14.3038  -16.0322   22.7834 C   0  0  0  0  0  0  0  0  0  0  0  0
    5.9814  -12.9760   25.9945 C   0  0  1  0  0  0  0  0  0  0  0  0
    7.3965  -13.4929   26.0256 C   0  0  0  0  0  0  0  0  0  0  0  0
    8.2486  -12.3219   26.5535 C   0  0  0  0  0  0  0  0  0  0  0  0
    7.5831  -14.6130   27.0047 C   0  0  2  0  0  0  0  0  0  0  0  0
    8.8388  -15.3984   26.8386 N   0  0  0  0  0  0  0  0  0  0  0  0
    9.3245  -15.3312   25.4490 C   0  0  0  0  0  0  0  0  0  0  0  0
    8.7407  -16.8116   27.2778 O   0  0  0  0  0  0  0  0  0  0  0  0
    8.5178  -17.7163   26.4340 O   0  0  0  0  0  0  0  0  0  0  0  0
  2  4  1  0
  2  1  1  0
  3  2  2  0
  5  4  1  0
  6  5  1  0
  7  6  1  0
  8  9  1  6
  8  7  1  0
 10  8  1  0
 11 10  2  0
 12 10  1  0
 13 14  1  6
 13 12  1  0
 15 19  1  0
 15 14  1  0
 16 15  2  0
 17 13  1  0
 18 17  2  0
 21 20  1  6
 22 21  1  0
 23 21  1  0
 24 23  1  1
 24 25  1  0
 25 17  1  0
 26 28  1  0
 26 24  1  0
 27 26  2  0
M  END
$$$$
