RDL.pdb
     RDKit          3D

 28 27  0  0  1  0  0  0  0  0999 V2000
    8.0520  -13.8111   17.6981 N   0  0  0  0  0  0  0  0  0  0  0  0
    8.1658  -12.7871   18.6868 C   0  0  0  0  0  0  0  0  0  0  0  0
    7.6919  -11.6248   18.4368 N   0  0  0  0  0  0  0  0  0  0  0  0
    8.8052  -13.1069   19.9116 N   0  0  0  0  0  0  0  0  0  0  0  0
    8.6009  -14.4532   20.4780 C   0  0  0  0  0  0  0  0  0  0  0  0
    7.3245  -14.4209   21.2365 C   0  0  0  0  0  0  0  0  0  0  0  0
    6.9144  -15.6571   21.9382 C   0  0  0  0  0  0  0  0  0  0  0  0
    7.7376  -16.8855   21.6859 C   0  0  2  0  0  0  0  0  0  0  0  0
    6.8598  -17.9943   21.4112 N   0  0  0  0  0  0  0  0  0  0  0  0
    8.4502  -17.1711   22.9739 C   0  0  0  0  0  0  0  0  0  0  0  0
    7.7265  -17.4930   23.9608 O   0  0  0  0  0  0  0  0  0  0  0  0
    7.7496  -10.8179   19.0612 N   0  0  0  0  0  0  0  0  0  0  0  0
    9.8500  -17.0886   23.0896 C   0  0  2  0  0  0  0  0  0  0  0  0
   10.4291  -17.3706   24.4426 C   0  0  0  0  0  0  0  0  0  0  0  0
   11.8326  -17.7980   24.1610 C   0  0  0  0  0  0  0  0  0  0  0  0
   12.0379  -18.8645   23.2041 O   0  0  0  0  0  0  0  0  0  0  0  0
   11.4689  -19.9753   23.2355 C   0  0  0  0  0  0  0  0  0  0  0  0
   10.2739  -16.1496   25.2437 O   0  0  0  0  0  0  0  0  0  0  0  0
   11.0623  -15.1796   24.9482 O   0  0  0  0  0  0  0  0  0  0  0  0
   12.9359  -18.7180   22.1198 C   0  0  0  0  0  0  0  0  0  0  0  0
    7.0432  -12.6631   25.8810 C   0  0  1  0  0  0  0  0  0  0  0  0
    8.3678  -13.3817   25.8799 C   0  0  0  0  0  0  0  0  0  0  0  0
    9.3814  -12.3709   25.3082 C   0  0  0  0  0  0  0  0  0  0  0  0
    8.8490  -13.7124   27.2608 C   0  0  2  0  0  0  0  0  0  0  0  0
    9.6970  -14.9338   27.3618 N   0  0  0  0  0  0  0  0  0  0  0  0
    9.3731  -15.8923   26.2904 C   0  0  0  0  0  0  0  0  0  0  0  0
    9.6471  -15.6074   28.6823 O   0  0  0  0  0  0  0  0  0  0  0  0
    9.9517  -14.9710   29.7226 O   0  0  0  0  0  0  0  0  0  0  0  0
  2  4  1  0
  2  1  1  0
  3  2  2  0
  5  4  1  0
  6  5  1  0
  7  6  1  0
  8  9  1  1
  8  7  1  0
 10  8  1  0
 11 10  2  0
 12 10  1  0
 13 14  1  6
 13 12  1  0
 15 19  1  0
 15 14  1  0
 16 15  2  0
 17 13  1  0
 18 17  2  0
 21 20  1  6
 22 21  1  0
 23 21  1  0
 24 23  1  6
 24 25  1  0
 25 17  1  0
 26 28  1  0
 26 24  1  0
 27 26  2  0
M  END
$$$$
