CAA.pdb
     RDKit          3D

 17 16  0  0  1  0  0  0  0  0999 V2000
   11.7582  -16.0578  -10.4853 N   0  0  0  0  0  0  0  0  0  0  0  0
   11.6601  -14.8771  -11.3595 C   0  0  1  0  0  0  0  0  0  0  0  0
   10.6511  -13.9762  -10.6822 C   0  0  0  0  0  0  0  0  0  0  0  0
    8.9469  -14.3632  -11.0677 S   0  0  0  0  0  0  0  0  0  0  0  0
   12.9870  -14.2756  -11.5240 C   0  0  0  0  0  0  0  0  0  0  0  0
   13.7115  -14.1291  -10.4996 O   0  0  0  0  0  0  0  0  0  0  0  0
   15.2211  -13.3931  -14.3734 C   0  0  0  0  0  0  0  0  0  0  0  0
   14.8217  -13.2208  -12.9299 C   0  0  2  0  0  0  0  0  0  0  0  0
   13.5272  -13.8402  -12.7607 N   0  0  0  0  0  0  0  0  0  0  0  0
   14.8635  -11.8296  -12.4753 C   0  0  0  0  0  0  0  0  0  0  0  0
   13.8407  -11.1136  -12.6258 O   0  0  0  0  0  0  0  0  0  0  0  0
   17.2630   -9.6671  -10.4839 C   0  0  0  0  0  0  0  0  0  0  0  0
   16.1247   -9.8875  -11.4473 C   0  0  2  0  0  0  0  0  0  0  0  0
   16.0130  -11.2602  -11.8722 N   0  0  0  0  0  0  0  0  0  0  0  0
   16.2785   -8.9898  -12.6375 C   0  0  0  0  0  0  0  0  0  0  0  0
   16.6696   -9.3925  -13.7408 O   0  0  0  0  0  0  0  0  0  0  0  0
   15.9698   -7.6433  -12.5025 O   0  0  0  0  0  0  0  0  0  0  0  0
  2  1  1  1
  2  3  1  0
  4  3  1  0
  5  2  1  0
  6  5  2  0
  8  7  1  6
  8  9  1  0
  9  5  1  0
 10  8  1  0
 10 14  1  0
 11 10  2  0
 13 15  1  0
 13 12  1  1
 13 14  1  0
 15 17  1  0
 16 15  2  0
M  END
$$$$
