CAA.pdb
     RDKit          3D

 17 16  0  0  1  0  0  0  0  0999 V2000
   18.9550  -13.3978  -16.0496 N   0  0  0  0  0  0  0  0  0  0  0  0
   18.3387  -12.0928  -16.3413 C   0  0  1  0  0  0  0  0  0  0  0  0
   17.3045  -11.9009  -15.2541 C   0  0  0  0  0  0  0  0  0  0  0  0
   15.8806  -12.9754  -15.3983 S   0  0  0  0  0  0  0  0  0  0  0  0
   19.3750  -11.0561  -16.3740 C   0  0  0  0  0  0  0  0  0  0  0  0
   20.2173  -11.0187  -15.4333 O   0  0  0  0  0  0  0  0  0  0  0  0
   20.5158   -8.4370  -18.7914 C   0  0  0  0  0  0  0  0  0  0  0  0
   20.4735   -9.0057  -17.3958 C   0  0  2  0  0  0  0  0  0  0  0  0
   19.5067  -10.0796  -17.3937 N   0  0  0  0  0  0  0  0  0  0  0  0
   20.2245   -7.9984  -16.3628 C   0  0  0  0  0  0  0  0  0  0  0  0
   19.0357   -7.7407  -16.0439 O   0  0  0  0  0  0  0  0  0  0  0  0
   22.3225   -6.0402  -13.8842 C   0  0  0  0  0  0  0  0  0  0  0  0
   21.0850   -6.2813  -14.7104 C   0  0  2  0  0  0  0  0  0  0  0  0
   21.2728   -7.3032  -15.7092 N   0  0  0  0  0  0  0  0  0  0  0  0
   20.6423   -5.0035  -15.3564 C   0  0  0  0  0  0  0  0  0  0  0  0
   20.7972   -4.7674  -16.5616 O   0  0  0  0  0  0  0  0  0  0  0  0
   20.0295   -4.0362  -14.5720 O   0  0  0  0  0  0  0  0  0  0  0  0
  2  1  1  1
  2  3  1  0
  4  3  1  0
  5  2  1  0
  6  5  2  0
  8  7  1  6
  8  9  1  0
  9  5  1  0
 10  8  1  0
 10 14  1  0
 11 10  2  0
 13 15  1  0
 13 12  1  6
 13 14  1  0
 15 17  1  0
 16 15  2  0
M  END
$$$$
