CAA.pdb
     RDKit          3D

 17 16  0  0  1  0  0  0  0  0999 V2000
   17.0344   -8.5999  -11.2053 N   0  0  0  0  0  0  0  0  0  0  0  0
   17.4420   -7.9680  -12.4711 C   0  0  1  0  0  0  0  0  0  0  0  0
   16.6370   -6.6893  -12.5428 C   0  0  0  0  0  0  0  0  0  0  0  0
   15.0728   -6.8541  -13.3967 S   0  0  0  0  0  0  0  0  0  0  0  0
   18.8940   -7.7643  -12.4737 C   0  0  0  0  0  0  0  0  0  0  0  0
   19.4519   -7.4027  -11.3996 O   0  0  0  0  0  0  0  0  0  0  0  0
   21.7592   -8.6727  -14.6178 C   0  0  0  0  0  0  0  0  0  0  0  0
   21.1569   -7.7085  -13.6277 C   0  0  2  0  0  0  0  0  0  0  0  0
   19.7315   -7.9447  -13.6037 N   0  0  0  0  0  0  0  0  0  0  0  0
   21.5095   -6.3111  -13.8858 C   0  0  0  0  0  0  0  0  0  0  0  0
   22.6677   -5.9166  -13.5956 O   0  0  0  0  0  0  0  0  0  0  0  0
   20.0131   -3.5195  -15.9340 C   0  0  0  0  0  0  0  0  0  0  0  0
   20.9264   -4.0444  -14.8558 C   0  0  2  0  0  0  0  0  0  0  0  0
   20.5948   -5.3871  -14.4503 N   0  0  0  0  0  0  0  0  0  0  0  0
   20.9021   -3.1267  -13.6711 C   0  0  0  0  0  0  0  0  0  0  0  0
   21.3385   -1.9688  -13.7050 O   0  0  0  0  0  0  0  0  0  0  0  0
   20.3667   -3.5912  -12.4777 O   0  0  0  0  0  0  0  0  0  0  0  0
  2  1  1  1
  2  3  1  0
  4  3  1  0
  5  2  1  0
  6  5  2  0
  8  7  1  6
  8  9  1  0
  9  5  1  0
 10  8  1  0
 10 14  1  0
 11 10  2  0
 13 15  1  0
 13 12  1  6
 13 14  1  0
 15 17  1  0
 16 15  2  0
M  END
$$$$
