CAA.pdb
     RDKit          3D

 17 16  0  0  1  0  0  0  0  0999 V2000
   17.1150  -12.2985  -16.5571 N   0  0  0  0  0  0  0  0  0  0  0  0
   16.7938  -10.9272  -16.1282 C   0  0  1  0  0  0  0  0  0  0  0  0
   16.4450  -11.0515  -14.6614 C   0  0  0  0  0  0  0  0  0  0  0  0
   14.7848  -11.6424  -14.3497 S   0  0  0  0  0  0  0  0  0  0  0  0
   17.9339  -10.0468  -16.4017 C   0  0  0  0  0  0  0  0  0  0  0  0
   19.0997  -10.5160  -16.2730 O   0  0  0  0  0  0  0  0  0  0  0  0
   18.4378   -6.6147  -17.7971 C   0  0  0  0  0  0  0  0  0  0  0  0
   18.9422   -7.7942  -17.0052 C   0  0  2  0  0  0  0  0  0  0  0  0
   17.8275   -8.6916  -16.8053 N   0  0  0  0  0  0  0  0  0  0  0  0
   19.6141   -7.4166  -15.7603 C   0  0  0  0  0  0  0  0  0  0  0  0
   18.9185   -7.2398  -14.7277 O   0  0  0  0  0  0  0  0  0  0  0  0
   23.1440   -7.3916  -14.4560 C   0  0  0  0  0  0  0  0  0  0  0  0
   21.7304   -6.8684  -14.4799 C   0  0  2  0  0  0  0  0  0  0  0  0
   21.0183   -7.2431  -15.6756 N   0  0  0  0  0  0  0  0  0  0  0  0
   21.7324   -5.3776  -14.3263 C   0  0  0  0  0  0  0  0  0  0  0  0
   21.4394   -4.6036  -15.2468 O   0  0  0  0  0  0  0  0  0  0  0  0
   22.0779   -4.8336  -13.0969 O   0  0  0  0  0  0  0  0  0  0  0  0
  2  1  1  1
  2  3  1  0
  4  3  1  0
  5  2  1  0
  6  5  2  0
  8  7  1  1
  8  9  1  0
  9  5  1  0
 10  8  1  0
 10 14  1  0
 11 10  2  0
 13 15  1  0
 13 12  1  6
 13 14  1  0
 15 17  1  0
 16 15  2  0
M  END
$$$$
