CAA.pdb
     RDKit          3D

 17 16  0  0  1  0  0  0  0  0999 V2000
   16.1741  -10.1672  -10.3384 N   0  0  0  0  0  0  0  0  0  0  0  0
   15.9881   -9.5489  -11.6616 C   0  0  1  0  0  0  0  0  0  0  0  0
   14.9953   -8.4311  -11.4311 C   0  0  0  0  0  0  0  0  0  0  0  0
   13.3204   -8.9874  -11.1336 S   0  0  0  0  0  0  0  0  0  0  0  0
   17.2841   -9.1029  -12.1823 C   0  0  0  0  0  0  0  0  0  0  0  0
   18.1268   -8.6280  -11.3699 O   0  0  0  0  0  0  0  0  0  0  0  0
   19.0427   -9.2804  -15.4876 C   0  0  0  0  0  0  0  0  0  0  0  0
   18.9740   -8.8102  -14.0568 C   0  0  2  0  0  0  0  0  0  0  0  0
   17.6699   -9.1647  -13.5455 N   0  0  0  0  0  0  0  0  0  0  0  0
   19.2957   -7.3912  -13.8931 C   0  0  0  0  0  0  0  0  0  0  0  0
   18.3651   -6.5484  -13.9639 O   0  0  0  0  0  0  0  0  0  0  0  0
   22.4227   -5.3842  -13.0519 C   0  0  0  0  0  0  0  0  0  0  0  0
   20.9885   -5.5508  -13.4850 C   0  0  2  0  0  0  0  0  0  0  0  0
   20.6161   -6.9323  -13.6580 N   0  0  0  0  0  0  0  0  0  0  0  0
   20.7429   -4.7877  -14.7513 C   0  0  0  0  0  0  0  0  0  0  0  0
   20.7755   -5.3116  -15.8723 O   0  0  0  0  0  0  0  0  0  0  0  0
   20.4655   -3.4302  -14.6695 O   0  0  0  0  0  0  0  0  0  0  0  0
  2  1  1  1
  2  3  1  0
  4  3  1  0
  5  2  1  0
  6  5  2  0
  8  7  1  6
  8  9  1  0
  9  5  1  0
 10  8  1  0
 10 14  1  0
 11 10  2  0
 13 15  1  0
 13 12  1  6
 13 14  1  0
 15 17  1  0
 16 15  2  0
M  END
$$$$
