CAA.pdb
     RDKit          3D

 17 16  0  0  1  0  0  0  0  0999 V2000
   18.3706  -12.2109  -15.9873 N   0  0  0  0  0  0  0  0  0  0  0  0
   17.7082  -10.9030  -15.8519 C   0  0  1  0  0  0  0  0  0  0  0  0
   17.0893  -10.9230  -14.4718 C   0  0  0  0  0  0  0  0  0  0  0  0
   15.6361  -11.9585  -14.3344 S   0  0  0  0  0  0  0  0  0  0  0  0
   18.6888   -9.8320  -16.0547 C   0  0  0  0  0  0  0  0  0  0  0  0
   19.8552   -9.9906  -15.5963 O   0  0  0  0  0  0  0  0  0  0  0  0
   18.8773   -6.6872  -18.0562 C   0  0  0  0  0  0  0  0  0  0  0  0
   19.3784   -7.5460  -16.9230 C   0  0  2  0  0  0  0  0  0  0  0  0
   18.4256   -8.6160  -16.7351 N   0  0  0  0  0  0  0  0  0  0  0  0
   19.6545   -6.7927  -15.6982 C   0  0  0  0  0  0  0  0  0  0  0  0
   18.7180   -6.6046  -14.8803 O   0  0  0  0  0  0  0  0  0  0  0  0
   22.7351   -5.3981  -13.9725 C   0  0  0  0  0  0  0  0  0  0  0  0
   21.2531   -5.4787  -14.2364 C   0  0  2  0  0  0  0  0  0  0  0  0
   20.9370   -6.2678  -15.4003 N   0  0  0  0  0  0  0  0  0  0  0  0
   20.6811   -4.1005  -14.3765 C   0  0  0  0  0  0  0  0  0  0  0  0
   20.4933   -3.3464  -13.4130 O   0  0  0  0  0  0  0  0  0  0  0  0
   20.3444   -3.6430  -15.6429 O   0  0  0  0  0  0  0  0  0  0  0  0
  2  1  1  1
  2  3  1  0
  4  3  1  0
  5  2  1  0
  6  5  2  0
  8  7  1  6
  8  9  1  0
  9  5  1  0
 10  8  1  0
 10 14  1  0
 11 10  2  0
 13 15  1  0
 13 12  1  6
 13 14  1  0
 15 17  1  0
 16 15  2  0
M  END
$$$$
