CAA.pdb
     RDKit          3D

 17 16  0  0  1  0  0  0  0  0999 V2000
   15.2067  -13.5495  -13.4263 N   0  0  0  0  0  0  0  0  0  0  0  0
   16.3395  -12.8173  -12.8361 C   0  0  1  0  0  0  0  0  0  0  0  0
   17.5283  -13.1829  -13.6971 C   0  0  0  0  0  0  0  0  0  0  0  0
   18.2969  -14.7398  -13.2636 S   0  0  0  0  0  0  0  0  0  0  0  0
   16.0367  -11.3829  -12.8083 C   0  0  0  0  0  0  0  0  0  0  0  0
   15.4611  -10.8709  -13.8094 O   0  0  0  0  0  0  0  0  0  0  0  0
   16.1988   -8.6520  -10.2539 C   0  0  0  0  0  0  0  0  0  0  0  0
   16.0265   -9.1059  -11.6812 C   0  0  2  0  0  0  0  0  0  0  0  0
   16.3439  -10.5148  -11.7300 N   0  0  0  0  0  0  0  0  0  0  0  0
   16.7865   -8.3059  -12.6434 C   0  0  0  0  0  0  0  0  0  0  0  0
   18.0225   -8.5089  -12.7556 O   0  0  0  0  0  0  0  0  0  0  0  0
   15.9168   -5.9763  -15.4959 C   0  0  0  0  0  0  0  0  0  0  0  0
   16.8618   -6.5570  -14.4750 C   0  0  2  0  0  0  0  0  0  0  0  0
   16.1816   -7.3117  -13.4527 N   0  0  0  0  0  0  0  0  0  0  0  0
   17.6789   -5.4654  -13.8529 C   0  0  0  0  0  0  0  0  0  0  0  0
   18.5354   -4.8247  -14.4759 O   0  0  0  0  0  0  0  0  0  0  0  0
   17.4701   -5.1541  -12.5165 O   0  0  0  0  0  0  0  0  0  0  0  0
  2  1  1  6
  2  3  1  0
  4  3  1  0
  5  2  1  0
  6  5  2  0
  8  7  1  1
  8  9  1  0
  9  5  1  0
 10  8  1  0
 10 14  1  0
 11 10  2  0
 13 15  1  0
 13 12  1  6
 13 14  1  0
 15 17  1  0
 16 15  2  0
M  END
$$$$
