CAA.pdb
     RDKit          3D

 17 16  0  0  1  0  0  0  0  0999 V2000
   16.1118  -11.4061  -12.4915 N   0  0  0  0  0  0  0  0  0  0  0  0
   15.8976   -9.9511  -12.5610 C   0  0  1  0  0  0  0  0  0  0  0  0
   15.6328   -9.5297  -11.1325 C   0  0  0  0  0  0  0  0  0  0  0  0
   13.9967   -9.9434  -10.5369 S   0  0  0  0  0  0  0  0  0  0  0  0
   17.0680   -9.3104  -13.1689 C   0  0  0  0  0  0  0  0  0  0  0  0
   18.2162   -9.6553  -12.7708 O   0  0  0  0  0  0  0  0  0  0  0  0
   17.6688   -7.1913  -16.1727 C   0  0  0  0  0  0  0  0  0  0  0  0
   18.1544   -7.7607  -14.8639 C   0  0  2  0  0  0  0  0  0  0  0  0
   17.0097   -8.3208  -14.1827 N   0  0  0  0  0  0  0  0  0  0  0  0
   18.9007   -6.7989  -14.0505 C   0  0  0  0  0  0  0  0  0  0  0  0
   18.2619   -6.0193  -13.2984 O   0  0  0  0  0  0  0  0  0  0  0  0
   22.4476   -6.3955  -12.9044 C   0  0  0  0  0  0  0  0  0  0  0  0
   21.1024   -5.8201  -13.2671 C   0  0  2  0  0  0  0  0  0  0  0  0
   20.3153   -6.7137  -14.0791 N   0  0  0  0  0  0  0  0  0  0  0  0
   21.2779   -4.5065  -13.9669 C   0  0  0  0  0  0  0  0  0  0  0  0
   21.1399   -4.3690  -15.1893 O   0  0  0  0  0  0  0  0  0  0  0  0
   21.6107   -3.3885  -13.2145 O   0  0  0  0  0  0  0  0  0  0  0  0
  2  1  1  1
  2  3  1  0
  4  3  1  0
  5  2  1  0
  6  5  2  0
  8  7  1  6
  8  9  1  0
  9  5  1  0
 10  8  1  0
 10 14  1  0
 11 10  2  0
 13 15  1  0
 13 12  1  6
 13 14  1  0
 15 17  1  0
 16 15  2  0
M  END
$$$$
