CAA.pdb
     RDKit          3D

 17 16  0  0  1  0  0  0  0  0999 V2000
   21.8355  -14.6635  -18.7544 N   0  0  0  0  0  0  0  0  0  0  0  0
   21.4339  -13.3443  -19.2704 C   0  0  1  0  0  0  0  0  0  0  0  0
   19.9279  -13.4178  -19.3921 C   0  0  0  0  0  0  0  0  0  0  0  0
   19.3510  -14.3009  -20.8379 S   0  0  0  0  0  0  0  0  0  0  0  0
   21.9125  -12.2955  -18.3645 C   0  0  0  0  0  0  0  0  0  0  0  0
   21.7255  -12.4420  -17.1238 O   0  0  0  0  0  0  0  0  0  0  0  0
   23.9516   -9.1704  -18.7043 C   0  0  0  0  0  0  0  0  0  0  0  0
   23.0624  -10.0793  -17.8943 C   0  0  2  0  0  0  0  0  0  0  0  0
   22.5784  -11.1142  -18.7790 N   0  0  0  0  0  0  0  0  0  0  0  0
   21.9924   -9.3713  -17.1889 C   0  0  0  0  0  0  0  0  0  0  0  0
   20.9270   -9.1164  -17.8063 O   0  0  0  0  0  0  0  0  0  0  0  0
   21.2407   -8.4668  -13.5960 C   0  0  0  0  0  0  0  0  0  0  0  0
   21.0813   -8.2932  -15.0849 C   0  0  2  0  0  0  0  0  0  0  0  0
   22.1126   -8.9627  -15.8369 N   0  0  0  0  0  0  0  0  0  0  0  0
   21.0538   -6.8354  -15.4315 C   0  0  0  0  0  0  0  0  0  0  0  0
   20.1658   -6.0657  -15.0427 O   0  0  0  0  0  0  0  0  0  0  0  0
   22.0686   -6.3187  -16.2252 O   0  0  0  0  0  0  0  0  0  0  0  0
  2  1  1  1
  2  3  1  0
  4  3  1  0
  5  2  1  0
  6  5  2  0
  8  7  1  6
  8  9  1  0
  9  5  1  0
 10  8  1  0
 10 14  1  0
 11 10  2  0
 13 15  1  0
 13 12  1  1
 13 14  1  0
 15 17  1  0
 16 15  2  0
M  END
$$$$
