CAA.pdb
     RDKit          3D

 17 16  0  0  1  0  0  0  0  0999 V2000
   24.0783  -13.1953  -19.3502 N   0  0  0  0  0  0  0  0  0  0  0  0
   25.1398  -12.2030  -19.1128 C   0  0  1  0  0  0  0  0  0  0  0  0
   25.1295  -11.3225  -20.3428 C   0  0  0  0  0  0  0  0  0  0  0  0
   26.3620  -10.0250  -20.3265 S   0  0  0  0  0  0  0  0  0  0  0  0
   24.8735  -11.4883  -17.8605 C   0  0  0  0  0  0  0  0  0  0  0  0
   23.6795  -11.1790  -17.5876 O   0  0  0  0  0  0  0  0  0  0  0  0
   26.8188  -10.4952  -14.8268 C   0  0  0  0  0  0  0  0  0  0  0  0
   25.6307  -10.3160  -15.7375 C   0  0  2  0  0  0  0  0  0  0  0  0
   25.8657  -11.1130  -16.9197 N   0  0  0  0  0  0  0  0  0  0  0  0
   25.3285   -8.9142  -16.0330 C   0  0  0  0  0  0  0  0  0  0  0  0
   24.7978   -8.2085  -15.1376 O   0  0  0  0  0  0  0  0  0  0  0  0
   26.1596   -6.4936  -18.8328 C   0  0  0  0  0  0  0  0  0  0  0  0
   25.3871   -6.9375  -17.6168 C   0  0  2  0  0  0  0  0  0  0  0  0
   25.6116   -8.3232  -17.2899 N   0  0  0  0  0  0  0  0  0  0  0  0
   23.9235   -6.6856  -17.8185 C   0  0  0  0  0  0  0  0  0  0  0  0
   23.3954   -5.5829  -17.6252 O   0  0  0  0  0  0  0  0  0  0  0  0
   23.1178   -7.7336  -18.2416 O   0  0  0  0  0  0  0  0  0  0  0  0
  2  1  1  6
  2  3  1  0
  4  3  1  0
  5  2  1  0
  6  5  2  0
  8  7  1  1
  8  9  1  0
  9  5  1  0
 10  8  1  0
 10 14  1  0
 11 10  2  0
 13 15  1  0
 13 12  1  6
 13 14  1  0
 15 17  1  0
 16 15  2  0
M  END
$$$$
