GSD.pdb
     RDKit          3D

 19 18  0  0  1  0  0  0  0  0999 V2000
    7.9314  -17.2250   17.2422 N   0  0  0  0  0  0  0  0  0  0  0  0
    7.2151  -17.1607   18.4959 C   0  0  0  0  0  0  0  0  0  0  0  0
    7.9537  -16.2241   19.3991 C   0  0  0  0  0  0  0  0  0  0  0  0
    9.0507  -15.7280   19.0475 O   0  0  0  0  0  0  0  0  0  0  0  0
    6.7498  -15.4170   23.4452 O   0  0  0  0  0  0  0  0  0  0  0  0
    7.4809  -14.4699   22.7026 C   0  0  0  0  0  0  0  0  0  0  0  0
    8.2575  -15.1093   21.5819 C   0  0  2  0  0  0  0  0  0  0  0  0
    7.4645  -15.8553   20.6723 N   0  0  0  0  0  0  0  0  0  0  0  0
    9.3411  -15.9339   22.1772 C   0  0  0  0  0  0  0  0  0  0  0  0
    9.2169  -17.1822   22.1227 O   0  0  0  0  0  0  0  0  0  0  0  0
   10.4868  -15.3934   22.7926 N   0  0  0  0  0  0  0  0  0  0  0  0
   11.6156  -16.2385   23.2464 C   0  0  1  0  0  0  0  0  0  0  0  0
   12.9097  -15.5682   22.9249 C   0  0  0  0  0  0  0  0  0  0  0  0
   14.0525  -16.3854   23.3405 C   0  0  0  0  0  0  0  0  0  0  0  0
   14.7947  -16.1229   24.3093 O   0  0  0  0  0  0  0  0  0  0  0  0
   11.4766  -16.4742   24.6967 C   0  0  0  0  0  0  0  0  0  0  0  0
   10.7675  -15.8428   25.4818 O   0  0  0  0  0  0  0  0  0  0  0  0
   14.4047  -17.5695   22.6476 O   0  0  0  0  0  0  0  0  0  0  0  0
   12.2247  -17.5294   25.2677 O   0  0  0  0  0  0  0  0  0  0  0  0
  1  2  1  0
  3  4  2  0
  3  2  1  0
  5  6  1  0
  7  6  1  1
  7  8  1  0
  8  3  1  0
  9 11  1  0
  9  7  1  0
 10  9  2  0
 12 11  1  0
 12 16  1  0
 13 14  1  0
 12 13  1  1
 14 15  2  0
 16 19  1  0
 17 16  2  0
 18 14  1  0
M  END
$$$$
