GSD.pdb
     RDKit          3D

 19 18  0  0  1  0  0  0  0  0999 V2000
    9.1793  -15.0539   13.3787 N   0  0  0  0  0  0  0  0  0  0  0  0
    8.4074  -15.4558   14.5327 C   0  0  0  0  0  0  0  0  0  0  0  0
    9.0238  -14.8234   15.7403 C   0  0  0  0  0  0  0  0  0  0  0  0
   10.2565  -14.5952   15.7844 O   0  0  0  0  0  0  0  0  0  0  0  0
    8.5164  -12.6287   20.0634 O   0  0  0  0  0  0  0  0  0  0  0  0
    7.8951  -13.4014   19.0635 C   0  0  0  0  0  0  0  0  0  0  0  0
    8.8672  -13.8298   17.9960 C   0  0  2  0  0  0  0  0  0  0  0  0
    8.2652  -14.4561   16.8744 N   0  0  0  0  0  0  0  0  0  0  0  0
    9.8990  -14.6945   18.6254 C   0  0  0  0  0  0  0  0  0  0  0  0
    9.7239  -15.9369   18.5759 O   0  0  0  0  0  0  0  0  0  0  0  0
   11.0499  -14.1976   19.2676 N   0  0  0  0  0  0  0  0  0  0  0  0
   12.0746  -15.0893   19.8586 C   0  0  1  0  0  0  0  0  0  0  0  0
   13.4109  -14.4266   19.8074 C   0  0  0  0  0  0  0  0  0  0  0  0
   14.0492  -14.6112   18.5015 C   0  0  0  0  0  0  0  0  0  0  0  0
   13.9869  -15.6588   17.8256 O   0  0  0  0  0  0  0  0  0  0  0  0
   11.6828  -15.4057   21.2459 C   0  0  0  0  0  0  0  0  0  0  0  0
   12.2466  -16.1896   22.0109 O   0  0  0  0  0  0  0  0  0  0  0  0
   14.8061  -13.5781   17.8967 O   0  0  0  0  0  0  0  0  0  0  0  0
   10.5453  -14.7530   21.7746 O   0  0  0  0  0  0  0  0  0  0  0  0
  1  2  1  0
  3  4  2  0
  3  2  1  0
  5  6  1  0
  7  6  1  1
  7  8  1  0
  8  3  1  0
  9 11  1  0
  9  7  1  0
 10  9  2  0
 12 11  1  0
 12 16  1  0
 13 14  1  0
 12 13  1  1
 14 15  2  0
 16 19  1  0
 17 16  2  0
 18 14  1  0
M  END
$$$$
