GSD.pdb
     RDKit          3D

 19 18  0  0  1  0  0  0  0  0999 V2000
    7.0586  -17.2951   18.2351 N   0  0  0  0  0  0  0  0  0  0  0  0
    6.5677  -16.9741   19.5560 C   0  0  0  0  0  0  0  0  0  0  0  0
    7.5624  -16.0660   20.2074 C   0  0  0  0  0  0  0  0  0  0  0  0
    8.6148  -15.7360   19.6100 O   0  0  0  0  0  0  0  0  0  0  0  0
    7.1440  -14.6429   24.2225 O   0  0  0  0  0  0  0  0  0  0  0  0
    7.8934  -13.9177   23.2763 C   0  0  0  0  0  0  0  0  0  0  0  0
    8.3890  -14.7947   22.1569 C   0  0  2  0  0  0  0  0  0  0  0  0
    7.3736  -15.5413   21.5056 N   0  0  0  0  0  0  0  0  0  0  0  0
    9.4634  -15.6708   22.6922 C   0  0  0  0  0  0  0  0  0  0  0  0
    9.1585  -16.8551   22.9768 O   0  0  0  0  0  0  0  0  0  0  0  0
   10.7908  -15.2456   22.8947 N   0  0  0  0  0  0  0  0  0  0  0  0
   11.8460  -16.1554   23.3981 C   0  0  1  0  0  0  0  0  0  0  0  0
   13.1712  -15.4710   23.3433 C   0  0  0  0  0  0  0  0  0  0  0  0
   14.2593  -16.3840   23.7031 C   0  0  0  0  0  0  0  0  0  0  0  0
   15.0353  -16.2148   24.6661 O   0  0  0  0  0  0  0  0  0  0  0  0
   11.5045  -16.5591   24.7759 C   0  0  0  0  0  0  0  0  0  0  0  0
   11.6765  -17.6684   25.2834 O   0  0  0  0  0  0  0  0  0  0  0  0
   14.5130  -17.5610   22.9571 O   0  0  0  0  0  0  0  0  0  0  0  0
   10.9184  -15.5887   25.6210 O   0  0  0  0  0  0  0  0  0  0  0  0
  1  2  1  0
  3  4  2  0
  3  2  1  0
  5  6  1  0
  7  6  1  1
  7  8  1  0
  8  3  1  0
  9 11  1  0
  9  7  1  0
 10  9  2  0
 12 11  1  0
 12 16  1  0
 13 14  1  0
 12 13  1  1
 14 15  2  0
 16 19  1  0
 17 16  2  0
 18 14  1  0
M  END
$$$$
