GSD.pdb
     RDKit          3D

 19 18  0  0  1  0  0  0  0  0999 V2000
   -6.1927  -23.5497   22.3759 N   0  0  0  0  0  0  0  0  0  0  0  0
   -5.0356  -24.2510   22.8839 C   0  0  0  0  0  0  0  0  0  0  0  0
   -5.3753  -24.7722   24.2445 C   0  0  0  0  0  0  0  0  0  0  0  0
   -6.5681  -24.9864   24.5682 O   0  0  0  0  0  0  0  0  0  0  0  0
   -2.5802  -25.0108   27.4673 O   0  0  0  0  0  0  0  0  0  0  0  0
   -3.5683  -26.0043   27.3284 C   0  0  0  0  0  0  0  0  0  0  0  0
   -4.7374  -25.5266   26.5080 C   0  0  2  0  0  0  0  0  0  0  0  0
   -4.3899  -25.0460   25.2193 N   0  0  0  0  0  0  0  0  0  0  0  0
   -5.4757  -24.5076   27.2985 C   0  0  0  0  0  0  0  0  0  0  0  0
   -5.3723  -23.3085   26.9403 O   0  0  0  0  0  0  0  0  0  0  0  0
   -6.2760  -24.8141   28.4163 N   0  0  0  0  0  0  0  0  0  0  0  0
   -7.0191  -23.7757   29.1672 C   0  0  1  0  0  0  0  0  0  0  0  0
   -7.9507  -23.0575   28.2486 C   0  0  0  0  0  0  0  0  0  0  0  0
   -8.7065  -22.0213   28.9571 C   0  0  0  0  0  0  0  0  0  0  0  0
   -8.2103  -21.2165   29.7723 O   0  0  0  0  0  0  0  0  0  0  0  0
   -7.7478  -24.4237   30.2750 C   0  0  0  0  0  0  0  0  0  0  0  0
   -7.9848  -25.6264   30.3980 O   0  0  0  0  0  0  0  0  0  0  0  0
  -10.0991  -21.8568   28.7584 O   0  0  0  0  0  0  0  0  0  0  0  0
   -8.2337  -23.5992   31.3158 O   0  0  0  0  0  0  0  0  0  0  0  0
  1  2  1  0
  3  4  2  0
  3  2  1  0
  5  6  1  0
  7  6  1  1
  7  8  1  0
  8  3  1  0
  9 11  1  0
  9  7  1  0
 10  9  2  0
 12 11  1  0
 12 16  1  0
 13 14  1  0
 12 13  1  6
 14 15  2  0
 16 19  1  0
 17 16  2  0
 18 14  1  0
M  END
$$$$
