GSD.pdb
     RDKit          3D

 19 18  0  0  1  0  0  0  0  0999 V2000
   -2.9750  -27.7574   28.7907 N   0  0  0  0  0  0  0  0  0  0  0  0
   -2.0653  -26.6379   28.8802 C   0  0  0  0  0  0  0  0  0  0  0  0
   -2.8226  -25.4743   29.4377 C   0  0  0  0  0  0  0  0  0  0  0  0
   -3.1295  -25.4337   30.6533 O   0  0  0  0  0  0  0  0  0  0  0  0
   -4.2495  -22.2264   27.0326 O   0  0  0  0  0  0  0  0  0  0  0  0
   -3.9500  -22.0436   28.3963 C   0  0  0  0  0  0  0  0  0  0  0  0
   -4.0257  -23.3342   29.1686 C   0  0  2  0  0  0  0  0  0  0  0  0
   -3.2250  -24.3795   28.6403 N   0  0  0  0  0  0  0  0  0  0  0  0
   -5.4540  -23.7305   29.2748 C   0  0  0  0  0  0  0  0  0  0  0  0
   -5.8661  -24.6289   28.5004 O   0  0  0  0  0  0  0  0  0  0  0  0
   -6.3590  -23.1563   30.1887 N   0  0  0  0  0  0  0  0  0  0  0  0
   -7.7882  -23.5428   30.2372 C   0  0  1  0  0  0  0  0  0  0  0  0
   -8.0934  -24.1853   31.5493 C   0  0  0  0  0  0  0  0  0  0  0  0
   -9.4859  -24.6369   31.6119 C   0  0  0  0  0  0  0  0  0  0  0  0
  -10.4015  -24.0269   32.2016 O   0  0  0  0  0  0  0  0  0  0  0  0
   -8.6116  -22.3369   30.0231 C   0  0  0  0  0  0  0  0  0  0  0  0
   -8.2893  -21.1720   30.2614 O   0  0  0  0  0  0  0  0  0  0  0  0
   -9.9018  -25.8376   30.9861 O   0  0  0  0  0  0  0  0  0  0  0  0
   -9.9093  -22.5111   29.4893 O   0  0  0  0  0  0  0  0  0  0  0  0
  1  2  1  0
  3  4  2  0
  3  2  1  0
  5  6  1  0
  7  6  1  6
  7  8  1  0
  8  3  1  0
  9 11  1  0
  9  7  1  0
 10  9  2  0
 12 11  1  0
 12 16  1  0
 13 14  1  0
 12 13  1  1
 14 15  2  0
 16 19  1  0
 17 16  2  0
 18 14  1  0
M  END
$$$$
