GSD.pdb
     RDKit          3D

 19 18  0  0  1  0  0  0  0  0999 V2000
   11.3624  -16.3534   17.0406 N   0  0  0  0  0  0  0  0  0  0  0  0
   10.8389  -16.7671   18.3226 C   0  0  0  0  0  0  0  0  0  0  0  0
   11.5704  -16.0074   19.3840 C   0  0  0  0  0  0  0  0  0  0  0  0
   12.6724  -15.4621   19.1361 O   0  0  0  0  0  0  0  0  0  0  0  0
   10.8165  -16.3454   23.6391 O   0  0  0  0  0  0  0  0  0  0  0  0
   11.1215  -15.1103   23.0355 C   0  0  0  0  0  0  0  0  0  0  0  0
   11.8500  -15.2854   21.7292 C   0  0  2  0  0  0  0  0  0  0  0  0
   11.0687  -15.8662   20.6973 N   0  0  0  0  0  0  0  0  0  0  0  0
   13.0906  -16.0615   21.9880 C   0  0  0  0  0  0  0  0  0  0  0  0
   13.4760  -16.8547   21.0941 O   0  0  0  0  0  0  0  0  0  0  0  0
   13.8474  -15.9547   23.1711 N   0  0  0  0  0  0  0  0  0  0  0  0
   15.3286  -15.9667   23.1678 C   0  0  1  0  0  0  0  0  0  0  0  0
   15.8416  -14.7819   22.4190 C   0  0  0  0  0  0  0  0  0  0  0  0
   17.3065  -14.7536   22.4024 C   0  0  0  0  0  0  0  0  0  0  0  0
   18.0235  -14.6460   23.4185 O   0  0  0  0  0  0  0  0  0  0  0  0
   15.8046  -15.9687   24.5647 C   0  0  0  0  0  0  0  0  0  0  0  0
   16.7375  -16.6288   25.0250 O   0  0  0  0  0  0  0  0  0  0  0  0
   18.0333  -14.8498   21.1905 O   0  0  0  0  0  0  0  0  0  0  0  0
   15.1367  -15.1337   25.4899 O   0  0  0  0  0  0  0  0  0  0  0  0
  1  2  1  0
  3  4  2  0
  3  2  1  0
  5  6  1  0
  7  6  1  1
  7  8  1  0
  8  3  1  0
  9 11  1  0
  9  7  1  0
 10  9  2  0
 12 11  1  0
 12 16  1  0
 13 14  1  0
 12 13  1  6
 14 15  2  0
 16 19  1  0
 17 16  2  0
 18 14  1  0
M  END
$$$$
