GSD.pdb
     RDKit          3D

 19 18  0  0  1  0  0  0  0  0999 V2000
   -5.5049  -23.6894   22.1188 N   0  0  0  0  0  0  0  0  0  0  0  0
   -6.9188  -23.6434   22.4147 C   0  0  0  0  0  0  0  0  0  0  0  0
   -7.0857  -23.0143   23.7618 C   0  0  0  0  0  0  0  0  0  0  0  0
   -6.1616  -23.0608   24.6088 O   0  0  0  0  0  0  0  0  0  0  0  0
  -10.8291  -21.6126   25.3805 O   0  0  0  0  0  0  0  0  0  0  0  0
   -9.6301  -20.9087   25.6031 C   0  0  0  0  0  0  0  0  0  0  0  0
   -8.4199  -21.7904   25.4417 C   0  0  2  0  0  0  0  0  0  0  0  0
   -8.2705  -22.3466   24.1452 N   0  0  0  0  0  0  0  0  0  0  0  0
   -8.4647  -22.8400   26.4927 C   0  0  0  0  0  0  0  0  0  0  0  0
   -8.9241  -23.9636   26.1716 O   0  0  0  0  0  0  0  0  0  0  0  0
   -8.0237  -22.6414   27.8156 N   0  0  0  0  0  0  0  0  0  0  0  0
   -8.1387  -23.6906   28.8549 C   0  0  1  0  0  0  0  0  0  0  0  0
   -6.8434  -24.4214   28.9804 C   0  0  0  0  0  0  0  0  0  0  0  0
   -6.9272  -25.4897   29.9797 C   0  0  0  0  0  0  0  0  0  0  0  0
   -7.9928  -25.9212   30.4660 O   0  0  0  0  0  0  0  0  0  0  0  0
   -8.5236  -23.0536   30.1293 C   0  0  0  0  0  0  0  0  0  0  0  0
   -8.3068  -21.8887   30.4666 O   0  0  0  0  0  0  0  0  0  0  0  0
   -5.7650  -26.1271   30.4787 O   0  0  0  0  0  0  0  0  0  0  0  0
   -9.2149  -23.8421   31.0779 O   0  0  0  0  0  0  0  0  0  0  0  0
  1  2  1  0
  3  4  2  0
  3  2  1  0
  5  6  1  0
  7  6  1  6
  7  8  1  0
  8  3  1  0
  9 11  1  0
  9  7  1  0
 10  9  2  0
 12 11  1  0
 12 16  1  0
 13 14  1  0
 12 13  1  1
 14 15  2  0
 16 19  1  0
 17 16  2  0
 18 14  1  0
M  END
$$$$
