GSD.pdb
     RDKit          3D

 19 18  0  0  1  0  0  0  0  0999 V2000
    8.3780  -16.8268   17.9888 N   0  0  0  0  0  0  0  0  0  0  0  0
    7.6364  -16.7300   19.2255 C   0  0  0  0  0  0  0  0  0  0  0  0
    8.5075  -16.0451   20.2308 C   0  0  0  0  0  0  0  0  0  0  0  0
    9.7200  -15.8341   19.9887 O   0  0  0  0  0  0  0  0  0  0  0  0
    7.1692  -14.9463   24.1448 O   0  0  0  0  0  0  0  0  0  0  0  0
    8.1474  -14.1815   23.4809 C   0  0  0  0  0  0  0  0  0  0  0  0
    8.8712  -14.9809   22.4297 C   0  0  2  0  0  0  0  0  0  0  0  0
    8.0205  -15.6075   21.4829 N   0  0  0  0  0  0  0  0  0  0  0  0
    9.7536  -15.9607   23.1149 C   0  0  0  0  0  0  0  0  0  0  0  0
    9.3866  -17.1615   23.1290 O   0  0  0  0  0  0  0  0  0  0  0  0
   10.9663  -15.6156   23.7426 N   0  0  0  0  0  0  0  0  0  0  0  0
   11.7906  -16.6066   24.4727 C   0  0  1  0  0  0  0  0  0  0  0  0
   13.2301  -16.2200   24.3971 C   0  0  0  0  0  0  0  0  0  0  0  0
   13.7398  -16.3229   23.0272 C   0  0  0  0  0  0  0  0  0  0  0  0
   13.4854  -17.2634   22.2467 O   0  0  0  0  0  0  0  0  0  0  0  0
   11.3229  -16.6722   25.8709 C   0  0  0  0  0  0  0  0  0  0  0  0
   10.4724  -15.9540   26.3986 O   0  0  0  0  0  0  0  0  0  0  0  0
   14.5846  -15.3283   22.4768 O   0  0  0  0  0  0  0  0  0  0  0  0
   11.8955  -17.6541   26.7120 O   0  0  0  0  0  0  0  0  0  0  0  0
  1  2  1  0
  3  4  2  0
  3  2  1  0
  5  6  1  0
  7  6  1  1
  7  8  1  0
  8  3  1  0
  9 11  1  0
  9  7  1  0
 10  9  2  0
 12 11  1  0
 12 16  1  0
 13 14  1  0
 12 13  1  1
 14 15  2  0
 16 19  1  0
 17 16  2  0
 18 14  1  0
M  END
$$$$
