GSD.pdb
     RDKit          3D

 19 18  0  0  1  0  0  0  0  0999 V2000
    4.4696  -19.3684   21.4820 N   0  0  0  0  0  0  0  0  0  0  0  0
    4.5593  -18.1609   22.2711 C   0  0  0  0  0  0  0  0  0  0  0  0
    5.7641  -17.4013   21.8129 C   0  0  0  0  0  0  0  0  0  0  0  0
    6.4323  -17.7955   20.8272 O   0  0  0  0  0  0  0  0  0  0  0  0
    6.8091  -13.4488   23.0634 O   0  0  0  0  0  0  0  0  0  0  0  0
    7.2556  -14.0739   21.8832 C   0  0  0  0  0  0  0  0  0  0  0  0
    7.3966  -15.5636   22.0524 C   0  0  2  0  0  0  0  0  0  0  0  0
    6.2056  -16.2218   22.4534 N   0  0  0  0  0  0  0  0  0  0  0  0
    8.5160  -15.8215   22.9952 C   0  0  0  0  0  0  0  0  0  0  0  0
    8.2358  -15.9229   24.2150 O   0  0  0  0  0  0  0  0  0  0  0  0
    9.8599  -15.9561   22.5954 N   0  0  0  0  0  0  0  0  0  0  0  0
   10.9453  -16.2618   23.5560 C   0  0  1  0  0  0  0  0  0  0  0  0
   10.7246  -17.6109   24.1550 C   0  0  0  0  0  0  0  0  0  0  0  0
   11.7745  -17.9448   25.1210 C   0  0  0  0  0  0  0  0  0  0  0  0
   12.6577  -17.1520   25.5080 O   0  0  0  0  0  0  0  0  0  0  0  0
   12.2378  -16.1919   22.8470 C   0  0  0  0  0  0  0  0  0  0  0  0
   12.4072  -16.0764   21.6322 O   0  0  0  0  0  0  0  0  0  0  0  0
   11.8614  -19.2339   25.7012 O   0  0  0  0  0  0  0  0  0  0  0  0
   13.4189  -16.2620   23.6211 O   0  0  0  0  0  0  0  0  0  0  0  0
  1  2  1  0
  3  4  2  0
  3  2  1  0
  5  6  1  0
  7  6  1  1
  7  8  1  0
  8  3  1  0
  9 11  1  0
  9  7  1  0
 10  9  2  0
 12 11  1  0
 12 16  1  0
 13 14  1  0
 12 13  1  6
 14 15  2  0
 16 19  1  0
 17 16  2  0
 18 14  1  0
M  END
$$$$
