GSD.pdb
     RDKit          3D

 19 18  0  0  1  0  0  0  0  0999 V2000
    3.2920  -20.2266   20.7620 N   0  0  0  0  0  0  0  0  0  0  0  0
    3.4422  -19.0832   21.6332 C   0  0  0  0  0  0  0  0  0  0  0  0
    4.8482  -19.0772   22.1446 C   0  0  0  0  0  0  0  0  0  0  0  0
    5.6554  -19.9763   21.8079 O   0  0  0  0  0  0  0  0  0  0  0  0
    6.8024  -15.6840   23.3885 O   0  0  0  0  0  0  0  0  0  0  0  0
    7.4807  -16.8854   23.1069 C   0  0  0  0  0  0  0  0  0  0  0  0
    6.6700  -18.0947   23.4920 C   0  0  2  0  0  0  0  0  0  0  0  0
    5.3331  -18.0776   23.0176 N   0  0  0  0  0  0  0  0  0  0  0  0
    6.7314  -18.2456   24.9691 C   0  0  0  0  0  0  0  0  0  0  0  0
    6.7046  -17.1981   25.6611 O   0  0  0  0  0  0  0  0  0  0  0  0
    6.8175  -19.4889   25.6253 N   0  0  0  0  0  0  0  0  0  0  0  0
    8.1154  -20.1216   25.9566 C   0  0  1  0  0  0  0  0  0  0  0  0
    8.9385  -20.2634   24.7198 C   0  0  0  0  0  0  0  0  0  0  0  0
    9.6137  -21.5630   24.6735 C   0  0  0  0  0  0  0  0  0  0  0  0
    9.0532  -22.6590   24.8804 O   0  0  0  0  0  0  0  0  0  0  0  0
    8.8006  -19.2934   26.9679 C   0  0  0  0  0  0  0  0  0  0  0  0
    8.9756  -19.5733   28.1548 O   0  0  0  0  0  0  0  0  0  0  0  0
   10.9955  -21.6674   24.3808 O   0  0  0  0  0  0  0  0  0  0  0  0
    9.3194  -18.0444   26.5554 O   0  0  0  0  0  0  0  0  0  0  0  0
  1  2  1  0
  3  4  2  0
  3  2  1  0
  5  6  1  0
  7  6  1  1
  7  8  1  0
  8  3  1  0
  9 11  1  0
  9  7  1  0
 10  9  2  0
 12 11  1  0
 12 16  1  0
 13 14  1  0
 12 13  1  6
 14 15  2  0
 16 19  1  0
 17 16  2  0
 18 14  1  0
M  END
$$$$
