GSD.pdb
     RDKit          3D

 19 18  0  0  1  0  0  0  0  0999 V2000
    8.3291  -13.0641   17.7377 N   0  0  0  0  0  0  0  0  0  0  0  0
    7.4180  -13.5738   18.7372 C   0  0  0  0  0  0  0  0  0  0  0  0
    8.1566  -13.6488   20.0362 C   0  0  0  0  0  0  0  0  0  0  0  0
    9.3999  -13.4878   20.0755 O   0  0  0  0  0  0  0  0  0  0  0  0
    6.3827  -14.8774   23.8080 O   0  0  0  0  0  0  0  0  0  0  0  0
    7.4365  -13.9474   23.7214 C   0  0  0  0  0  0  0  0  0  0  0  0
    8.2393  -14.1204   22.4591 C   0  0  2  0  0  0  0  0  0  0  0  0
    7.5058  -13.9001   21.2649 N   0  0  0  0  0  0  0  0  0  0  0  0
    8.8633  -15.4688   22.4850 C   0  0  0  0  0  0  0  0  0  0  0  0
    8.6773  -16.2135   21.4912 O   0  0  0  0  0  0  0  0  0  0  0  0
    9.6434  -15.9491   23.5548 N   0  0  0  0  0  0  0  0  0  0  0  0
   10.8260  -16.8165   23.3461 C   0  0  1  0  0  0  0  0  0  0  0  0
   11.8321  -16.1047   22.5042 C   0  0  0  0  0  0  0  0  0  0  0  0
   13.0525  -16.8995   22.3437 C   0  0  0  0  0  0  0  0  0  0  0  0
   13.0750  -18.1384   22.1926 O   0  0  0  0  0  0  0  0  0  0  0  0
   11.3849  -17.1789   24.6630 C   0  0  0  0  0  0  0  0  0  0  0  0
   11.3553  -16.4981   25.6894 O   0  0  0  0  0  0  0  0  0  0  0  0
   14.3335  -16.2952   22.3491 O   0  0  0  0  0  0  0  0  0  0  0  0
   12.0254  -18.4336   24.7845 O   0  0  0  0  0  0  0  0  0  0  0  0
  1  2  1  0
  3  4  2  0
  3  2  1  0
  5  6  1  0
  7  6  1  1
  7  8  1  0
  8  3  1  0
  9 11  1  0
  9  7  1  0
 10  9  2  0
 12 11  1  0
 12 16  1  0
 13 14  1  0
 12 13  1  6
 14 15  2  0
 16 19  1  0
 17 16  2  0
 18 14  1  0
M  END
$$$$
