VNL.pdb
     RDKit          3D

 24 23  0  0  1  0  0  0  0  0999 V2000
    7.1811  -13.0378   20.9634 C   0  0  0  0  0  0  0  0  0  0  0  0
    8.4199  -13.2051   20.1145 C   0  0  2  0  0  0  0  0  0  0  0  0
    8.3359  -12.3283   18.9036 C   0  0  0  0  0  0  0  0  0  0  0  0
    8.6128  -14.6608   19.7278 C   0  0  2  0  0  0  0  0  0  0  0  0
    7.5655  -15.0871   18.8309 N   0  0  0  0  0  0  0  0  0  0  0  0
    8.6224  -15.4541   20.9611 C   0  0  0  0  0  0  0  0  0  0  0  0
    7.5482  -15.9380   21.4010 O   0  0  0  0  0  0  0  0  0  0  0  0
   10.1382  -19.7888   22.1604 N   0  0  0  0  0  0  0  0  0  0  0  0
   10.8215  -18.5747   21.9079 C   0  0  0  0  0  0  0  0  0  0  0  0
   11.3552  -18.4101   20.7848 O   0  0  0  0  0  0  0  0  0  0  0  0
   10.9218  -17.5113   22.9164 C   0  0  0  0  0  0  0  0  0  0  0  0
    9.7642  -16.5570   22.8814 C   0  0  2  0  0  0  0  0  0  0  0  0
    9.8051  -15.7240   21.7218 N   0  0  0  0  0  0  0  0  0  0  0  0
    9.7659  -15.7671   24.1488 C   0  0  0  0  0  0  0  0  0  0  0  0
   10.7720  -15.0855   24.4704 O   0  0  0  0  0  0  0  0  0  0  0  0
    8.1189  -12.1074   26.1936 C   0  0  0  0  0  0  0  0  0  0  0  0
    7.0790  -13.1788   25.8251 C   0  0  2  0  0  0  0  0  0  0  0  0
    5.7427  -12.5554   26.1092 C   0  0  0  0  0  0  0  0  0  0  0  0
    7.4001  -14.3747   26.6380 C   0  0  0  0  0  0  0  0  0  0  0  0
    8.6916  -15.0580   26.3326 C   0  0  2  0  0  0  0  0  0  0  0  0
    8.6571  -15.7441   25.0379 N   0  0  0  0  0  0  0  0  0  0  0  0
    9.2179  -15.9132   27.3937 C   0  0  0  0  0  0  0  0  0  0  0  0
    9.3995  -17.2572   27.1623 O   0  0  0  0  0  0  0  0  0  0  0  0
    9.5072  -15.4464   28.5100 O   0  0  0  0  0  0  0  0  0  0  0  0
  2  1  1  6
  2  3  1  0
  4  2  1  0
  4  5  1  6
  6  7  2  0
  6  4  1  0
  9 11  1  0
  9  8  1  0
 10  9  2  0
 12 11  1  1
 12 14  1  0
 12 13  1  0
 13  6  1  0
 14 21  1  0
 15 14  2  0
 17 16  1  1
 18 17  1  0
 19 17  1  0
 20 19  1  1
 20 22  1  0
 21 20  1  0
 22 24  2  0
 22 23  1  0
M  END
$$$$
