VNL.pdb
     RDKit          3D

 24 23  0  0  1  0  0  0  0  0999 V2000
    6.9980  -12.9808   20.8798 C   0  0  0  0  0  0  0  0  0  0  0  0
    8.1301  -13.2548   19.9173 C   0  0  2  0  0  0  0  0  0  0  0  0
    7.9080  -12.5112   18.6368 C   0  0  0  0  0  0  0  0  0  0  0  0
    8.2750  -14.7461   19.6699 C   0  0  2  0  0  0  0  0  0  0  0  0
    7.1006  -15.2640   19.0100 N   0  0  0  0  0  0  0  0  0  0  0  0
    8.4955  -15.3955   20.9661 C   0  0  0  0  0  0  0  0  0  0  0  0
    7.5155  -15.8409   21.6164 O   0  0  0  0  0  0  0  0  0  0  0  0
   11.6890  -19.2100   22.8380 N   0  0  0  0  0  0  0  0  0  0  0  0
   11.3828  -18.0620   23.6081 C   0  0  0  0  0  0  0  0  0  0  0  0
   11.1428  -18.2074   24.8307 O   0  0  0  0  0  0  0  0  0  0  0  0
   11.3387  -16.7166   23.0200 C   0  0  0  0  0  0  0  0  0  0  0  0
    9.9413  -16.2051   22.8268 C   0  0  2  0  0  0  0  0  0  0  0  0
    9.7876  -15.5627   21.5602 N   0  0  0  0  0  0  0  0  0  0  0  0
    9.6086  -15.2999   23.9670 C   0  0  0  0  0  0  0  0  0  0  0  0
    8.9918  -14.2236   23.7638 O   0  0  0  0  0  0  0  0  0  0  0  0
    7.9770  -12.8841   27.0257 C   0  0  0  0  0  0  0  0  0  0  0  0
    7.5865  -13.5870   25.7148 C   0  0  2  0  0  0  0  0  0  0  0  0
    6.2146  -13.0768   25.3791 C   0  0  0  0  0  0  0  0  0  0  0  0
    7.6690  -15.0427   25.9765 C   0  0  0  0  0  0  0  0  0  0  0  0
    8.9976  -15.5646   26.4129 C   0  0  2  0  0  0  0  0  0  0  0  0
    9.9629  -15.5994   25.3106 N   0  0  0  0  0  0  0  0  0  0  0  0
    8.9669  -16.8219   27.1564 C   0  0  0  0  0  0  0  0  0  0  0  0
    9.0258  -16.8054   28.5309 O   0  0  0  0  0  0  0  0  0  0  0  0
    8.8879  -17.9145   26.5667 O   0  0  0  0  0  0  0  0  0  0  0  0
  2  1  1  1
  2  3  1  0
  4  2  1  0
  4  5  1  1
  6  7  2  0
  6  4  1  0
  9 11  1  0
  9  8  1  0
 10  9  2  0
 12 11  1  1
 12 14  1  0
 12 13  1  0
 13  6  1  0
 14 21  1  0
 15 14  2  0
 17 16  1  1
 18 17  1  0
 19 17  1  0
 20 19  1  6
 20 22  1  0
 21 20  1  0
 22 24  2  0
 22 23  1  0
M  END
$$$$
