VNL.pdb
     RDKit          3D

 24 23  0  0  1  0  0  0  0  0999 V2000
    7.3033  -13.1134   20.5241 C   0  0  0  0  0  0  0  0  0  0  0  0
    8.4747  -13.3942   19.6119 C   0  0  2  0  0  0  0  0  0  0  0  0
    8.3981  -12.5262   18.3942 C   0  0  0  0  0  0  0  0  0  0  0  0
    8.5227  -14.8650   19.2374 C   0  0  2  0  0  0  0  0  0  0  0  0
    7.3651  -15.2236   18.4536 N   0  0  0  0  0  0  0  0  0  0  0  0
    8.5941  -15.6411   20.4796 C   0  0  0  0  0  0  0  0  0  0  0  0
    7.5358  -16.0483   21.0236 O   0  0  0  0  0  0  0  0  0  0  0  0
   10.2865  -19.8191   21.8191 N   0  0  0  0  0  0  0  0  0  0  0  0
   11.0976  -18.6766   21.6149 C   0  0  0  0  0  0  0  0  0  0  0  0
   11.8650  -18.6564   20.6229 O   0  0  0  0  0  0  0  0  0  0  0  0
   11.0655  -17.5239   22.5249 C   0  0  0  0  0  0  0  0  0  0  0  0
    9.8271  -16.6900   22.3737 C   0  0  2  0  0  0  0  0  0  0  0  0
    9.8216  -15.9774   21.1358 N   0  0  0  0  0  0  0  0  0  0  0  0
    9.7244  -15.7802   23.5535 C   0  0  0  0  0  0  0  0  0  0  0  0
   10.6715  -15.0055   23.8418 O   0  0  0  0  0  0  0  0  0  0  0  0
    5.6253  -12.6162   26.6516 C   0  0  0  0  0  0  0  0  0  0  0  0
    7.0093  -13.2649   26.8214 C   0  0  2  0  0  0  0  0  0  0  0  0
    7.9656  -12.1241   27.0197 C   0  0  0  0  0  0  0  0  0  0  0  0
    7.2452  -14.0787   25.6064 C   0  0  0  0  0  0  0  0  0  0  0  0
    8.4954  -14.8940   25.5857 C   0  0  2  0  0  0  0  0  0  0  0  0
    8.5782  -15.7422   24.3933 N   0  0  0  0  0  0  0  0  0  0  0  0
    8.7826  -15.6376   26.8100 C   0  0  0  0  0  0  0  0  0  0  0  0
    8.2668  -16.9018   26.9794 O   0  0  0  0  0  0  0  0  0  0  0  0
    9.4894  -15.1466   27.7084 O   0  0  0  0  0  0  0  0  0  0  0  0
  2  1  1  1
  2  3  1  0
  4  2  1  0
  4  5  1  1
  6  7  2  0
  6  4  1  0
  9 11  1  0
  9  8  1  0
 10  9  2  0
 12 11  1  1
 12 14  1  0
 12 13  1  0
 13  6  1  0
 14 21  1  0
 15 14  2  0
 17 16  1  6
 18 17  1  0
 19 17  1  0
 20 19  1  1
 20 22  1  0
 21 20  1  0
 22 24  2  0
 22 23  1  0
M  END
$$$$
