VNL.pdb
     RDKit          3D

 24 23  0  0  1  0  0  0  0  0999 V2000
    7.2322  -13.0131   20.5133 C   0  0  0  0  0  0  0  0  0  0  0  0
    8.3639  -13.3785   19.5812 C   0  0  2  0  0  0  0  0  0  0  0  0
    8.2540  -12.5981   18.3081 C   0  0  0  0  0  0  0  0  0  0  0  0
    8.3758  -14.8729   19.3116 C   0  0  2  0  0  0  0  0  0  0  0  0
    7.1766  -15.2686   18.6129 N   0  0  0  0  0  0  0  0  0  0  0  0
    8.4996  -15.5595   20.6014 C   0  0  0  0  0  0  0  0  0  0  0  0
    7.4678  -15.8219   21.2710 O   0  0  0  0  0  0  0  0  0  0  0  0
    9.5150  -19.3082   23.2471 N   0  0  0  0  0  0  0  0  0  0  0  0
   10.8153  -18.8317   22.9525 C   0  0  0  0  0  0  0  0  0  0  0  0
   11.7771  -19.6340   23.0211 O   0  0  0  0  0  0  0  0  0  0  0  0
   11.0673  -17.4355   22.5718 C   0  0  0  0  0  0  0  0  0  0  0  0
    9.8099  -16.6286   22.4313 C   0  0  2  0  0  0  0  0  0  0  0  0
    9.7508  -15.9638   21.1683 N   0  0  0  0  0  0  0  0  0  0  0  0
    9.7300  -15.6763   23.5788 C   0  0  0  0  0  0  0  0  0  0  0  0
   10.6351  -14.8228   23.7595 O   0  0  0  0  0  0  0  0  0  0  0  0
    5.7652  -12.6101   26.9178 C   0  0  0  0  0  0  0  0  0  0  0  0
    7.1860  -13.1945   26.9870 C   0  0  2  0  0  0  0  0  0  0  0  0
    8.1047  -12.0087   27.0571 C   0  0  0  0  0  0  0  0  0  0  0  0
    7.3501  -14.0466   25.7865 C   0  0  0  0  0  0  0  0  0  0  0  0
    8.6207  -14.8245   25.6930 C   0  0  2  0  0  0  0  0  0  0  0  0
    8.6525  -15.6836   24.5060 N   0  0  0  0  0  0  0  0  0  0  0  0
    9.0084  -15.5450   26.9033 C   0  0  0  0  0  0  0  0  0  0  0  0
    8.6276  -16.8565   27.0703 O   0  0  0  0  0  0  0  0  0  0  0  0
    9.6809  -14.9919   27.7919 O   0  0  0  0  0  0  0  0  0  0  0  0
  2  1  1  1
  2  3  1  0
  4  2  1  0
  4  5  1  1
  6  7  2  0
  6  4  1  0
  9 11  1  0
  9  8  1  0
 10  9  2  0
 12 11  1  6
 12 14  1  0
 12 13  1  0
 13  6  1  0
 14 21  1  0
 15 14  2  0
 17 16  1  6
 18 17  1  0
 19 17  1  0
 20 19  1  1
 20 22  1  0
 21 20  1  0
 22 24  2  0
 22 23  1  0
M  END
$$$$
