VNL.pdb
     RDKit          3D

 24 23  0  0  1  0  0  0  0  0999 V2000
    7.1637  -12.9284   20.5743 C   0  0  0  0  0  0  0  0  0  0  0  0
    8.5232  -13.1082   19.9398 C   0  0  2  0  0  0  0  0  0  0  0  0
    8.7029  -12.1280   18.8221 C   0  0  0  0  0  0  0  0  0  0  0  0
    8.7044  -14.5357   19.4545 C   0  0  2  0  0  0  0  0  0  0  0  0
    7.7329  -14.8483   18.4341 N   0  0  0  0  0  0  0  0  0  0  0  0
    8.5722  -15.4229   20.6146 C   0  0  0  0  0  0  0  0  0  0  0  0
    7.4468  -15.8990   20.9119 O   0  0  0  0  0  0  0  0  0  0  0  0
   11.0003  -18.9609   20.4153 N   0  0  0  0  0  0  0  0  0  0  0  0
   10.1957  -18.8069   21.5701 C   0  0  0  0  0  0  0  0  0  0  0  0
    9.2152  -19.5739   21.7237 O   0  0  0  0  0  0  0  0  0  0  0  0
   10.4751  -17.7823   22.5851 C   0  0  0  0  0  0  0  0  0  0  0  0
    9.4779  -16.6609   22.5781 C   0  0  2  0  0  0  0  0  0  0  0  0
    9.6681  -15.7959   21.4573 N   0  0  0  0  0  0  0  0  0  0  0  0
    9.5759  -15.9347   23.8793 C   0  0  0  0  0  0  0  0  0  0  0  0
   10.6338  -15.3315   24.1914 O   0  0  0  0  0  0  0  0  0  0  0  0
    7.8995  -12.2531   26.1566 C   0  0  0  0  0  0  0  0  0  0  0  0
    6.9027  -13.3555   25.7614 C   0  0  2  0  0  0  0  0  0  0  0  0
    5.5466  -12.8156   26.1146 C   0  0  0  0  0  0  0  0  0  0  0  0
    7.3064  -14.5735   26.5014 C   0  0  0  0  0  0  0  0  0  0  0  0
    8.6029  -15.1950   26.1001 C   0  0  2  0  0  0  0  0  0  0  0  0
    8.5045  -15.8877   24.8122 N   0  0  0  0  0  0  0  0  0  0  0  0
    9.2483  -16.0190   27.1193 C   0  0  0  0  0  0  0  0  0  0  0  0
    9.4233  -17.3660   26.9001 O   0  0  0  0  0  0  0  0  0  0  0  0
    9.6457  -15.5230   28.1888 O   0  0  0  0  0  0  0  0  0  0  0  0
  2  1  1  6
  2  3  1  0
  4  2  1  0
  4  5  1  6
  6  7  2  0
  6  4  1  0
  9 11  1  0
  9  8  1  0
 10  9  2  0
 12 11  1  1
 12 14  1  0
 12 13  1  0
 13  6  1  0
 14 21  1  0
 15 14  2  0
 17 16  1  1
 18 17  1  0
 19 17  1  0
 20 19  1  1
 20 22  1  0
 21 20  1  0
 22 24  2  0
 22 23  1  0
M  END
$$$$
