VNL.pdb
     RDKit          3D

 24 23  0  0  1  0  0  0  0  0999 V2000
    7.0822  -14.2640   18.6403 C   0  0  0  0  0  0  0  0  0  0  0  0
    7.6528  -13.0991   19.4151 C   0  0  2  0  0  0  0  0  0  0  0  0
    8.0284  -11.9928   18.4785 C   0  0  0  0  0  0  0  0  0  0  0  0
    8.8418  -13.5408   20.2501 C   0  0  2  0  0  0  0  0  0  0  0  0
    9.8619  -14.1187   19.4086 N   0  0  0  0  0  0  0  0  0  0  0  0
    8.3569  -14.5013   21.2464 C   0  0  0  0  0  0  0  0  0  0  0  0
    7.3155  -14.2473   21.9042 O   0  0  0  0  0  0  0  0  0  0  0  0
    7.9887  -17.9280   20.2465 N   0  0  0  0  0  0  0  0  0  0  0  0
    8.7304  -18.6070   21.2433 C   0  0  0  0  0  0  0  0  0  0  0  0
    9.0642  -19.7979   21.0344 O   0  0  0  0  0  0  0  0  0  0  0  0
    9.1165  -17.9609   22.5048 C   0  0  0  0  0  0  0  0  0  0  0  0
    8.5956  -16.5593   22.6307 C   0  0  2  0  0  0  0  0  0  0  0  0
    9.0061  -15.7456   21.5308 N   0  0  0  0  0  0  0  0  0  0  0  0
    9.0424  -16.0065   23.9441 C   0  0  0  0  0  0  0  0  0  0  0  0
   10.2584  -15.7628   24.1496 O   0  0  0  0  0  0  0  0  0  0  0  0
    8.1251  -12.1977   26.3315 C   0  0  0  0  0  0  0  0  0  0  0  0
    6.9914  -13.2357   26.2831 C   0  0  2  0  0  0  0  0  0  0  0  0
    5.8086  -12.5682   26.9238 C   0  0  0  0  0  0  0  0  0  0  0  0
    7.4916  -14.4391   26.9873 C   0  0  0  0  0  0  0  0  0  0  0  0
    8.5739  -15.2067   26.3035 C   0  0  2  0  0  0  0  0  0  0  0  0
    8.1387  -15.7329   25.0067 N   0  0  0  0  0  0  0  0  0  0  0  0
    9.2335  -16.2255   27.1166 C   0  0  0  0  0  0  0  0  0  0  0  0
   10.1293  -15.8491   28.0907 O   0  0  0  0  0  0  0  0  0  0  0  0
    8.9991  -17.4352   26.9443 O   0  0  0  0  0  0  0  0  0  0  0  0
  2  1  1  6
  2  3  1  0
  4  2  1  0
  4  5  1  6
  6  7  2  0
  6  4  1  0
  9 11  1  0
  9  8  1  0
 10  9  2  0
 12 11  1  6
 12 14  1  0
 12 13  1  0
 13  6  1  0
 14 21  1  0
 15 14  2  0
 17 16  1  1
 18 17  1  0
 19 17  1  0
 20 19  1  1
 20 22  1  0
 21 20  1  0
 22 24  2  0
 22 23  1  0
M  END
$$$$
