VNL.pdb
     RDKit          3D

 24 23  0  0  1  0  0  0  0  0999 V2000
    7.2223  -14.5684   18.8577 C   0  0  0  0  0  0  0  0  0  0  0  0
    7.7317  -13.2818   19.4646 C   0  0  2  0  0  0  0  0  0  0  0  0
    7.9149  -12.2471   18.3979 C   0  0  0  0  0  0  0  0  0  0  0  0
    9.0234  -13.5221   20.2260 C   0  0  2  0  0  0  0  0  0  0  0  0
   10.0473  -14.0177   19.3379 N   0  0  0  0  0  0  0  0  0  0  0  0
    8.7372  -14.4748   21.3035 C   0  0  0  0  0  0  0  0  0  0  0  0
    7.6967  -14.3396   21.9970 O   0  0  0  0  0  0  0  0  0  0  0  0
    8.4957  -19.3243   21.3836 N   0  0  0  0  0  0  0  0  0  0  0  0
    9.6957  -18.5749   21.4398 C   0  0  0  0  0  0  0  0  0  0  0  0
   10.4777  -18.6219   20.4602 O   0  0  0  0  0  0  0  0  0  0  0  0
   10.0474  -17.7509   22.6039 C   0  0  0  0  0  0  0  0  0  0  0  0
    9.2512  -16.4817   22.6878 C   0  0  2  0  0  0  0  0  0  0  0  0
    9.5854  -15.5812   21.6305 N   0  0  0  0  0  0  0  0  0  0  0  0
    9.4659  -15.8787   24.0370 C   0  0  0  0  0  0  0  0  0  0  0  0
   10.6309  -15.7017   24.4749 O   0  0  0  0  0  0  0  0  0  0  0  0
    8.3110  -12.0166   26.2906 C   0  0  0  0  0  0  0  0  0  0  0  0
    7.1309  -12.9653   26.0216 C   0  0  2  0  0  0  0  0  0  0  0  0
    5.9093  -12.2296   26.4921 C   0  0  0  0  0  0  0  0  0  0  0  0
    7.4264  -14.2219   26.7482 C   0  0  0  0  0  0  0  0  0  0  0  0
    8.5888  -15.0172   26.2538 C   0  0  2  0  0  0  0  0  0  0  0  0
    8.3908  -15.4819   24.8780 N   0  0  0  0  0  0  0  0  0  0  0  0
    9.0388  -16.0904   27.1370 C   0  0  0  0  0  0  0  0  0  0  0  0
    9.7233  -15.7852   28.2908 O   0  0  0  0  0  0  0  0  0  0  0  0
    8.8134  -17.2831   26.8642 O   0  0  0  0  0  0  0  0  0  0  0  0
  2  1  1  6
  2  3  1  0
  4  2  1  0
  4  5  1  6
  6  7  2  0
  6  4  1  0
  9 11  1  0
  9  8  1  0
 10  9  2  0
 12 11  1  1
 12 14  1  0
 12 13  1  0
 13  6  1  0
 14 21  1  0
 15 14  2  0
 17 16  1  1
 18 17  1  0
 19 17  1  0
 20 19  1  1
 20 22  1  0
 21 20  1  0
 22 24  2  0
 22 23  1  0
M  END
$$$$
