VNL.pdb
     RDKit          3D

 24 23  0  0  1  0  0  0  0  0999 V2000
    7.1803  -13.1068   20.3249 C   0  0  0  0  0  0  0  0  0  0  0  0
    8.3774  -13.4392   19.4649 C   0  0  2  0  0  0  0  0  0  0  0  0
    8.3232  -12.6632   18.1855 C   0  0  0  0  0  0  0  0  0  0  0  0
    8.4498  -14.9328   19.2002 C   0  0  2  0  0  0  0  0  0  0  0  0
    7.3277  -15.3575   18.3981 N   0  0  0  0  0  0  0  0  0  0  0  0
    8.4747  -15.6165   20.4972 C   0  0  0  0  0  0  0  0  0  0  0  0
    7.3950  -15.8758   21.0877 O   0  0  0  0  0  0  0  0  0  0  0  0
   11.7232  -19.1300   20.9343 N   0  0  0  0  0  0  0  0  0  0  0  0
   10.7055  -18.7620   21.8473 C   0  0  0  0  0  0  0  0  0  0  0  0
    9.6974  -19.5011   21.9506 O   0  0  0  0  0  0  0  0  0  0  0  0
   10.7968  -17.5485   22.6702 C   0  0  0  0  0  0  0  0  0  0  0  0
    9.6466  -16.6079   22.4599 C   0  0  2  0  0  0  0  0  0  0  0  0
    9.6790  -16.0215   21.1577 N   0  0  0  0  0  0  0  0  0  0  0  0
    9.6714  -15.5827   23.5454 C   0  0  0  0  0  0  0  0  0  0  0  0
   10.6429  -14.7916   23.6492 O   0  0  0  0  0  0  0  0  0  0  0  0
    7.0655  -13.0611   27.7525 C   0  0  0  0  0  0  0  0  0  0  0  0
    7.3809  -12.3951   26.4027 C   0  0  2  0  0  0  0  0  0  0  0  0
    6.2726  -11.4081   26.1735 C   0  0  0  0  0  0  0  0  0  0  0  0
    7.4672  -13.4861   25.4045 C   0  0  0  0  0  0  0  0  0  0  0  0
    8.6241  -14.4197   25.5395 C   0  0  2  0  0  0  0  0  0  0  0  0
    8.6235  -15.4494   24.4965 N   0  0  0  0  0  0  0  0  0  0  0  0
    8.8238  -14.9864   26.8711 C   0  0  0  0  0  0  0  0  0  0  0  0
    8.1534  -16.1316   27.2347 O   0  0  0  0  0  0  0  0  0  0  0  0
    9.5936  -14.4502   27.6881 O   0  0  0  0  0  0  0  0  0  0  0  0
  2  1  1  1
  2  3  1  0
  4  2  1  0
  4  5  1  6
  6  7  2  0
  6  4  1  0
  9 11  1  0
  9  8  1  0
 10  9  2  0
 12 11  1  1
 12 14  1  0
 12 13  1  0
 13  6  1  0
 14 21  1  0
 15 14  2  0
 17 16  1  1
 18 17  1  0
 19 17  1  0
 20 19  1  1
 20 22  1  0
 21 20  1  0
 22 24  2  0
 22 23  1  0
M  END
$$$$
