VNL.pdb
     RDKit          3D

 24 23  0  0  1  0  0  0  0  0999 V2000
    7.7574  -12.5696   18.1243 C   0  0  0  0  0  0  0  0  0  0  0  0
    7.7744  -13.5042   19.3115 C   0  0  2  0  0  0  0  0  0  0  0  0
    8.3585  -12.8111   20.5034 C   0  0  0  0  0  0  0  0  0  0  0  0
    8.5392  -14.7744   18.9837 C   0  0  2  0  0  0  0  0  0  0  0  0
    7.9415  -15.4455   17.8544 N   0  0  0  0  0  0  0  0  0  0  0  0
    8.5323  -15.6224   20.1801 C   0  0  0  0  0  0  0  0  0  0  0  0
    7.4911  -16.2556   20.4911 O   0  0  0  0  0  0  0  0  0  0  0  0
    9.8835  -19.7245   21.6541 N   0  0  0  0  0  0  0  0  0  0  0  0
   10.6841  -18.5717   21.4673 C   0  0  0  0  0  0  0  0  0  0  0  0
   11.3958  -18.4972   20.4372 O   0  0  0  0  0  0  0  0  0  0  0  0
   10.7040  -17.4696   22.4384 C   0  0  0  0  0  0  0  0  0  0  0  0
    9.5589  -16.5149   22.2676 C   0  0  2  0  0  0  0  0  0  0  0  0
    9.6623  -15.7842   21.0445 N   0  0  0  0  0  0  0  0  0  0  0  0
    9.5092  -15.6197   23.4618 C   0  0  0  0  0  0  0  0  0  0  0  0
   10.5591  -15.0810   23.8952 O   0  0  0  0  0  0  0  0  0  0  0  0
    5.5182  -12.3547   26.8018 C   0  0  0  0  0  0  0  0  0  0  0  0
    6.9139  -12.9999   26.8246 C   0  0  2  0  0  0  0  0  0  0  0  0
    7.8825  -11.8573   26.9317 C   0  0  0  0  0  0  0  0  0  0  0  0
    7.0263  -13.8049   25.5863 C   0  0  0  0  0  0  0  0  0  0  0  0
    8.2699  -14.6161   25.4322 C   0  0  2  0  0  0  0  0  0  0  0  0
    8.3016  -15.3355   24.1557 N   0  0  0  0  0  0  0  0  0  0  0  0
    8.5994  -15.4839   26.5604 C   0  0  0  0  0  0  0  0  0  0  0  0
    9.5578  -15.0931   27.4669 O   0  0  0  0  0  0  0  0  0  0  0  0
    8.0262  -16.5766   26.7185 O   0  0  0  0  0  0  0  0  0  0  0  0
  2  1  1  6
  2  3  1  0
  4  2  1  0
  4  5  1  6
  6  7  2  0
  6  4  1  0
  9 11  1  0
  9  8  1  0
 10  9  2  0
 12 11  1  1
 12 14  1  0
 12 13  1  0
 13  6  1  0
 14 21  1  0
 15 14  2  0
 17 16  1  6
 18 17  1  0
 19 17  1  0
 20 19  1  1
 20 22  1  0
 21 20  1  0
 22 24  2  0
 22 23  1  0
M  END
$$$$
