ILG.pdb
     RDKit          3D

 21 20  0  0  1  0  0  0  0  0999 V2000
   15.0458   -9.9354  -19.2076 C   0  0  0  0  0  0  0  0  0  0  0  0
   16.3078  -10.6468  -18.7447 C   0  0  0  0  0  0  0  0  0  0  0  0
   16.9467   -9.8394  -17.6349 C   0  0  2  0  0  0  0  0  0  0  0  0
   17.0541   -8.4112  -18.0444 C   0  0  0  0  0  0  0  0  0  0  0  0
   18.2107  -10.4401  -17.1161 C   0  0  2  0  0  0  0  0  0  0  0  0
   17.9324  -11.8246  -16.7769 N   0  0  0  0  0  0  0  0  0  0  0  0
   18.8294   -9.6974  -16.0096 C   0  0  0  0  0  0  0  0  0  0  0  0
   18.3240   -9.7957  -14.8615 O   0  0  0  0  0  0  0  0  0  0  0  0
   23.6106  -10.2445  -14.0520 C   0  0  0  0  0  0  0  0  0  0  0  0
   22.1735   -9.8113  -14.1274 C   0  0  1  0  0  0  0  0  0  0  0  0
   21.7028   -9.7127  -12.6699 C   0  0  0  0  0  0  0  0  0  0  0  0
   21.9765   -8.5183  -14.8392 C   0  0  0  0  0  0  0  0  0  0  0  0
   20.5463   -8.1169  -14.9943 C   0  0  2  0  0  0  0  0  0  0  0  0
   19.9714   -8.8669  -16.1475 N   0  0  0  0  0  0  0  0  0  0  0  0
   20.3126   -6.6990  -15.3154 C   0  0  0  0  0  0  0  0  0  0  0  0
   20.7510   -5.7857  -14.5412 O   0  0  0  0  0  0  0  0  0  0  0  0
   19.6183   -6.2330  -16.4590 N   0  0  0  0  0  0  0  0  0  0  0  0
   19.3955   -4.8060  -16.6779 C   0  0  0  0  0  0  0  0  0  0  0  0
   18.1704   -4.3341  -16.0203 C   0  0  0  0  0  0  0  0  0  0  0  0
   17.5192   -5.1559  -15.3304 O   0  0  0  0  0  0  0  0  0  0  0  0
   17.7888   -3.0043  -16.1908 O   0  0  0  0  0  0  0  0  0  0  0  0
  2  1  1  0
  3  4  1  6
  3  2  1  0
  5  7  1  0
  5  3  1  0
  5  6  1  1
  7  8  2  0
 10  9  1  1
 10 12  1  0
 11 10  1  0
 13 12  1  6
 14  7  1  0
 14 13  1  0
 15 17  1  0
 15 13  1  0
 16 15  2  0
 18 17  1  0
 19 18  1  0
 19 21  1  0
 20 19  2  0
M  END
$$$$
