ILG.pdb
     RDKit          3D

 21 20  0  0  1  0  0  0  0  0999 V2000
   18.1891  -17.9501  -17.2454 C   0  0  0  0  0  0  0  0  0  0  0  0
   19.6581  -18.3232  -17.1188 C   0  0  0  0  0  0  0  0  0  0  0  0
   20.4518  -17.0803  -16.7769 C   0  0  2  0  0  0  0  0  0  0  0  0
   20.0764  -15.9702  -17.6964 C   0  0  0  0  0  0  0  0  0  0  0  0
   21.9189  -17.3274  -16.6578 C   0  0  2  0  0  0  0  0  0  0  0  0
   22.1036  -18.4515  -15.7569 N   0  0  0  0  0  0  0  0  0  0  0  0
   22.7057  -16.1500  -16.2658 C   0  0  0  0  0  0  0  0  0  0  0  0
   22.6820  -15.7835  -15.0624 O   0  0  0  0  0  0  0  0  0  0  0  0
   27.8095  -15.8171  -16.7435 C   0  0  0  0  0  0  0  0  0  0  0  0
   26.4165  -15.5045  -16.2735 C   0  0  1  0  0  0  0  0  0  0  0  0
   26.5727  -15.0513  -14.8155 C   0  0  0  0  0  0  0  0  0  0  0  0
   25.7330  -14.4602  -17.0856 C   0  0  0  0  0  0  0  0  0  0  0  0
   24.3090  -14.2226  -16.7032 C   0  0  2  0  0  0  0  0  0  0  0  0
   23.5000  -15.3883  -17.1613 N   0  0  0  0  0  0  0  0  0  0  0  0
   23.6673  -13.0530  -17.3267 C   0  0  0  0  0  0  0  0  0  0  0  0
   24.1880  -11.8955  -17.2052 O   0  0  0  0  0  0  0  0  0  0  0  0
   22.4731  -13.0962  -18.0877 N   0  0  0  0  0  0  0  0  0  0  0  0
   21.9366  -11.8935  -18.7198 C   0  0  0  0  0  0  0  0  0  0  0  0
   20.8894  -11.2651  -17.9047 C   0  0  0  0  0  0  0  0  0  0  0  0
   20.5871  -11.8086  -16.8144 O   0  0  0  0  0  0  0  0  0  0  0  0
   20.2826  -10.1017  -18.3753 O   0  0  0  0  0  0  0  0  0  0  0  0
  2  1  1  0
  3  4  1  6
  3  2  1  0
  5  7  1  0
  5  3  1  0
  5  6  1  1
  7  8  2  0
 10  9  1  6
 10 12  1  0
 11 10  1  0
 13 12  1  6
 14  7  1  0
 14 13  1  0
 15 17  1  0
 15 13  1  0
 16 15  2  0
 18 17  1  0
 19 18  1  0
 19 21  1  0
 20 19  2  0
M  END
$$$$
