ILG.pdb
     RDKit          3D

 21 20  0  0  1  0  0  0  0  0999 V2000
   18.1040   -9.6783  -21.1324 C   0  0  0  0  0  0  0  0  0  0  0  0
   17.4897  -10.3633  -19.9214 C   0  0  0  0  0  0  0  0  0  0  0  0
   18.3022  -10.0103  -18.6938 C   0  0  2  0  0  0  0  0  0  0  0  0
   18.4916   -8.5347  -18.6184 C   0  0  0  0  0  0  0  0  0  0  0  0
   19.5546  -10.8112  -18.5607 C   0  0  2  0  0  0  0  0  0  0  0  0
   19.2017  -12.2099  -18.7287 N   0  0  0  0  0  0  0  0  0  0  0  0
   20.3103  -10.5603  -17.3259 C   0  0  0  0  0  0  0  0  0  0  0  0
   19.8122  -10.9267  -16.2301 O   0  0  0  0  0  0  0  0  0  0  0  0
   24.3618  -10.6930  -13.8417 C   0  0  0  0  0  0  0  0  0  0  0  0
   24.5645   -9.7216  -14.9704 C   0  0  1  0  0  0  0  0  0  0  0  0
   26.0569   -9.8093  -15.3177 C   0  0  0  0  0  0  0  0  0  0  0  0
   23.7221  -10.0095  -16.1640 C   0  0  0  0  0  0  0  0  0  0  0  0
   22.2816   -9.6524  -15.9967 C   0  0  2  0  0  0  0  0  0  0  0  0
   21.5786   -9.9258  -17.2829 N   0  0  0  0  0  0  0  0  0  0  0  0
   22.0044   -8.2345  -15.7122 C   0  0  0  0  0  0  0  0  0  0  0  0
   22.1786   -7.7705  -14.5374 O   0  0  0  0  0  0  0  0  0  0  0  0
   21.5455   -7.2933  -16.6664 N   0  0  0  0  0  0  0  0  0  0  0  0
   21.4341   -5.8750  -16.3351 C   0  0  0  0  0  0  0  0  0  0  0  0
   20.1019   -5.5341  -15.8204 C   0  0  0  0  0  0  0  0  0  0  0  0
   19.2374   -6.4432  -15.7779 O   0  0  0  0  0  0  0  0  0  0  0  0
   19.8592   -4.2257  -15.4052 O   0  0  0  0  0  0  0  0  0  0  0  0
  2  1  1  0
  3  4  1  6
  3  2  1  0
  5  7  1  0
  5  3  1  0
  5  6  1  1
  7  8  2  0
 10  9  1  1
 10 12  1  0
 11 10  1  0
 13 12  1  6
 14  7  1  0
 14 13  1  0
 15 17  1  0
 15 13  1  0
 16 15  2  0
 18 17  1  0
 19 18  1  0
 19 21  1  0
 20 19  2  0
M  END
$$$$
