ILG.pdb
     RDKit          3D

 21 20  0  0  1  0  0  0  0  0999 V2000
   15.5854  -13.2813  -14.7513 C   0  0  0  0  0  0  0  0  0  0  0  0
   15.1896  -12.9919  -13.3117 C   0  0  0  0  0  0  0  0  0  0  0  0
   15.2675  -11.4991  -13.0724 C   0  0  2  0  0  0  0  0  0  0  0  0
   16.5885  -10.9812  -13.5262 C   0  0  0  0  0  0  0  0  0  0  0  0
   14.8787  -11.0989  -11.6881 C   0  0  2  0  0  0  0  0  0  0  0  0
   13.5740  -11.6751  -11.4142 N   0  0  0  0  0  0  0  0  0  0  0  0
   14.9251   -9.6522  -11.4359 C   0  0  0  0  0  0  0  0  0  0  0  0
   14.0622   -8.9177  -11.9829 O   0  0  0  0  0  0  0  0  0  0  0  0
   14.3295   -6.9782   -6.9752 C   0  0  0  0  0  0  0  0  0  0  0  0
   14.4219   -7.2515   -8.4501 C   0  0  1  0  0  0  0  0  0  0  0  0
   13.5720   -6.1622   -9.1184 C   0  0  0  0  0  0  0  0  0  0  0  0
   15.8158   -7.2356   -8.9738 C   0  0  0  0  0  0  0  0  0  0  0  0
   15.9249   -7.5380  -10.4323 C   0  0  2  0  0  0  0  0  0  0  0  0
   15.8872   -9.0181  -10.6082 N   0  0  0  0  0  0  0  0  0  0  0  0
   17.1781   -7.1154  -11.0797 C   0  0  0  0  0  0  0  0  0  0  0  0
   18.2938   -7.5948  -10.6910 O   0  0  0  0  0  0  0  0  0  0  0  0
   17.2638   -6.1868  -12.1462 N   0  0  0  0  0  0  0  0  0  0  0  0
   18.5472   -5.8625  -12.7640 C   0  0  0  0  0  0  0  0  0  0  0  0
   18.4003   -4.8994  -13.8625 C   0  0  0  0  0  0  0  0  0  0  0  0
   17.2383   -4.5988  -14.2298 O   0  0  0  0  0  0  0  0  0  0  0  0
   19.5497   -4.3664  -14.4437 O   0  0  0  0  0  0  0  0  0  0  0  0
  2  1  1  0
  3  4  1  1
  3  2  1  0
  5  7  1  0
  5  3  1  0
  5  6  1  6
  7  8  2  0
 10  9  1  1
 10 12  1  0
 11 10  1  0
 13 12  1  1
 14  7  1  0
 14 13  1  0
 15 17  1  0
 15 13  1  0
 16 15  2  0
 18 17  1  0
 19 18  1  0
 19 21  1  0
 20 19  2  0
M  END
$$$$
