ILG.pdb
     RDKit          3D

 21 20  0  0  1  0  0  0  0  0999 V2000
   18.6889  -22.9036  -10.2866 C   0  0  0  0  0  0  0  0  0  0  0  0
   19.6373  -23.0651   -9.1087 C   0  0  0  0  0  0  0  0  0  0  0  0
   20.7580  -22.0559   -9.2397 C   0  0  2  0  0  0  0  0  0  0  0  0
   21.3421  -22.1218  -10.6084 C   0  0  0  0  0  0  0  0  0  0  0  0
   21.7527  -22.1263   -8.1291 C   0  0  2  0  0  0  0  0  0  0  0  0
   21.0206  -22.0423   -6.8776 N   0  0  0  0  0  0  0  0  0  0  0  0
   22.8383  -21.1403   -8.2195 C   0  0  0  0  0  0  0  0  0  0  0  0
   22.5470  -19.9175   -8.1659 O   0  0  0  0  0  0  0  0  0  0  0  0
   27.2052  -18.4500   -6.9436 C   0  0  0  0  0  0  0  0  0  0  0  0
   27.4911  -19.8366   -7.4480 C   0  0  1  0  0  0  0  0  0  0  0  0
   28.6166  -20.3701   -6.5514 C   0  0  0  0  0  0  0  0  0  0  0  0
   26.3081  -20.7402   -7.4123 C   0  0  0  0  0  0  0  0  0  0  0  0
   25.2728  -20.4339   -8.4443 C   0  0  2  0  0  0  0  0  0  0  0  0
   24.2092  -21.4757   -8.3648 N   0  0  0  0  0  0  0  0  0  0  0  0
   25.7335  -20.4746   -9.8423 C   0  0  0  0  0  0  0  0  0  0  0  0
   26.6336  -19.6659  -10.2444 O   0  0  0  0  0  0  0  0  0  0  0  0
   25.2515  -21.3726  -10.8263 N   0  0  0  0  0  0  0  0  0  0  0  0
   25.8537  -21.4301  -12.1560 C   0  0  0  0  0  0  0  0  0  0  0  0
   25.1713  -20.5433  -13.1068 C   0  0  0  0  0  0  0  0  0  0  0  0
   24.1497  -19.9309  -12.7109 O   0  0  0  0  0  0  0  0  0  0  0  0
   25.6853  -20.4226  -14.3969 O   0  0  0  0  0  0  0  0  0  0  0  0
  2  1  1  0
  3  4  1  6
  3  2  1  0
  5  7  1  0
  5  3  1  0
  5  6  1  1
  7  8  2  0
 10  9  1  1
 10 12  1  0
 11 10  1  0
 13 12  1  1
 14  7  1  0
 14 13  1  0
 15 17  1  0
 15 13  1  0
 16 15  2  0
 18 17  1  0
 19 18  1  0
 19 21  1  0
 20 19  2  0
M  END
$$$$
