ILG.pdb
     RDKit          3D

 21 20  0  0  1  0  0  0  0  0999 V2000
   18.3654  -15.9543  -17.9577 C   0  0  0  0  0  0  0  0  0  0  0  0
   18.8706  -14.6244  -18.4956 C   0  0  0  0  0  0  0  0  0  0  0  0
   19.4196  -13.8072  -17.3456 C   0  0  2  0  0  0  0  0  0  0  0  0
   18.3904  -13.6820  -16.2760 C   0  0  0  0  0  0  0  0  0  0  0  0
   20.0377  -12.5185  -17.7754 C   0  0  2  0  0  0  0  0  0  0  0  0
   20.7415  -12.7630  -19.0221 N   0  0  0  0  0  0  0  0  0  0  0  0
   20.8862  -11.8806  -16.7596 C   0  0  0  0  0  0  0  0  0  0  0  0
   20.8162  -12.2912  -15.5724 O   0  0  0  0  0  0  0  0  0  0  0  0
   25.4814  -10.7580  -14.3032 C   0  0  0  0  0  0  0  0  0  0  0  0
   25.0905   -9.8660  -15.4478 C   0  0  1  0  0  0  0  0  0  0  0  0
   26.4000   -9.5562  -16.1859 C   0  0  0  0  0  0  0  0  0  0  0  0
   24.0926  -10.4785  -16.3679 C   0  0  0  0  0  0  0  0  0  0  0  0
   22.6716  -10.2475  -15.9706 C   0  0  2  0  0  0  0  0  0  0  0  0
   21.7903  -10.8205  -17.0280 N   0  0  0  0  0  0  0  0  0  0  0  0
   22.2600   -8.8378  -15.8630 C   0  0  0  0  0  0  0  0  0  0  0  0
   22.1652   -8.1161  -16.9098 O   0  0  0  0  0  0  0  0  0  0  0  0
   21.9403   -8.1794  -14.6500 N   0  0  0  0  0  0  0  0  0  0  0  0
   21.5091   -6.7838  -14.6392 C   0  0  0  0  0  0  0  0  0  0  0  0
   22.6420   -5.8598  -14.5027 C   0  0  0  0  0  0  0  0  0  0  0  0
   23.7979   -6.3478  -14.4662 O   0  0  0  0  0  0  0  0  0  0  0  0
   22.3845   -4.4924  -14.4206 O   0  0  0  0  0  0  0  0  0  0  0  0
  2  1  1  0
  3  4  1  1
  3  2  1  0
  5  7  1  0
  5  3  1  0
  5  6  1  6
  7  8  2  0
 10  9  1  1
 10 12  1  0
 11 10  1  0
 13 12  1  6
 14  7  1  0
 14 13  1  0
 15 17  1  0
 15 13  1  0
 16 15  2  0
 18 17  1  0
 19 18  1  0
 19 21  1  0
 20 19  2  0
M  END
$$$$
