ILG.pdb
     RDKit          3D

 21 20  0  0  1  0  0  0  0  0999 V2000
   18.5083  -11.8557    4.6382 C   0  0  0  0  0  0  0  0  0  0  0  0
   17.7084  -12.8672    5.4446 C   0  0  0  0  0  0  0  0  0  0  0  0
   18.4897  -14.1616    5.5207 C   0  0  2  0  0  0  0  0  0  0  0  0
   18.8962  -14.5894    4.1529 C   0  0  0  0  0  0  0  0  0  0  0  0
   17.8139  -15.2157    6.3328 C   0  0  2  0  0  0  0  0  0  0  0  0
   17.0206  -14.5465    7.3488 N   0  0  0  0  0  0  0  0  0  0  0  0
   18.7197  -16.2272    6.8942 C   0  0  0  0  0  0  0  0  0  0  0  0
   19.2174  -17.0855    6.1205 O   0  0  0  0  0  0  0  0  0  0  0  0
   23.1390  -15.2304    9.4426 C   0  0  0  0  0  0  0  0  0  0  0  0
   22.2287  -16.1862    8.7240 C   0  0  1  0  0  0  0  0  0  0  0  0
   23.1257  -17.3551    8.2944 C   0  0  0  0  0  0  0  0  0  0  0  0
   21.0907  -16.6660    9.5560 C   0  0  0  0  0  0  0  0  0  0  0  0
   20.0102  -17.3460    8.7809 C   0  0  2  0  0  0  0  0  0  0  0  0
   19.0766  -16.3041    8.2652 N   0  0  0  0  0  0  0  0  0  0  0  0
   19.1562  -18.2670    9.5496 C   0  0  0  0  0  0  0  0  0  0  0  0
   18.1901  -17.8138   10.2474 O   0  0  0  0  0  0  0  0  0  0  0  0
   19.3119  -19.6747    9.5842 N   0  0  0  0  0  0  0  0  0  0  0  0
   18.4639  -20.5076   10.4334 C   0  0  0  0  0  0  0  0  0  0  0  0
   18.9244  -20.5181   11.8277 C   0  0  0  0  0  0  0  0  0  0  0  0
   19.9419  -19.8422   12.1163 O   0  0  0  0  0  0  0  0  0  0  0  0
   18.2157  -21.2730   12.7610 O   0  0  0  0  0  0  0  0  0  0  0  0
  2  1  1  0
  3  4  1  6
  3  2  1  0
  5  7  1  0
  5  3  1  0
  5  6  1  1
  7  8  2  0
 10  9  1  1
 10 12  1  0
 11 10  1  0
 13 12  1  1
 14  7  1  0
 14 13  1  0
 15 17  1  0
 15 13  1  0
 16 15  2  0
 18 17  1  0
 19 18  1  0
 19 21  1  0
 20 19  2  0
M  END
$$$$
