ILG.pdb
     RDKit          3D

 21 20  0  0  1  0  0  0  0  0999 V2000
   17.5295  -15.1925  -16.9168 C   0  0  0  0  0  0  0  0  0  0  0  0
   18.9537  -15.2415  -17.4480 C   0  0  0  0  0  0  0  0  0  0  0  0
   19.7985  -14.2488  -16.6781 C   0  0  2  0  0  0  0  0  0  0  0  0
   19.1317  -12.9169  -16.6671 C   0  0  0  0  0  0  0  0  0  0  0  0
   21.2288  -14.2309  -17.1041 C   0  0  2  0  0  0  0  0  0  0  0  0
   21.7045  -15.6031  -17.1046 N   0  0  0  0  0  0  0  0  0  0  0  0
   22.0873  -13.3324  -16.3201 C   0  0  0  0  0  0  0  0  0  0  0  0
   22.4295  -13.6854  -15.1620 O   0  0  0  0  0  0  0  0  0  0  0  0
   26.2619  -10.6285  -14.7009 C   0  0  0  0  0  0  0  0  0  0  0  0
   25.6441  -10.0532  -15.9443 C   0  0  1  0  0  0  0  0  0  0  0  0
   26.8263   -9.6780  -16.8482 C   0  0  0  0  0  0  0  0  0  0  0  0
   24.7187  -10.9901  -16.6393 C   0  0  0  0  0  0  0  0  0  0  0  0
   23.4159  -11.1956  -15.9384 C   0  0  2  0  0  0  0  0  0  0  0  0
   22.5629  -12.0789  -16.7842 N   0  0  0  0  0  0  0  0  0  0  0  0
   22.6066   -9.9837  -15.7273 C   0  0  0  0  0  0  0  0  0  0  0  0
   22.0030   -9.4369  -16.7083 O   0  0  0  0  0  0  0  0  0  0  0  0
   22.4237   -9.3414  -14.4778 N   0  0  0  0  0  0  0  0  0  0  0  0
   21.5929   -8.1459  -14.3577 C   0  0  0  0  0  0  0  0  0  0  0  0
   22.3135   -6.9330  -14.7647 C   0  0  0  0  0  0  0  0  0  0  0  0
   23.4723   -7.0651  -15.2288 O   0  0  0  0  0  0  0  0  0  0  0  0
   21.6827   -5.6987  -14.6183 O   0  0  0  0  0  0  0  0  0  0  0  0
  2  1  1  0
  3  4  1  6
  3  2  1  0
  5  7  1  0
  5  3  1  0
  5  6  1  1
  7  8  2  0
 10  9  1  1
 10 12  1  0
 11 10  1  0
 13 12  1  6
 14  7  1  0
 14 13  1  0
 15 17  1  0
 15 13  1  0
 16 15  2  0
 18 17  1  0
 19 18  1  0
 19 21  1  0
 20 19  2  0
M  END
$$$$
