ILG.pdb
     RDKit          3D

 21 20  0  0  1  0  0  0  0  0999 V2000
   15.9217  -11.9122  -19.3292 C   0  0  0  0  0  0  0  0  0  0  0  0
   16.7096  -10.6265  -19.1307 C   0  0  0  0  0  0  0  0  0  0  0  0
   17.4741  -10.7164  -17.8271 C   0  0  2  0  0  0  0  0  0  0  0  0
   16.5487  -11.0910  -16.7216 C   0  0  0  0  0  0  0  0  0  0  0  0
   18.3254   -9.5211  -17.5549 C   0  0  2  0  0  0  0  0  0  0  0  0
   19.0462   -9.2076  -18.7762 N   0  0  0  0  0  0  0  0  0  0  0  0
   19.2118   -9.6562  -16.3910 C   0  0  0  0  0  0  0  0  0  0  0  0
   18.7014   -9.9299  -15.2740 O   0  0  0  0  0  0  0  0  0  0  0  0
   22.3244  -12.4616  -14.1452 C   0  0  0  0  0  0  0  0  0  0  0  0
   23.1788  -11.2590  -14.4322 C   0  0  1  0  0  0  0  0  0  0  0  0
   24.5732  -11.8179  -14.7465 C   0  0  0  0  0  0  0  0  0  0  0  0
   22.6743  -10.4232  -15.5566 C   0  0  0  0  0  0  0  0  0  0  0  0
   21.4705   -9.6061  -15.2193 C   0  0  2  0  0  0  0  0  0  0  0  0
   20.6208   -9.4974  -16.4397 N   0  0  0  0  0  0  0  0  0  0  0  0
   21.7354   -8.2132  -14.8219 C   0  0  0  0  0  0  0  0  0  0  0  0
   22.2525   -7.9583  -13.6847 O   0  0  0  0  0  0  0  0  0  0  0  0
   21.4611   -7.0778  -15.6236 N   0  0  0  0  0  0  0  0  0  0  0  0
   21.7843   -5.7306  -15.1607 C   0  0  0  0  0  0  0  0  0  0  0  0
   20.6148   -5.0504  -14.5901 C   0  0  0  0  0  0  0  0  0  0  0  0
   19.5317   -5.6829  -14.5425 O   0  0  0  0  0  0  0  0  0  0  0  0
   20.7593   -3.7424  -14.1304 O   0  0  0  0  0  0  0  0  0  0  0  0
  2  1  1  0
  3  4  1  1
  3  2  1  0
  5  7  1  0
  5  3  1  0
  5  6  1  6
  7  8  2  0
 10  9  1  6
 10 12  1  0
 11 10  1  0
 13 12  1  6
 14  7  1  0
 14 13  1  0
 15 17  1  0
 15 13  1  0
 16 15  2  0
 18 17  1  0
 19 18  1  0
 19 21  1  0
 20 19  2  0
M  END
$$$$
