ILG.pdb
     RDKit          3D

 21 20  0  0  1  0  0  0  0  0999 V2000
   14.3326  -14.1412  -12.3697 C   0  0  0  0  0  0  0  0  0  0  0  0
   15.5266  -13.2257  -12.1480 C   0  0  0  0  0  0  0  0  0  0  0  0
   15.0283  -11.8111  -11.9421 C   0  0  2  0  0  0  0  0  0  0  0  0
   14.0902  -11.4397  -13.0380 C   0  0  0  0  0  0  0  0  0  0  0  0
   16.1224  -10.8271  -11.6923 C   0  0  2  0  0  0  0  0  0  0  0  0
   16.9848  -11.3807  -10.6632 N   0  0  0  0  0  0  0  0  0  0  0  0
   15.6602   -9.4688  -11.3760 C   0  0  0  0  0  0  0  0  0  0  0  0
   14.9400   -8.8673  -12.2143 O   0  0  0  0  0  0  0  0  0  0  0  0
   13.2071   -5.7679   -8.4431 C   0  0  0  0  0  0  0  0  0  0  0  0
   14.6108   -6.0243   -7.9712 C   0  0  1  0  0  0  0  0  0  0  0  0
   14.5446   -5.9451   -6.4400 C   0  0  0  0  0  0  0  0  0  0  0  0
   15.1587   -7.3364   -8.4134 C   0  0  0  0  0  0  0  0  0  0  0  0
   15.4304   -7.4232   -9.8795 C   0  0  2  0  0  0  0  0  0  0  0  0
   15.9735   -8.7798  -10.1760 N   0  0  0  0  0  0  0  0  0  0  0  0
   16.4468   -6.4915  -10.3964 C   0  0  0  0  0  0  0  0  0  0  0  0
   17.6351   -6.5188   -9.9352 O   0  0  0  0  0  0  0  0  0  0  0  0
   16.2185   -5.5264  -11.4081 N   0  0  0  0  0  0  0  0  0  0  0  0
   17.2700   -4.5989  -11.8181 C   0  0  0  0  0  0  0  0  0  0  0  0
   16.8428   -3.7414  -12.9308 C   0  0  0  0  0  0  0  0  0  0  0  0
   17.3368   -2.5901  -13.0094 O   0  0  0  0  0  0  0  0  0  0  0  0
   15.9148   -4.2411  -13.8430 O   0  0  0  0  0  0  0  0  0  0  0  0
  2  1  1  0
  3  4  1  6
  3  2  1  0
  5  7  1  0
  5  3  1  0
  5  6  1  1
  7  8  2  0
 10  9  1  6
 10 12  1  0
 11 10  1  0
 13 12  1  1
 14  7  1  0
 14 13  1  0
 15 17  1  0
 15 13  1  0
 16 15  2  0
 18 17  1  0
 19 18  1  0
 19 21  1  0
 20 19  2  0
M  END
$$$$
