ILG.pdb
     RDKit          3D

 21 20  0  0  1  0  0  0  0  0999 V2000
   27.7116  -20.2998   -7.5982 C   0  0  0  0  0  0  0  0  0  0  0  0
   26.2442  -20.2490   -7.9949 C   0  0  0  0  0  0  0  0  0  0  0  0
   26.1393  -20.3632   -9.5008 C   0  0  2  0  0  0  0  0  0  0  0  0
   27.1879  -19.5254  -10.1470 C   0  0  0  0  0  0  0  0  0  0  0  0
   24.7560  -20.1457  -10.0173 C   0  0  2  0  0  0  0  0  0  0  0  0
   23.8654  -21.0142   -9.2678 N   0  0  0  0  0  0  0  0  0  0  0  0
   24.6157  -20.3064  -11.4710 C   0  0  0  0  0  0  0  0  0  0  0  0
   25.2770  -19.5487  -12.2272 O   0  0  0  0  0  0  0  0  0  0  0  0
   25.1806  -24.6755  -14.4074 C   0  0  0  0  0  0  0  0  0  0  0  0
   25.0577  -23.2634  -13.9077 C   0  0  1  0  0  0  0  0  0  0  0  0
   26.0617  -22.4511  -14.7369 C   0  0  0  0  0  0  0  0  0  0  0  0
   23.6843  -22.7026  -14.0355 C   0  0  0  0  0  0  0  0  0  0  0  0
   23.5531  -21.2918  -13.5631 C   0  0  2  0  0  0  0  0  0  0  0  0
   23.7759  -21.2686  -12.0890 N   0  0  0  0  0  0  0  0  0  0  0  0
   22.2288  -20.6761  -13.7516 C   0  0  0  0  0  0  0  0  0  0  0  0
   21.2713  -20.9598  -12.9590 O   0  0  0  0  0  0  0  0  0  0  0  0
   21.9055  -19.7520  -14.7757 N   0  0  0  0  0  0  0  0  0  0  0  0
   20.5994  -19.0993  -14.8190 C   0  0  0  0  0  0  0  0  0  0  0  0
   19.6269  -19.8681  -15.6058 C   0  0  0  0  0  0  0  0  0  0  0  0
   19.7855  -21.1107  -15.6853 O   0  0  0  0  0  0  0  0  0  0  0  0
   18.5791  -19.1881  -16.2245 O   0  0  0  0  0  0  0  0  0  0  0  0
  2  1  1  0
  3  4  1  6
  3  2  1  0
  5  7  1  0
  5  3  1  0
  5  6  1  1
  7  8  2  0
 10  9  1  6
 10 12  1  0
 11 10  1  0
 13 12  1  1
 14  7  1  0
 14 13  1  0
 15 17  1  0
 15 13  1  0
 16 15  2  0
 18 17  1  0
 19 18  1  0
 19 21  1  0
 20 19  2  0
M  END
$$$$
