ILG.pdb
     RDKit          3D

 21 20  0  0  1  0  0  0  0  0999 V2000
   16.9370  -16.1343  -16.6896 C   0  0  0  0  0  0  0  0  0  0  0  0
   17.4473  -14.9547  -17.5029 C   0  0  0  0  0  0  0  0  0  0  0  0
   17.9812  -13.9009  -16.5562 C   0  0  2  0  0  0  0  0  0  0  0  0
   16.9684  -13.6038  -15.5051 C   0  0  0  0  0  0  0  0  0  0  0  0
   18.5324  -12.7018  -17.2532 C   0  0  2  0  0  0  0  0  0  0  0  0
   19.3303  -13.1719  -18.3721 N   0  0  0  0  0  0  0  0  0  0  0  0
   19.2667  -11.7741  -16.3820 C   0  0  0  0  0  0  0  0  0  0  0  0
   18.7380  -11.4219  -15.2960 O   0  0  0  0  0  0  0  0  0  0  0  0
   24.7452  -11.6273  -15.3365 C   0  0  0  0  0  0  0  0  0  0  0  0
   23.2548  -11.4974  -15.1928 C   0  0  1  0  0  0  0  0  0  0  0  0
   23.0057  -11.3296  -13.6878 C   0  0  0  0  0  0  0  0  0  0  0  0
   22.6786  -10.3576  -15.9584 C   0  0  0  0  0  0  0  0  0  0  0  0
   21.1982  -10.2147  -15.8214 C   0  0  2  0  0  0  0  0  0  0  0  0
   20.5464  -11.2412  -16.6842 N   0  0  0  0  0  0  0  0  0  0  0  0
   20.6361   -8.9317  -16.2755 C   0  0  0  0  0  0  0  0  0  0  0  0
   20.5844   -8.6591  -17.5199 O   0  0  0  0  0  0  0  0  0  0  0  0
   20.1194   -7.9276  -15.4199 N   0  0  0  0  0  0  0  0  0  0  0  0
   19.6508   -6.6503  -15.9516 C   0  0  0  0  0  0  0  0  0  0  0  0
   19.9749   -5.5312  -15.0579 C   0  0  0  0  0  0  0  0  0  0  0  0
   20.5011   -5.7968  -13.9497 O   0  0  0  0  0  0  0  0  0  0  0  0
   19.6854   -4.2339  -15.4776 O   0  0  0  0  0  0  0  0  0  0  0  0
  2  1  1  0
  3  4  1  1
  3  2  1  0
  5  7  1  0
  5  3  1  0
  5  6  1  6
  7  8  2  0
 10  9  1  1
 10 12  1  0
 11 10  1  0
 13 12  1  6
 14  7  1  0
 14 13  1  0
 15 17  1  0
 15 13  1  0
 16 15  2  0
 18 17  1  0
 19 18  1  0
 19 21  1  0
 20 19  2  0
M  END
$$$$
