ILG.pdb
     RDKit          3D

 21 20  0  0  1  0  0  0  0  0999 V2000
   23.4583  -24.5863  -14.2442 C   0  0  0  0  0  0  0  0  0  0  0  0
   23.4743  -23.7239  -12.9915 C   0  0  0  0  0  0  0  0  0  0  0  0
   23.5388  -22.2676  -13.3998 C   0  0  2  0  0  0  0  0  0  0  0  0
   22.3208  -21.9045  -14.1766 C   0  0  0  0  0  0  0  0  0  0  0  0
   24.8303  -21.8888  -14.0448 C   0  0  2  0  0  0  0  0  0  0  0  0
   25.9022  -22.2872  -13.1494 N   0  0  0  0  0  0  0  0  0  0  0  0
   24.9206  -20.4785  -14.4468 C   0  0  0  0  0  0  0  0  0  0  0  0
   25.0926  -19.6080  -13.5548 O   0  0  0  0  0  0  0  0  0  0  0  0
   28.4061  -18.7738  -17.8662 C   0  0  0  0  0  0  0  0  0  0  0  0
   27.3838  -18.8237  -16.7658 C   0  0  1  0  0  0  0  0  0  0  0  0
   27.8871  -17.8410  -15.6998 C   0  0  0  0  0  0  0  0  0  0  0  0
   26.0087  -18.4670  -17.2121 C   0  0  0  0  0  0  0  0  0  0  0  0
   24.9696  -18.5843  -16.1457 C   0  0  2  0  0  0  0  0  0  0  0  0
   24.8259  -20.0245  -15.7876 N   0  0  0  0  0  0  0  0  0  0  0  0
   23.6132  -18.1557  -16.5264 C   0  0  0  0  0  0  0  0  0  0  0  0
   23.4049  -16.9604  -16.9182 O   0  0  0  0  0  0  0  0  0  0  0  0
   22.4661  -18.9867  -16.5012 N   0  0  0  0  0  0  0  0  0  0  0  0
   21.1476  -18.4646  -16.8517 C   0  0  0  0  0  0  0  0  0  0  0  0
   20.2620  -18.3800  -15.6836 C   0  0  0  0  0  0  0  0  0  0  0  0
   20.7084  -18.7708  -14.5774 O   0  0  0  0  0  0  0  0  0  0  0  0
   18.9747  -17.8733  -15.8547 O   0  0  0  0  0  0  0  0  0  0  0  0
  2  1  1  0
  3  4  1  6
  3  2  1  0
  5  7  1  0
  5  3  1  0
  5  6  1  1
  7  8  2  0
 10  9  1  6
 10 12  1  0
 11 10  1  0
 13 12  1  6
 14  7  1  0
 14 13  1  0
 15 17  1  0
 15 13  1  0
 16 15  2  0
 18 17  1  0
 19 18  1  0
 19 21  1  0
 20 19  2  0
M  END
$$$$
