ILG.pdb
     RDKit          3D

 21 20  0  0  1  0  0  0  0  0999 V2000
   23.7009  -15.7370  -15.7210 C   0  0  0  0  0  0  0  0  0  0  0  0
   22.6600  -14.6625  -15.4472 C   0  0  0  0  0  0  0  0  0  0  0  0
   23.1437  -13.3516  -16.0296 C   0  0  2  0  0  0  0  0  0  0  0  0
   24.5304  -13.0709  -15.5635 C   0  0  0  0  0  0  0  0  0  0  0  0
   22.1795  -12.2277  -15.8429 C   0  0  2  0  0  0  0  0  0  0  0  0
   20.8472  -12.7438  -16.1034 N   0  0  0  0  0  0  0  0  0  0  0  0
   22.4862  -11.0244  -16.6282 C   0  0  0  0  0  0  0  0  0  0  0  0
   23.5728  -10.4269  -16.4149 O   0  0  0  0  0  0  0  0  0  0  0  0
   23.7566   -9.0944  -20.3257 C   0  0  0  0  0  0  0  0  0  0  0  0
   22.3543   -9.4603  -20.7236 C   0  0  1  0  0  0  0  0  0  0  0  0
   22.4105  -10.9517  -21.0813 C   0  0  0  0  0  0  0  0  0  0  0  0
   21.3460   -9.2058  -19.6579 C   0  0  0  0  0  0  0  0  0  0  0  0
   21.9115   -9.1720  -18.2760 C   0  0  2  0  0  0  0  0  0  0  0  0
   21.6316  -10.4828  -17.6228 N   0  0  0  0  0  0  0  0  0  0  0  0
   21.3253   -8.1695  -17.3708 C   0  0  0  0  0  0  0  0  0  0  0  0
   21.5472   -6.9281  -17.5592 O   0  0  0  0  0  0  0  0  0  0  0  0
   20.4959   -8.4686  -16.2618 N   0  0  0  0  0  0  0  0  0  0  0  0
   20.0103   -7.4136  -15.3757 C   0  0  0  0  0  0  0  0  0  0  0  0
   20.9167   -7.1873  -14.2430 C   0  0  0  0  0  0  0  0  0  0  0  0
   21.7730   -6.2755  -14.3479 O   0  0  0  0  0  0  0  0  0  0  0  0
   20.7862   -7.9895  -13.1105 O   0  0  0  0  0  0  0  0  0  0  0  0
  2  1  1  0
  3  4  1  1
  3  2  1  0
  5  7  1  0
  5  3  1  0
  5  6  1  6
  7  8  2  0
 10  9  1  1
 10 12  1  0
 11 10  1  0
 13 12  1  6
 14  7  1  0
 14 13  1  0
 15 17  1  0
 15 13  1  0
 16 15  2  0
 18 17  1  0
 19 18  1  0
 19 21  1  0
 20 19  2  0
M  END
$$$$
