ILG.pdb
     RDKit          3D

 21 20  0  0  1  0  0  0  0  0999 V2000
   25.3393  -21.0933  -15.4245 C   0  0  0  0  0  0  0  0  0  0  0  0
   26.2056  -20.0788  -14.6941 C   0  0  0  0  0  0  0  0  0  0  0  0
   26.5045  -20.5996  -13.3044 C   0  0  2  0  0  0  0  0  0  0  0  0
   27.2426  -21.8903  -13.3947 C   0  0  0  0  0  0  0  0  0  0  0  0
   25.3103  -20.6210  -12.4093 C   0  0  2  0  0  0  0  0  0  0  0  0
   24.6516  -19.3318  -12.5246 N   0  0  0  0  0  0  0  0  0  0  0  0
   25.5989  -20.9890  -11.0165 C   0  0  0  0  0  0  0  0  0  0  0  0
   25.9698  -22.1656  -10.7690 O   0  0  0  0  0  0  0  0  0  0  0  0
   28.1028  -18.4277   -6.8885 C   0  0  0  0  0  0  0  0  0  0  0  0
   27.4870  -19.5360   -7.6955 C   0  0  1  0  0  0  0  0  0  0  0  0
   28.1078  -20.8288   -7.1488 C   0  0  0  0  0  0  0  0  0  0  0  0
   26.0011  -19.5814   -7.6106 C   0  0  0  0  0  0  0  0  0  0  0  0
   25.3671  -20.5876   -8.5141 C   0  0  2  0  0  0  0  0  0  0  0  0
   25.4871  -20.0986   -9.9175 N   0  0  0  0  0  0  0  0  0  0  0  0
   23.9244  -20.8047   -8.3150 C   0  0  0  0  0  0  0  0  0  0  0  0
   23.0801  -19.9727   -8.7847 O   0  0  0  0  0  0  0  0  0  0  0  0
   23.3605  -21.9045   -7.6226 N   0  0  0  0  0  0  0  0  0  0  0  0
   21.9284  -21.9657   -7.3408 C   0  0  0  0  0  0  0  0  0  0  0  0
   21.5906  -23.0851   -6.4527 C   0  0  0  0  0  0  0  0  0  0  0  0
   22.5096  -23.8756   -6.1271 O   0  0  0  0  0  0  0  0  0  0  0  0
   20.2741  -23.2181   -6.0144 O   0  0  0  0  0  0  0  0  0  0  0  0
  2  1  1  0
  3  4  1  6
  3  2  1  0
  5  7  1  0
  5  3  1  0
  5  6  1  1
  7  8  2  0
 10  9  1  1
 10 12  1  0
 11 10  1  0
 13 12  1  1
 14  7  1  0
 14 13  1  0
 15 17  1  0
 15 13  1  0
 16 15  2  0
 18 17  1  0
 19 18  1  0
 19 21  1  0
 20 19  2  0
M  END
$$$$
