ILG.pdb
     RDKit          3D

 21 20  0  0  1  0  0  0  0  0999 V2000
   16.1911  -11.7564  -20.5075 C   0  0  0  0  0  0  0  0  0  0  0  0
   17.4792  -12.1929  -19.8267 C   0  0  0  0  0  0  0  0  0  0  0  0
   17.7883  -11.2307  -18.6996 C   0  0  2  0  0  0  0  0  0  0  0  0
   17.6750   -9.8273  -19.1858 C   0  0  0  0  0  0  0  0  0  0  0  0
   19.0588  -11.5456  -17.9824 C   0  0  2  0  0  0  0  0  0  0  0  0
   18.9882  -12.9306  -17.5510 N   0  0  0  0  0  0  0  0  0  0  0  0
   19.3836  -10.6245  -16.8847 C   0  0  0  0  0  0  0  0  0  0  0  0
   18.6979  -10.6777  -15.8312 O   0  0  0  0  0  0  0  0  0  0  0  0
   23.8784  -10.1414  -14.4069 C   0  0  0  0  0  0  0  0  0  0  0  0
   22.4053   -9.9810  -14.6582 C   0  0  1  0  0  0  0  0  0  0  0  0
   21.7538   -9.9888  -13.2687 C   0  0  0  0  0  0  0  0  0  0  0  0
   22.0587   -8.7384  -15.4020 C   0  0  0  0  0  0  0  0  0  0  0  0
   20.6339   -8.6673  -15.8441 C   0  0  2  0  0  0  0  0  0  0  0  0
   20.4299   -9.6674  -16.9309 N   0  0  0  0  0  0  0  0  0  0  0  0
   20.2109   -7.3847  -16.4308 C   0  0  0  0  0  0  0  0  0  0  0  0
   20.5764   -7.0680  -17.6106 O   0  0  0  0  0  0  0  0  0  0  0  0
   19.3946   -6.4277  -15.7790 N   0  0  0  0  0  0  0  0  0  0  0  0
   19.0434   -5.1671  -16.4282 C   0  0  0  0  0  0  0  0  0  0  0  0
   20.0834   -4.1468  -16.2457 C   0  0  0  0  0  0  0  0  0  0  0  0
   21.1211   -4.4704  -15.6179 O   0  0  0  0  0  0  0  0  0  0  0  0
   19.8728   -2.8742  -16.7740 O   0  0  0  0  0  0  0  0  0  0  0  0
  2  1  1  0
  3  4  1  6
  3  2  1  0
  5  7  1  0
  5  3  1  0
  5  6  1  1
  7  8  2  0
 10  9  1  1
 10 12  1  0
 11 10  1  0
 13 12  1  6
 14  7  1  0
 14 13  1  0
 15 17  1  0
 15 13  1  0
 16 15  2  0
 18 17  1  0
 19 18  1  0
 19 21  1  0
 20 19  2  0
M  END
$$$$
