RYM.pdb
     RDKit          3D

 32 32  0  0  1  0  0  0  0  0999 V2000
   29.1082  -27.2485  -16.9026 N   0  0  0  0  0  0  0  0  0  0  0  0
   29.5095  -26.9797  -18.2549 C   0  0  0  0  0  0  0  0  0  0  0  0
   30.0346  -27.8946  -18.9919 N   0  0  0  0  0  0  0  0  0  0  0  0
   29.3146  -25.6643  -18.7769 N   0  0  0  0  0  0  0  0  0  0  0  0
   28.6942  -24.6286  -18.0082 C   0  0  0  0  0  0  0  0  0  0  0  0
   27.2624  -24.4199  -18.3005 C   0  0  0  0  0  0  0  0  0  0  0  0
   26.3684  -23.8814  -17.2492 C   0  0  0  0  0  0  0  0  0  0  0  0
   26.1983  -24.5707  -15.9688 C   0  0  2  0  0  0  0  0  0  0  0  0
   25.9231  -25.9875  -16.0360 N   0  0  0  0  0  0  0  0  0  0  0  0
   25.2290  -23.8926  -15.0565 C   0  0  0  0  0  0  0  0  0  0  0  0
   24.0942  -24.4556  -14.9663 O   0  0  0  0  0  0  0  0  0  0  0  0
   30.4456  -27.7356  -19.9254 O   0  0  0  0  0  0  0  0  0  0  0  0
   21.7614  -19.4093   -8.3377 C   0  0  0  0  0  0  0  0  0  0  0  0
   22.6466  -19.8826   -9.3177 C   0  0  0  0  0  0  0  0  0  0  0  0
   23.7669  -20.6122   -8.9878 C   0  0  0  0  0  0  0  0  0  0  0  0
   24.6265  -21.0692   -9.9741 C   0  0  0  0  0  0  0  0  0  0  0  0
   24.4067  -20.8202  -11.3112 C   0  0  0  0  0  0  0  0  0  0  0  0
   25.3162  -21.3073  -12.3737 C   0  0  2  0  0  0  0  0  0  0  0  0
   24.6073  -22.1385  -13.4231 N   0  0  0  0  0  0  0  0  0  0  0  0
   25.5497  -22.7141  -14.3466 C   0  0  0  0  0  0  0  0  0  0  0  0
   23.7003  -21.2376  -14.1922 O   0  0  0  0  0  0  0  0  0  0  0  0
   24.1649  -20.2822  -14.8677 C   0  0  0  0  0  0  0  0  0  0  0  0
   23.2748  -20.0833  -11.6355 C   0  0  0  0  0  0  0  0  0  0  0  0
   22.4146  -19.6260  -10.6505 C   0  0  0  0  0  0  0  0  0  0  0  0
   22.5290  -21.3826  -20.1644 S   0  0  0  0  0  0  0  0  0  0  0  0
   21.3460  -21.6374  -18.8117 C   0  0  0  0  0  0  0  0  0  0  0  0
   22.0765  -21.0004  -17.2548 C   0  0  0  0  0  0  0  0  0  0  0  0
   21.0233  -21.0938  -16.1994 C   0  0  2  0  0  0  0  0  0  0  0  0
   21.4568  -20.4801  -14.8884 N   0  0  0  0  0  0  0  0  0  0  0  0
   22.2954  -21.4208  -14.1909 C   0  0  0  0  0  0  0  0  0  0  0  0
   20.3196  -20.0321  -14.0455 O   0  0  0  0  0  0  0  0  0  0  0  0
   19.5189  -19.1253  -14.3547 O   0  0  0  0  0  0  0  0  0  0  0  0
  1  2  1  0
  2  3  2  0
  2  4  1  0
  4  5  1  0
  5  6  1  0
  7  8  1  0
  7  6  1  0
  8  9  1  6
  8 10  1  0
 10 11  2  0
 12 13  1  0
 13 23  2  0
 13 14  1  0
 14 15  2  0
 15 16  1  0
 16 17  1  0
 18 17  1  1
 18 20  1  0
 19 10  1  0
 19 18  1  0
 20 29  1  0
 21 20  2  0
 22 16  2  0
 23 22  1  0
 25 24  1  0
 26 25  1  0
 27 26  1  0
 28 30  1  0
 28 27  1  6
 29 28  1  0
 30 32  1  0
 31 30  2  0
M  END
$$$$
