RYM.pdb
     RDKit          3D

 32 32  0  0  1  0  0  0  0  0999 V2000
   24.1870  -25.7664  -19.8784 N   0  0  0  0  0  0  0  0  0  0  0  0
   25.3179  -26.3645  -20.5307 C   0  0  0  0  0  0  0  0  0  0  0  0
   25.3189  -27.6078  -20.8628 N   0  0  0  0  0  0  0  0  0  0  0  0
   26.4568  -25.5484  -20.8090 N   0  0  0  0  0  0  0  0  0  0  0  0
   26.6112  -24.2440  -20.2404 C   0  0  0  0  0  0  0  0  0  0  0  0
   27.2537  -24.2249  -18.9115 C   0  0  0  0  0  0  0  0  0  0  0  0
   26.4250  -24.0461  -17.6967 C   0  0  0  0  0  0  0  0  0  0  0  0
   25.8995  -22.7323  -17.3209 C   0  0  2  0  0  0  0  0  0  0  0  0
   26.6729  -21.5881  -17.7455 N   0  0  0  0  0  0  0  0  0  0  0  0
   25.5596  -22.6245  -15.8702 C   0  0  0  0  0  0  0  0  0  0  0  0
   24.8928  -23.5987  -15.4023 O   0  0  0  0  0  0  0  0  0  0  0  0
   26.1249  -28.1086  -21.2689 O   0  0  0  0  0  0  0  0  0  0  0  0
   24.7576  -20.2039   -7.4342 C   0  0  0  0  0  0  0  0  0  0  0  0
   25.1987  -20.3697   -8.7555 C   0  0  0  0  0  0  0  0  0  0  0  0
   25.7330  -21.5604   -9.1949 C   0  0  0  0  0  0  0  0  0  0  0  0
   26.1618  -21.7001  -10.5054 C   0  0  0  0  0  0  0  0  0  0  0  0
   26.0762  -20.6717  -11.4182 C   0  0  0  0  0  0  0  0  0  0  0  0
   26.5273  -20.8112  -12.8219 C   0  0  2  0  0  0  0  0  0  0  0  0
   25.4580  -21.3790  -13.7325 N   0  0  0  0  0  0  0  0  0  0  0  0
   25.9505  -21.5224  -15.0775 C   0  0  0  0  0  0  0  0  0  0  0  0
   24.3160  -20.4194  -13.7600 O   0  0  0  0  0  0  0  0  0  0  0  0
   24.2786  -19.4890  -14.6072 C   0  0  0  0  0  0  0  0  0  0  0  0
   25.5365  -19.4741  -10.9671 C   0  0  0  0  0  0  0  0  0  0  0  0
   25.1074  -19.3332   -9.6574 C   0  0  0  0  0  0  0  0  0  0  0  0
   19.6123  -17.0984  -17.1371 S   0  0  0  0  0  0  0  0  0  0  0  0
   20.6812  -18.5134  -16.7505 C   0  0  0  0  0  0  0  0  0  0  0  0
   21.0927  -18.4773  -14.9637 C   0  0  0  0  0  0  0  0  0  0  0  0
   21.9753  -19.6506  -14.6875 C   0  0  2  0  0  0  0  0  0  0  0  0
   21.9254  -20.0893  -13.2424 N   0  0  0  0  0  0  0  0  0  0  0  0
   23.2412  -20.5174  -12.8421 C   0  0  0  0  0  0  0  0  0  0  0  0
   20.9068  -21.1376  -12.9819 O   0  0  0  0  0  0  0  0  0  0  0  0
   21.0871  -22.3617  -13.1488 O   0  0  0  0  0  0  0  0  0  0  0  0
  1  2  1  0
  2  3  2  0
  2  4  1  0
  4  5  1  0
  5  6  1  0
  7  8  1  0
  7  6  1  0
  8  9  1  1
  8 10  1  0
 10 11  2  0
 12 13  1  0
 13 23  2  0
 13 14  1  0
 14 15  2  0
 15 16  1  0
 16 17  1  0
 18 17  1  1
 18 20  1  0
 19 10  1  0
 19 18  1  0
 20 29  1  0
 21 20  2  0
 22 16  2  0
 23 22  1  0
 25 24  1  0
 26 25  1  0
 27 26  1  0
 28 30  1  0
 28 27  1  1
 29 28  1  0
 30 32  1  0
 31 30  2  0
M  END
$$$$
