RYM.pdb
     RDKit          3D

 32 32  0  0  1  0  0  0  0  0999 V2000
   23.4985  -15.7686  -19.7478 N   0  0  0  0  0  0  0  0  0  0  0  0
   23.7058  -15.5054  -21.1441 C   0  0  0  0  0  0  0  0  0  0  0  0
   23.7784  -16.4618  -22.0021 N   0  0  0  0  0  0  0  0  0  0  0  0
   23.8319  -14.1485  -21.5724 N   0  0  0  0  0  0  0  0  0  0  0  0
   23.8562  -13.0601  -20.6433 C   0  0  0  0  0  0  0  0  0  0  0  0
   22.7720  -12.0744  -20.8227 C   0  0  0  0  0  0  0  0  0  0  0  0
   22.6368  -10.9486  -19.8693 C   0  0  0  0  0  0  0  0  0  0  0  0
   22.3365  -11.1811  -18.4553 C   0  0  2  0  0  0  0  0  0  0  0  0
   21.8867  -12.5091  -18.1063 N   0  0  0  0  0  0  0  0  0  0  0  0
   21.4297  -10.1503  -17.8664 C   0  0  0  0  0  0  0  0  0  0  0  0
   20.5665   -9.6754  -18.6675 O   0  0  0  0  0  0  0  0  0  0  0  0
   23.9150  -16.3337  -23.0172 O   0  0  0  0  0  0  0  0  0  0  0  0
   15.7259  -12.9743  -16.0897 C   0  0  0  0  0  0  0  0  0  0  0  0
   16.7380  -12.0562  -15.7724 C   0  0  0  0  0  0  0  0  0  0  0  0
   16.5530  -10.6991  -15.9144 C   0  0  0  0  0  0  0  0  0  0  0  0
   17.5681   -9.8116  -15.5941 C   0  0  0  0  0  0  0  0  0  0  0  0
   18.7922  -10.2361  -15.1257 C   0  0  0  0  0  0  0  0  0  0  0  0
   19.8824   -9.2965  -14.7763 C   0  0  2  0  0  0  0  0  0  0  0  0
   20.6094   -8.7571  -15.9909 N   0  0  0  0  0  0  0  0  0  0  0  0
   21.5241   -9.7349  -16.5194 C   0  0  0  0  0  0  0  0  0  0  0  0
   21.4024   -7.5673  -15.5652 O   0  0  0  0  0  0  0  0  0  0  0  0
   22.4944   -7.7076  -14.9547 C   0  0  0  0  0  0  0  0  0  0  0  0
   18.9709  -11.6064  -14.9856 C   0  0  0  0  0  0  0  0  0  0  0  0
   17.9569  -12.4946  -15.3054 C   0  0  0  0  0  0  0  0  0  0  0  0
   23.5142   -0.2785  -17.2196 S   0  0  0  0  0  0  0  0  0  0  0  0
   22.5357   -1.7592  -17.5991 C   0  0  0  0  0  0  0  0  0  0  0  0
   22.5563   -2.8750  -16.1438 C   0  0  0  0  0  0  0  0  0  0  0  0
   21.8096   -4.1123  -16.5222 C   0  0  1  0  0  0  0  0  0  0  0  0
   21.7684   -5.1315  -15.4074 N   0  0  0  0  0  0  0  0  0  0  0  0
   20.9606   -6.2471  -15.8287 C   0  0  0  0  0  0  0  0  0  0  0  0
   21.2953   -4.5707  -14.1166 O   0  0  0  0  0  0  0  0  0  0  0  0
   21.9565   -3.7988  -13.3914 O   0  0  0  0  0  0  0  0  0  0  0  0
  1  2  1  0
  2  3  2  0
  2  4  1  0
  4  5  1  0
  5  6  1  0
  7  8  1  0
  7  6  1  0
  8  9  1  6
  8 10  1  0
 10 11  2  0
 12 13  1  0
 13 23  2  0
 13 14  1  0
 14 15  2  0
 15 16  1  0
 16 17  1  0
 18 17  1  6
 18 20  1  0
 19 10  1  0
 19 18  1  0
 20 29  1  0
 21 20  2  0
 22 16  2  0
 23 22  1  0
 25 24  1  0
 26 25  1  0
 27 26  1  0
 28 30  1  0
 28 27  1  6
 29 28  1  0
 30 32  1  0
 31 30  2  0
M  END
$$$$
