RYM.pdb
     RDKit          3D

 32 32  0  0  1  0  0  0  0  0999 V2000
   10.0871  -24.3346   -3.4271 N   0  0  0  0  0  0  0  0  0  0  0  0
   10.5848  -25.4825   -2.7224 C   0  0  0  0  0  0  0  0  0  0  0  0
    9.9840  -25.9412   -1.6809 N   0  0  0  0  0  0  0  0  0  0  0  0
   11.7725  -26.1161   -3.2007 N   0  0  0  0  0  0  0  0  0  0  0  0
   12.5333  -25.5779   -4.2869 C   0  0  0  0  0  0  0  0  0  0  0  0
   13.7823  -26.3067   -4.5832 C   0  0  0  0  0  0  0  0  0  0  0  0
   15.0089  -26.0088   -3.8078 C   0  0  0  0  0  0  0  0  0  0  0  0
   15.6195  -24.6783   -3.8317 C   0  0  2  0  0  0  0  0  0  0  0  0
   16.9371  -24.5889   -4.4180 N   0  0  0  0  0  0  0  0  0  0  0  0
   15.5894  -23.9902   -2.5061 C   0  0  0  0  0  0  0  0  0  0  0  0
   16.5637  -24.2628   -1.7386 O   0  0  0  0  0  0  0  0  0  0  0  0
   10.2908  -26.7637   -1.1380 O   0  0  0  0  0  0  0  0  0  0  0  0
   13.7478  -18.2042    3.9456 C   0  0  0  0  0  0  0  0  0  0  0  0
   13.7783  -18.9100    2.7336 C   0  0  0  0  0  0  0  0  0  0  0  0
   14.8803  -18.8814    1.9084 C   0  0  0  0  0  0  0  0  0  0  0  0
   14.8867  -19.5873    0.7157 C   0  0  0  0  0  0  0  0  0  0  0  0
   13.8089  -20.3399    0.3035 C   0  0  0  0  0  0  0  0  0  0  0  0
   13.8065  -21.1014   -0.9667 C   0  0  1  0  0  0  0  0  0  0  0  0
   14.6328  -22.3692   -0.8971 N   0  0  0  0  0  0  0  0  0  0  0  0
   14.5557  -23.1023   -2.1336 C   0  0  0  0  0  0  0  0  0  0  0  0
   14.0704  -23.2295    0.1843 O   0  0  0  0  0  0  0  0  0  0  0  0
   13.0995  -23.9973   -0.0448 C   0  0  0  0  0  0  0  0  0  0  0  0
   12.7013  -20.3632    1.1413 C   0  0  0  0  0  0  0  0  0  0  0  0
   12.6936  -19.6581    2.3338 C   0  0  0  0  0  0  0  0  0  0  0  0
   14.7926  -28.2519    5.7938 S   0  0  0  0  0  0  0  0  0  0  0  0
   15.5724  -27.0003    4.7357 C   0  0  0  0  0  0  0  0  0  0  0  0
   14.2920  -25.8121    4.1772 C   0  0  0  0  0  0  0  0  0  0  0  0
   14.8953  -24.9896    3.0858 C   0  0  2  0  0  0  0  0  0  0  0  0
   13.9388  -23.9549    2.5398 N   0  0  0  0  0  0  0  0  0  0  0  0
   14.6022  -23.2145    1.4975 C   0  0  0  0  0  0  0  0  0  0  0  0
   13.3889  -23.0547    3.5846 O   0  0  0  0  0  0  0  0  0  0  0  0
   12.5437  -23.3906    4.4400 O   0  0  0  0  0  0  0  0  0  0  0  0
  1  2  1  0
  2  3  2  0
  2  4  1  0
  4  5  1  0
  5  6  1  0
  7  8  1  0
  7  6  1  0
  8  9  1  1
  8 10  1  0
 10 11  2  0
 12 13  1  0
 13 23  2  0
 13 14  1  0
 14 15  2  0
 15 16  1  0
 16 17  1  0
 18 17  1  6
 18 20  1  0
 19 10  1  0
 19 18  1  0
 20 29  1  0
 21 20  2  0
 22 16  2  0
 23 22  1  0
 25 24  1  0
 26 25  1  0
 27 26  1  0
 28 30  1  0
 28 27  1  6
 29 28  1  0
 30 32  1  0
 31 30  2  0
M  END
$$$$
