RYM.pdb
     RDKit          3D

 32 32  0  0  1  0  0  0  0  0999 V2000
   29.4906  -25.3484  -19.2540 N   0  0  0  0  0  0  0  0  0  0  0  0
   29.0824  -25.5655  -17.8944 C   0  0  0  0  0  0  0  0  0  0  0  0
   29.4982  -26.5827  -17.2248 N   0  0  0  0  0  0  0  0  0  0  0  0
   28.1961  -24.6233  -17.2883 N   0  0  0  0  0  0  0  0  0  0  0  0
   27.2090  -23.9160  -18.0458 C   0  0  0  0  0  0  0  0  0  0  0  0
   26.4333  -22.9264  -17.2725 C   0  0  0  0  0  0  0  0  0  0  0  0
   26.5194  -22.9180  -15.7937 C   0  0  0  0  0  0  0  0  0  0  0  0
   25.4468  -23.4733  -14.9661 C   0  0  2  0  0  0  0  0  0  0  0  0
   24.9557  -24.7781  -15.3453 N   0  0  0  0  0  0  0  0  0  0  0  0
   24.3098  -22.5267  -14.7587 C   0  0  0  0  0  0  0  0  0  0  0  0
   23.1554  -23.0485  -14.8466 O   0  0  0  0  0  0  0  0  0  0  0  0
   29.2065  -26.8136  -16.2620 O   0  0  0  0  0  0  0  0  0  0  0  0
   24.1058  -21.4250   -7.8890 C   0  0  0  0  0  0  0  0  0  0  0  0
   23.9971  -20.8942   -9.1829 C   0  0  0  0  0  0  0  0  0  0  0  0
   22.7753  -20.5796   -9.7346 C   0  0  0  0  0  0  0  0  0  0  0  0
   22.6935  -20.0560  -11.0152 C   0  0  0  0  0  0  0  0  0  0  0  0
   23.8118  -19.8283  -11.7869 C   0  0  0  0  0  0  0  0  0  0  0  0
   23.7364  -19.2653  -13.1546 C   0  0  2  0  0  0  0  0  0  0  0  0
   23.3793  -20.3008  -14.2010 N   0  0  0  0  0  0  0  0  0  0  0  0
   24.5032  -21.1544  -14.4848 C   0  0  0  0  0  0  0  0  0  0  0  0
   23.0169  -19.5832  -15.4578 O   0  0  0  0  0  0  0  0  0  0  0  0
   23.8070  -19.5643  -16.4377 C   0  0  0  0  0  0  0  0  0  0  0  0
   25.0403  -20.1486  -11.2234 C   0  0  0  0  0  0  0  0  0  0  0  0
   25.1235  -20.6719   -9.9433 C   0  0  0  0  0  0  0  0  0  0  0  0
   21.5609  -23.4908  -17.5460 S   0  0  0  0  0  0  0  0  0  0  0  0
   21.0351  -22.5713  -19.0198 C   0  0  0  0  0  0  0  0  0  0  0  0
   20.5327  -20.8804  -18.5180 C   0  0  0  0  0  0  0  0  0  0  0  0
   21.3310  -20.5208  -17.3076 C   0  0  2  0  0  0  0  0  0  0  0  0
   20.9403  -19.1805  -16.7295 N   0  0  0  0  0  0  0  0  0  0  0  0
   21.7822  -18.9019  -15.5945 C   0  0  0  0  0  0  0  0  0  0  0  0
   19.5008  -19.0903  -16.3774 O   0  0  0  0  0  0  0  0  0  0  0  0
   18.9950  -19.5428  -15.3293 O   0  0  0  0  0  0  0  0  0  0  0  0
  1  2  1  0
  2  3  2  0
  2  4  1  0
  4  5  1  0
  5  6  1  0
  7  8  1  0
  7  6  1  0
  8  9  1  6
  8 10  1  0
 10 11  2  0
 12 13  1  0
 13 23  2  0
 13 14  1  0
 14 15  2  0
 15 16  1  0
 16 17  1  0
 18 17  1  1
 18 20  1  0
 19 10  1  0
 19 18  1  0
 20 29  1  0
 21 20  2  0
 22 16  2  0
 23 22  1  0
 25 24  1  0
 26 25  1  0
 27 26  1  0
 28 30  1  0
 28 27  1  6
 29 28  1  0
 30 32  1  0
 31 30  2  0
M  END
$$$$
