RYM.pdb
     RDKit          3D

 32 32  0  0  1  0  0  0  0  0999 V2000
   28.0572  -23.6871  -16.5014 N   0  0  0  0  0  0  0  0  0  0  0  0
   26.8188  -24.4098  -16.4230 C   0  0  0  0  0  0  0  0  0  0  0  0
   26.7911  -25.6960  -16.4542 N   0  0  0  0  0  0  0  0  0  0  0  0
   25.6020  -23.6702  -16.3084 N   0  0  0  0  0  0  0  0  0  0  0  0
   25.5926  -22.2498  -16.1332 C   0  0  0  0  0  0  0  0  0  0  0  0
   25.8035  -21.8004  -14.7430 C   0  0  0  0  0  0  0  0  0  0  0  0
   24.6677  -21.2484  -13.9686 C   0  0  0  0  0  0  0  0  0  0  0  0
   23.3630  -21.0174  -14.5916 C   0  0  2  0  0  0  0  0  0  0  0  0
   23.3340  -20.0743  -15.6858 N   0  0  0  0  0  0  0  0  0  0  0  0
   22.2838  -20.7080  -13.6060 C   0  0  0  0  0  0  0  0  0  0  0  0
   22.5651  -19.7911  -12.7737 O   0  0  0  0  0  0  0  0  0  0  0  0
   25.9363  -26.2692  -16.3742 O   0  0  0  0  0  0  0  0  0  0  0  0
   20.2066  -14.8360  -14.7180 C   0  0  0  0  0  0  0  0  0  0  0  0
   19.8866  -16.1723  -14.4352 C   0  0  0  0  0  0  0  0  0  0  0  0
   20.0350  -17.1657  -15.3772 C   0  0  0  0  0  0  0  0  0  0  0  0
   19.7123  -18.4790  -15.0740 C   0  0  0  0  0  0  0  0  0  0  0  0
   19.2349  -18.8494  -13.8359 C   0  0  0  0  0  0  0  0  0  0  0  0
   18.8910  -20.2502  -13.4997 C   0  0  2  0  0  0  0  0  0  0  0  0
   19.9835  -20.9569  -12.7239 N   0  0  0  0  0  0  0  0  0  0  0  0
   21.0431  -21.3835  -13.6000 C   0  0  0  0  0  0  0  0  0  0  0  0
   19.3910  -22.1716  -12.0921 O   0  0  0  0  0  0  0  0  0  0  0  0
   20.0821  -23.2103  -11.9233 C   0  0  0  0  0  0  0  0  0  0  0  0
   19.0878  -17.8415  -12.8916 C   0  0  0  0  0  0  0  0  0  0  0  0
   19.4101  -16.5284  -13.1933 C   0  0  0  0  0  0  0  0  0  0  0  0
   18.4340  -26.5551   -6.6639 S   0  0  0  0  0  0  0  0  0  0  0  0
   19.0075  -25.1312   -7.6325 C   0  0  0  0  0  0  0  0  0  0  0  0
   17.8526  -24.8592   -9.0309 C   0  0  0  0  0  0  0  0  0  0  0  0
   18.3427  -23.6670   -9.7861 C   0  0  1  0  0  0  0  0  0  0  0  0
   17.5260  -23.3872  -11.0262 N   0  0  0  0  0  0  0  0  0  0  0  0
   18.0411  -22.2023  -11.6630 C   0  0  0  0  0  0  0  0  0  0  0  0
   16.0702  -23.2743  -10.7573 O   0  0  0  0  0  0  0  0  0  0  0  0
   15.2204  -24.1339  -11.0697 O   0  0  0  0  0  0  0  0  0  0  0  0
  1  2  1  0
  2  3  2  0
  2  4  1  0
  4  5  1  0
  5  6  1  0
  7  8  1  0
  7  6  1  0
  8  9  1  6
  8 10  1  0
 10 11  2  0
 12 13  1  0
 13 23  2  0
 13 14  1  0
 14 15  2  0
 15 16  1  0
 16 17  1  0
 18 17  1  1
 18 20  1  0
 19 10  1  0
 19 18  1  0
 20 29  1  0
 21 20  2  0
 22 16  2  0
 23 22  1  0
 25 24  1  0
 26 25  1  0
 27 26  1  0
 28 30  1  0
 28 27  1  6
 29 28  1  0
 30 32  1  0
 31 30  2  0
M  END
$$$$
