RYM.pdb
     RDKit          3D

 32 32  0  0  1  0  0  0  0  0999 V2000
   31.7195  -25.0034  -16.7804 N   0  0  0  0  0  0  0  0  0  0  0  0
   30.4606  -25.6803  -16.6429 C   0  0  0  0  0  0  0  0  0  0  0  0
   30.3934  -26.9641  -16.5864 N   0  0  0  0  0  0  0  0  0  0  0  0
   29.2681  -24.8972  -16.5688 N   0  0  0  0  0  0  0  0  0  0  0  0
   29.2564  -23.5028  -16.8914 C   0  0  0  0  0  0  0  0  0  0  0  0
   29.7998  -22.6235  -15.8375 C   0  0  0  0  0  0  0  0  0  0  0  0
   28.8853  -22.0170  -14.8423 C   0  0  0  0  0  0  0  0  0  0  0  0
   27.7232  -21.2292  -15.2579 C   0  0  2  0  0  0  0  0  0  0  0  0
   27.9582  -20.2278  -16.2726 N   0  0  0  0  0  0  0  0  0  0  0  0
   26.9653  -20.6439  -14.1113 C   0  0  0  0  0  0  0  0  0  0  0  0
   27.2385  -19.4313  -13.8516 O   0  0  0  0  0  0  0  0  0  0  0  0
   29.5247  -27.5031  -16.4434 O   0  0  0  0  0  0  0  0  0  0  0  0
   21.6444  -17.8742  -16.8556 C   0  0  0  0  0  0  0  0  0  0  0  0
   22.1670  -18.6508  -15.8107 C   0  0  0  0  0  0  0  0  0  0  0  0
   22.7139  -19.8939  -16.0380 C   0  0  0  0  0  0  0  0  0  0  0  0
   23.2242  -20.6425  -14.9892 C   0  0  0  0  0  0  0  0  0  0  0  0
   23.2096  -20.1876  -13.6888 C   0  0  0  0  0  0  0  0  0  0  0  0
   23.7559  -20.9771  -12.5611 C   0  0  2  0  0  0  0  0  0  0  0  0
   25.2368  -20.7465  -12.3412 N   0  0  0  0  0  0  0  0  0  0  0  0
   26.0153  -21.3827  -13.3715 C   0  0  0  0  0  0  0  0  0  0  0  0
   25.6120  -21.3612  -11.0346 O   0  0  0  0  0  0  0  0  0  0  0  0
   25.3600  -22.5717  -10.7978 C   0  0  0  0  0  0  0  0  0  0  0  0
   22.6559  -18.9331  -13.4679 C   0  0  0  0  0  0  0  0  0  0  0  0
   22.1456  -18.1838  -14.5155 C   0  0  0  0  0  0  0  0  0  0  0  0
   28.6421  -18.2140   -5.8964 S   0  0  0  0  0  0  0  0  0  0  0  0
   28.0110  -19.8515   -5.4334 C   0  0  0  0  0  0  0  0  0  0  0  0
   26.4280  -20.1486   -6.3102 C   0  0  0  0  0  0  0  0  0  0  0  0
   26.6736  -19.9081   -7.7641 C   0  0  1  0  0  0  0  0  0  0  0  0
   26.0837  -20.9883   -8.6407 N   0  0  0  0  0  0  0  0  0  0  0  0
   26.2592  -20.6130  -10.0203 C   0  0  0  0  0  0  0  0  0  0  0  0
   24.6621  -21.2841   -8.3313 O   0  0  0  0  0  0  0  0  0  0  0  0
   23.6855  -20.7876   -8.9302 O   0  0  0  0  0  0  0  0  0  0  0  0
  1  2  1  0
  2  3  2  0
  2  4  1  0
  4  5  1  0
  5  6  1  0
  7  8  1  0
  7  6  1  0
  8  9  1  6
  8 10  1  0
 10 11  2  0
 12 13  1  0
 13 23  2  0
 13 14  1  0
 14 15  2  0
 15 16  1  0
 16 17  1  0
 18 17  1  6
 18 20  1  0
 19 10  1  0
 19 18  1  0
 20 29  1  0
 21 20  2  0
 22 16  2  0
 23 22  1  0
 25 24  1  0
 26 25  1  0
 27 26  1  0
 28 30  1  0
 28 27  1  6
 29 28  1  0
 30 32  1  0
 31 30  2  0
M  END
$$$$
