RYM.pdb
     RDKit          3D

 32 32  0  0  1  0  0  0  0  0999 V2000
   28.9886  -22.1487  -16.5681 N   0  0  0  0  0  0  0  0  0  0  0  0
   28.7531  -23.3719  -17.2824 C   0  0  0  0  0  0  0  0  0  0  0  0
   29.7028  -24.2116  -17.5036 N   0  0  0  0  0  0  0  0  0  0  0  0
   27.4315  -23.6464  -17.7502 N   0  0  0  0  0  0  0  0  0  0  0  0
   26.2774  -23.0419  -17.1577 C   0  0  0  0  0  0  0  0  0  0  0  0
   25.6323  -23.8505  -16.1046 C   0  0  0  0  0  0  0  0  0  0  0  0
   24.4658  -23.3066  -15.3711 C   0  0  0  0  0  0  0  0  0  0  0  0
   24.5542  -22.0491  -14.6264 C   0  0  2  0  0  0  0  0  0  0  0  0
   25.7910  -21.8097  -13.9188 N   0  0  0  0  0  0  0  0  0  0  0  0
   23.3839  -21.8097  -13.7294 C   0  0  0  0  0  0  0  0  0  0  0  0
   23.1975  -22.6996  -12.8427 O   0  0  0  0  0  0  0  0  0  0  0  0
   29.5975  -25.0966  -18.0243 O   0  0  0  0  0  0  0  0  0  0  0  0
   20.0757  -17.2113  -18.3901 C   0  0  0  0  0  0  0  0  0  0  0  0
   20.2858  -17.6743  -17.0827 C   0  0  0  0  0  0  0  0  0  0  0  0
   21.5101  -17.5587  -16.4631 C   0  0  0  0  0  0  0  0  0  0  0  0
   21.6930  -18.0235  -15.1704 C   0  0  0  0  0  0  0  0  0  0  0  0
   20.6761  -18.6146  -14.4531 C   0  0  0  0  0  0  0  0  0  0  0  0
   20.8592  -19.1109  -13.0698 C   0  0  1  0  0  0  0  0  0  0  0  0
   21.3880  -20.5294  -13.0162 N   0  0  0  0  0  0  0  0  0  0  0  0
   22.5472  -20.6786  -13.8566 C   0  0  0  0  0  0  0  0  0  0  0  0
   20.3246  -21.4397  -13.5325 O   0  0  0  0  0  0  0  0  0  0  0  0
   20.5614  -22.2309  -14.4826 C   0  0  0  0  0  0  0  0  0  0  0  0
   19.4444  -18.7277  -15.0852 C   0  0  0  0  0  0  0  0  0  0  0  0
   19.2602  -18.2633  -16.3774 C   0  0  0  0  0  0  0  0  0  0  0  0
   20.9786  -26.2943  -12.7402 S   0  0  0  0  0  0  0  0  0  0  0  0
   19.4623  -26.3446  -11.7440 C   0  0  0  0  0  0  0  0  0  0  0  0
   18.2990  -25.0709  -12.3666 C   0  0  0  0  0  0  0  0  0  0  0  0
   19.0214  -23.7633  -12.3493 C   0  0  2  0  0  0  0  0  0  0  0  0
   18.2398  -22.6574  -13.0197 N   0  0  0  0  0  0  0  0  0  0  0  0
   19.0204  -21.4475  -12.9789 C   0  0  0  0  0  0  0  0  0  0  0  0
   16.8893  -22.4564  -12.4367 O   0  0  0  0  0  0  0  0  0  0  0  0
   16.6057  -21.5942  -11.5794 O   0  0  0  0  0  0  0  0  0  0  0  0
  1  2  1  0
  2  3  2  0
  2  4  1  0
  4  5  1  0
  5  6  1  0
  7  8  1  0
  7  6  1  0
  8  9  1  1
  8 10  1  0
 10 11  2  0
 12 13  1  0
 13 23  2  0
 13 14  1  0
 14 15  2  0
 15 16  1  0
 16 17  1  0
 18 17  1  1
 18 20  1  0
 19 10  1  0
 19 18  1  0
 20 29  1  0
 21 20  2  0
 22 16  2  0
 23 22  1  0
 25 24  1  0
 26 25  1  0
 27 26  1  0
 28 30  1  0
 28 27  1  6
 29 28  1  0
 30 32  1  0
 31 30  2  0
M  END
$$$$
