RYM.pdb
     RDKit          3D

 32 32  0  0  1  0  0  0  0  0999 V2000
   19.2314  -14.5825  -21.4087 N   0  0  0  0  0  0  0  0  0  0  0  0
   19.0688  -15.7083  -20.5323 C   0  0  0  0  0  0  0  0  0  0  0  0
   18.4094  -16.7513  -20.8974 N   0  0  0  0  0  0  0  0  0  0  0  0
   19.6576  -15.6526  -19.2319 N   0  0  0  0  0  0  0  0  0  0  0  0
   20.3250  -14.4809  -18.7521 C   0  0  0  0  0  0  0  0  0  0  0  0
   20.7174  -14.5358  -17.3301 C   0  0  0  0  0  0  0  0  0  0  0  0
   21.4600  -13.4041  -16.7282 C   0  0  0  0  0  0  0  0  0  0  0  0
   22.8571  -13.1395  -17.0772 C   0  0  2  0  0  0  0  0  0  0  0  0
   23.7948  -14.2081  -16.8196 N   0  0  0  0  0  0  0  0  0  0  0  0
   23.3701  -11.8494  -16.5255 C   0  0  0  0  0  0  0  0  0  0  0  0
   23.8291  -11.9171  -15.3434 O   0  0  0  0  0  0  0  0  0  0  0  0
   18.3132  -17.6134  -20.3379 O   0  0  0  0  0  0  0  0  0  0  0  0
   29.5105  -11.7493  -18.5938 C   0  0  0  0  0  0  0  0  0  0  0  0
   28.3413  -11.0095  -18.3624 C   0  0  0  0  0  0  0  0  0  0  0  0
   27.2132  -11.1812  -19.1331 C   0  0  0  0  0  0  0  0  0  0  0  0
   26.0697  -10.4384  -18.8849 C   0  0  0  0  0  0  0  0  0  0  0  0
   26.0061   -9.5070  -17.8718 C   0  0  0  0  0  0  0  0  0  0  0  0
   24.7883   -8.7109  -17.5950 C   0  0  2  0  0  0  0  0  0  0  0  0
   23.8170   -9.4184  -16.6726 N   0  0  0  0  0  0  0  0  0  0  0  0
   23.3473  -10.6446  -17.2626 C   0  0  0  0  0  0  0  0  0  0  0  0
   22.6396   -8.5254  -16.4672 O   0  0  0  0  0  0  0  0  0  0  0  0
   22.0682   -7.9796  -17.4473 C   0  0  0  0  0  0  0  0  0  0  0  0
   27.1483   -9.3396  -17.0993 C   0  0  0  0  0  0  0  0  0  0  0  0
   28.2919  -10.0815  -17.3462 C   0  0  0  0  0  0  0  0  0  0  0  0
   17.2775   -9.1860  -13.3696 S   0  0  0  0  0  0  0  0  0  0  0  0
   17.9495  -10.1041  -14.7837 C   0  0  0  0  0  0  0  0  0  0  0  0
   19.2604   -9.0971  -15.5780 C   0  0  0  0  0  0  0  0  0  0  0  0
   19.8141   -8.1846  -14.5327 C   0  0  2  0  0  0  0  0  0  0  0  0
   20.9940   -7.3806  -15.0274 N   0  0  0  0  0  0  0  0  0  0  0  0
   22.1254   -8.2598  -15.1740 C   0  0  0  0  0  0  0  0  0  0  0  0
   21.3147   -6.2165  -14.1634 O   0  0  0  0  0  0  0  0  0  0  0  0
   20.5268   -5.2826  -13.9069 O   0  0  0  0  0  0  0  0  0  0  0  0
  1  2  1  0
  2  3  2  0
  2  4  1  0
  4  5  1  0
  5  6  1  0
  7  8  1  0
  7  6  1  0
  8  9  1  1
  8 10  1  0
 10 11  2  0
 12 13  1  0
 13 23  2  0
 13 14  1  0
 14 15  2  0
 15 16  1  0
 16 17  1  0
 18 17  1  1
 18 20  1  0
 19 10  1  0
 19 18  1  0
 20 29  1  0
 21 20  2  0
 22 16  2  0
 23 22  1  0
 25 24  1  0
 26 25  1  0
 27 26  1  0
 28 30  1  0
 28 27  1  6
 29 28  1  0
 30 32  1  0
 31 30  2  0
M  END
$$$$
