RYM.pdb
     RDKit          3D

 32 32  0  0  1  0  0  0  0  0999 V2000
   22.0687  -15.5438  -20.5795 N   0  0  0  0  0  0  0  0  0  0  0  0
   23.3698  -15.3731  -21.1625 C   0  0  0  0  0  0  0  0  0  0  0  0
   24.0443  -16.3777  -21.6005 N   0  0  0  0  0  0  0  0  0  0  0  0
   23.9118  -14.0542  -21.2501 N   0  0  0  0  0  0  0  0  0  0  0  0
   23.5345  -13.0181  -20.3377 C   0  0  0  0  0  0  0  0  0  0  0  0
   22.5107  -12.0878  -20.8532 C   0  0  0  0  0  0  0  0  0  0  0  0
   22.0116  -10.9923  -19.9900 C   0  0  0  0  0  0  0  0  0  0  0  0
   21.6911  -11.2209  -18.5797 C   0  0  2  0  0  0  0  0  0  0  0  0
   20.8760  -12.3775  -18.2877 N   0  0  0  0  0  0  0  0  0  0  0  0
   21.1464  -10.0107  -17.8937 C   0  0  0  0  0  0  0  0  0  0  0  0
   20.0854   -9.5366  -18.4056 O   0  0  0  0  0  0  0  0  0  0  0  0
   24.9872  -16.3183  -22.0163 O   0  0  0  0  0  0  0  0  0  0  0  0
   15.9333  -11.9583  -15.3439 C   0  0  0  0  0  0  0  0  0  0  0  0
   17.0833  -11.1678  -15.2005 C   0  0  0  0  0  0  0  0  0  0  0  0
   18.3176  -11.7260  -14.9532 C   0  0  0  0  0  0  0  0  0  0  0  0
   19.4395  -10.9241  -14.8156 C   0  0  0  0  0  0  0  0  0  0  0  0
   19.3766   -9.5516  -14.9176 C   0  0  0  0  0  0  0  0  0  0  0  0
   20.5696   -8.6854  -14.7766 C   0  0  2  0  0  0  0  0  0  0  0  0
   21.1772   -8.2953  -16.1083 N   0  0  0  0  0  0  0  0  0  0  0  0
   21.7640   -9.4366  -16.7603 C   0  0  0  0  0  0  0  0  0  0  0  0
   22.2620   -7.3043  -15.8496 O   0  0  0  0  0  0  0  0  0  0  0  0
   23.0962   -7.4912  -14.9255 C   0  0  0  0  0  0  0  0  0  0  0  0
   18.1280   -8.9964  -15.1668 C   0  0  0  0  0  0  0  0  0  0  0  0
   17.0057   -9.7969  -15.3047 C   0  0  0  0  0  0  0  0  0  0  0  0
   20.0189    0.0728  -16.5524 S   0  0  0  0  0  0  0  0  0  0  0  0
   20.1687   -1.6046  -17.2290 C   0  0  0  0  0  0  0  0  0  0  0  0
   21.2442   -2.5977  -16.1243 C   0  0  0  0  0  0  0  0  0  0  0  0
   21.3942   -3.9475  -16.7466 C   0  0  1  0  0  0  0  0  0  0  0  0
   22.3407   -4.8407  -15.9788 N   0  0  0  0  0  0  0  0  0  0  0  0
   22.3927   -6.1265  -16.6261 C   0  0  0  0  0  0  0  0  0  0  0  0
   21.9928   -4.9664  -14.5409 O   0  0  0  0  0  0  0  0  0  0  0  0
   21.0422   -5.6424  -14.0955 O   0  0  0  0  0  0  0  0  0  0  0  0
  1  2  1  0
  2  3  2  0
  2  4  1  0
  4  5  1  0
  5  6  1  0
  7  8  1  0
  7  6  1  0
  8  9  1  6
  8 10  1  0
 10 11  2  0
 12 13  1  0
 13 23  2  0
 13 14  1  0
 14 15  2  0
 15 16  1  0
 16 17  1  0
 18 17  1  6
 18 20  1  0
 19 10  1  0
 19 18  1  0
 20 29  1  0
 21 20  2  0
 22 16  2  0
 23 22  1  0
 25 24  1  0
 26 25  1  0
 27 26  1  0
 28 30  1  0
 28 27  1  6
 29 28  1  0
 30 32  1  0
 31 30  2  0
M  END
$$$$
