RYM.pdb
     RDKit          3D

 32 32  0  0  1  0  0  0  0  0999 V2000
   22.6850  -24.9918  -16.3745 N   0  0  0  0  0  0  0  0  0  0  0  0
   23.4605  -26.0661  -15.8210 C   0  0  0  0  0  0  0  0  0  0  0  0
   23.1800  -27.2956  -16.0775 N   0  0  0  0  0  0  0  0  0  0  0  0
   24.5625  -25.7458  -14.9702 N   0  0  0  0  0  0  0  0  0  0  0  0
   24.9715  -24.3942  -14.7371 C   0  0  0  0  0  0  0  0  0  0  0  0
   25.5932  -23.7309  -15.9001 C   0  0  0  0  0  0  0  0  0  0  0  0
   26.1630  -22.3713  -15.7532 C   0  0  0  0  0  0  0  0  0  0  0  0
   25.3397  -21.1763  -15.9478 C   0  0  2  0  0  0  0  0  0  0  0  0
   26.0420  -19.9675  -16.3127 N   0  0  0  0  0  0  0  0  0  0  0  0
   24.4013  -20.9142  -14.8154 C   0  0  0  0  0  0  0  0  0  0  0  0
   24.9460  -20.4583  -13.7627 O   0  0  0  0  0  0  0  0  0  0  0  0
   23.6229  -28.1086  -15.6210 O   0  0  0  0  0  0  0  0  0  0  0  0
   19.4370  -17.4542  -18.6059 C   0  0  0  0  0  0  0  0  0  0  0  0
   20.0163  -17.9152  -17.4144 C   0  0  0  0  0  0  0  0  0  0  0  0
   19.2475  -18.2932  -16.3363 C   0  0  0  0  0  0  0  0  0  0  0  0
   19.8430  -18.7458  -15.1695 C   0  0  0  0  0  0  0  0  0  0  0  0
   21.2108  -18.8382  -15.0327 C   0  0  0  0  0  0  0  0  0  0  0  0
   21.8576  -19.3244  -13.7923 C   0  0  1  0  0  0  0  0  0  0  0  0
   22.1378  -20.8129  -13.8164 N   0  0  0  0  0  0  0  0  0  0  0  0
   23.0123  -21.1544  -14.9078 C   0  0  0  0  0  0  0  0  0  0  0  0
   20.8430  -21.5245  -14.0237 O   0  0  0  0  0  0  0  0  0  0  0  0
   20.4611  -21.8398  -15.1811 C   0  0  0  0  0  0  0  0  0  0  0  0
   21.9791  -18.4548  -16.1245 C   0  0  0  0  0  0  0  0  0  0  0  0
   21.3850  -18.0024  -17.2915 C   0  0  0  0  0  0  0  0  0  0  0  0
   18.6625  -25.1181   -8.3415 S   0  0  0  0  0  0  0  0  0  0  0  0
   18.6105  -25.3188  -10.1446 C   0  0  0  0  0  0  0  0  0  0  0  0
   18.8316  -23.6776  -10.9324 C   0  0  0  0  0  0  0  0  0  0  0  0
   18.8200  -23.8896  -12.4111 C   0  0  1  0  0  0  0  0  0  0  0  0
   18.7819  -22.5923  -13.1850 N   0  0  0  0  0  0  0  0  0  0  0  0
   20.0020  -21.8682  -12.9366 C   0  0  0  0  0  0  0  0  0  0  0  0
   17.5853  -21.7657  -12.8866 O   0  0  0  0  0  0  0  0  0  0  0  0
   17.6129  -20.6507  -12.3255 O   0  0  0  0  0  0  0  0  0  0  0  0
  1  2  1  0
  2  3  2  0
  2  4  1  0
  4  5  1  0
  5  6  1  0
  7  8  1  0
  7  6  1  0
  8  9  1  1
  8 10  1  0
 10 11  2  0
 12 13  1  0
 13 23  2  0
 13 14  1  0
 14 15  2  0
 15 16  1  0
 16 17  1  0
 18 17  1  1
 18 20  1  0
 19 10  1  0
 19 18  1  0
 20 29  1  0
 21 20  2  0
 22 16  2  0
 23 22  1  0
 25 24  1  0
 26 25  1  0
 27 26  1  0
 28 30  1  0
 28 27  1  6
 29 28  1  0
 30 32  1  0
 31 30  2  0
M  END
$$$$
