RYM.pdb
     RDKit          3D

 32 32  0  0  1  0  0  0  0  0999 V2000
   21.6384  -25.9110  -16.7013 N   0  0  0  0  0  0  0  0  0  0  0  0
   22.7712  -26.3344  -17.4756 C   0  0  0  0  0  0  0  0  0  0  0  0
   22.6287  -26.8323  -18.6536 N   0  0  0  0  0  0  0  0  0  0  0  0
   24.0760  -26.1928  -16.9114 N   0  0  0  0  0  0  0  0  0  0  0  0
   24.2813  -25.6425  -15.6063 C   0  0  0  0  0  0  0  0  0  0  0  0
   25.6970  -25.5191  -15.2069 C   0  0  0  0  0  0  0  0  0  0  0  0
   26.4937  -24.3600  -15.6718 C   0  0  0  0  0  0  0  0  0  0  0  0
   25.8967  -23.0294  -15.8013 C   0  0  2  0  0  0  0  0  0  0  0  0
   25.9868  -22.4113  -17.1042 N   0  0  0  0  0  0  0  0  0  0  0  0
   26.3393  -22.0769  -14.7390 C   0  0  0  0  0  0  0  0  0  0  0  0
   27.5272  -21.6465  -14.8664 O   0  0  0  0  0  0  0  0  0  0  0  0
   23.4028  -27.1613  -19.2520 O   0  0  0  0  0  0  0  0  0  0  0  0
   26.7604  -16.1028  -17.2181 C   0  0  0  0  0  0  0  0  0  0  0  0
   26.3297  -16.9214  -16.1633 C   0  0  0  0  0  0  0  0  0  0  0  0
   25.1453  -17.6206  -16.2286 C   0  0  0  0  0  0  0  0  0  0  0  0
   24.7411  -18.4232  -15.1736 C   0  0  0  0  0  0  0  0  0  0  0  0
   25.4916  -18.5589  -14.0263 C   0  0  0  0  0  0  0  0  0  0  0  0
   25.0715  -19.4170  -12.8947 C   0  0  2  0  0  0  0  0  0  0  0  0
   25.9218  -20.6623  -12.7500 N   0  0  0  0  0  0  0  0  0  0  0  0
   25.5001  -21.6834  -13.6729 C   0  0  0  0  0  0  0  0  0  0  0  0
   25.7401  -21.1888  -11.3660 O   0  0  0  0  0  0  0  0  0  0  0  0
   24.8863  -22.0821  -11.1251 C   0  0  0  0  0  0  0  0  0  0  0  0
   26.6847  -17.8501  -13.9682 C   0  0  0  0  0  0  0  0  0  0  0  0
   27.0900  -17.0475  -15.0222 C   0  0  0  0  0  0  0  0  0  0  0  0
   29.4623  -19.5124   -6.5278 S   0  0  0  0  0  0  0  0  0  0  0  0
   27.9644  -19.7084   -5.5218 C   0  0  0  0  0  0  0  0  0  0  0  0
   26.6553  -20.4803   -6.5482 C   0  0  0  0  0  0  0  0  0  0  0  0
   27.0820  -20.3618   -7.9750 C   0  0  1  0  0  0  0  0  0  0  0  0
   26.0974  -20.9932   -8.9316 N   0  0  0  0  0  0  0  0  0  0  0  0
   26.5134  -20.7076  -10.2807 C   0  0  0  0  0  0  0  0  0  0  0  0
   24.6939  -20.5726   -8.6918 O   0  0  0  0  0  0  0  0  0  0  0  0
   24.0868  -19.7080   -9.3573 O   0  0  0  0  0  0  0  0  0  0  0  0
  1  2  1  0
  2  3  2  0
  2  4  1  0
  4  5  1  0
  5  6  1  0
  7  8  1  0
  7  6  1  0
  8  9  1  6
  8 10  1  0
 10 11  2  0
 12 13  1  0
 13 23  2  0
 13 14  1  0
 14 15  2  0
 15 16  1  0
 16 17  1  0
 18 17  1  6
 18 20  1  0
 19 10  1  0
 19 18  1  0
 20 29  1  0
 21 20  2  0
 22 16  2  0
 23 22  1  0
 25 24  1  0
 26 25  1  0
 27 26  1  0
 28 30  1  0
 28 27  1  6
 29 28  1  0
 30 32  1  0
 31 30  2  0
M  END
$$$$
