RYM.pdb
     RDKit          3D

 32 32  0  0  1  0  0  0  0  0999 V2000
   28.9422  -25.9021  -17.0217 N   0  0  0  0  0  0  0  0  0  0  0  0
   30.0319  -25.1846  -16.4220 C   0  0  0  0  0  0  0  0  0  0  0  0
   30.9678  -25.7976  -15.7860 N   0  0  0  0  0  0  0  0  0  0  0  0
   30.0622  -23.7615  -16.5432 N   0  0  0  0  0  0  0  0  0  0  0  0
   29.1483  -23.0536  -17.3870 C   0  0  0  0  0  0  0  0  0  0  0  0
   29.4289  -21.6108  -17.5231 C   0  0  0  0  0  0  0  0  0  0  0  0
   28.3577  -20.6246  -17.2500 C   0  0  0  0  0  0  0  0  0  0  0  0
   27.0890  -20.6578  -17.9800 C   0  0  2  0  0  0  0  0  0  0  0  0
   27.0811  -20.0256  -19.2791 N   0  0  0  0  0  0  0  0  0  0  0  0
   25.9260  -20.1934  -17.1654 C   0  0  0  0  0  0  0  0  0  0  0  0
   25.9967  -18.9893  -16.7682 O   0  0  0  0  0  0  0  0  0  0  0  0
   31.7478  -25.3337  -15.2942 O   0  0  0  0  0  0  0  0  0  0  0  0
   21.4043  -16.2826  -20.3637 C   0  0  0  0  0  0  0  0  0  0  0  0
   21.6423  -17.3564  -19.4930 C   0  0  0  0  0  0  0  0  0  0  0  0
   20.9232  -17.5166  -18.3297 C   0  0  0  0  0  0  0  0  0  0  0  0
   21.1766  -18.5860  -17.4855 C   0  0  0  0  0  0  0  0  0  0  0  0
   22.1446  -19.5261  -17.7635 C   0  0  0  0  0  0  0  0  0  0  0  0
   22.4209  -20.6750  -16.8707 C   0  0  2  0  0  0  0  0  0  0  0  0
   23.7160  -20.5257  -16.0992 N   0  0  0  0  0  0  0  0  0  0  0  0
   24.8292  -21.0298  -16.8600 C   0  0  0  0  0  0  0  0  0  0  0  0
   23.6070  -21.3351  -14.8507 O   0  0  0  0  0  0  0  0  0  0  0  0
   24.3927  -22.2952  -14.6366 C   0  0  0  0  0  0  0  0  0  0  0  0
   22.8658  -19.3572  -18.9385 C   0  0  0  0  0  0  0  0  0  0  0  0
   22.6133  -18.2887  -19.7834 C   0  0  0  0  0  0  0  0  0  0  0  0
   26.0865  -20.8909   -8.7698 S   0  0  0  0  0  0  0  0  0  0  0  0
   25.5649  -21.0851  -10.4973 C   0  0  0  0  0  0  0  0  0  0  0  0
   24.5334  -19.6453  -10.9727 C   0  0  0  0  0  0  0  0  0  0  0  0
   24.0825  -19.8672  -12.3795 C   0  0  1  0  0  0  0  0  0  0  0  0
   23.0166  -20.9327  -12.4882 N   0  0  0  0  0  0  0  0  0  0  0  0
   22.6244  -21.0571  -13.8686 C   0  0  0  0  0  0  0  0  0  0  0  0
   21.8470  -20.6849  -11.6079 O   0  0  0  0  0  0  0  0  0  0  0  0
   21.0157  -19.7676  -11.7708 O   0  0  0  0  0  0  0  0  0  0  0  0
  1  2  1  0
  2  3  2  0
  2  4  1  0
  4  5  1  0
  5  6  1  0
  7  8  1  0
  7  6  1  0
  8  9  1  6
  8 10  1  0
 10 11  2  0
 12 13  1  0
 13 23  2  0
 13 14  1  0
 14 15  2  0
 15 16  1  0
 16 17  1  0
 18 17  1  6
 18 20  1  0
 19 10  1  0
 19 18  1  0
 20 29  1  0
 21 20  2  0
 22 16  2  0
 23 22  1  0
 25 24  1  0
 26 25  1  0
 27 26  1  0
 28 30  1  0
 28 27  1  6
 29 28  1  0
 30 32  1  0
 31 30  2  0
M  END
$$$$
