RYM.pdb
     RDKit          3D

 32 32  0  0  1  0  0  0  0  0999 V2000
   30.4434  -21.0723  -19.8086 N   0  0  0  0  0  0  0  0  0  0  0  0
   29.7119  -19.9139  -19.3787 C   0  0  0  0  0  0  0  0  0  0  0  0
   30.2795  -18.7635  -19.2764 N   0  0  0  0  0  0  0  0  0  0  0  0
   28.3265  -20.0591  -19.0620 N   0  0  0  0  0  0  0  0  0  0  0  0
   27.6139  -21.2733  -19.3197 C   0  0  0  0  0  0  0  0  0  0  0  0
   26.1922  -21.2477  -18.9231 C   0  0  0  0  0  0  0  0  0  0  0  0
   25.8199  -21.4715  -17.5068 C   0  0  0  0  0  0  0  0  0  0  0  0
   26.5254  -22.4532  -16.6808 C   0  0  2  0  0  0  0  0  0  0  0  0
   26.4428  -23.8299  -17.1115 N   0  0  0  0  0  0  0  0  0  0  0  0
   26.2056  -22.3405  -15.2259 C   0  0  0  0  0  0  0  0  0  0  0  0
   25.3782  -23.2000  -14.7910 O   0  0  0  0  0  0  0  0  0  0  0  0
   29.8063  -17.8978  -18.9730 O   0  0  0  0  0  0  0  0  0  0  0  0
   26.2204  -20.0339   -6.6806 C   0  0  0  0  0  0  0  0  0  0  0  0
   26.5068  -20.1152   -8.0515 C   0  0  0  0  0  0  0  0  0  0  0  0
   27.3659  -21.0661   -8.5550 C   0  0  0  0  0  0  0  0  0  0  0  0
   27.6331  -21.1267   -9.9135 C   0  0  0  0  0  0  0  0  0  0  0  0
   27.0620  -20.2528  -10.8126 C   0  0  0  0  0  0  0  0  0  0  0  0
   27.3369  -20.3111  -12.2667 C   0  0  2  0  0  0  0  0  0  0  0  0
   26.4292  -21.2760  -13.0014 N   0  0  0  0  0  0  0  0  0  0  0  0
   26.7805  -21.3529  -14.3953 C   0  0  0  0  0  0  0  0  0  0  0  0
   25.0322  -20.7611  -12.9062 O   0  0  0  0  0  0  0  0  0  0  0  0
   24.6799  -19.7362  -13.5468 C   0  0  0  0  0  0  0  0  0  0  0  0
   26.1969  -19.2964  -10.2967 C   0  0  0  0  0  0  0  0  0  0  0  0
   25.9289  -19.2350   -8.9388 C   0  0  0  0  0  0  0  0  0  0  0  0
   17.6052  -21.8999  -13.5448 S   0  0  0  0  0  0  0  0  0  0  0  0
   19.2828  -22.5666  -13.3577 C   0  0  0  0  0  0  0  0  0  0  0  0
   20.3465  -21.2912  -12.5799 C   0  0  0  0  0  0  0  0  0  0  0  0
   21.7538  -21.7888  -12.6413 C   0  0  1  0  0  0  0  0  0  0  0  0
   22.7368  -20.8357  -12.0021 N   0  0  0  0  0  0  0  0  0  0  0  0
   24.0588  -21.3995  -12.0986 C   0  0  0  0  0  0  0  0  0  0  0  0
   22.3914  -20.4890  -10.6004 O   0  0  0  0  0  0  0  0  0  0  0  0
   22.8706  -21.0461   -9.5910 O   0  0  0  0  0  0  0  0  0  0  0  0
  1  2  1  0
  2  3  2  0
  2  4  1  0
  4  5  1  0
  5  6  1  0
  7  8  1  0
  7  6  1  0
  8  9  1  6
  8 10  1  0
 10 11  2  0
 12 13  1  0
 13 23  2  0
 13 14  1  0
 14 15  2  0
 15 16  1  0
 16 17  1  0
 18 17  1  1
 18 20  1  0
 19 10  1  0
 19 18  1  0
 20 29  1  0
 21 20  2  0
 22 16  2  0
 23 22  1  0
 25 24  1  0
 26 25  1  0
 27 26  1  0
 28 30  1  0
 28 27  1  6
 29 28  1  0
 30 32  1  0
 31 30  2  0
M  END
$$$$
