FGD.pdb
     RDKit          3D

 24 24  0  0  1  0  0  0  0  0999 V2000
    5.9415  -15.6819   24.0132 N   0  0  0  0  0  0  0  0  0  0  0  0
    7.3291  -15.3929   23.7661 C   0  0  1  0  0  0  0  0  0  0  0  0
    8.0187  -15.0132   25.0559 C   0  0  0  0  0  0  0  0  0  0  0  0
    7.4565  -13.7703   25.5884 C   0  0  0  0  0  0  0  0  0  0  0  0
    6.3681  -13.8127   26.4389 C   0  0  0  0  0  0  0  0  0  0  0  0
    5.8314  -12.6388   26.9462 C   0  0  0  0  0  0  0  0  0  0  0  0
    6.4098  -11.4296   26.5816 C   0  0  0  0  0  0  0  0  0  0  0  0
    7.4904  -11.4136   25.7352 C   0  0  0  0  0  0  0  0  0  0  0  0
    8.0390  -12.5697   25.2198 C   0  0  0  0  0  0  0  0  0  0  0  0
    8.0270  -16.5216   23.0967 C   0  0  0  0  0  0  0  0  0  0  0  0
    7.4731  -17.0378   22.0977 O   0  0  0  0  0  0  0  0  0  0  0  0
    9.2673  -17.0343   23.5253 N   0  0  0  0  0  0  0  0  0  0  0  0
   10.4144  -17.2352   22.7089 C   0  0  0  0  0  0  0  0  0  0  0  0
   11.6801  -16.6991   23.2194 C   0  0  0  0  0  0  0  0  0  0  0  0
   11.6398  -15.5318   23.7407 O   0  0  0  0  0  0  0  0  0  0  0  0
   12.9405  -17.3240   23.2038 N   0  0  0  0  0  0  0  0  0  0  0  0
   14.1615  -16.7344   23.7145 C   0  0  1  0  0  0  0  0  0  0  0  0
   15.1617  -17.7635   24.1811 C   0  0  0  0  0  0  0  0  0  0  0  0
   14.7395  -18.4203   25.4382 C   0  0  0  0  0  0  0  0  0  0  0  0
   14.0799  -17.7614   26.2755 O   0  0  0  0  0  0  0  0  0  0  0  0
   14.7433  -15.8828   22.6508 C   0  0  0  0  0  0  0  0  0  0  0  0
   14.2192  -15.9329   21.3759 O   0  0  0  0  0  0  0  0  0  0  0  0
   15.0515  -19.7236   25.7050 O   0  0  0  0  0  0  0  0  0  0  0  0
   15.7051  -15.1129   22.8795 O   0  0  0  0  0  0  0  0  0  0  0  0
  2  1  1  1
  3  2  1  0
  4  9  2  0
  4  3  1  0
  5  4  1  0
  6  7  1  0
  6  5  2  0
  7  8  2  0
  8  9  1  0
 10  2  1  0
 10 12  1  0
 11 10  2  0
 13 12  1  0
 13 14  1  0
 14 16  1  0
 15 14  2  0
 16 17  1  0
 17 21  1  0
 17 18  1  6
 19 18  1  0
 20 19  2  0
 21 24  2  0
 21 22  1  0
 23 19  1  0
M  END
$$$$
