FGD.pdb
     RDKit          3D

 24 24  0  0  1  0  0  0  0  0999 V2000
    6.6538  -16.1046   25.4571 N   0  0  0  0  0  0  0  0  0  0  0  0
    7.6284  -15.5510   24.5551 C   0  0  1  0  0  0  0  0  0  0  0  0
    8.4755  -14.5247   25.2711 C   0  0  0  0  0  0  0  0  0  0  0  0
    7.6789  -13.3377   25.5890 C   0  0  0  0  0  0  0  0  0  0  0  0
    7.5809  -12.3060   24.6748 C   0  0  0  0  0  0  0  0  0  0  0  0
    6.8278  -11.1794   24.9704 C   0  0  0  0  0  0  0  0  0  0  0  0
    6.1801  -11.1142   26.1975 C   0  0  0  0  0  0  0  0  0  0  0  0
    6.2927  -12.1521   27.0889 C   0  0  0  0  0  0  0  0  0  0  0  0
    7.0366  -13.2809   26.8141 C   0  0  0  0  0  0  0  0  0  0  0  0
    8.4734  -16.6009   23.9283 C   0  0  0  0  0  0  0  0  0  0  0  0
    8.6803  -17.6492   24.5836 O   0  0  0  0  0  0  0  0  0  0  0  0
    9.0470  -16.4770   22.6475 N   0  0  0  0  0  0  0  0  0  0  0  0
    9.9184  -17.4155   22.0289 C   0  0  0  0  0  0  0  0  0  0  0  0
   11.2308  -17.5987   22.6567 C   0  0  0  0  0  0  0  0  0  0  0  0
   12.0068  -18.4632   22.1216 O   0  0  0  0  0  0  0  0  0  0  0  0
   11.7390  -16.9288   23.7847 N   0  0  0  0  0  0  0  0  0  0  0  0
   12.9533  -17.2944   24.4854 C   0  0  1  0  0  0  0  0  0  0  0  0
   13.9428  -16.1590   24.5800 C   0  0  0  0  0  0  0  0  0  0  0  0
   14.5061  -15.7999   23.2596 C   0  0  0  0  0  0  0  0  0  0  0  0
   14.3922  -14.6206   22.8514 O   0  0  0  0  0  0  0  0  0  0  0  0
   12.5800  -17.7781   25.8352 C   0  0  0  0  0  0  0  0  0  0  0  0
   11.2606  -17.7309   26.2343 O   0  0  0  0  0  0  0  0  0  0  0  0
   15.1448  -16.7217   22.4789 O   0  0  0  0  0  0  0  0  0  0  0  0
   13.4363  -18.2321   26.6294 O   0  0  0  0  0  0  0  0  0  0  0  0
  2  1  1  1
  3  2  1  0
  4  9  2  0
  4  3  1  0
  5  4  1  0
  6  7  1  0
  6  5  2  0
  7  8  2  0
  8  9  1  0
 10  2  1  0
 10 12  1  0
 11 10  2  0
 13 12  1  0
 13 14  1  0
 14 16  1  0
 15 14  2  0
 16 17  1  0
 17 21  1  0
 17 18  1  1
 19 18  1  0
 20 19  2  0
 21 24  2  0
 21 22  1  0
 23 19  1  0
M  END
$$$$
