FGD.pdb
     RDKit          3D

 24 24  0  0  1  0  0  0  0  0999 V2000
    8.4661  -16.4784   26.2735 N   0  0  0  0  0  0  0  0  0  0  0  0
    7.2728  -16.4759   25.4698 C   0  0  1  0  0  0  0  0  0  0  0  0
    6.1809  -15.6943   26.1627 C   0  0  0  0  0  0  0  0  0  0  0  0
    6.6082  -14.3121   26.3896 C   0  0  0  0  0  0  0  0  0  0  0  0
    7.5456  -14.0297   27.3650 C   0  0  0  0  0  0  0  0  0  0  0  0
    7.9540  -12.7226   27.5842 C   0  0  0  0  0  0  0  0  0  0  0  0
    7.4025  -11.7128   26.8060 C   0  0  0  0  0  0  0  0  0  0  0  0
    6.4730  -12.0186   25.8432 C   0  0  0  0  0  0  0  0  0  0  0  0
    6.0535  -13.3119   25.6095 C   0  0  0  0  0  0  0  0  0  0  0  0
    7.5195  -15.9541   24.1002 C   0  0  0  0  0  0  0  0  0  0  0  0
    6.7211  -16.2939   23.1955 O   0  0  0  0  0  0  0  0  0  0  0  0
    8.5951  -15.1053   23.7722 N   0  0  0  0  0  0  0  0  0  0  0  0
    9.1127  -14.8803   22.4668 C   0  0  0  0  0  0  0  0  0  0  0  0
   10.1737  -15.7887   22.0206 C   0  0  0  0  0  0  0  0  0  0  0  0
   10.6241  -15.6072   20.8373 O   0  0  0  0  0  0  0  0  0  0  0  0
   10.7584  -16.8417   22.7478 N   0  0  0  0  0  0  0  0  0  0  0  0
   12.1774  -16.9799   23.0055 C   0  0  1  0  0  0  0  0  0  0  0  0
   12.8536  -15.6629   23.2979 C   0  0  0  0  0  0  0  0  0  0  0  0
   14.3091  -15.7142   23.0362 C   0  0  0  0  0  0  0  0  0  0  0  0
   15.0625  -14.9129   23.6366 O   0  0  0  0  0  0  0  0  0  0  0  0
   12.3520  -17.9212   24.1363 C   0  0  0  0  0  0  0  0  0  0  0  0
   11.6157  -17.7442   25.2891 O   0  0  0  0  0  0  0  0  0  0  0  0
   14.8476  -16.6121   22.1581 O   0  0  0  0  0  0  0  0  0  0  0  0
   13.1560  -18.8803   24.0734 O   0  0  0  0  0  0  0  0  0  0  0  0
  2  1  1  1
  3  2  1  0
  4  9  2  0
  4  3  1  0
  5  4  1  0
  6  7  1  0
  6  5  2  0
  7  8  2  0
  8  9  1  0
 10  2  1  0
 10 12  1  0
 11 10  2  0
 13 12  1  0
 13 14  1  0
 14 16  1  0
 15 14  2  0
 16 17  1  0
 17 21  1  0
 17 18  1  1
 19 18  1  0
 20 19  2  0
 21 24  2  0
 21 22  1  0
 23 19  1  0
M  END
$$$$
