FGD.pdb
     RDKit          3D

 24 24  0  0  1  0  0  0  0  0999 V2000
    9.0553  -14.9045   24.9787 N   0  0  0  0  0  0  0  0  0  0  0  0
    7.9480  -14.7433   24.0743 C   0  0  1  0  0  0  0  0  0  0  0  0
    7.6136  -13.2780   23.9178 C   0  0  0  0  0  0  0  0  0  0  0  0
    7.2670  -12.6924   25.2145 C   0  0  0  0  0  0  0  0  0  0  0  0
    7.9440  -11.5782   25.6728 C   0  0  0  0  0  0  0  0  0  0  0  0
    7.6200  -11.0194   26.9001 C   0  0  0  0  0  0  0  0  0  0  0  0
    6.6070  -11.6020   27.6510 C   0  0  0  0  0  0  0  0  0  0  0  0
    5.9492  -12.7085   27.1741 C   0  0  0  0  0  0  0  0  0  0  0  0
    6.2562  -13.2795   25.9564 C   0  0  0  0  0  0  0  0  0  0  0  0
    8.2033  -15.3791   22.7554 C   0  0  0  0  0  0  0  0  0  0  0  0
    7.2867  -16.0742   22.2574 O   0  0  0  0  0  0  0  0  0  0  0  0
    9.4119  -15.2404   22.0449 N   0  0  0  0  0  0  0  0  0  0  0  0
   10.0750  -16.2670   21.3175 C   0  0  0  0  0  0  0  0  0  0  0  0
   11.1581  -16.9660   22.0163 C   0  0  0  0  0  0  0  0  0  0  0  0
   11.6877  -17.9579   21.4068 O   0  0  0  0  0  0  0  0  0  0  0  0
   11.6865  -16.6693   23.2860 N   0  0  0  0  0  0  0  0  0  0  0  0
   12.6509  -17.4885   23.9917 C   0  0  1  0  0  0  0  0  0  0  0  0
   13.9093  -16.7376   24.3522 C   0  0  0  0  0  0  0  0  0  0  0  0
   14.6366  -16.2625   23.1543 C   0  0  0  0  0  0  0  0  0  0  0  0
   14.9187  -17.0830   22.2502 O   0  0  0  0  0  0  0  0  0  0  0  0
   11.9970  -18.0291   25.2064 C   0  0  0  0  0  0  0  0  0  0  0  0
   11.1698  -17.2162   25.9530 O   0  0  0  0  0  0  0  0  0  0  0  0
   15.0059  -14.9545   23.0127 O   0  0  0  0  0  0  0  0  0  0  0  0
   12.1763  -19.2128   25.5763 O   0  0  0  0  0  0  0  0  0  0  0  0
  2  1  1  1
  3  2  1  0
  4  9  2  0
  4  3  1  0
  5  4  1  0
  6  7  1  0
  6  5  2  0
  7  8  2  0
  8  9  1  0
 10  2  1  0
 10 12  1  0
 11 10  2  0
 13 12  1  0
 13 14  1  0
 14 16  1  0
 15 14  2  0
 16 17  1  0
 17 21  1  0
 17 18  1  1
 19 18  1  0
 20 19  2  0
 21 24  2  0
 21 22  1  0
 23 19  1  0
M  END
$$$$
