FGD.pdb
     RDKit          3D

 24 24  0  0  1  0  0  0  0  0999 V2000
    6.7562  -16.0805   25.7420 N   0  0  0  0  0  0  0  0  0  0  0  0
    7.4306  -15.5261   24.5985 C   0  0  1  0  0  0  0  0  0  0  0  0
    8.3333  -14.3923   25.0264 C   0  0  0  0  0  0  0  0  0  0  0  0
    7.5672  -13.3758   25.7507 C   0  0  0  0  0  0  0  0  0  0  0  0
    8.2191  -12.3110   26.3430 C   0  0  0  0  0  0  0  0  0  0  0  0
    7.4989  -11.3453   27.0303 C   0  0  0  0  0  0  0  0  0  0  0  0
    6.1179  -11.4737   27.1079 C   0  0  0  0  0  0  0  0  0  0  0  0
    5.4934  -12.5406   26.5112 C   0  0  0  0  0  0  0  0  0  0  0  0
    6.1914  -13.5115   25.8232 C   0  0  0  0  0  0  0  0  0  0  0  0
    8.1864  -16.5559   23.8387 C   0  0  0  0  0  0  0  0  0  0  0  0
    8.5814  -17.5676   24.4646 O   0  0  0  0  0  0  0  0  0  0  0  0
    8.4775  -16.4521   22.4642 N   0  0  0  0  0  0  0  0  0  0  0  0
    9.7185  -16.0432   21.9024 C   0  0  0  0  0  0  0  0  0  0  0  0
   10.9252  -16.6413   22.4821 C   0  0  0  0  0  0  0  0  0  0  0  0
   11.8421  -16.9921   21.6623 O   0  0  0  0  0  0  0  0  0  0  0  0
   11.1938  -16.8736   23.8435 N   0  0  0  0  0  0  0  0  0  0  0  0
   12.5057  -17.1537   24.3909 C   0  0  1  0  0  0  0  0  0  0  0  0
   13.4215  -15.9546   24.3675 C   0  0  0  0  0  0  0  0  0  0  0  0
   14.5496  -16.1339   23.4267 C   0  0  0  0  0  0  0  0  0  0  0  0
   15.1053  -17.2544   23.3517 O   0  0  0  0  0  0  0  0  0  0  0  0
   12.3317  -17.6534   25.7749 C   0  0  0  0  0  0  0  0  0  0  0  0
   13.2994  -18.4625   26.3330 O   0  0  0  0  0  0  0  0  0  0  0  0
   14.9967  -15.1089   22.6413 O   0  0  0  0  0  0  0  0  0  0  0  0
   11.3225  -17.3589   26.4567 O   0  0  0  0  0  0  0  0  0  0  0  0
  2  1  1  1
  3  2  1  0
  4  9  2  0
  4  3  1  0
  5  4  1  0
  6  7  1  0
  6  5  2  0
  7  8  2  0
  8  9  1  0
 10  2  1  0
 10 12  1  0
 11 10  2  0
 13 12  1  0
 13 14  1  0
 14 16  1  0
 15 14  2  0
 16 17  1  0
 17 21  1  0
 17 18  1  1
 19 18  1  0
 20 19  2  0
 21 24  2  0
 21 22  1  0
 23 19  1  0
M  END
$$$$
