FGD.pdb
     RDKit          3D

 24 24  0  0  1  0  0  0  0  0999 V2000
    7.2758  -15.8298   25.3774 N   0  0  0  0  0  0  0  0  0  0  0  0
    7.6507  -14.9629   24.2921 C   0  0  1  0  0  0  0  0  0  0  0  0
    8.4513  -13.7926   24.8143 C   0  0  0  0  0  0  0  0  0  0  0  0
    7.6261  -12.9615   25.6935 C   0  0  0  0  0  0  0  0  0  0  0  0
    6.7830  -12.0092   25.1531 C   0  0  0  0  0  0  0  0  0  0  0  0
    5.9992  -11.2192   25.9808 C   0  0  0  0  0  0  0  0  0  0  0  0
    6.0816  -11.4072   27.3547 C   0  0  0  0  0  0  0  0  0  0  0  0
    6.9267  -12.3598   27.8673 C   0  0  0  0  0  0  0  0  0  0  0  0
    7.7144  -13.1555   27.0614 C   0  0  0  0  0  0  0  0  0  0  0  0
    8.3913  -15.6865   23.2258 C   0  0  0  0  0  0  0  0  0  0  0  0
    8.7460  -15.0322   22.2172 O   0  0  0  0  0  0  0  0  0  0  0  0
    8.7109  -17.0570   23.2923 N   0  0  0  0  0  0  0  0  0  0  0  0
    9.3374  -17.8186   22.2676 C   0  0  0  0  0  0  0  0  0  0  0  0
   10.8029  -17.7838   22.2328 C   0  0  0  0  0  0  0  0  0  0  0  0
   11.3732  -18.5146   21.3515 O   0  0  0  0  0  0  0  0  0  0  0  0
   11.6593  -17.0342   23.0599 N   0  0  0  0  0  0  0  0  0  0  0  0
   13.1039  -17.1441   23.0694 C   0  0  1  0  0  0  0  0  0  0  0  0
   13.7945  -15.8599   22.6807 C   0  0  0  0  0  0  0  0  0  0  0  0
   15.2683  -15.9848   22.7250 C   0  0  0  0  0  0  0  0  0  0  0  0
   15.8190  -16.9073   22.0801 O   0  0  0  0  0  0  0  0  0  0  0  0
   13.5254  -17.5772   24.4222 C   0  0  0  0  0  0  0  0  0  0  0  0
   12.5921  -17.6497   25.4352 O   0  0  0  0  0  0  0  0  0  0  0  0
   16.0387  -15.1202   23.4503 O   0  0  0  0  0  0  0  0  0  0  0  0
   14.7149  -17.8814   24.6727 O   0  0  0  0  0  0  0  0  0  0  0  0
  2  1  1  1
  3  2  1  0
  4  9  2  0
  4  3  1  0
  5  4  1  0
  6  7  1  0
  6  5  2  0
  7  8  2  0
  8  9  1  0
 10  2  1  0
 10 12  1  0
 11 10  2  0
 13 12  1  0
 13 14  1  0
 14 16  1  0
 15 14  2  0
 16 17  1  0
 17 21  1  0
 17 18  1  1
 19 18  1  0
 20 19  2  0
 21 24  2  0
 21 22  1  0
 23 19  1  0
M  END
$$$$
