FGD.pdb
     RDKit          3D

 24 24  0  0  1  0  0  0  0  0999 V2000
    6.3869  -16.5276   25.3315 N   0  0  0  0  0  0  0  0  0  0  0  0
    7.4223  -15.7277   24.7333 C   0  0  1  0  0  0  0  0  0  0  0  0
    8.0270  -14.8040   25.7650 C   0  0  0  0  0  0  0  0  0  0  0  0
    7.1539  -13.6503   25.9913 C   0  0  0  0  0  0  0  0  0  0  0  0
    7.3728  -12.4723   25.3027 C   0  0  0  0  0  0  0  0  0  0  0  0
    6.5491  -11.3764   25.5129 C   0  0  0  0  0  0  0  0  0  0  0  0
    5.5075  -11.4911   26.4247 C   0  0  0  0  0  0  0  0  0  0  0  0
    5.3104  -12.6720   27.0964 C   0  0  0  0  0  0  0  0  0  0  0  0
    6.1182  -13.7732   26.9017 C   0  0  0  0  0  0  0  0  0  0  0  0
    8.4667  -16.5588   24.0795 C   0  0  0  0  0  0  0  0  0  0  0  0
    8.8488  -17.5910   24.6794 O   0  0  0  0  0  0  0  0  0  0  0  0
    9.0422  -16.2468   22.8320 N   0  0  0  0  0  0  0  0  0  0  0  0
   10.3320  -15.6843   22.6251 C   0  0  0  0  0  0  0  0  0  0  0  0
   11.4717  -16.4727   23.1040 C   0  0  0  0  0  0  0  0  0  0  0  0
   11.4024  -16.9109   24.3036 O   0  0  0  0  0  0  0  0  0  0  0  0
   12.6386  -16.8066   22.3923 N   0  0  0  0  0  0  0  0  0  0  0  0
   13.7836  -17.4913   22.9572 C   0  0  1  0  0  0  0  0  0  0  0  0
   14.7045  -18.0631   21.9073 C   0  0  0  0  0  0  0  0  0  0  0  0
   14.0081  -19.0172   21.0160 C   0  0  0  0  0  0  0  0  0  0  0  0
   14.0460  -18.8295   19.7777 O   0  0  0  0  0  0  0  0  0  0  0  0
   14.5096  -16.5369   23.8275 C   0  0  0  0  0  0  0  0  0  0  0  0
   15.3568  -17.0159   24.8049 O   0  0  0  0  0  0  0  0  0  0  0  0
   13.3277  -20.0938   21.5112 O   0  0  0  0  0  0  0  0  0  0  0  0
   14.3738  -15.2979   23.6988 O   0  0  0  0  0  0  0  0  0  0  0  0
  2  1  1  1
  3  2  1  0
  4  9  2  0
  4  3  1  0
  5  4  1  0
  6  7  1  0
  6  5  2  0
  7  8  2  0
  8  9  1  0
 10  2  1  0
 10 12  1  0
 11 10  2  0
 13 12  1  0
 13 14  1  0
 14 16  1  0
 15 14  2  0
 16 17  1  0
 17 21  1  0
 17 18  1  6
 19 18  1  0
 20 19  2  0
 21 24  2  0
 21 22  1  0
 23 19  1  0
M  END
$$$$
