FGD.pdb
     RDKit          3D

 24 24  0  0  1  0  0  0  0  0999 V2000
    6.6197  -15.6652   24.7637 N   0  0  0  0  0  0  0  0  0  0  0  0
    7.7050  -14.9355   24.1640 C   0  0  1  0  0  0  0  0  0  0  0  0
    8.4048  -14.0946   25.2064 C   0  0  0  0  0  0  0  0  0  0  0  0
    7.4676  -13.1438   25.8082 C   0  0  0  0  0  0  0  0  0  0  0  0
    7.2243  -11.9302   25.1937 C   0  0  0  0  0  0  0  0  0  0  0  0
    6.3378  -11.0258   25.7591 C   0  0  0  0  0  0  0  0  0  0  0  0
    5.7056  -11.3670   26.9481 C   0  0  0  0  0  0  0  0  0  0  0  0
    5.9639  -12.5787   27.5392 C   0  0  0  0  0  0  0  0  0  0  0  0
    6.8420  -13.4919   26.9932 C   0  0  0  0  0  0  0  0  0  0  0  0
    8.6638  -15.8299   23.4642 C   0  0  0  0  0  0  0  0  0  0  0  0
    9.5720  -15.2934   22.7871 O   0  0  0  0  0  0  0  0  0  0  0  0
    8.6027  -17.2362   23.5239 N   0  0  0  0  0  0  0  0  0  0  0  0
    9.4037  -18.1391   22.7717 C   0  0  0  0  0  0  0  0  0  0  0  0
   10.8000  -18.2810   23.1960 C   0  0  0  0  0  0  0  0  0  0  0  0
   11.4880  -19.1869   22.6113 O   0  0  0  0  0  0  0  0  0  0  0  0
   11.4752  -17.5307   24.1762 N   0  0  0  0  0  0  0  0  0  0  0  0
   12.7133  -17.9292   24.8146 C   0  0  1  0  0  0  0  0  0  0  0  0
   13.8206  -16.9202   24.6330 C   0  0  0  0  0  0  0  0  0  0  0  0
   14.2190  -16.7801   23.2147 C   0  0  0  0  0  0  0  0  0  0  0  0
   14.3496  -17.8121   22.5160 O   0  0  0  0  0  0  0  0  0  0  0  0
   12.4397  -18.1539   26.2533 C   0  0  0  0  0  0  0  0  0  0  0  0
   13.4549  -18.5896   27.0792 O   0  0  0  0  0  0  0  0  0  0  0  0
   14.4466  -15.5556   22.6525 O   0  0  0  0  0  0  0  0  0  0  0  0
   11.3034  -17.9575   26.7435 O   0  0  0  0  0  0  0  0  0  0  0  0
  2  1  1  1
  3  2  1  0
  4  9  2  0
  4  3  1  0
  5  4  1  0
  6  7  1  0
  6  5  2  0
  7  8  2  0
  8  9  1  0
 10  2  1  0
 10 12  1  0
 11 10  2  0
 13 12  1  0
 13 14  1  0
 14 16  1  0
 15 14  2  0
 16 17  1  0
 17 21  1  0
 17 18  1  1
 19 18  1  0
 20 19  2  0
 21 24  2  0
 21 22  1  0
 23 19  1  0
M  END
$$$$
