FGD.pdb
     RDKit          3D

 24 24  0  0  1  0  0  0  0  0999 V2000
    6.4521  -16.5199   25.4995 N   0  0  0  0  0  0  0  0  0  0  0  0
    6.9826  -15.4571   24.6878 C   0  0  1  0  0  0  0  0  0  0  0  0
    7.9293  -14.6050   25.5008 C   0  0  0  0  0  0  0  0  0  0  0  0
    7.2209  -13.4571   26.0710 C   0  0  0  0  0  0  0  0  0  0  0  0
    6.6497  -12.5141   25.2378 C   0  0  0  0  0  0  0  0  0  0  0  0
    5.9775  -11.4249   25.7722 C   0  0  0  0  0  0  0  0  0  0  0  0
    5.8933  -11.3062   27.1536 C   0  0  0  0  0  0  0  0  0  0  0  0
    6.4690  -12.2562   27.9602 C   0  0  0  0  0  0  0  0  0  0  0  0
    7.1417  -13.3466   27.4487 C   0  0  0  0  0  0  0  0  0  0  0  0
    7.6418  -15.9664   23.4569 C   0  0  0  0  0  0  0  0  0  0  0  0
    6.9165  -16.1945   22.4603 O   0  0  0  0  0  0  0  0  0  0  0  0
    9.0270  -16.2028   23.3562 N   0  0  0  0  0  0  0  0  0  0  0  0
    9.7158  -16.6460   22.1935 C   0  0  0  0  0  0  0  0  0  0  0  0
   11.1792  -16.6835   22.2772 C   0  0  0  0  0  0  0  0  0  0  0  0
   11.8012  -17.1262   21.2510 O   0  0  0  0  0  0  0  0  0  0  0  0
   11.9832  -16.2850   23.3607 N   0  0  0  0  0  0  0  0  0  0  0  0
   13.0337  -17.0900   23.9503 C   0  0  1  0  0  0  0  0  0  0  0  0
   14.2201  -16.2726   24.3992 C   0  0  0  0  0  0  0  0  0  0  0  0
   14.8563  -15.5509   23.2749 C   0  0  0  0  0  0  0  0  0  0  0  0
   15.8307  -14.7988   23.5100 O   0  0  0  0  0  0  0  0  0  0  0  0
   12.4554  -17.8430   25.0878 C   0  0  0  0  0  0  0  0  0  0  0  0
   11.1477  -17.6135   25.4614 O   0  0  0  0  0  0  0  0  0  0  0  0
   14.4069  -15.6857   21.9915 O   0  0  0  0  0  0  0  0  0  0  0  0
   13.1268  -18.6884   25.7240 O   0  0  0  0  0  0  0  0  0  0  0  0
  2  1  1  1
  3  2  1  0
  4  9  2  0
  4  3  1  0
  5  4  1  0
  6  7  1  0
  6  5  2  0
  7  8  2  0
  8  9  1  0
 10  2  1  0
 10 12  1  0
 11 10  2  0
 13 12  1  0
 13 14  1  0
 14 16  1  0
 15 14  2  0
 16 17  1  0
 17 21  1  0
 17 18  1  1
 19 18  1  0
 20 19  2  0
 21 24  2  0
 21 22  1  0
 23 19  1  0
M  END
$$$$
