FGD.pdb
     RDKit          3D

 24 24  0  0  1  0  0  0  0  0999 V2000
    9.1255  -14.5425   24.6236 N   0  0  0  0  0  0  0  0  0  0  0  0
    7.9230  -14.6949   23.8486 C   0  0  1  0  0  0  0  0  0  0  0  0
    7.2098  -13.3681   23.7293 C   0  0  0  0  0  0  0  0  0  0  0  0
    7.0497  -12.7544   25.0493 C   0  0  0  0  0  0  0  0  0  0  0  0
    6.0063  -13.1406   25.8691 C   0  0  0  0  0  0  0  0  0  0  0  0
    5.8498  -12.5628   27.1202 C   0  0  0  0  0  0  0  0  0  0  0  0
    6.7597  -11.5947   27.5255 C   0  0  0  0  0  0  0  0  0  0  0  0
    7.7878  -11.2280   26.6931 C   0  0  0  0  0  0  0  0  0  0  0  0
    7.9609  -11.7904   25.4453 C   0  0  0  0  0  0  0  0  0  0  0  0
    8.1886  -15.2834   22.5099 C   0  0  0  0  0  0  0  0  0  0  0  0
    7.2874  -15.9851   21.9936 O   0  0  0  0  0  0  0  0  0  0  0  0
    9.3908  -15.0933   21.8004 N   0  0  0  0  0  0  0  0  0  0  0  0
   10.0358  -16.0576   20.9776 C   0  0  0  0  0  0  0  0  0  0  0  0
   11.1740  -16.7653   21.5722 C   0  0  0  0  0  0  0  0  0  0  0  0
   11.6774  -17.7203   20.8862 O   0  0  0  0  0  0  0  0  0  0  0  0
   11.7812  -16.5132   22.8160 N   0  0  0  0  0  0  0  0  0  0  0  0
   13.0794  -17.0151   23.2187 C   0  0  1  0  0  0  0  0  0  0  0  0
   14.1215  -15.9294   23.3298 C   0  0  0  0  0  0  0  0  0  0  0  0
   15.4349  -16.4600   23.7580 C   0  0  0  0  0  0  0  0  0  0  0  0
   16.0608  -15.8692   24.6686 O   0  0  0  0  0  0  0  0  0  0  0  0
   12.9205  -17.7233   24.5103 C   0  0  0  0  0  0  0  0  0  0  0  0
   13.6736  -18.8503   24.7656 O   0  0  0  0  0  0  0  0  0  0  0  0
   15.9778  -17.5753   23.1848 O   0  0  0  0  0  0  0  0  0  0  0  0
   12.1151  -17.3235   25.3830 O   0  0  0  0  0  0  0  0  0  0  0  0
  2  1  1  6
  3  2  1  0
  4  9  2  0
  4  3  1  0
  5  4  1  0
  6  7  1  0
  6  5  2  0
  7  8  2  0
  8  9  1  0
 10  2  1  0
 10 12  1  0
 11 10  2  0
 13 12  1  0
 13 14  1  0
 14 16  1  0
 15 14  2  0
 16 17  1  0
 17 21  1  0
 17 18  1  1
 19 18  1  0
 20 19  2  0
 21 24  2  0
 21 22  1  0
 23 19  1  0
M  END
$$$$
