FGD.pdb
     RDKit          3D

 24 24  0  0  1  0  0  0  0  0999 V2000
    9.0940  -14.7911   25.2297 N   0  0  0  0  0  0  0  0  0  0  0  0
    8.0280  -15.0792   24.3075 C   0  0  1  0  0  0  0  0  0  0  0  0
    7.3317  -13.8009   23.9020 C   0  0  0  0  0  0  0  0  0  0  0  0
    6.9638  -13.0225   25.0866 C   0  0  0  0  0  0  0  0  0  0  0  0
    7.7362  -11.9430   25.4714 C   0  0  0  0  0  0  0  0  0  0  0  0
    7.3926  -11.2021   26.5924 C   0  0  0  0  0  0  0  0  0  0  0  0
    6.2627  -11.5685   27.3126 C   0  0  0  0  0  0  0  0  0  0  0  0
    5.5117  -12.6448   26.9101 C   0  0  0  0  0  0  0  0  0  0  0  0
    5.8363  -13.3945   25.7985 C   0  0  0  0  0  0  0  0  0  0  0  0
    8.5035  -15.8319   23.1173 C   0  0  0  0  0  0  0  0  0  0  0  0
    7.7279  -16.6803   22.6174 O   0  0  0  0  0  0  0  0  0  0  0  0
    9.7696  -15.6407   22.5297 N   0  0  0  0  0  0  0  0  0  0  0  0
   10.4612  -16.5781   21.7138 C   0  0  0  0  0  0  0  0  0  0  0  0
   11.8058  -16.9603   22.1562 C   0  0  0  0  0  0  0  0  0  0  0  0
   12.4756  -17.7146   21.3699 O   0  0  0  0  0  0  0  0  0  0  0  0
   12.4492  -16.5900   23.3514 N   0  0  0  0  0  0  0  0  0  0  0  0
   13.7628  -17.0460   23.7584 C   0  0  1  0  0  0  0  0  0  0  0  0
   14.7287  -15.9132   24.0053 C   0  0  0  0  0  0  0  0  0  0  0  0
   15.8105  -15.8740   22.9963 C   0  0  0  0  0  0  0  0  0  0  0  0
   16.7799  -16.6591   23.1148 O   0  0  0  0  0  0  0  0  0  0  0  0
   13.6070  -17.8767   24.9754 C   0  0  0  0  0  0  0  0  0  0  0  0
   12.9171  -17.3739   26.0587 O   0  0  0  0  0  0  0  0  0  0  0  0
   15.7758  -15.0044   21.9428 O   0  0  0  0  0  0  0  0  0  0  0  0
   14.0882  -19.0314   25.0475 O   0  0  0  0  0  0  0  0  0  0  0  0
  2  1  1  1
  3  2  1  0
  4  9  2  0
  4  3  1  0
  5  4  1  0
  6  7  1  0
  6  5  2  0
  7  8  2  0
  8  9  1  0
 10  2  1  0
 10 12  1  0
 11 10  2  0
 13 12  1  0
 13 14  1  0
 14 16  1  0
 15 14  2  0
 16 17  1  0
 17 21  1  0
 17 18  1  1
 19 18  1  0
 20 19  2  0
 21 24  2  0
 21 22  1  0
 23 19  1  0
M  END
$$$$
