KLV.pdb
     RDKit          3D

 25 24  0  0  1  0  0  0  0  0999 V2000
   19.5036  -11.8861  -19.5279 N   0  0  0  0  0  0  0  0  0  0  0  0
   19.1245  -12.3439  -18.2081 C   0  0  1  0  0  0  0  0  0  0  0  0
   19.8391  -13.6726  -17.9395 C   0  0  0  0  0  0  0  0  0  0  0  0
   21.2264  -13.5348  -18.4698 C   0  0  0  0  0  0  0  0  0  0  0  0
   22.0903  -14.7422  -18.2468 C   0  0  0  0  0  0  0  0  0  0  0  0
   23.4939  -14.5783  -18.7265 C   0  0  0  0  0  0  0  0  0  0  0  0
   24.2549  -15.7782  -18.3889 N   0  0  0  0  0  0  0  0  0  0  0  0
   19.5424  -11.3176  -17.2287 C   0  0  0  0  0  0  0  0  0  0  0  0
   19.2662  -11.4103  -15.9958 O   0  0  0  0  0  0  0  0  0  0  0  0
   22.2358   -9.8985  -14.0928 C   0  0  0  0  0  0  0  0  0  0  0  0
   22.6735  -10.4629  -15.4536 C   0  0  2  0  0  0  0  0  0  0  0  0
   24.1332  -10.7641  -15.3254 C   0  0  0  0  0  0  0  0  0  0  0  0
   22.3021   -9.4468  -16.4695 C   0  0  0  0  0  0  0  0  0  0  0  0
   20.8435   -9.2312  -16.6915 C   0  0  2  0  0  0  0  0  0  0  0  0
   20.2735  -10.1804  -17.6289 N   0  0  0  0  0  0  0  0  0  0  0  0
   20.5383   -7.8245  -17.0326 C   0  0  0  0  0  0  0  0  0  0  0  0
   20.9486   -7.3236  -18.1334 O   0  0  0  0  0  0  0  0  0  0  0  0
   17.2312   -6.2678  -17.4661 C   0  0  0  0  0  0  0  0  0  0  0  0
   17.9943   -5.3530  -16.5557 C   0  0  2  0  0  0  0  0  0  0  0  0
   17.6950   -3.9044  -16.8438 C   0  0  0  0  0  0  0  0  0  0  0  0
   19.4942   -5.6072  -16.6150 C   0  0  2  0  0  0  0  0  0  0  0  0
   19.7945   -6.9621  -16.1973 N   0  0  0  0  0  0  0  0  0  0  0  0
   20.1117   -4.6415  -15.6906 C   0  0  0  0  0  0  0  0  0  0  0  0
   20.4775   -3.3777  -16.0816 O   0  0  0  0  0  0  0  0  0  0  0  0
   20.3234   -4.9636  -14.4899 O   0  0  0  0  0  0  0  0  0  0  0  0
  2  3  1  0
  2  1  1  6
  4  3  1  0
  4  5  1  0
  6  5  1  0
  6  7  1  0
  8  2  1  0
  9  8  2  0
 11 10  1  1
 11 13  1  0
 12 11  1  0
 14 13  1  6
 14 15  1  0
 15  8  1  0
 16 14  1  0
 16 17  2  0
 19 18  1  6
 19 21  1  0
 20 19  1  0
 21 22  1  1
 22 16  1  0
 23 21  1  0
 24 23  1  0
 25 23  2  0
M  END
$$$$
