KLV.pdb
     RDKit          3D

 25 24  0  0  1  0  0  0  0  0999 V2000
   28.3173  -19.3911  -13.0090 N   0  0  0  0  0  0  0  0  0  0  0  0
   27.8100  -20.7294  -13.2251 C   0  0  1  0  0  0  0  0  0  0  0  0
   28.9879  -21.6304  -13.6112 C   0  0  0  0  0  0  0  0  0  0  0  0
   29.4860  -21.1519  -14.9332 C   0  0  0  0  0  0  0  0  0  0  0  0
   28.8741  -21.8557  -16.1097 C   0  0  0  0  0  0  0  0  0  0  0  0
   29.4482  -21.4459  -17.4249 C   0  0  0  0  0  0  0  0  0  0  0  0
   28.9303  -20.1272  -17.7794 N   0  0  0  0  0  0  0  0  0  0  0  0
   27.1870  -21.1930  -11.9665 C   0  0  0  0  0  0  0  0  0  0  0  0
   26.7063  -22.3584  -11.8416 O   0  0  0  0  0  0  0  0  0  0  0  0
   28.1090  -21.2989   -7.6321 C   0  0  0  0  0  0  0  0  0  0  0  0
   27.8629  -19.8739   -8.1522 C   0  0  2  0  0  0  0  0  0  0  0  0
   28.2844  -18.9538   -7.0505 C   0  0  0  0  0  0  0  0  0  0  0  0
   26.4334  -19.8109   -8.5459 C   0  0  0  0  0  0  0  0  0  0  0  0
   26.0676  -20.4764   -9.8291 C   0  0  2  0  0  0  0  0  0  0  0  0
   27.1005  -20.3494  -10.8400 N   0  0  0  0  0  0  0  0  0  0  0  0
   24.7325  -20.0570  -10.3084 C   0  0  0  0  0  0  0  0  0  0  0  0
   24.4589  -18.8181  -10.4547 O   0  0  0  0  0  0  0  0  0  0  0  0
   22.4284  -22.4796  -12.7530 C   0  0  0  0  0  0  0  0  0  0  0  0
   22.3430  -20.9856  -12.6608 C   0  0  2  0  0  0  0  0  0  0  0  0
   23.3709  -20.3141  -13.5345 C   0  0  0  0  0  0  0  0  0  0  0  0
   22.4631  -20.4930  -11.2252 C   0  0  2  0  0  0  0  0  0  0  0  0
   23.6983  -20.9633  -10.6308 N   0  0  0  0  0  0  0  0  0  0  0  0
   21.3070  -21.0487  -10.5019 C   0  0  0  0  0  0  0  0  0  0  0  0
   21.4365  -22.0217   -9.5425 O   0  0  0  0  0  0  0  0  0  0  0  0
   20.1440  -20.6324  -10.7556 O   0  0  0  0  0  0  0  0  0  0  0  0
  2  3  1  0
  2  1  1  1
  4  3  1  0
  4  5  1  0
  6  5  1  0
  6  7  1  0
  8  2  1  0
  9  8  2  0
 11 10  1  1
 11 13  1  0
 12 11  1  0
 14 13  1  1
 14 15  1  0
 15  8  1  0
 16 14  1  0
 16 17  2  0
 19 18  1  1
 19 21  1  0
 20 19  1  0
 21 22  1  1
 22 16  1  0
 23 21  1  0
 24 23  1  0
 25 23  2  0
M  END
$$$$
