KLV.pdb
     RDKit          3D

 25 24  0  0  1  0  0  0  0  0999 V2000
   26.7834  -20.7083  -18.0962 N   0  0  0  0  0  0  0  0  0  0  0  0
   26.7787  -19.6915  -17.0660 C   0  0  1  0  0  0  0  0  0  0  0  0
   25.5632  -18.7864  -17.2935 C   0  0  0  0  0  0  0  0  0  0  0  0
   25.8561  -17.9607  -18.5006 C   0  0  0  0  0  0  0  0  0  0  0  0
   26.2520  -16.5455  -18.1935 C   0  0  0  0  0  0  0  0  0  0  0  0
   26.4635  -15.7003  -19.4052 C   0  0  0  0  0  0  0  0  0  0  0  0
   26.9067  -14.3730  -18.9875 N   0  0  0  0  0  0  0  0  0  0  0  0
   26.6892  -20.3680  -15.7539 C   0  0  0  0  0  0  0  0  0  0  0  0
   25.9361  -21.3683  -15.5612 O   0  0  0  0  0  0  0  0  0  0  0  0
   29.8889  -22.1240  -12.9773 C   0  0  0  0  0  0  0  0  0  0  0  0
   29.8355  -20.5883  -13.0039 C   0  0  2  0  0  0  0  0  0  0  0  0
   31.0258  -20.1204  -12.2277 C   0  0  0  0  0  0  0  0  0  0  0  0
   28.5087  -20.2041  -12.4614 C   0  0  0  0  0  0  0  0  0  0  0  0
   27.3279  -20.4987  -13.3229 C   0  0  2  0  0  0  0  0  0  0  0  0
   27.4457  -19.9243  -14.6499 N   0  0  0  0  0  0  0  0  0  0  0  0
   26.0550  -20.1541  -12.6527 C   0  0  0  0  0  0  0  0  0  0  0  0
   25.6720  -18.9380  -12.5806 O   0  0  0  0  0  0  0  0  0  0  0  0
   22.6206  -21.1355  -13.3556 C   0  0  0  0  0  0  0  0  0  0  0  0
   22.7771  -21.3689  -11.8828 C   0  0  2  0  0  0  0  0  0  0  0  0
   21.5555  -20.9309  -11.1169 C   0  0  0  0  0  0  0  0  0  0  0  0
   24.0232  -20.6943  -11.3258 C   0  0  2  0  0  0  0  0  0  0  0  0
   25.1975  -21.1108  -12.0659 N   0  0  0  0  0  0  0  0  0  0  0  0
   24.1293  -21.1226   -9.9209 C   0  0  0  0  0  0  0  0  0  0  0  0
   25.0080  -22.0942   -9.5112 O   0  0  0  0  0  0  0  0  0  0  0  0
   23.3960  -20.5929   -9.0423 O   0  0  0  0  0  0  0  0  0  0  0  0
  2  3  1  0
  2  1  1  6
  4  3  1  0
  4  5  1  0
  6  5  1  0
  6  7  1  0
  8  2  1  0
  9  8  2  0
 11 10  1  1
 11 13  1  0
 12 11  1  0
 14 13  1  1
 14 15  1  0
 15  8  1  0
 16 14  1  0
 16 17  2  0
 19 18  1  6
 19 21  1  0
 20 19  1  0
 21 22  1  6
 22 16  1  0
 23 21  1  0
 24 23  1  0
 25 23  2  0
M  END
$$$$
