KLV.pdb
     RDKit          3D

 25 24  0  0  1  0  0  0  0  0999 V2000
   27.3314  -21.3474  -16.0363 N   0  0  0  0  0  0  0  0  0  0  0  0
   26.2882  -20.3596  -15.8598 C   0  0  1  0  0  0  0  0  0  0  0  0
   25.7117  -20.0218  -17.2389 C   0  0  0  0  0  0  0  0  0  0  0  0
   26.4857  -18.8582  -17.7602 C   0  0  0  0  0  0  0  0  0  0  0  0
   27.8816  -19.1969  -18.1968 C   0  0  0  0  0  0  0  0  0  0  0  0
   28.6696  -18.0207  -18.6686 C   0  0  0  0  0  0  0  0  0  0  0  0
   29.9824  -18.4771  -19.1172 N   0  0  0  0  0  0  0  0  0  0  0  0
   25.2472  -20.9426  -14.9859 C   0  0  0  0  0  0  0  0  0  0  0  0
   24.6346  -22.0099  -15.2868 O   0  0  0  0  0  0  0  0  0  0  0  0
   25.7390  -22.3054  -10.8849 C   0  0  0  0  0  0  0  0  0  0  0  0
   25.5626  -20.7796  -10.9388 C   0  0  2  0  0  0  0  0  0  0  0  0
   25.8707  -20.2796   -9.5628 C   0  0  0  0  0  0  0  0  0  0  0  0
   24.1846  -20.5327  -11.4311 C   0  0  0  0  0  0  0  0  0  0  0  0
   23.9126  -20.8909  -12.8526 C   0  0  2  0  0  0  0  0  0  0  0  0
   24.8881  -20.3296  -13.7680 N   0  0  0  0  0  0  0  0  0  0  0  0
   22.5160  -20.5944  -13.2399 C   0  0  0  0  0  0  0  0  0  0  0  0
   22.1382  -19.3877  -13.4191 O   0  0  0  0  0  0  0  0  0  0  0  0
   18.3469  -21.8190  -15.4527 C   0  0  0  0  0  0  0  0  0  0  0  0
   19.7293  -22.1565  -14.9805 C   0  0  2  0  0  0  0  0  0  0  0  0
   19.8332  -23.5955  -14.5455 C   0  0  0  0  0  0  0  0  0  0  0  0
   20.1955  -21.2298  -13.8661 C   0  0  2  0  0  0  0  0  0  0  0  0
   21.5321  -21.5885  -13.4360 N   0  0  0  0  0  0  0  0  0  0  0  0
   19.2407  -21.4058  -12.7589 C   0  0  0  0  0  0  0  0  0  0  0  0
   18.0881  -20.6677  -12.6557 O   0  0  0  0  0  0  0  0  0  0  0  0
   19.4680  -22.2594  -11.8589 O   0  0  0  0  0  0  0  0  0  0  0  0
  2  3  1  0
  2  1  1  6
  4  3  1  0
  4  5  1  0
  6  5  1  0
  6  7  1  0
  8  2  1  0
  9  8  2  0
 11 10  1  1
 11 13  1  0
 12 11  1  0
 14 13  1  1
 14 15  1  0
 15  8  1  0
 16 14  1  0
 16 17  2  0
 19 18  1  1
 19 21  1  0
 20 19  1  0
 21 22  1  1
 22 16  1  0
 23 21  1  0
 24 23  1  0
 25 23  2  0
M  END
$$$$
