KLV.pdb
     RDKit          3D

 25 24  0  0  1  0  0  0  0  0999 V2000
   24.6260  -19.8720  -12.4520 N   0  0  0  0  0  0  0  0  0  0  0  0
   23.8310  -20.2607  -11.3066 C   0  0  1  0  0  0  0  0  0  0  0  0
   22.8163  -21.3139  -11.7644 C   0  0  0  0  0  0  0  0  0  0  0  0
   21.9962  -20.6878  -12.8415 C   0  0  0  0  0  0  0  0  0  0  0  0
   20.5329  -20.5917  -12.5198 C   0  0  0  0  0  0  0  0  0  0  0  0
   19.7011  -20.0624  -13.6401 C   0  0  0  0  0  0  0  0  0  0  0  0
   18.2960  -20.0889  -13.2426 N   0  0  0  0  0  0  0  0  0  0  0  0
   24.7416  -20.8207  -10.2846 C   0  0  0  0  0  0  0  0  0  0  0  0
   24.3142  -21.4685   -9.2833 O   0  0  0  0  0  0  0  0  0  0  0  0
   27.9413  -21.2872  -12.3143 C   0  0  0  0  0  0  0  0  0  0  0  0
   28.8172  -20.7652  -11.1644 C   0  0  2  0  0  0  0  0  0  0  0  0
   30.2340  -20.9678  -11.5999 C   0  0  0  0  0  0  0  0  0  0  0  0
   28.3955  -21.5015   -9.9469 C   0  0  0  0  0  0  0  0  0  0  0  0
   27.0674  -21.1363   -9.3760 C   0  0  2  0  0  0  0  0  0  0  0  0
   26.1385  -20.6561  -10.3816 N   0  0  0  0  0  0  0  0  0  0  0  0
   27.1951  -20.2216   -8.2205 C   0  0  0  0  0  0  0  0  0  0  0  0
   26.8063  -19.0085   -8.3114 O   0  0  0  0  0  0  0  0  0  0  0  0
   26.2794  -20.9157   -4.4150 C   0  0  0  0  0  0  0  0  0  0  0  0
   27.6556  -20.3362   -4.5495 C   0  0  2  0  0  0  0  0  0  0  0  0
   27.9729  -19.3876   -3.4224 C   0  0  0  0  0  0  0  0  0  0  0  0
   27.8590  -19.6507   -5.8936 C   0  0  2  0  0  0  0  0  0  0  0  0
   27.7348  -20.6086   -6.9740 N   0  0  0  0  0  0  0  0  0  0  0  0
   29.2197  -19.0884   -5.8666 C   0  0  0  0  0  0  0  0  0  0  0  0
   29.5092  -17.8883   -5.2665 O   0  0  0  0  0  0  0  0  0  0  0  0
   30.1718  -19.7130   -6.4084 O   0  0  0  0  0  0  0  0  0  0  0  0
  2  3  1  0
  2  1  1  6
  4  3  1  0
  4  5  1  0
  6  5  1  0
  6  7  1  0
  8  2  1  0
  9  8  2  0
 11 10  1  6
 11 13  1  0
 12 11  1  0
 14 13  1  6
 14 15  1  0
 15  8  1  0
 16 14  1  0
 16 17  2  0
 19 18  1  1
 19 21  1  0
 20 19  1  0
 21 22  1  6
 22 16  1  0
 23 21  1  0
 24 23  1  0
 25 23  2  0
M  END
$$$$
