KLV.pdb
     RDKit          3D

 25 24  0  0  1  0  0  0  0  0999 V2000
   28.5440  -21.2430  -15.7919 N   0  0  0  0  0  0  0  0  0  0  0  0
   27.3680  -21.9052  -16.3150 C   0  0  1  0  0  0  0  0  0  0  0  0
   27.7776  -23.3041  -16.7875 C   0  0  0  0  0  0  0  0  0  0  0  0
   29.1063  -23.1668  -17.4513 C   0  0  0  0  0  0  0  0  0  0  0  0
   29.1184  -22.2068  -18.6054 C   0  0  0  0  0  0  0  0  0  0  0  0
   30.3994  -22.1978  -19.3710 C   0  0  0  0  0  0  0  0  0  0  0  0
   30.3331  -21.1600  -20.3964 N   0  0  0  0  0  0  0  0  0  0  0  0
   26.3685  -21.9916  -15.2284 C   0  0  0  0  0  0  0  0  0  0  0  0
   25.3094  -22.6778  -15.3397 O   0  0  0  0  0  0  0  0  0  0  0  0
   24.0492  -20.2712  -10.6140 C   0  0  0  0  0  0  0  0  0  0  0  0
   25.3043  -21.1391  -10.4310 C   0  0  2  0  0  0  0  0  0  0  0  0
   25.8950  -20.7386   -9.1162 C   0  0  0  0  0  0  0  0  0  0  0  0
   26.1529  -20.9088  -11.6265 C   0  0  0  0  0  0  0  0  0  0  0  0
   25.5724  -21.3086  -12.9404 C   0  0  2  0  0  0  0  0  0  0  0  0
   26.5531  -21.3073  -14.0095 N   0  0  0  0  0  0  0  0  0  0  0  0
   24.3571  -20.5312  -13.2674 C   0  0  0  0  0  0  0  0  0  0  0  0
   24.3780  -19.2548  -13.2310 O   0  0  0  0  0  0  0  0  0  0  0  0
   22.6624  -20.3391  -16.4246 C   0  0  0  0  0  0  0  0  0  0  0  0
   21.5659  -20.6042  -15.4371 C   0  0  2  0  0  0  0  0  0  0  0  0
   20.3104  -19.8456  -15.7822 C   0  0  0  0  0  0  0  0  0  0  0  0
   21.9956  -20.2980  -14.0089 C   0  0  2  0  0  0  0  0  0  0  0  0
   23.1274  -21.1216  -13.6336 N   0  0  0  0  0  0  0  0  0  0  0  0
   20.8362  -20.6076  -13.1555 C   0  0  0  0  0  0  0  0  0  0  0  0
   20.6614  -21.8354  -12.5672 O   0  0  0  0  0  0  0  0  0  0  0  0
   19.9569  -19.7293  -12.9421 O   0  0  0  0  0  0  0  0  0  0  0  0
  2  3  1  0
  2  1  1  1
  4  3  1  0
  4  5  1  0
  6  5  1  0
  6  7  1  0
  8  2  1  0
  9  8  2  0
 11 10  1  6
 11 13  1  0
 12 11  1  0
 14 13  1  1
 14 15  1  0
 15  8  1  0
 16 14  1  0
 16 17  2  0
 19 18  1  6
 19 21  1  0
 20 19  1  0
 21 22  1  1
 22 16  1  0
 23 21  1  0
 24 23  1  0
 25 23  2  0
M  END
$$$$
