KLV.pdb
     RDKit          3D

 25 24  0  0  1  0  0  0  0  0999 V2000
   27.0817  -21.4723  -15.2632 N   0  0  0  0  0  0  0  0  0  0  0  0
   26.8498  -20.3422  -14.3890 C   0  0  1  0  0  0  0  0  0  0  0  0
   25.7698  -19.4601  -15.0245 C   0  0  0  0  0  0  0  0  0  0  0  0
   26.0215  -19.4562  -16.4947 C   0  0  0  0  0  0  0  0  0  0  0  0
   25.1170  -18.5414  -17.2686 C   0  0  0  0  0  0  0  0  0  0  0  0
   25.3626  -18.5517  -18.7406 C   0  0  0  0  0  0  0  0  0  0  0  0
   24.4287  -17.6321  -19.3848 N   0  0  0  0  0  0  0  0  0  0  0  0
   26.3988  -20.8600  -13.0792 C   0  0  0  0  0  0  0  0  0  0  0  0
   25.7803  -21.9599  -12.9659 O   0  0  0  0  0  0  0  0  0  0  0  0
   25.1021  -19.9849   -7.8486 C   0  0  0  0  0  0  0  0  0  0  0  0
   26.5448  -20.4511   -8.1001 C   0  0  2  0  0  0  0  0  0  0  0  0
   27.3589  -19.9010   -6.9720 C   0  0  0  0  0  0  0  0  0  0  0  0
   26.9081  -19.9796   -9.4596 C   0  0  0  0  0  0  0  0  0  0  0  0
   26.1358  -20.5630  -10.5938 C   0  0  2  0  0  0  0  0  0  0  0  0
   26.6401  -20.1449  -11.8883 N   0  0  0  0  0  0  0  0  0  0  0  0
   24.6804  -20.3466  -10.4409 C   0  0  0  0  0  0  0  0  0  0  0  0
   24.2064  -19.1621  -10.3838 O   0  0  0  0  0  0  0  0  0  0  0  0
   22.4676  -21.4677  -12.9680 C   0  0  0  0  0  0  0  0  0  0  0  0
   21.7598  -21.8550  -11.7043 C   0  0  2  0  0  0  0  0  0  0  0  0
   20.2731  -21.6320  -11.8081 C   0  0  0  0  0  0  0  0  0  0  0  0
   22.3218  -21.1308  -10.4886 C   0  0  2  0  0  0  0  0  0  0  0  0
   23.7399  -21.3965  -10.3524 N   0  0  0  0  0  0  0  0  0  0  0  0
   21.5917  -21.6569   -9.3230 C   0  0  0  0  0  0  0  0  0  0  0  0
   22.1900  -22.4488   -8.3748 O   0  0  0  0  0  0  0  0  0  0  0  0
   20.3703  -21.3846   -9.1676 O   0  0  0  0  0  0  0  0  0  0  0  0
  2  3  1  0
  2  1  1  6
  4  3  1  0
  4  5  1  0
  6  5  1  0
  6  7  1  0
  8  2  1  0
  9  8  2  0
 11 10  1  1
 11 13  1  0
 12 11  1  0
 14 13  1  1
 14 15  1  0
 15  8  1  0
 16 14  1  0
 16 17  2  0
 19 18  1  6
 19 21  1  0
 20 19  1  0
 21 22  1  1
 22 16  1  0
 23 21  1  0
 24 23  1  0
 25 23  2  0
M  END
$$$$
