KLV.pdb
     RDKit          3D

 25 24  0  0  1  0  0  0  0  0999 V2000
   27.1755  -19.2900  -15.2540 N   0  0  0  0  0  0  0  0  0  0  0  0
   26.9010  -20.6527  -15.6574 C   0  0  1  0  0  0  0  0  0  0  0  0
   28.1714  -21.4811  -15.4380 C   0  0  0  0  0  0  0  0  0  0  0  0
   28.8632  -21.5732  -16.7563 C   0  0  0  0  0  0  0  0  0  0  0  0
   28.8898  -22.9565  -17.3390 C   0  0  0  0  0  0  0  0  0  0  0  0
   29.8887  -23.8626  -16.6998 C   0  0  0  0  0  0  0  0  0  0  0  0
   29.8022  -25.1805  -17.3231 N   0  0  0  0  0  0  0  0  0  0  0  0
   25.7923  -21.1639  -14.8227 C   0  0  0  0  0  0  0  0  0  0  0  0
   25.2081  -22.2593  -15.0752 O   0  0  0  0  0  0  0  0  0  0  0  0
   25.7427  -22.3826  -10.7105 C   0  0  0  0  0  0  0  0  0  0  0  0
   25.6980  -20.8488  -10.7965 C   0  0  2  0  0  0  0  0  0  0  0  0
   25.9005  -20.3511   -9.4003 C   0  0  0  0  0  0  0  0  0  0  0  0
   24.4036  -20.5010  -11.4336 C   0  0  0  0  0  0  0  0  0  0  0  0
   24.2377  -20.8979  -12.8613 C   0  0  2  0  0  0  0  0  0  0  0  0
   25.3332  -20.4470  -13.6988 N   0  0  0  0  0  0  0  0  0  0  0  0
   22.9093  -20.5181  -13.3898 C   0  0  0  0  0  0  0  0  0  0  0  0
   22.5885  -19.2875  -13.5060 O   0  0  0  0  0  0  0  0  0  0  0  0
   20.4592  -23.1114  -15.6560 C   0  0  0  0  0  0  0  0  0  0  0  0
   20.3835  -21.6141  -15.6734 C   0  0  2  0  0  0  0  0  0  0  0  0
   21.3170  -21.0213  -16.6971 C   0  0  0  0  0  0  0  0  0  0  0  0
   20.6493  -21.0117  -14.3006 C   0  0  2  0  0  0  0  0  0  0  0  0
   21.9325  -21.4550  -13.7935 N   0  0  0  0  0  0  0  0  0  0  0  0
   19.5648  -21.4881  -13.4257 C   0  0  0  0  0  0  0  0  0  0  0  0
   18.2990  -20.9588  -13.4664 O   0  0  0  0  0  0  0  0  0  0  0  0
   19.7817  -22.4154  -12.5991 O   0  0  0  0  0  0  0  0  0  0  0  0
  2  3  1  0
  2  1  1  1
  4  3  1  0
  4  5  1  0
  6  5  1  0
  6  7  1  0
  8  2  1  0
  9  8  2  0
 11 10  1  1
 11 13  1  0
 12 11  1  0
 14 13  1  1
 14 15  1  0
 15  8  1  0
 16 14  1  0
 16 17  2  0
 19 18  1  1
 19 21  1  0
 20 19  1  0
 21 22  1  1
 22 16  1  0
 23 21  1  0
 24 23  1  0
 25 23  2  0
M  END
$$$$
