KLV.pdb
     RDKit          3D

 25 24  0  0  1  0  0  0  0  0999 V2000
   26.0097  -18.3152  -12.7083 N   0  0  0  0  0  0  0  0  0  0  0  0
   25.7879  -19.6979  -13.0744 C   0  0  1  0  0  0  0  0  0  0  0  0
   27.0989  -20.2604  -13.6339 C   0  0  0  0  0  0  0  0  0  0  0  0
   27.4905  -19.3907  -14.7807 C   0  0  0  0  0  0  0  0  0  0  0  0
   27.1264  -19.9495  -16.1256 C   0  0  0  0  0  0  0  0  0  0  0  0
   28.2913  -20.4699  -16.8997 C   0  0  0  0  0  0  0  0  0  0  0  0
   27.8303  -20.9111  -18.2134 N   0  0  0  0  0  0  0  0  0  0  0  0
   25.3789  -20.4345  -11.8589 C   0  0  0  0  0  0  0  0  0  0  0  0
   25.0023  -21.6435  -11.8981 O   0  0  0  0  0  0  0  0  0  0  0  0
   27.7072  -21.1563   -8.1672 C   0  0  0  0  0  0  0  0  0  0  0  0
   27.0919  -19.7488   -8.2163 C   0  0  2  0  0  0  0  0  0  0  0  0
   27.7091  -18.9888   -7.0852 C   0  0  0  0  0  0  0  0  0  0  0  0
   25.6203  -19.9309   -8.1560 C   0  0  0  0  0  0  0  0  0  0  0  0
   24.9690  -20.4877   -9.3762 C   0  0  2  0  0  0  0  0  0  0  0  0
   25.3904  -19.8169  -10.5915 N   0  0  0  0  0  0  0  0  0  0  0  0
   23.4983  -20.5599   -9.2337 C   0  0  0  0  0  0  0  0  0  0  0  0
   22.7805  -19.5192   -9.4138 O   0  0  0  0  0  0  0  0  0  0  0  0
   20.9886  -22.0403  -11.1519 C   0  0  0  0  0  0  0  0  0  0  0  0
   20.6646  -22.5349   -9.7741 C   0  0  2  0  0  0  0  0  0  0  0  0
   19.1783  -22.5599   -9.5268 C   0  0  0  0  0  0  0  0  0  0  0  0
   21.3689  -21.7244   -8.6948 C   0  0  2  0  0  0  0  0  0  0  0  0
   22.8030  -21.7438   -8.9024 N   0  0  0  0  0  0  0  0  0  0  0  0
   21.0320  -22.3663   -7.4130 C   0  0  0  0  0  0  0  0  0  0  0  0
   21.8468  -23.2976   -6.8189 O   0  0  0  0  0  0  0  0  0  0  0  0
   19.9605  -22.0670   -6.8194 O   0  0  0  0  0  0  0  0  0  0  0  0
  2  3  1  0
  2  1  1  1
  4  3  1  0
  4  5  1  0
  6  5  1  0
  6  7  1  0
  8  2  1  0
  9  8  2  0
 11 10  1  1
 11 13  1  0
 12 11  1  0
 14 13  1  1
 14 15  1  0
 15  8  1  0
 16 14  1  0
 16 17  2  0
 19 18  1  6
 19 21  1  0
 20 19  1  0
 21 22  1  6
 22 16  1  0
 23 21  1  0
 24 23  1  0
 25 23  2  0
M  END
$$$$
