KLV.pdb
     RDKit          3D

 25 24  0  0  1  0  0  0  0  0999 V2000
   19.0399  -13.6872  -19.7522 N   0  0  0  0  0  0  0  0  0  0  0  0
   18.6322  -12.3165  -19.9766 C   0  0  1  0  0  0  0  0  0  0  0  0
   17.2600  -12.1133  -19.3253 C   0  0  0  0  0  0  0  0  0  0  0  0
   16.2552  -12.7595  -20.2184 C   0  0  0  0  0  0  0  0  0  0  0  0
   15.0501  -13.2932  -19.4996 C   0  0  0  0  0  0  0  0  0  0  0  0
   14.0475  -13.9387  -20.3971 C   0  0  0  0  0  0  0  0  0  0  0  0
   13.0255  -14.5868  -19.5796 N   0  0  0  0  0  0  0  0  0  0  0  0
   19.6416  -11.4303  -19.3577 C   0  0  0  0  0  0  0  0  0  0  0  0
   20.6928  -11.8824  -18.8140 O   0  0  0  0  0  0  0  0  0  0  0  0
   22.1982   -7.8396  -20.9147 C   0  0  0  0  0  0  0  0  0  0  0  0
   20.6888   -7.5752  -20.7973 C   0  0  2  0  0  0  0  0  0  0  0  0
   20.4614   -6.2155  -21.3783 C   0  0  0  0  0  0  0  0  0  0  0  0
   20.3433   -7.7400  -19.3635 C   0  0  0  0  0  0  0  0  0  0  0  0
   20.4646   -9.1170  -18.8046 C   0  0  2  0  0  0  0  0  0  0  0  0
   19.4759  -10.0302  -19.3461 N   0  0  0  0  0  0  0  0  0  0  0  0
   20.5013   -9.1122  -17.3258 C   0  0  0  0  0  0  0  0  0  0  0  0
   19.4159   -9.1286  -16.6531 O   0  0  0  0  0  0  0  0  0  0  0  0
   22.6869  -11.3537  -15.0245 C   0  0  0  0  0  0  0  0  0  0  0  0
   22.7733   -9.9337  -14.5514 C   0  0  2  0  0  0  0  0  0  0  0  0
   22.7823   -9.8477  -13.0469 C   0  0  0  0  0  0  0  0  0  0  0  0
   21.6585   -9.0703  -15.1258 C   0  0  2  0  0  0  0  0  0  0  0  0
   21.6970   -9.0924  -16.5744 N   0  0  0  0  0  0  0  0  0  0  0  0
   21.9003   -7.7044  -14.6316 C   0  0  0  0  0  0  0  0  0  0  0  0
   21.5240   -7.2979  -13.3757 O   0  0  0  0  0  0  0  0  0  0  0  0
   22.4721   -6.8576  -15.3706 O   0  0  0  0  0  0  0  0  0  0  0  0
  2  3  1  0
  2  1  1  1
  4  3  1  0
  4  5  1  0
  6  5  1  0
  6  7  1  0
  8  2  1  0
  9  8  2  0
 11 10  1  1
 11 13  1  0
 12 11  1  0
 14 13  1  1
 14 15  1  0
 15  8  1  0
 16 14  1  0
 16 17  2  0
 19 18  1  1
 19 21  1  0
 20 19  1  0
 21 22  1  6
 22 16  1  0
 23 21  1  0
 24 23  1  0
 25 23  2  0
M  END
$$$$
