KLV.pdb
     RDKit          3D

 25 24  0  0  1  0  0  0  0  0999 V2000
   23.3103  -17.7562  -15.2754 N   0  0  0  0  0  0  0  0  0  0  0  0
   22.8696  -19.0145  -15.8389 C   0  0  1  0  0  0  0  0  0  0  0  0
   22.8111  -18.8615  -17.3625 C   0  0  0  0  0  0  0  0  0  0  0  0
   22.2581  -17.5047  -17.6420 C   0  0  0  0  0  0  0  0  0  0  0  0
   21.2837  -17.4635  -18.7834 C   0  0  0  0  0  0  0  0  0  0  0  0
   20.8769  -16.0840  -19.1815 C   0  0  0  0  0  0  0  0  0  0  0  0
   19.9577  -16.1674  -20.3133 N   0  0  0  0  0  0  0  0  0  0  0  0
   23.8463  -20.0565  -15.4546 C   0  0  0  0  0  0  0  0  0  0  0  0
   23.7351  -21.2589  -15.8380 O   0  0  0  0  0  0  0  0  0  0  0  0
   27.7915  -20.4349  -16.5175 C   0  0  0  0  0  0  0  0  0  0  0  0
   27.7105  -19.4786  -15.3172 C   0  0  2  0  0  0  0  0  0  0  0  0
   29.0539  -18.8278  -15.2165 C   0  0  0  0  0  0  0  0  0  0  0  0
   27.2923  -20.2989  -14.1534 C   0  0  0  0  0  0  0  0  0  0  0  0
   25.8743  -20.7594  -14.1401 C   0  0  2  0  0  0  0  0  0  0  0  0
   24.9543  -19.7537  -14.6370 N   0  0  0  0  0  0  0  0  0  0  0  0
   25.4820  -21.3034  -12.8216 C   0  0  0  0  0  0  0  0  0  0  0  0
   25.9624  -22.4137  -12.4125 O   0  0  0  0  0  0  0  0  0  0  0  0
   24.2792  -19.1590   -9.4665 C   0  0  0  0  0  0  0  0  0  0  0  0
   24.6770  -20.6039   -9.5083 C   0  0  2  0  0  0  0  0  0  0  0  0
   26.1725  -20.7721   -9.4300 C   0  0  0  0  0  0  0  0  0  0  0  0
   24.1265  -21.3137  -10.7375 C   0  0  2  0  0  0  0  0  0  0  0  0
   24.5810  -20.6570  -11.9468 N   0  0  0  0  0  0  0  0  0  0  0  0
   22.6596  -21.2335  -10.6360 C   0  0  0  0  0  0  0  0  0  0  0  0
   21.9495  -21.9095   -9.6754 O   0  0  0  0  0  0  0  0  0  0  0  0
   22.0082  -20.5246  -11.4505 O   0  0  0  0  0  0  0  0  0  0  0  0
  2  3  1  0
  2  1  1  1
  4  3  1  0
  4  5  1  0
  6  5  1  0
  6  7  1  0
  8  2  1  0
  9  8  2  0
 11 10  1  6
 11 13  1  0
 12 11  1  0
 14 13  1  1
 14 15  1  0
 15  8  1  0
 16 14  1  0
 16 17  2  0
 19 18  1  6
 19 21  1  0
 20 19  1  0
 21 22  1  6
 22 16  1  0
 23 21  1  0
 24 23  1  0
 25 23  2  0
M  END
$$$$
