FPK.pdb
     RDKit          3D

 28 29  0  0  1  0  0  0  0  0999 V2000
    5.8578  -16.7416   25.5123 N   0  0  0  0  0  0  0  0  0  0  0  0
    6.7339  -15.8477   24.8640 C   0  0  1  0  0  0  0  0  0  0  0  0
    7.5742  -15.0306   25.8450 C   0  0  0  0  0  0  0  0  0  0  0  0
    6.9913  -13.6910   26.0579 C   0  0  0  0  0  0  0  0  0  0  0  0
    7.6281  -12.5756   25.5544 C   0  0  0  0  0  0  0  0  0  0  0  0
    7.0569  -11.3337   25.7762 C   0  0  0  0  0  0  0  0  0  0  0  0
    5.8809  -11.1731   26.4782 C   0  0  0  0  0  0  0  0  0  0  0  0
    5.2475  -12.3086   26.9815 C   0  0  0  0  0  0  0  0  0  0  0  0
    5.8159  -13.5620   26.7627 C   0  0  0  0  0  0  0  0  0  0  0  0
    7.5974  -16.4001   23.7883 C   0  0  0  0  0  0  0  0  0  0  0  0
    8.3336  -17.3722   24.2363 O   0  0  0  0  0  0  0  0  0  0  0  0
    7.6551  -15.9813   22.4678 N   0  0  0  0  0  0  0  0  0  0  0  0
    6.4759  -15.6624   21.6385 C   0  0  0  0  0  0  0  0  0  0  0  0
    6.9140  -14.3425   21.0065 C   0  0  0  0  0  0  0  0  0  0  0  0
    8.4157  -14.2055   21.3024 C   0  0  0  0  0  0  0  0  0  0  0  0
    8.7253  -15.6772   21.5826 C   0  0  1  0  0  0  0  0  0  0  0  0
   10.0896  -15.9641   21.9188 C   0  0  0  0  0  0  0  0  0  0  0  0
   10.7904  -15.2300   22.6415 O   0  0  0  0  0  0  0  0  0  0  0  0
   10.7734  -17.1405   21.4420 N   0  0  0  0  0  0  0  0  0  0  0  0
   12.0716  -17.5362   21.8851 C   0  0  1  0  0  0  0  0  0  0  0  0
   11.9468  -18.6741   22.8718 C   0  0  0  0  0  0  0  0  0  0  0  0
   13.2719  -19.1760   23.3738 C   0  0  0  0  0  0  0  0  0  0  0  0
   13.1690  -20.2741   24.3838 C   0  0  0  0  0  0  0  0  0  0  0  0
   14.5214  -20.7149   24.8991 C   0  0  0  0  0  0  0  0  0  0  0  0
   14.2965  -21.7486   25.8839 N   0  0  0  0  0  0  0  0  0  0  0  0
   12.9056  -18.0532   20.7497 C   0  0  0  0  0  0  0  0  0  0  0  0
   14.2698  -17.8710   20.6690 O   0  0  0  0  0  0  0  0  0  0  0  0
   12.3253  -18.6801   19.8355 O   0  0  0  0  0  0  0  0  0  0  0  0
  2  1  1  1
  3  2  1  0
  3  4  1  0
  4  5  2  0
  4  9  1  0
  5  6  1  0
  6  7  2  0
  7  8  1  0
  9  8  2  0
 10 12  1  0
 10  2  1  0
 11 10  2  0
 12 16  1  0
 13 14  1  0
 13 12  1  0
 14 15  1  0
 15 16  1  0
 16 17  1  1
 17 18  2  0
 19 20  1  0
 19 17  1  0
 20 26  1  0
 20 21  1  1
 22 21  1  0
 23 22  1  0
 24 23  1  0
 25 24  1  0
 26 27  1  0
 28 26  2  0
M  END
$$$$
