FPK.pdb
     RDKit          3D

 28 29  0  0  1  0  0  0  0  0999 V2000
    5.7703  -16.7768   25.6080 N   0  0  0  0  0  0  0  0  0  0  0  0
    6.7304  -15.9213   25.0308 C   0  0  1  0  0  0  0  0  0  0  0  0
    7.7152  -15.3629   26.0577 C   0  0  0  0  0  0  0  0  0  0  0  0
    7.4525  -13.9350   26.3254 C   0  0  0  0  0  0  0  0  0  0  0  0
    6.1535  -13.4787   26.4116 C   0  0  0  0  0  0  0  0  0  0  0  0
    5.9425  -12.1325   26.6590 C   0  0  0  0  0  0  0  0  0  0  0  0
    6.9785  -11.2371   26.8216 C   0  0  0  0  0  0  0  0  0  0  0  0
    8.2864  -11.7114   26.7322 C   0  0  0  0  0  0  0  0  0  0  0  0
    8.5074  -13.0647   26.4834 C   0  0  0  0  0  0  0  0  0  0  0  0
    7.4639  -16.4251   23.8408 C   0  0  0  0  0  0  0  0  0  0  0  0
    8.0340  -17.5647   24.0941 O   0  0  0  0  0  0  0  0  0  0  0  0
    7.5629  -15.8120   22.6012 N   0  0  0  0  0  0  0  0  0  0  0  0
    6.5868  -14.8416   22.0668 C   0  0  0  0  0  0  0  0  0  0  0  0
    7.5193  -13.7520   21.5407 C   0  0  0  0  0  0  0  0  0  0  0  0
    8.9320  -14.3565   21.5537 C   0  0  0  0  0  0  0  0  0  0  0  0
    8.5437  -15.8361   21.5722 C   0  0  1  0  0  0  0  0  0  0  0  0
    9.6417  -16.7584   21.5953 C   0  0  0  0  0  0  0  0  0  0  0  0
    9.7821  -17.6836   20.7728 O   0  0  0  0  0  0  0  0  0  0  0  0
   10.6878  -16.6918   22.5852 N   0  0  0  0  0  0  0  0  0  0  0  0
   11.8301  -17.5481   22.5892 C   0  0  1  0  0  0  0  0  0  0  0  0
   12.7833  -17.1291   21.4938 C   0  0  0  0  0  0  0  0  0  0  0  0
   13.9995  -18.0069   21.3937 C   0  0  0  0  0  0  0  0  0  0  0  0
   14.9753  -17.5850   20.3419 C   0  0  0  0  0  0  0  0  0  0  0  0
   16.1720  -18.5069   20.2595 C   0  0  0  0  0  0  0  0  0  0  0  0
   16.9326  -18.1300   19.0898 N   0  0  0  0  0  0  0  0  0  0  0  0
   12.5940  -17.4389   23.8762 C   0  0  0  0  0  0  0  0  0  0  0  0
   13.2731  -18.4954   24.4449 O   0  0  0  0  0  0  0  0  0  0  0  0
   12.6101  -16.3296   24.4548 O   0  0  0  0  0  0  0  0  0  0  0  0
  2  1  1  1
  3  2  1  0
  3  4  1  0
  4  5  2  0
  4  9  1  0
  5  6  1  0
  6  7  2  0
  7  8  1  0
  9  8  2  0
 10 12  1  0
 10  2  1  0
 11 10  2  0
 12 16  1  0
 13 14  1  0
 13 12  1  0
 14 15  1  0
 15 16  1  0
 16 17  1  1
 17 18  2  0
 19 20  1  0
 19 17  1  0
 20 26  1  0
 20 21  1  6
 22 21  1  0
 23 22  1  0
 24 23  1  0
 25 24  1  0
 26 27  1  0
 28 26  2  0
M  END
$$$$
