FPK.pdb
     RDKit          3D

 28 29  0  0  1  0  0  0  0  0999 V2000
    5.5879  -17.7270   24.7006 N   0  0  0  0  0  0  0  0  0  0  0  0
    6.3101  -16.5218   24.8139 C   0  0  1  0  0  0  0  0  0  0  0  0
    6.5927  -16.1387   26.2663 C   0  0  0  0  0  0  0  0  0  0  0  0
    6.8874  -14.6973   26.3890 C   0  0  0  0  0  0  0  0  0  0  0  0
    8.1899  -14.2725   26.5506 C   0  0  0  0  0  0  0  0  0  0  0  0
    8.4307  -12.9137   26.6674 C   0  0  0  0  0  0  0  0  0  0  0  0
    7.4209  -11.9756   26.6279 C   0  0  0  0  0  0  0  0  0  0  0  0
    6.1091  -12.4183   26.4641 C   0  0  0  0  0  0  0  0  0  0  0  0
    5.8582  -13.7840   26.3459 C   0  0  0  0  0  0  0  0  0  0  0  0
    7.5465  -16.3895   24.0006 C   0  0  0  0  0  0  0  0  0  0  0  0
    8.5342  -17.0315   24.5484 O   0  0  0  0  0  0  0  0  0  0  0  0
    7.6912  -15.6928   22.8107 N   0  0  0  0  0  0  0  0  0  0  0  0
    6.5729  -15.2925   21.9336 C   0  0  0  0  0  0  0  0  0  0  0  0
    6.9387  -13.8381   21.6426 C   0  0  0  0  0  0  0  0  0  0  0  0
    8.3836  -13.6553   22.1328 C   0  0  0  0  0  0  0  0  0  0  0  0
    8.8076  -15.1252   22.1376 C   0  0  1  0  0  0  0  0  0  0  0  0
   10.1541  -15.3740   22.5636 C   0  0  0  0  0  0  0  0  0  0  0  0
   11.0086  -14.4785   22.7059 O   0  0  0  0  0  0  0  0  0  0  0  0
   10.6383  -16.6980   22.8658 N   0  0  0  0  0  0  0  0  0  0  0  0
   11.8271  -16.9552   23.6133 C   0  0  1  0  0  0  0  0  0  0  0  0
   11.5731  -18.0661   24.6059 C   0  0  0  0  0  0  0  0  0  0  0  0
   12.7805  -18.4172   25.4297 C   0  0  0  0  0  0  0  0  0  0  0  0
   12.5435  -19.4989   26.4349 C   0  0  0  0  0  0  0  0  0  0  0  0
   13.7279  -19.7049   27.3533 C   0  0  0  0  0  0  0  0  0  0  0  0
   13.4094  -20.8050   28.2349 N   0  0  0  0  0  0  0  0  0  0  0  0
   12.9413  -17.4294   22.7270 C   0  0  0  0  0  0  0  0  0  0  0  0
   14.2745  -17.2238   23.0122 O   0  0  0  0  0  0  0  0  0  0  0  0
   12.6357  -18.0413   21.6793 O   0  0  0  0  0  0  0  0  0  0  0  0
  2  1  1  1
  3  2  1  0
  3  4  1  0
  4  5  2  0
  4  9  1  0
  5  6  1  0
  6  7  2  0
  7  8  1  0
  9  8  2  0
 10 12  1  0
 10  2  1  0
 11 10  2  0
 12 16  1  0
 13 14  1  0
 13 12  1  0
 14 15  1  0
 15 16  1  0
 16 17  1  1
 17 18  2  0
 19 20  1  0
 19 17  1  0
 20 26  1  0
 20 21  1  1
 22 21  1  0
 23 22  1  0
 24 23  1  0
 25 24  1  0
 26 27  1  0
 28 26  2  0
M  END
$$$$
