FPK.pdb
     RDKit          3D

 28 29  0  0  1  0  0  0  0  0999 V2000
   10.1241  -18.3479   28.3878 N   0  0  0  0  0  0  0  0  0  0  0  0
   11.4709  -18.4863   27.9956 C   0  0  1  0  0  0  0  0  0  0  0  0
   12.1920  -17.1436   27.8802 C   0  0  0  0  0  0  0  0  0  0  0  0
   11.3532  -16.0429   28.3945 C   0  0  0  0  0  0  0  0  0  0  0  0
   11.3521  -15.7508   29.7428 C   0  0  0  0  0  0  0  0  0  0  0  0
   10.5502  -14.7152   30.1925 C   0  0  0  0  0  0  0  0  0  0  0  0
    9.7574  -13.9697   29.3457 C   0  0  0  0  0  0  0  0  0  0  0  0
    9.7679  -14.2752   27.9854 C   0  0  0  0  0  0  0  0  0  0  0  0
   10.5721  -15.3160   27.5247 C   0  0  0  0  0  0  0  0  0  0  0  0
   12.3062  -19.4512   28.7565 C   0  0  0  0  0  0  0  0  0  0  0  0
   11.7372  -19.7748   29.8787 O   0  0  0  0  0  0  0  0  0  0  0  0
   13.5324  -19.9743   28.3753 N   0  0  0  0  0  0  0  0  0  0  0  0
   13.8660  -20.4129   27.0055 C   0  0  0  0  0  0  0  0  0  0  0  0
   15.2367  -19.7646   26.8192 C   0  0  0  0  0  0  0  0  0  0  0  0
   15.6737  -19.2830   28.2114 C   0  0  0  0  0  0  0  0  0  0  0  0
   14.7643  -20.1781   29.0553 C   0  0  1  0  0  0  0  0  0  0  0  0
   14.8820  -20.0086   30.4744 C   0  0  0  0  0  0  0  0  0  0  0  0
   14.6206  -18.9434   31.0653 O   0  0  0  0  0  0  0  0  0  0  0  0
   15.3189  -21.0698   31.3472 N   0  0  0  0  0  0  0  0  0  0  0  0
   15.5114  -20.9106   32.7528 C   0  0  1  0  0  0  0  0  0  0  0  0
   14.8260  -22.0376   33.4905 C   0  0  0  0  0  0  0  0  0  0  0  0
   14.3491  -23.1393   32.5858 C   0  0  0  0  0  0  0  0  0  0  0  0
   13.8091  -24.3336   33.3060 C   0  0  0  0  0  0  0  0  0  0  0  0
   13.3043  -25.4006   32.3598 C   0  0  0  0  0  0  0  0  0  0  0  0
   12.9151  -26.5414   33.1573 N   0  0  0  0  0  0  0  0  0  0  0  0
   16.9642  -20.9890   33.1205 C   0  0  0  0  0  0  0  0  0  0  0  0
   17.4448  -20.6784   34.3748 O   0  0  0  0  0  0  0  0  0  0  0  0
   17.7721  -21.3560   32.2384 O   0  0  0  0  0  0  0  0  0  0  0  0
  2  1  1  1
  3  2  1  0
  3  4  1  0
  4  5  2  0
  4  9  1  0
  5  6  1  0
  6  7  2  0
  7  8  1  0
  9  8  2  0
 10 12  1  0
 10  2  1  0
 11 10  2  0
 12 16  1  0
 13 14  1  0
 13 12  1  0
 14 15  1  0
 15 16  1  0
 16 17  1  1
 17 18  2  0
 19 20  1  0
 19 17  1  0
 20 26  1  0
 20 21  1  1
 22 21  1  0
 23 22  1  0
 24 23  1  0
 25 24  1  0
 26 27  1  0
 28 26  2  0
M  END
$$$$
