FPK.pdb
     RDKit          3D

 28 29  0  0  1  0  0  0  0  0999 V2000
    5.4033  -17.7646   24.8631 N   0  0  0  0  0  0  0  0  0  0  0  0
    6.1763  -16.5892   24.9512 C   0  0  1  0  0  0  0  0  0  0  0  0
    6.4900  -16.1972   26.3948 C   0  0  0  0  0  0  0  0  0  0  0  0
    6.7705  -14.7520   26.5051 C   0  0  0  0  0  0  0  0  0  0  0  0
    5.7357  -13.8426   26.4317 C   0  0  0  0  0  0  0  0  0  0  0  0
    6.0343  -12.4942   26.5340 C   0  0  0  0  0  0  0  0  0  0  0  0
    7.3216  -12.0306   26.7058 C   0  0  0  0  0  0  0  0  0  0  0  0
    8.3580  -12.9603   26.7786 C   0  0  0  0  0  0  0  0  0  0  0  0
    8.0660  -14.3191   26.6764 C   0  0  0  0  0  0  0  0  0  0  0  0
    7.4086  -16.5207   24.1238 C   0  0  0  0  0  0  0  0  0  0  0  0
    8.3802  -17.1786   24.6814 O   0  0  0  0  0  0  0  0  0  0  0  0
    7.5644  -15.8634   22.9130 N   0  0  0  0  0  0  0  0  0  0  0  0
    6.4773  -15.6287   21.9419 C   0  0  0  0  0  0  0  0  0  0  0  0
    6.7033  -14.1562   21.6037 C   0  0  0  0  0  0  0  0  0  0  0  0
    8.0794  -13.7919   22.1824 C   0  0  0  0  0  0  0  0  0  0  0  0
    8.6592  -15.2034   22.2907 C   0  0  1  0  0  0  0  0  0  0  0  0
    9.9896  -15.2814   22.8204 C   0  0  0  0  0  0  0  0  0  0  0  0
   10.3562  -14.6884   23.8529 O   0  0  0  0  0  0  0  0  0  0  0  0
   11.0276  -16.0619   22.1942 N   0  0  0  0  0  0  0  0  0  0  0  0
   12.1989  -16.5132   22.8744 C   0  0  1  0  0  0  0  0  0  0  0  0
   11.8108  -17.4858   23.9641 C   0  0  0  0  0  0  0  0  0  0  0  0
   12.9724  -17.9290   24.8091 C   0  0  0  0  0  0  0  0  0  0  0  0
   12.6205  -18.9397   25.8536 C   0  0  0  0  0  0  0  0  0  0  0  0
   13.8093  -19.3322   26.7029 C   0  0  0  0  0  0  0  0  0  0  0  0
   13.3438  -20.2743   27.6953 N   0  0  0  0  0  0  0  0  0  0  0  0
   13.1169  -17.2596   21.9514 C   0  0  0  0  0  0  0  0  0  0  0  0
   12.6819  -18.2293   21.0731 O   0  0  0  0  0  0  0  0  0  0  0  0
   14.3361  -16.9811   21.9875 O   0  0  0  0  0  0  0  0  0  0  0  0
  2  1  1  1
  3  2  1  0
  3  4  1  0
  4  5  2  0
  4  9  1  0
  5  6  1  0
  6  7  2  0
  7  8  1  0
  9  8  2  0
 10 12  1  0
 10  2  1  0
 11 10  2  0
 12 16  1  0
 13 14  1  0
 13 12  1  0
 14 15  1  0
 15 16  1  0
 16 17  1  1
 17 18  2  0
 19 20  1  0
 19 17  1  0
 20 26  1  0
 20 21  1  1
 22 21  1  0
 23 22  1  0
 24 23  1  0
 25 24  1  0
 26 27  1  0
 28 26  2  0
M  END
$$$$
