FPK.pdb
     RDKit          3D

 28 29  0  0  1  0  0  0  0  0999 V2000
    5.8357  -17.2308   25.5874 N   0  0  0  0  0  0  0  0  0  0  0  0
    6.6936  -16.2089   25.1332 C   0  0  1  0  0  0  0  0  0  0  0  0
    7.4050  -15.4853   26.2762 C   0  0  0  0  0  0  0  0  0  0  0  0
    6.8687  -14.1220   26.4588 C   0  0  0  0  0  0  0  0  0  0  0  0
    5.5126  -13.9329   26.6274 C   0  0  0  0  0  0  0  0  0  0  0  0
    5.0423  -12.6407   26.7913 C   0  0  0  0  0  0  0  0  0  0  0  0
    5.8763  -11.5425   26.7922 C   0  0  0  0  0  0  0  0  0  0  0  0
    7.2447  -11.7477   26.6210 C   0  0  0  0  0  0  0  0  0  0  0  0
    7.7260  -13.0449   26.4553 C   0  0  0  0  0  0  0  0  0  0  0  0
    7.6668  -16.5603   24.0667 C   0  0  0  0  0  0  0  0  0  0  0  0
    8.4380  -17.5353   24.4441 O   0  0  0  0  0  0  0  0  0  0  0  0
    7.7854  -15.9689   22.8183 N   0  0  0  0  0  0  0  0  0  0  0  0
    6.6472  -15.6294   21.9413 C   0  0  0  0  0  0  0  0  0  0  0  0
    7.0208  -14.2099   21.5177 C   0  0  0  0  0  0  0  0  0  0  0  0
    8.4809  -14.0057   21.9509 C   0  0  0  0  0  0  0  0  0  0  0  0
    8.8885  -15.4755   22.0692 C   0  0  1  0  0  0  0  0  0  0  0  0
   10.2437  -15.7056   22.4778 C   0  0  0  0  0  0  0  0  0  0  0  0
   10.8932  -14.9144   23.1881 O   0  0  0  0  0  0  0  0  0  0  0  0
   10.9778  -16.8861   22.0953 N   0  0  0  0  0  0  0  0  0  0  0  0
   12.3051  -17.1713   22.5371 C   0  0  1  0  0  0  0  0  0  0  0  0
   12.3633  -18.5725   23.1002 C   0  0  0  0  0  0  0  0  0  0  0  0
   11.5784  -18.7372   24.3716 C   0  0  0  0  0  0  0  0  0  0  0  0
   11.6197  -20.1185   24.9432 C   0  0  0  0  0  0  0  0  0  0  0  0
   10.8383  -20.2345   26.2335 C   0  0  0  0  0  0  0  0  0  0  0  0
   11.0056  -21.5836   26.7244 N   0  0  0  0  0  0  0  0  0  0  0  0
   13.2826  -17.1341   21.3991 C   0  0  0  0  0  0  0  0  0  0  0  0
   14.6346  -16.9248   21.5697 O   0  0  0  0  0  0  0  0  0  0  0  0
   12.8394  -17.3028   20.2412 O   0  0  0  0  0  0  0  0  0  0  0  0
  2  1  1  1
  3  2  1  0
  3  4  1  0
  4  5  2  0
  4  9  1  0
  5  6  1  0
  6  7  2  0
  7  8  1  0
  9  8  2  0
 10 12  1  0
 10  2  1  0
 11 10  2  0
 12 16  1  0
 13 14  1  0
 13 12  1  0
 14 15  1  0
 15 16  1  0
 16 17  1  1
 17 18  2  0
 19 20  1  0
 19 17  1  0
 20 26  1  0
 20 21  1  6
 22 21  1  0
 23 22  1  0
 24 23  1  0
 25 24  1  0
 26 27  1  0
 28 26  2  0
M  END
$$$$
