FPK.pdb
     RDKit          3D

 28 29  0  0  1  0  0  0  0  0999 V2000
    5.3392  -17.3506   25.1481 N   0  0  0  0  0  0  0  0  0  0  0  0
    6.2983  -16.3229   25.0447 C   0  0  1  0  0  0  0  0  0  0  0  0
    6.8245  -15.8689   26.4059 C   0  0  0  0  0  0  0  0  0  0  0  0
    6.8208  -14.3965   26.5141 C   0  0  0  0  0  0  0  0  0  0  0  0
    8.0051  -13.7184   26.7165 C   0  0  0  0  0  0  0  0  0  0  0  0
    7.9654  -12.3379   26.8182 C   0  0  0  0  0  0  0  0  0  0  0  0
    6.7912  -11.6208   26.7246 C   0  0  0  0  0  0  0  0  0  0  0  0
    5.6016  -12.3184   26.5199 C   0  0  0  0  0  0  0  0  0  0  0  0
    5.6329  -13.7078   26.4166 C   0  0  0  0  0  0  0  0  0  0  0  0
    7.4295  -16.5388   24.1056 C   0  0  0  0  0  0  0  0  0  0  0  0
    8.2397  -17.4493   24.5554 O   0  0  0  0  0  0  0  0  0  0  0  0
    7.6466  -15.8914   22.8989 N   0  0  0  0  0  0  0  0  0  0  0  0
    6.5764  -15.4129   22.0013 C   0  0  0  0  0  0  0  0  0  0  0  0
    7.0783  -14.0075   21.6749 C   0  0  0  0  0  0  0  0  0  0  0  0
    8.5306  -13.9466   22.1734 C   0  0  0  0  0  0  0  0  0  0  0  0
    8.8155  -15.4489   22.2213 C   0  0  1  0  0  0  0  0  0  0  0  0
   10.1301  -15.8103   22.6662 C   0  0  0  0  0  0  0  0  0  0  0  0
   10.7709  -15.1656   23.5182 O   0  0  0  0  0  0  0  0  0  0  0  0
   10.8294  -16.9641   22.1577 N   0  0  0  0  0  0  0  0  0  0  0  0
   12.1252  -17.3648   22.6033 C   0  0  1  0  0  0  0  0  0  0  0  0
   12.2241  -18.8728   22.5878 C   0  0  0  0  0  0  0  0  0  0  0  0
   13.5655  -19.3869   23.0305 C   0  0  0  0  0  0  0  0  0  0  0  0
   13.6581  -20.8778   23.1010 C   0  0  0  0  0  0  0  0  0  0  0  0
   15.0362  -21.3537   23.5046 C   0  0  0  0  0  0  0  0  0  0  0  0
   15.0427  -22.7962   23.4149 N   0  0  0  0  0  0  0  0  0  0  0  0
   13.2012  -16.8630   21.6856 C   0  0  0  0  0  0  0  0  0  0  0  0
   14.4393  -16.4475   22.1275 O   0  0  0  0  0  0  0  0  0  0  0  0
   12.9534  -16.8236   20.4598 O   0  0  0  0  0  0  0  0  0  0  0  0
  2  1  1  1
  3  2  1  0
  3  4  1  0
  4  5  2  0
  4  9  1  0
  5  6  1  0
  6  7  2  0
  7  8  1  0
  9  8  2  0
 10 12  1  0
 10  2  1  0
 11 10  2  0
 12 16  1  0
 13 14  1  0
 13 12  1  0
 14 15  1  0
 15 16  1  0
 16 17  1  1
 17 18  2  0
 19 20  1  0
 19 17  1  0
 20 26  1  0
 20 21  1  6
 22 21  1  0
 23 22  1  0
 24 23  1  0
 25 24  1  0
 26 27  1  0
 28 26  2  0
M  END
$$$$
