FPK.pdb
     RDKit          3D

 28 29  0  0  1  0  0  0  0  0999 V2000
    6.5858  -16.1628   26.0150 N   0  0  0  0  0  0  0  0  0  0  0  0
    7.0559  -15.4731   24.8791 C   0  0  1  0  0  0  0  0  0  0  0  0
    8.0333  -14.3525   25.2328 C   0  0  0  0  0  0  0  0  0  0  0  0
    7.4071  -13.3645   26.1334 C   0  0  0  0  0  0  0  0  0  0  0  0
    7.9889  -13.0774   27.3509 C   0  0  0  0  0  0  0  0  0  0  0  0
    7.3729  -12.1492   28.1736 C   0  0  0  0  0  0  0  0  0  0  0  0
    6.2055  -11.5052   27.8213 C   0  0  0  0  0  0  0  0  0  0  0  0
    5.6282  -11.8044   26.5881 C   0  0  0  0  0  0  0  0  0  0  0  0
    6.2417  -12.7374   25.7543 C   0  0  0  0  0  0  0  0  0  0  0  0
    7.5973  -16.2898   23.7620 C   0  0  0  0  0  0  0  0  0  0  0  0
    7.9176  -17.4809   24.1698 O   0  0  0  0  0  0  0  0  0  0  0  0
    7.7615  -15.8942   22.4433 N   0  0  0  0  0  0  0  0  0  0  0  0
    6.6657  -15.4454   21.5614 C   0  0  0  0  0  0  0  0  0  0  0  0
    7.2855  -14.1936   20.9428 C   0  0  0  0  0  0  0  0  0  0  0  0
    8.7786  -14.2338   21.3038 C   0  0  0  0  0  0  0  0  0  0  0  0
    8.8975  -15.7290   21.6046 C   0  0  1  0  0  0  0  0  0  0  0  0
   10.2019  -16.1732   22.0019 C   0  0  0  0  0  0  0  0  0  0  0  0
   10.9789  -15.4932   22.6991 O   0  0  0  0  0  0  0  0  0  0  0  0
   10.7305  -17.4598   21.6223 N   0  0  0  0  0  0  0  0  0  0  0  0
   11.9854  -17.9661   22.0772 C   0  0  1  0  0  0  0  0  0  0  0  0
   11.8538  -19.4370   22.3984 C   0  0  0  0  0  0  0  0  0  0  0  0
   13.1381  -20.0622   22.8667 C   0  0  0  0  0  0  0  0  0  0  0  0
   13.0588  -21.5405   23.0787 C   0  0  0  0  0  0  0  0  0  0  0  0
   14.3350  -22.1114   23.6568 C   0  0  0  0  0  0  0  0  0  0  0  0
   13.9666  -23.1930   24.5420 N   0  0  0  0  0  0  0  0  0  0  0  0
   13.0385  -17.8602   21.0134 C   0  0  0  0  0  0  0  0  0  0  0  0
   12.7503  -17.6469   19.6821 O   0  0  0  0  0  0  0  0  0  0  0  0
   14.2352  -17.9719   21.3615 O   0  0  0  0  0  0  0  0  0  0  0  0
  2  1  1  1
  3  2  1  0
  3  4  1  0
  4  5  2  0
  4  9  1  0
  5  6  1  0
  6  7  2  0
  7  8  1  0
  9  8  2  0
 10 12  1  0
 10  2  1  0
 11 10  2  0
 12 16  1  0
 13 14  1  0
 13 12  1  0
 14 15  1  0
 15 16  1  0
 16 17  1  1
 17 18  2  0
 19 20  1  0
 19 17  1  0
 20 26  1  0
 20 21  1  6
 22 21  1  0
 23 22  1  0
 24 23  1  0
 25 24  1  0
 26 27  1  0
 28 26  2  0
M  END
$$$$
