FPK.pdb
     RDKit          3D

 28 29  0  0  1  0  0  0  0  0999 V2000
    5.8819  -17.1837   25.5128 N   0  0  0  0  0  0  0  0  0  0  0  0
    6.7520  -16.1970   25.0064 C   0  0  1  0  0  0  0  0  0  0  0  0
    7.5934  -15.5369   26.0984 C   0  0  0  0  0  0  0  0  0  0  0  0
    7.2717  -14.1015   26.2237 C   0  0  0  0  0  0  0  0  0  0  0  0
    8.2577  -13.2036   26.5767 C   0  0  0  0  0  0  0  0  0  0  0  0
    7.9209  -11.8651   26.6901 C   0  0  0  0  0  0  0  0  0  0  0  0
    6.6424  -11.4004   26.4639 C   0  0  0  0  0  0  0  0  0  0  0  0
    5.6554  -12.3184   26.1076 C   0  0  0  0  0  0  0  0  0  0  0  0
    5.9862  -13.6672   25.9915 C   0  0  0  0  0  0  0  0  0  0  0  0
    7.6130  -16.5738   23.8555 C   0  0  0  0  0  0  0  0  0  0  0  0
    8.3871  -17.5714   24.1609 O   0  0  0  0  0  0  0  0  0  0  0  0
    7.6339  -15.9830   22.6013 N   0  0  0  0  0  0  0  0  0  0  0  0
    6.4311  -15.6556   21.8100 C   0  0  0  0  0  0  0  0  0  0  0  0
    6.7589  -14.2333   21.3591 C   0  0  0  0  0  0  0  0  0  0  0  0
    8.2448  -14.0145   21.6838 C   0  0  0  0  0  0  0  0  0  0  0  0
    8.6742  -15.4802   21.7728 C   0  0  1  0  0  0  0  0  0  0  0  0
   10.0579  -15.6966   22.0809 C   0  0  0  0  0  0  0  0  0  0  0  0
   10.8785  -14.7747   22.2512 O   0  0  0  0  0  0  0  0  0  0  0  0
   10.6227  -17.0158   22.2206 N   0  0  0  0  0  0  0  0  0  0  0  0
   12.0028  -17.2620   22.4907 C   0  0  1  0  0  0  0  0  0  0  0  0
   12.1434  -17.9566   23.8255 C   0  0  0  0  0  0  0  0  0  0  0  0
   10.9902  -18.8649   24.1494 C   0  0  0  0  0  0  0  0  0  0  0  0
   11.2303  -19.7685   25.3165 C   0  0  0  0  0  0  0  0  0  0  0  0
   10.0265  -20.6247   25.6429 C   0  0  0  0  0  0  0  0  0  0  0  0
   10.3829  -21.4700   26.7597 N   0  0  0  0  0  0  0  0  0  0  0  0
   12.6062  -18.1831   21.4713 C   0  0  0  0  0  0  0  0  0  0  0  0
   11.8735  -18.7936   20.4757 O   0  0  0  0  0  0  0  0  0  0  0  0
   13.8365  -18.4017   21.5356 O   0  0  0  0  0  0  0  0  0  0  0  0
  2  1  1  1
  3  2  1  0
  3  4  1  0
  4  5  2  0
  4  9  1  0
  5  6  1  0
  6  7  2  0
  7  8  1  0
  9  8  2  0
 10 12  1  0
 10  2  1  0
 11 10  2  0
 12 16  1  0
 13 14  1  0
 13 12  1  0
 14 15  1  0
 15 16  1  0
 16 17  1  1
 17 18  2  0
 19 20  1  0
 19 17  1  0
 20 26  1  0
 20 21  1  1
 22 21  1  0
 23 22  1  0
 24 23  1  0
 25 24  1  0
 26 27  1  0
 28 26  2  0
M  END
$$$$
