FPK.pdb
     RDKit          3D

 28 29  0  0  1  0  0  0  0  0999 V2000
    6.6032  -16.2638   25.8000 N   0  0  0  0  0  0  0  0  0  0  0  0
    7.1071  -15.4554   24.7611 C   0  0  1  0  0  0  0  0  0  0  0  0
    8.1016  -14.4072   25.2596 C   0  0  0  0  0  0  0  0  0  0  0  0
    7.4694  -13.4935   26.2317 C   0  0  0  0  0  0  0  0  0  0  0  0
    6.3343  -12.7926   25.8798 C   0  0  0  0  0  0  0  0  0  0  0  0
    5.7695  -11.9404   26.8138 C   0  0  0  0  0  0  0  0  0  0  0  0
    6.2979  -11.7684   28.0759 C   0  0  0  0  0  0  0  0  0  0  0  0
    7.4450  -12.4827   28.4186 C   0  0  0  0  0  0  0  0  0  0  0  0
    8.0197  -13.3424   27.4844 C   0  0  0  0  0  0  0  0  0  0  0  0
    7.6504  -16.1462   23.5630 C   0  0  0  0  0  0  0  0  0  0  0  0
    8.1854  -17.2853   23.8858 O   0  0  0  0  0  0  0  0  0  0  0  0
    7.6205  -15.6919   22.2534 N   0  0  0  0  0  0  0  0  0  0  0  0
    6.4038  -15.2323   21.5544 C   0  0  0  0  0  0  0  0  0  0  0  0
    6.9085  -13.9414   20.9120 C   0  0  0  0  0  0  0  0  0  0  0  0
    8.4380  -13.9616   21.0584 C   0  0  0  0  0  0  0  0  0  0  0  0
    8.6241  -15.4649   21.2722 C   0  0  1  0  0  0  0  0  0  0  0  0
    9.9789  -15.8945   21.4628 C   0  0  0  0  0  0  0  0  0  0  0  0
   10.9667  -15.1532   21.2983 O   0  0  0  0  0  0  0  0  0  0  0  0
   10.3159  -17.2375   21.8650 N   0  0  0  0  0  0  0  0  0  0  0  0
   11.5936  -17.6133   22.3791 C   0  0  1  0  0  0  0  0  0  0  0  0
   11.4164  -18.3889   23.6640 C   0  0  0  0  0  0  0  0  0  0  0  0
   12.7127  -18.8708   24.2532 C   0  0  0  0  0  0  0  0  0  0  0  0
   12.5563  -19.6743   25.5047 C   0  0  0  0  0  0  0  0  0  0  0  0
   13.8857  -20.0821   26.1005 C   0  0  0  0  0  0  0  0  0  0  0  0
   13.6119  -20.9444   27.2277 N   0  0  0  0  0  0  0  0  0  0  0  0
   12.3194  -18.5252   21.4338 C   0  0  0  0  0  0  0  0  0  0  0  0
   11.6847  -19.2628   20.4571 O   0  0  0  0  0  0  0  0  0  0  0  0
   13.5625  -18.6138   21.5447 O   0  0  0  0  0  0  0  0  0  0  0  0
  2  1  1  1
  3  2  1  0
  3  4  1  0
  4  5  2  0
  4  9  1  0
  5  6  1  0
  6  7  2  0
  7  8  1  0
  9  8  2  0
 10 12  1  0
 10  2  1  0
 11 10  2  0
 12 16  1  0
 13 14  1  0
 13 12  1  0
 14 15  1  0
 15 16  1  0
 16 17  1  1
 17 18  2  0
 19 20  1  0
 19 17  1  0
 20 26  1  0
 20 21  1  1
 22 21  1  0
 23 22  1  0
 24 23  1  0
 25 24  1  0
 26 27  1  0
 28 26  2  0
M  END
$$$$
