FPK.pdb
     RDKit          3D

 28 29  0  0  1  0  0  0  0  0999 V2000
    5.3826  -17.6680   24.3734 N   0  0  0  0  0  0  0  0  0  0  0  0
    6.1192  -16.4930   24.6261 C   0  0  1  0  0  0  0  0  0  0  0  0
    6.3450  -16.2486   26.1179 C   0  0  0  0  0  0  0  0  0  0  0  0
    6.6852  -14.8362   26.3805 C   0  0  0  0  0  0  0  0  0  0  0  0
    7.9985  -14.4735   26.5970 C   0  0  0  0  0  0  0  0  0  0  0  0
    8.2823  -13.1410   26.8452 C   0  0  0  0  0  0  0  0  0  0  0  0
    7.3047  -12.1692   26.8832 C   0  0  0  0  0  0  0  0  0  0  0  0
    5.9816  -12.5492   26.6625 C   0  0  0  0  0  0  0  0  0  0  0  0
    5.6875  -13.8882   26.4122 C   0  0  0  0  0  0  0  0  0  0  0  0
    7.3918  -16.3132   23.8805 C   0  0  0  0  0  0  0  0  0  0  0  0
    8.3242  -17.0801   24.3605 O   0  0  0  0  0  0  0  0  0  0  0  0
    7.6176  -15.4621   22.8095 N   0  0  0  0  0  0  0  0  0  0  0  0
    6.5601  -14.7293   22.0852 C   0  0  0  0  0  0  0  0  0  0  0  0
    7.1768  -13.3339   22.0052 C   0  0  0  0  0  0  0  0  0  0  0  0
    8.6481  -13.4933   22.4192 C   0  0  0  0  0  0  0  0  0  0  0  0
    8.7933  -14.9943   22.1613 C   0  0  1  0  0  0  0  0  0  0  0  0
   10.0858  -15.5442   22.4499 C   0  0  0  0  0  0  0  0  0  0  0  0
   11.1019  -15.3116   21.7674 O   0  0  0  0  0  0  0  0  0  0  0  0
   10.3207  -16.4242   23.5676 N   0  0  0  0  0  0  0  0  0  0  0  0
   11.5690  -16.5169   24.2541 C   0  0  1  0  0  0  0  0  0  0  0  0
   11.3757  -17.2444   25.5646 C   0  0  0  0  0  0  0  0  0  0  0  0
   12.6380  -17.3640   26.3720 C   0  0  0  0  0  0  0  0  0  0  0  0
   12.4859  -18.1503   27.6349 C   0  0  0  0  0  0  0  0  0  0  0  0
   13.7599  -18.1885   28.4498 C   0  0  0  0  0  0  0  0  0  0  0  0
   13.4705  -18.8932   29.6781 N   0  0  0  0  0  0  0  0  0  0  0  0
   12.5681  -17.3178   23.4715 C   0  0  0  0  0  0  0  0  0  0  0  0
   12.2845  -18.5486   22.9186 O   0  0  0  0  0  0  0  0  0  0  0  0
   13.7127  -16.8364   23.3179 O   0  0  0  0  0  0  0  0  0  0  0  0
  2  1  1  1
  3  2  1  0
  3  4  1  0
  4  5  2  0
  4  9  1  0
  5  6  1  0
  6  7  2  0
  7  8  1  0
  9  8  2  0
 10 12  1  0
 10  2  1  0
 11 10  2  0
 12 16  1  0
 13 14  1  0
 13 12  1  0
 14 15  1  0
 15 16  1  0
 16 17  1  1
 17 18  2  0
 19 20  1  0
 19 17  1  0
 20 26  1  0
 20 21  1  1
 22 21  1  0
 23 22  1  0
 24 23  1  0
 25 24  1  0
 26 27  1  0
 28 26  2  0
M  END
$$$$
