FPK.pdb
     RDKit          3D

 28 29  0  0  1  0  0  0  0  0999 V2000
    5.3550  -17.7486   24.7595 N   0  0  0  0  0  0  0  0  0  0  0  0
    6.1096  -16.5611   24.8451 C   0  0  1  0  0  0  0  0  0  0  0  0
    6.2747  -16.0703   26.2831 C   0  0  0  0  0  0  0  0  0  0  0  0
    6.5502  -14.6204   26.3225 C   0  0  0  0  0  0  0  0  0  0  0  0
    7.8303  -14.1697   26.5701 C   0  0  0  0  0  0  0  0  0  0  0  0
    8.0531  -12.8034   26.6050 C   0  0  0  0  0  0  0  0  0  0  0  0
    7.0470  -11.8825   26.4019 C   0  0  0  0  0  0  0  0  0  0  0  0
    5.7579  -12.3514   26.1525 C   0  0  0  0  0  0  0  0  0  0  0  0
    5.5253  -13.7249   26.1159 C   0  0  0  0  0  0  0  0  0  0  0  0
    7.4184  -16.5336   24.1422 C   0  0  0  0  0  0  0  0  0  0  0  0
    8.3085  -17.2237   24.7898 O   0  0  0  0  0  0  0  0  0  0  0  0
    7.7136  -15.8816   22.9547 N   0  0  0  0  0  0  0  0  0  0  0  0
    6.7385  -15.6238   21.8765 C   0  0  0  0  0  0  0  0  0  0  0  0
    7.0314  -14.1572   21.5649 C   0  0  0  0  0  0  0  0  0  0  0  0
    8.3480  -13.8231   22.2835 C   0  0  0  0  0  0  0  0  0  0  0  0
    8.8816  -15.2473   22.4498 C   0  0  1  0  0  0  0  0  0  0  0  0
   10.1478  -15.3544   23.1144 C   0  0  0  0  0  0  0  0  0  0  0  0
   10.3684  -14.9022   24.2542 O   0  0  0  0  0  0  0  0  0  0  0  0
   11.2862  -16.0020   22.5115 N   0  0  0  0  0  0  0  0  0  0  0  0
   12.3510  -16.5897   23.2590 C   0  0  1  0  0  0  0  0  0  0  0  0
   11.8526  -17.8298   23.9646 C   0  0  0  0  0  0  0  0  0  0  0  0
   12.9268  -18.5546   24.7265 C   0  0  0  0  0  0  0  0  0  0  0  0
   12.4740  -19.8311   25.3604 C   0  0  0  0  0  0  0  0  0  0  0  0
   13.5834  -20.5261   26.1186 C   0  0  0  0  0  0  0  0  0  0  0  0
   13.3425  -20.3207   27.5288 N   0  0  0  0  0  0  0  0  0  0  0  0
   13.4697  -17.0357   22.3638 C   0  0  0  0  0  0  0  0  0  0  0  0
   14.8019  -16.8880   22.6869 O   0  0  0  0  0  0  0  0  0  0  0  0
   13.1689  -17.5675   21.2719 O   0  0  0  0  0  0  0  0  0  0  0  0
  2  1  1  1
  3  2  1  0
  3  4  1  0
  4  5  2  0
  4  9  1  0
  5  6  1  0
  6  7  2  0
  7  8  1  0
  9  8  2  0
 10 12  1  0
 10  2  1  0
 11 10  2  0
 12 16  1  0
 13 14  1  0
 13 12  1  0
 14 15  1  0
 15 16  1  0
 16 17  1  1
 17 18  2  0
 19 20  1  0
 19 17  1  0
 20 26  1  0
 20 21  1  6
 22 21  1  0
 23 22  1  0
 24 23  1  0
 25 24  1  0
 26 27  1  0
 28 26  2  0
M  END
$$$$
