FPK.pdb
     RDKit          3D

 28 29  0  0  1  0  0  0  0  0999 V2000
    5.3912  -17.7507   24.7088 N   0  0  0  0  0  0  0  0  0  0  0  0
    6.0753  -16.5216   24.7991 C   0  0  1  0  0  0  0  0  0  0  0  0
    6.1791  -16.0092   26.2354 C   0  0  0  0  0  0  0  0  0  0  0  0
    6.4564  -14.5595   26.2647 C   0  0  0  0  0  0  0  0  0  0  0  0
    7.7507  -14.1095   26.4245 C   0  0  0  0  0  0  0  0  0  0  0  0
    7.9752  -12.7433   26.4525 C   0  0  0  0  0  0  0  0  0  0  0  0
    6.9570  -11.8218   26.3269 C   0  0  0  0  0  0  0  0  0  0  0  0
    5.6537  -12.2899   26.1658 C   0  0  0  0  0  0  0  0  0  0  0  0
    5.4193  -13.6633   26.1367 C   0  0  0  0  0  0  0  0  0  0  0  0
    7.3964  -16.4261   24.1258 C   0  0  0  0  0  0  0  0  0  0  0  0
    8.3296  -16.9597   24.8553 O   0  0  0  0  0  0  0  0  0  0  0  0
    7.6627  -15.8596   22.8886 N   0  0  0  0  0  0  0  0  0  0  0  0
    6.6641  -15.6862   21.8149 C   0  0  0  0  0  0  0  0  0  0  0  0
    6.9395  -14.2441   21.3927 C   0  0  0  0  0  0  0  0  0  0  0  0
    8.2677  -13.8510   22.0581 C   0  0  0  0  0  0  0  0  0  0  0  0
    8.8154  -15.2561   22.3155 C   0  0  1  0  0  0  0  0  0  0  0  0
   10.0954  -15.3072   22.9599 C   0  0  0  0  0  0  0  0  0  0  0  0
   10.3744  -14.6652   23.9905 O   0  0  0  0  0  0  0  0  0  0  0  0
   11.1808  -16.1155   22.4624 N   0  0  0  0  0  0  0  0  0  0  0  0
   12.3290  -16.4630   23.2364 C   0  0  1  0  0  0  0  0  0  0  0  0
   11.9205  -17.3748   24.3704 C   0  0  0  0  0  0  0  0  0  0  0  0
   13.0800  -17.8494   25.2010 C   0  0  0  0  0  0  0  0  0  0  0  0
   12.7103  -18.8334   26.2647 C   0  0  0  0  0  0  0  0  0  0  0  0
   13.8755  -19.1757   27.1667 C   0  0  0  0  0  0  0  0  0  0  0  0
   13.3715  -20.0147   28.2302 N   0  0  0  0  0  0  0  0  0  0  0  0
   13.3300  -17.2279   22.4211 C   0  0  0  0  0  0  0  0  0  0  0  0
   12.9822  -18.0350   21.3588 O   0  0  0  0  0  0  0  0  0  0  0  0
   14.5384  -17.1213   22.7278 O   0  0  0  0  0  0  0  0  0  0  0  0
  2  1  1  1
  3  2  1  0
  3  4  1  0
  4  5  2  0
  4  9  1  0
  5  6  1  0
  6  7  2  0
  7  8  1  0
  9  8  2  0
 10 12  1  0
 10  2  1  0
 11 10  2  0
 12 16  1  0
 13 14  1  0
 13 12  1  0
 14 15  1  0
 15 16  1  0
 16 17  1  1
 17 18  2  0
 19 20  1  0
 19 17  1  0
 20 26  1  0
 20 21  1  1
 22 21  1  0
 23 22  1  0
 24 23  1  0
 25 24  1  0
 26 27  1  0
 28 26  2  0
M  END
$$$$
