FPK.pdb
     RDKit          3D

 28 29  0  0  1  0  0  0  0  0999 V2000
    5.6015  -17.5707   25.0222 N   0  0  0  0  0  0  0  0  0  0  0  0
    6.4328  -16.4338   24.9663 C   0  0  1  0  0  0  0  0  0  0  0  0
    6.8728  -15.9570   26.3502 C   0  0  0  0  0  0  0  0  0  0  0  0
    6.7231  -14.4942   26.4818 C   0  0  0  0  0  0  0  0  0  0  0  0
    5.4695  -13.9220   26.4147 C   0  0  0  0  0  0  0  0  0  0  0  0
    5.3651  -12.5465   26.5371 C   0  0  0  0  0  0  0  0  0  0  0  0
    6.4629  -11.7331   26.7228 C   0  0  0  0  0  0  0  0  0  0  0  0
    7.7239  -12.3241   26.7890 C   0  0  0  0  0  0  0  0  0  0  0  0
    7.8377  -13.7076   26.6666 C   0  0  0  0  0  0  0  0  0  0  0  0
    7.6007  -16.4884   24.0493 C   0  0  0  0  0  0  0  0  0  0  0  0
    8.5064  -17.3046   24.4981 O   0  0  0  0  0  0  0  0  0  0  0  0
    7.7620  -15.7907   22.8621 N   0  0  0  0  0  0  0  0  0  0  0  0
    6.6685  -15.4748   21.9216 C   0  0  0  0  0  0  0  0  0  0  0  0
    6.9482  -14.0003   21.6363 C   0  0  0  0  0  0  0  0  0  0  0  0
    8.3478  -13.7141   22.2024 C   0  0  0  0  0  0  0  0  0  0  0  0
    8.8717  -15.1509   22.2451 C   0  0  1  0  0  0  0  0  0  0  0  0
   10.2068  -15.3026   22.7461 C   0  0  0  0  0  0  0  0  0  0  0  0
   10.6681  -14.6352   23.6916 O   0  0  0  0  0  0  0  0  0  0  0  0
   11.1391  -16.2516   22.1901 N   0  0  0  0  0  0  0  0  0  0  0  0
   12.2681  -16.7615   22.8996 C   0  0  1  0  0  0  0  0  0  0  0  0
   11.8106  -17.7799   23.9182 C   0  0  0  0  0  0  0  0  0  0  0  0
   12.9295  -18.3227   24.7627 C   0  0  0  0  0  0  0  0  0  0  0  0
   12.4988  -19.3389   25.7718 C   0  0  0  0  0  0  0  0  0  0  0  0
   13.6480  -19.8321   26.6232 C   0  0  0  0  0  0  0  0  0  0  0  0
   13.1242  -20.8334   27.5243 N   0  0  0  0  0  0  0  0  0  0  0  0
   13.2147  -17.4792   21.9827 C   0  0  0  0  0  0  0  0  0  0  0  0
   12.7981  -18.3223   20.9745 O   0  0  0  0  0  0  0  0  0  0  0  0
   14.4413  -17.2969   22.1487 O   0  0  0  0  0  0  0  0  0  0  0  0
  2  1  1  1
  3  2  1  0
  3  4  1  0
  4  5  2  0
  4  9  1  0
  5  6  1  0
  6  7  2  0
  7  8  1  0
  9  8  2  0
 10 12  1  0
 10  2  1  0
 11 10  2  0
 12 16  1  0
 13 14  1  0
 13 12  1  0
 14 15  1  0
 15 16  1  0
 16 17  1  1
 17 18  2  0
 19 20  1  0
 19 17  1  0
 20 26  1  0
 20 21  1  1
 22 21  1  0
 23 22  1  0
 24 23  1  0
 25 24  1  0
 26 27  1  0
 28 26  2  0
M  END
$$$$
