FVE.pdb
     RDKit          3D

 28 28  0  0  1  0  0  0  0  0999 V2000
    5.8434  -18.0885   25.7282 N   0  0  0  0  0  0  0  0  0  0  0  0
    6.3854  -16.7728   25.6099 C   0  0  1  0  0  0  0  0  0  0  0  0
    6.8518  -16.2484   26.9265 C   0  0  0  0  0  0  0  0  0  0  0  0
    6.9734  -14.7809   26.8215 C   0  0  0  0  0  0  0  0  0  0  0  0
    5.8596  -13.9857   26.7500 C   0  0  0  0  0  0  0  0  0  0  0  0
    5.9546  -12.5934   26.6491 C   0  0  0  0  0  0  0  0  0  0  0  0
    7.2237  -12.0228   26.6224 C   0  0  0  0  0  0  0  0  0  0  0  0
    8.3504  -12.8056   26.6931 C   0  0  0  0  0  0  0  0  0  0  0  0
    8.2116  -14.1742   26.7917 C   0  0  0  0  0  0  0  0  0  0  0  0
    7.4119  -16.6734   24.5330 C   0  0  0  0  0  0  0  0  0  0  0  0
    8.3067  -17.5232   24.4585 O   0  0  0  0  0  0  0  0  0  0  0  0
    8.9349  -14.3481   20.3627 C   0  0  0  0  0  0  0  0  0  0  0  0
    8.0489  -14.3739   21.5591 C   0  0  2  0  0  0  0  0  0  0  0  0
    8.1442  -13.0709   22.3288 C   0  0  0  0  0  0  0  0  0  0  0  0
    8.3623  -15.4972   22.5228 C   0  0  2  0  0  0  0  0  0  0  0  0
    7.4026  -15.6240   23.5731 N   0  0  0  0  0  0  0  0  0  0  0  0
    9.7692  -15.4158   23.0272 C   0  0  0  0  0  0  0  0  0  0  0  0
   10.1618  -14.5489   23.8194 O   0  0  0  0  0  0  0  0  0  0  0  0
   10.7159  -16.3736   22.5852 N   0  0  0  0  0  0  0  0  0  0  0  0
   12.1015  -16.3337   23.0424 C   0  0  1  0  0  0  0  0  0  0  0  0
   12.4793  -17.5885   23.7471 C   0  0  0  0  0  0  0  0  0  0  0  0
   11.7094  -18.0001   24.9315 C   0  0  0  0  0  0  0  0  0  0  0  0
   12.1130  -19.1437   25.7122 C   0  0  0  0  0  0  0  0  0  0  0  0
   13.0597  -19.2640   26.4969 O   0  0  0  0  0  0  0  0  0  0  0  0
   12.9463  -15.9063   21.9369 C   0  0  0  0  0  0  0  0  0  0  0  0
   14.0952  -15.4694   22.1406 O   0  0  0  0  0  0  0  0  0  0  0  0
   11.3168  -20.3095   25.5699 O   0  0  0  0  0  0  0  0  0  0  0  0
   12.4824  -15.9856   20.6354 O   0  0  0  0  0  0  0  0  0  0  0  0
  2 10  1  0
  2  1  1  1
  3  4  1  0
  3  2  1  0
  4  5  2  0
  5  6  1  0
  7  6  2  0
  8  7  1  0
  9  8  2  0
  9  4  1  0
 10 11  2  0
 13 12  1  6
 14 13  1  0
 15 13  1  0
 15 16  1  1
 16 10  1  0
 17 15  1  0
 18 17  2  0
 19 17  1  0
 20 19  1  0
 20 21  1  6
 22 21  1  0
 23 22  1  0
 24 23  2  0
 25 20  1  0
 25 28  1  0
 26 25  2  0
 27 23  1  0
M  END
$$$$
