FVE.pdb
     RDKit          3D

 28 28  0  0  1  0  0  0  0  0999 V2000
    5.4357  -17.2197   24.8440 N   0  0  0  0  0  0  0  0  0  0  0  0
    6.5755  -16.4025   24.5761 C   0  0  1  0  0  0  0  0  0  0  0  0
    7.4367  -16.2445   25.7841 C   0  0  0  0  0  0  0  0  0  0  0  0
    7.3815  -14.8316   26.2084 C   0  0  0  0  0  0  0  0  0  0  0  0
    8.5263  -14.0885   26.3315 C   0  0  0  0  0  0  0  0  0  0  0  0
    8.4944  -12.7486   26.7331 C   0  0  0  0  0  0  0  0  0  0  0  0
    7.2563  -12.1761   27.0096 C   0  0  0  0  0  0  0  0  0  0  0  0
    6.0993  -12.9070   26.8912 C   0  0  0  0  0  0  0  0  0  0  0  0
    6.1759  -14.2251   26.4923 C   0  0  0  0  0  0  0  0  0  0  0  0
    7.3245  -16.8472   23.3660 C   0  0  0  0  0  0  0  0  0  0  0  0
    8.0691  -17.8318   23.4332 O   0  0  0  0  0  0  0  0  0  0  0  0
    6.2787  -13.4231   21.5125 C   0  0  0  0  0  0  0  0  0  0  0  0
    7.6262  -13.7523   22.0537 C   0  0  2  0  0  0  0  0  0  0  0  0
    8.6637  -12.7660   21.5534 C   0  0  0  0  0  0  0  0  0  0  0  0
    8.1040  -15.1409   21.6901 C   0  0  2  0  0  0  0  0  0  0  0  0
    7.2150  -16.1737   22.1181 N   0  0  0  0  0  0  0  0  0  0  0  0
    9.5168  -15.3712   22.1277 C   0  0  0  0  0  0  0  0  0  0  0  0
   10.4791  -14.7197   21.7001 O   0  0  0  0  0  0  0  0  0  0  0  0
    9.7861  -16.3845   23.0813 N   0  0  0  0  0  0  0  0  0  0  0  0
   11.1193  -16.5510   23.6515 C   0  0  1  0  0  0  0  0  0  0  0  0
   11.0737  -17.3043   24.9338 C   0  0  0  0  0  0  0  0  0  0  0  0
   12.3383  -17.6653   25.5935 C   0  0  0  0  0  0  0  0  0  0  0  0
   12.3384  -18.3388   26.8689 C   0  0  0  0  0  0  0  0  0  0  0  0
   11.6414  -19.2814   27.2591 O   0  0  0  0  0  0  0  0  0  0  0  0
   12.0124  -17.0474   22.6149 C   0  0  0  0  0  0  0  0  0  0  0  0
   11.6917  -18.0199   21.9052 O   0  0  0  0  0  0  0  0  0  0  0  0
   13.2693  -17.8613   27.8273 O   0  0  0  0  0  0  0  0  0  0  0  0
   13.2357  -16.4371   22.3993 O   0  0  0  0  0  0  0  0  0  0  0  0
  2 10  1  0
  2  1  1  1
  3  4  1  0
  3  2  1  0
  4  5  2  0
  5  6  1  0
  7  6  2  0
  8  7  1  0
  9  8  2  0
  9  4  1  0
 10 11  2  0
 13 12  1  6
 14 13  1  0
 15 13  1  0
 15 16  1  1
 16 10  1  0
 17 15  1  0
 18 17  2  0
 19 17  1  0
 20 19  1  0
 20 21  1  1
 22 21  1  0
 23 22  1  0
 24 23  2  0
 25 20  1  0
 25 28  1  0
 26 25  2  0
 27 23  1  0
M  END
$$$$
