FVE.pdb
     RDKit          3D

 28 28  0  0  1  0  0  0  0  0999 V2000
    5.9399  -17.8475   25.8113 N   0  0  0  0  0  0  0  0  0  0  0  0
    6.5189  -16.5797   25.5012 C   0  0  1  0  0  0  0  0  0  0  0  0
    7.3229  -16.0477   26.6398 C   0  0  0  0  0  0  0  0  0  0  0  0
    7.1332  -14.5846   26.6944 C   0  0  0  0  0  0  0  0  0  0  0  0
    5.8784  -14.0355   26.6514 C   0  0  0  0  0  0  0  0  0  0  0  0
    5.6786  -12.6516   26.7010 C   0  0  0  0  0  0  0  0  0  0  0  0
    6.7981  -11.8303   26.7963 C   0  0  0  0  0  0  0  0  0  0  0  0
    8.0629  -12.3645   26.8404 C   0  0  0  0  0  0  0  0  0  0  0  0
    8.2150  -13.7344   26.7889 C   0  0  0  0  0  0  0  0  0  0  0  0
    7.2575  -16.5914   24.2060 C   0  0  0  0  0  0  0  0  0  0  0  0
    7.7655  -17.6425   23.7993 O   0  0  0  0  0  0  0  0  0  0  0  0
    8.4252  -14.0767   20.0244 C   0  0  0  0  0  0  0  0  0  0  0  0
    7.9268  -14.0662   21.4274 C   0  0  2  0  0  0  0  0  0  0  0  0
    8.7272  -13.0978   22.2766 C   0  0  0  0  0  0  0  0  0  0  0  0
    7.9834  -15.4192   22.1020 C   0  0  2  0  0  0  0  0  0  0  0  0
    7.4033  -15.4237   23.4073 N   0  0  0  0  0  0  0  0  0  0  0  0
    9.3666  -15.9908   22.0783 C   0  0  0  0  0  0  0  0  0  0  0  0
   10.0068  -16.1870   21.0367 O   0  0  0  0  0  0  0  0  0  0  0  0
    9.9922  -16.3316   23.3035 N   0  0  0  0  0  0  0  0  0  0  0  0
   11.3409  -16.8888   23.3344 C   0  0  1  0  0  0  0  0  0  0  0  0
   12.3254  -15.9686   22.7036 C   0  0  0  0  0  0  0  0  0  0  0  0
   13.7011  -16.4408   22.4812 C   0  0  0  0  0  0  0  0  0  0  0  0
   14.7111  -15.5512   21.9629 C   0  0  0  0  0  0  0  0  0  0  0  0
   15.3812  -14.6962   22.5515 O   0  0  0  0  0  0  0  0  0  0  0  0
   11.6254  -17.3497   24.6853 C   0  0  0  0  0  0  0  0  0  0  0  0
   11.2414  -16.7011   25.6774 O   0  0  0  0  0  0  0  0  0  0  0  0
   14.9878  -15.6610   20.5756 O   0  0  0  0  0  0  0  0  0  0  0  0
   12.3265  -18.5259   24.8862 O   0  0  0  0  0  0  0  0  0  0  0  0
  2 10  1  0
  2  1  1  1
  3  4  1  0
  3  2  1  0
  4  5  2  0
  5  6  1  0
  7  6  2  0
  8  7  1  0
  9  8  2  0
  9  4  1  0
 10 11  2  0
 13 12  1  6
 14 13  1  0
 15 13  1  0
 15 16  1  1
 16 10  1  0
 17 15  1  0
 18 17  2  0
 19 17  1  0
 20 19  1  0
 20 21  1  1
 22 21  1  0
 23 22  1  0
 24 23  2  0
 25 20  1  0
 25 28  1  0
 26 25  2  0
 27 23  1  0
M  END
$$$$
