FVE.pdb
     RDKit          3D

 28 28  0  0  1  0  0  0  0  0999 V2000
    7.9225  -17.4737   27.0653 N   0  0  0  0  0  0  0  0  0  0  0  0
    8.3620  -16.4279   26.1982 C   0  0  1  0  0  0  0  0  0  0  0  0
    9.7922  -16.0776   26.4381 C   0  0  0  0  0  0  0  0  0  0  0  0
    9.8614  -15.2148   27.6340 C   0  0  0  0  0  0  0  0  0  0  0  0
   10.4548  -15.6568   28.7874 C   0  0  0  0  0  0  0  0  0  0  0  0
   10.5292  -14.8543   29.9311 C   0  0  0  0  0  0  0  0  0  0  0  0
    9.9793  -13.5770   29.8730 C   0  0  0  0  0  0  0  0  0  0  0  0
    9.3808  -13.1186   28.7247 C   0  0  0  0  0  0  0  0  0  0  0  0
    9.3292  -13.9425   27.6198 C   0  0  0  0  0  0  0  0  0  0  0  0
    8.0498  -16.7048   24.7666 C   0  0  0  0  0  0  0  0  0  0  0  0
    8.0670  -17.8683   24.3493 O   0  0  0  0  0  0  0  0  0  0  0  0
    7.5313  -14.7054   20.1947 C   0  0  0  0  0  0  0  0  0  0  0  0
    7.3680  -14.5890   21.6701 C   0  0  2  0  0  0  0  0  0  0  0  0
    8.0298  -13.3267   22.1878 C   0  0  0  0  0  0  0  0  0  0  0  0
    7.9468  -15.7561   22.4392 C   0  0  2  0  0  0  0  0  0  0  0  0
    7.7280  -15.6679   23.8480 N   0  0  0  0  0  0  0  0  0  0  0  0
    9.3824  -15.9921   22.0872 C   0  0  0  0  0  0  0  0  0  0  0  0
   10.3275  -15.4437   22.6695 O   0  0  0  0  0  0  0  0  0  0  0  0
    9.6951  -16.8877   21.0342 N   0  0  0  0  0  0  0  0  0  0  0  0
   11.0443  -17.4199   20.8701 C   0  0  1  0  0  0  0  0  0  0  0  0
   11.1234  -18.8445   21.2920 C   0  0  0  0  0  0  0  0  0  0  0  0
   12.3842  -19.5770   21.0949 C   0  0  0  0  0  0  0  0  0  0  0  0
   12.4907  -20.9704   21.4518 C   0  0  0  0  0  0  0  0  0  0  0  0
   12.3376  -21.5133   22.5510 O   0  0  0  0  0  0  0  0  0  0  0  0
   11.5174  -17.0902   19.5336 C   0  0  0  0  0  0  0  0  0  0  0  0
   10.7188  -16.9539   18.5871 O   0  0  0  0  0  0  0  0  0  0  0  0
   12.8186  -21.8618   20.3977 O   0  0  0  0  0  0  0  0  0  0  0  0
   12.8700  -16.9174   19.2971 O   0  0  0  0  0  0  0  0  0  0  0  0
  2 10  1  0
  2  1  1  1
  3  4  1  0
  3  2  1  0
  4  5  2  0
  5  6  1  0
  7  6  2  0
  8  7  1  0
  9  8  2  0
  9  4  1  0
 10 11  2  0
 13 12  1  6
 14 13  1  0
 15 13  1  0
 15 16  1  1
 16 10  1  0
 17 15  1  0
 18 17  2  0
 19 17  1  0
 20 19  1  0
 20 21  1  6
 22 21  1  0
 23 22  1  0
 24 23  2  0
 25 20  1  0
 25 28  1  0
 26 25  2  0
 27 23  1  0
M  END
$$$$
