FVE.pdb
     RDKit          3D

 28 28  0  0  1  0  0  0  0  0999 V2000
    7.7397  -13.0031   20.2402 N   0  0  0  0  0  0  0  0  0  0  0  0
    7.1706  -13.9961   21.0939 C   0  0  1  0  0  0  0  0  0  0  0  0
    6.9852  -15.2942   20.3822 C   0  0  0  0  0  0  0  0  0  0  0  0
    6.2188  -16.1976   21.2630 C   0  0  0  0  0  0  0  0  0  0  0  0
    6.8471  -16.9385   22.2295 C   0  0  0  0  0  0  0  0  0  0  0  0
    6.1381  -17.8007   23.0730 C   0  0  0  0  0  0  0  0  0  0  0  0
    4.7592  -17.8926   22.9080 C   0  0  0  0  0  0  0  0  0  0  0  0
    4.1139  -17.1569   21.9440 C   0  0  0  0  0  0  0  0  0  0  0  0
    4.8511  -16.3189   21.1337 C   0  0  0  0  0  0  0  0  0  0  0  0
    7.9037  -14.1257   22.3858 C   0  0  0  0  0  0  0  0  0  0  0  0
    9.1095  -14.3987   22.3819 O   0  0  0  0  0  0  0  0  0  0  0  0
    5.9133  -13.4570   26.2799 C   0  0  0  0  0  0  0  0  0  0  0  0
    7.3274  -13.1219   25.9559 C   0  0  2  0  0  0  0  0  0  0  0  0
    7.4440  -11.6912   25.4672 C   0  0  0  0  0  0  0  0  0  0  0  0
    7.9365  -14.0163   24.8987 C   0  0  2  0  0  0  0  0  0  0  0  0
    7.2616  -13.9451   23.6419 N   0  0  0  0  0  0  0  0  0  0  0  0
    8.1021  -15.4201   25.3913 C   0  0  0  0  0  0  0  0  0  0  0  0
    7.1811  -16.2471   25.4196 O   0  0  0  0  0  0  0  0  0  0  0  0
    9.3736  -15.8424   25.8534 N   0  0  0  0  0  0  0  0  0  0  0  0
    9.6943  -17.2593   25.9946 C   0  0  1  0  0  0  0  0  0  0  0  0
   10.6545  -17.7076   24.9501 C   0  0  0  0  0  0  0  0  0  0  0  0
   11.2470  -19.0503   25.0560 C   0  0  0  0  0  0  0  0  0  0  0  0
   12.2135  -19.5079   24.0883 C   0  0  0  0  0  0  0  0  0  0  0  0
   12.8184  -20.5838   24.0310 O   0  0  0  0  0  0  0  0  0  0  0  0
   10.0435  -17.5234   27.3827 C   0  0  0  0  0  0  0  0  0  0  0  0
   10.2317  -16.5887   28.1847 O   0  0  0  0  0  0  0  0  0  0  0  0
   12.5269  -18.6021   23.0421 O   0  0  0  0  0  0  0  0  0  0  0  0
   10.1664  -18.8260   27.8337 O   0  0  0  0  0  0  0  0  0  0  0  0
  2 10  1  0
  2  1  1  6
  3  4  1  0
  3  2  1  0
  4  5  2  0
  5  6  1  0
  7  6  2  0
  8  7  1  0
  9  8  2  0
  9  4  1  0
 10 11  2  0
 13 12  1  6
 14 13  1  0
 15 13  1  0
 15 16  1  6
 16 10  1  0
 17 15  1  0
 18 17  2  0
 19 17  1  0
 20 19  1  0
 20 21  1  6
 22 21  1  0
 23 22  1  0
 24 23  2  0
 25 20  1  0
 25 28  1  0
 26 25  2  0
 27 23  1  0
M  END
$$$$
