FVE.pdb
     RDKit          3D

 28 28  0  0  1  0  0  0  0  0999 V2000
    5.8699  -18.0398   25.7873 N   0  0  0  0  0  0  0  0  0  0  0  0
    6.4231  -16.7274   25.6866 C   0  0  1  0  0  0  0  0  0  0  0  0
    6.9444  -16.2467   26.9992 C   0  0  0  0  0  0  0  0  0  0  0  0
    7.0403  -14.7745   26.9463 C   0  0  0  0  0  0  0  0  0  0  0  0
    5.9168  -14.0001   26.8205 C   0  0  0  0  0  0  0  0  0  0  0  0
    5.9875  -12.6037   26.7676 C   0  0  0  0  0  0  0  0  0  0  0  0
    7.2424  -12.0071   26.8466 C   0  0  0  0  0  0  0  0  0  0  0  0
    8.3786  -12.7688   26.9729 C   0  0  0  0  0  0  0  0  0  0  0  0
    8.2638  -14.1424   27.0211 C   0  0  0  0  0  0  0  0  0  0  0  0
    7.4101  -16.6080   24.5752 C   0  0  0  0  0  0  0  0  0  0  0  0
    8.2674  -17.4851   24.4198 O   0  0  0  0  0  0  0  0  0  0  0  0
    6.7290  -14.1374   21.1282 C   0  0  0  0  0  0  0  0  0  0  0  0
    8.0790  -14.1272   21.7563 C   0  0  2  0  0  0  0  0  0  0  0  0
    9.1647  -14.0621   20.6997 C   0  0  0  0  0  0  0  0  0  0  0  0
    8.3556  -15.3375   22.6209 C   0  0  2  0  0  0  0  0  0  0  0  0
    7.4046  -15.5088   23.6729 N   0  0  0  0  0  0  0  0  0  0  0  0
    9.7710  -15.3569   23.1074 C   0  0  0  0  0  0  0  0  0  0  0  0
   10.2785  -14.4415   23.7689 O   0  0  0  0  0  0  0  0  0  0  0  0
   10.5883  -16.4744   22.8042 N   0  0  0  0  0  0  0  0  0  0  0  0
   11.9244  -16.6111   23.3757 C   0  0  1  0  0  0  0  0  0  0  0  0
   12.1429  -17.9740   23.9312 C   0  0  0  0  0  0  0  0  0  0  0  0
   13.4824  -18.3382   24.4192 C   0  0  0  0  0  0  0  0  0  0  0  0
   13.7304  -19.6394   24.9898 C   0  0  0  0  0  0  0  0  0  0  0  0
   13.3774  -20.7531   24.5880 O   0  0  0  0  0  0  0  0  0  0  0  0
   12.8974  -16.1167   22.4127 C   0  0  0  0  0  0  0  0  0  0  0  0
   12.6825  -16.1941   21.1879 O   0  0  0  0  0  0  0  0  0  0  0  0
   14.4897  -19.6614   26.1882 O   0  0  0  0  0  0  0  0  0  0  0  0
   14.0798  -15.5451   22.8491 O   0  0  0  0  0  0  0  0  0  0  0  0
  2 10  1  0
  2  1  1  1
  3  4  1  0
  3  2  1  0
  4  5  2  0
  5  6  1  0
  7  6  2  0
  8  7  1  0
  9  8  2  0
  9  4  1  0
 10 11  2  0
 13 12  1  6
 14 13  1  0
 15 13  1  0
 15 16  1  1
 16 10  1  0
 17 15  1  0
 18 17  2  0
 19 17  1  0
 20 19  1  0
 20 21  1  6
 22 21  1  0
 23 22  1  0
 24 23  2  0
 25 20  1  0
 25 28  1  0
 26 25  2  0
 27 23  1  0
M  END
$$$$
