FVE.pdb
     RDKit          3D

 28 28  0  0  1  0  0  0  0  0999 V2000
    5.8426  -17.5020   25.9583 N   0  0  0  0  0  0  0  0  0  0  0  0
    6.5764  -16.3475   25.5497 C   0  0  1  0  0  0  0  0  0  0  0  0
    7.2908  -15.7141   26.6962 C   0  0  0  0  0  0  0  0  0  0  0  0
    6.9219  -14.2853   26.7369 C   0  0  0  0  0  0  0  0  0  0  0  0
    7.8799  -13.3085   26.6588 C   0  0  0  0  0  0  0  0  0  0  0  0
    7.5500  -11.9494   26.6967 C   0  0  0  0  0  0  0  0  0  0  0  0
    6.2073  -11.6035   26.8174 C   0  0  0  0  0  0  0  0  0  0  0  0
    5.2346  -12.5701   26.8969 C   0  0  0  0  0  0  0  0  0  0  0  0
    5.6035  -13.8985   26.8557 C   0  0  0  0  0  0  0  0  0  0  0  0
    7.4564  -16.6166   24.3764 C   0  0  0  0  0  0  0  0  0  0  0  0
    7.8851  -17.7596   24.1809 O   0  0  0  0  0  0  0  0  0  0  0  0
    7.1082  -14.4904   20.8739 C   0  0  0  0  0  0  0  0  0  0  0  0
    8.5227  -14.7522   21.2583 C   0  0  2  0  0  0  0  0  0  0  0  0
    9.3343  -15.1970   20.0571 C   0  0  0  0  0  0  0  0  0  0  0  0
    8.6752  -15.8099   22.3291 C   0  0  2  0  0  0  0  0  0  0  0  0
    7.8280  -15.5954   23.4590 N   0  0  0  0  0  0  0  0  0  0  0  0
   10.1095  -16.0103   22.7073 C   0  0  0  0  0  0  0  0  0  0  0  0
   10.7295  -15.2497   23.4625 O   0  0  0  0  0  0  0  0  0  0  0  0
   10.8110  -17.1244   22.1826 N   0  0  0  0  0  0  0  0  0  0  0  0
   12.1835  -17.4126   22.5874 C   0  0  1  0  0  0  0  0  0  0  0  0
   13.1250  -16.3658   22.1060 C   0  0  0  0  0  0  0  0  0  0  0  0
   14.5466  -16.4629   22.4729 C   0  0  0  0  0  0  0  0  0  0  0  0
   15.5115  -15.5352   21.9358 C   0  0  0  0  0  0  0  0  0  0  0  0
   16.0669  -15.5313   20.8321 O   0  0  0  0  0  0  0  0  0  0  0  0
   12.1962  -17.7215   24.0097 C   0  0  0  0  0  0  0  0  0  0  0  0
   12.7073  -18.7767   24.4313 O   0  0  0  0  0  0  0  0  0  0  0  0
   15.8890  -14.4643   22.7865 O   0  0  0  0  0  0  0  0  0  0  0  0
   11.6414  -16.8378   24.9188 O   0  0  0  0  0  0  0  0  0  0  0  0
  2 10  1  0
  2  1  1  1
  3  4  1  0
  3  2  1  0
  4  5  2  0
  5  6  1  0
  7  6  2  0
  8  7  1  0
  9  8  2  0
  9  4  1  0
 10 11  2  0
 13 12  1  6
 14 13  1  0
 15 13  1  0
 15 16  1  1
 16 10  1  0
 17 15  1  0
 18 17  2  0
 19 17  1  0
 20 19  1  0
 20 21  1  1
 22 21  1  0
 23 22  1  0
 24 23  2  0
 25 20  1  0
 25 28  1  0
 26 25  2  0
 27 23  1  0
M  END
$$$$
