FVE.pdb
     RDKit          3D

 28 28  0  0  1  0  0  0  0  0999 V2000
    5.9954  -17.5452   25.8529 N   0  0  0  0  0  0  0  0  0  0  0  0
    6.6406  -16.3036   25.5686 C   0  0  1  0  0  0  0  0  0  0  0  0
    7.2440  -15.7028   26.7937 C   0  0  0  0  0  0  0  0  0  0  0  0
    6.8259  -14.2889   26.8679 C   0  0  0  0  0  0  0  0  0  0  0  0
    5.4999  -13.9497   26.9367 C   0  0  0  0  0  0  0  0  0  0  0  0
    5.0841  -12.6157   27.0066 C   0  0  0  0  0  0  0  0  0  0  0  0
    6.0602  -11.6235   27.0048 C   0  0  0  0  0  0  0  0  0  0  0  0
    7.3936  -11.9464   26.9362 C   0  0  0  0  0  0  0  0  0  0  0  0
    7.7600  -13.2743   26.8686 C   0  0  0  0  0  0  0  0  0  0  0  0
    7.5923  -16.4040   24.4251 C   0  0  0  0  0  0  0  0  0  0  0  0
    8.3635  -17.3674   24.3520 O   0  0  0  0  0  0  0  0  0  0  0  0
    8.5929  -13.0481   21.6486 C   0  0  0  0  0  0  0  0  0  0  0  0
    8.2577  -14.4375   21.2313 C   0  0  2  0  0  0  0  0  0  0  0  0
    6.7897  -14.5523   20.8691 C   0  0  0  0  0  0  0  0  0  0  0  0
    8.5488  -15.4769   22.2912 C   0  0  2  0  0  0  0  0  0  0  0  0
    7.6491  -15.4206   23.3992 N   0  0  0  0  0  0  0  0  0  0  0  0
    9.9864  -15.4537   22.7076 C   0  0  0  0  0  0  0  0  0  0  0  0
   10.4399  -14.6712   23.5534 O   0  0  0  0  0  0  0  0  0  0  0  0
   10.8907  -16.3686   22.1129 N   0  0  0  0  0  0  0  0  0  0  0  0
   12.1999  -16.6293   22.7031 C   0  0  1  0  0  0  0  0  0  0  0  0
   12.2325  -17.9445   23.3982 C   0  0  0  0  0  0  0  0  0  0  0  0
   13.4813  -18.3784   24.0440 C   0  0  0  0  0  0  0  0  0  0  0  0
   13.5624  -19.6560   24.7082 C   0  0  0  0  0  0  0  0  0  0  0  0
   12.6908  -20.5184   24.8607 O   0  0  0  0  0  0  0  0  0  0  0  0
   13.2236  -16.3769   21.6997 C   0  0  0  0  0  0  0  0  0  0  0  0
   12.9639  -16.4631   20.4842 O   0  0  0  0  0  0  0  0  0  0  0  0
   14.8205  -19.9866   25.2750 O   0  0  0  0  0  0  0  0  0  0  0  0
   14.5064  -16.0300   22.0861 O   0  0  0  0  0  0  0  0  0  0  0  0
  2 10  1  0
  2  1  1  1
  3  4  1  0
  3  2  1  0
  4  5  2  0
  5  6  1  0
  7  6  2  0
  8  7  1  0
  9  8  2  0
  9  4  1  0
 10 11  2  0
 13 12  1  1
 14 13  1  0
 15 13  1  0
 15 16  1  1
 16 10  1  0
 17 15  1  0
 18 17  2  0
 19 17  1  0
 20 19  1  0
 20 21  1  6
 22 21  1  0
 23 22  1  0
 24 23  2  0
 25 20  1  0
 25 28  1  0
 26 25  2  0
 27 23  1  0
M  END
$$$$
