FVE.pdb
     RDKit          3D

 28 28  0  0  1  0  0  0  0  0999 V2000
    5.8283  -17.8479   25.8259 N   0  0  0  0  0  0  0  0  0  0  0  0
    6.4094  -16.5654   25.5893 C   0  0  1  0  0  0  0  0  0  0  0  0
    6.9901  -15.9850   26.8350 C   0  0  0  0  0  0  0  0  0  0  0  0
    6.8377  -14.5179   26.7749 C   0  0  0  0  0  0  0  0  0  0  0  0
    5.5955  -13.9394   26.7581 C   0  0  0  0  0  0  0  0  0  0  0  0
    5.4307  -12.5512   26.7004 C   0  0  0  0  0  0  0  0  0  0  0  0
    6.5725  -11.7564   26.6596 C   0  0  0  0  0  0  0  0  0  0  0  0
    7.8250  -12.3202   26.6757 C   0  0  0  0  0  0  0  0  0  0  0  0
    7.9423  -13.6932   26.7331 C   0  0  0  0  0  0  0  0  0  0  0  0
    7.3575  -16.5722   24.4384 C   0  0  0  0  0  0  0  0  0  0  0  0
    8.1926  -17.4781   24.3374 O   0  0  0  0  0  0  0  0  0  0  0  0
    6.5612  -14.4093   20.8593 C   0  0  0  0  0  0  0  0  0  0  0  0
    7.9606  -14.3928   21.3675 C   0  0  2  0  0  0  0  0  0  0  0  0
    8.9506  -14.5099   20.2248 C   0  0  0  0  0  0  0  0  0  0  0  0
    8.2633  -15.5033   22.3492 C   0  0  2  0  0  0  0  0  0  0  0  0
    7.3392  -15.5627   23.4368 N   0  0  0  0  0  0  0  0  0  0  0  0
    9.6903  -15.4687   22.7997 C   0  0  0  0  0  0  0  0  0  0  0  0
   10.1428  -14.6111   23.5697 O   0  0  0  0  0  0  0  0  0  0  0  0
   10.5852  -16.4624   22.3301 N   0  0  0  0  0  0  0  0  0  0  0  0
   11.9371  -16.5774   22.8682 C   0  0  1  0  0  0  0  0  0  0  0  0
   12.1296  -17.8655   23.5878 C   0  0  0  0  0  0  0  0  0  0  0  0
   13.4713  -18.2115   24.0827 C   0  0  0  0  0  0  0  0  0  0  0  0
   13.7162  -19.4805   24.7229 C   0  0  0  0  0  0  0  0  0  0  0  0
   12.9094  -20.3139   25.1484 O   0  0  0  0  0  0  0  0  0  0  0  0
   12.8882  -16.2496   21.8164 C   0  0  0  0  0  0  0  0  0  0  0  0
   12.6341  -16.4994   20.6225 O   0  0  0  0  0  0  0  0  0  0  0  0
   15.0777  -19.8397   24.8972 O   0  0  0  0  0  0  0  0  0  0  0  0
   14.0935  -15.6466   22.1312 O   0  0  0  0  0  0  0  0  0  0  0  0
  2 10  1  0
  2  1  1  1
  3  4  1  0
  3  2  1  0
  4  5  2  0
  5  6  1  0
  7  6  2  0
  8  7  1  0
  9  8  2  0
  9  4  1  0
 10 11  2  0
 13 12  1  6
 14 13  1  0
 15 13  1  0
 15 16  1  1
 16 10  1  0
 17 15  1  0
 18 17  2  0
 19 17  1  0
 20 19  1  0
 20 21  1  6
 22 21  1  0
 23 22  1  0
 24 23  2  0
 25 20  1  0
 25 28  1  0
 26 25  2  0
 27 23  1  0
M  END
$$$$
