FVE.pdb
     RDKit          3D

 28 28  0  0  1  0  0  0  0  0999 V2000
    7.6026  -16.7290   21.9676 N   0  0  0  0  0  0  0  0  0  0  0  0
    8.0462  -15.3738   22.0386 C   0  0  1  0  0  0  0  0  0  0  0  0
    6.9472  -14.4166   21.7194 C   0  0  0  0  0  0  0  0  0  0  0  0
    7.2103  -13.8403   20.3860 C   0  0  0  0  0  0  0  0  0  0  0  0
    7.7856  -12.6034   20.2548 C   0  0  0  0  0  0  0  0  0  0  0  0
    8.0418  -12.0402   19.0000 C   0  0  0  0  0  0  0  0  0  0  0  0
    7.6950  -12.7733   17.8689 C   0  0  0  0  0  0  0  0  0  0  0  0
    7.1176  -14.0145   17.9828 C   0  0  0  0  0  0  0  0  0  0  0  0
    6.8824  -14.5326   19.2392 C   0  0  0  0  0  0  0  0  0  0  0  0
    8.7467  -15.0692   23.3192 C   0  0  0  0  0  0  0  0  0  0  0  0
    9.9759  -14.9373   23.3294 O   0  0  0  0  0  0  0  0  0  0  0  0
    8.5864  -12.9313   27.7202 C   0  0  0  0  0  0  0  0  0  0  0  0
    7.9318  -13.3857   26.4624 C   0  0  2  0  0  0  0  0  0  0  0  0
    6.5146  -13.8535   26.7308 C   0  0  0  0  0  0  0  0  0  0  0  0
    8.6624  -14.5161   25.7717 C   0  0  2  0  0  0  0  0  0  0  0  0
    8.0467  -14.9219   24.5484 N   0  0  0  0  0  0  0  0  0  0  0  0
    8.9161  -15.6603   26.7027 C   0  0  0  0  0  0  0  0  0  0  0  0
    8.0519  -16.4893   27.0176 O   0  0  0  0  0  0  0  0  0  0  0  0
   10.2082  -15.8190   27.2630 N   0  0  0  0  0  0  0  0  0  0  0  0
   10.6475  -17.1038   27.7985 C   0  0  1  0  0  0  0  0  0  0  0  0
   11.7895  -17.6566   27.0212 C   0  0  0  0  0  0  0  0  0  0  0  0
   12.3859  -18.9341   27.4422 C   0  0  0  0  0  0  0  0  0  0  0  0
   13.5120  -19.4909   26.7335 C   0  0  0  0  0  0  0  0  0  0  0  0
   14.5426  -18.9364   26.3375 O   0  0  0  0  0  0  0  0  0  0  0  0
   10.8169  -16.9767   29.2385 C   0  0  0  0  0  0  0  0  0  0  0  0
   10.8788  -15.8561   29.7796 O   0  0  0  0  0  0  0  0  0  0  0  0
   13.4418  -20.8774   26.4402 O   0  0  0  0  0  0  0  0  0  0  0  0
   10.9065  -18.1076   30.0312 O   0  0  0  0  0  0  0  0  0  0  0  0
  2 10  1  0
  2  1  1  1
  3  4  1  0
  3  2  1  0
  4  5  2  0
  5  6  1  0
  7  6  2  0
  8  7  1  0
  9  8  2  0
  9  4  1  0
 10 11  2  0
 13 12  1  1
 14 13  1  0
 15 13  1  0
 15 16  1  6
 16 10  1  0
 17 15  1  0
 18 17  2  0
 19 17  1  0
 20 19  1  0
 20 21  1  6
 22 21  1  0
 23 22  1  0
 24 23  2  0
 25 20  1  0
 25 28  1  0
 26 25  2  0
 27 23  1  0
M  END
$$$$
