VAD.pdb
     RDKit          3D

 21 20  0  0  1  0  0  0  0  0999 V2000
    8.5881  -16.3342   18.2232 C   0  0  0  0  0  0  0  0  0  0  0  0
    8.5815  -14.8618   17.8364 C   0  0  1  0  0  0  0  0  0  0  0  0
    7.7015  -14.7207   16.6228 C   0  0  0  0  0  0  0  0  0  0  0  0
    8.0949  -14.0901   19.0132 C   0  0  2  0  0  0  0  0  0  0  0  0
    7.9229  -12.7076   18.6114 N   0  0  0  0  0  0  0  0  0  0  0  0
    8.9289  -14.2168   20.2185 C   0  0  0  0  0  0  0  0  0  0  0  0
   10.0512  -13.6486   20.2159 O   0  0  0  0  0  0  0  0  0  0  0  0
    8.5067  -15.6288   23.6691 C   0  0  0  0  0  0  0  0  0  0  0  0
    9.3762  -15.0396   22.5709 C   0  0  2  0  0  0  0  0  0  0  0  0
    8.5785  -14.9214   21.3784 N   0  0  0  0  0  0  0  0  0  0  0  0
   10.6281  -15.7577   22.3952 C   0  0  0  0  0  0  0  0  0  0  0  0
   10.7204  -16.8141   21.7245 O   0  0  0  0  0  0  0  0  0  0  0  0
   11.8155  -15.2701   22.9945 N   0  0  0  0  0  0  0  0  0  0  0  0
   13.0774  -15.9863   22.9106 C   0  0  1  0  0  0  0  0  0  0  0  0
   14.2235  -15.0237   23.0169 C   0  0  0  0  0  0  0  0  0  0  0  0
   15.5283  -15.6731   22.9349 C   0  0  0  0  0  0  0  0  0  0  0  0
   16.3841  -15.7454   23.8584 O   0  0  0  0  0  0  0  0  0  0  0  0
   13.1440  -17.0973   23.8523 C   0  0  0  0  0  0  0  0  0  0  0  0
   13.7097  -18.1647   23.5366 O   0  0  0  0  0  0  0  0  0  0  0  0
   15.9162  -16.2928   21.7314 O   0  0  0  0  0  0  0  0  0  0  0  0
   12.5844  -16.9888   25.1092 O   0  0  0  0  0  0  0  0  0  0  0  0
  2  1  1  1
  2  3  1  0
  4  2  1  0
  4  5  1  6
  6  4  1  0
  6  7  2  0
  9  8  1  1
  9 10  1  0
 10  6  1  0
 11 12  2  0
 11  9  1  0
 13 11  1  0
 14 13  1  0
 14 15  1  1
 16 15  1  0
 16 20  1  0
 17 16  2  0
 18 14  1  0
 19 18  2  0
 21 18  1  0
M  END
$$$$
