VAD.pdb
     RDKit          3D

 21 20  0  0  1  0  0  0  0  0999 V2000
    9.2160  -13.6869   19.0160 C   0  0  0  0  0  0  0  0  0  0  0  0
    8.2151  -13.3295   20.1060 C   0  0  1  0  0  0  0  0  0  0  0  0
    7.3880  -12.1794   19.5960 C   0  0  0  0  0  0  0  0  0  0  0  0
    7.4145  -14.5503   20.3989 C   0  0  2  0  0  0  0  0  0  0  0  0
    6.2903  -14.1685   21.2311 N   0  0  0  0  0  0  0  0  0  0  0  0
    8.1812  -15.6631   20.9804 C   0  0  0  0  0  0  0  0  0  0  0  0
    8.5867  -15.5385   22.1647 O   0  0  0  0  0  0  0  0  0  0  0  0
    9.1782  -19.1283   19.9409 C   0  0  0  0  0  0  0  0  0  0  0  0
    9.3281  -17.9164   20.8453 C   0  0  2  0  0  0  0  0  0  0  0  0
    8.5017  -16.8592   20.3238 N   0  0  0  0  0  0  0  0  0  0  0  0
   10.7163  -17.5472   21.0697 C   0  0  0  0  0  0  0  0  0  0  0  0
   11.3614  -16.8097   20.2860 O   0  0  0  0  0  0  0  0  0  0  0  0
   11.4009  -18.0242   22.2146 N   0  0  0  0  0  0  0  0  0  0  0  0
   12.7786  -17.6613   22.5018 C   0  0  1  0  0  0  0  0  0  0  0  0
   12.8790  -17.0713   23.8779 C   0  0  0  0  0  0  0  0  0  0  0  0
   14.2473  -16.7355   24.2601 C   0  0  0  0  0  0  0  0  0  0  0  0
   14.9673  -15.8394   23.7414 O   0  0  0  0  0  0  0  0  0  0  0  0
   13.7011  -18.7636   22.2582 C   0  0  0  0  0  0  0  0  0  0  0  0
   13.3418  -19.9452   22.4424 O   0  0  0  0  0  0  0  0  0  0  0  0
   14.8681  -17.4512   25.3019 O   0  0  0  0  0  0  0  0  0  0  0  0
   14.9868  -18.5213   21.8190 O   0  0  0  0  0  0  0  0  0  0  0  0
  2  1  1  6
  2  3  1  0
  4  2  1  0
  4  5  1  1
  6  4  1  0
  6  7  2  0
  9  8  1  6
  9 10  1  0
 10  6  1  0
 11 12  2  0
 11  9  1  0
 13 11  1  0
 14 13  1  0
 14 15  1  1
 16 15  1  0
 16 20  1  0
 17 16  2  0
 18 14  1  0
 19 18  2  0
 21 18  1  0
M  END
$$$$
