VAD.pdb
     RDKit          3D

 21 20  0  0  1  0  0  0  0  0999 V2000
   10.0489  -13.3133   19.2378 C   0  0  0  0  0  0  0  0  0  0  0  0
    8.6323  -13.3558   19.7936 C   0  0  1  0  0  0  0  0  0  0  0  0
    7.8833  -12.1912   19.2025 C   0  0  0  0  0  0  0  0  0  0  0  0
    8.0485  -14.6780   19.4358 C   0  0  2  0  0  0  0  0  0  0  0  0
    6.6169  -14.6185   19.6574 N   0  0  0  0  0  0  0  0  0  0  0  0
    8.6668  -15.8269   20.1155 C   0  0  0  0  0  0  0  0  0  0  0  0
    8.3525  -16.0354   21.3156 O   0  0  0  0  0  0  0  0  0  0  0  0
   10.3130  -18.9639   19.1280 C   0  0  0  0  0  0  0  0  0  0  0  0
   10.1583  -17.8722   20.1736 C   0  0  2  0  0  0  0  0  0  0  0  0
    9.5830  -16.7161   19.5372 N   0  0  0  0  0  0  0  0  0  0  0  0
   11.3872  -17.6133   20.9062 C   0  0  0  0  0  0  0  0  0  0  0  0
   12.0195  -18.5090   21.5162 O   0  0  0  0  0  0  0  0  0  0  0  0
   11.9219  -16.3022   20.9532 N   0  0  0  0  0  0  0  0  0  0  0  0
   13.1379  -15.9863   21.6840 C   0  0  1  0  0  0  0  0  0  0  0  0
   13.7654  -14.7430   21.1255 C   0  0  0  0  0  0  0  0  0  0  0  0
   14.3075  -14.9270   19.7826 C   0  0  0  0  0  0  0  0  0  0  0  0
   14.5561  -16.0300   19.2240 O   0  0  0  0  0  0  0  0  0  0  0  0
   12.9203  -15.9473   23.1251 C   0  0  0  0  0  0  0  0  0  0  0  0
   13.8844  -15.8322   23.9102 O   0  0  0  0  0  0  0  0  0  0  0  0
   14.5978  -13.7965   18.9947 O   0  0  0  0  0  0  0  0  0  0  0  0
   11.6458  -16.0361   23.6469 O   0  0  0  0  0  0  0  0  0  0  0  0
  2  1  1  6
  2  3  1  0
  4  2  1  0
  4  5  1  1
  6  4  1  0
  6  7  2  0
  9  8  1  6
  9 10  1  0
 10  6  1  0
 11 12  2  0
 11  9  1  0
 13 11  1  0
 14 13  1  0
 14 15  1  6
 16 15  1  0
 16 20  1  0
 17 16  2  0
 18 14  1  0
 19 18  2  0
 21 18  1  0
M  END
$$$$
