VAD.pdb
     RDKit          3D

 21 20  0  0  1  0  0  0  0  0999 V2000
    9.6441  -12.6247   19.9997 C   0  0  0  0  0  0  0  0  0  0  0  0
    8.2799  -13.2897   19.8804 C   0  0  1  0  0  0  0  0  0  0  0  0
    7.3527  -12.2979   19.2295 C   0  0  0  0  0  0  0  0  0  0  0  0
    8.4569  -14.5403   19.0919 C   0  0  2  0  0  0  0  0  0  0  0  0
    7.1444  -15.0433   18.7358 N   0  0  0  0  0  0  0  0  0  0  0  0
    9.2847  -15.5663   19.7447 C   0  0  0  0  0  0  0  0  0  0  0  0
    8.8082  -16.1484   20.7530 O   0  0  0  0  0  0  0  0  0  0  0  0
   12.1762  -17.6895   18.9407 C   0  0  0  0  0  0  0  0  0  0  0  0
   11.4142  -16.9119   20.0008 C   0  0  2  0  0  0  0  0  0  0  0  0
   10.5685  -15.9543   19.3374 N   0  0  0  0  0  0  0  0  0  0  0  0
   12.2827  -16.3497   21.0224 C   0  0  0  0  0  0  0  0  0  0  0  0
   12.7447  -15.1849   20.9597 O   0  0  0  0  0  0  0  0  0  0  0  0
   12.6428  -17.1250   22.1521 N   0  0  0  0  0  0  0  0  0  0  0  0
   13.6152  -16.6658   23.1299 C   0  0  1  0  0  0  0  0  0  0  0  0
   13.4501  -17.4233   24.4146 C   0  0  0  0  0  0  0  0  0  0  0  0
   12.2650  -17.0244   25.1680 C   0  0  0  0  0  0  0  0  0  0  0  0
   11.5126  -16.0456   24.9103 O   0  0  0  0  0  0  0  0  0  0  0  0
   14.9744  -16.6775   22.6026 C   0  0  0  0  0  0  0  0  0  0  0  0
   15.3349  -17.5588   21.7949 O   0  0  0  0  0  0  0  0  0  0  0  0
   11.8828  -17.7711   26.2991 O   0  0  0  0  0  0  0  0  0  0  0  0
   15.8861  -15.7149   22.9859 O   0  0  0  0  0  0  0  0  0  0  0  0
  2  1  1  6
  2  3  1  0
  4  2  1  0
  4  5  1  1
  6  4  1  0
  6  7  2  0
  9  8  1  6
  9 10  1  0
 10  6  1  0
 11 12  2  0
 11  9  1  0
 13 11  1  0
 14 13  1  0
 14 15  1  1
 16 15  1  0
 16 20  1  0
 17 16  2  0
 18 14  1  0
 19 18  2  0
 21 18  1  0
M  END
$$$$
