VAD.pdb
     RDKit          3D

 21 20  0  0  1  0  0  0  0  0999 V2000
    6.5362  -16.7122   22.9639 C   0  0  0  0  0  0  0  0  0  0  0  0
    6.3889  -17.7722   21.8812 C   0  0  1  0  0  0  0  0  0  0  0  0
    5.2452  -18.6661   22.2811 C   0  0  0  0  0  0  0  0  0  0  0  0
    6.1650  -17.0670   20.5890 C   0  0  2  0  0  0  0  0  0  0  0  0
    5.8193  -18.0547   19.5854 N   0  0  0  0  0  0  0  0  0  0  0  0
    7.2774  -16.2058   20.1584 C   0  0  0  0  0  0  0  0  0  0  0  0
    8.3510  -16.7644   19.8153 O   0  0  0  0  0  0  0  0  0  0  0  0
    7.8661  -12.5093   19.7946 C   0  0  0  0  0  0  0  0  0  0  0  0
    8.3693  -13.9420   19.8520 C   0  0  2  0  0  0  0  0  0  0  0  0
    7.2441  -14.8060   20.0970 N   0  0  0  0  0  0  0  0  0  0  0  0
    9.4792  -14.1144   20.7752 C   0  0  0  0  0  0  0  0  0  0  0  0
    9.3665  -13.9563   22.0148 O   0  0  0  0  0  0  0  0  0  0  0  0
   10.7585  -14.4769   20.2863 N   0  0  0  0  0  0  0  0  0  0  0  0
   11.8731  -14.7693   21.1721 C   0  0  1  0  0  0  0  0  0  0  0  0
   11.4520  -15.7575   22.2199 C   0  0  0  0  0  0  0  0  0  0  0  0
   12.5379  -16.1404   23.1172 C   0  0  0  0  0  0  0  0  0  0  0  0
   13.7065  -15.6659   23.1180 O   0  0  0  0  0  0  0  0  0  0  0  0
   13.0731  -15.1542   20.4390 C   0  0  0  0  0  0  0  0  0  0  0  0
   13.0848  -16.1866   19.7369 O   0  0  0  0  0  0  0  0  0  0  0  0
   12.3103  -17.1299   24.0930 O   0  0  0  0  0  0  0  0  0  0  0  0
   14.2166  -14.3845   20.5073 O   0  0  0  0  0  0  0  0  0  0  0  0
  2  1  1  1
  2  3  1  0
  4  2  1  0
  4  5  1  6
  6  4  1  0
  6  7  2  0
  9  8  1  1
  9 10  1  0
 10  6  1  0
 11 12  2  0
 11  9  1  0
 13 11  1  0
 14 13  1  0
 14 15  1  1
 16 15  1  0
 16 20  1  0
 17 16  2  0
 18 14  1  0
 19 18  2  0
 21 18  1  0
M  END
$$$$
