VAD.pdb
     RDKit          3D

 21 20  0  0  1  0  0  0  0  0999 V2000
    7.6982  -14.7536   16.6353 C   0  0  0  0  0  0  0  0  0  0  0  0
    8.5764  -14.8185   17.8771 C   0  0  1  0  0  0  0  0  0  0  0  0
    9.9836  -14.4973   17.4488 C   0  0  0  0  0  0  0  0  0  0  0  0
    8.0249  -13.8542   18.8687 C   0  0  2  0  0  0  0  0  0  0  0  0
    8.0548  -12.5294   18.2803 N   0  0  0  0  0  0  0  0  0  0  0  0
    8.6758  -13.8894   20.1875 C   0  0  0  0  0  0  0  0  0  0  0  0
    9.5661  -13.0326   20.4237 O   0  0  0  0  0  0  0  0  0  0  0  0
    8.0040  -15.1518   23.5532 C   0  0  0  0  0  0  0  0  0  0  0  0
    9.0519  -14.8821   22.4862 C   0  0  2  0  0  0  0  0  0  0  0  0
    8.3876  -14.8020   21.2115 N   0  0  0  0  0  0  0  0  0  0  0  0
   10.1617  -15.8200   22.5345 C   0  0  0  0  0  0  0  0  0  0  0  0
   10.1751  -16.8951   21.8877 O   0  0  0  0  0  0  0  0  0  0  0  0
   11.2941  -15.5380   23.3376 N   0  0  0  0  0  0  0  0  0  0  0  0
   12.4488  -16.4193   23.3872 C   0  0  1  0  0  0  0  0  0  0  0  0
   13.7108  -15.6232   23.2281 C   0  0  0  0  0  0  0  0  0  0  0  0
   13.9552  -15.2035   21.8515 C   0  0  0  0  0  0  0  0  0  0  0  0
   13.4132  -15.6833   20.8187 O   0  0  0  0  0  0  0  0  0  0  0  0
   12.4335  -17.2820   24.5623 C   0  0  0  0  0  0  0  0  0  0  0  0
   13.2761  -18.1944   24.6916 O   0  0  0  0  0  0  0  0  0  0  0  0
   14.8751  -14.1677   21.5989 O   0  0  0  0  0  0  0  0  0  0  0  0
   11.4887  -17.1053   25.5527 O   0  0  0  0  0  0  0  0  0  0  0  0
  2  1  1  6
  2  3  1  0
  4  2  1  0
  4  5  1  6
  6  4  1  0
  6  7  2  0
  9  8  1  1
  9 10  1  0
 10  6  1  0
 11 12  2  0
 11  9  1  0
 13 11  1  0
 14 13  1  0
 14 15  1  1
 16 15  1  0
 16 20  1  0
 17 16  2  0
 18 14  1  0
 19 18  2  0
 21 18  1  0
M  END
$$$$
