VAD.pdb
     RDKit          3D

 21 20  0  0  1  0  0  0  0  0999 V2000
   10.2855  -13.7739   19.6818 C   0  0  0  0  0  0  0  0  0  0  0  0
    8.8488  -13.2982   19.8464 C   0  0  1  0  0  0  0  0  0  0  0  0
    8.6795  -12.0753   18.9846 C   0  0  0  0  0  0  0  0  0  0  0  0
    7.9552  -14.4242   19.4581 C   0  0  2  0  0  0  0  0  0  0  0  0
    6.5940  -13.9277   19.4055 N   0  0  0  0  0  0  0  0  0  0  0  0
    8.0752  -15.6230   20.3023 C   0  0  0  0  0  0  0  0  0  0  0  0
    7.4861  -15.6174   21.4138 O   0  0  0  0  0  0  0  0  0  0  0  0
    8.9427  -19.1684   19.8127 C   0  0  0  0  0  0  0  0  0  0  0  0
    8.8712  -17.9826   20.7602 C   0  0  2  0  0  0  0  0  0  0  0  0
    8.7947  -16.7799   19.9729 N   0  0  0  0  0  0  0  0  0  0  0  0
    9.9310  -17.9901   21.7556 C   0  0  0  0  0  0  0  0  0  0  0  0
   10.1166  -18.9456   22.5474 O   0  0  0  0  0  0  0  0  0  0  0  0
   10.8109  -16.8851   21.8629 N   0  0  0  0  0  0  0  0  0  0  0  0
   11.7918  -16.7754   22.9298 C   0  0  1  0  0  0  0  0  0  0  0  0
   12.7650  -15.6753   22.6227 C   0  0  0  0  0  0  0  0  0  0  0  0
   13.6977  -16.0160   21.5527 C   0  0  0  0  0  0  0  0  0  0  0  0
   14.5454  -15.2429   21.0288 O   0  0  0  0  0  0  0  0  0  0  0  0
   11.1678  -16.6686   24.2431 C   0  0  0  0  0  0  0  0  0  0  0  0
   10.0222  -16.1872   24.3649 O   0  0  0  0  0  0  0  0  0  0  0  0
   13.6904  -17.3195   21.0199 O   0  0  0  0  0  0  0  0  0  0  0  0
   11.8313  -17.0982   25.3744 O   0  0  0  0  0  0  0  0  0  0  0  0
  2  1  1  6
  2  3  1  0
  4  2  1  0
  4  5  1  1
  6  4  1  0
  6  7  2  0
  9  8  1  6
  9 10  1  0
 10  6  1  0
 11 12  2  0
 11  9  1  0
 13 11  1  0
 14 13  1  0
 14 15  1  6
 16 15  1  0
 16 20  1  0
 17 16  2  0
 18 14  1  0
 19 18  2  0
 21 18  1  0
M  END
$$$$
