VAD.pdb
     RDKit          3D

 21 20  0  0  1  0  0  0  0  0999 V2000
    6.5899  -18.5507   19.0559 C   0  0  0  0  0  0  0  0  0  0  0  0
    7.5810  -18.4105   17.9090 C   0  0  1  0  0  0  0  0  0  0  0  0
    6.9732  -19.0818   16.7062 C   0  0  0  0  0  0  0  0  0  0  0  0
    7.8355  -16.9569   17.7100 C   0  0  2  0  0  0  0  0  0  0  0  0
    8.6217  -16.7936   16.5027 N   0  0  0  0  0  0  0  0  0  0  0  0
    8.4441  -16.2762   18.8634 C   0  0  0  0  0  0  0  0  0  0  0  0
    9.6227  -16.5889   19.1726 O   0  0  0  0  0  0  0  0  0  0  0  0
    7.4066  -13.6069   21.3001 C   0  0  0  0  0  0  0  0  0  0  0  0
    8.3787  -14.6724   20.8216 C   0  0  2  0  0  0  0  0  0  0  0  0
    7.8195  -15.3018   19.6539 N   0  0  0  0  0  0  0  0  0  0  0  0
    8.7733  -15.5918   21.8765 C   0  0  0  0  0  0  0  0  0  0  0  0
    8.0273  -16.5089   22.2967 O   0  0  0  0  0  0  0  0  0  0  0  0
   10.0505  -15.4746   22.4783 N   0  0  0  0  0  0  0  0  0  0  0  0
   10.4309  -16.2491   23.6478 C   0  0  1  0  0  0  0  0  0  0  0  0
   11.9260  -16.3143   23.7577 C   0  0  0  0  0  0  0  0  0  0  0  0
   12.5684  -16.8292   22.5521 C   0  0  0  0  0  0  0  0  0  0  0  0
   13.4295  -16.2296   21.8525 O   0  0  0  0  0  0  0  0  0  0  0  0
    9.7650  -15.7828   24.8580 C   0  0  0  0  0  0  0  0  0  0  0  0
    9.8080  -16.4583   25.9072 O   0  0  0  0  0  0  0  0  0  0  0  0
   12.2286  -18.1131   22.0839 O   0  0  0  0  0  0  0  0  0  0  0  0
    9.0764  -14.5868   24.8659 O   0  0  0  0  0  0  0  0  0  0  0  0
  2  1  1  1
  2  3  1  0
  4  2  1  0
  4  5  1  6
  6  4  1  0
  6  7  2  0
  9  8  1  1
  9 10  1  0
 10  6  1  0
 11 12  2  0
 11  9  1  0
 13 11  1  0
 14 13  1  0
 14 15  1  1
 16 15  1  0
 16 20  1  0
 17 16  2  0
 18 14  1  0
 19 18  2  0
 21 18  1  0
M  END
$$$$
