VAD.pdb
     RDKit          3D

 21 20  0  0  1  0  0  0  0  0999 V2000
    7.0381  -15.5204   20.2006 C   0  0  0  0  0  0  0  0  0  0  0  0
    7.9847  -14.5348   19.5296 C   0  0  1  0  0  0  0  0  0  0  0  0
    7.5353  -14.3830   18.1006 C   0  0  0  0  0  0  0  0  0  0  0  0
    7.9338  -13.2642   20.3042 C   0  0  2  0  0  0  0  0  0  0  0  0
    8.6522  -12.2483   19.5599 N   0  0  0  0  0  0  0  0  0  0  0  0
    8.4072  -13.3718   21.6930 C   0  0  0  0  0  0  0  0  0  0  0  0
    9.6409  -13.2429   21.9023 O   0  0  0  0  0  0  0  0  0  0  0  0
    6.9193  -13.2266   25.0808 C   0  0  0  0  0  0  0  0  0  0  0  0
    8.0434  -13.7038   24.1766 C   0  0  2  0  0  0  0  0  0  0  0  0
    7.5963  -13.6076   22.8116 N   0  0  0  0  0  0  0  0  0  0  0  0
    8.5581  -15.0095   24.5562 C   0  0  0  0  0  0  0  0  0  0  0  0
    8.9124  -15.2893   25.7268 O   0  0  0  0  0  0  0  0  0  0  0  0
    8.6776  -16.0343   23.5853 N   0  0  0  0  0  0  0  0  0  0  0  0
    9.6949  -17.0688   23.6707 C   0  0  1  0  0  0  0  0  0  0  0  0
   10.6652  -16.9312   22.5345 C   0  0  0  0  0  0  0  0  0  0  0  0
   11.7426  -17.9153   22.5772 C   0  0  0  0  0  0  0  0  0  0  0  0
   12.5725  -18.0716   23.5140 O   0  0  0  0  0  0  0  0  0  0  0  0
   10.3218  -17.1179   24.9861 C   0  0  0  0  0  0  0  0  0  0  0  0
   10.9680  -16.1410   25.4186 O   0  0  0  0  0  0  0  0  0  0  0  0
   11.9144  -18.7980   21.4936 O   0  0  0  0  0  0  0  0  0  0  0  0
   10.2115  -18.2438   25.7766 O   0  0  0  0  0  0  0  0  0  0  0  0
  2  1  1  1
  2  3  1  0
  4  2  1  0
  4  5  1  6
  6  4  1  0
  6  7  2  0
  9  8  1  1
  9 10  1  0
 10  6  1  0
 11 12  2  0
 11  9  1  0
 13 11  1  0
 14 13  1  0
 14 15  1  6
 16 15  1  0
 16 20  1  0
 17 16  2  0
 18 14  1  0
 19 18  2  0
 21 18  1  0
M  END
$$$$
