VAD.pdb
     RDKit          3D

 21 20  0  0  1  0  0  0  0  0999 V2000
   -0.3144  -24.2708   20.2343 C   0  0  0  0  0  0  0  0  0  0  0  0
    0.6169  -23.6507   19.2020 C   0  0  1  0  0  0  0  0  0  0  0  0
    0.3853  -24.3695   17.8995 C   0  0  0  0  0  0  0  0  0  0  0  0
    0.3106  -22.1950   19.1372 C   0  0  2  0  0  0  0  0  0  0  0  0
    1.0986  -21.6112   18.0693 N   0  0  0  0  0  0  0  0  0  0  0  0
    0.4804  -21.4742   20.4085 C   0  0  0  0  0  0  0  0  0  0  0  0
    1.6536  -21.2782   20.8179 O   0  0  0  0  0  0  0  0  0  0  0  0
   -1.6623  -19.5049   22.7428 C   0  0  0  0  0  0  0  0  0  0  0  0
   -0.4119  -20.3282   22.4825 C   0  0  2  0  0  0  0  0  0  0  0  0
   -0.5600  -20.9833   21.2091 N   0  0  0  0  0  0  0  0  0  0  0  0
   -0.0790  -21.2144   23.5860 C   0  0  0  0  0  0  0  0  0  0  0  0
    0.4786  -20.8157   24.6369 O   0  0  0  0  0  0  0  0  0  0  0  0
   -0.3843  -22.5953   23.5033 N   0  0  0  0  0  0  0  0  0  0  0  0
   -0.1374  -23.5115   24.6043 C   0  0  1  0  0  0  0  0  0  0  0  0
   -1.2770  -24.4790   24.7339 C   0  0  0  0  0  0  0  0  0  0  0  0
   -2.4148  -23.9311   25.4663 C   0  0  0  0  0  0  0  0  0  0  0  0
   -2.4627  -22.8073   26.0366 O   0  0  0  0  0  0  0  0  0  0  0  0
    1.1728  -24.1442   24.5114 C   0  0  0  0  0  0  0  0  0  0  0  0
    1.9385  -23.8827   23.5605 O   0  0  0  0  0  0  0  0  0  0  0  0
   -3.5955  -24.6907   25.5758 O   0  0  0  0  0  0  0  0  0  0  0  0
    1.5903  -25.0422   25.4727 O   0  0  0  0  0  0  0  0  0  0  0  0
  2  1  1  1
  2  3  1  0
  4  2  1  0
  4  5  1  6
  6  4  1  0
  6  7  2  0
  9  8  1  1
  9 10  1  0
 10  6  1  0
 11 12  2  0
 11  9  1  0
 13 11  1  0
 14 13  1  0
 14 15  1  6
 16 15  1  0
 16 20  1  0
 17 16  2  0
 18 14  1  0
 19 18  2  0
 21 18  1  0
M  END
$$$$
