VAD.pdb
     RDKit          3D

 21 20  0  0  1  0  0  0  0  0999 V2000
    6.5835  -13.6622   18.4870 C   0  0  0  0  0  0  0  0  0  0  0  0
    7.0340  -14.1847   19.8440 C   0  0  1  0  0  0  0  0  0  0  0  0
    7.9648  -15.3412   19.5930 C   0  0  0  0  0  0  0  0  0  0  0  0
    7.6766  -13.0546   20.5701 C   0  0  2  0  0  0  0  0  0  0  0  0
    8.7284  -12.5140   19.7312 N   0  0  0  0  0  0  0  0  0  0  0  0
    8.1601  -13.3868   21.9192 C   0  0  0  0  0  0  0  0  0  0  0  0
    9.3499  -13.7786   22.0346 O   0  0  0  0  0  0  0  0  0  0  0  0
    6.7175  -13.4064   25.3923 C   0  0  0  0  0  0  0  0  0  0  0  0
    7.8133  -13.7574   24.3998 C   0  0  2  0  0  0  0  0  0  0  0  0
    7.4037  -13.3040   23.0963 N   0  0  0  0  0  0  0  0  0  0  0  0
    8.2037  -15.1566   24.4608 C   0  0  0  0  0  0  0  0  0  0  0  0
    7.4923  -16.0840   24.0046 O   0  0  0  0  0  0  0  0  0  0  0  0
    9.4361  -15.5237   25.0553 N   0  0  0  0  0  0  0  0  0  0  0  0
    9.8357  -16.9116   25.2184 C   0  0  1  0  0  0  0  0  0  0  0  0
   11.0695  -17.1901   24.4112 C   0  0  0  0  0  0  0  0  0  0  0  0
   11.6335  -18.5129   24.6624 C   0  0  0  0  0  0  0  0  0  0  0  0
   10.9854  -19.5871   24.7912 O   0  0  0  0  0  0  0  0  0  0  0  0
    9.9439  -17.2925   26.6216 C   0  0  0  0  0  0  0  0  0  0  0  0
    9.8295  -18.4872   26.9661 O   0  0  0  0  0  0  0  0  0  0  0  0
   13.0293  -18.6569   24.7806 O   0  0  0  0  0  0  0  0  0  0  0  0
   10.1754  -16.3403   27.5934 O   0  0  0  0  0  0  0  0  0  0  0  0
  2  1  1  6
  2  3  1  0
  4  2  1  0
  4  5  1  6
  6  4  1  0
  6  7  2  0
  9  8  1  1
  9 10  1  0
 10  6  1  0
 11 12  2  0
 11  9  1  0
 13 11  1  0
 14 13  1  0
 14 15  1  1
 16 15  1  0
 16 20  1  0
 17 16  2  0
 18 14  1  0
 19 18  2  0
 21 18  1  0
M  END
$$$$
