VAD.pdb
     RDKit          3D

 21 20  0  0  1  0  0  0  0  0999 V2000
    8.1315  -12.7237   18.0393 C   0  0  0  0  0  0  0  0  0  0  0  0
    8.6321  -13.2450   19.3791 C   0  0  1  0  0  0  0  0  0  0  0  0
    8.2796  -12.2166   20.4208 C   0  0  0  0  0  0  0  0  0  0  0  0
    7.9921  -14.5687   19.6140 C   0  0  2  0  0  0  0  0  0  0  0  0
    6.5581  -14.4134   19.4668 N   0  0  0  0  0  0  0  0  0  0  0  0
    8.3520  -15.2075   20.8894 C   0  0  0  0  0  0  0  0  0  0  0  0
    7.7394  -14.8358   21.9234 O   0  0  0  0  0  0  0  0  0  0  0  0
    9.0468  -18.2013   22.3488 C   0  0  0  0  0  0  0  0  0  0  0  0
    9.6959  -16.8284   22.2958 C   0  0  2  0  0  0  0  0  0  0  0  0
    9.3259  -16.2020   21.0535 N   0  0  0  0  0  0  0  0  0  0  0  0
   11.1264  -16.8694   22.5525 C   0  0  0  0  0  0  0  0  0  0  0  0
   11.9826  -16.5335   21.6990 O   0  0  0  0  0  0  0  0  0  0  0  0
   11.6087  -17.3030   23.8120 N   0  0  0  0  0  0  0  0  0  0  0  0
   13.0285  -17.4067   24.1050 C   0  0  1  0  0  0  0  0  0  0  0  0
   13.7381  -16.1621   23.6589 C   0  0  0  0  0  0  0  0  0  0  0  0
   15.0383  -16.4290   23.0514 C   0  0  0  0  0  0  0  0  0  0  0  0
   15.2946  -17.3270   22.2038 O   0  0  0  0  0  0  0  0  0  0  0  0
   13.2792  -17.7691   25.4947 C   0  0  0  0  0  0  0  0  0  0  0  0
   14.4221  -18.1075   25.8667 O   0  0  0  0  0  0  0  0  0  0  0  0
   16.1447  -15.6362   23.4127 O   0  0  0  0  0  0  0  0  0  0  0  0
   12.2588  -17.7437   26.4236 O   0  0  0  0  0  0  0  0  0  0  0  0
  2  1  1  6
  2  3  1  0
  4  2  1  0
  4  5  1  1
  6  4  1  0
  6  7  2  0
  9  8  1  6
  9 10  1  0
 10  6  1  0
 11 12  2  0
 11  9  1  0
 13 11  1  0
 14 13  1  0
 14 15  1  1
 16 15  1  0
 16 20  1  0
 17 16  2  0
 18 14  1  0
 19 18  2  0
 21 18  1  0
M  END
$$$$
