VAD.pdb
     RDKit          3D

 21 20  0  0  1  0  0  0  0  0999 V2000
    6.7963  -15.8694   20.1062 C   0  0  0  0  0  0  0  0  0  0  0  0
    7.6675  -14.8823   19.3419 C   0  0  1  0  0  0  0  0  0  0  0  0
    7.0857  -14.7471   17.9598 C   0  0  0  0  0  0  0  0  0  0  0  0
    7.6775  -13.6052   20.1074 C   0  0  2  0  0  0  0  0  0  0  0  0
    8.3594  -12.6030   19.3117 N   0  0  0  0  0  0  0  0  0  0  0  0
    8.2343  -13.7071   21.4653 C   0  0  0  0  0  0  0  0  0  0  0  0
    9.4845  -13.7858   21.5808 O   0  0  0  0  0  0  0  0  0  0  0  0
    6.9881  -13.3990   24.9741 C   0  0  0  0  0  0  0  0  0  0  0  0
    8.0072  -13.9258   23.9776 C   0  0  2  0  0  0  0  0  0  0  0  0
    7.4865  -13.7245   22.6506 N   0  0  0  0  0  0  0  0  0  0  0  0
    8.4264  -15.2880   24.2649 C   0  0  0  0  0  0  0  0  0  0  0  0
    7.6996  -16.2866   24.0438 O   0  0  0  0  0  0  0  0  0  0  0  0
    9.7066  -15.5339   24.8197 N   0  0  0  0  0  0  0  0  0  0  0  0
   10.1408  -16.8654   25.2081 C   0  0  1  0  0  0  0  0  0  0  0  0
   11.5960  -17.0454   24.8891 C   0  0  0  0  0  0  0  0  0  0  0  0
   11.8967  -16.8845   23.4697 C   0  0  0  0  0  0  0  0  0  0  0  0
   11.3235  -17.4762   22.5148 O   0  0  0  0  0  0  0  0  0  0  0  0
    9.7911  -17.1782   26.5885 C   0  0  0  0  0  0  0  0  0  0  0  0
    9.3306  -16.2960   27.3426 O   0  0  0  0  0  0  0  0  0  0  0  0
   12.9157  -15.9955   23.0767 O   0  0  0  0  0  0  0  0  0  0  0  0
    9.9617  -18.4542   27.0858 O   0  0  0  0  0  0  0  0  0  0  0  0
  2  1  1  1
  2  3  1  0
  4  2  1  0
  4  5  1  6
  6  4  1  0
  6  7  2  0
  9  8  1  1
  9 10  1  0
 10  6  1  0
 11 12  2  0
 11  9  1  0
 13 11  1  0
 14 13  1  0
 14 15  1  1
 16 15  1  0
 16 20  1  0
 17 16  2  0
 18 14  1  0
 19 18  2  0
 21 18  1  0
M  END
$$$$
