VAD.pdb
     RDKit          3D

 21 20  0  0  1  0  0  0  0  0999 V2000
    6.5484  -14.1180   18.8579 C   0  0  0  0  0  0  0  0  0  0  0  0
    7.1302  -14.5798   20.1867 C   0  0  1  0  0  0  0  0  0  0  0  0
    7.9095  -15.8404   19.9214 C   0  0  0  0  0  0  0  0  0  0  0  0
    7.9653  -13.4693   20.7220 C   0  0  2  0  0  0  0  0  0  0  0  0
    8.9382  -13.1034   19.7111 N   0  0  0  0  0  0  0  0  0  0  0  0
    8.5953  -13.7460   22.0224 C   0  0  0  0  0  0  0  0  0  0  0  0
    9.7967  -14.1190   22.0231 O   0  0  0  0  0  0  0  0  0  0  0  0
    7.6248  -13.5254   25.6418 C   0  0  0  0  0  0  0  0  0  0  0  0
    8.4953  -14.0858   24.5295 C   0  0  2  0  0  0  0  0  0  0  0  0
    7.9677  -13.6294   23.2702 N   0  0  0  0  0  0  0  0  0  0  0  0
    8.6775  -15.5250   24.6254 C   0  0  0  0  0  0  0  0  0  0  0  0
    7.7984  -16.3489   24.2751 O   0  0  0  0  0  0  0  0  0  0  0  0
    9.8899  -16.0541   25.1325 N   0  0  0  0  0  0  0  0  0  0  0  0
   10.0611  -17.4699   25.4130 C   0  0  1  0  0  0  0  0  0  0  0  0
   11.4123  -17.9269   24.9473 C   0  0  0  0  0  0  0  0  0  0  0  0
   11.6574  -17.6486   23.5354 C   0  0  0  0  0  0  0  0  0  0  0  0
   10.8854  -17.9233   22.5767 O   0  0  0  0  0  0  0  0  0  0  0  0
    9.7695  -17.7952   26.8039 C   0  0  0  0  0  0  0  0  0  0  0  0
    9.6476  -16.8905   27.6558 O   0  0  0  0  0  0  0  0  0  0  0  0
   12.8557  -17.0142   23.1550 O   0  0  0  0  0  0  0  0  0  0  0  0
    9.6223  -19.1079   27.2036 O   0  0  0  0  0  0  0  0  0  0  0  0
  2  1  1  6
  2  3  1  0
  4  2  1  0
  4  5  1  6
  6  4  1  0
  6  7  2  0
  9  8  1  1
  9 10  1  0
 10  6  1  0
 11 12  2  0
 11  9  1  0
 13 11  1  0
 14 13  1  0
 14 15  1  1
 16 15  1  0
 16 20  1  0
 17 16  2  0
 18 14  1  0
 19 18  2  0
 21 18  1  0
M  END
$$$$
