VAD.pdb
     RDKit          3D

 21 20  0  0  1  0  0  0  0  0999 V2000
    7.6005  -11.2589   26.5668 C   0  0  0  0  0  0  0  0  0  0  0  0
    7.9187  -12.6633   26.0730 C   0  0  1  0  0  0  0  0  0  0  0  0
    8.4072  -13.4552   27.2567 C   0  0  0  0  0  0  0  0  0  0  0  0
    6.6788  -13.2166   25.4617 C   0  0  2  0  0  0  0  0  0  0  0  0
    5.7173  -13.4562   26.5203 N   0  0  0  0  0  0  0  0  0  0  0  0
    6.8860  -14.4066   24.6219 C   0  0  0  0  0  0  0  0  0  0  0  0
    6.6714  -15.5328   25.1397 O   0  0  0  0  0  0  0  0  0  0  0  0
    7.6181  -15.1056   21.0155 C   0  0  0  0  0  0  0  0  0  0  0  0
    7.5648  -15.5505   22.4675 C   0  0  2  0  0  0  0  0  0  0  0  0
    7.3051  -14.3940   23.2845 N   0  0  0  0  0  0  0  0  0  0  0  0
    8.7297  -16.3248   22.8642 C   0  0  0  0  0  0  0  0  0  0  0  0
    8.9707  -17.4722   22.4174 O   0  0  0  0  0  0  0  0  0  0  0  0
    9.6538  -15.7892   23.7948 N   0  0  0  0  0  0  0  0  0  0  0  0
   10.8141  -16.5353   24.2527 C   0  0  1  0  0  0  0  0  0  0  0  0
   12.0628  -15.7346   24.0260 C   0  0  0  0  0  0  0  0  0  0  0  0
   12.5857  -15.8584   22.6687 C   0  0  0  0  0  0  0  0  0  0  0  0
   12.1879  -16.6688   21.7879 O   0  0  0  0  0  0  0  0  0  0  0  0
   10.6556  -17.0163   25.6198 C   0  0  0  0  0  0  0  0  0  0  0  0
    9.9209  -16.4084   26.4259 O   0  0  0  0  0  0  0  0  0  0  0  0
   13.6349  -15.0157   22.2538 O   0  0  0  0  0  0  0  0  0  0  0  0
   11.3134  -18.1519   26.0469 O   0  0  0  0  0  0  0  0  0  0  0  0
  2  1  1  1
  2  3  1  0
  4  2  1  0
  4  5  1  1
  6  4  1  0
  6  7  2  0
  9  8  1  6
  9 10  1  0
 10  6  1  0
 11 12  2  0
 11  9  1  0
 13 11  1  0
 14 13  1  0
 14 15  1  1
 16 15  1  0
 16 20  1  0
 17 16  2  0
 18 14  1  0
 19 18  2  0
 21 18  1  0
M  END
$$$$
