VAD.pdb
     RDKit          3D

 21 20  0  0  1  0  0  0  0  0999 V2000
    8.9462  -11.9833   18.7983 C   0  0  0  0  0  0  0  0  0  0  0  0
    8.2917  -12.9017   19.8209 C   0  0  1  0  0  0  0  0  0  0  0  0
    6.9363  -13.2775   19.2838 C   0  0  0  0  0  0  0  0  0  0  0  0
    9.1943  -14.0693   20.0192 C   0  0  2  0  0  0  0  0  0  0  0  0
    9.4626  -14.6623   18.7237 N   0  0  0  0  0  0  0  0  0  0  0  0
    8.7112  -15.0608   20.9928 C   0  0  0  0  0  0  0  0  0  0  0  0
    7.4796  -15.3166   21.0056 O   0  0  0  0  0  0  0  0  0  0  0  0
    8.0573  -17.6425   22.1596 C   0  0  0  0  0  0  0  0  0  0  0  0
    9.0554  -16.7358   22.8602 C   0  0  2  0  0  0  0  0  0  0  0  0
    9.5108  -15.7503   21.9147 N   0  0  0  0  0  0  0  0  0  0  0  0
   10.1164  -17.4724   23.5276 C   0  0  0  0  0  0  0  0  0  0  0  0
    9.8945  -18.4003   24.3425 O   0  0  0  0  0  0  0  0  0  0  0  0
   11.4723  -17.1538   23.2687 N   0  0  0  0  0  0  0  0  0  0  0  0
   12.5707  -17.9175   23.8368 C   0  0  1  0  0  0  0  0  0  0  0  0
   13.7953  -17.7710   22.9821 C   0  0  0  0  0  0  0  0  0  0  0  0
   14.1322  -16.3799   22.6953 C   0  0  0  0  0  0  0  0  0  0  0  0
   14.7567  -15.5921   23.4569 O   0  0  0  0  0  0  0  0  0  0  0  0
   12.7871  -17.6074   25.2448 C   0  0  0  0  0  0  0  0  0  0  0  0
   13.6065  -18.2634   25.9211 O   0  0  0  0  0  0  0  0  0  0  0  0
   13.7454  -15.8158   21.4644 O   0  0  0  0  0  0  0  0  0  0  0  0
   12.0913  -16.5835   25.8549 O   0  0  0  0  0  0  0  0  0  0  0  0
  2  1  1  6
  2  3  1  0
  4  2  1  0
  4  5  1  6
  6  4  1  0
  6  7  2  0
  9  8  1  6
  9 10  1  0
 10  6  1  0
 11 12  2  0
 11  9  1  0
 13 11  1  0
 14 13  1  0
 14 15  1  6
 16 15  1  0
 16 20  1  0
 17 16  2  0
 18 14  1  0
 19 18  2  0
 21 18  1  0
M  END
$$$$
