VAD.pdb
     RDKit          3D

 21 20  0  0  1  0  0  0  0  0999 V2000
    8.3819  -12.0396   19.8941 C   0  0  0  0  0  0  0  0  0  0  0  0
    7.8362  -13.3388   19.3180 C   0  0  1  0  0  0  0  0  0  0  0  0
    7.6029  -13.1145   17.8476 C   0  0  0  0  0  0  0  0  0  0  0  0
    8.8309  -14.4096   19.6028 C   0  0  2  0  0  0  0  0  0  0  0  0
    8.3817  -15.6302   18.9620 N   0  0  0  0  0  0  0  0  0  0  0  0
    9.1264  -14.6098   21.0300 C   0  0  0  0  0  0  0  0  0  0  0  0
    9.7777  -13.7125   21.6243 O   0  0  0  0  0  0  0  0  0  0  0  0
    7.9274  -16.7921   23.7770 C   0  0  0  0  0  0  0  0  0  0  0  0
    9.0356  -15.9384   23.1836 C   0  0  2  0  0  0  0  0  0  0  0  0
    8.7422  -15.7225   21.7908 N   0  0  0  0  0  0  0  0  0  0  0  0
   10.3623  -16.4704   23.4490 C   0  0  0  0  0  0  0  0  0  0  0  0
   10.7515  -16.7912   24.5979 O   0  0  0  0  0  0  0  0  0  0  0  0
   11.2814  -16.6471   22.3855 N   0  0  0  0  0  0  0  0  0  0  0  0
   12.6356  -17.1281   22.6025 C   0  0  1  0  0  0  0  0  0  0  0  0
   13.1245  -17.8558   21.3846 C   0  0  0  0  0  0  0  0  0  0  0  0
   12.5668  -19.1987   21.2559 C   0  0  0  0  0  0  0  0  0  0  0  0
   11.7454  -19.7432   22.0430 O   0  0  0  0  0  0  0  0  0  0  0  0
   13.5285  -16.0714   23.0627 C   0  0  0  0  0  0  0  0  0  0  0  0
   13.5806  -14.9776   22.4627 O   0  0  0  0  0  0  0  0  0  0  0  0
   12.9507  -20.0038   20.1662 O   0  0  0  0  0  0  0  0  0  0  0  0
   14.3309  -16.2606   24.1695 O   0  0  0  0  0  0  0  0  0  0  0  0
  2  1  1  6
  2  3  1  0
  4  2  1  0
  4  5  1  1
  6  4  1  0
  6  7  2  0
  9  8  1  6
  9 10  1  0
 10  6  1  0
 11 12  2  0
 11  9  1  0
 13 11  1  0
 14 13  1  0
 14 15  1  6
 16 15  1  0
 16 20  1  0
 17 16  2  0
 18 14  1  0
 19 18  2  0
 21 18  1  0
M  END
$$$$
