TRM.pdb
     RDKit          3D

 27 26  0  0  1  0  0  0  0  0999 V2000
   23.0439  -14.6294  -17.2502 C   0  0  0  0  0  0  0  0  0  0  0  0
   22.1412  -14.8819  -18.4519 C   0  0  1  0  0  0  0  0  0  0  0  0
   22.1885  -16.2378  -18.7151 O   0  0  0  0  0  0  0  0  0  0  0  0
   20.7655  -14.3957  -18.0967 C   0  0  2  0  0  0  0  0  0  0  0  0
   19.8562  -14.8445  -19.1346 N   0  0  0  0  0  0  0  0  0  0  0  0
   20.6519  -12.9427  -17.9919 C   0  0  0  0  0  0  0  0  0  0  0  0
   21.3962  -12.1824  -18.6288 O   0  0  0  0  0  0  0  0  0  0  0  0
   13.6420   -9.8085  -14.9165 N   0  0  0  0  0  0  0  0  0  0  0  0
   14.2235  -11.0871  -15.0603 C   0  0  0  0  0  0  0  0  0  0  0  0
   13.6958  -12.1104  -14.4931 N   0  0  0  0  0  0  0  0  0  0  0  0
   15.3990  -11.2728  -15.8310 N   0  0  0  0  0  0  0  0  0  0  0  0
   15.9595  -10.1338  -16.4877 C   0  0  0  0  0  0  0  0  0  0  0  0
   17.1932  -10.4598  -17.3064 C   0  0  0  0  0  0  0  0  0  0  0  0
   18.3687  -10.3596  -16.3453 C   0  0  0  0  0  0  0  0  0  0  0  0
   19.6394  -10.8916  -16.9271 C   0  0  2  0  0  0  0  0  0  0  0  0
   19.6824  -12.2877  -17.1543 N   0  0  0  0  0  0  0  0  0  0  0  0
   20.7905  -10.3602  -16.1563 C   0  0  0  0  0  0  0  0  0  0  0  0
   21.2977  -11.1037  -15.2845 O   0  0  0  0  0  0  0  0  0  0  0  0
   14.0795  -13.0486  -14.6613 C   0  0  0  0  0  0  0  0  0  0  0  0
   27.7686  -10.3268  -15.0375 S   0  0  0  0  0  0  0  0  0  0  0  0
   26.2270  -10.6158  -15.9397 C   0  0  0  0  0  0  0  0  0  0  0  0
   24.9689   -9.3887  -15.4359 C   0  0  0  0  0  0  0  0  0  0  0  0
   23.6548   -9.7453  -16.0668 C   0  0  1  0  0  0  0  0  0  0  0  0
   22.5898   -8.7476  -15.6745 N   0  0  0  0  0  0  0  0  0  0  0  0
   21.3584   -9.0783  -16.3306 C   0  0  0  0  0  0  0  0  0  0  0  0
   23.0235   -7.3521  -15.9451 O   0  0  0  0  0  0  0  0  0  0  0  0
   23.6077   -6.6172  -15.1134 O   0  0  0  0  0  0  0  0  0  0  0  0
  2  1  1  1
  3  2  1  0
  4  5  1  6
  4  2  1  0
  6  4  1  0
  7  6  2  0
  8  9  1  0
  9 10  2  0
  9 11  1  0
 11 12  1  0
 13 14  1  0
 13 12  1  0
 15 14  1  1
 15 16  1  0
 16  6  1  0
 17 18  2  0
 17 15  1  0
 19 20  1  0
 20 21  1  0
 22 21  1  0
 23 22  1  1
 23 24  1  0
 24 17  1  0
 25 27  1  0
 25 23  1  0
 26 25  2  0
M  END
$$$$
