TRM.pdb
     RDKit          3D

 27 26  0  0  1  0  0  0  0  0999 V2000
   26.8192  -21.3807  -14.8487 C   0  0  0  0  0  0  0  0  0  0  0  0
   25.3023  -21.3473  -14.7053 C   0  0  1  0  0  0  0  0  0  0  0  0
   24.8536  -22.6460  -14.8536 O   0  0  0  0  0  0  0  0  0  0  0  0
   24.9862  -20.7622  -13.3589 C   0  0  2  0  0  0  0  0  0  0  0  0
   25.6381  -21.5833  -12.3558 N   0  0  0  0  0  0  0  0  0  0  0  0
   23.5596  -20.7127  -13.0469 C   0  0  0  0  0  0  0  0  0  0  0  0
   23.0299  -21.5333  -12.2828 O   0  0  0  0  0  0  0  0  0  0  0  0
   21.5719  -15.0162  -16.8511 N   0  0  0  0  0  0  0  0  0  0  0  0
   21.0074  -15.9578  -17.7390 C   0  0  0  0  0  0  0  0  0  0  0  0
   21.3588  -15.9817  -18.9732 N   0  0  0  0  0  0  0  0  0  0  0  0
   20.0431  -16.8965  -17.2926 N   0  0  0  0  0  0  0  0  0  0  0  0
   19.9700  -17.1711  -15.8920 C   0  0  0  0  0  0  0  0  0  0  0  0
   20.7956  -18.3713  -15.4717 C   0  0  0  0  0  0  0  0  0  0  0  0
   20.5246  -18.5632  -13.9866 C   0  0  0  0  0  0  0  0  0  0  0  0
   21.2656  -19.7263  -13.4084 C   0  0  2  0  0  0  0  0  0  0  0  0
   22.6687  -19.7233  -13.5927 N   0  0  0  0  0  0  0  0  0  0  0  0
   20.5962  -20.9855  -13.8183 C   0  0  0  0  0  0  0  0  0  0  0  0
   20.9721  -21.5211  -14.8868 O   0  0  0  0  0  0  0  0  0  0  0  0
   20.9484  -16.6728  -19.6132 C   0  0  0  0  0  0  0  0  0  0  0  0
   19.6111  -26.3776  -10.7247 S   0  0  0  0  0  0  0  0  0  0  0  0
   19.5711  -26.7106  -12.5028 C   0  0  0  0  0  0  0  0  0  0  0  0
   18.8584  -25.2799  -13.3903 C   0  0  0  0  0  0  0  0  0  0  0  0
   19.4453  -24.0153  -12.8348 C   0  0  2  0  0  0  0  0  0  0  0  0
   18.9606  -22.8170  -13.6172 N   0  0  0  0  0  0  0  0  0  0  0  0
   19.5660  -21.6267  -13.0947 C   0  0  0  0  0  0  0  0  0  0  0  0
   17.4765  -22.7413  -13.6355 O   0  0  0  0  0  0  0  0  0  0  0  0
   16.7542  -23.1995  -14.5529 O   0  0  0  0  0  0  0  0  0  0  0  0
  2  1  1  1
  3  2  1  0
  4  5  1  1
  4  2  1  0
  6  4  1  0
  7  6  2  0
  8  9  1  0
  9 10  2  0
  9 11  1  0
 11 12  1  0
 13 14  1  0
 13 12  1  0
 15 14  1  6
 15 16  1  0
 16  6  1  0
 17 18  2  0
 17 15  1  0
 19 20  1  0
 20 21  1  0
 22 21  1  0
 23 22  1  6
 23 24  1  0
 24 17  1  0
 25 27  1  0
 25 23  1  0
 26 25  2  0
M  END
$$$$
