TRM.pdb
     RDKit          3D

 27 26  0  0  1  0  0  0  0  0999 V2000
   21.4483  -32.1658   -8.3015 C   0  0  0  0  0  0  0  0  0  0  0  0
   21.3158  -30.9345   -9.1898 C   0  0  1  0  0  0  0  0  0  0  0  0
   20.1957  -30.2468   -8.7627 O   0  0  0  0  0  0  0  0  0  0  0  0
   22.5836  -30.1407   -9.0578 C   0  0  2  0  0  0  0  0  0  0  0  0
   22.4721  -28.9819   -9.9240 N   0  0  0  0  0  0  0  0  0  0  0  0
   23.7911  -30.8729   -9.4336 C   0  0  0  0  0  0  0  0  0  0  0  0
   24.2713  -30.7975  -10.5744 O   0  0  0  0  0  0  0  0  0  0  0  0
   30.3242  -34.2819   -4.6946 N   0  0  0  0  0  0  0  0  0  0  0  0
   30.8661  -33.9304   -5.9502 C   0  0  0  0  0  0  0  0  0  0  0  0
   32.1371  -33.9049   -6.1272 N   0  0  0  0  0  0  0  0  0  0  0  0
   30.0249  -33.5984   -7.0422 N   0  0  0  0  0  0  0  0  0  0  0  0
   28.6207  -33.8249   -6.9024 C   0  0  0  0  0  0  0  0  0  0  0  0
   27.8371  -33.5344   -8.1674 C   0  0  0  0  0  0  0  0  0  0  0  0
   26.5896  -32.7858   -7.7213 C   0  0  0  0  0  0  0  0  0  0  0  0
   25.6845  -32.4387   -8.8599 C   0  0  2  0  0  0  0  0  0  0  0  0
   24.5084  -31.7268   -8.5243 N   0  0  0  0  0  0  0  0  0  0  0  0
   25.4537  -33.6483   -9.6877 C   0  0  0  0  0  0  0  0  0  0  0  0
   24.6667  -34.5151   -9.2414 O   0  0  0  0  0  0  0  0  0  0  0  0
   32.5249  -33.6741   -7.0502 C   0  0  0  0  0  0  0  0  0  0  0  0
   24.1204  -37.1618  -16.1091 S   0  0  0  0  0  0  0  0  0  0  0  0
   24.6470  -35.7093  -15.1672 C   0  0  0  0  0  0  0  0  0  0  0  0
   25.8313  -36.2046  -13.8655 C   0  0  0  0  0  0  0  0  0  0  0  0
   26.2302  -34.9916  -13.0770 C   0  0  2  0  0  0  0  0  0  0  0  0
   25.7625  -35.1121  -11.6452 N   0  0  0  0  0  0  0  0  0  0  0  0
   26.0548  -33.8972  -10.9417 C   0  0  0  0  0  0  0  0  0  0  0  0
   26.3411  -36.3092  -10.9813 O   0  0  0  0  0  0  0  0  0  0  0  0
   27.4524  -36.3301  -10.4000 O   0  0  0  0  0  0  0  0  0  0  0  0
  2  1  1  1
  3  2  1  0
  4  5  1  6
  4  2  1  0
  6  4  1  0
  7  6  2  0
  8  9  1  0
  9 10  2  0
  9 11  1  0
 11 12  1  0
 13 14  1  0
 13 12  1  0
 15 14  1  1
 15 16  1  0
 16  6  1  0
 17 18  2  0
 17 15  1  0
 19 20  1  0
 20 21  1  0
 22 21  1  0
 23 22  1  6
 23 24  1  0
 24 17  1  0
 25 27  1  0
 25 23  1  0
 26 25  2  0
M  END
$$$$
