TRM.pdb
     RDKit          3D

 27 26  0  0  1  0  0  0  0  0999 V2000
   20.7063  -13.0404    6.1473 C   0  0  0  0  0  0  0  0  0  0  0  0
   19.5054  -12.1799    5.7729 C   0  0  1  0  0  0  0  0  0  0  0  0
   19.9850  -11.1186    5.0289 O   0  0  0  0  0  0  0  0  0  0  0  0
   18.5437  -13.0480    5.0137 C   0  0  2  0  0  0  0  0  0  0  0  0
   17.4350  -12.2136    4.5894 N   0  0  0  0  0  0  0  0  0  0  0  0
   18.0018  -14.1621    5.7885 C   0  0  0  0  0  0  0  0  0  0  0  0
   17.5198  -13.9972    6.9191 O   0  0  0  0  0  0  0  0  0  0  0  0
   15.0303  -18.1363    1.5288 N   0  0  0  0  0  0  0  0  0  0  0  0
   15.9260  -19.0690    2.0959 C   0  0  0  0  0  0  0  0  0  0  0  0
   16.7710  -19.6925    1.3580 N   0  0  0  0  0  0  0  0  0  0  0  0
   15.9153  -19.3394    3.4877 N   0  0  0  0  0  0  0  0  0  0  0  0
   15.0326  -18.5775    4.3139 C   0  0  0  0  0  0  0  0  0  0  0  0
   15.6725  -17.3256    4.8813 C   0  0  0  0  0  0  0  0  0  0  0  0
   16.9930  -17.7731    5.4911 C   0  0  0  0  0  0  0  0  0  0  0  0
   17.7476  -16.6494    6.1267 C   0  0  2  0  0  0  0  0  0  0  0  0
   17.9843  -15.5188    5.3094 N   0  0  0  0  0  0  0  0  0  0  0  0
   18.9589  -17.1887    6.7928 C   0  0  0  0  0  0  0  0  0  0  0  0
   19.9097  -17.5518    6.0620 O   0  0  0  0  0  0  0  0  0  0  0  0
   17.4767  -20.3046    1.7859 C   0  0  0  0  0  0  0  0  0  0  0  0
   22.8364  -14.1659    9.8480 S   0  0  0  0  0  0  0  0  0  0  0  0
   23.4828  -15.8470   10.0226 C   0  0  0  0  0  0  0  0  0  0  0  0
   22.5033  -17.0023    8.9987 C   0  0  0  0  0  0  0  0  0  0  0  0
   21.1014  -17.0626    9.5309 C   0  0  2  0  0  0  0  0  0  0  0  0
   20.2635  -18.0167    8.7118 N   0  0  0  0  0  0  0  0  0  0  0  0
   19.1214  -17.3243    8.1897 C   0  0  0  0  0  0  0  0  0  0  0  0
   19.8903  -19.2241    9.4937 O   0  0  0  0  0  0  0  0  0  0  0  0
   18.7114  -19.5644    9.7536 O   0  0  0  0  0  0  0  0  0  0  0  0
  2  1  1  6
  3  2  1  0
  4  5  1  1
  4  2  1  0
  6  4  1  0
  7  6  2  0
  8  9  1  0
  9 10  2  0
  9 11  1  0
 11 12  1  0
 13 14  1  0
 13 12  1  0
 15 14  1  6
 15 16  1  0
 16  6  1  0
 17 18  2  0
 17 15  1  0
 19 20  1  0
 20 21  1  0
 22 21  1  0
 23 22  1  6
 23 24  1  0
 24 17  1  0
 25 27  1  0
 25 23  1  0
 26 25  2  0
M  END
$$$$
