TRM.pdb
     RDKit          3D

 27 26  0  0  1  0  0  0  0  0999 V2000
   24.6114  -15.2809  -17.2739 C   0  0  0  0  0  0  0  0  0  0  0  0
   24.7466  -15.5732  -18.7635 C   0  0  1  0  0  0  0  0  0  0  0  0
   25.2591  -14.4337  -19.3541 O   0  0  0  0  0  0  0  0  0  0  0  0
   25.6412  -16.7702  -18.9121 C   0  0  2  0  0  0  0  0  0  0  0  0
   25.7424  -17.0737  -20.3274 N   0  0  0  0  0  0  0  0  0  0  0  0
   25.1602  -17.9668  -18.2252 C   0  0  0  0  0  0  0  0  0  0  0  0
   24.1784  -18.6040  -18.6348 O   0  0  0  0  0  0  0  0  0  0  0  0
   29.1007  -21.9259  -17.6113 N   0  0  0  0  0  0  0  0  0  0  0  0
   29.1638  -23.0935  -16.8198 C   0  0  0  0  0  0  0  0  0  0  0  0
   29.7102  -24.1614  -17.2763 N   0  0  0  0  0  0  0  0  0  0  0  0
   28.6284  -23.1164  -15.5072 N   0  0  0  0  0  0  0  0  0  0  0  0
   27.9207  -21.9622  -15.0494 C   0  0  0  0  0  0  0  0  0  0  0  0
   26.8661  -21.4786  -16.0254 C   0  0  0  0  0  0  0  0  0  0  0  0
   26.2219  -20.2637  -15.3735 C   0  0  0  0  0  0  0  0  0  0  0  0
   25.2550  -19.5666  -16.2765 C   0  0  2  0  0  0  0  0  0  0  0  0
   25.7774  -18.4936  -17.0369 N   0  0  0  0  0  0  0  0  0  0  0  0
   24.0251  -19.2365  -15.5148 C   0  0  0  0  0  0  0  0  0  0  0  0
   24.0215  -18.1736  -14.8513 O   0  0  0  0  0  0  0  0  0  0  0  0
   29.7580  -25.0062  -16.6935 C   0  0  0  0  0  0  0  0  0  0  0  0
   20.5618  -15.0301  -16.2050 S   0  0  0  0  0  0  0  0  0  0  0  0
   19.3647  -16.3836  -16.3022 C   0  0  0  0  0  0  0  0  0  0  0  0
   19.8996  -17.7684  -15.2350 C   0  0  0  0  0  0  0  0  0  0  0  0
   21.2220  -18.2827  -15.7240 C   0  0  1  0  0  0  0  0  0  0  0  0
   21.6461  -19.4959  -14.9293 N   0  0  0  0  0  0  0  0  0  0  0  0
   22.8571  -20.0305  -15.4806 C   0  0  0  0  0  0  0  0  0  0  0  0
   20.5588  -20.5062  -14.8542 O   0  0  0  0  0  0  0  0  0  0  0  0
   20.5745  -21.6106  -15.4486 O   0  0  0  0  0  0  0  0  0  0  0  0
  2  1  1  1
  3  2  1  0
  4  5  1  6
  4  2  1  0
  6  4  1  0
  7  6  2  0
  8  9  1  0
  9 10  2  0
  9 11  1  0
 11 12  1  0
 13 14  1  0
 13 12  1  0
 15 14  1  1
 15 16  1  0
 16  6  1  0
 17 18  2  0
 17 15  1  0
 19 20  1  0
 20 21  1  0
 22 21  1  0
 23 22  1  1
 23 24  1  0
 24 17  1  0
 25 27  1  0
 25 23  1  0
 26 25  2  0
M  END
$$$$
