TRM.pdb
     RDKit          3D

 27 26  0  0  1  0  0  0  0  0999 V2000
   29.2938  -21.2779  -16.3659 C   0  0  0  0  0  0  0  0  0  0  0  0
   28.3181  -21.2494  -15.1954 C   0  0  1  0  0  0  0  0  0  0  0  0
   29.0687  -21.3649  -14.0408 O   0  0  0  0  0  0  0  0  0  0  0  0
   27.5501  -19.9615  -15.2756 C   0  0  2  0  0  0  0  0  0  0  0  0
   28.5115  -18.8765  -15.3384 N   0  0  0  0  0  0  0  0  0  0  0  0
   26.6664  -19.7188  -14.1374 C   0  0  0  0  0  0  0  0  0  0  0  0
   26.9528  -18.8989  -13.2523 O   0  0  0  0  0  0  0  0  0  0  0  0
   19.0522  -18.4912  -12.6275 N   0  0  0  0  0  0  0  0  0  0  0  0
   19.4054  -19.3450  -13.6953 C   0  0  0  0  0  0  0  0  0  0  0  0
   18.7610  -19.3019  -14.8044 N   0  0  0  0  0  0  0  0  0  0  0  0
   20.4753  -20.2668  -13.5706 N   0  0  0  0  0  0  0  0  0  0  0  0
   20.8332  -20.7084  -12.2594 C   0  0  0  0  0  0  0  0  0  0  0  0
   22.2405  -20.3137  -11.8564 C   0  0  0  0  0  0  0  0  0  0  0  0
   23.1105  -20.5703  -13.0783 C   0  0  0  0  0  0  0  0  0  0  0  0
   24.5392  -20.1844  -12.8632 C   0  0  2  0  0  0  0  0  0  0  0  0
   25.4128  -20.4011  -13.9551 N   0  0  0  0  0  0  0  0  0  0  0  0
   25.0117  -20.7549  -11.5775 C   0  0  0  0  0  0  0  0  0  0  0  0
   25.1426  -21.9990  -11.5082 O   0  0  0  0  0  0  0  0  0  0  0  0
   19.0093  -19.9400  -15.5705 C   0  0  0  0  0  0  0  0  0  0  0  0
   29.0059  -18.4996   -6.9930 S   0  0  0  0  0  0  0  0  0  0  0  0
   27.7254  -19.2579   -5.9637 C   0  0  0  0  0  0  0  0  0  0  0  0
   26.6934  -20.3782   -6.9749 C   0  0  0  0  0  0  0  0  0  0  0  0
   26.4708  -19.7577   -8.3230 C   0  0  1  0  0  0  0  0  0  0  0  0
   25.6446  -20.6716   -9.1979 N   0  0  0  0  0  0  0  0  0  0  0  0
   25.3251  -20.0010  -10.4245 C   0  0  0  0  0  0  0  0  0  0  0  0
   24.4367  -21.1635   -8.4854 O   0  0  0  0  0  0  0  0  0  0  0  0
   24.4621  -21.9208   -7.4858 O   0  0  0  0  0  0  0  0  0  0  0  0
  2  1  1  6
  3  2  1  0
  4  5  1  1
  4  2  1  0
  6  4  1  0
  7  6  2  0
  8  9  1  0
  9 10  2  0
  9 11  1  0
 11 12  1  0
 13 14  1  0
 13 12  1  0
 15 14  1  6
 15 16  1  0
 16  6  1  0
 17 18  2  0
 17 15  1  0
 19 20  1  0
 20 21  1  0
 22 21  1  0
 23 22  1  6
 23 24  1  0
 24 17  1  0
 25 27  1  0
 25 23  1  0
 26 25  2  0
M  END
$$$$
