TRM.pdb
     RDKit          3D

 27 26  0  0  1  0  0  0  0  0999 V2000
   20.3785  -15.0402  -14.9820 C   0  0  0  0  0  0  0  0  0  0  0  0
   20.6714  -15.2443  -16.4637 C   0  0  1  0  0  0  0  0  0  0  0  0
   20.9759  -16.5814  -16.6350 O   0  0  0  0  0  0  0  0  0  0  0  0
   19.4554  -14.8113  -17.2309 C   0  0  2  0  0  0  0  0  0  0  0  0
   19.7244  -15.0209  -18.6413 N   0  0  0  0  0  0  0  0  0  0  0  0
   19.0957  -13.4077  -17.0419 C   0  0  0  0  0  0  0  0  0  0  0  0
   19.7622  -12.4901  -17.5435 O   0  0  0  0  0  0  0  0  0  0  0  0
   11.6771  -10.3827  -14.5262 N   0  0  0  0  0  0  0  0  0  0  0  0
   12.7006  -10.6303  -13.5854 C   0  0  0  0  0  0  0  0  0  0  0  0
   12.4154  -10.8317  -12.3504 N   0  0  0  0  0  0  0  0  0  0  0  0
   14.0624  -10.6627  -13.9786 N   0  0  0  0  0  0  0  0  0  0  0  0
   14.4836   -9.7765  -15.0177 C   0  0  0  0  0  0  0  0  0  0  0  0
   15.9625   -9.8828  -15.3343 C   0  0  0  0  0  0  0  0  0  0  0  0
   16.2319  -11.3616  -15.5719 C   0  0  0  0  0  0  0  0  0  0  0  0
   17.6408  -11.6331  -15.9932 C   0  0  2  0  0  0  0  0  0  0  0  0
   17.9573  -12.9842  -16.2705 N   0  0  0  0  0  0  0  0  0  0  0  0
   18.5709  -10.9671  -15.0482 C   0  0  0  0  0  0  0  0  0  0  0  0
   18.6378  -11.4220  -13.8826 O   0  0  0  0  0  0  0  0  0  0  0  0
   13.1612  -11.0460  -11.6770 C   0  0  0  0  0  0  0  0  0  0  0  0
   24.8304  -10.0520  -15.7199 S   0  0  0  0  0  0  0  0  0  0  0  0
   24.2953  -10.4526  -14.0384 C   0  0  0  0  0  0  0  0  0  0  0  0
   22.7075   -9.6228  -13.6738 C   0  0  0  0  0  0  0  0  0  0  0  0
   21.6601  -10.1282  -14.6222 C   0  0  1  0  0  0  0  0  0  0  0  0
   20.3567   -9.3925  -14.4145 N   0  0  0  0  0  0  0  0  0  0  0  0
   19.3872   -9.8579  -15.3631 C   0  0  0  0  0  0  0  0  0  0  0  0
   20.5470   -7.9196  -14.4691 O   0  0  0  0  0  0  0  0  0  0  0  0
   20.1193   -7.1829  -15.3898 O   0  0  0  0  0  0  0  0  0  0  0  0
  2  1  1  1
  3  2  1  0
  4  5  1  6
  4  2  1  0
  6  4  1  0
  7  6  2  0
  8  9  1  0
  9 10  2  0
  9 11  1  0
 11 12  1  0
 13 14  1  0
 13 12  1  0
 15 14  1  1
 15 16  1  0
 16  6  1  0
 17 18  2  0
 17 15  1  0
 19 20  1  0
 20 21  1  0
 22 21  1  0
 23 22  1  1
 23 24  1  0
 24 17  1  0
 25 27  1  0
 25 23  1  0
 26 25  2  0
M  END
$$$$
