TRM.pdb
     RDKit          3D

 27 26  0  0  1  0  0  0  0  0999 V2000
   24.8815  -18.4055  -16.5243 C   0  0  0  0  0  0  0  0  0  0  0  0
   24.4132  -19.6619  -17.2489 C   0  0  1  0  0  0  0  0  0  0  0  0
   24.0821  -19.2859  -18.5369 O   0  0  0  0  0  0  0  0  0  0  0  0
   25.5322  -20.6618  -17.1936 C   0  0  2  0  0  0  0  0  0  0  0  0
   25.0957  -21.8533  -17.8973 N   0  0  0  0  0  0  0  0  0  0  0  0
   25.9212  -21.0517  -15.8401 C   0  0  0  0  0  0  0  0  0  0  0  0
   25.2308  -21.8254  -15.1602 O   0  0  0  0  0  0  0  0  0  0  0  0
   32.0312  -22.8333  -11.1957 N   0  0  0  0  0  0  0  0  0  0  0  0
   31.6213  -21.9648  -10.1606 C   0  0  0  0  0  0  0  0  0  0  0  0
   31.7390  -22.3149   -8.9314 N   0  0  0  0  0  0  0  0  0  0  0  0
   31.0722  -20.6902  -10.4506 N   0  0  0  0  0  0  0  0  0  0  0  0
   30.6163  -20.4415  -11.7821 C   0  0  0  0  0  0  0  0  0  0  0  0
   29.1857  -20.8839  -12.0192 C   0  0  0  0  0  0  0  0  0  0  0  0
   28.8935  -20.5811  -13.4816 C   0  0  0  0  0  0  0  0  0  0  0  0
   27.4776  -20.8754  -13.8621 C   0  0  2  0  0  0  0  0  0  0  0  0
   27.1179  -20.5765  -15.1977 N   0  0  0  0  0  0  0  0  0  0  0  0
   26.5672  -20.3034  -12.8395 C   0  0  0  0  0  0  0  0  0  0  0  0
   26.1755  -19.1249  -13.0057 O   0  0  0  0  0  0  0  0  0  0  0  0
   31.4749  -21.6637   -8.1819 C   0  0  0  0  0  0  0  0  0  0  0  0
   21.3976  -19.0021  -13.7355 S   0  0  0  0  0  0  0  0  0  0  0  0
   21.1094  -20.0534  -12.2911 C   0  0  0  0  0  0  0  0  0  0  0  0
   22.5514  -19.9825  -11.1693 C   0  0  0  0  0  0  0  0  0  0  0  0
   23.7606  -20.5019  -11.8904 C   0  0  2  0  0  0  0  0  0  0  0  0
   24.9650  -20.4977  -10.9780 N   0  0  0  0  0  0  0  0  0  0  0  0
   26.1085  -20.9872  -11.6914 C   0  0  0  0  0  0  0  0  0  0  0  0
   24.7047  -21.2573   -9.7275 O   0  0  0  0  0  0  0  0  0  0  0  0
   23.7787  -21.0006   -8.9214 O   0  0  0  0  0  0  0  0  0  0  0  0
  2  1  1  1
  3  2  1  0
  4  5  1  6
  4  2  1  0
  6  4  1  0
  7  6  2  0
  8  9  1  0
  9 10  2  0
  9 11  1  0
 11 12  1  0
 13 14  1  0
 13 12  1  0
 15 14  1  1
 15 16  1  0
 16  6  1  0
 17 18  2  0
 17 15  1  0
 19 20  1  0
 20 21  1  0
 22 21  1  0
 23 22  1  6
 23 24  1  0
 24 17  1  0
 25 27  1  0
 25 23  1  0
 26 25  2  0
M  END
$$$$
