TRM.pdb
     RDKit          3D

 27 26  0  0  1  0  0  0  0  0999 V2000
   28.7799  -20.5565  -17.1653 C   0  0  0  0  0  0  0  0  0  0  0  0
   28.1135  -20.5898  -15.7951 C   0  0  1  0  0  0  0  0  0  0  0  0
   29.0044  -20.0308  -14.8986 O   0  0  0  0  0  0  0  0  0  0  0  0
   26.8229  -19.8291  -15.8991 C   0  0  2  0  0  0  0  0  0  0  0  0
   27.1294  -18.5059  -16.4095 N   0  0  0  0  0  0  0  0  0  0  0  0
   26.1154  -19.6728  -14.6302 C   0  0  0  0  0  0  0  0  0  0  0  0
   26.2487  -18.6584  -13.9295 O   0  0  0  0  0  0  0  0  0  0  0  0
   19.2394  -19.4998  -13.9256 N   0  0  0  0  0  0  0  0  0  0  0  0
   19.3014  -20.4507  -14.9675 C   0  0  0  0  0  0  0  0  0  0  0  0
   18.6143  -20.2885  -16.0394 N   0  0  0  0  0  0  0  0  0  0  0  0
   20.1200  -21.6031  -14.8575 N   0  0  0  0  0  0  0  0  0  0  0  0
   21.0266  -21.6812  -13.7554 C   0  0  0  0  0  0  0  0  0  0  0  0
   22.2991  -20.8848  -13.9674 C   0  0  0  0  0  0  0  0  0  0  0  0
   23.2027  -21.2233  -12.7907 C   0  0  0  0  0  0  0  0  0  0  0  0
   24.5337  -20.5464  -12.8692 C   0  0  2  0  0  0  0  0  0  0  0  0
   25.2213  -20.6678  -14.1001 N   0  0  0  0  0  0  0  0  0  0  0  0
   25.3396  -20.9123  -11.6782 C   0  0  0  0  0  0  0  0  0  0  0  0
   25.8942  -22.0358  -11.6760 O   0  0  0  0  0  0  0  0  0  0  0  0
   18.5918  -21.0260  -16.7544 C   0  0  0  0  0  0  0  0  0  0  0  0
   30.0011  -19.6225   -6.8104 S   0  0  0  0  0  0  0  0  0  0  0  0
   28.2978  -19.2601   -6.3186 C   0  0  0  0  0  0  0  0  0  0  0  0
   27.1443  -20.3773   -7.1925 C   0  0  0  0  0  0  0  0  0  0  0  0
   26.8168  -19.7926   -8.5352 C   0  0  1  0  0  0  0  0  0  0  0  0
   25.8459  -20.6807   -9.2782 N   0  0  0  0  0  0  0  0  0  0  0  0
   25.5289  -20.0894  -10.5455 C   0  0  0  0  0  0  0  0  0  0  0  0
   24.6362  -20.9676   -8.4640 O   0  0  0  0  0  0  0  0  0  0  0  0
   23.4838  -20.5539   -8.7360 O   0  0  0  0  0  0  0  0  0  0  0  0
  2  1  1  6
  3  2  1  0
  4  5  1  1
  4  2  1  0
  6  4  1  0
  7  6  2  0
  8  9  1  0
  9 10  2  0
  9 11  1  0
 11 12  1  0
 13 14  1  0
 13 12  1  0
 15 14  1  6
 15 16  1  0
 16  6  1  0
 17 18  2  0
 17 15  1  0
 19 20  1  0
 20 21  1  0
 22 21  1  0
 23 22  1  6
 23 24  1  0
 24 17  1  0
 25 27  1  0
 25 23  1  0
 26 25  2  0
M  END
$$$$
