TRM.pdb
     RDKit          3D

 27 26  0  0  1  0  0  0  0  0999 V2000
   28.9721  -23.1140  -18.3322 C   0  0  0  0  0  0  0  0  0  0  0  0
   27.8217  -22.5022  -17.5416 C   0  0  1  0  0  0  0  0  0  0  0  0
   26.7995  -22.2580  -18.4390 O   0  0  0  0  0  0  0  0  0  0  0  0
   27.4426  -23.4767  -16.4637 C   0  0  2  0  0  0  0  0  0  0  0  0
   26.9107  -24.6633  -17.1074 N   0  0  0  0  0  0  0  0  0  0  0  0
   26.4349  -22.9767  -15.5312 C   0  0  0  0  0  0  0  0  0  0  0  0
   25.2358  -23.2708  -15.6469 O   0  0  0  0  0  0  0  0  0  0  0  0
   23.2961  -20.1433   -9.1844 N   0  0  0  0  0  0  0  0  0  0  0  0
   24.4334  -20.5059   -8.4302 C   0  0  0  0  0  0  0  0  0  0  0  0
   24.3109  -20.8988   -7.2145 N   0  0  0  0  0  0  0  0  0  0  0  0
   25.7333  -20.4458   -8.9933 N   0  0  0  0  0  0  0  0  0  0  0  0
   25.8999  -19.7435  -10.2268 C   0  0  0  0  0  0  0  0  0  0  0  0
   25.1993  -20.4084  -11.3954 C   0  0  0  0  0  0  0  0  0  0  0  0
   26.3050  -20.9397  -12.2958 C   0  0  0  0  0  0  0  0  0  0  0  0
   25.7824  -21.5427  -13.5605 C   0  0  2  0  0  0  0  0  0  0  0  0
   26.7481  -22.1163  -14.4212 N   0  0  0  0  0  0  0  0  0  0  0  0
   24.8684  -20.5782  -14.2209 C   0  0  0  0  0  0  0  0  0  0  0  0
   25.3371  -19.8751  -15.1460 O   0  0  0  0  0  0  0  0  0  0  0  0
   23.3780  -20.9966   -6.7954 C   0  0  0  0  0  0  0  0  0  0  0  0
   22.9047  -22.8514  -18.5577 S   0  0  0  0  0  0  0  0  0  0  0  0
   22.4686  -21.1191  -18.8464 C   0  0  0  0  0  0  0  0  0  0  0  0
   21.9523  -20.3352  -17.2775 C   0  0  0  0  0  0  0  0  0  0  0  0
   22.9536  -20.6667  -16.2100 C   0  0  1  0  0  0  0  0  0  0  0  0
   22.5671  -20.0193  -14.9005 N   0  0  0  0  0  0  0  0  0  0  0  0
   23.5087  -20.3921  -13.8853 C   0  0  0  0  0  0  0  0  0  0  0  0
   21.1659  -20.3420  -14.5251 O   0  0  0  0  0  0  0  0  0  0  0  0
   20.1836  -19.5919  -14.7391 O   0  0  0  0  0  0  0  0  0  0  0  0
  2  1  1  6
  3  2  1  0
  4  5  1  6
  4  2  1  0
  6  4  1  0
  7  6  2  0
  8  9  1  0
  9 10  2  0
  9 11  1  0
 11 12  1  0
 13 14  1  0
 13 12  1  0
 15 14  1  1
 15 16  1  0
 16  6  1  0
 17 18  2  0
 17 15  1  0
 19 20  1  0
 20 21  1  0
 22 21  1  0
 23 22  1  6
 23 24  1  0
 24 17  1  0
 25 27  1  0
 25 23  1  0
 26 25  2  0
M  END
$$$$
