TRM.pdb
     RDKit          3D

 27 26  0  0  1  0  0  0  0  0999 V2000
   15.8679  -27.3422   -2.9775 C   0  0  0  0  0  0  0  0  0  0  0  0
   17.2667  -26.9600   -3.4465 C   0  0  1  0  0  0  0  0  0  0  0  0
   17.8803  -28.1214   -3.8761 O   0  0  0  0  0  0  0  0  0  0  0  0
   17.1170  -25.9334   -4.5322 C   0  0  2  0  0  0  0  0  0  0  0  0
   18.4469  -25.5763   -4.9897 N   0  0  0  0  0  0  0  0  0  0  0  0
   16.4390  -24.7096   -4.1106 C   0  0  0  0  0  0  0  0  0  0  0  0
   16.9723  -23.9023   -3.3350 O   0  0  0  0  0  0  0  0  0  0  0  0
   10.5349  -19.3231   -3.4937 N   0  0  0  0  0  0  0  0  0  0  0  0
   10.7136  -19.0469   -4.8668 C   0  0  0  0  0  0  0  0  0  0  0  0
   10.5288  -17.8613   -5.3224 N   0  0  0  0  0  0  0  0  0  0  0  0
   11.1000  -20.0665   -5.7731 N   0  0  0  0  0  0  0  0  0  0  0  0
   11.2884  -21.3868   -5.2594 C   0  0  0  0  0  0  0  0  0  0  0  0
   12.5574  -21.5381   -4.4437 C   0  0  0  0  0  0  0  0  0  0  0  0
   13.2068  -22.8292   -4.9202 C   0  0  0  0  0  0  0  0  0  0  0  0
   14.4248  -23.1902   -4.1314 C   0  0  2  0  0  0  0  0  0  0  0  0
   15.1186  -24.3487   -4.5544 N   0  0  0  0  0  0  0  0  0  0  0  0
   14.0954  -23.1670   -2.6847 C   0  0  0  0  0  0  0  0  0  0  0  0
   13.5476  -24.1834   -2.1981 O   0  0  0  0  0  0  0  0  0  0  0  0
   10.6495  -17.6690   -6.3245 C   0  0  0  0  0  0  0  0  0  0  0  0
   17.7742  -21.3437    2.3124 S   0  0  0  0  0  0  0  0  0  0  0  0
   16.1540  -20.6782    2.7667 C   0  0  0  0  0  0  0  0  0  0  0  0
   14.8386  -21.5563    1.8495 C   0  0  0  0  0  0  0  0  0  0  0  0
   15.0894  -21.4161    0.3766 C   0  0  2  0  0  0  0  0  0  0  0  0
   14.0784  -22.2154   -0.4122 N   0  0  0  0  0  0  0  0  0  0  0  0
   14.3523  -22.0847   -1.8137 C   0  0  0  0  0  0  0  0  0  0  0  0
   12.6862  -21.8287   -0.0646 O   0  0  0  0  0  0  0  0  0  0  0  0
   11.9707  -21.0611   -0.7518 O   0  0  0  0  0  0  0  0  0  0  0  0
  2  1  1  6
  3  2  1  0
  4  5  1  1
  4  2  1  0
  6  4  1  0
  7  6  2  0
  8  9  1  0
  9 10  2  0
  9 11  1  0
 11 12  1  0
 13 14  1  0
 13 12  1  0
 15 14  1  6
 15 16  1  0
 16  6  1  0
 17 18  2  0
 17 15  1  0
 19 20  1  0
 20 21  1  0
 22 21  1  0
 23 22  1  1
 23 24  1  0
 24 17  1  0
 25 27  1  0
 25 23  1  0
 26 25  2  0
M  END
$$$$
