CFQ.pdb
     RDKit          3D

 27 27  0  0  1  0  0  0  0  0999 V2000
   10.1715  -16.0114   19.0720 N   0  0  0  0  0  0  0  0  0  0  0  0
    9.2376  -16.4730   20.0459 C   0  0  1  0  0  0  0  0  0  0  0  0
    9.5081  -17.9690   20.2547 C   0  0  0  0  0  0  0  0  0  0  0  0
    8.3819  -18.6227   21.5085 S   0  0  0  0  0  0  0  0  0  0  0  0
    9.4975  -15.8236   21.3522 C   0  0  0  0  0  0  0  0  0  0  0  0
   10.6685  -15.6658   21.8074 O   0  0  0  0  0  0  0  0  0  0  0  0
    8.4053  -15.3663   22.1134 N   0  0  0  0  0  0  0  0  0  0  0  0
    8.5122  -14.7632   23.4246 C   0  0  1  0  0  0  0  0  0  0  0  0
    7.2284  -13.9956   23.6504 C   0  0  0  0  0  0  0  0  0  0  0  0
    7.1414  -13.3447   24.9606 C   0  0  0  0  0  0  0  0  0  0  0  0
    7.8393  -12.1655   25.1929 C   0  0  0  0  0  0  0  0  0  0  0  0
    7.8103  -11.4941   26.3846 C   0  0  0  0  0  0  0  0  0  0  0  0
    7.0509  -12.0049   27.4194 C   0  0  0  0  0  0  0  0  0  0  0  0
    6.3500  -13.1646   27.2267 C   0  0  0  0  0  0  0  0  0  0  0  0
    6.3944  -13.8241   26.0166 C   0  0  0  0  0  0  0  0  0  0  0  0
    8.7619  -15.7941   24.4640 C   0  0  0  0  0  0  0  0  0  0  0  0
    7.9960  -16.7875   24.5567 O   0  0  0  0  0  0  0  0  0  0  0  0
   13.8180  -18.5488   25.4102 N   0  0  0  0  0  0  0  0  0  0  0  0
   12.9618  -18.2512   24.3371 C   0  0  0  0  0  0  0  0  0  0  0  0
   13.2978  -18.4782   23.1651 O   0  0  0  0  0  0  0  0  0  0  0  0
   11.6309  -17.6540   24.6145 C   0  0  0  0  0  0  0  0  0  0  0  0
   11.4367  -17.4199   26.0871 C   0  0  0  0  0  0  0  0  0  0  0  0
   10.1211  -16.7877   26.3648 C   0  0  2  0  0  0  0  0  0  0  0  0
    9.8352  -15.7260   25.3793 N   0  0  0  0  0  0  0  0  0  0  0  0
   10.0301  -16.1831   27.7011 C   0  0  0  0  0  0  0  0  0  0  0  0
   10.0281  -16.8962   28.8825 O   0  0  0  0  0  0  0  0  0  0  0  0
    9.9449  -14.9323   27.8033 O   0  0  0  0  0  0  0  0  0  0  0  0
  2  5  1  0
  2  1  1  6
  3  2  1  0
  4  3  1  0
  5  6  2  0
  7  8  1  0
  7  5  1  0
  9 10  1  0
  8  9  1  1
 10 15  2  0
 11 12  2  0
 11 10  1  0
 12 13  1  0
 13 14  2  0
 15 14  1  0
 16  8  1  0
 16 17  2  0
 18 19  1  0
 19 21  1  0
 20 19  2  0
 21 22  1  0
 23 22  1  6
 23 24  1  0
 23 25  1  0
 24 16  1  0
 25 27  2  0
 25 26  1  0
M  END
$$$$
