CFQ.pdb
     RDKit          3D

 27 27  0  0  1  0  0  0  0  0999 V2000
    8.1587  -16.6272   18.3761 N   0  0  0  0  0  0  0  0  0  0  0  0
    7.8278  -17.1823   19.6474 C   0  0  1  0  0  0  0  0  0  0  0  0
    8.5530  -18.5307   19.7518 C   0  0  0  0  0  0  0  0  0  0  0  0
    8.1379  -19.3260   21.3212 S   0  0  0  0  0  0  0  0  0  0  0  0
    8.3766  -16.3369   20.7335 C   0  0  0  0  0  0  0  0  0  0  0  0
    9.5649  -15.9001   20.7150 O   0  0  0  0  0  0  0  0  0  0  0  0
    7.5486  -16.0079   21.8234 N   0  0  0  0  0  0  0  0  0  0  0  0
    7.9481  -15.1745   22.9370 C   0  0  1  0  0  0  0  0  0  0  0  0
    6.6794  -14.5740   23.5010 C   0  0  0  0  0  0  0  0  0  0  0  0
    6.8861  -13.7444   24.6913 C   0  0  0  0  0  0  0  0  0  0  0  0
    6.5451  -14.2387   25.9446 C   0  0  0  0  0  0  0  0  0  0  0  0
    6.7079  -13.5314   27.1044 C   0  0  0  0  0  0  0  0  0  0  0  0
    7.2383  -12.2575   27.0395 C   0  0  0  0  0  0  0  0  0  0  0  0
    7.5859  -11.7378   25.8219 C   0  0  0  0  0  0  0  0  0  0  0  0
    7.4127  -12.4695   24.6661 C   0  0  0  0  0  0  0  0  0  0  0  0
    8.7137  -15.9590   23.9389 C   0  0  0  0  0  0  0  0  0  0  0  0
    8.2904  -17.0842   24.3088 O   0  0  0  0  0  0  0  0  0  0  0  0
   14.7499  -15.7237   23.3296 N   0  0  0  0  0  0  0  0  0  0  0  0
   14.6989  -16.5935   24.4313 C   0  0  0  0  0  0  0  0  0  0  0  0
   15.7293  -17.1064   24.8933 O   0  0  0  0  0  0  0  0  0  0  0  0
   13.3858  -16.9026   25.0520 C   0  0  0  0  0  0  0  0  0  0  0  0
   12.2902  -16.0669   24.4500 C   0  0  0  0  0  0  0  0  0  0  0  0
   10.9646  -16.4229   25.0186 C   0  0  2  0  0  0  0  0  0  0  0  0
    9.9202  -15.5073   24.5176 N   0  0  0  0  0  0  0  0  0  0  0  0
   10.9231  -16.3756   26.4869 C   0  0  0  0  0  0  0  0  0  0  0  0
   10.1819  -15.4704   27.2185 O   0  0  0  0  0  0  0  0  0  0  0  0
   11.6021  -17.2043   27.1462 O   0  0  0  0  0  0  0  0  0  0  0  0
  2  5  1  0
  2  1  1  6
  3  2  1  0
  4  3  1  0
  5  6  2  0
  7  8  1  0
  7  5  1  0
  9 10  1  0
  8  9  1  1
 10 15  2  0
 11 12  2  0
 11 10  1  0
 12 13  1  0
 13 14  2  0
 15 14  1  0
 16  8  1  0
 16 17  2  0
 18 19  1  0
 19 21  1  0
 20 19  2  0
 21 22  1  0
 23 22  1  6
 23 24  1  0
 23 25  1  0
 24 16  1  0
 25 27  2  0
 25 26  1  0
M  END
$$$$
