CFQ.pdb
     RDKit          3D

 27 27  0  0  1  0  0  0  0  0999 V2000
    4.9648  -19.8766   21.8332 N   0  0  0  0  0  0  0  0  0  0  0  0
    5.5150  -19.6982   23.1367 C   0  0  1  0  0  0  0  0  0  0  0  0
    6.5731  -20.7923   23.3318 C   0  0  0  0  0  0  0  0  0  0  0  0
    5.8372  -22.2068   24.1834 S   0  0  0  0  0  0  0  0  0  0  0  0
    6.2404  -18.4085   23.2138 C   0  0  0  0  0  0  0  0  0  0  0  0
    6.8663  -17.9250   22.2251 O   0  0  0  0  0  0  0  0  0  0  0  0
    6.2337  -17.6962   24.4280 N   0  0  0  0  0  0  0  0  0  0  0  0
    6.9323  -16.4489   24.6532 C   0  0  1  0  0  0  0  0  0  0  0  0
    6.1417  -15.6967   25.7007 C   0  0  0  0  0  0  0  0  0  0  0  0
    6.6570  -14.3563   25.9932 C   0  0  0  0  0  0  0  0  0  0  0  0
    6.3446  -13.2975   25.1488 C   0  0  0  0  0  0  0  0  0  0  0  0
    6.7821  -12.0171   25.3508 C   0  0  0  0  0  0  0  0  0  0  0  0
    7.5771  -11.7495   26.4484 C   0  0  0  0  0  0  0  0  0  0  0  0
    7.9053  -12.7679   27.3020 C   0  0  0  0  0  0  0  0  0  0  0  0
    7.4525  -14.0509   27.0781 C   0  0  0  0  0  0  0  0  0  0  0  0
    8.3406  -16.6948   25.0552 C   0  0  0  0  0  0  0  0  0  0  0  0
    8.6140  -17.6527   25.8230 O   0  0  0  0  0  0  0  0  0  0  0  0
   12.2526  -16.5688   21.0050 N   0  0  0  0  0  0  0  0  0  0  0  0
   13.2543  -16.6577   21.9857 C   0  0  0  0  0  0  0  0  0  0  0  0
   14.3681  -17.1368   21.7248 O   0  0  0  0  0  0  0  0  0  0  0  0
   12.9714  -16.1682   23.3588 C   0  0  0  0  0  0  0  0  0  0  0  0
   11.5601  -15.6623   23.4751 C   0  0  0  0  0  0  0  0  0  0  0  0
   10.8054  -16.4018   24.5195 C   0  0  2  0  0  0  0  0  0  0  0  0
    9.4209  -15.8978   24.6167 N   0  0  0  0  0  0  0  0  0  0  0  0
   11.4040  -16.3030   25.8580 C   0  0  0  0  0  0  0  0  0  0  0  0
   12.4767  -17.0552   26.2914 O   0  0  0  0  0  0  0  0  0  0  0  0
   10.9236  -15.4864   26.6855 O   0  0  0  0  0  0  0  0  0  0  0  0
  2  5  1  0
  2  1  1  6
  3  2  1  0
  4  3  1  0
  5  6  2  0
  7  8  1  0
  7  5  1  0
  9 10  1  0
  8  9  1  1
 10 15  2  0
 11 12  2  0
 11 10  1  0
 12 13  1  0
 13 14  2  0
 15 14  1  0
 16  8  1  0
 16 17  2  0
 18 19  1  0
 19 21  1  0
 20 19  2  0
 21 22  1  0
 23 22  1  6
 23 24  1  0
 23 25  1  0
 24 16  1  0
 25 27  2  0
 25 26  1  0
M  END
$$$$
