CFQ.pdb
     RDKit          3D

 27 27  0  0  1  0  0  0  0  0999 V2000
    8.1660  -12.9751   18.1863 N   0  0  0  0  0  0  0  0  0  0  0  0
    7.7466  -14.0457   19.0299 C   0  0  1  0  0  0  0  0  0  0  0  0
    8.4072  -15.3238   18.4963 C   0  0  0  0  0  0  0  0  0  0  0  0
    7.9463  -16.7281   19.5370 S   0  0  0  0  0  0  0  0  0  0  0  0
    8.2744  -13.8536   20.4010 C   0  0  0  0  0  0  0  0  0  0  0  0
    9.4464  -13.4276   20.6205 O   0  0  0  0  0  0  0  0  0  0  0  0
    7.4446  -14.1551   21.4974 N   0  0  0  0  0  0  0  0  0  0  0  0
    7.8188  -13.9796   22.8844 C   0  0  1  0  0  0  0  0  0  0  0  0
    6.6169  -13.3814   23.5813 C   0  0  0  0  0  0  0  0  0  0  0  0
    6.8321  -13.0859   25.0005 C   0  0  0  0  0  0  0  0  0  0  0  0
    7.5985  -11.9862   25.3678 C   0  0  0  0  0  0  0  0  0  0  0  0
    7.8456  -11.6394   26.6680 C   0  0  0  0  0  0  0  0  0  0  0  0
    7.3106  -12.4150   27.6782 C   0  0  0  0  0  0  0  0  0  0  0  0
    6.5504  -13.5060   27.3538 C   0  0  0  0  0  0  0  0  0  0  0  0
    6.3147  -13.8363   26.0360 C   0  0  0  0  0  0  0  0  0  0  0  0
    8.2552  -15.2667   23.4830 C   0  0  0  0  0  0  0  0  0  0  0  0
    7.5863  -16.3116   23.2763 O   0  0  0  0  0  0  0  0  0  0  0  0
   12.9053  -17.3396   21.0287 N   0  0  0  0  0  0  0  0  0  0  0  0
   12.5772  -17.6148   22.3665 C   0  0  0  0  0  0  0  0  0  0  0  0
   13.4031  -18.1243   23.1389 O   0  0  0  0  0  0  0  0  0  0  0  0
   11.2159  -17.2886   22.8620 C   0  0  0  0  0  0  0  0  0  0  0  0
   11.2280  -17.0095   24.3395 C   0  0  0  0  0  0  0  0  0  0  0  0
    9.8670  -16.6847   24.8391 C   0  0  2  0  0  0  0  0  0  0  0  0
    9.4059  -15.3931   24.2919 N   0  0  0  0  0  0  0  0  0  0  0  0
    9.7843  -16.5962   26.3037 C   0  0  0  0  0  0  0  0  0  0  0  0
    9.6747  -17.6830   27.1469 O   0  0  0  0  0  0  0  0  0  0  0  0
    9.8108  -15.4642   26.8517 O   0  0  0  0  0  0  0  0  0  0  0  0
  2  5  1  0
  2  1  1  6
  3  2  1  0
  4  3  1  0
  5  6  2  0
  7  8  1  0
  7  5  1  0
  9 10  1  0
  8  9  1  1
 10 15  2  0
 11 12  2  0
 11 10  1  0
 12 13  1  0
 13 14  2  0
 15 14  1  0
 16  8  1  0
 16 17  2  0
 18 19  1  0
 19 21  1  0
 20 19  2  0
 21 22  1  0
 23 22  1  1
 23 24  1  0
 23 25  1  0
 24 16  1  0
 25 27  2  0
 25 26  1  0
M  END
$$$$
