CFQ.pdb
     RDKit          3D

 27 27  0  0  1  0  0  0  0  0999 V2000
    8.2321  -12.7599   18.2607 N   0  0  0  0  0  0  0  0  0  0  0  0
    8.2180  -14.0195   18.9293 C   0  0  1  0  0  0  0  0  0  0  0  0
    9.3388  -14.8679   18.3137 C   0  0  0  0  0  0  0  0  0  0  0  0
    9.3084  -16.5283   19.0275 S   0  0  0  0  0  0  0  0  0  0  0  0
    8.5737  -13.8450   20.3571 C   0  0  0  0  0  0  0  0  0  0  0  0
    9.5468  -13.1247   20.7281 O   0  0  0  0  0  0  0  0  0  0  0  0
    7.8034  -14.5023   21.3349 N   0  0  0  0  0  0  0  0  0  0  0  0
    8.0170  -14.3904   22.7619 C   0  0  1  0  0  0  0  0  0  0  0  0
    6.6478  -14.2647   23.3927 C   0  0  0  0  0  0  0  0  0  0  0  0
    6.6629  -13.7299   24.7571 C   0  0  0  0  0  0  0  0  0  0  0  0
    6.5554  -12.3596   24.9623 C   0  0  0  0  0  0  0  0  0  0  0  0
    6.5586  -11.7799   26.2016 C   0  0  0  0  0  0  0  0  0  0  0  0
    6.6744  -12.5885   27.3156 C   0  0  0  0  0  0  0  0  0  0  0  0
    6.7823  -13.9431   27.1518 C   0  0  0  0  0  0  0  0  0  0  0  0
    6.7767  -14.5050   25.8927 C   0  0  0  0  0  0  0  0  0  0  0  0
    8.7879  -15.5511   23.2756 C   0  0  0  0  0  0  0  0  0  0  0  0
    9.1242  -16.4753   22.4916 O   0  0  0  0  0  0  0  0  0  0  0  0
   11.5529  -14.1372   28.5916 N   0  0  0  0  0  0  0  0  0  0  0  0
   10.7114  -15.2553   28.7131 C   0  0  0  0  0  0  0  0  0  0  0  0
   10.2892  -15.6246   29.8192 O   0  0  0  0  0  0  0  0  0  0  0  0
   10.3219  -16.0066   27.4928 C   0  0  0  0  0  0  0  0  0  0  0  0
   10.9598  -15.4173   26.2653 C   0  0  0  0  0  0  0  0  0  0  0  0
   10.5246  -16.1287   25.0358 C   0  0  2  0  0  0  0  0  0  0  0  0
    9.1771  -15.6847   24.6266 N   0  0  0  0  0  0  0  0  0  0  0  0
   10.4788  -17.5897   25.1873 C   0  0  0  0  0  0  0  0  0  0  0  0
    9.3215  -18.3411   25.1682 O   0  0  0  0  0  0  0  0  0  0  0  0
   11.5535  -18.2231   25.3493 O   0  0  0  0  0  0  0  0  0  0  0  0
  2  5  1  0
  2  1  1  6
  3  2  1  0
  4  3  1  0
  5  6  2  0
  7  8  1  0
  7  5  1  0
  9 10  1  0
  8  9  1  1
 10 15  2  0
 11 12  2  0
 11 10  1  0
 12 13  1  0
 13 14  2  0
 15 14  1  0
 16  8  1  0
 16 17  2  0
 18 19  1  0
 19 21  1  0
 20 19  2  0
 21 22  1  0
 23 22  1  1
 23 24  1  0
 23 25  1  0
 24 16  1  0
 25 27  2  0
 25 26  1  0
M  END
$$$$
