CFQ.pdb
     RDKit          3D

 27 27  0  0  1  0  0  0  0  0999 V2000
    8.1522  -14.6417   18.6604 N   0  0  0  0  0  0  0  0  0  0  0  0
    7.7061  -15.5311   19.6821 C   0  0  1  0  0  0  0  0  0  0  0  0
    8.2802  -16.9160   19.3547 C   0  0  0  0  0  0  0  0  0  0  0  0
    7.7402  -18.1095   20.6003 S   0  0  0  0  0  0  0  0  0  0  0  0
    8.2897  -15.1441   20.9879 C   0  0  0  0  0  0  0  0  0  0  0  0
    9.4967  -14.7808   21.1078 O   0  0  0  0  0  0  0  0  0  0  0  0
    7.4743  -15.1816   22.1349 N   0  0  0  0  0  0  0  0  0  0  0  0
    7.9210  -14.8545   23.4720 C   0  0  1  0  0  0  0  0  0  0  0  0
    6.6800  -14.5196   24.2696 C   0  0  0  0  0  0  0  0  0  0  0  0
    6.8853  -13.4934   25.2955 C   0  0  0  0  0  0  0  0  0  0  0  0
    5.8330  -13.1286   26.1268 C   0  0  0  0  0  0  0  0  0  0  0  0
    5.9410  -12.1829   27.1096 C   0  0  0  0  0  0  0  0  0  0  0  0
    7.1548  -11.5501   27.2956 C   0  0  0  0  0  0  0  0  0  0  0  0
    8.2137  -11.8840   26.4953 C   0  0  0  0  0  0  0  0  0  0  0  0
    8.0813  -12.8404   25.5109 C   0  0  0  0  0  0  0  0  0  0  0  0
    8.7030  -15.9726   24.0584 C   0  0  0  0  0  0  0  0  0  0  0  0
    8.2714  -17.1508   23.9721 O   0  0  0  0  0  0  0  0  0  0  0  0
   14.8798  -17.5903   23.7414 N   0  0  0  0  0  0  0  0  0  0  0  0
   13.8682  -18.3463   24.3565 C   0  0  0  0  0  0  0  0  0  0  0  0
   13.6218  -19.5062   23.9930 O   0  0  0  0  0  0  0  0  0  0  0  0
   13.0812  -17.7428   25.4617 C   0  0  0  0  0  0  0  0  0  0  0  0
   12.2115  -16.6230   24.9609 C   0  0  0  0  0  0  0  0  0  0  0  0
   10.7725  -16.9125   25.1906 C   0  0  2  0  0  0  0  0  0  0  0  0
    9.9346  -15.7894   24.7248 N   0  0  0  0  0  0  0  0  0  0  0  0
   10.4395  -17.1536   26.6015 C   0  0  0  0  0  0  0  0  0  0  0  0
   10.7935  -18.2867   27.3050 O   0  0  0  0  0  0  0  0  0  0  0  0
    9.7857  -16.2847   27.2340 O   0  0  0  0  0  0  0  0  0  0  0  0
  2  5  1  0
  2  1  1  6
  3  2  1  0
  4  3  1  0
  5  6  2  0
  7  8  1  0
  7  5  1  0
  9 10  1  0
  8  9  1  1
 10 15  2  0
 11 12  2  0
 11 10  1  0
 12 13  1  0
 13 14  2  0
 15 14  1  0
 16  8  1  0
 16 17  2  0
 18 19  1  0
 19 21  1  0
 20 19  2  0
 21 22  1  0
 23 22  1  1
 23 24  1  0
 23 25  1  0
 24 16  1  0
 25 27  2  0
 25 26  1  0
M  END
$$$$
