CFQ.pdb
     RDKit          3D

 27 27  0  0  1  0  0  0  0  0999 V2000
   10.3153  -16.4406   19.2375 N   0  0  0  0  0  0  0  0  0  0  0  0
    9.4360  -16.8129   20.2968 C   0  0  1  0  0  0  0  0  0  0  0  0
    9.8009  -18.2476   20.7008 C   0  0  0  0  0  0  0  0  0  0  0  0
    9.0297  -19.4172   19.5585 S   0  0  0  0  0  0  0  0  0  0  0  0
    9.6900  -15.9739   21.4914 C   0  0  0  0  0  0  0  0  0  0  0  0
   10.8538  -15.5957   21.8166 O   0  0  0  0  0  0  0  0  0  0  0  0
    8.6002  -15.5837   22.2924 N   0  0  0  0  0  0  0  0  0  0  0  0
    8.7100  -14.8041   23.5068 C   0  0  1  0  0  0  0  0  0  0  0  0
    7.4071  -14.0493   23.6520 C   0  0  0  0  0  0  0  0  0  0  0  0
    7.2763  -13.3163   24.9143 C   0  0  0  0  0  0  0  0  0  0  0  0
    7.9835  -12.1348   25.1025 C   0  0  0  0  0  0  0  0  0  0  0  0
    7.9159  -11.3895   26.2478 C   0  0  0  0  0  0  0  0  0  0  0  0
    7.1055  -11.8235   27.2789 C   0  0  0  0  0  0  0  0  0  0  0  0
    6.3939  -12.9830   27.1289 C   0  0  0  0  0  0  0  0  0  0  0  0
    6.4778  -13.7178   25.9652 C   0  0  0  0  0  0  0  0  0  0  0  0
    9.0083  -15.6758   24.6716 C   0  0  0  0  0  0  0  0  0  0  0  0
    8.2730  -16.6665   24.9163 O   0  0  0  0  0  0  0  0  0  0  0  0
   14.4956  -17.0471   24.3093 N   0  0  0  0  0  0  0  0  0  0  0  0
   14.0964  -15.9584   25.1021 C   0  0  0  0  0  0  0  0  0  0  0  0
   14.9307  -15.2032   25.6235 O   0  0  0  0  0  0  0  0  0  0  0  0
   12.6484  -15.7100   25.3180 C   0  0  0  0  0  0  0  0  0  0  0  0
   12.0420  -16.7650   26.2013 C   0  0  0  0  0  0  0  0  0  0  0  0
   10.6076  -16.4859   26.4698 C   0  0  2  0  0  0  0  0  0  0  0  0
   10.0959  -15.4549   25.5449 N   0  0  0  0  0  0  0  0  0  0  0  0
   10.3461  -16.0178   27.8380 C   0  0  0  0  0  0  0  0  0  0  0  0
    9.7131  -14.8321   28.1503 O   0  0  0  0  0  0  0  0  0  0  0  0
   10.7163  -16.7262   28.8093 O   0  0  0  0  0  0  0  0  0  0  0  0
  2  5  1  0
  2  1  1  6
  3  2  1  0
  4  3  1  0
  5  6  2  0
  7  8  1  0
  7  5  1  0
  9 10  1  0
  8  9  1  1
 10 15  2  0
 11 12  2  0
 11 10  1  0
 12 13  1  0
 13 14  2  0
 15 14  1  0
 16  8  1  0
 16 17  2  0
 18 19  1  0
 19 21  1  0
 20 19  2  0
 21 22  1  0
 23 22  1  1
 23 24  1  0
 23 25  1  0
 24 16  1  0
 25 27  2  0
 25 26  1  0
M  END
$$$$
