CFQ.pdb
     RDKit          3D

 27 27  0  0  1  0  0  0  0  0999 V2000
   10.8294  -16.1764   19.0188 N   0  0  0  0  0  0  0  0  0  0  0  0
    9.5913  -16.3738   19.6984 C   0  0  1  0  0  0  0  0  0  0  0  0
    9.3378  -17.8867   19.7406 C   0  0  0  0  0  0  0  0  0  0  0  0
    8.7713  -18.4552   18.1209 S   0  0  0  0  0  0  0  0  0  0  0  0
    9.7073  -15.9384   21.1099 C   0  0  0  0  0  0  0  0  0  0  0  0
   10.7747  -16.0816   21.7758 O   0  0  0  0  0  0  0  0  0  0  0  0
    8.5927  -15.3452   21.7323 N   0  0  0  0  0  0  0  0  0  0  0  0
    8.5649  -14.8864   23.1046 C   0  0  1  0  0  0  0  0  0  0  0  0
    7.4660  -13.8502   23.1889 C   0  0  0  0  0  0  0  0  0  0  0  0
    7.3079  -13.2504   24.5167 C   0  0  0  0  0  0  0  0  0  0  0  0
    6.2787  -13.6760   25.3480 C   0  0  0  0  0  0  0  0  0  0  0  0
    6.0631  -13.1707   26.6010 C   0  0  0  0  0  0  0  0  0  0  0  0
    6.9061  -12.1850   27.0765 C   0  0  0  0  0  0  0  0  0  0  0  0
    7.9310  -11.7411   26.2853 C   0  0  0  0  0  0  0  0  0  0  0  0
    8.1289  -12.2654   25.0255 C   0  0  0  0  0  0  0  0  0  0  0  0
    8.3640  -16.0223   24.0398 C   0  0  0  0  0  0  0  0  0  0  0  0
    7.4292  -16.8398   23.8397 O   0  0  0  0  0  0  0  0  0  0  0  0
   11.9867  -17.6437   29.0359 N   0  0  0  0  0  0  0  0  0  0  0  0
   11.0271  -16.6216   29.1236 C   0  0  0  0  0  0  0  0  0  0  0  0
   10.9758  -15.8713   30.1099 O   0  0  0  0  0  0  0  0  0  0  0  0
   10.0579  -16.4387   28.0136 C   0  0  0  0  0  0  0  0  0  0  0  0
   10.2099  -17.5169   26.9765 C   0  0  0  0  0  0  0  0  0  0  0  0
    9.1022  -17.4750   25.9873 C   0  0  2  0  0  0  0  0  0  0  0  0
    9.1797  -16.2474   25.1704 N   0  0  0  0  0  0  0  0  0  0  0  0
    7.7665  -17.5124   26.5988 C   0  0  0  0  0  0  0  0  0  0  0  0
    7.2332  -18.6094   27.2440 O   0  0  0  0  0  0  0  0  0  0  0  0
    7.0378  -16.4885   26.5425 O   0  0  0  0  0  0  0  0  0  0  0  0
  2  5  1  0
  2  1  1  6
  3  2  1  0
  4  3  1  0
  5  6  2  0
  7  8  1  0
  7  5  1  0
  9 10  1  0
  8  9  1  6
 10 15  2  0
 11 12  2  0
 11 10  1  0
 12 13  1  0
 13 14  2  0
 15 14  1  0
 16  8  1  0
 16 17  2  0
 18 19  1  0
 19 21  1  0
 20 19  2  0
 21 22  1  0
 23 22  1  1
 23 24  1  0
 23 25  1  0
 24 16  1  0
 25 27  2  0
 25 26  1  0
M  END
$$$$
