CFQ.pdb
     RDKit          3D

 27 27  0  0  1  0  0  0  0  0999 V2000
   10.0009  -17.1736   19.9526 N   0  0  0  0  0  0  0  0  0  0  0  0
    8.9476  -17.1960   20.9137 C   0  0  1  0  0  0  0  0  0  0  0  0
    8.9636  -18.5849   21.5661 C   0  0  0  0  0  0  0  0  0  0  0  0
    8.5381  -19.8404   20.3371 S   0  0  0  0  0  0  0  0  0  0  0  0
    9.2268  -16.2295   22.0015 C   0  0  0  0  0  0  0  0  0  0  0  0
   10.4053  -15.9011   22.3279 O   0  0  0  0  0  0  0  0  0  0  0  0
    8.1448  -15.6564   22.6962 N   0  0  0  0  0  0  0  0  0  0  0  0
    8.2727  -14.6695   23.7470 C   0  0  1  0  0  0  0  0  0  0  0  0
    6.9146  -14.0194   23.8932 C   0  0  0  0  0  0  0  0  0  0  0  0
    6.8370  -13.0285   24.9702 C   0  0  0  0  0  0  0  0  0  0  0  0
    5.9633  -13.2305   26.0320 C   0  0  0  0  0  0  0  0  0  0  0  0
    5.8316  -12.3574   27.0771 C   0  0  0  0  0  0  0  0  0  0  0  0
    6.6021  -11.2109   27.0892 C   0  0  0  0  0  0  0  0  0  0  0  0
    7.4738  -10.9788   26.0599 C   0  0  0  0  0  0  0  0  0  0  0  0
    7.5896  -11.8732   25.0169 C   0  0  0  0  0  0  0  0  0  0  0  0
    8.7553  -15.2937   25.0051 C   0  0  0  0  0  0  0  0  0  0  0  0
    9.0296  -14.5708   25.9971 O   0  0  0  0  0  0  0  0  0  0  0  0
    6.9313  -20.7767   27.1484 N   0  0  0  0  0  0  0  0  0  0  0  0
    7.8894  -20.4482   28.1216 C   0  0  0  0  0  0  0  0  0  0  0  0
    8.0361  -21.1425   29.1388 O   0  0  0  0  0  0  0  0  0  0  0  0
    8.7405  -19.2472   27.9261 C   0  0  0  0  0  0  0  0  0  0  0  0
    8.3609  -18.5108   26.6712 C   0  0  0  0  0  0  0  0  0  0  0  0
    9.2247  -17.3205   26.4610 C   0  0  2  0  0  0  0  0  0  0  0  0
    8.9301  -16.6865   25.1604 N   0  0  0  0  0  0  0  0  0  0  0  0
   10.6620  -17.6258   26.4855 C   0  0  0  0  0  0  0  0  0  0  0  0
   11.4740  -17.6526   25.3701 O   0  0  0  0  0  0  0  0  0  0  0  0
   11.2145  -17.8862   27.5852 O   0  0  0  0  0  0  0  0  0  0  0  0
  2  5  1  0
  2  1  1  6
  3  2  1  0
  4  3  1  0
  5  6  2  0
  7  8  1  0
  7  5  1  0
  9 10  1  0
  8  9  1  1
 10 15  2  0
 11 12  2  0
 11 10  1  0
 12 13  1  0
 13 14  2  0
 15 14  1  0
 16  8  1  0
 16 17  2  0
 18 19  1  0
 19 21  1  0
 20 19  2  0
 21 22  1  0
 23 22  1  6
 23 24  1  0
 23 25  1  0
 24 16  1  0
 25 27  2  0
 25 26  1  0
M  END
$$$$
