CFQ.pdb
     RDKit          3D

 27 27  0  0  1  0  0  0  0  0999 V2000
    8.1955  -15.5418   19.1375 N   0  0  0  0  0  0  0  0  0  0  0  0
    7.7274  -16.3459   20.2183 C   0  0  1  0  0  0  0  0  0  0  0  0
    8.3193  -17.7483   20.0246 C   0  0  0  0  0  0  0  0  0  0  0  0
    7.7959  -18.8233   21.3804 S   0  0  0  0  0  0  0  0  0  0  0  0
    8.2723  -15.8451   21.5020 C   0  0  0  0  0  0  0  0  0  0  0  0
    9.4612  -15.4240   21.6131 O   0  0  0  0  0  0  0  0  0  0  0  0
    7.4397  -15.8372   22.6371 N   0  0  0  0  0  0  0  0  0  0  0  0
    7.8582  -15.4279   23.9606 C   0  0  1  0  0  0  0  0  0  0  0  0
    6.6190  -14.9228   24.6660 C   0  0  0  0  0  0  0  0  0  0  0  0
    6.7911  -13.6253   25.3252 C   0  0  0  0  0  0  0  0  0  0  0  0
    6.3736  -13.4587   26.6403 C   0  0  0  0  0  0  0  0  0  0  0  0
    6.4996  -12.2831   27.3286 C   0  0  0  0  0  0  0  0  0  0  0  0
    7.0704  -11.1969   26.6941 C   0  0  0  0  0  0  0  0  0  0  0  0
    7.4934  -11.3241   25.3986 C   0  0  0  0  0  0  0  0  0  0  0  0
    7.3560  -12.5192   24.7248 C   0  0  0  0  0  0  0  0  0  0  0  0
    8.5182  -16.5480   24.6784 C   0  0  0  0  0  0  0  0  0  0  0  0
    7.8830  -17.6113   24.8978 O   0  0  0  0  0  0  0  0  0  0  0  0
   14.1669  -18.0446   23.5296 N   0  0  0  0  0  0  0  0  0  0  0  0
   14.0483  -16.9311   24.3776 C   0  0  0  0  0  0  0  0  0  0  0  0
   14.9521  -16.0857   24.4583 O   0  0  0  0  0  0  0  0  0  0  0  0
   12.8169  -16.7661   25.1910 C   0  0  0  0  0  0  0  0  0  0  0  0
   11.8412  -17.8805   24.9318 C   0  0  0  0  0  0  0  0  0  0  0  0
   10.5698  -17.6682   25.6705 C   0  0  2  0  0  0  0  0  0  0  0  0
    9.8509  -16.4915   25.1422 N   0  0  0  0  0  0  0  0  0  0  0  0
   10.7563  -17.4581   27.1129 C   0  0  0  0  0  0  0  0  0  0  0  0
   10.4020  -16.3073   27.7869 O   0  0  0  0  0  0  0  0  0  0  0  0
   11.2741  -18.3732   27.8036 O   0  0  0  0  0  0  0  0  0  0  0  0
  2  5  1  0
  2  1  1  6
  3  2  1  0
  4  3  1  0
  5  6  2  0
  7  8  1  0
  7  5  1  0
  9 10  1  0
  8  9  1  1
 10 15  2  0
 11 12  2  0
 11 10  1  0
 12 13  1  0
 13 14  2  0
 15 14  1  0
 16  8  1  0
 16 17  2  0
 18 19  1  0
 19 21  1  0
 20 19  2  0
 21 22  1  0
 23 22  1  6
 23 24  1  0
 23 25  1  0
 24 16  1  0
 25 27  2  0
 25 26  1  0
M  END
$$$$
