CFQ.pdb
     RDKit          3D

 27 27  0  0  1  0  0  0  0  0999 V2000
    9.7274  -16.3026   19.0025 N   0  0  0  0  0  0  0  0  0  0  0  0
    8.5495  -16.1600   19.7937 C   0  0  1  0  0  0  0  0  0  0  0  0
    7.9659  -17.5658   19.9886 C   0  0  0  0  0  0  0  0  0  0  0  0
    9.1316  -18.5859   20.9204 S   0  0  0  0  0  0  0  0  0  0  0  0
    8.8989  -15.6704   21.1479 C   0  0  0  0  0  0  0  0  0  0  0  0
   10.0540  -15.8213   21.6439 O   0  0  0  0  0  0  0  0  0  0  0  0
    7.9128  -15.0148   21.9092 N   0  0  0  0  0  0  0  0  0  0  0  0
    8.1077  -14.5195   23.2550 C   0  0  1  0  0  0  0  0  0  0  0  0
    6.9252  -13.6266   23.5596 C   0  0  0  0  0  0  0  0  0  0  0  0
    6.8756  -13.1484   24.9440 C   0  0  0  0  0  0  0  0  0  0  0  0
    7.7403  -12.1421   25.3578 C   0  0  0  0  0  0  0  0  0  0  0  0
    7.7574  -11.6379   26.6295 C   0  0  0  0  0  0  0  0  0  0  0  0
    6.8734  -12.1476   27.5607 C   0  0  0  0  0  0  0  0  0  0  0  0
    6.0069  -13.1396   27.1888 C   0  0  0  0  0  0  0  0  0  0  0  0
    6.0078  -13.6323   25.9010 C   0  0  0  0  0  0  0  0  0  0  0  0
    8.2504  -15.6413   24.2176 C   0  0  0  0  0  0  0  0  0  0  0  0
    7.4648  -16.6216   24.1570 O   0  0  0  0  0  0  0  0  0  0  0  0
   11.4549  -19.1531   23.1182 N   0  0  0  0  0  0  0  0  0  0  0  0
   12.2263  -18.1616   23.7467 C   0  0  0  0  0  0  0  0  0  0  0  0
   13.3644  -17.8801   23.3419 O   0  0  0  0  0  0  0  0  0  0  0  0
   11.6662  -17.4393   24.9170 C   0  0  0  0  0  0  0  0  0  0  0  0
   10.2614  -17.8880   25.2108 C   0  0  0  0  0  0  0  0  0  0  0  0
    9.5320  -16.8818   26.0250 C   0  0  2  0  0  0  0  0  0  0  0  0
    9.2406  -15.6760   25.2240 N   0  0  0  0  0  0  0  0  0  0  0  0
   10.2682  -16.4479   27.2205 C   0  0  0  0  0  0  0  0  0  0  0  0
   10.6386  -15.1440   27.4793 O   0  0  0  0  0  0  0  0  0  0  0  0
   10.5975  -17.3036   28.0817 O   0  0  0  0  0  0  0  0  0  0  0  0
  2  5  1  0
  2  1  1  6
  3  2  1  0
  4  3  1  0
  5  6  2  0
  7  8  1  0
  7  5  1  0
  9 10  1  0
  8  9  1  1
 10 15  2  0
 11 12  2  0
 11 10  1  0
 12 13  1  0
 13 14  2  0
 15 14  1  0
 16  8  1  0
 16 17  2  0
 18 19  1  0
 19 21  1  0
 20 19  2  0
 21 22  1  0
 23 22  1  6
 23 24  1  0
 23 25  1  0
 24 16  1  0
 25 27  2  0
 25 26  1  0
M  END
$$$$
