CFQ.pdb
     RDKit          3D

 27 27  0  0  1  0  0  0  0  0999 V2000
    9.6603  -16.7520   19.1724 N   0  0  0  0  0  0  0  0  0  0  0  0
    8.7880  -16.9718   20.2789 C   0  0  1  0  0  0  0  0  0  0  0  0
    9.1082  -18.3662   20.8339 C   0  0  0  0  0  0  0  0  0  0  0  0
    8.9710  -19.5937   19.5140 S   0  0  0  0  0  0  0  0  0  0  0  0
    9.0943  -16.0168   21.3696 C   0  0  0  0  0  0  0  0  0  0  0  0
   10.1884  -15.3818   21.4244 O   0  0  0  0  0  0  0  0  0  0  0  0
    8.1362  -15.8079   22.3795 N   0  0  0  0  0  0  0  0  0  0  0  0
    8.2774  -14.8591   23.4631 C   0  0  1  0  0  0  0  0  0  0  0  0
    6.8802  -14.5692   23.9652 C   0  0  0  0  0  0  0  0  0  0  0  0
    6.8335  -13.6771   25.1270 C   0  0  0  0  0  0  0  0  0  0  0  0
    7.3220  -12.3803   25.0214 C   0  0  0  0  0  0  0  0  0  0  0  0
    7.3136  -11.4845   26.0553 C   0  0  0  0  0  0  0  0  0  0  0  0
    6.7948  -11.8775   27.2739 C   0  0  0  0  0  0  0  0  0  0  0  0
    6.3046  -13.1476   27.4148 C   0  0  0  0  0  0  0  0  0  0  0  0
    6.3235  -14.0334   26.3583 C   0  0  0  0  0  0  0  0  0  0  0  0
    9.1748  -15.3908   24.5202 C   0  0  0  0  0  0  0  0  0  0  0  0
    9.3410  -14.7418   25.5847 O   0  0  0  0  0  0  0  0  0  0  0  0
    8.9891  -18.0536   29.1665 N   0  0  0  0  0  0  0  0  0  0  0  0
    8.8687  -19.0307   28.1646 C   0  0  0  0  0  0  0  0  0  0  0  0
    8.3205  -20.1198   28.3917 O   0  0  0  0  0  0  0  0  0  0  0  0
    9.4087  -18.7515   26.8098 C   0  0  0  0  0  0  0  0  0  0  0  0
    9.9550  -17.3534   26.7202 C   0  0  0  0  0  0  0  0  0  0  0  0
   10.7331  -17.1565   25.4700 C   0  0  2  0  0  0  0  0  0  0  0  0
    9.8718  -16.6133   24.4007 N   0  0  0  0  0  0  0  0  0  0  0  0
   11.3442  -18.3908   24.9576 C   0  0  0  0  0  0  0  0  0  0  0  0
   10.9879  -19.0063   23.7751 O   0  0  0  0  0  0  0  0  0  0  0  0
   12.2553  -18.9460   25.6241 O   0  0  0  0  0  0  0  0  0  0  0  0
  2  5  1  0
  2  1  1  6
  3  2  1  0
  4  3  1  0
  5  6  2  0
  7  8  1  0
  7  5  1  0
  9 10  1  0
  8  9  1  1
 10 15  2  0
 11 12  2  0
 11 10  1  0
 12 13  1  0
 13 14  2  0
 15 14  1  0
 16  8  1  0
 16 17  2  0
 18 19  1  0
 19 21  1  0
 20 19  2  0
 21 22  1  0
 23 22  1  1
 23 24  1  0
 23 25  1  0
 24 16  1  0
 25 27  2  0
 25 26  1  0
M  END
$$$$
