CFQ.pdb
     RDKit          3D

 27 27  0  0  1  0  0  0  0  0999 V2000
   10.1562  -16.6834   19.3250 N   0  0  0  0  0  0  0  0  0  0  0  0
    8.9316  -16.2816   19.9355 C   0  0  1  0  0  0  0  0  0  0  0  0
    8.0385  -17.5270   20.0141 C   0  0  0  0  0  0  0  0  0  0  0  0
    8.9029  -18.8416   20.9043 S   0  0  0  0  0  0  0  0  0  0  0  0
    9.1719  -15.8610   21.3358 C   0  0  0  0  0  0  0  0  0  0  0  0
   10.2879  -16.0288   21.9099 O   0  0  0  0  0  0  0  0  0  0  0  0
    8.1236  -15.2538   22.0527 N   0  0  0  0  0  0  0  0  0  0  0  0
    8.2438  -14.7247   23.3944 C   0  0  1  0  0  0  0  0  0  0  0  0
    7.0877  -13.7677   23.5840 C   0  0  0  0  0  0  0  0  0  0  0  0
    6.9788  -13.2196   24.9388 C   0  0  0  0  0  0  0  0  0  0  0  0
    7.9362  -12.3238   25.3996 C   0  0  0  0  0  0  0  0  0  0  0  0
    7.9072  -11.7647   26.6480 C   0  0  0  0  0  0  0  0  0  0  0  0
    6.8771  -12.1003   27.5051 C   0  0  0  0  0  0  0  0  0  0  0  0
    5.9160  -12.9797   27.0852 C   0  0  0  0  0  0  0  0  0  0  0  0
    5.9659  -13.5306   25.8222 C   0  0  0  0  0  0  0  0  0  0  0  0
    8.2603  -15.8201   24.3971 C   0  0  0  0  0  0  0  0  0  0  0  0
    7.3303  -16.6668   24.4142 O   0  0  0  0  0  0  0  0  0  0  0  0
   12.4653  -20.3659   24.7957 N   0  0  0  0  0  0  0  0  0  0  0  0
   11.7296  -19.2812   24.2905 C   0  0  0  0  0  0  0  0  0  0  0  0
   11.4305  -19.2116   23.0888 O   0  0  0  0  0  0  0  0  0  0  0  0
   11.3036  -18.1997   25.2146 C   0  0  0  0  0  0  0  0  0  0  0  0
    9.8496  -18.3334   25.5738 C   0  0  0  0  0  0  0  0  0  0  0  0
    9.3544  -17.1244   26.2812 C   0  0  2  0  0  0  0  0  0  0  0  0
    9.2833  -15.9738   25.3585 N   0  0  0  0  0  0  0  0  0  0  0  0
   10.1939  -16.7241   27.4190 C   0  0  0  0  0  0  0  0  0  0  0  0
   10.7980  -15.4901   27.5480 O   0  0  0  0  0  0  0  0  0  0  0  0
   10.3936  -17.5442   28.3517 O   0  0  0  0  0  0  0  0  0  0  0  0
  2  5  1  0
  2  1  1  1
  3  2  1  0
  4  3  1  0
  5  6  2  0
  7  8  1  0
  7  5  1  0
  9 10  1  0
  8  9  1  1
 10 15  2  0
 11 12  2  0
 11 10  1  0
 12 13  1  0
 13 14  2  0
 15 14  1  0
 16  8  1  0
 16 17  2  0
 18 19  1  0
 19 21  1  0
 20 19  2  0
 21 22  1  0
 23 22  1  6
 23 24  1  0
 23 25  1  0
 24 16  1  0
 25 27  2  0
 25 26  1  0
M  END
$$$$
