CFQ.pdb
     RDKit          3D

 27 27  0  0  1  0  0  0  0  0999 V2000
    9.5736  -16.3460   18.7749 N   0  0  0  0  0  0  0  0  0  0  0  0
    8.5273  -16.5412   19.7240 C   0  0  1  0  0  0  0  0  0  0  0  0
    8.3571  -18.0561   19.9003 C   0  0  0  0  0  0  0  0  0  0  0  0
    7.0446  -18.3865   21.0986 S   0  0  0  0  0  0  0  0  0  0  0  0
    8.9343  -16.0179   21.0491 C   0  0  0  0  0  0  0  0  0  0  0  0
   10.0993  -16.1889   21.5145 O   0  0  0  0  0  0  0  0  0  0  0  0
    7.9935  -15.3061   21.8172 N   0  0  0  0  0  0  0  0  0  0  0  0
    8.2436  -14.7788   23.1415 C   0  0  1  0  0  0  0  0  0  0  0  0
    7.1750  -13.7396   23.3990 C   0  0  0  0  0  0  0  0  0  0  0  0
    7.2186  -13.1546   24.7420 C   0  0  0  0  0  0  0  0  0  0  0  0
    6.2538  -13.5050   25.6789 C   0  0  0  0  0  0  0  0  0  0  0  0
    6.2238  -13.0076   26.9531 C   0  0  0  0  0  0  0  0  0  0  0  0
    7.1985  -12.1088   27.3411 C   0  0  0  0  0  0  0  0  0  0  0  0
    8.1651  -11.7406   26.4447 C   0  0  0  0  0  0  0  0  0  0  0  0
    8.1751  -12.2552   25.1655 C   0  0  0  0  0  0  0  0  0  0  0  0
    8.2507  -15.8663   24.1529 C   0  0  0  0  0  0  0  0  0  0  0  0
    7.2824  -16.6663   24.2182 O   0  0  0  0  0  0  0  0  0  0  0  0
   12.3403  -18.7022   22.7339 N   0  0  0  0  0  0  0  0  0  0  0  0
   12.0198  -19.1107   24.0391 C   0  0  0  0  0  0  0  0  0  0  0  0
   12.1875  -20.2839   24.4045 O   0  0  0  0  0  0  0  0  0  0  0  0
   11.4703  -18.1173   24.9963 C   0  0  0  0  0  0  0  0  0  0  0  0
   10.0179  -18.3830   25.2810 C   0  0  0  0  0  0  0  0  0  0  0  0
    9.3829  -17.2305   25.9708 C   0  0  2  0  0  0  0  0  0  0  0  0
    9.3061  -16.0627   25.0704 N   0  0  0  0  0  0  0  0  0  0  0  0
   10.0968  -16.8050   27.1827 C   0  0  0  0  0  0  0  0  0  0  0  0
   10.2714  -17.5913   28.3031 O   0  0  0  0  0  0  0  0  0  0  0  0
   10.5903  -15.6488   27.2291 O   0  0  0  0  0  0  0  0  0  0  0  0
  2  5  1  0
  2  1  1  6
  3  2  1  0
  4  3  1  0
  5  6  2  0
  7  8  1  0
  7  5  1  0
  9 10  1  0
  8  9  1  1
 10 15  2  0
 11 12  2  0
 11 10  1  0
 12 13  1  0
 13 14  2  0
 15 14  1  0
 16  8  1  0
 16 17  2  0
 18 19  1  0
 19 21  1  0
 20 19  2  0
 21 22  1  0
 23 22  1  6
 23 24  1  0
 23 25  1  0
 24 16  1  0
 25 27  2  0
 25 26  1  0
M  END
$$$$
