CFQ.pdb
     RDKit          3D

 27 27  0  0  1  0  0  0  0  0999 V2000
    8.6827  -14.0943   19.8510 N   0  0  0  0  0  0  0  0  0  0  0  0
    7.6855  -14.4987   20.7869 C   0  0  1  0  0  0  0  0  0  0  0  0
    7.1588  -15.8628   20.3214 C   0  0  0  0  0  0  0  0  0  0  0  0
    8.5261  -17.0406   20.2169 S   0  0  0  0  0  0  0  0  0  0  0  0
    8.2956  -14.7276   22.1176 C   0  0  0  0  0  0  0  0  0  0  0  0
    9.5495  -14.7378   22.2936 O   0  0  0  0  0  0  0  0  0  0  0  0
    7.4524  -14.9411   23.2245 N   0  0  0  0  0  0  0  0  0  0  0  0
    7.9138  -15.1894   24.5735 C   0  0  1  0  0  0  0  0  0  0  0  0
    6.7528  -14.8723   25.4899 C   0  0  0  0  0  0  0  0  0  0  0  0
    6.6777  -13.4669   25.8985 C   0  0  0  0  0  0  0  0  0  0  0  0
    7.8429  -12.7745   26.2058 C   0  0  0  0  0  0  0  0  0  0  0  0
    7.8609  -11.4623   26.5926 C   0  0  0  0  0  0  0  0  0  0  0  0
    6.6644  -10.7784   26.6863 C   0  0  0  0  0  0  0  0  0  0  0  0
    5.4965  -11.4282   26.3912 C   0  0  0  0  0  0  0  0  0  0  0  0
    5.5029  -12.7514   26.0034 C   0  0  0  0  0  0  0  0  0  0  0  0
    8.4031  -16.5840   24.7186 C   0  0  0  0  0  0  0  0  0  0  0  0
    8.0367  -17.4642   23.8982 O   0  0  0  0  0  0  0  0  0  0  0  0
   12.8281  -19.4368   22.0264 N   0  0  0  0  0  0  0  0  0  0  0  0
   13.0121  -18.3626   22.9127 C   0  0  0  0  0  0  0  0  0  0  0  0
   13.6441  -17.3508   22.5736 O   0  0  0  0  0  0  0  0  0  0  0  0
   12.4382  -18.4431   24.2799 C   0  0  0  0  0  0  0  0  0  0  0  0
   11.2515  -17.5311   24.4255 C   0  0  0  0  0  0  0  0  0  0  0  0
   10.3689  -17.9664   25.5385 C   0  0  2  0  0  0  0  0  0  0  0  0
    9.2779  -16.9940   25.7487 N   0  0  0  0  0  0  0  0  0  0  0  0
   11.0720  -18.1219   26.8196 C   0  0  0  0  0  0  0  0  0  0  0  0
   11.0925  -17.1714   27.8197 O   0  0  0  0  0  0  0  0  0  0  0  0
   11.7081  -19.1835   27.0446 O   0  0  0  0  0  0  0  0  0  0  0  0
  2  5  1  0
  2  1  1  6
  3  2  1  0
  4  3  1  0
  5  6  2  0
  7  8  1  0
  7  5  1  0
  9 10  1  0
  8  9  1  1
 10 15  2  0
 11 12  2  0
 11 10  1  0
 12 13  1  0
 13 14  2  0
 15 14  1  0
 16  8  1  0
 16 17  2  0
 18 19  1  0
 19 21  1  0
 20 19  2  0
 21 22  1  0
 23 22  1  6
 23 24  1  0
 23 25  1  0
 24 16  1  0
 25 27  2  0
 25 26  1  0
M  END
$$$$
