RGM.pdb
     RDKit          3D

 24 23  0  0  1  0  0  0  0  0999 V2000
    9.3331  -15.4651   14.8874 N   0  0  0  0  0  0  0  0  0  0  0  0
    8.4238  -14.3752   14.6487 C   0  0  0  0  0  0  0  0  0  0  0  0
    7.8519  -14.3065   13.5159 N   0  0  0  0  0  0  0  0  0  0  0  0
    8.1793  -13.4061   15.6511 N   0  0  0  0  0  0  0  0  0  0  0  0
    8.4840  -13.6374   17.0283 C   0  0  0  0  0  0  0  0  0  0  0  0
    7.5570  -14.6584   17.6914 C   0  0  0  0  0  0  0  0  0  0  0  0
    7.4374  -14.2478   19.1222 C   0  0  0  0  0  0  0  0  0  0  0  0
    8.5949  -14.7096   19.9412 C   0  0  2  0  0  0  0  0  0  0  0  0
    9.2705  -15.8334   19.2968 N   0  0  0  0  0  0  0  0  0  0  0  0
    8.2640  -15.0923   21.3308 C   0  0  0  0  0  0  0  0  0  0  0  0
    7.5859  -14.3539   22.0913 O   0  0  0  0  0  0  0  0  0  0  0  0
    8.0762  -14.9406   12.7231 N   0  0  0  0  0  0  0  0  0  0  0  0
    8.7138  -16.3498   21.8779 C   0  0  0  0  0  0  0  0  0  0  0  0
    8.3239  -16.6780   23.2179 C   0  0  0  0  0  0  0  0  0  0  0  0
    8.9734  -15.8294   24.2371 O   0  0  0  0  0  0  0  0  0  0  0  0
    9.9220  -15.0484   23.9607 C   0  0  0  0  0  0  0  0  0  0  0  0
    6.5418  -11.6155   28.2728 S   0  0  0  0  0  0  0  0  0  0  0  0
    6.3177  -11.9019   26.5063 C   0  0  0  0  0  0  0  0  0  0  0  0
    7.6431  -13.0399   25.9306 C   0  0  0  0  0  0  0  0  0  0  0  0
    7.9883  -14.0053   27.0155 C   0  0  2  0  0  0  0  0  0  0  0  0
    9.0558  -14.9618   26.6130 N   0  0  0  0  0  0  0  0  0  0  0  0
    8.5301  -15.8805   25.5765 C   0  0  0  0  0  0  0  0  0  0  0  0
    9.5137  -15.8155   27.7182 O   0  0  0  0  0  0  0  0  0  0  0  0
    9.1674  -17.0099   27.7837 O   0  0  0  0  0  0  0  0  0  0  0  0
  2  1  1  0
  2  3  2  0
  4  2  1  0
  5  4  1  0
  6  7  1  0
  6  5  1  0
  7  8  1  0
  8  9  1  6
 10  8  1  0
 10 12  1  0
 11 10  2  0
 13 12  1  0
 14 13  1  0
 15 14  2  0
 17 16  1  0
 18 17  1  0
 19 18  1  0
 20 21  1  0
 20 19  1  6
 21 14  1  0
 22 20  1  0
 23 22  2  0
 24 22  1  0
M  END
$$$$
