RGM.pdb
     RDKit          3D

 24 23  0  0  1  0  0  0  0  0999 V2000
    6.6034  -14.9829   16.8751 N   0  0  0  0  0  0  0  0  0  0  0  0
    7.4332  -13.8070   16.8626 C   0  0  0  0  0  0  0  0  0  0  0  0
    7.7646  -13.3170   15.7378 N   0  0  0  0  0  0  0  0  0  0  0  0
    7.8690  -13.2178   18.0737 N   0  0  0  0  0  0  0  0  0  0  0  0
    9.1472  -13.5036   18.6460 C   0  0  0  0  0  0  0  0  0  0  0  0
    9.2177  -14.8770   19.3172 C   0  0  0  0  0  0  0  0  0  0  0  0
   10.6171  -15.0275   19.8162 C   0  0  0  0  0  0  0  0  0  0  0  0
   10.8570  -16.3649   20.4307 C   0  0  2  0  0  0  0  0  0  0  0  0
   10.3959  -17.4323   19.5460 N   0  0  0  0  0  0  0  0  0  0  0  0
   10.2449  -16.5594   21.7628 C   0  0  0  0  0  0  0  0  0  0  0  0
    8.9989  -16.5994   21.9340 O   0  0  0  0  0  0  0  0  0  0  0  0
    7.3291  -13.6044   14.8386 N   0  0  0  0  0  0  0  0  0  0  0  0
   11.0676  -16.7136   22.9386 C   0  0  0  0  0  0  0  0  0  0  0  0
   10.7565  -15.9134   24.0867 C   0  0  0  0  0  0  0  0  0  0  0  0
    9.8886  -16.6057   25.0604 O   0  0  0  0  0  0  0  0  0  0  0  0
    9.5908  -17.8246   24.9523 C   0  0  0  0  0  0  0  0  0  0  0  0
    5.2498  -11.1415   26.6618 S   0  0  0  0  0  0  0  0  0  0  0  0
    6.6871  -12.2165   26.8386 C   0  0  0  0  0  0  0  0  0  0  0  0
    6.8720  -13.1965   25.2930 C   0  0  0  0  0  0  0  0  0  0  0  0
    8.1522  -13.9633   25.3297 C   0  0  2  0  0  0  0  0  0  0  0  0
    8.0398  -15.2292   26.1052 N   0  0  0  0  0  0  0  0  0  0  0  0
    9.3629  -15.8934   26.1600 C   0  0  0  0  0  0  0  0  0  0  0  0
    7.1221  -16.2014   25.4948 O   0  0  0  0  0  0  0  0  0  0  0  0
    5.9047  -16.1764   25.7561 O   0  0  0  0  0  0  0  0  0  0  0  0
  2  1  1  0
  2  3  2  0
  4  2  1  0
  5  4  1  0
  6  7  1  0
  6  5  1  0
  7  8  1  0
  8  9  1  6
 10  8  1  0
 10 12  1  0
 11 10  2  0
 13 12  1  0
 14 13  1  0
 15 14  2  0
 17 16  1  0
 18 17  1  0
 19 18  1  0
 20 21  1  0
 20 19  1  1
 21 14  1  0
 22 20  1  0
 23 22  2  0
 24 22  1  0
M  END
$$$$
