RGM.pdb
     RDKit          3D

 24 23  0  0  1  0  0  0  0  0999 V2000
    9.2422  -12.9019   17.5108 N   0  0  0  0  0  0  0  0  0  0  0  0
    8.6478  -12.6606   18.7992 C   0  0  0  0  0  0  0  0  0  0  0  0
    9.1924  -11.8017   19.5612 N   0  0  0  0  0  0  0  0  0  0  0  0
    7.4895  -13.3666   19.2038 N   0  0  0  0  0  0  0  0  0  0  0  0
    7.3749  -14.7854   19.0738 C   0  0  0  0  0  0  0  0  0  0  0  0
    7.6752  -15.5395   20.3709 C   0  0  0  0  0  0  0  0  0  0  0  0
    7.3859  -16.9783   20.0951 C   0  0  0  0  0  0  0  0  0  0  0  0
    7.6839  -17.8495   21.2682 C   0  0  2  0  0  0  0  0  0  0  0  0
    6.6921  -17.6555   22.3233 N   0  0  0  0  0  0  0  0  0  0  0  0
    9.0320  -17.6742   21.8503 C   0  0  0  0  0  0  0  0  0  0  0  0
   10.0605  -18.1875   21.3384 O   0  0  0  0  0  0  0  0  0  0  0  0
    8.8296  -11.5645   20.5062 N   0  0  0  0  0  0  0  0  0  0  0  0
    9.2234  -16.8936   23.0491 C   0  0  0  0  0  0  0  0  0  0  0  0
   10.5587  -16.7470   23.5500 C   0  0  0  0  0  0  0  0  0  0  0  0
   10.6358  -15.9100   24.7642 O   0  0  0  0  0  0  0  0  0  0  0  0
   11.3246  -14.8569   24.8157 C   0  0  0  0  0  0  0  0  0  0  0  0
    6.8902  -11.3209   25.8095 S   0  0  0  0  0  0  0  0  0  0  0  0
    7.0228  -12.7515   26.8997 C   0  0  0  0  0  0  0  0  0  0  0  0
    8.5795  -13.6448   26.4976 C   0  0  0  0  0  0  0  0  0  0  0  0
    8.7647  -14.7884   27.4388 C   0  0  2  0  0  0  0  0  0  0  0  0
   10.0294  -15.5344   27.1922 N   0  0  0  0  0  0  0  0  0  0  0  0
    9.9188  -16.2863   25.9206 C   0  0  0  0  0  0  0  0  0  0  0  0
   10.3235  -16.5324   28.2302 O   0  0  0  0  0  0  0  0  0  0  0  0
   10.2465  -17.7500   27.9806 O   0  0  0  0  0  0  0  0  0  0  0  0
  2  1  1  0
  2  3  2  0
  4  2  1  0
  5  4  1  0
  6  7  1  0
  6  5  1  0
  7  8  1  0
  8  9  1  1
 10  8  1  0
 10 12  1  0
 11 10  2  0
 13 12  1  0
 14 13  1  0
 15 14  2  0
 17 16  1  0
 18 17  1  0
 19 18  1  0
 20 21  1  0
 20 19  1  6
 21 14  1  0
 22 20  1  0
 23 22  2  0
 24 22  1  0
M  END
$$$$
