RGM.pdb
     RDKit          3D

 24 23  0  0  1  0  0  0  0  0999 V2000
    7.3128  -12.7962   19.0242 N   0  0  0  0  0  0  0  0  0  0  0  0
    8.6659  -13.2448   19.2224 C   0  0  0  0  0  0  0  0  0  0  0  0
    9.5911  -12.3738   19.2435 N   0  0  0  0  0  0  0  0  0  0  0  0
    8.9538  -14.6212   19.3853 N   0  0  0  0  0  0  0  0  0  0  0  0
    8.0257  -15.5310   19.9802 C   0  0  0  0  0  0  0  0  0  0  0  0
    7.7371  -16.7573   19.1117 C   0  0  0  0  0  0  0  0  0  0  0  0
    9.0310  -17.4913   18.9808 C   0  0  0  0  0  0  0  0  0  0  0  0
    9.3789  -18.2482   20.2176 C   0  0  2  0  0  0  0  0  0  0  0  0
    8.1845  -18.5147   21.0156 N   0  0  0  0  0  0  0  0  0  0  0  0
   10.3891  -17.6014   21.0826 C   0  0  0  0  0  0  0  0  0  0  0  0
   11.6253  -17.7729   20.9215 O   0  0  0  0  0  0  0  0  0  0  0  0
   10.5832  -12.5990   19.4579 N   0  0  0  0  0  0  0  0  0  0  0  0
    9.9892  -16.7330   22.1638 C   0  0  0  0  0  0  0  0  0  0  0  0
    9.7351  -17.3263   23.4439 C   0  0  0  0  0  0  0  0  0  0  0  0
   10.8041  -17.0648   24.4286 O   0  0  0  0  0  0  0  0  0  0  0  0
   12.0207  -17.0147   24.1071 C   0  0  0  0  0  0  0  0  0  0  0  0
    9.4019  -12.3047   28.8406 S   0  0  0  0  0  0  0  0  0  0  0  0
    9.9548  -13.9656   29.2745 C   0  0  0  0  0  0  0  0  0  0  0  0
   10.6153  -14.7715   27.7587 C   0  0  0  0  0  0  0  0  0  0  0  0
   10.9847  -16.1865   28.0575 C   0  0  2  0  0  0  0  0  0  0  0  0
   11.4904  -16.9118   26.8596 N   0  0  0  0  0  0  0  0  0  0  0  0
   10.4716  -16.8611   25.7854 C   0  0  0  0  0  0  0  0  0  0  0  0
   11.7446  -18.3372   27.1117 O   0  0  0  0  0  0  0  0  0  0  0  0
   12.8332  -18.7142   27.5848 O   0  0  0  0  0  0  0  0  0  0  0  0
  2  1  1  0
  2  3  2  0
  4  2  1  0
  5  4  1  0
  6  7  1  0
  6  5  1  0
  7  8  1  0
  8  9  1  1
 10  8  1  0
 10 12  1  0
 11 10  2  0
 13 12  1  0
 14 13  1  0
 15 14  2  0
 17 16  1  0
 18 17  1  0
 19 18  1  0
 20 21  1  0
 20 19  1  6
 21 14  1  0
 22 20  1  0
 23 22  2  0
 24 22  1  0
M  END
$$$$
