RGM.pdb
     RDKit          3D

 24 23  0  0  1  0  0  0  0  0999 V2000
    0.5440  -20.8176   22.1978 N   0  0  0  0  0  0  0  0  0  0  0  0
    0.3590  -21.0093   20.7834 C   0  0  0  0  0  0  0  0  0  0  0  0
   -0.4693  -21.8934   20.3998 N   0  0  0  0  0  0  0  0  0  0  0  0
    1.0857  -20.2336   19.8484 N   0  0  0  0  0  0  0  0  0  0  0  0
    1.9783  -19.1917   20.2494 C   0  0  0  0  0  0  0  0  0  0  0  0
    3.2338  -19.7073   20.9560 C   0  0  0  0  0  0  0  0  0  0  0  0
    4.3961  -19.1976   20.1690 C   0  0  0  0  0  0  0  0  0  0  0  0
    5.5710  -18.8871   21.0333 C   0  0  2  0  0  0  0  0  0  0  0  0
    5.2645  -19.1468   22.4379 N   0  0  0  0  0  0  0  0  0  0  0  0
    6.0893  -17.5074   20.9110 C   0  0  0  0  0  0  0  0  0  0  0  0
    6.6097  -17.0731   19.8508 O   0  0  0  0  0  0  0  0  0  0  0  0
   -0.6808  -22.0827   19.3996 N   0  0  0  0  0  0  0  0  0  0  0  0
    6.0169  -16.5897   22.0225 C   0  0  0  0  0  0  0  0  0  0  0  0
    6.4970  -15.2535   21.8237 C   0  0  0  0  0  0  0  0  0  0  0  0
    7.7194  -14.9537   22.5960 O   0  0  0  0  0  0  0  0  0  0  0  0
    8.7856  -14.5663   22.0490 C   0  0  0  0  0  0  0  0  0  0  0  0
    7.5912  -11.0970   27.9486 S   0  0  0  0  0  0  0  0  0  0  0  0
    6.3652  -11.6810   26.7617 C   0  0  0  0  0  0  0  0  0  0  0  0
    7.2460  -12.5323   25.3895 C   0  0  0  0  0  0  0  0  0  0  0  0
    8.0459  -13.6706   25.9303 C   0  0  2  0  0  0  0  0  0  0  0  0
    8.7288  -14.4500   24.8612 N   0  0  0  0  0  0  0  0  0  0  0  0
    7.7141  -15.1005   24.0000 C   0  0  0  0  0  0  0  0  0  0  0  0
    9.5723  -15.5335   25.3851 O   0  0  0  0  0  0  0  0  0  0  0  0
    9.2262  -16.7235   25.2629 O   0  0  0  0  0  0  0  0  0  0  0  0
  2  1  1  0
  2  3  2  0
  4  2  1  0
  5  4  1  0
  6  7  1  0
  6  5  1  0
  7  8  1  0
  8  9  1  1
 10  8  1  0
 10 12  1  0
 11 10  2  0
 13 12  1  0
 14 13  1  0
 15 14  2  0
 17 16  1  0
 18 17  1  0
 19 18  1  0
 20 21  1  0
 20 19  1  6
 21 14  1  0
 22 20  1  0
 23 22  2  0
 24 22  1  0
M  END
$$$$
