RGM.pdb
     RDKit          3D

 24 23  0  0  1  0  0  0  0  0999 V2000
    7.4011  -12.4364   19.3204 N   0  0  0  0  0  0  0  0  0  0  0  0
    8.1798  -13.6453   19.2604 C   0  0  0  0  0  0  0  0  0  0  0  0
    8.4645  -14.2318   20.3513 N   0  0  0  0  0  0  0  0  0  0  0  0
    8.6178  -14.1612   18.0171 N   0  0  0  0  0  0  0  0  0  0  0  0
    9.2626  -15.4316   17.9013 C   0  0  0  0  0  0  0  0  0  0  0  0
    8.2976  -16.6139   18.0127 C   0  0  0  0  0  0  0  0  0  0  0  0
    8.9622  -17.6145   18.8998 C   0  0  0  0  0  0  0  0  0  0  0  0
    7.9817  -18.5234   19.5604 C   0  0  2  0  0  0  0  0  0  0  0  0
    6.6505  -18.3588   18.9814 N   0  0  0  0  0  0  0  0  0  0  0  0
    7.8795  -18.3717   21.0279 C   0  0  0  0  0  0  0  0  0  0  0  0
    8.8669  -18.5249   21.7929 O   0  0  0  0  0  0  0  0  0  0  0  0
    8.9980  -15.1229   20.3987 N   0  0  0  0  0  0  0  0  0  0  0  0
    6.6214  -18.0360   21.6503 C   0  0  0  0  0  0  0  0  0  0  0  0
    6.6051  -17.8383   23.0701 C   0  0  0  0  0  0  0  0  0  0  0  0
    7.4968  -16.7489   23.5160 O   0  0  0  0  0  0  0  0  0  0  0  0
    8.3307  -16.2015   22.7473 C   0  0  0  0  0  0  0  0  0  0  0  0
    5.5755  -11.2960   25.9462 S   0  0  0  0  0  0  0  0  0  0  0  0
    6.7252  -11.7877   27.2458 C   0  0  0  0  0  0  0  0  0  0  0  0
    7.9546  -12.9496   26.5235 C   0  0  0  0  0  0  0  0  0  0  0  0
    7.2601  -14.1675   26.0110 C   0  0  1  0  0  0  0  0  0  0  0  0
    8.1837  -15.1014   25.3099 N   0  0  0  0  0  0  0  0  0  0  0  0
    7.4281  -16.2894   24.8491 C   0  0  0  0  0  0  0  0  0  0  0  0
    9.2558  -15.6123   26.1755 O   0  0  0  0  0  0  0  0  0  0  0  0
    9.1859  -16.7548   26.6662 O   0  0  0  0  0  0  0  0  0  0  0  0
  2  1  1  0
  2  3  2  0
  4  2  1  0
  5  4  1  0
  6  7  1  0
  6  5  1  0
  7  8  1  0
  8  9  1  6
 10  8  1  0
 10 12  1  0
 11 10  2  0
 13 12  1  0
 14 13  1  0
 15 14  2  0
 17 16  1  0
 18 17  1  0
 19 18  1  0
 20 21  1  0
 20 19  1  6
 21 14  1  0
 22 20  1  0
 23 22  2  0
 24 22  1  0
M  END
$$$$
