RGM.pdb
     RDKit          3D

 24 23  0  0  1  0  0  0  0  0999 V2000
    7.5202  -13.7613   16.1582 N   0  0  0  0  0  0  0  0  0  0  0  0
    7.9565  -13.3390   17.4631 C   0  0  0  0  0  0  0  0  0  0  0  0
    8.7553  -12.3536   17.5402 N   0  0  0  0  0  0  0  0  0  0  0  0
    7.5078  -14.0090   18.6265 N   0  0  0  0  0  0  0  0  0  0  0  0
    8.4011  -14.6982   19.5040 C   0  0  0  0  0  0  0  0  0  0  0  0
    9.3654  -15.6355   18.7740 C   0  0  0  0  0  0  0  0  0  0  0  0
   10.3309  -16.1262   19.8022 C   0  0  0  0  0  0  0  0  0  0  0  0
    9.9862  -17.4907   20.2953 C   0  0  2  0  0  0  0  0  0  0  0  0
    8.5499  -17.7346   20.1844 N   0  0  0  0  0  0  0  0  0  0  0  0
   10.4074  -17.7783   21.6834 C   0  0  0  0  0  0  0  0  0  0  0  0
   11.6040  -17.6794   22.0602 O   0  0  0  0  0  0  0  0  0  0  0  0
    9.2049  -12.0504   18.4273 N   0  0  0  0  0  0  0  0  0  0  0  0
    9.4454  -18.1907   22.6771 C   0  0  0  0  0  0  0  0  0  0  0  0
    9.9056  -18.3766   24.0222 C   0  0  0  0  0  0  0  0  0  0  0  0
   10.0988  -17.1072   24.7515 O   0  0  0  0  0  0  0  0  0  0  0  0
   11.2410  -16.6395   25.0021 C   0  0  0  0  0  0  0  0  0  0  0  0
    6.1038  -11.6443   24.9465 S   0  0  0  0  0  0  0  0  0  0  0  0
    6.2679  -12.2416   26.6403 C   0  0  0  0  0  0  0  0  0  0  0  0
    7.8661  -13.1404   26.7861 C   0  0  0  0  0  0  0  0  0  0  0  0
    7.8190  -14.3922   25.9746 C   0  0  1  0  0  0  0  0  0  0  0  0
    9.1104  -15.1330   25.9884 N   0  0  0  0  0  0  0  0  0  0  0  0
    8.9751  -16.3754   25.1930 C   0  0  0  0  0  0  0  0  0  0  0  0
    9.5200  -15.5552   27.3352 O   0  0  0  0  0  0  0  0  0  0  0  0
    9.3046  -16.7166   27.7297 O   0  0  0  0  0  0  0  0  0  0  0  0
  2  1  1  0
  2  3  2  0
  4  2  1  0
  5  4  1  0
  6  7  1  0
  6  5  1  0
  7  8  1  0
  8  9  1  1
 10  8  1  0
 10 12  1  0
 11 10  2  0
 13 12  1  0
 14 13  1  0
 15 14  2  0
 17 16  1  0
 18 17  1  0
 19 18  1  0
 20 21  1  0
 20 19  1  6
 21 14  1  0
 22 20  1  0
 23 22  2  0
 24 22  1  0
M  END
$$$$
