RGM.pdb
     RDKit          3D

 24 23  0  0  1  0  0  0  0  0999 V2000
    8.5199  -12.9106   15.7708 N   0  0  0  0  0  0  0  0  0  0  0  0
    8.0964  -14.1975   16.2566 C   0  0  0  0  0  0  0  0  0  0  0  0
    8.0228  -15.1584   15.4282 N   0  0  0  0  0  0  0  0  0  0  0  0
    7.7680  -14.3819   17.6211 N   0  0  0  0  0  0  0  0  0  0  0  0
    7.1256  -13.3675   18.3965 C   0  0  0  0  0  0  0  0  0  0  0  0
    6.8385  -13.7958   19.8372 C   0  0  0  0  0  0  0  0  0  0  0  0
    8.1679  -13.9799   20.4919 C   0  0  0  0  0  0  0  0  0  0  0  0
    8.6390  -15.3933   20.4266 C   0  0  2  0  0  0  0  0  0  0  0  0
    7.5218  -16.3203   20.5908 N   0  0  0  0  0  0  0  0  0  0  0  0
    9.6922  -15.7467   21.4027 C   0  0  0  0  0  0  0  0  0  0  0  0
   10.7733  -15.1086   21.4902 O   0  0  0  0  0  0  0  0  0  0  0  0
    7.7393  -16.1224   15.6949 N   0  0  0  0  0  0  0  0  0  0  0  0
    9.5177  -16.8564   22.3088 C   0  0  0  0  0  0  0  0  0  0  0  0
   10.6345  -17.2446   23.1196 C   0  0  0  0  0  0  0  0  0  0  0  0
   10.7582  -16.4500   24.3581 O   0  0  0  0  0  0  0  0  0  0  0  0
   11.8608  -16.2754   24.9410 C   0  0  0  0  0  0  0  0  0  0  0  0
    5.9163  -12.6045   26.2831 S   0  0  0  0  0  0  0  0  0  0  0  0
    7.1652  -12.1188   27.4903 C   0  0  0  0  0  0  0  0  0  0  0  0
    8.4350  -13.4466   27.5774 C   0  0  0  0  0  0  0  0  0  0  0  0
    8.5299  -14.1437   26.2610 C   0  0  1  0  0  0  0  0  0  0  0  0
    9.6651  -15.1053   26.2023 N   0  0  0  0  0  0  0  0  0  0  0  0
    9.6105  -15.8559   24.9263 C   0  0  0  0  0  0  0  0  0  0  0  0
    9.6232  -16.1146   27.2697 O   0  0  0  0  0  0  0  0  0  0  0  0
    9.1525  -17.2474   27.0546 O   0  0  0  0  0  0  0  0  0  0  0  0
  2  1  1  0
  2  3  2  0
  4  2  1  0
  5  4  1  0
  6  7  1  0
  6  5  1  0
  7  8  1  0
  8  9  1  1
 10  8  1  0
 10 12  1  0
 11 10  2  0
 13 12  1  0
 14 13  1  0
 15 14  2  0
 17 16  1  0
 18 17  1  0
 19 18  1  0
 20 21  1  0
 20 19  1  6
 21 14  1  0
 22 20  1  0
 23 22  2  0
 24 22  1  0
M  END
$$$$
