RGM.pdb
     RDKit          3D

 24 23  0  0  1  0  0  0  0  0999 V2000
    9.8656  -13.8375   14.9767 N   0  0  0  0  0  0  0  0  0  0  0  0
    8.5568  -14.4132   14.8125 C   0  0  0  0  0  0  0  0  0  0  0  0
    8.4009  -15.3080   13.9236 N   0  0  0  0  0  0  0  0  0  0  0  0
    7.4743  -13.9879   15.6194 N   0  0  0  0  0  0  0  0  0  0  0  0
    7.6566  -13.1501   16.7630 C   0  0  0  0  0  0  0  0  0  0  0  0
    7.7144  -13.9262   18.0805 C   0  0  0  0  0  0  0  0  0  0  0  0
    9.0689  -13.6735   18.6561 C   0  0  0  0  0  0  0  0  0  0  0  0
    9.5792  -14.8397   19.4330 C   0  0  2  0  0  0  0  0  0  0  0  0
    9.4555  -16.0726   18.6589 N   0  0  0  0  0  0  0  0  0  0  0  0
    8.9366  -15.0430   20.7493 C   0  0  0  0  0  0  0  0  0  0  0  0
    8.8461  -14.1252   21.6055 O   0  0  0  0  0  0  0  0  0  0  0  0
    7.4737  -15.7007   13.6645 N   0  0  0  0  0  0  0  0  0  0  0  0
    8.3783  -16.3243   21.1090 C   0  0  0  0  0  0  0  0  0  0  0  0
    7.6425  -16.4168   22.3360 C   0  0  0  0  0  0  0  0  0  0  0  0
    8.3704  -15.8602   23.4940 O   0  0  0  0  0  0  0  0  0  0  0  0
    9.6273  -15.7892   23.5309 C   0  0  0  0  0  0  0  0  0  0  0  0
    6.2242  -10.8389   27.4201 S   0  0  0  0  0  0  0  0  0  0  0  0
    5.2871  -12.1498   26.6101 C   0  0  0  0  0  0  0  0  0  0  0  0
    6.4536  -13.1682   25.6174 C   0  0  0  0  0  0  0  0  0  0  0  0
    7.3650  -13.9245   26.5259 C   0  0  2  0  0  0  0  0  0  0  0  0
    8.3268  -14.7863   25.7851 N   0  0  0  0  0  0  0  0  0  0  0  0
    7.6499  -15.3850   24.6112 C   0  0  0  0  0  0  0  0  0  0  0  0
    8.8270  -15.9136   26.5844 O   0  0  0  0  0  0  0  0  0  0  0  0
    8.3909  -17.0655   26.4006 O   0  0  0  0  0  0  0  0  0  0  0  0
  2  1  1  0
  2  3  2  0
  4  2  1  0
  5  4  1  0
  6  7  1  0
  6  5  1  0
  7  8  1  0
  8  9  1  6
 10  8  1  0
 10 12  1  0
 11 10  2  0
 13 12  1  0
 14 13  1  0
 15 14  2  0
 17 16  1  0
 18 17  1  0
 19 18  1  0
 20 21  1  0
 20 19  1  6
 21 14  1  0
 22 20  1  0
 23 22  2  0
 24 22  1  0
M  END
$$$$
