RGM.pdb
     RDKit          3D

 24 23  0  0  1  0  0  0  0  0999 V2000
    4.9240  -22.2910   19.9357 N   0  0  0  0  0  0  0  0  0  0  0  0
    4.4431  -22.4273   18.5860 C   0  0  0  0  0  0  0  0  0  0  0  0
    3.8391  -23.4994   18.2684 N   0  0  0  0  0  0  0  0  0  0  0  0
    4.6433  -21.3934   17.6401 N   0  0  0  0  0  0  0  0  0  0  0  0
    5.7622  -20.5063   17.7030 C   0  0  0  0  0  0  0  0  0  0  0  0
    5.7106  -19.5483   18.8951 C   0  0  0  0  0  0  0  0  0  0  0  0
    6.8955  -18.6495   18.7615 C   0  0  0  0  0  0  0  0  0  0  0  0
    7.3948  -18.1725   20.0832 C   0  0  2  0  0  0  0  0  0  0  0  0
    6.4298  -18.4683   21.1395 N   0  0  0  0  0  0  0  0  0  0  0  0
    7.7315  -16.7336   20.1417 C   0  0  0  0  0  0  0  0  0  0  0  0
    8.6692  -16.2318   19.4691 O   0  0  0  0  0  0  0  0  0  0  0  0
    3.4774  -23.6899   17.3125 N   0  0  0  0  0  0  0  0  0  0  0  0
    6.9844  -15.8337   20.9871 C   0  0  0  0  0  0  0  0  0  0  0  0
    7.3304  -14.4427   20.9602 C   0  0  0  0  0  0  0  0  0  0  0  0
    7.9185  -13.9649   22.2277 O   0  0  0  0  0  0  0  0  0  0  0  0
    8.3261  -12.7830   22.3797 C   0  0  0  0  0  0  0  0  0  0  0  0
    6.4626  -11.4896   27.7281 S   0  0  0  0  0  0  0  0  0  0  0  0
    5.6475  -12.6529   26.6167 C   0  0  0  0  0  0  0  0  0  0  0  0
    6.7968  -13.0348   25.2324 C   0  0  0  0  0  0  0  0  0  0  0  0
    7.7029  -14.1556   25.6209 C   0  0  2  0  0  0  0  0  0  0  0  0
    8.7201  -14.4584   24.5767 N   0  0  0  0  0  0  0  0  0  0  0  0
    8.0374  -14.8494   23.3215 C   0  0  0  0  0  0  0  0  0  0  0  0
    9.5949  -15.5847   24.9315 O   0  0  0  0  0  0  0  0  0  0  0  0
    9.3946  -16.7185   24.4570 O   0  0  0  0  0  0  0  0  0  0  0  0
  2  1  1  0
  2  3  2  0
  4  2  1  0
  5  4  1  0
  6  7  1  0
  6  5  1  0
  7  8  1  0
  8  9  1  1
 10  8  1  0
 10 12  1  0
 11 10  2  0
 13 12  1  0
 14 13  1  0
 15 14  2  0
 17 16  1  0
 18 17  1  0
 19 18  1  0
 20 21  1  0
 20 19  1  6
 21 14  1  0
 22 20  1  0
 23 22  2  0
 24 22  1  0
M  END
$$$$
