RGM.pdb
     RDKit          3D

 24 23  0  0  1  0  0  0  0  0999 V2000
    8.6742  -13.4921   12.4321 N   0  0  0  0  0  0  0  0  0  0  0  0
    8.7856  -13.9167   13.8028 C   0  0  0  0  0  0  0  0  0  0  0  0
    8.9197  -15.1582   14.0386 N   0  0  0  0  0  0  0  0  0  0  0  0
    8.7425  -12.9728   14.8569 N   0  0  0  0  0  0  0  0  0  0  0  0
    8.9156  -13.3472   16.2255 C   0  0  0  0  0  0  0  0  0  0  0  0
    7.7954  -14.2451   16.7550 C   0  0  0  0  0  0  0  0  0  0  0  0
    7.6379  -13.9089   18.2014 C   0  0  0  0  0  0  0  0  0  0  0  0
    8.6553  -14.5890   19.0536 C   0  0  2  0  0  0  0  0  0  0  0  0
    9.2751  -15.6996   18.3347 N   0  0  0  0  0  0  0  0  0  0  0  0
    8.1504  -15.0898   20.3502 C   0  0  0  0  0  0  0  0  0  0  0  0
    7.4694  -14.3756   21.1310 O   0  0  0  0  0  0  0  0  0  0  0  0
    9.0542  -15.5473   14.9933 N   0  0  0  0  0  0  0  0  0  0  0  0
    8.4238  -16.4409   20.7775 C   0  0  0  0  0  0  0  0  0  0  0  0
    7.7848  -16.9108   21.9718 C   0  0  0  0  0  0  0  0  0  0  0  0
    8.2363  -16.2065   23.1887 O   0  0  0  0  0  0  0  0  0  0  0  0
    9.4549  -16.0426   23.4611 C   0  0  0  0  0  0  0  0  0  0  0  0
    6.7385  -10.5251   27.9248 S   0  0  0  0  0  0  0  0  0  0  0  0
    6.3169  -11.5982   26.5379 C   0  0  0  0  0  0  0  0  0  0  0  0
    6.7591  -13.3264   26.9864 C   0  0  0  0  0  0  0  0  0  0  0  0
    6.4475  -14.2405   25.8482 C   0  0  2  0  0  0  0  0  0  0  0  0
    7.6699  -14.8282   25.2341 N   0  0  0  0  0  0  0  0  0  0  0  0
    7.2831  -15.6905   24.0933 C   0  0  0  0  0  0  0  0  0  0  0  0
    8.4236  -15.6887   26.1568 O   0  0  0  0  0  0  0  0  0  0  0  0
    8.2004  -16.9128   26.2092 O   0  0  0  0  0  0  0  0  0  0  0  0
  2  1  1  0
  2  3  2  0
  4  2  1  0
  5  4  1  0
  6  7  1  0
  6  5  1  0
  7  8  1  0
  8  9  1  6
 10  8  1  0
 10 12  1  0
 11 10  2  0
 13 12  1  0
 14 13  1  0
 15 14  2  0
 17 16  1  0
 18 17  1  0
 19 18  1  0
 20 21  1  0
 20 19  1  6
 21 14  1  0
 22 20  1  0
 23 22  2  0
 24 22  1  0
M  END
$$$$
