INA.pdb
     RDKit          3D

 22 21  0  0  1  0  0  0  0  0999 V2000
    5.4751  -11.4720   26.2434 C   0  0  0  0  0  0  0  0  0  0  0  0
    5.4640  -12.8599   25.6419 C   0  0  0  0  0  0  0  0  0  0  0  0
    6.8032  -13.5074   25.6598 C   0  0  2  0  0  0  0  0  0  0  0  0
    7.8993  -12.6324   25.1109 C   0  0  0  0  0  0  0  0  0  0  0  0
    6.8594  -14.8636   24.9923 C   0  0  2  0  0  0  0  0  0  0  0  0
    5.8573  -15.6928   25.6980 N   0  0  0  0  0  0  0  0  0  0  0  0
    8.1498  -15.5610   25.1568 C   0  0  0  0  0  0  0  0  0  0  0  0
    8.3238  -16.3938   26.0964 O   0  0  0  0  0  0  0  0  0  0  0  0
   10.0696  -15.5786   21.0035 N   0  0  0  0  0  0  0  0  0  0  0  0
   10.7061  -16.3784   22.0100 C   0  0  0  0  0  0  0  0  0  0  0  0
   10.7032  -17.6245   21.8363 O   0  0  0  0  0  0  0  0  0  0  0  0
   11.3376  -15.7340   23.2072 C   0  0  0  0  0  0  0  0  0  0  0  0
   10.5006  -16.1639   24.4130 C   0  0  2  0  0  0  0  0  0  0  0  0
    9.2810  -15.3854   24.3173 N   0  0  0  0  0  0  0  0  0  0  0  0
   11.2090  -15.9878   25.6729 C   0  0  0  0  0  0  0  0  0  0  0  0
   12.3496  -16.4726   25.8223 O   0  0  0  0  0  0  0  0  0  0  0  0
   10.8032  -14.0465   28.8712 C   0  0  0  0  0  0  0  0  0  0  0  0
   11.3224  -15.2176   28.0399 C   0  0  2  0  0  0  0  0  0  0  0  0
   10.6424  -15.2741   26.7568 N   0  0  0  0  0  0  0  0  0  0  0  0
   11.0240  -16.4504   28.7924 C   0  0  0  0  0  0  0  0  0  0  0  0
   11.5367  -16.6400   29.9102 O   0  0  0  0  0  0  0  0  0  0  0  0
   10.1775  -17.3883   28.2532 O   0  0  0  0  0  0  0  0  0  0  0  0
  2  1  1  0
  2  3  1  0
  3  5  1  0
  3  4  1  6
  5  7  1  0
  5  6  1  1
  7 14  1  0
  7  8  2  0
  9 10  1  0
 10 12  1  0
 10 11  2  0
 13 12  1  6
 13 15  1  0
 14 13  1  0
 15 16  2  0
 18 17  1  1
 19 18  1  0
 19 15  1  0
 20 18  1  0
 20 22  1  0
 21 20  2  0
M  END
$$$$
