INA.pdb
     RDKit          3D

 22 21  0  0  1  0  0  0  0  0999 V2000
    7.3155  -11.6950   19.0963 C   0  0  0  0  0  0  0  0  0  0  0  0
    7.8405  -12.8290   18.2440 C   0  0  0  0  0  0  0  0  0  0  0  0
    8.7566  -13.7343   18.9884 C   0  0  2  0  0  0  0  0  0  0  0  0
    9.9252  -13.0207   19.6156 C   0  0  0  0  0  0  0  0  0  0  0  0
    9.2578  -14.9202   18.1943 C   0  0  2  0  0  0  0  0  0  0  0  0
    8.0430  -15.6162   17.7151 N   0  0  0  0  0  0  0  0  0  0  0  0
   10.0009  -15.9104   18.9979 C   0  0  0  0  0  0  0  0  0  0  0  0
    9.3945  -16.6915   19.7908 O   0  0  0  0  0  0  0  0  0  0  0  0
   15.3677  -18.8451   19.5098 N   0  0  0  0  0  0  0  0  0  0  0  0
   13.9435  -18.6722   19.5142 C   0  0  0  0  0  0  0  0  0  0  0  0
   13.2613  -19.5643   20.0815 O   0  0  0  0  0  0  0  0  0  0  0  0
   13.3204  -17.4743   18.8632 C   0  0  0  0  0  0  0  0  0  0  0  0
   12.1240  -17.0901   19.7354 C   0  0  2  0  0  0  0  0  0  0  0  0
   11.4090  -16.0890   18.9679 N   0  0  0  0  0  0  0  0  0  0  0  0
   12.5243  -16.6356   21.0595 C   0  0  0  0  0  0  0  0  0  0  0  0
   13.3039  -15.6681   21.1796 O   0  0  0  0  0  0  0  0  0  0  0  0
   11.4713  -17.2794   24.6193 C   0  0  0  0  0  0  0  0  0  0  0  0
   12.4142  -16.7384   23.5467 C   0  0  2  0  0  0  0  0  0  0  0  0
   12.0545  -17.2618   22.2396 N   0  0  0  0  0  0  0  0  0  0  0  0
   13.7721  -17.2014   23.8885 C   0  0  0  0  0  0  0  0  0  0  0  0
   14.2884  -18.1429   23.2596 O   0  0  0  0  0  0  0  0  0  0  0  0
   14.4642  -16.5882   24.9044 O   0  0  0  0  0  0  0  0  0  0  0  0
  2  1  1  0
  2  3  1  0
  3  5  1  0
  3  4  1  6
  5  7  1  0
  5  6  1  1
  7 14  1  0
  7  8  2  0
  9 10  1  0
 10 12  1  0
 10 11  2  0
 13 12  1  6
 13 15  1  0
 14 13  1  0
 15 16  2  0
 18 17  1  1
 19 18  1  0
 19 15  1  0
 20 18  1  0
 20 22  1  0
 21 20  2  0
M  END
$$$$
