INA.pdb
     RDKit          3D

 22 21  0  0  1  0  0  0  0  0999 V2000
    7.2309  -11.9773   27.1887 C   0  0  0  0  0  0  0  0  0  0  0  0
    6.4504  -13.1240   26.5852 C   0  0  0  0  0  0  0  0  0  0  0  0
    7.2662  -13.9521   25.6569 C   0  0  2  0  0  0  0  0  0  0  0  0
    8.0138  -13.1418   24.6308 C   0  0  0  0  0  0  0  0  0  0  0  0
    6.5064  -15.0627   24.9657 C   0  0  2  0  0  0  0  0  0  0  0  0
    5.9882  -15.9224   26.0529 N   0  0  0  0  0  0  0  0  0  0  0  0
    7.3503  -15.9359   24.1268 C   0  0  0  0  0  0  0  0  0  0  0  0
    7.8528  -17.0007   24.5963 O   0  0  0  0  0  0  0  0  0  0  0  0
    9.6006  -17.2802   18.7088 N   0  0  0  0  0  0  0  0  0  0  0  0
    8.4736  -17.1959   19.5925 C   0  0  0  0  0  0  0  0  0  0  0  0
    7.6399  -18.1370   19.5467 O   0  0  0  0  0  0  0  0  0  0  0  0
    8.3183  -16.0271   20.5181 C   0  0  0  0  0  0  0  0  0  0  0  0
    8.4545  -16.5857   21.9355 C   0  0  2  0  0  0  0  0  0  0  0  0
    7.6720  -15.6909   22.7660 N   0  0  0  0  0  0  0  0  0  0  0  0
    9.8438  -16.7066   22.3544 C   0  0  0  0  0  0  0  0  0  0  0  0
   10.6340  -17.4196   21.7022 O   0  0  0  0  0  0  0  0  0  0  0  0
   12.1170  -15.0498   24.8699 C   0  0  0  0  0  0  0  0  0  0  0  0
   11.7478  -16.1290   23.8544 C   0  0  2  0  0  0  0  0  0  0  0  0
   10.3426  -16.0336   23.4961 N   0  0  0  0  0  0  0  0  0  0  0  0
   11.9878  -17.4331   24.4999 C   0  0  0  0  0  0  0  0  0  0  0  0
   13.1365  -17.7522   24.8563 O   0  0  0  0  0  0  0  0  0  0  0  0
   10.9371  -18.2938   24.7057 O   0  0  0  0  0  0  0  0  0  0  0  0
  2  1  1  0
  2  3  1  0
  3  5  1  0
  3  4  1  6
  5  7  1  0
  5  6  1  1
  7 14  1  0
  7  8  2  0
  9 10  1  0
 10 12  1  0
 10 11  2  0
 13 12  1  6
 13 15  1  0
 14 13  1  0
 15 16  2  0
 18 17  1  1
 19 18  1  0
 19 15  1  0
 20 18  1  0
 20 22  1  0
 21 20  2  0
M  END
$$$$
