INA.pdb
     RDKit          3D

 22 21  0  0  1  0  0  0  0  0999 V2000
    7.1210  -11.4232   27.6632 C   0  0  0  0  0  0  0  0  0  0  0  0
    7.3049  -11.3018   26.1667 C   0  0  0  0  0  0  0  0  0  0  0  0
    6.7596  -12.4681   25.4216 C   0  0  2  0  0  0  0  0  0  0  0  0
    5.2694  -12.6294   25.5683 C   0  0  0  0  0  0  0  0  0  0  0  0
    7.4407  -13.7852   25.7213 C   0  0  2  0  0  0  0  0  0  0  0  0
    8.8181  -13.4329   26.1314 N   0  0  0  0  0  0  0  0  0  0  0  0
    7.5816  -14.6692   24.5477 C   0  0  0  0  0  0  0  0  0  0  0  0
    6.7534  -15.6049   24.3351 O   0  0  0  0  0  0  0  0  0  0  0  0
    7.4491  -12.6931   20.5461 N   0  0  0  0  0  0  0  0  0  0  0  0
    7.7193  -14.0895   20.7336 C   0  0  0  0  0  0  0  0  0  0  0  0
    6.7957  -14.8939   20.4459 O   0  0  0  0  0  0  0  0  0  0  0  0
    9.0502  -14.5440   21.2525 C   0  0  0  0  0  0  0  0  0  0  0  0
    8.7533  -15.4613   22.4400 C   0  0  2  0  0  0  0  0  0  0  0  0
    8.6096  -14.5690   23.5739 N   0  0  0  0  0  0  0  0  0  0  0  0
    9.7764  -16.4807   22.6245 C   0  0  0  0  0  0  0  0  0  0  0  0
   10.2425  -17.0852   21.6368 O   0  0  0  0  0  0  0  0  0  0  0  0
   12.6586  -17.2694   24.2334 C   0  0  0  0  0  0  0  0  0  0  0  0
   11.2652  -17.8699   24.0606 C   0  0  2  0  0  0  0  0  0  0  0  0
   10.2722  -16.8201   23.9068 N   0  0  0  0  0  0  0  0  0  0  0  0
   10.9662  -18.6332   25.2865 C   0  0  0  0  0  0  0  0  0  0  0  0
   10.0124  -18.3004   26.0132 O   0  0  0  0  0  0  0  0  0  0  0  0
   11.7456  -19.7135   25.6223 O   0  0  0  0  0  0  0  0  0  0  0  0
  2  1  1  0
  2  3  1  0
  3  5  1  0
  3  4  1  1
  5  7  1  0
  5  6  1  6
  7 14  1  0
  7  8  2  0
  9 10  1  0
 10 12  1  0
 10 11  2  0
 13 12  1  6
 13 15  1  0
 14 13  1  0
 15 16  2  0
 18 17  1  1
 19 18  1  0
 19 15  1  0
 20 18  1  0
 20 22  1  0
 21 20  2  0
M  END
$$$$
