INA.pdb
     RDKit          3D

 22 21  0  0  1  0  0  0  0  0999 V2000
    7.8827  -13.0767   19.3370 C   0  0  0  0  0  0  0  0  0  0  0  0
    7.7849  -13.1140   20.8461 C   0  0  0  0  0  0  0  0  0  0  0  0
    7.7991  -14.4980   21.3913 C   0  0  2  0  0  0  0  0  0  0  0  0
    6.7405  -15.3880   20.7948 C   0  0  0  0  0  0  0  0  0  0  0  0
    7.7381  -14.5844   22.9003 C   0  0  2  0  0  0  0  0  0  0  0  0
    8.1327  -13.2445   23.3887 N   0  0  0  0  0  0  0  0  0  0  0  0
    8.7071  -15.5305   23.4874 C   0  0  0  0  0  0  0  0  0  0  0  0
    8.3672  -16.7188   23.7686 O   0  0  0  0  0  0  0  0  0  0  0  0
   11.4044  -17.9986   22.1936 N   0  0  0  0  0  0  0  0  0  0  0  0
   12.0367  -16.7109   22.1990 C   0  0  0  0  0  0  0  0  0  0  0  0
   12.3703  -16.2334   21.0838 O   0  0  0  0  0  0  0  0  0  0  0  0
   12.2797  -15.9879   23.4895 C   0  0  0  0  0  0  0  0  0  0  0  0
   11.0138  -16.1756   24.3273 C   0  0  2  0  0  0  0  0  0  0  0  0
   10.0620  -15.2269   23.7829 N   0  0  0  0  0  0  0  0  0  0  0  0
   11.2598  -16.0044   25.7522 C   0  0  0  0  0  0  0  0  0  0  0  0
   12.2124  -16.5980   26.2985 O   0  0  0  0  0  0  0  0  0  0  0  0
    9.9699  -13.7829   28.5187 C   0  0  0  0  0  0  0  0  0  0  0  0
   10.7603  -14.9645   27.9609 C   0  0  2  0  0  0  0  0  0  0  0  0
   10.4432  -15.1745   26.5583 N   0  0  0  0  0  0  0  0  0  0  0  0
   10.3543  -16.1584   28.7255 C   0  0  0  0  0  0  0  0  0  0  0  0
   10.6625  -16.2664   29.9263 O   0  0  0  0  0  0  0  0  0  0  0  0
    9.6342  -17.1506   28.1058 O   0  0  0  0  0  0  0  0  0  0  0  0
  2  1  1  0
  2  3  1  0
  3  5  1  0
  3  4  1  6
  5  7  1  0
  5  6  1  1
  7 14  1  0
  7  8  2  0
  9 10  1  0
 10 12  1  0
 10 11  2  0
 13 12  1  6
 13 15  1  0
 14 13  1  0
 15 16  2  0
 18 17  1  1
 19 18  1  0
 19 15  1  0
 20 18  1  0
 20 22  1  0
 21 20  2  0
M  END
$$$$
