INA.pdb
     RDKit          3D

 22 21  0  0  1  0  0  0  0  0999 V2000
    8.1049  -11.7551   26.9275 C   0  0  0  0  0  0  0  0  0  0  0  0
    7.3693  -13.0748   26.8532 C   0  0  0  0  0  0  0  0  0  0  0  0
    7.2342  -13.5827   25.4615 C   0  0  2  0  0  0  0  0  0  0  0  0
    6.5718  -12.6038   24.5280 C   0  0  0  0  0  0  0  0  0  0  0  0
    6.5567  -14.9299   25.3424 C   0  0  2  0  0  0  0  0  0  0  0  0
    5.6353  -15.0119   26.4973 N   0  0  0  0  0  0  0  0  0  0  0  0
    7.4750  -16.0778   25.4752 C   0  0  0  0  0  0  0  0  0  0  0  0
    8.1326  -16.2646   26.5426 O   0  0  0  0  0  0  0  0  0  0  0  0
    6.7782  -18.9194   26.3515 N   0  0  0  0  0  0  0  0  0  0  0  0
    6.8738  -19.7210   25.1656 C   0  0  0  0  0  0  0  0  0  0  0  0
    6.0954  -20.7055   25.0770 O   0  0  0  0  0  0  0  0  0  0  0  0
    7.8665  -19.3807   24.0952 C   0  0  0  0  0  0  0  0  0  0  0  0
    8.6356  -18.1590   24.6009 C   0  0  2  0  0  0  0  0  0  0  0  0
    7.7069  -17.0531   24.4700 N   0  0  0  0  0  0  0  0  0  0  0  0
    9.8891  -17.9570   23.8881 C   0  0  0  0  0  0  0  0  0  0  0  0
   10.7795  -18.8310   23.9282 O   0  0  0  0  0  0  0  0  0  0  0  0
   11.3604  -15.4191   21.5066 C   0  0  0  0  0  0  0  0  0  0  0  0
   11.4302  -16.5813   22.4947 C   0  0  2  0  0  0  0  0  0  0  0  0
   10.1423  -16.7836   23.1369 N   0  0  0  0  0  0  0  0  0  0  0  0
   12.4237  -16.2185   23.5225 C   0  0  0  0  0  0  0  0  0  0  0  0
   13.6078  -16.0106   23.2015 O   0  0  0  0  0  0  0  0  0  0  0  0
   12.0355  -16.1111   24.8358 O   0  0  0  0  0  0  0  0  0  0  0  0
  2  1  1  0
  2  3  1  0
  3  5  1  0
  3  4  1  6
  5  7  1  0
  5  6  1  1
  7 14  1  0
  7  8  2  0
  9 10  1  0
 10 12  1  0
 10 11  2  0
 13 12  1  6
 13 15  1  0
 14 13  1  0
 15 16  2  0
 18 17  1  6
 19 18  1  0
 19 15  1  0
 20 18  1  0
 20 22  1  0
 21 20  2  0
M  END
$$$$
