INA.pdb
     RDKit          3D

 22 21  0  0  1  0  0  0  0  0999 V2000
    6.4430  -11.8251   26.5160 C   0  0  0  0  0  0  0  0  0  0  0  0
    6.1755  -13.2667   26.1440 C   0  0  0  0  0  0  0  0  0  0  0  0
    6.9642  -13.7144   24.9648 C   0  0  2  0  0  0  0  0  0  0  0  0
    6.7187  -12.8870   23.7305 C   0  0  0  0  0  0  0  0  0  0  0  0
    6.8177  -15.1812   24.6253 C   0  0  2  0  0  0  0  0  0  0  0  0
    6.1146  -15.7851   25.7788 N   0  0  0  0  0  0  0  0  0  0  0  0
    8.1005  -15.9022   24.5108 C   0  0  0  0  0  0  0  0  0  0  0  0
    8.1277  -17.1561   24.3271 O   0  0  0  0  0  0  0  0  0  0  0  0
   11.4069  -17.1840   21.7235 N   0  0  0  0  0  0  0  0  0  0  0  0
   10.9865  -15.8864   22.1679 C   0  0  0  0  0  0  0  0  0  0  0  0
   10.2089  -15.2478   21.4125 O   0  0  0  0  0  0  0  0  0  0  0  0
   11.4682  -15.3375   23.4770 C   0  0  0  0  0  0  0  0  0  0  0  0
   10.6353  -16.0260   24.5595 C   0  0  2  0  0  0  0  0  0  0  0  0
    9.3823  -15.2967   24.5864 N   0  0  0  0  0  0  0  0  0  0  0  0
   11.3171  -16.0641   25.8455 C   0  0  0  0  0  0  0  0  0  0  0  0
   12.4615  -16.5550   25.9326 O   0  0  0  0  0  0  0  0  0  0  0  0
   11.0815  -14.4262   29.1684 C   0  0  0  0  0  0  0  0  0  0  0  0
   11.4152  -15.6359   28.2982 C   0  0  2  0  0  0  0  0  0  0  0  0
   10.7197  -15.5563   27.0247 N   0  0  0  0  0  0  0  0  0  0  0  0
   10.9492  -16.8334   29.0220 C   0  0  0  0  0  0  0  0  0  0  0  0
   10.0607  -17.5537   28.5319 O   0  0  0  0  0  0  0  0  0  0  0  0
   11.5008  -17.1497   30.2397 O   0  0  0  0  0  0  0  0  0  0  0  0
  2  1  1  0
  2  3  1  0
  3  5  1  0
  3  4  1  6
  5  7  1  0
  5  6  1  1
  7 14  1  0
  7  8  2  0
  9 10  1  0
 10 12  1  0
 10 11  2  0
 13 12  1  6
 13 15  1  0
 14 13  1  0
 15 16  2  0
 18 17  1  1
 19 18  1  0
 19 15  1  0
 20 18  1  0
 20 22  1  0
 21 20  2  0
M  END
$$$$
