INA.pdb
     RDKit          3D

 22 21  0  0  1  0  0  0  0  0999 V2000
    5.3555  -11.4293   26.4131 C   0  0  0  0  0  0  0  0  0  0  0  0
    5.2764  -12.7629   25.7036 C   0  0  0  0  0  0  0  0  0  0  0  0
    6.5840  -13.4707   25.6577 C   0  0  2  0  0  0  0  0  0  0  0  0
    7.7159  -12.6071   25.1666 C   0  0  0  0  0  0  0  0  0  0  0  0
    6.5724  -14.7723   24.8871 C   0  0  2  0  0  0  0  0  0  0  0  0
    5.5575  -15.6173   25.5547 N   0  0  0  0  0  0  0  0  0  0  0  0
    7.8392  -15.5261   24.9622 C   0  0  0  0  0  0  0  0  0  0  0  0
    8.0150  -16.4160   25.8475 O   0  0  0  0  0  0  0  0  0  0  0  0
   12.0120  -17.8988   22.3457 N   0  0  0  0  0  0  0  0  0  0  0  0
   12.1699  -16.5675   22.8563 C   0  0  0  0  0  0  0  0  0  0  0  0
   13.3266  -16.2265   23.2152 O   0  0  0  0  0  0  0  0  0  0  0  0
   10.9929  -15.6439   22.9500 C   0  0  0  0  0  0  0  0  0  0  0  0
   10.1619  -16.1325   24.1375 C   0  0  2  0  0  0  0  0  0  0  0  0
    8.9442  -15.3468   24.0892 N   0  0  0  0  0  0  0  0  0  0  0  0
   10.8785  -16.0230   25.4002 C   0  0  0  0  0  0  0  0  0  0  0  0
   11.9623  -16.6217   25.5585 O   0  0  0  0  0  0  0  0  0  0  0  0
   10.5007  -14.1505   28.6645 C   0  0  0  0  0  0  0  0  0  0  0  0
   11.0700  -15.2395   27.7578 C   0  0  2  0  0  0  0  0  0  0  0  0
   10.3831  -15.2485   26.4773 N   0  0  0  0  0  0  0  0  0  0  0  0
   10.8388  -16.5307   28.4320 C   0  0  0  0  0  0  0  0  0  0  0  0
   11.3449  -16.7533   29.5468 O   0  0  0  0  0  0  0  0  0  0  0  0
   10.0621  -17.4863   27.8233 O   0  0  0  0  0  0  0  0  0  0  0  0
  2  1  1  0
  2  3  1  0
  3  5  1  0
  3  4  1  6
  5  7  1  0
  5  6  1  1
  7 14  1  0
  7  8  2  0
  9 10  1  0
 10 12  1  0
 10 11  2  0
 13 12  1  6
 13 15  1  0
 14 13  1  0
 15 16  2  0
 18 17  1  1
 19 18  1  0
 19 15  1  0
 20 18  1  0
 20 22  1  0
 21 20  2  0
M  END
$$$$
