INA.pdb
     RDKit          3D

 22 21  0  0  1  0  0  0  0  0999 V2000
    5.4972  -11.5235   26.6861 C   0  0  0  0  0  0  0  0  0  0  0  0
    5.4515  -12.7336   25.7796 C   0  0  0  0  0  0  0  0  0  0  0  0
    6.7493  -13.4580   25.7180 C   0  0  2  0  0  0  0  0  0  0  0  0
    7.9067  -12.5810   25.3185 C   0  0  0  0  0  0  0  0  0  0  0  0
    6.7395  -14.7021   24.8575 C   0  0  2  0  0  0  0  0  0  0  0  0
    5.5701  -15.4869   25.3116 N   0  0  0  0  0  0  0  0  0  0  0  0
    7.9132  -15.5758   25.0514 C   0  0  0  0  0  0  0  0  0  0  0  0
    8.0234  -16.2962   26.0885 O   0  0  0  0  0  0  0  0  0  0  0  0
    9.9324  -16.6012   20.7770 N   0  0  0  0  0  0  0  0  0  0  0  0
   10.1981  -17.1661   22.0686 C   0  0  0  0  0  0  0  0  0  0  0  0
    9.7381  -18.3150   22.2955 O   0  0  0  0  0  0  0  0  0  0  0  0
   10.9894  -16.4004   23.0859 C   0  0  0  0  0  0  0  0  0  0  0  0
   10.1925  -16.4754   24.3893 C   0  0  2  0  0  0  0  0  0  0  0  0
    8.9928  -15.7006   24.1381 N   0  0  0  0  0  0  0  0  0  0  0  0
   10.9587  -16.0107   25.5369 C   0  0  0  0  0  0  0  0  0  0  0  0
   11.9480  -15.2681   25.3695 O   0  0  0  0  0  0  0  0  0  0  0  0
   10.8883  -14.5564   28.4797 C   0  0  0  0  0  0  0  0  0  0  0  0
   11.4099  -15.9038   27.9852 C   0  0  2  0  0  0  0  0  0  0  0  0
   10.6184  -16.3767   26.8619 N   0  0  0  0  0  0  0  0  0  0  0  0
   11.2727  -16.8586   29.1007 C   0  0  0  0  0  0  0  0  0  0  0  0
   11.8784  -16.6622   30.1698 O   0  0  0  0  0  0  0  0  0  0  0  0
   10.4731  -17.9659   28.9538 O   0  0  0  0  0  0  0  0  0  0  0  0
  2  1  1  0
  2  3  1  0
  3  5  1  0
  3  4  1  6
  5  7  1  0
  5  6  1  1
  7 14  1  0
  7  8  2  0
  9 10  1  0
 10 12  1  0
 10 11  2  0
 13 12  1  6
 13 15  1  0
 14 13  1  0
 15 16  2  0
 18 17  1  1
 19 18  1  0
 19 15  1  0
 20 18  1  0
 20 22  1  0
 21 20  2  0
M  END
$$$$
