INA.pdb
     RDKit          3D

 22 21  0  0  1  0  0  0  0  0999 V2000
    5.5454  -11.7114   26.7187 C   0  0  0  0  0  0  0  0  0  0  0  0
    5.5023  -12.9764   25.8904 C   0  0  0  0  0  0  0  0  0  0  0  0
    6.8376  -13.6151   25.7423 C   0  0  2  0  0  0  0  0  0  0  0  0
    7.9016  -12.6715   25.2466 C   0  0  0  0  0  0  0  0  0  0  0  0
    6.8479  -14.8725   24.9013 C   0  0  2  0  0  0  0  0  0  0  0  0
    5.7768  -15.7284   25.4578 N   0  0  0  0  0  0  0  0  0  0  0  0
    8.0922  -15.6586   25.0115 C   0  0  0  0  0  0  0  0  0  0  0  0
    8.2344  -16.5268   25.9240 O   0  0  0  0  0  0  0  0  0  0  0  0
   10.1054  -17.6252   21.5030 N   0  0  0  0  0  0  0  0  0  0  0  0
   10.3677  -16.2640   21.8723 C   0  0  0  0  0  0  0  0  0  0  0  0
    9.8232  -15.3681   21.1766 O   0  0  0  0  0  0  0  0  0  0  0  0
   11.2562  -15.9494   23.0379 C   0  0  0  0  0  0  0  0  0  0  0  0
   10.4457  -16.2804   24.2922 C   0  0  2  0  0  0  0  0  0  0  0  0
    9.2103  -15.5356   24.1454 N   0  0  0  0  0  0  0  0  0  0  0  0
   11.1696  -15.9759   25.5184 C   0  0  0  0  0  0  0  0  0  0  0  0
   12.4073  -16.1301   25.5689 O   0  0  0  0  0  0  0  0  0  0  0  0
   10.8493  -13.9555   28.5483 C   0  0  0  0  0  0  0  0  0  0  0  0
   11.2495  -15.2843   27.9109 C   0  0  2  0  0  0  0  0  0  0  0  0
   10.5104  -15.5027   26.6789 N   0  0  0  0  0  0  0  0  0  0  0  0
   10.9018  -16.3486   28.8707 C   0  0  0  0  0  0  0  0  0  0  0  0
   11.3978  -16.3477   30.0119 O   0  0  0  0  0  0  0  0  0  0  0  0
   10.0278  -17.3410   28.4987 O   0  0  0  0  0  0  0  0  0  0  0  0
  2  1  1  0
  2  3  1  0
  3  5  1  0
  3  4  1  6
  5  7  1  0
  5  6  1  1
  7 14  1  0
  7  8  2  0
  9 10  1  0
 10 12  1  0
 10 11  2  0
 13 12  1  6
 13 15  1  0
 14 13  1  0
 15 16  2  0
 18 17  1  1
 19 18  1  0
 19 15  1  0
 20 18  1  0
 20 22  1  0
 21 20  2  0
M  END
$$$$
