INA.pdb
     RDKit          3D

 22 21  0  0  1  0  0  0  0  0999 V2000
    5.6045  -11.4365   26.4290 C   0  0  0  0  0  0  0  0  0  0  0  0
    5.5556  -12.6823   25.5723 C   0  0  0  0  0  0  0  0  0  0  0  0
    6.8273  -13.4535   25.6022 C   0  0  2  0  0  0  0  0  0  0  0  0
    8.0364  -12.6295   25.2450 C   0  0  0  0  0  0  0  0  0  0  0  0
    6.8188  -14.7202   24.7754 C   0  0  2  0  0  0  0  0  0  0  0  0
    5.6280  -15.4759   25.2232 N   0  0  0  0  0  0  0  0  0  0  0  0
    7.9748  -15.6048   25.0200 C   0  0  0  0  0  0  0  0  0  0  0  0
    7.9725  -16.4263   25.9853 O   0  0  0  0  0  0  0  0  0  0  0  0
    9.9002  -15.9207   21.0184 N   0  0  0  0  0  0  0  0  0  0  0  0
   10.0656  -16.8177   22.1257 C   0  0  0  0  0  0  0  0  0  0  0  0
    9.3274  -17.8363   22.1512 O   0  0  0  0  0  0  0  0  0  0  0  0
   11.0784  -16.5306   23.1928 C   0  0  0  0  0  0  0  0  0  0  0  0
   10.3041  -16.4755   24.5108 C   0  0  2  0  0  0  0  0  0  0  0  0
    9.1571  -15.6324   24.2347 N   0  0  0  0  0  0  0  0  0  0  0  0
   11.1236  -16.0034   25.6179 C   0  0  0  0  0  0  0  0  0  0  0  0
   12.2293  -16.5346   25.8487 O   0  0  0  0  0  0  0  0  0  0  0  0
   10.1799  -14.0482   28.6789 C   0  0  0  0  0  0  0  0  0  0  0  0
   11.1487  -14.8812   27.8425 C   0  0  2  0  0  0  0  0  0  0  0  0
   10.7058  -14.9442   26.4599 N   0  0  0  0  0  0  0  0  0  0  0  0
   11.1479  -16.2441   28.4060 C   0  0  0  0  0  0  0  0  0  0  0  0
   10.0725  -16.8047   28.6847 O   0  0  0  0  0  0  0  0  0  0  0  0
   12.3401  -16.8917   28.6215 O   0  0  0  0  0  0  0  0  0  0  0  0
  2  1  1  0
  2  3  1  0
  3  5  1  0
  3  4  1  6
  5  7  1  0
  5  6  1  1
  7 14  1  0
  7  8  2  0
  9 10  1  0
 10 12  1  0
 10 11  2  0
 13 12  1  6
 13 15  1  0
 14 13  1  0
 15 16  2  0
 18 17  1  1
 19 18  1  0
 19 15  1  0
 20 18  1  0
 20 22  1  0
 21 20  2  0
M  END
$$$$
