FTL.pdb
     RDKit          3D

 27 27  0  0  1  0  0  0  0  0999 V2000
    6.4982  -15.9349   20.5687 N   0  0  0  0  0  0  0  0  0  0  0  0
    7.6783  -16.7218   20.3768 C   0  0  1  0  0  0  0  0  0  0  0  0
    8.8541  -15.9187   19.8718 C   0  0  0  0  0  0  0  0  0  0  0  0
    8.3417  -14.6284   19.3520 C   0  0  0  0  0  0  0  0  0  0  0  0
    8.1857  -13.5774   20.2209 C   0  0  0  0  0  0  0  0  0  0  0  0
    7.7076  -12.3825   19.7232 C   0  0  0  0  0  0  0  0  0  0  0  0
    7.3932  -12.2558   18.3674 C   0  0  0  0  0  0  0  0  0  0  0  0
    7.5568  -13.3184   17.5182 C   0  0  0  0  0  0  0  0  0  0  0  0
    8.0296  -14.4955   18.0177 C   0  0  0  0  0  0  0  0  0  0  0  0
    8.0641  -17.3640   21.6502 C   0  0  0  0  0  0  0  0  0  0  0  0
    7.9160  -18.6050   21.7818 O   0  0  0  0  0  0  0  0  0  0  0  0
    8.9691  -19.4222   22.9954 C   0  0  0  0  0  0  0  0  0  0  0  0
    9.6527  -18.4245   23.9028 C   0  0  1  0  0  0  0  0  0  0  0  0
   10.9180  -18.1951   23.3813 O   0  0  0  0  0  0  0  0  0  0  0  0
    8.8317  -17.1826   24.0228 C   0  0  2  0  0  0  0  0  0  0  0  0
    8.5909  -16.6035   22.7059 N   0  0  0  0  0  0  0  0  0  0  0  0
    9.4619  -16.2035   24.9276 C   0  0  0  0  0  0  0  0  0  0  0  0
   10.3915  -15.4402   24.5521 O   0  0  0  0  0  0  0  0  0  0  0  0
    6.2115  -13.1399   27.3159 C   0  0  0  0  0  0  0  0  0  0  0  0
    7.5056  -13.6653   26.6807 C   0  0  1  0  0  0  0  0  0  0  0  0
    8.1325  -12.5563   25.9202 C   0  0  0  0  0  0  0  0  0  0  0  0
    8.3400  -14.3300   27.7126 C   0  0  0  0  0  0  0  0  0  0  0  0
    9.4698  -15.1630   27.2274 C   0  0  2  0  0  0  0  0  0  0  0  0
    9.0117  -16.1139   26.2629 N   0  0  0  0  0  0  0  0  0  0  0  0
   10.1880  -15.8163   28.3625 C   0  0  0  0  0  0  0  0  0  0  0  0
   10.1007  -17.0526   28.5504 O   0  0  0  0  0  0  0  0  0  0  0  0
   10.9660  -15.0739   29.2328 O   0  0  0  0  0  0  0  0  0  0  0  0
  2  1  1  1
  2  3  1  0
  4  9  2  0
  4  3  1  0
  5  4  1  0
  6  7  1  0
  6  5  2  0
  7  8  2  0
  8  9  1  0
 10  2  1  0
 11 10  2  0
 13 15  1  0
 13 12  1  6
 14 13  1  0
 15 16  1  6
 16 10  1  0
 17 24  1  0
 17 15  1  0
 18 17  2  0
 20 19  1  1
 21 20  1  0
 23 22  1  1
 22 20  1  0
 23 24  1  0
 25 23  1  0
 26 25  2  0
 27 25  1  0
M  END
$$$$
