FTL.pdb
     RDKit          3D

 27 27  0  0  1  0  0  0  0  0999 V2000
    7.5715  -17.7892   19.7027 N   0  0  0  0  0  0  0  0  0  0  0  0
    7.7694  -16.7014   20.6117 C   0  0  1  0  0  0  0  0  0  0  0  0
    6.6055  -15.7388   20.6510 C   0  0  0  0  0  0  0  0  0  0  0  0
    7.1059  -14.3952   20.2740 C   0  0  0  0  0  0  0  0  0  0  0  0
    7.3211  -14.1147   18.9478 C   0  0  0  0  0  0  0  0  0  0  0  0
    7.7870  -12.8602   18.6117 C   0  0  0  0  0  0  0  0  0  0  0  0
    8.0305  -11.9064   19.6037 C   0  0  0  0  0  0  0  0  0  0  0  0
    7.8085  -12.2084   20.9215 C   0  0  0  0  0  0  0  0  0  0  0  0
    7.3482  -13.4501   21.2454 C   0  0  0  0  0  0  0  0  0  0  0  0
    7.9897  -17.2232   21.9762 C   0  0  0  0  0  0  0  0  0  0  0  0
    7.5850  -18.3775   22.2650 O   0  0  0  0  0  0  0  0  0  0  0  0
    9.0874  -19.2220   23.2873 C   0  0  0  0  0  0  0  0  0  0  0  0
    9.7664  -18.2047   24.1762 C   0  0  1  0  0  0  0  0  0  0  0  0
   11.0300  -17.9779   23.6496 O   0  0  0  0  0  0  0  0  0  0  0  0
    8.9389  -16.9652   24.2749 C   0  0  2  0  0  0  0  0  0  0  0  0
    8.6427  -16.4449   22.9448 N   0  0  0  0  0  0  0  0  0  0  0  0
    9.5939  -15.9434   25.1124 C   0  0  0  0  0  0  0  0  0  0  0  0
   10.6677  -15.3795   24.7708 O   0  0  0  0  0  0  0  0  0  0  0  0
    6.8042  -12.0363   26.7580 C   0  0  0  0  0  0  0  0  0  0  0  0
    7.8923  -13.0239   26.3166 C   0  0  1  0  0  0  0  0  0  0  0  0
    8.6894  -12.3854   25.2405 C   0  0  0  0  0  0  0  0  0  0  0  0
    8.6358  -13.5179   27.5024 C   0  0  0  0  0  0  0  0  0  0  0  0
    9.5564  -14.6635   27.2877 C   0  0  2  0  0  0  0  0  0  0  0  0
    9.0013  -15.5805   26.3415 N   0  0  0  0  0  0  0  0  0  0  0  0
    9.9026  -15.3299   28.5788 C   0  0  0  0  0  0  0  0  0  0  0  0
    9.4839  -16.4827   28.8382 O   0  0  0  0  0  0  0  0  0  0  0  0
   10.6925  -14.6922   29.5185 O   0  0  0  0  0  0  0  0  0  0  0  0
  2  1  1  6
  2  3  1  0
  4  9  2  0
  4  3  1  0
  5  4  1  0
  6  7  1  0
  6  5  2  0
  7  8  2  0
  8  9  1  0
 10  2  1  0
 11 10  2  0
 13 15  1  0
 13 12  1  6
 14 13  1  0
 15 16  1  6
 16 10  1  0
 17 24  1  0
 17 15  1  0
 18 17  2  0
 20 19  1  1
 21 20  1  0
 23 22  1  1
 22 20  1  0
 23 24  1  0
 25 23  1  0
 26 25  2  0
 27 25  1  0
M  END
$$$$
