FTL.pdb
     RDKit          3D

 27 27  0  0  1  0  0  0  0  0999 V2000
    8.0578  -18.1396   19.0608 N   0  0  0  0  0  0  0  0  0  0  0  0
    8.0426  -16.9124   19.7972 C   0  0  1  0  0  0  0  0  0  0  0  0
    7.0059  -15.9322   19.3000 C   0  0  0  0  0  0  0  0  0  0  0  0
    7.4642  -14.5642   19.6412 C   0  0  0  0  0  0  0  0  0  0  0  0
    7.1130  -14.0298   20.8556 C   0  0  0  0  0  0  0  0  0  0  0  0
    7.5464  -12.7556   21.1597 C   0  0  0  0  0  0  0  0  0  0  0  0
    8.3229  -12.0357   20.2475 C   0  0  0  0  0  0  0  0  0  0  0  0
    8.6616  -12.5892   19.0409 C   0  0  0  0  0  0  0  0  0  0  0  0
    8.2295  -13.8486   18.7480 C   0  0  0  0  0  0  0  0  0  0  0  0
    7.7773  -17.1884   21.2242 C   0  0  0  0  0  0  0  0  0  0  0  0
    6.8883  -18.0212   21.5337 O   0  0  0  0  0  0  0  0  0  0  0  0
    8.0101  -19.2576   22.9420 C   0  0  0  0  0  0  0  0  0  0  0  0
    8.8345  -18.3370   23.8132 C   0  0  1  0  0  0  0  0  0  0  0  0
   10.1667  -18.5460   23.4856 O   0  0  0  0  0  0  0  0  0  0  0  0
    8.3991  -16.9199   23.6310 C   0  0  2  0  0  0  0  0  0  0  0  0
    8.5054  -16.5321   22.2289 N   0  0  0  0  0  0  0  0  0  0  0  0
    9.1651  -16.0038   24.4962 C   0  0  0  0  0  0  0  0  0  0  0  0
   10.2964  -15.5560   24.1686 O   0  0  0  0  0  0  0  0  0  0  0  0
    5.9566  -12.6670   27.3695 C   0  0  0  0  0  0  0  0  0  0  0  0
    7.0332  -13.2998   26.4780 C   0  0  1  0  0  0  0  0  0  0  0  0
    7.4497  -12.2948   25.4693 C   0  0  0  0  0  0  0  0  0  0  0  0
    8.1023  -13.8908   27.3210 C   0  0  0  0  0  0  0  0  0  0  0  0
    9.1777  -14.6346   26.6167 C   0  0  2  0  0  0  0  0  0  0  0  0
    8.6162  -15.6114   25.7364 N   0  0  0  0  0  0  0  0  0  0  0  0
   10.1417  -15.2392   27.5843 C   0  0  0  0  0  0  0  0  0  0  0  0
   10.1582  -16.4765   27.7852 O   0  0  0  0  0  0  0  0  0  0  0  0
   11.0385  -14.4495   28.2815 O   0  0  0  0  0  0  0  0  0  0  0  0
  2  1  1  6
  2  3  1  0
  4  9  2  0
  4  3  1  0
  5  4  1  0
  6  7  1  0
  6  5  2  0
  7  8  2  0
  8  9  1  0
 10  2  1  0
 11 10  2  0
 13 15  1  0
 13 12  1  6
 14 13  1  0
 15 16  1  6
 16 10  1  0
 17 24  1  0
 17 15  1  0
 18 17  2  0
 20 19  1  1
 21 20  1  0
 23 22  1  1
 22 20  1  0
 23 24  1  0
 25 23  1  0
 26 25  2  0
 27 25  1  0
M  END
$$$$
