FTL.pdb
     RDKit          3D

 27 27  0  0  1  0  0  0  0  0999 V2000
    9.3217  -16.7357   19.9802 N   0  0  0  0  0  0  0  0  0  0  0  0
   10.2553  -16.1842   20.9144 C   0  0  1  0  0  0  0  0  0  0  0  0
   10.3613  -14.6792   20.8326 C   0  0  0  0  0  0  0  0  0  0  0  0
    9.0253  -14.1417   20.4809 C   0  0  0  0  0  0  0  0  0  0  0  0
    8.8880  -12.7935   20.2638 C   0  0  0  0  0  0  0  0  0  0  0  0
    7.6387  -12.3072   19.9373 C   0  0  0  0  0  0  0  0  0  0  0  0
    6.5471  -13.1737   19.8329 C   0  0  0  0  0  0  0  0  0  0  0  0
    6.7074  -14.5162   20.0541 C   0  0  0  0  0  0  0  0  0  0  0  0
    7.9450  -14.9887   20.3761 C   0  0  0  0  0  0  0  0  0  0  0  0
    9.8616  -16.5501   22.2906 C   0  0  0  0  0  0  0  0  0  0  0  0
    8.8519  -16.0070   22.8054 O   0  0  0  0  0  0  0  0  0  0  0  0
    9.6188  -20.1781   23.4307 C   0  0  0  0  0  0  0  0  0  0  0  0
   10.4025  -19.4201   24.4782 C   0  0  1  0  0  0  0  0  0  0  0  0
   11.7348  -19.7810   24.3351 O   0  0  0  0  0  0  0  0  0  0  0  0
   10.1726  -17.9509   24.3382 C   0  0  2  0  0  0  0  0  0  0  0  0
   10.6016  -17.4928   23.0214 N   0  0  0  0  0  0  0  0  0  0  0  0
   10.8453  -17.1941   25.4102 C   0  0  0  0  0  0  0  0  0  0  0  0
   11.9702  -16.6504   25.2471 O   0  0  0  0  0  0  0  0  0  0  0  0
    8.7585  -13.4991   28.5036 C   0  0  0  0  0  0  0  0  0  0  0  0
    9.7964  -14.3629   27.7751 C   0  0  1  0  0  0  0  0  0  0  0  0
   10.9688  -13.5108   27.4582 C   0  0  0  0  0  0  0  0  0  0  0  0
   10.0546  -15.6020   28.5503 C   0  0  0  0  0  0  0  0  0  0  0  0
   10.8493  -16.6610   27.8775 C   0  0  2  0  0  0  0  0  0  0  0  0
   10.2110  -17.0713   26.6656 N   0  0  0  0  0  0  0  0  0  0  0  0
   11.1052  -17.8118   28.7946 C   0  0  0  0  0  0  0  0  0  0  0  0
   11.8543  -17.6835   29.7915 O   0  0  0  0  0  0  0  0  0  0  0  0
   10.5225  -19.0456   28.5665 O   0  0  0  0  0  0  0  0  0  0  0  0
  2  1  1  6
  2  3  1  0
  4  9  2  0
  4  3  1  0
  5  4  1  0
  6  7  1  0
  6  5  2  0
  7  8  2  0
  8  9  1  0
 10  2  1  0
 11 10  2  0
 13 15  1  0
 13 12  1  6
 14 13  1  0
 15 16  1  6
 16 10  1  0
 17 24  1  0
 17 15  1  0
 18 17  2  0
 20 19  1  1
 21 20  1  0
 23 22  1  1
 22 20  1  0
 23 24  1  0
 25 23  1  0
 26 25  2  0
 27 25  1  0
M  END
$$$$
