FTL.pdb
     RDKit          3D

 27 27  0  0  1  0  0  0  0  0999 V2000
    7.9318  -16.3868   19.6762 N   0  0  0  0  0  0  0  0  0  0  0  0
    8.0224  -15.6617   20.9070 C   0  0  1  0  0  0  0  0  0  0  0  0
    6.7679  -14.8862   21.2351 C   0  0  0  0  0  0  0  0  0  0  0  0
    7.0269  -14.0860   22.4558 C   0  0  0  0  0  0  0  0  0  0  0  0
    7.6911  -12.8907   22.3377 C   0  0  0  0  0  0  0  0  0  0  0  0
    7.9253  -12.1566   23.4823 C   0  0  0  0  0  0  0  0  0  0  0  0
    7.4934  -12.6268   24.7255 C   0  0  0  0  0  0  0  0  0  0  0  0
    6.8321  -13.8230   24.8196 C   0  0  0  0  0  0  0  0  0  0  0  0
    6.6046  -14.5423   23.6841 C   0  0  0  0  0  0  0  0  0  0  0  0
    8.2981  -16.5951   22.0185 C   0  0  0  0  0  0  0  0  0  0  0  0
    7.6529  -17.6712   22.0912 O   0  0  0  0  0  0  0  0  0  0  0  0
    9.4100  -19.1223   22.4512 C   0  0  0  0  0  0  0  0  0  0  0  0
   10.3186  -18.4278   23.4402 C   0  0  1  0  0  0  0  0  0  0  0  0
   11.4877  -18.1041   22.7665 O   0  0  0  0  0  0  0  0  0  0  0  0
    9.6326  -17.2403   24.0321 C   0  0  2  0  0  0  0  0  0  0  0  0
    9.2680  -16.2908   22.9865 N   0  0  0  0  0  0  0  0  0  0  0  0
   10.4618  -16.5981   25.0686 C   0  0  0  0  0  0  0  0  0  0  0  0
   11.4341  -15.8485   24.7847 O   0  0  0  0  0  0  0  0  0  0  0  0
    8.6399  -13.5268   28.5884 C   0  0  0  0  0  0  0  0  0  0  0  0
    9.5799  -14.2837   27.6410 C   0  0  1  0  0  0  0  0  0  0  0  0
   10.4842  -13.2978   26.9996 C   0  0  0  0  0  0  0  0  0  0  0  0
   10.2181  -15.4140   28.3607 C   0  0  0  0  0  0  0  0  0  0  0  0
   10.9588  -16.4021   27.5356 C   0  0  2  0  0  0  0  0  0  0  0  0
   10.1603  -16.8279   26.4287 N   0  0  0  0  0  0  0  0  0  0  0  0
   11.4314  -17.5527   28.3624 C   0  0  0  0  0  0  0  0  0  0  0  0
   12.2849  -17.3863   29.2654 O   0  0  0  0  0  0  0  0  0  0  0  0
   10.9396  -18.8286   28.1520 O   0  0  0  0  0  0  0  0  0  0  0  0
  2  1  1  6
  2  3  1  0
  4  9  2  0
  4  3  1  0
  5  4  1  0
  6  7  1  0
  6  5  2  0
  7  8  2  0
  8  9  1  0
 10  2  1  0
 11 10  2  0
 13 15  1  0
 13 12  1  6
 14 13  1  0
 15 16  1  6
 16 10  1  0
 17 24  1  0
 17 15  1  0
 18 17  2  0
 20 19  1  1
 21 20  1  0
 23 22  1  1
 22 20  1  0
 23 24  1  0
 25 23  1  0
 26 25  2  0
 27 25  1  0
M  END
$$$$
