FTL.pdb
     RDKit          3D

 27 27  0  0  1  0  0  0  0  0999 V2000
    5.7648  -17.0909   20.7545 N   0  0  0  0  0  0  0  0  0  0  0  0
    6.6881  -16.3380   21.5477 C   0  0  1  0  0  0  0  0  0  0  0  0
    6.3515  -14.8668   21.6178 C   0  0  0  0  0  0  0  0  0  0  0  0
    7.1964  -14.1533   20.6306 C   0  0  0  0  0  0  0  0  0  0  0  0
    6.5928  -13.5316   19.5662 C   0  0  0  0  0  0  0  0  0  0  0  0
    7.3916  -12.8714   18.6551 C   0  0  0  0  0  0  0  0  0  0  0  0
    8.7790  -12.8424   18.8208 C   0  0  0  0  0  0  0  0  0  0  0  0
    9.3600  -13.4700   19.8911 C   0  0  0  0  0  0  0  0  0  0  0  0
    8.5639  -14.1200   20.7868 C   0  0  0  0  0  0  0  0  0  0  0  0
    6.7200  -16.8755   22.9236 C   0  0  0  0  0  0  0  0  0  0  0  0
    5.6721  -17.3635   23.4167 O   0  0  0  0  0  0  0  0  0  0  0  0
    6.4895  -19.2658   24.1014 C   0  0  0  0  0  0  0  0  0  0  0  0
    7.8054  -18.9943   24.7948 C   0  0  1  0  0  0  0  0  0  0  0  0
    8.7996  -19.6018   24.0411 O   0  0  0  0  0  0  0  0  0  0  0  0
    8.0107  -17.5246   24.9642 C   0  0  2  0  0  0  0  0  0  0  0  0
    7.9033  -16.8450   23.6781 N   0  0  0  0  0  0  0  0  0  0  0  0
    9.3007  -17.2307   25.6154 C   0  0  0  0  0  0  0  0  0  0  0  0
   10.3799  -17.1556   24.9692 O   0  0  0  0  0  0  0  0  0  0  0  0
    9.2646  -13.3975   29.2101 C   0  0  0  0  0  0  0  0  0  0  0  0
    9.5136  -14.4450   28.1170 C   0  0  1  0  0  0  0  0  0  0  0  0
   10.0990  -13.7570   26.9401 C   0  0  0  0  0  0  0  0  0  0  0  0
   10.2775  -15.5872   28.6780 C   0  0  0  0  0  0  0  0  0  0  0  0
   10.5077  -16.7466   27.7788 C   0  0  2  0  0  0  0  0  0  0  0  0
    9.3336  -17.0254   27.0119 N   0  0  0  0  0  0  0  0  0  0  0  0
   10.9755  -17.9412   28.5437 C   0  0  0  0  0  0  0  0  0  0  0  0
   10.2352  -18.9430   28.6845 O   0  0  0  0  0  0  0  0  0  0  0  0
   12.2353  -17.9711   29.1146 O   0  0  0  0  0  0  0  0  0  0  0  0
  2  1  1  6
  2  3  1  0
  4  9  2  0
  4  3  1  0
  5  4  1  0
  6  7  1  0
  6  5  2  0
  7  8  2  0
  8  9  1  0
 10  2  1  0
 11 10  2  0
 13 15  1  0
 13 12  1  6
 14 13  1  0
 15 16  1  6
 16 10  1  0
 17 24  1  0
 17 15  1  0
 18 17  2  0
 20 19  1  1
 21 20  1  0
 23 22  1  1
 22 20  1  0
 23 24  1  0
 25 23  1  0
 26 25  2  0
 27 25  1  0
M  END
$$$$
