FTL.pdb
     RDKit          3D

 27 27  0  0  1  0  0  0  0  0999 V2000
    5.4945  -16.7826   24.3274 N   0  0  0  0  0  0  0  0  0  0  0  0
    6.6636  -15.9761   24.5044 C   0  0  1  0  0  0  0  0  0  0  0  0
    6.7318  -15.3157   25.8616 C   0  0  0  0  0  0  0  0  0  0  0  0
    6.4347  -13.8738   25.6878 C   0  0  0  0  0  0  0  0  0  0  0  0
    7.2885  -13.1057   24.9363 C   0  0  0  0  0  0  0  0  0  0  0  0
    6.9995  -11.7652   24.7831 C   0  0  0  0  0  0  0  0  0  0  0  0
    5.8638  -11.2131   25.3821 C   0  0  0  0  0  0  0  0  0  0  0  0
    5.0255  -11.9989   26.1281 C   0  0  0  0  0  0  0  0  0  0  0  0
    5.3179  -13.3224   26.2746 C   0  0  0  0  0  0  0  0  0  0  0  0
    7.8743  -16.8042   24.3270 C   0  0  0  0  0  0  0  0  0  0  0  0
    7.9043  -17.9610   24.8173 O   0  0  0  0  0  0  0  0  0  0  0  0
    9.8939  -17.3565   21.1491 C   0  0  0  0  0  0  0  0  0  0  0  0
   10.8666  -16.9130   22.2184 C   0  0  1  0  0  0  0  0  0  0  0  0
   11.2499  -15.6150   21.9119 O   0  0  0  0  0  0  0  0  0  0  0  0
   10.2459  -17.0392   23.5711 C   0  0  2  0  0  0  0  0  0  0  0  0
    8.9826  -16.3118   23.6203 N   0  0  0  0  0  0  0  0  0  0  0  0
   11.1639  -16.5839   24.6315 C   0  0  0  0  0  0  0  0  0  0  0  0
   11.9432  -15.6064   24.4739 O   0  0  0  0  0  0  0  0  0  0  0  0
   10.3109  -14.6865   29.2552 C   0  0  0  0  0  0  0  0  0  0  0  0
   10.9750  -15.1261   27.9437 C   0  0  1  0  0  0  0  0  0  0  0  0
   11.8973  -14.0492   27.5071 C   0  0  0  0  0  0  0  0  0  0  0  0
   11.5525  -16.4842   28.1016 C   0  0  0  0  0  0  0  0  0  0  0  0
   12.1581  -17.1003   26.8935 C   0  0  2  0  0  0  0  0  0  0  0  0
   11.1742  -17.2637   25.8689 N   0  0  0  0  0  0  0  0  0  0  0  0
   12.8416  -18.3862   27.2256 C   0  0  0  0  0  0  0  0  0  0  0  0
   12.4218  -19.4737   26.7645 O   0  0  0  0  0  0  0  0  0  0  0  0
   13.9531  -18.4084   28.0490 O   0  0  0  0  0  0  0  0  0  0  0  0
  2  1  1  1
  2  3  1  0
  4  9  2  0
  4  3  1  0
  5  4  1  0
  6  7  1  0
  6  5  2  0
  7  8  2  0
  8  9  1  0
 10  2  1  0
 11 10  2  0
 13 15  1  0
 13 12  1  6
 14 13  1  0
 15 16  1  6
 16 10  1  0
 17 24  1  0
 17 15  1  0
 18 17  2  0
 20 19  1  1
 21 20  1  0
 23 22  1  1
 22 20  1  0
 23 24  1  0
 25 23  1  0
 26 25  2  0
 27 25  1  0
M  END
$$$$
