FTL.pdb
     RDKit          3D

 27 27  0  0  1  0  0  0  0  0999 V2000
    7.0518  -17.4534   20.2916 N   0  0  0  0  0  0  0  0  0  0  0  0
    7.9019  -16.6359   21.1027 C   0  0  1  0  0  0  0  0  0  0  0  0
    7.1763  -15.4782   21.7475 C   0  0  0  0  0  0  0  0  0  0  0  0
    7.4966  -14.2498   20.9819 C   0  0  0  0  0  0  0  0  0  0  0  0
    6.5654  -13.7521   20.1050 C   0  0  0  0  0  0  0  0  0  0  0  0
    6.8772  -12.6082   19.3991 C   0  0  0  0  0  0  0  0  0  0  0  0
    8.1124  -11.9798   19.5796 C   0  0  0  0  0  0  0  0  0  0  0  0
    9.0268  -12.4944   20.4605 C   0  0  0  0  0  0  0  0  0  0  0  0
    8.7112  -13.6249   21.1541 C   0  0  0  0  0  0  0  0  0  0  0  0
    8.5145  -17.4548   22.1690 C   0  0  0  0  0  0  0  0  0  0  0  0
    7.7998  -18.2707   22.8039 O   0  0  0  0  0  0  0  0  0  0  0  0
   11.2815  -19.7683   22.1112 C   0  0  0  0  0  0  0  0  0  0  0  0
   11.6592  -18.8007   23.2099 C   0  0  1  0  0  0  0  0  0  0  0  0
   12.7029  -18.0220   22.7303 O   0  0  0  0  0  0  0  0  0  0  0  0
   10.4707  -17.9986   23.6282 C   0  0  2  0  0  0  0  0  0  0  0  0
    9.8785  -17.3290   22.4755 N   0  0  0  0  0  0  0  0  0  0  0  0
   10.8166  -17.0311   24.6859 C   0  0  0  0  0  0  0  0  0  0  0  0
   11.1603  -15.8464   24.4291 O   0  0  0  0  0  0  0  0  0  0  0  0
   11.1869  -13.6768   28.1966 C   0  0  0  0  0  0  0  0  0  0  0  0
    9.9122  -14.5287   28.2581 C   0  0  1  0  0  0  0  0  0  0  0  0
    8.7491  -13.6151   28.3751 C   0  0  0  0  0  0  0  0  0  0  0  0
    9.8979  -15.4964   27.1328 C   0  0  0  0  0  0  0  0  0  0  0  0
   10.9118  -16.5810   27.1678 C   0  0  2  0  0  0  0  0  0  0  0  0
   10.7627  -17.4416   26.0358 N   0  0  0  0  0  0  0  0  0  0  0  0
   10.8557  -17.3340   28.4566 C   0  0  0  0  0  0  0  0  0  0  0  0
    9.9439  -18.1662   28.6742 O   0  0  0  0  0  0  0  0  0  0  0  0
   11.8074  -17.1314   29.4401 O   0  0  0  0  0  0  0  0  0  0  0  0
  2  1  1  1
  2  3  1  0
  4  9  2  0
  4  3  1  0
  5  4  1  0
  6  7  1  0
  6  5  2  0
  7  8  2  0
  8  9  1  0
 10  2  1  0
 11 10  2  0
 13 15  1  0
 13 12  1  6
 14 13  1  0
 15 16  1  6
 16 10  1  0
 17 24  1  0
 17 15  1  0
 18 17  2  0
 20 19  1  6
 21 20  1  0
 23 22  1  1
 22 20  1  0
 23 24  1  0
 25 23  1  0
 26 25  2  0
 27 25  1  0
M  END
$$$$
