FTL.pdb
     RDKit          3D

 27 27  0  0  1  0  0  0  0  0999 V2000
    7.7256  -15.9020   20.2388 N   0  0  0  0  0  0  0  0  0  0  0  0
    7.8628  -15.3333   21.5451 C   0  0  1  0  0  0  0  0  0  0  0  0
    6.5378  -15.0469   22.2123 C   0  0  0  0  0  0  0  0  0  0  0  0
    6.8084  -14.3622   23.4990 C   0  0  0  0  0  0  0  0  0  0  0  0
    6.3563  -14.9326   24.6627 C   0  0  0  0  0  0  0  0  0  0  0  0
    6.6152  -14.2842   25.8528 C   0  0  0  0  0  0  0  0  0  0  0  0
    7.3207  -13.0777   25.8625 C   0  0  0  0  0  0  0  0  0  0  0  0
    7.7625  -12.5267   24.6886 C   0  0  0  0  0  0  0  0  0  0  0  0
    7.5027  -13.1735   23.5170 C   0  0  0  0  0  0  0  0  0  0  0  0
    8.6331  -16.2494   22.4113 C   0  0  0  0  0  0  0  0  0  0  0  0
    8.0591  -17.2490   22.9121 O   0  0  0  0  0  0  0  0  0  0  0  0
   12.7800  -18.3447   23.6372 C   0  0  0  0  0  0  0  0  0  0  0  0
   12.0141  -17.3423   22.8038 C   0  0  1  0  0  0  0  0  0  0  0  0
   11.7578  -17.9387   21.5773 O   0  0  0  0  0  0  0  0  0  0  0  0
   10.7757  -16.9098   23.5180 C   0  0  2  0  0  0  0  0  0  0  0  0
    9.9910  -16.0129   22.6768 N   0  0  0  0  0  0  0  0  0  0  0  0
   11.0908  -16.2832   24.8151 C   0  0  0  0  0  0  0  0  0  0  0  0
   11.9660  -15.3846   24.9342 O   0  0  0  0  0  0  0  0  0  0  0  0
    8.7487  -13.1135   27.7869 C   0  0  0  0  0  0  0  0  0  0  0  0
    9.9437  -13.9639   27.3363 C   0  0  1  0  0  0  0  0  0  0  0  0
   11.1887  -13.2383   27.6894 C   0  0  0  0  0  0  0  0  0  0  0  0
    9.8012  -15.3478   27.8535 C   0  0  0  0  0  0  0  0  0  0  0  0
   10.7381  -16.3657   27.3132 C   0  0  2  0  0  0  0  0  0  0  0  0
   10.3902  -16.7011   25.9675 N   0  0  0  0  0  0  0  0  0  0  0  0
   10.7969  -17.5701   28.1946 C   0  0  0  0  0  0  0  0  0  0  0  0
   11.2990  -17.5021   29.3412 O   0  0  0  0  0  0  0  0  0  0  0  0
   10.2996  -18.7884   27.7675 O   0  0  0  0  0  0  0  0  0  0  0  0
  2  1  1  6
  2  3  1  0
  4  9  2  0
  4  3  1  0
  5  4  1  0
  6  7  1  0
  6  5  2  0
  7  8  2  0
  8  9  1  0
 10  2  1  0
 11 10  2  0
 13 15  1  0
 13 12  1  1
 14 13  1  0
 15 16  1  6
 16 10  1  0
 17 24  1  0
 17 15  1  0
 18 17  2  0
 20 19  1  1
 21 20  1  0
 23 22  1  1
 22 20  1  0
 23 24  1  0
 25 23  1  0
 26 25  2  0
 27 25  1  0
M  END
$$$$
