FTL.pdb
     RDKit          3D

 27 27  0  0  1  0  0  0  0  0999 V2000
    7.6918  -18.1116   19.2508 N   0  0  0  0  0  0  0  0  0  0  0  0
    7.7941  -16.9715   20.1101 C   0  0  1  0  0  0  0  0  0  0  0  0
    6.6028  -16.0468   20.0172 C   0  0  0  0  0  0  0  0  0  0  0  0
    7.0472  -14.6836   20.3935 C   0  0  0  0  0  0  0  0  0  0  0  0
    7.7319  -13.9305   19.4727 C   0  0  0  0  0  0  0  0  0  0  0  0
    8.1394  -12.6635   19.8368 C   0  0  0  0  0  0  0  0  0  0  0  0
    7.8574  -12.1688   21.1131 C   0  0  0  0  0  0  0  0  0  0  0  0
    7.1725  -12.9383   22.0162 C   0  0  0  0  0  0  0  0  0  0  0  0
    6.7732  -14.1890   21.6488 C   0  0  0  0  0  0  0  0  0  0  0  0
    7.9338  -17.4131   21.5130 C   0  0  0  0  0  0  0  0  0  0  0  0
    7.4546  -18.5225   21.8582 O   0  0  0  0  0  0  0  0  0  0  0  0
    8.8069  -19.3851   23.0048 C   0  0  0  0  0  0  0  0  0  0  0  0
    9.5469  -18.3598   23.8338 C   0  0  1  0  0  0  0  0  0  0  0  0
   10.8329  -18.2675   23.3205 O   0  0  0  0  0  0  0  0  0  0  0  0
    8.8153  -17.0577   23.8256 C   0  0  2  0  0  0  0  0  0  0  0  0
    8.5927  -16.6086   22.4558 N   0  0  0  0  0  0  0  0  0  0  0  0
    9.5263  -16.0333   24.6127 C   0  0  0  0  0  0  0  0  0  0  0  0
   10.6266  -15.5430   24.2428 O   0  0  0  0  0  0  0  0  0  0  0  0
    7.4026  -13.3816   24.9673 C   0  0  0  0  0  0  0  0  0  0  0  0
    8.1387  -12.6447   26.0940 C   0  0  1  0  0  0  0  0  0  0  0  0
    7.2887  -11.5139   26.5413 C   0  0  0  0  0  0  0  0  0  0  0  0
    8.5710  -13.6137   27.1318 C   0  0  0  0  0  0  0  0  0  0  0  0
    9.5595  -14.6424   26.7189 C   0  0  2  0  0  0  0  0  0  0  0  0
    8.9589  -15.5823   25.8244 N   0  0  0  0  0  0  0  0  0  0  0  0
   10.1743  -15.3102   27.9050 C   0  0  0  0  0  0  0  0  0  0  0  0
    9.8083  -16.4563   28.2574 O   0  0  0  0  0  0  0  0  0  0  0  0
   11.1612  -14.6812   28.6427 O   0  0  0  0  0  0  0  0  0  0  0  0
  2  1  1  6
  2  3  1  0
  4  9  2  0
  4  3  1  0
  5  4  1  0
  6  7  1  0
  6  5  2  0
  7  8  2  0
  8  9  1  0
 10  2  1  0
 11 10  2  0
 13 15  1  0
 13 12  1  6
 14 13  1  0
 15 16  1  6
 16 10  1  0
 17 24  1  0
 17 15  1  0
 18 17  2  0
 20 19  1  6
 21 20  1  0
 23 22  1  1
 22 20  1  0
 23 24  1  0
 25 23  1  0
 26 25  2  0
 27 25  1  0
M  END
$$$$
