FTL.pdb
     RDKit          3D

 27 27  0  0  1  0  0  0  0  0999 V2000
    7.9597  -16.1928   20.3777 N   0  0  0  0  0  0  0  0  0  0  0  0
    8.0244  -15.5969   21.6775 C   0  0  1  0  0  0  0  0  0  0  0  0
    6.6765  -15.1553   22.1980 C   0  0  0  0  0  0  0  0  0  0  0  0
    6.8985  -14.3248   23.4057 C   0  0  0  0  0  0  0  0  0  0  0  0
    7.5412  -13.1193   23.2737 C   0  0  0  0  0  0  0  0  0  0  0  0
    7.7411  -12.3569   24.4063 C   0  0  0  0  0  0  0  0  0  0  0  0
    7.2967  -12.8096   25.6516 C   0  0  0  0  0  0  0  0  0  0  0  0
    6.6573  -14.0164   25.7598 C   0  0  0  0  0  0  0  0  0  0  0  0
    6.4637  -14.7637   24.6360 C   0  0  0  0  0  0  0  0  0  0  0  0
    8.6045  -16.5565   22.6395 C   0  0  0  0  0  0  0  0  0  0  0  0
    7.8568  -17.4056   23.1867 O   0  0  0  0  0  0  0  0  0  0  0  0
   12.1733  -19.2627   24.2851 C   0  0  0  0  0  0  0  0  0  0  0  0
   11.6755  -18.2126   23.3179 C   0  0  1  0  0  0  0  0  0  0  0  0
   11.3066  -18.8698   22.1526 O   0  0  0  0  0  0  0  0  0  0  0  0
   10.5609  -17.4286   23.9293 C   0  0  2  0  0  0  0  0  0  0  0  0
    9.9744  -16.5266   22.9444 N   0  0  0  0  0  0  0  0  0  0  0  0
   11.0109  -16.6916   25.1246 C   0  0  0  0  0  0  0  0  0  0  0  0
   11.9707  -15.8758   25.0914 O   0  0  0  0  0  0  0  0  0  0  0  0
    9.1127  -13.2506   28.2014 C   0  0  0  0  0  0  0  0  0  0  0  0
   10.1526  -14.1911   27.5782 C   0  0  1  0  0  0  0  0  0  0  0  0
   11.4509  -13.4753   27.5222 C   0  0  0  0  0  0  0  0  0  0  0  0
   10.1344  -15.4988   28.2801 C   0  0  0  0  0  0  0  0  0  0  0  0
   10.8845  -16.6119   27.6444 C   0  0  2  0  0  0  0  0  0  0  0  0
   10.3465  -16.9037   26.3522 N   0  0  0  0  0  0  0  0  0  0  0  0
   10.9147  -17.8177   28.5253 C   0  0  0  0  0  0  0  0  0  0  0  0
   11.6455  -17.8505   29.5433 O   0  0  0  0  0  0  0  0  0  0  0  0
   10.1380  -18.9263   28.2396 O   0  0  0  0  0  0  0  0  0  0  0  0
  2  1  1  6
  2  3  1  0
  4  9  2  0
  4  3  1  0
  5  4  1  0
  6  7  1  0
  6  5  2  0
  7  8  2  0
  8  9  1  0
 10  2  1  0
 11 10  2  0
 13 15  1  0
 13 12  1  1
 14 13  1  0
 15 16  1  6
 16 10  1  0
 17 24  1  0
 17 15  1  0
 18 17  2  0
 20 19  1  1
 21 20  1  0
 23 22  1  1
 22 20  1  0
 23 24  1  0
 25 23  1  0
 26 25  2  0
 27 25  1  0
M  END
$$$$
