FTL.pdb
     RDKit          3D

 27 27  0  0  1  0  0  0  0  0999 V2000
    5.8806  -18.0136   22.4476 N   0  0  0  0  0  0  0  0  0  0  0  0
    6.7073  -17.1780   23.2645 C   0  0  1  0  0  0  0  0  0  0  0  0
    6.2229  -17.0739   24.6918 C   0  0  0  0  0  0  0  0  0  0  0  0
    6.5253  -15.7081   25.1825 C   0  0  0  0  0  0  0  0  0  0  0  0
    6.1440  -15.3598   26.4541 C   0  0  0  0  0  0  0  0  0  0  0  0
    6.4319  -14.0853   26.8975 C   0  0  0  0  0  0  0  0  0  0  0  0
    7.0954  -13.1795   26.0653 C   0  0  0  0  0  0  0  0  0  0  0  0
    7.4667  -13.5490   24.7994 C   0  0  0  0  0  0  0  0  0  0  0  0
    7.1786  -14.8100   24.3688 C   0  0  0  0  0  0  0  0  0  0  0  0
    8.0891  -17.7008   23.2776 C   0  0  0  0  0  0  0  0  0  0  0  0
    8.3885  -18.6638   22.5276 O   0  0  0  0  0  0  0  0  0  0  0  0
   10.0755  -17.4604   21.4897 C   0  0  0  0  0  0  0  0  0  0  0  0
   10.9308  -16.8785   22.5924 C   0  0  1  0  0  0  0  0  0  0  0  0
   10.8541  -15.4970   22.4857 O   0  0  0  0  0  0  0  0  0  0  0  0
   10.4849  -17.3915   23.9225 C   0  0  2  0  0  0  0  0  0  0  0  0
    9.0622  -17.1339   24.1154 N   0  0  0  0  0  0  0  0  0  0  0  0
   11.2838  -16.8148   25.0196 C   0  0  0  0  0  0  0  0  0  0  0  0
   12.5436  -16.8403   25.0211 O   0  0  0  0  0  0  0  0  0  0  0  0
    9.5683  -12.7011   28.2355 C   0  0  0  0  0  0  0  0  0  0  0  0
   10.2971  -13.7416   27.3749 C   0  0  1  0  0  0  0  0  0  0  0  0
   11.4957  -13.0973   26.7840 C   0  0  0  0  0  0  0  0  0  0  0  0
   10.5175  -14.9810   28.1613 C   0  0  0  0  0  0  0  0  0  0  0  0
   11.1246  -16.1313   27.4443 C   0  0  2  0  0  0  0  0  0  0  0  0
   10.6188  -16.2117   26.1093 N   0  0  0  0  0  0  0  0  0  0  0  0
   10.9256  -17.4056   28.1976 C   0  0  0  0  0  0  0  0  0  0  0  0
   10.1203  -18.2744   27.7874 O   0  0  0  0  0  0  0  0  0  0  0  0
   11.6241  -17.6578   29.3648 O   0  0  0  0  0  0  0  0  0  0  0  0
  2  1  1  6
  2  3  1  0
  4  9  2  0
  4  3  1  0
  5  4  1  0
  6  7  1  0
  6  5  2  0
  7  8  2  0
  8  9  1  0
 10  2  1  0
 11 10  2  0
 13 15  1  0
 13 12  1  6
 14 13  1  0
 15 16  1  1
 16 10  1  0
 17 24  1  0
 17 15  1  0
 18 17  2  0
 20 19  1  1
 21 20  1  0
 23 22  1  1
 22 20  1  0
 23 24  1  0
 25 23  1  0
 26 25  2  0
 27 25  1  0
M  END
$$$$
