FTL.pdb
     RDKit          3D

 27 27  0  0  1  0  0  0  0  0999 V2000
    6.2541  -17.0734   22.2191 N   0  0  0  0  0  0  0  0  0  0  0  0
    7.1471  -16.5727   23.2195 C   0  0  1  0  0  0  0  0  0  0  0  0
    6.5182  -16.4881   24.5906 C   0  0  0  0  0  0  0  0  0  0  0  0
    6.5849  -15.0775   25.0418 C   0  0  0  0  0  0  0  0  0  0  0  0
    7.2105  -14.1536   24.2427 C   0  0  0  0  0  0  0  0  0  0  0  0
    7.2651  -12.8445   24.6753 C   0  0  0  0  0  0  0  0  0  0  0  0
    6.6949  -12.4787   25.8977 C   0  0  0  0  0  0  0  0  0  0  0  0
    6.0753  -13.4180   26.6793 C   0  0  0  0  0  0  0  0  0  0  0  0
    6.0256  -14.7093   26.2447 C   0  0  0  0  0  0  0  0  0  0  0  0
    8.3393  -17.4410   23.3057 C   0  0  0  0  0  0  0  0  0  0  0  0
    8.4481  -18.4148   22.5186 O   0  0  0  0  0  0  0  0  0  0  0  0
   10.1920  -17.4864   21.6171 C   0  0  0  0  0  0  0  0  0  0  0  0
   11.1904  -17.1010   22.6852 C   0  0  1  0  0  0  0  0  0  0  0  0
   11.3497  -15.7240   22.6206 O   0  0  0  0  0  0  0  0  0  0  0  0
   10.7304  -17.5779   24.0239 C   0  0  2  0  0  0  0  0  0  0  0  0
    9.3436  -17.1879   24.2531 N   0  0  0  0  0  0  0  0  0  0  0  0
   11.6068  -17.0864   25.1031 C   0  0  0  0  0  0  0  0  0  0  0  0
   12.8537  -17.2679   25.0936 O   0  0  0  0  0  0  0  0  0  0  0  0
    9.5920  -13.3011   28.6744 C   0  0  0  0  0  0  0  0  0  0  0  0
   10.0717  -14.3396   27.6519 C   0  0  1  0  0  0  0  0  0  0  0  0
   10.3592  -13.6370   26.3772 C   0  0  0  0  0  0  0  0  0  0  0  0
   11.1684  -15.1521   28.2351 C   0  0  0  0  0  0  0  0  0  0  0  0
   11.5126  -16.4157   27.5348 C   0  0  2  0  0  0  0  0  0  0  0  0
   11.0339  -16.3872   26.1878 N   0  0  0  0  0  0  0  0  0  0  0  0
   11.0090  -17.6054   28.2844 C   0  0  0  0  0  0  0  0  0  0  0  0
   10.1235  -18.3449   27.7942 O   0  0  0  0  0  0  0  0  0  0  0  0
   11.5069  -17.9197   29.5363 O   0  0  0  0  0  0  0  0  0  0  0  0
  2  1  1  6
  2  3  1  0
  4  9  2  0
  4  3  1  0
  5  4  1  0
  6  7  1  0
  6  5  2  0
  7  8  2  0
  8  9  1  0
 10  2  1  0
 11 10  2  0
 13 15  1  0
 13 12  1  6
 14 13  1  0
 15 16  1  1
 16 10  1  0
 17 24  1  0
 17 15  1  0
 18 17  2  0
 20 19  1  1
 21 20  1  0
 23 22  1  1
 22 20  1  0
 23 24  1  0
 25 23  1  0
 26 25  2  0
 27 25  1  0
M  END
$$$$
