FTL.pdb
     RDKit          3D

 27 27  0  0  1  0  0  0  0  0999 V2000
    6.5905  -16.6348   21.4340 N   0  0  0  0  0  0  0  0  0  0  0  0
    7.1615  -15.9498   22.5536 C   0  0  1  0  0  0  0  0  0  0  0  0
    6.1606  -15.6586   23.6473 C   0  0  0  0  0  0  0  0  0  0  0  0
    6.6405  -14.4810   24.4093 C   0  0  0  0  0  0  0  0  0  0  0  0
    6.2513  -14.3327   25.7171 C   0  0  0  0  0  0  0  0  0  0  0  0
    6.7054  -13.2319   26.4141 C   0  0  0  0  0  0  0  0  0  0  0  0
    7.5402  -12.2973   25.7951 C   0  0  0  0  0  0  0  0  0  0  0  0
    7.9160  -12.4657   24.4885 C   0  0  0  0  0  0  0  0  0  0  0  0
    7.4631  -13.5560   23.8068 C   0  0  0  0  0  0  0  0  0  0  0  0
    8.2583  -16.7564   23.1274 C   0  0  0  0  0  0  0  0  0  0  0  0
    7.9878  -17.8420   23.6997 O   0  0  0  0  0  0  0  0  0  0  0  0
   11.3249  -17.9037   21.4144 C   0  0  0  0  0  0  0  0  0  0  0  0
   11.8090  -17.2291   22.6781 C   0  0  1  0  0  0  0  0  0  0  0  0
   12.3828  -16.0220   22.3050 O   0  0  0  0  0  0  0  0  0  0  0  0
   10.6836  -17.0710   23.6474 C   0  0  2  0  0  0  0  0  0  0  0  0
    9.5901  -16.3219   23.0385 N   0  0  0  0  0  0  0  0  0  0  0  0
   11.1336  -16.4334   24.8986 C   0  0  0  0  0  0  0  0  0  0  0  0
   11.9881  -15.5075   24.9133 O   0  0  0  0  0  0  0  0  0  0  0  0
    8.5200  -13.8766   28.2990 C   0  0  0  0  0  0  0  0  0  0  0  0
    9.7582  -14.4311   27.5824 C   0  0  1  0  0  0  0  0  0  0  0  0
   10.7908  -13.3663   27.5496 C   0  0  0  0  0  0  0  0  0  0  0  0
   10.1495  -15.7301   28.1843 C   0  0  0  0  0  0  0  0  0  0  0  0
   11.1149  -16.5602   27.4195 C   0  0  2  0  0  0  0  0  0  0  0  0
   10.5913  -16.8722   26.1261 N   0  0  0  0  0  0  0  0  0  0  0  0
   11.4973  -17.7868   28.1811 C   0  0  0  0  0  0  0  0  0  0  0  0
   12.1359  -17.7013   29.2565 O   0  0  0  0  0  0  0  0  0  0  0  0
   11.1567  -19.0455   27.7189 O   0  0  0  0  0  0  0  0  0  0  0  0
  2  1  1  6
  2  3  1  0
  4  9  2  0
  4  3  1  0
  5  4  1  0
  6  7  1  0
  6  5  2  0
  7  8  2  0
  8  9  1  0
 10  2  1  0
 11 10  2  0
 13 15  1  0
 13 12  1  6
 14 13  1  0
 15 16  1  6
 16 10  1  0
 17 24  1  0
 17 15  1  0
 18 17  2  0
 20 19  1  1
 21 20  1  0
 23 22  1  1
 22 20  1  0
 23 24  1  0
 25 23  1  0
 26 25  2  0
 27 25  1  0
M  END
$$$$
