CVW.pdb
     RDKit          3D

 28 29  0  0  1  0  0  0  0  0999 V2000
    7.2749  -19.7765   19.5920 N   0  0  0  0  0  0  0  0  0  0  0  0
    6.9741  -18.9031   20.6846 C   0  0  1  0  0  0  0  0  0  0  0  0
    7.0427  -19.6986   21.9712 C   0  0  0  0  0  0  0  0  0  0  0  0
    6.1972  -21.2791   21.7921 S   0  0  0  0  0  0  0  0  0  0  0  0
    7.9550  -17.7838   20.7535 C   0  0  0  0  0  0  0  0  0  0  0  0
    9.1123  -17.9100   20.2953 O   0  0  0  0  0  0  0  0  0  0  0  0
    6.6398  -14.1147   20.1267 C   0  0  0  0  0  0  0  0  0  0  0  0
    7.5208  -14.1410   21.3380 C   0  0  2  0  0  0  0  0  0  0  0  0
    8.3822  -12.8913   21.3218 C   0  0  0  0  0  0  0  0  0  0  0  0
    8.4126  -15.3809   21.2471 C   0  0  2  0  0  0  0  0  0  0  0  0
    7.5703  -16.5532   21.3491 N   0  0  0  0  0  0  0  0  0  0  0  0
    9.3451  -15.3624   22.3840 C   0  0  0  0  0  0  0  0  0  0  0  0
   10.3087  -14.5328   22.3585 O   0  0  0  0  0  0  0  0  0  0  0  0
    9.2563  -16.1939   23.5048 N   0  0  0  0  0  0  0  0  0  0  0  0
   10.2257  -16.1793   24.6233 C   0  0  1  0  0  0  0  0  0  0  0  0
    9.8699  -14.9564   25.4070 C   0  0  0  0  0  0  0  0  0  0  0  0
    8.4677  -14.7305   25.7251 C   0  0  0  0  0  0  0  0  0  0  0  0
    7.4227  -15.6646   25.7312 C   0  0  0  0  0  0  0  0  0  0  0  0
    6.2935  -15.0213   26.0451 N   0  0  0  0  0  0  0  0  0  0  0  0
    6.5113  -13.7268   26.2493 C   0  0  0  0  0  0  0  0  0  0  0  0
    5.6505  -12.6956   26.6065 C   0  0  0  0  0  0  0  0  0  0  0  0
    6.1745  -11.4304   26.7716 C   0  0  0  0  0  0  0  0  0  0  0  0
    7.5219  -11.2090   26.5832 C   0  0  0  0  0  0  0  0  0  0  0  0
    8.3458  -12.2437   26.2308 C   0  0  0  0  0  0  0  0  0  0  0  0
    7.8652  -13.5274   26.0537 C   0  0  0  0  0  0  0  0  0  0  0  0
    9.9991  -17.4060   25.3838 C   0  0  0  0  0  0  0  0  0  0  0  0
    9.0253  -18.1428   25.0961 O   0  0  0  0  0  0  0  0  0  0  0  0
   10.8096  -17.8319   26.4381 O   0  0  0  0  0  0  0  0  0  0  0  0
  2  5  1  0
  2  1  1  6
  3  2  1  0
  4  3  1  0
  5  6  2  0
  8  7  1  6
  8 10  1  0
  8  9  1  0
 10 11  1  1
 11  5  1  0
 12 13  2  0
 12 10  1  0
 14 12  1  0
 15 26  1  0
 15 14  1  0
 15 16  1  1
 17 16  1  0
 18 17  2  0
 19 20  1  0
 19 18  1  0
 20 25  2  0
 21 20  1  0
 21 22  2  0
 22 23  1  0
 23 24  2  0
 25 17  1  0
 25 24  1  0
 26 28  1  0
 27 26  2  0
M  END
$$$$
