CVW.pdb
     RDKit          3D

 28 29  0  0  1  0  0  0  0  0999 V2000
    6.1504  -18.5869   18.7643 N   0  0  0  0  0  0  0  0  0  0  0  0
    6.1377  -17.9806   20.0602 C   0  0  1  0  0  0  0  0  0  0  0  0
    6.1089  -19.0761   21.1051 C   0  0  0  0  0  0  0  0  0  0  0  0
    6.1676  -18.3789   22.7650 S   0  0  0  0  0  0  0  0  0  0  0  0
    7.3542  -17.1456   20.2661 C   0  0  0  0  0  0  0  0  0  0  0  0
    8.4919  -17.5796   19.9787 O   0  0  0  0  0  0  0  0  0  0  0  0
    6.9022  -13.0646   21.3340 C   0  0  0  0  0  0  0  0  0  0  0  0
    8.0339  -13.5833   20.5007 C   0  0  2  0  0  0  0  0  0  0  0  0
    7.5655  -13.6500   19.0584 C   0  0  0  0  0  0  0  0  0  0  0  0
    8.3786  -14.9898   20.9945 C   0  0  2  0  0  0  0  0  0  0  0  0
    7.2207  -15.8353   20.7976 N   0  0  0  0  0  0  0  0  0  0  0  0
    8.6753  -14.9136   22.4328 C   0  0  0  0  0  0  0  0  0  0  0  0
    8.2304  -13.9179   23.0870 O   0  0  0  0  0  0  0  0  0  0  0  0
    9.4163  -15.8597   23.1477 N   0  0  0  0  0  0  0  0  0  0  0  0
   10.0692  -15.5869   24.4479 C   0  0  1  0  0  0  0  0  0  0  0  0
    9.1173  -16.1337   25.4633 C   0  0  0  0  0  0  0  0  0  0  0  0
    7.8833  -15.4021   25.7094 C   0  0  0  0  0  0  0  0  0  0  0  0
    6.5681  -15.8226   25.4688 C   0  0  0  0  0  0  0  0  0  0  0  0
    5.7454  -14.8242   25.8063 N   0  0  0  0  0  0  0  0  0  0  0  0
    6.4178  -13.7700   26.2550 C   0  0  0  0  0  0  0  0  0  0  0  0
    5.9841  -12.5358   26.7248 C   0  0  0  0  0  0  0  0  0  0  0  0
    6.9294  -11.6272   27.1531 C   0  0  0  0  0  0  0  0  0  0  0  0
    8.2689  -11.9495   27.1102 C   0  0  0  0  0  0  0  0  0  0  0  0
    8.6670  -13.1724   26.6417 C   0  0  0  0  0  0  0  0  0  0  0  0
    7.7557  -14.1138   26.2015 C   0  0  0  0  0  0  0  0  0  0  0  0
   11.3372  -16.3126   24.4349 C   0  0  0  0  0  0  0  0  0  0  0  0
   11.6136  -17.0603   23.4661 O   0  0  0  0  0  0  0  0  0  0  0  0
   12.2922  -16.2338   25.4505 O   0  0  0  0  0  0  0  0  0  0  0  0
  2  5  1  0
  2  1  1  6
  3  2  1  0
  4  3  1  0
  5  6  2  0
  8  7  1  1
  8 10  1  0
  8  9  1  0
 10 11  1  1
 11  5  1  0
 12 13  2  0
 12 10  1  0
 14 12  1  0
 15 26  1  0
 15 14  1  0
 15 16  1  1
 17 16  1  0
 18 17  2  0
 19 20  1  0
 19 18  1  0
 20 25  2  0
 21 20  1  0
 21 22  2  0
 22 23  1  0
 23 24  2  0
 25 17  1  0
 25 24  1  0
 26 28  1  0
 27 26  2  0
M  END
$$$$
