CVW.pdb
     RDKit          3D

 28 29  0  0  1  0  0  0  0  0999 V2000
    6.7397  -14.4856   18.6287 N   0  0  0  0  0  0  0  0  0  0  0  0
    7.7680  -14.2375   19.5921 C   0  0  1  0  0  0  0  0  0  0  0  0
    7.3586  -13.0515   20.4399 C   0  0  0  0  0  0  0  0  0  0  0  0
    8.6150  -12.6856   21.6778 S   0  0  0  0  0  0  0  0  0  0  0  0
    7.9627  -15.4211   20.4756 C   0  0  0  0  0  0  0  0  0  0  0  0
    6.9871  -16.0872   20.8876 O   0  0  0  0  0  0  0  0  0  0  0  0
   10.1934  -18.2865   19.8396 C   0  0  0  0  0  0  0  0  0  0  0  0
   10.6349  -17.7691   21.1743 C   0  0  2  0  0  0  0  0  0  0  0  0
   10.8878  -18.9595   22.0814 C   0  0  0  0  0  0  0  0  0  0  0  0
    9.5017  -16.9167   21.7492 C   0  0  2  0  0  0  0  0  0  0  0  0
    9.2775  -15.7998   20.8567 N   0  0  0  0  0  0  0  0  0  0  0  0
    9.9300  -16.4030   23.0588 C   0  0  0  0  0  0  0  0  0  0  0  0
   10.8104  -15.4857   23.0867 O   0  0  0  0  0  0  0  0  0  0  0  0
    9.4410  -16.8476   24.2911 N   0  0  0  0  0  0  0  0  0  0  0  0
    9.9326  -16.3602   25.5995 C   0  0  1  0  0  0  0  0  0  0  0  0
    8.7049  -16.2744   26.4489 C   0  0  0  0  0  0  0  0  0  0  0  0
    7.6333  -15.3893   26.0169 C   0  0  0  0  0  0  0  0  0  0  0  0
    6.4986  -15.7131   25.2605 C   0  0  0  0  0  0  0  0  0  0  0  0
    5.7983  -14.5915   25.0626 N   0  0  0  0  0  0  0  0  0  0  0  0
    6.3844  -13.5448   25.6332 C   0  0  0  0  0  0  0  0  0  0  0  0
    6.0129  -12.2070   25.6992 C   0  0  0  0  0  0  0  0  0  0  0  0
    6.8242  -11.3337   26.3934 C   0  0  0  0  0  0  0  0  0  0  0  0
    7.9731  -11.7913   27.0022 C   0  0  0  0  0  0  0  0  0  0  0  0
    8.3144  -13.1143   26.9198 C   0  0  0  0  0  0  0  0  0  0  0  0
    7.5327  -14.0252   26.2346 C   0  0  0  0  0  0  0  0  0  0  0  0
   10.8722  -17.3659   26.0897 C   0  0  0  0  0  0  0  0  0  0  0  0
   10.8944  -18.5034   25.5610 O   0  0  0  0  0  0  0  0  0  0  0  0
   11.7738  -17.1489   27.1337 O   0  0  0  0  0  0  0  0  0  0  0  0
  2  5  1  0
  2  1  1  6
  3  2  1  0
  4  3  1  0
  5  6  2  0
  8  7  1  6
  8 10  1  0
  8  9  1  0
 10 11  1  6
 11  5  1  0
 12 13  2  0
 12 10  1  0
 14 12  1  0
 15 26  1  0
 15 14  1  0
 15 16  1  1
 17 16  1  0
 18 17  2  0
 19 20  1  0
 19 18  1  0
 20 25  2  0
 21 20  1  0
 21 22  2  0
 22 23  1  0
 23 24  2  0
 25 17  1  0
 25 24  1  0
 26 28  1  0
 27 26  2  0
M  END
$$$$
