CVW.pdb
     RDKit          3D

 28 29  0  0  1  0  0  0  0  0999 V2000
    7.9240  -18.9131   17.9731 N   0  0  0  0  0  0  0  0  0  0  0  0
    7.6559  -18.4868   19.3123 C   0  0  1  0  0  0  0  0  0  0  0  0
    7.9909  -19.6224   20.2562 C   0  0  0  0  0  0  0  0  0  0  0  0
    7.6123  -19.1723   21.9588 S   0  0  0  0  0  0  0  0  0  0  0  0
    8.4850  -17.3008   19.6666 C   0  0  0  0  0  0  0  0  0  0  0  0
    9.6704  -17.2022   19.2788 O   0  0  0  0  0  0  0  0  0  0  0  0
    6.8901  -13.7048   19.5488 C   0  0  0  0  0  0  0  0  0  0  0  0
    7.5932  -13.9080   20.8559 C   0  0  2  0  0  0  0  0  0  0  0  0
    8.2970  -12.6131   21.2190 C   0  0  0  0  0  0  0  0  0  0  0  0
    8.6275  -15.0198   20.6685 C   0  0  2  0  0  0  0  0  0  0  0  0
    7.9208  -16.2649   20.4577 N   0  0  0  0  0  0  0  0  0  0  0  0
    9.4210  -15.1239   21.9022 C   0  0  0  0  0  0  0  0  0  0  0  0
   10.3619  -14.2879   22.0848 O   0  0  0  0  0  0  0  0  0  0  0  0
    9.2217  -16.0799   22.9030 N   0  0  0  0  0  0  0  0  0  0  0  0
    9.9916  -16.1263   24.1664 C   0  0  1  0  0  0  0  0  0  0  0  0
    9.6266  -14.8585   24.8704 C   0  0  0  0  0  0  0  0  0  0  0  0
    8.2609  -14.7106   25.3514 C   0  0  0  0  0  0  0  0  0  0  0  0
    7.2393  -15.6704   25.3574 C   0  0  0  0  0  0  0  0  0  0  0  0
    6.1371  -15.0994   25.8539 N   0  0  0  0  0  0  0  0  0  0  0  0
    6.3512  -13.8293   26.1795 C   0  0  0  0  0  0  0  0  0  0  0  0
    5.5132  -12.8698   26.7354 C   0  0  0  0  0  0  0  0  0  0  0  0
    6.0283  -11.6153   26.9882 C   0  0  0  0  0  0  0  0  0  0  0  0
    7.3447  -11.3347   26.6913 C   0  0  0  0  0  0  0  0  0  0  0  0
    8.1465  -12.2993   26.1435 C   0  0  0  0  0  0  0  0  0  0  0  0
    7.6738  -13.5695   25.8723 C   0  0  0  0  0  0  0  0  0  0  0  0
    9.5308  -17.3096   24.8890 C   0  0  0  0  0  0  0  0  0  0  0  0
    8.5490  -17.9584   24.4539 O   0  0  0  0  0  0  0  0  0  0  0  0
   10.1191  -17.7862   26.0622 O   0  0  0  0  0  0  0  0  0  0  0  0
  2  5  1  0
  2  1  1  6
  3  2  1  0
  4  3  1  0
  5  6  2  0
  8  7  1  6
  8 10  1  0
  8  9  1  0
 10 11  1  1
 11  5  1  0
 12 13  2  0
 12 10  1  0
 14 12  1  0
 15 26  1  0
 15 14  1  0
 15 16  1  1
 17 16  1  0
 18 17  2  0
 19 20  1  0
 19 18  1  0
 20 25  2  0
 21 20  1  0
 21 22  2  0
 22 23  1  0
 23 24  2  0
 25 17  1  0
 25 24  1  0
 26 28  1  0
 27 26  2  0
M  END
$$$$
