CVW.pdb
     RDKit          3D

 28 29  0  0  1  0  0  0  0  0999 V2000
   10.2150  -16.0576   17.7521 N   0  0  0  0  0  0  0  0  0  0  0  0
   10.4382  -14.7193   18.2064 C   0  0  1  0  0  0  0  0  0  0  0  0
    9.8626  -13.7610   17.1851 C   0  0  0  0  0  0  0  0  0  0  0  0
    8.0622  -13.7695   17.2428 S   0  0  0  0  0  0  0  0  0  0  0  0
    9.7720  -14.4875   19.5186 C   0  0  0  0  0  0  0  0  0  0  0  0
    9.8769  -13.3909   20.1116 O   0  0  0  0  0  0  0  0  0  0  0  0
    7.2496  -17.4777   20.8498 C   0  0  0  0  0  0  0  0  0  0  0  0
    6.9631  -16.0694   21.2723 C   0  0  2  0  0  0  0  0  0  0  0  0
    6.0789  -15.4310   20.2166 C   0  0  0  0  0  0  0  0  0  0  0  0
    8.2943  -15.3190   21.3496 C   0  0  2  0  0  0  0  0  0  0  0  0
    9.0051  -15.5284   20.1066 N   0  0  0  0  0  0  0  0  0  0  0  0
    9.0820  -15.8901   22.4523 C   0  0  0  0  0  0  0  0  0  0  0  0
   10.0689  -16.6381   22.1623 O   0  0  0  0  0  0  0  0  0  0  0  0
    8.8302  -15.6741   23.8107 N   0  0  0  0  0  0  0  0  0  0  0  0
    9.7523  -16.0771   24.8962 C   0  0  1  0  0  0  0  0  0  0  0  0
    9.4076  -15.1683   26.0327 C   0  0  0  0  0  0  0  0  0  0  0  0
    8.0281  -14.7218   26.1587 C   0  0  0  0  0  0  0  0  0  0  0  0
    6.8606  -15.4936   26.0811 C   0  0  0  0  0  0  0  0  0  0  0  0
    5.8125  -14.6746   26.2160 N   0  0  0  0  0  0  0  0  0  0  0  0
    6.1979  -13.4137   26.3785 C   0  0  0  0  0  0  0  0  0  0  0  0
    5.4667  -12.2471   26.5700 C   0  0  0  0  0  0  0  0  0  0  0  0
    6.1527  -11.0617   26.7340 C   0  0  0  0  0  0  0  0  0  0  0  0
    7.5308  -11.0497   26.7063 C   0  0  0  0  0  0  0  0  0  0  0  0
    8.2246  -12.2140   26.5151 C   0  0  0  0  0  0  0  0  0  0  0  0
    7.5798  -13.4247   26.3456 C   0  0  0  0  0  0  0  0  0  0  0  0
    9.4513  -17.4746   25.1978 C   0  0  0  0  0  0  0  0  0  0  0  0
   10.2091  -18.1213   25.9604 O   0  0  0  0  0  0  0  0  0  0  0  0
    8.3507  -18.1643   24.6854 O   0  0  0  0  0  0  0  0  0  0  0  0
  2  5  1  0
  2  1  1  6
  3  2  1  0
  4  3  1  0
  5  6  2  0
  8  7  1  6
  8 10  1  0
  8  9  1  0
 10 11  1  6
 11  5  1  0
 12 13  2  0
 12 10  1  0
 14 12  1  0
 15 26  1  0
 15 14  1  0
 15 16  1  1
 17 16  1  0
 18 17  2  0
 19 20  1  0
 19 18  1  0
 20 25  2  0
 21 20  1  0
 21 22  2  0
 22 23  1  0
 23 24  2  0
 25 17  1  0
 25 24  1  0
 26 28  1  0
 27 26  2  0
M  END
$$$$
