CVW.pdb
     RDKit          3D

 28 29  0  0  1  0  0  0  0  0999 V2000
   11.2445  -16.3967   17.1167 N   0  0  0  0  0  0  0  0  0  0  0  0
   10.5352  -17.0177   18.1930 C   0  0  1  0  0  0  0  0  0  0  0  0
   11.2858  -18.2652   18.6092 C   0  0  0  0  0  0  0  0  0  0  0  0
   10.4709  -19.0681   20.0006 S   0  0  0  0  0  0  0  0  0  0  0  0
   10.4358  -16.0989   19.3616 C   0  0  0  0  0  0  0  0  0  0  0  0
   11.4129  -15.4067   19.7241 O   0  0  0  0  0  0  0  0  0  0  0  0
    6.7447  -15.8672   21.2448 C   0  0  0  0  0  0  0  0  0  0  0  0
    7.6260  -14.6569   21.2941 C   0  0  2  0  0  0  0  0  0  0  0  0
    7.3064  -13.7914   20.0887 C   0  0  0  0  0  0  0  0  0  0  0  0
    9.0799  -15.1274   21.2176 C   0  0  2  0  0  0  0  0  0  0  0  0
    9.2118  -16.0071   20.0762 N   0  0  0  0  0  0  0  0  0  0  0  0
    9.3846  -15.8839   22.4413 C   0  0  0  0  0  0  0  0  0  0  0  0
    9.6098  -17.1312   22.3372 O   0  0  0  0  0  0  0  0  0  0  0  0
    9.4474  -15.3352   23.7260 N   0  0  0  0  0  0  0  0  0  0  0  0
    9.8359  -16.0995   24.9327 C   0  0  1  0  0  0  0  0  0  0  0  0
    9.5681  -15.1631   26.0674 C   0  0  0  0  0  0  0  0  0  0  0  0
    8.2208  -14.6325   26.2145 C   0  0  0  0  0  0  0  0  0  0  0  0
    7.0063  -15.3284   26.1404 C   0  0  0  0  0  0  0  0  0  0  0  0
    6.0133  -14.4470   26.2973 N   0  0  0  0  0  0  0  0  0  0  0  0
    6.4789  -13.2150   26.4713 C   0  0  0  0  0  0  0  0  0  0  0  0
    5.8246  -12.0075   26.6855 C   0  0  0  0  0  0  0  0  0  0  0  0
    6.5856  -10.8698   26.8566 C   0  0  0  0  0  0  0  0  0  0  0  0
    7.9613  -10.9439   26.8136 C   0  0  0  0  0  0  0  0  0  0  0  0
    8.5784  -12.1469   26.6000 C   0  0  0  0  0  0  0  0  0  0  0  0
    7.8570  -13.3124   26.4226 C   0  0  0  0  0  0  0  0  0  0  0  0
    8.9708  -17.2762   24.9739 C   0  0  0  0  0  0  0  0  0  0  0  0
    7.8955  -17.2779   24.3277 O   0  0  0  0  0  0  0  0  0  0  0  0
    9.2604  -18.4329   25.7005 O   0  0  0  0  0  0  0  0  0  0  0  0
  2  5  1  0
  2  1  1  6
  3  2  1  0
  4  3  1  0
  5  6  2  0
  8  7  1  6
  8 10  1  0
  8  9  1  0
 10 11  1  6
 11  5  1  0
 12 13  2  0
 12 10  1  0
 14 12  1  0
 15 26  1  0
 15 14  1  0
 15 16  1  1
 17 16  1  0
 18 17  2  0
 19 20  1  0
 19 18  1  0
 20 25  2  0
 21 20  1  0
 21 22  2  0
 22 23  1  0
 23 24  2  0
 25 17  1  0
 25 24  1  0
 26 28  1  0
 27 26  2  0
M  END
$$$$
