CVW.pdb
     RDKit          3D

 28 29  0  0  1  0  0  0  0  0999 V2000
    6.1223  -20.3272   22.0458 N   0  0  0  0  0  0  0  0  0  0  0  0
    6.3281  -19.2076   22.9126 C   0  0  1  0  0  0  0  0  0  0  0  0
    6.8782  -19.7122   24.2300 C   0  0  0  0  0  0  0  0  0  0  0  0
    5.5455  -20.0400   25.3966 S   0  0  0  0  0  0  0  0  0  0  0  0
    7.2996  -18.2481   22.3168 C   0  0  0  0  0  0  0  0  0  0  0  0
    8.2443  -18.6467   21.6000 O   0  0  0  0  0  0  0  0  0  0  0  0
    6.1587  -14.8285   20.7225 C   0  0  0  0  0  0  0  0  0  0  0  0
    7.2244  -14.5894   21.7478 C   0  0  2  0  0  0  0  0  0  0  0  0
    8.1453  -13.5015   21.2259 C   0  0  0  0  0  0  0  0  0  0  0  0
    8.0123  -15.8893   21.9226 C   0  0  2  0  0  0  0  0  0  0  0  0
    7.1512  -16.8578   22.5665 N   0  0  0  0  0  0  0  0  0  0  0  0
    9.1627  -15.6170   22.7972 C   0  0  0  0  0  0  0  0  0  0  0  0
   10.1169  -14.9145   22.3352 O   0  0  0  0  0  0  0  0  0  0  0  0
    9.2933  -16.0739   24.1123 N   0  0  0  0  0  0  0  0  0  0  0  0
   10.4743  -15.8108   24.9650 C   0  0  1  0  0  0  0  0  0  0  0  0
    9.9016  -15.2699   26.2360 C   0  0  0  0  0  0  0  0  0  0  0  0
    8.4705  -15.0096   26.2864 C   0  0  0  0  0  0  0  0  0  0  0  0
    7.4210  -15.9323   26.1765 C   0  0  0  0  0  0  0  0  0  0  0  0
    6.2682  -15.2584   26.2407 N   0  0  0  0  0  0  0  0  0  0  0  0
    6.4742  -13.9541   26.3863 C   0  0  0  0  0  0  0  0  0  0  0  0
    5.5861  -12.8922   26.5122 C   0  0  0  0  0  0  0  0  0  0  0  0
    6.0998  -11.6224   26.6751 C   0  0  0  0  0  0  0  0  0  0  0  0
    7.4637  -11.4265   26.7102 C   0  0  0  0  0  0  0  0  0  0  0  0
    8.3145  -12.4912   26.5829 C   0  0  0  0  0  0  0  0  0  0  0  0
    7.8453  -13.7806   26.4171 C   0  0  0  0  0  0  0  0  0  0  0  0
   11.1370  -17.0977   25.1633 C   0  0  0  0  0  0  0  0  0  0  0  0
   12.2283  -17.1444   25.7805 O   0  0  0  0  0  0  0  0  0  0  0  0
   10.6312  -18.3153   24.7035 O   0  0  0  0  0  0  0  0  0  0  0  0
  2  5  1  0
  2  1  1  6
  3  2  1  0
  4  3  1  0
  5  6  2  0
  8  7  1  6
  8 10  1  0
  8  9  1  0
 10 11  1  1
 11  5  1  0
 12 13  2  0
 12 10  1  0
 14 12  1  0
 15 26  1  0
 15 14  1  0
 15 16  1  1
 17 16  1  0
 18 17  2  0
 19 20  1  0
 19 18  1  0
 20 25  2  0
 21 20  1  0
 21 22  2  0
 22 23  1  0
 23 24  2  0
 25 17  1  0
 25 24  1  0
 26 28  1  0
 27 26  2  0
M  END
$$$$
