CVW.pdb
     RDKit          3D

 28 29  0  0  1  0  0  0  0  0999 V2000
    7.3163  -18.9939   18.4721 N   0  0  0  0  0  0  0  0  0  0  0  0
    7.2150  -18.4653   19.7977 C   0  0  1  0  0  0  0  0  0  0  0  0
    7.6230  -19.5436   20.7795 C   0  0  0  0  0  0  0  0  0  0  0  0
    7.3855  -18.9873   22.4762 S   0  0  0  0  0  0  0  0  0  0  0  0
    8.1125  -17.2887   19.9687 C   0  0  0  0  0  0  0  0  0  0  0  0
    9.2274  -17.2390   19.4031 O   0  0  0  0  0  0  0  0  0  0  0  0
    6.7018  -13.7641   19.6150 C   0  0  0  0  0  0  0  0  0  0  0  0
    7.4627  -13.8068   20.9047 C   0  0  2  0  0  0  0  0  0  0  0  0
    8.2232  -12.5008   21.0468 C   0  0  0  0  0  0  0  0  0  0  0  0
    8.4518  -14.9719   20.8316 C   0  0  2  0  0  0  0  0  0  0  0  0
    7.6962  -16.2053   20.7874 N   0  0  0  0  0  0  0  0  0  0  0  0
    9.2718  -14.9577   22.0523 C   0  0  0  0  0  0  0  0  0  0  0  0
   10.1434  -14.0405   22.1810 O   0  0  0  0  0  0  0  0  0  0  0  0
    9.1688  -15.8829   23.0957 N   0  0  0  0  0  0  0  0  0  0  0  0
    9.9646  -15.8146   24.3420 C   0  0  1  0  0  0  0  0  0  0  0  0
    9.0031  -16.2061   25.4183 C   0  0  0  0  0  0  0  0  0  0  0  0
    7.7736  -15.4386   25.5510 C   0  0  0  0  0  0  0  0  0  0  0  0
    6.4565  -15.8793   25.3626 C   0  0  0  0  0  0  0  0  0  0  0  0
    5.6398  -14.8377   25.5513 N   0  0  0  0  0  0  0  0  0  0  0  0
    6.3180  -13.7358   25.8526 C   0  0  0  0  0  0  0  0  0  0  0  0
    5.8914  -12.4450   26.1420 C   0  0  0  0  0  0  0  0  0  0  0  0
    6.8414  -11.4920   26.4454 C   0  0  0  0  0  0  0  0  0  0  0  0
    8.1785  -11.8265   26.4573 C   0  0  0  0  0  0  0  0  0  0  0  0
    8.5695  -13.1058   26.1674 C   0  0  0  0  0  0  0  0  0  0  0  0
    7.6534  -14.0931   25.8571 C   0  0  0  0  0  0  0  0  0  0  0  0
   11.0494  -16.7821   24.1941 C   0  0  0  0  0  0  0  0  0  0  0  0
   11.0322  -17.5911   23.2353 O   0  0  0  0  0  0  0  0  0  0  0  0
   12.1358  -16.8762   25.0663 O   0  0  0  0  0  0  0  0  0  0  0  0
  2  5  1  0
  2  1  1  6
  3  2  1  0
  4  3  1  0
  5  6  2  0
  8  7  1  6
  8 10  1  0
  8  9  1  0
 10 11  1  1
 11  5  1  0
 12 13  2  0
 12 10  1  0
 14 12  1  0
 15 26  1  0
 15 14  1  0
 15 16  1  1
 17 16  1  0
 18 17  2  0
 19 20  1  0
 19 18  1  0
 20 25  2  0
 21 20  1  0
 21 22  2  0
 22 23  1  0
 23 24  2  0
 25 17  1  0
 25 24  1  0
 26 28  1  0
 27 26  2  0
M  END
$$$$
