CVW.pdb
     RDKit          3D

 28 29  0  0  1  0  0  0  0  0999 V2000
    6.5048  -18.4242   18.6327 N   0  0  0  0  0  0  0  0  0  0  0  0
    6.4592  -17.7873   19.9131 C   0  0  1  0  0  0  0  0  0  0  0  0
    6.4410  -18.8577   20.9840 C   0  0  0  0  0  0  0  0  0  0  0  0
    6.3195  -18.1210   22.6233 S   0  0  0  0  0  0  0  0  0  0  0  0
    7.6527  -16.9189   20.1154 C   0  0  0  0  0  0  0  0  0  0  0  0
    8.7941  -17.2995   19.7725 O   0  0  0  0  0  0  0  0  0  0  0  0
    7.1829  -12.8967   21.4687 C   0  0  0  0  0  0  0  0  0  0  0  0
    8.3225  -13.3741   20.6218 C   0  0  2  0  0  0  0  0  0  0  0  0
    7.8793  -13.3370   19.1705 C   0  0  0  0  0  0  0  0  0  0  0  0
    8.6400  -14.8154   21.0252 C   0  0  2  0  0  0  0  0  0  0  0  0
    7.4925  -15.6379   20.7075 N   0  0  0  0  0  0  0  0  0  0  0  0
    8.8639  -14.8488   22.4783 C   0  0  0  0  0  0  0  0  0  0  0  0
    8.2610  -13.9923   23.1997 O   0  0  0  0  0  0  0  0  0  0  0  0
    9.6965  -15.7577   23.1385 N   0  0  0  0  0  0  0  0  0  0  0  0
   10.2248  -15.5515   24.5058 C   0  0  1  0  0  0  0  0  0  0  0  0
    9.1993  -16.1747   25.3981 C   0  0  0  0  0  0  0  0  0  0  0  0
    7.9441  -15.4657   25.5989 C   0  0  0  0  0  0  0  0  0  0  0  0
    6.6412  -15.9487   25.4155 C   0  0  0  0  0  0  0  0  0  0  0  0
    5.7890  -14.9526   25.6781 N   0  0  0  0  0  0  0  0  0  0  0  0
    6.4304  -13.8418   26.0240 C   0  0  0  0  0  0  0  0  0  0  0  0
    5.9605  -12.5865   26.3922 C   0  0  0  0  0  0  0  0  0  0  0  0
    6.8794  -11.6134   26.7261 C   0  0  0  0  0  0  0  0  0  0  0  0
    8.2285  -11.8938   26.6907 C   0  0  0  0  0  0  0  0  0  0  0  0
    8.6624  -13.1389   26.3234 C   0  0  0  0  0  0  0  0  0  0  0  0
    7.7785  -14.1445   25.9800 C   0  0  0  0  0  0  0  0  0  0  0  0
   11.5053  -16.2525   24.5651 C   0  0  0  0  0  0  0  0  0  0  0  0
   12.1936  -16.1986   25.6127 O   0  0  0  0  0  0  0  0  0  0  0  0
   12.0358  -16.9997   23.5115 O   0  0  0  0  0  0  0  0  0  0  0  0
  2  5  1  0
  2  1  1  6
  3  2  1  0
  4  3  1  0
  5  6  2  0
  8  7  1  1
  8 10  1  0
  8  9  1  0
 10 11  1  1
 11  5  1  0
 12 13  2  0
 12 10  1  0
 14 12  1  0
 15 26  1  0
 15 14  1  0
 15 16  1  1
 17 16  1  0
 18 17  2  0
 19 20  1  0
 19 18  1  0
 20 25  2  0
 21 20  1  0
 21 22  2  0
 22 23  1  0
 23 24  2  0
 25 17  1  0
 25 24  1  0
 26 28  1  0
 27 26  2  0
M  END
$$$$
