CVW.pdb
     RDKit          3D

 28 29  0  0  1  0  0  0  0  0999 V2000
    6.8249  -16.0398   19.4814 N   0  0  0  0  0  0  0  0  0  0  0  0
    7.5547  -15.3921   20.5278 C   0  0  1  0  0  0  0  0  0  0  0  0
    6.5851  -14.5819   21.3622 C   0  0  0  0  0  0  0  0  0  0  0  0
    7.4550  -13.6706   22.6497 S   0  0  0  0  0  0  0  0  0  0  0  0
    8.2281  -16.3931   21.4018 C   0  0  0  0  0  0  0  0  0  0  0  0
    7.6369  -17.4335   21.7668 O   0  0  0  0  0  0  0  0  0  0  0  0
   11.5588  -17.7893   20.7140 C   0  0  0  0  0  0  0  0  0  0  0  0
   11.6674  -17.3046   22.1273 C   0  0  2  0  0  0  0  0  0  0  0  0
   12.3876  -18.3680   22.9364 C   0  0  0  0  0  0  0  0  0  0  0  0
   10.2504  -17.1161   22.6727 C   0  0  2  0  0  0  0  0  0  0  0  0
    9.5632  -16.1628   21.8281 N   0  0  0  0  0  0  0  0  0  0  0  0
   10.3493  -16.5649   24.0324 C   0  0  0  0  0  0  0  0  0  0  0  0
   10.8560  -15.4075   24.1772 O   0  0  0  0  0  0  0  0  0  0  0  0
    9.9256  -17.2193   25.1934 N   0  0  0  0  0  0  0  0  0  0  0  0
   10.1146  -16.6827   26.5599 C   0  0  1  0  0  0  0  0  0  0  0  0
    8.7379  -16.6587   27.1431 C   0  0  0  0  0  0  0  0  0  0  0  0
    7.7375  -15.8168   26.5036 C   0  0  0  0  0  0  0  0  0  0  0  0
    6.6290  -16.2178   25.7454 C   0  0  0  0  0  0  0  0  0  0  0  0
    5.9989  -15.1185   25.3188 N   0  0  0  0  0  0  0  0  0  0  0  0
    6.6073  -14.0148   25.7389 C   0  0  0  0  0  0  0  0  0  0  0  0
    6.3023  -12.6712   25.5554 C   0  0  0  0  0  0  0  0  0  0  0  0
    7.1199  -11.7265   26.1400 C   0  0  0  0  0  0  0  0  0  0  0  0
    8.2101  -12.1205   26.8858 C   0  0  0  0  0  0  0  0  0  0  0  0
    8.4866  -13.4511   27.0489 C   0  0  0  0  0  0  0  0  0  0  0  0
    7.6961  -14.4326   26.4813 C   0  0  0  0  0  0  0  0  0  0  0  0
   10.9912  -17.6217   27.2560 C   0  0  0  0  0  0  0  0  0  0  0  0
   11.2958  -18.7083   26.7077 O   0  0  0  0  0  0  0  0  0  0  0  0
   11.5308  -17.3932   28.5234 O   0  0  0  0  0  0  0  0  0  0  0  0
  2  5  1  0
  2  1  1  6
  3  2  1  0
  4  3  1  0
  5  6  2  0
  8  7  1  6
  8 10  1  0
  8  9  1  0
 10 11  1  6
 11  5  1  0
 12 13  2  0
 12 10  1  0
 14 12  1  0
 15 26  1  0
 15 14  1  0
 15 16  1  1
 17 16  1  0
 18 17  2  0
 19 20  1  0
 19 18  1  0
 20 25  2  0
 21 20  1  0
 21 22  2  0
 22 23  1  0
 23 24  2  0
 25 17  1  0
 25 24  1  0
 26 28  1  0
 27 26  2  0
M  END
$$$$
