CVW.pdb
     RDKit          3D

 28 29  0  0  1  0  0  0  0  0999 V2000
    7.1106  -19.3977   19.2781 N   0  0  0  0  0  0  0  0  0  0  0  0
    7.0783  -18.7300   20.5430 C   0  0  1  0  0  0  0  0  0  0  0  0
    7.6128  -19.6732   21.6002 C   0  0  0  0  0  0  0  0  0  0  0  0
    7.5263  -18.9188   23.2337 S   0  0  0  0  0  0  0  0  0  0  0  0
    7.9228  -17.5030   20.5159 C   0  0  0  0  0  0  0  0  0  0  0  0
    8.9715  -17.4555   19.8353 O   0  0  0  0  0  0  0  0  0  0  0  0
    6.4710  -14.0207   19.9681 C   0  0  0  0  0  0  0  0  0  0  0  0
    7.2776  -13.9694   21.2294 C   0  0  2  0  0  0  0  0  0  0  0  0
    8.0294  -12.6510   21.2551 C   0  0  0  0  0  0  0  0  0  0  0  0
    8.2751  -15.1292   21.2001 C   0  0  2  0  0  0  0  0  0  0  0  0
    7.5314  -16.3683   21.2752 N   0  0  0  0  0  0  0  0  0  0  0  0
    9.1429  -15.0208   22.3824 C   0  0  0  0  0  0  0  0  0  0  0  0
    9.9785  -14.0632   22.4296 O   0  0  0  0  0  0  0  0  0  0  0  0
    9.1229  -15.8967   23.4722 N   0  0  0  0  0  0  0  0  0  0  0  0
    9.9599  -15.7300   24.6816 C   0  0  1  0  0  0  0  0  0  0  0  0
    9.0217  -15.9775   25.8195 C   0  0  0  0  0  0  0  0  0  0  0  0
    7.7839  -15.2133   25.8655 C   0  0  0  0  0  0  0  0  0  0  0  0
    6.4792  -15.6688   25.6308 C   0  0  0  0  0  0  0  0  0  0  0  0
    5.6498  -14.6261   25.7424 N   0  0  0  0  0  0  0  0  0  0  0  0
    6.3079  -13.5098   26.0352 C   0  0  0  0  0  0  0  0  0  0  0  0
    5.8622  -12.2120   26.2568 C   0  0  0  0  0  0  0  0  0  0  0  0
    6.7924  -11.2428   26.5700 C   0  0  0  0  0  0  0  0  0  0  0  0
    8.1289  -11.5685   26.6577 C   0  0  0  0  0  0  0  0  0  0  0  0
    8.5390  -12.8550   26.4335 C   0  0  0  0  0  0  0  0  0  0  0  0
    7.6431  -13.8585   26.1162 C   0  0  0  0  0  0  0  0  0  0  0  0
   11.0089  -16.7439   24.6023 C   0  0  0  0  0  0  0  0  0  0  0  0
   10.9497  -17.6290   23.7151 O   0  0  0  0  0  0  0  0  0  0  0  0
   12.1045  -16.8029   25.4659 O   0  0  0  0  0  0  0  0  0  0  0  0
  2  5  1  0
  2  1  1  6
  3  2  1  0
  4  3  1  0
  5  6  2  0
  8  7  1  6
  8 10  1  0
  8  9  1  0
 10 11  1  1
 11  5  1  0
 12 13  2  0
 12 10  1  0
 14 12  1  0
 15 26  1  0
 15 14  1  0
 15 16  1  1
 17 16  1  0
 18 17  2  0
 19 20  1  0
 19 18  1  0
 20 25  2  0
 21 20  1  0
 21 22  2  0
 22 23  1  0
 23 24  2  0
 25 17  1  0
 25 24  1  0
 26 28  1  0
 27 26  2  0
M  END
$$$$
