CVW.pdb
     RDKit          3D

 28 29  0  0  1  0  0  0  0  0999 V2000
    6.3704  -19.3792   20.2808 N   0  0  0  0  0  0  0  0  0  0  0  0
    6.1761  -18.3316   21.2358 C   0  0  1  0  0  0  0  0  0  0  0  0
    6.2194  -18.9316   22.6254 C   0  0  0  0  0  0  0  0  0  0  0  0
    4.5734  -19.4349   23.1568 S   0  0  0  0  0  0  0  0  0  0  0  0
    7.2469  -17.3025   21.1181 C   0  0  0  0  0  0  0  0  0  0  0  0
    8.4147  -17.6188   20.7997 O   0  0  0  0  0  0  0  0  0  0  0  0
    6.6841  -13.7232   19.5976 C   0  0  0  0  0  0  0  0  0  0  0  0
    7.2928  -13.5892   20.9599 C   0  0  2  0  0  0  0  0  0  0  0  0
    8.3397  -12.4916   20.9026 C   0  0  0  0  0  0  0  0  0  0  0  0
    7.9618  -14.9195   21.3116 C   0  0  2  0  0  0  0  0  0  0  0  0
    6.9373  -15.9398   21.3718 N   0  0  0  0  0  0  0  0  0  0  0  0
    8.5822  -14.7869   22.6383 C   0  0  0  0  0  0  0  0  0  0  0  0
    8.2600  -13.7877   23.3561 O   0  0  0  0  0  0  0  0  0  0  0  0
    9.5093  -15.6822   23.1807 N   0  0  0  0  0  0  0  0  0  0  0  0
   10.3583  -15.3818   24.3555 C   0  0  1  0  0  0  0  0  0  0  0  0
    9.5947  -15.9345   25.5164 C   0  0  0  0  0  0  0  0  0  0  0  0
    8.2866  -15.3671   25.8087 C   0  0  0  0  0  0  0  0  0  0  0  0
    7.0355  -15.9931   25.7222 C   0  0  0  0  0  0  0  0  0  0  0  0
    6.0994  -15.0952   26.0462 N   0  0  0  0  0  0  0  0  0  0  0  0
    6.6370  -13.9171   26.3429 C   0  0  0  0  0  0  0  0  0  0  0  0
    6.0587  -12.7184   26.7437 C   0  0  0  0  0  0  0  0  0  0  0  0
    6.8857  -11.6465   27.0081 C   0  0  0  0  0  0  0  0  0  0  0  0
    8.2514  -11.7759   26.8736 C   0  0  0  0  0  0  0  0  0  0  0  0
    8.7929  -12.9686   26.4763 C   0  0  0  0  0  0  0  0  0  0  0  0
    8.0035  -14.0690   26.1999 C   0  0  0  0  0  0  0  0  0  0  0  0
   11.6221  -16.0834   24.1435 C   0  0  0  0  0  0  0  0  0  0  0  0
   11.7197  -16.9167   23.2107 O   0  0  0  0  0  0  0  0  0  0  0  0
   12.7631  -15.8899   24.9248 O   0  0  0  0  0  0  0  0  0  0  0  0
  2  5  1  0
  2  1  1  6
  3  2  1  0
  4  3  1  0
  5  6  2  0
  8  7  1  6
  8 10  1  0
  8  9  1  0
 10 11  1  1
 11  5  1  0
 12 13  2  0
 12 10  1  0
 14 12  1  0
 15 26  1  0
 15 14  1  0
 15 16  1  1
 17 16  1  0
 18 17  2  0
 19 20  1  0
 19 18  1  0
 20 25  2  0
 21 20  1  0
 21 22  2  0
 22 23  1  0
 23 24  2  0
 25 17  1  0
 25 24  1  0
 26 28  1  0
 27 26  2  0
M  END
$$$$
