CVW.pdb
     RDKit          3D

 28 29  0  0  1  0  0  0  0  0999 V2000
    7.0645  -14.5461   18.4305 N   0  0  0  0  0  0  0  0  0  0  0  0
    8.2074  -14.4458   19.2854 C   0  0  1  0  0  0  0  0  0  0  0  0
    8.1521  -13.1178   20.0109 C   0  0  0  0  0  0  0  0  0  0  0  0
    8.6168  -11.7683   18.9120 S   0  0  0  0  0  0  0  0  0  0  0  0
    8.2164  -15.5468   20.2889 C   0  0  0  0  0  0  0  0  0  0  0  0
    7.1531  -15.9655   20.7981 O   0  0  0  0  0  0  0  0  0  0  0  0
    9.6432  -18.8613   19.8753 C   0  0  0  0  0  0  0  0  0  0  0  0
   10.3407  -18.3350   21.0921 C   0  0  2  0  0  0  0  0  0  0  0  0
   10.4255  -19.4580   22.1097 C   0  0  0  0  0  0  0  0  0  0  0  0
    9.5006  -17.1893   21.6601 C   0  0  2  0  0  0  0  0  0  0  0  0
    9.4523  -16.1311   20.6742 N   0  0  0  0  0  0  0  0  0  0  0  0
   10.1672  -16.6848   22.8699 C   0  0  0  0  0  0  0  0  0  0  0  0
   11.3368  -16.1988   22.7543 O   0  0  0  0  0  0  0  0  0  0  0  0
    9.6115  -16.6965   24.1531 N   0  0  0  0  0  0  0  0  0  0  0  0
   10.3383  -16.2756   25.3720 C   0  0  1  0  0  0  0  0  0  0  0  0
    9.8522  -14.8858   25.6329 C   0  0  0  0  0  0  0  0  0  0  0  0
    8.4151  -14.6585   25.6713 C   0  0  0  0  0  0  0  0  0  0  0  0
    7.3880  -15.5982   25.5078 C   0  0  0  0  0  0  0  0  0  0  0  0
    6.2197  -14.9523   25.5811 N   0  0  0  0  0  0  0  0  0  0  0  0
    6.3948  -13.6509   25.7823 C   0  0  0  0  0  0  0  0  0  0  0  0
    5.4817  -12.6143   25.9369 C   0  0  0  0  0  0  0  0  0  0  0  0
    5.9648  -11.3415   26.1589 C   0  0  0  0  0  0  0  0  0  0  0  0
    7.3234  -11.1180   26.2233 C   0  0  0  0  0  0  0  0  0  0  0  0
    8.1992  -12.1581   26.0666 C   0  0  0  0  0  0  0  0  0  0  0  0
    7.7611  -13.4495   25.8416 C   0  0  0  0  0  0  0  0  0  0  0  0
    9.9455  -17.2040   26.4296 C   0  0  0  0  0  0  0  0  0  0  0  0
    8.9888  -17.9927   26.2383 O   0  0  0  0  0  0  0  0  0  0  0  0
   10.5742  -17.2809   27.6741 O   0  0  0  0  0  0  0  0  0  0  0  0
  2  5  1  0
  2  1  1  6
  3  2  1  0
  4  3  1  0
  5  6  2  0
  8  7  1  6
  8 10  1  0
  8  9  1  0
 10 11  1  6
 11  5  1  0
 12 13  2  0
 12 10  1  0
 14 12  1  0
 15 26  1  0
 15 14  1  0
 15 16  1  1
 17 16  1  0
 18 17  2  0
 19 20  1  0
 19 18  1  0
 20 25  2  0
 21 20  1  0
 21 22  2  0
 22 23  1  0
 23 24  2  0
 25 17  1  0
 25 24  1  0
 26 28  1  0
 27 26  2  0
M  END
$$$$
