CVW.pdb
     RDKit          3D

 28 29  0  0  1  0  0  0  0  0999 V2000
    6.3953  -19.3200   19.5184 N   0  0  0  0  0  0  0  0  0  0  0  0
    6.1497  -18.4169   20.6007 C   0  0  1  0  0  0  0  0  0  0  0  0
    6.0557  -19.2158   21.8836 C   0  0  0  0  0  0  0  0  0  0  0  0
    5.7208  -18.1365   23.2864 S   0  0  0  0  0  0  0  0  0  0  0  0
    7.2558  -17.4268   20.7257 C   0  0  0  0  0  0  0  0  0  0  0  0
    8.4532  -17.7872   20.6837 O   0  0  0  0  0  0  0  0  0  0  0  0
    6.9876  -13.7785   19.2440 C   0  0  0  0  0  0  0  0  0  0  0  0
    7.4364  -13.6993   20.6710 C   0  0  2  0  0  0  0  0  0  0  0  0
    8.5344  -12.6554   20.7628 C   0  0  0  0  0  0  0  0  0  0  0  0
    7.9941  -15.0677   21.0677 C   0  0  2  0  0  0  0  0  0  0  0  0
    6.9464  -16.0511   20.8955 N   0  0  0  0  0  0  0  0  0  0  0  0
    8.3727  -15.0171   22.4878 C   0  0  0  0  0  0  0  0  0  0  0  0
    7.5846  -14.4374   23.3004 O   0  0  0  0  0  0  0  0  0  0  0  0
    9.5440  -15.5620   23.0231 N   0  0  0  0  0  0  0  0  0  0  0  0
   10.0652  -15.2384   24.3703 C   0  0  1  0  0  0  0  0  0  0  0  0
    9.1332  -15.9384   25.3070 C   0  0  0  0  0  0  0  0  0  0  0  0
    7.8607  -15.3006   25.6113 C   0  0  0  0  0  0  0  0  0  0  0  0
    6.5708  -15.8181   25.4302 C   0  0  0  0  0  0  0  0  0  0  0  0
    5.6924  -14.8836   25.8077 N   0  0  0  0  0  0  0  0  0  0  0  0
    6.3043  -13.7818   26.2277 C   0  0  0  0  0  0  0  0  0  0  0  0
    5.8019  -12.5830   26.7201 C   0  0  0  0  0  0  0  0  0  0  0  0
    6.6956  -11.6060   27.1069 C   0  0  0  0  0  0  0  0  0  0  0  0
    8.0520  -11.8276   27.0018 C   0  0  0  0  0  0  0  0  0  0  0  0
    8.5181  -13.0179   26.5124 C   0  0  0  0  0  0  0  0  0  0  0  0
    7.6602  -14.0249   26.1121 C   0  0  0  0  0  0  0  0  0  0  0  0
   11.4196  -15.7827   24.4321 C   0  0  0  0  0  0  0  0  0  0  0  0
   11.8582  -16.4640   23.4742 O   0  0  0  0  0  0  0  0  0  0  0  0
   12.2877  -15.5957   25.5096 O   0  0  0  0  0  0  0  0  0  0  0  0
  2  5  1  0
  2  1  1  6
  3  2  1  0
  4  3  1  0
  5  6  2  0
  8  7  1  6
  8 10  1  0
  8  9  1  0
 10 11  1  1
 11  5  1  0
 12 13  2  0
 12 10  1  0
 14 12  1  0
 15 26  1  0
 15 14  1  0
 15 16  1  1
 17 16  1  0
 18 17  2  0
 19 20  1  0
 19 18  1  0
 20 25  2  0
 21 20  1  0
 21 22  2  0
 22 23  1  0
 23 24  2  0
 25 17  1  0
 25 24  1  0
 26 28  1  0
 27 26  2  0
M  END
$$$$
