CVW.pdb
     RDKit          3D

 28 29  0  0  1  0  0  0  0  0999 V2000
    6.9803  -16.0543   19.2841 N   0  0  0  0  0  0  0  0  0  0  0  0
    7.5882  -15.4065   20.4057 C   0  0  1  0  0  0  0  0  0  0  0  0
    6.5033  -14.7359   21.2218 C   0  0  0  0  0  0  0  0  0  0  0  0
    7.2049  -13.8987   22.6541 S   0  0  0  0  0  0  0  0  0  0  0  0
    8.3015  -16.3931   21.2644 C   0  0  0  0  0  0  0  0  0  0  0  0
    7.7976  -17.5090   21.5216 O   0  0  0  0  0  0  0  0  0  0  0  0
   11.5934  -17.6794   20.6526 C   0  0  0  0  0  0  0  0  0  0  0  0
   11.7147  -17.1474   22.0477 C   0  0  2  0  0  0  0  0  0  0  0  0
   12.4992  -18.1539   22.8696 C   0  0  0  0  0  0  0  0  0  0  0  0
   10.3042  -17.0025   22.6227 C   0  0  2  0  0  0  0  0  0  0  0  0
    9.5744  -16.0616   21.8003 N   0  0  0  0  0  0  0  0  0  0  0  0
   10.4153  -16.4600   23.9850 C   0  0  0  0  0  0  0  0  0  0  0  0
   10.9932  -15.3379   24.1406 O   0  0  0  0  0  0  0  0  0  0  0  0
    9.9305  -17.0866   25.1373 N   0  0  0  0  0  0  0  0  0  0  0  0
   10.1507  -16.5772   26.5095 C   0  0  1  0  0  0  0  0  0  0  0  0
    8.7897  -16.5790   27.1292 C   0  0  0  0  0  0  0  0  0  0  0  0
    7.7771  -15.7014   26.5610 C   0  0  0  0  0  0  0  0  0  0  0  0
    6.6428  -16.0590   25.8194 C   0  0  0  0  0  0  0  0  0  0  0  0
    6.0088  -14.9367   25.4644 N   0  0  0  0  0  0  0  0  0  0  0  0
    6.6386  -13.8580   25.9168 C   0  0  0  0  0  0  0  0  0  0  0  0
    6.3389  -12.5053   25.8058 C   0  0  0  0  0  0  0  0  0  0  0  0
    7.1815  -11.5945   26.4086 C   0  0  0  0  0  0  0  0  0  0  0  0
    8.2907  -12.0304   27.1011 C   0  0  0  0  0  0  0  0  0  0  0  0
    8.5614  -13.3690   27.1931 C   0  0  0  0  0  0  0  0  0  0  0  0
    7.7461  -14.3174   26.6048 C   0  0  0  0  0  0  0  0  0  0  0  0
   11.0540  -17.5222   27.1620 C   0  0  0  0  0  0  0  0  0  0  0  0
   11.4691  -17.2831   28.3216 O   0  0  0  0  0  0  0  0  0  0  0  0
   11.5031  -18.7062   26.5737 O   0  0  0  0  0  0  0  0  0  0  0  0
  2  5  1  0
  2  1  1  6
  3  2  1  0
  4  3  1  0
  5  6  2  0
  8  7  1  6
  8 10  1  0
  8  9  1  0
 10 11  1  6
 11  5  1  0
 12 13  2  0
 12 10  1  0
 14 12  1  0
 15 26  1  0
 15 14  1  0
 15 16  1  1
 17 16  1  0
 18 17  2  0
 19 20  1  0
 19 18  1  0
 20 25  2  0
 21 20  1  0
 21 22  2  0
 22 23  1  0
 23 24  2  0
 25 17  1  0
 25 24  1  0
 26 28  1  0
 27 26  2  0
M  END
$$$$
