CIR.pdb
     RDKit          3D

 26 25  0  0  1  0  0  0  0  0999 V2000
    7.7898  -14.9908   20.2255 N   0  0  0  0  0  0  0  0  0  0  0  0
    6.9404  -14.9460   21.3986 C   0  0  1  0  0  0  0  0  0  0  0  0
    6.0153  -16.1145   21.4356 C   0  0  0  0  0  0  0  0  0  0  0  0
    7.0084  -17.6015   21.8197 S   0  0  0  0  0  0  0  0  0  0  0  0
    7.7376  -14.7310   22.5920 C   0  0  0  0  0  0  0  0  0  0  0  0
    8.9802  -14.9055   22.5349 O   0  0  0  0  0  0  0  0  0  0  0  0
    6.1227  -11.2667   26.4146 C   0  0  0  0  0  0  0  0  0  0  0  0
    7.1552  -11.9088   25.5284 C   0  0  0  0  0  0  0  0  0  0  0  0
    7.4537  -13.2742   26.0627 C   0  0  2  0  0  0  0  0  0  0  0  0
    8.3973  -13.1405   27.2347 C   0  0  0  0  0  0  0  0  0  0  0  0
    8.0431  -14.2070   25.0343 C   0  0  2  0  0  0  0  0  0  0  0  0
    7.2078  -14.3277   23.8536 N   0  0  0  0  0  0  0  0  0  0  0  0
    8.2826  -15.5582   25.6064 C   0  0  0  0  0  0  0  0  0  0  0  0
    7.2877  -16.3008   25.9069 O   0  0  0  0  0  0  0  0  0  0  0  0
   11.4666  -17.3916   20.5451 N   0  0  0  0  0  0  0  0  0  0  0  0
   12.3667  -18.1662   21.3171 C   0  0  0  0  0  0  0  0  0  0  0  0
   13.3346  -18.7702   20.7438 N   0  0  0  0  0  0  0  0  0  0  0  0
   12.1851  -18.2635   22.7167 N   0  0  0  0  0  0  0  0  0  0  0  0
   11.2372  -19.1930   23.3008 C   0  0  0  0  0  0  0  0  0  0  0  0
   10.2398  -18.3971   24.1383 C   0  0  0  0  0  0  0  0  0  0  0  0
   10.7507  -18.1563   25.5166 C   0  0  0  0  0  0  0  0  0  0  0  0
    9.7499  -17.4149   26.3634 C   0  0  2  0  0  0  0  0  0  0  0  0
    9.5927  -16.0581   25.8330 N   0  0  0  0  0  0  0  0  0  0  0  0
   10.1405  -17.2936   27.7777 C   0  0  0  0  0  0  0  0  0  0  0  0
   10.6844  -16.0670   28.2082 O   0  0  0  0  0  0  0  0  0  0  0  0
   10.0201  -18.2208   28.6367 O   0  0  0  0  0  0  0  0  0  0  0  0
  2  3  1  0
  2  1  1  6
  4  3  1  0
  5  2  1  0
  6  5  2  0
  7  8  1  0
  9  8  1  0
  9 11  1  0
  9 10  1  1
 11 12  1  6
 12  5  1  0
 13 11  1  0
 13 14  2  0
 16 17  2  0
 16 15  1  0
 18 16  1  0
 19 18  1  0
 20 21  1  0
 20 19  1  0
 22 21  1  6
 22 23  1  0
 23 13  1  0
 24 22  1  0
 25 24  1  0
 26 24  2  0
M  END
$$$$
