CIR.pdb
     RDKit          3D

 26 25  0  0  1  0  0  0  0  0999 V2000
    7.4118  -13.4339   20.1912 N   0  0  0  0  0  0  0  0  0  0  0  0
    6.8845  -14.2774   21.2448 C   0  0  1  0  0  0  0  0  0  0  0  0
    6.6445  -15.6639   20.7520 C   0  0  0  0  0  0  0  0  0  0  0  0
    5.8955  -16.6207   22.1188 S   0  0  0  0  0  0  0  0  0  0  0  0
    7.6992  -14.1620   22.4401 C   0  0  0  0  0  0  0  0  0  0  0  0
    8.9352  -13.9728   22.3198 O   0  0  0  0  0  0  0  0  0  0  0  0
    6.1935  -11.3016   26.7000 C   0  0  0  0  0  0  0  0  0  0  0  0
    7.0466  -11.9095   25.6201 C   0  0  0  0  0  0  0  0  0  0  0  0
    7.4093  -13.3016   26.0314 C   0  0  2  0  0  0  0  0  0  0  0  0
    8.3332  -13.2295   27.2243 C   0  0  0  0  0  0  0  0  0  0  0  0
    8.0557  -14.1051   24.9306 C   0  0  2  0  0  0  0  0  0  0  0  0
    7.1942  -14.2486   23.7715 N   0  0  0  0  0  0  0  0  0  0  0  0
    8.4591  -15.4526   25.4122 C   0  0  0  0  0  0  0  0  0  0  0  0
    7.5676  -16.2637   25.8353 O   0  0  0  0  0  0  0  0  0  0  0  0
   14.2264  -17.9326   21.8515 N   0  0  0  0  0  0  0  0  0  0  0  0
   13.0625  -18.7297   21.7240 C   0  0  0  0  0  0  0  0  0  0  0  0
   13.1681  -20.0015   21.6808 N   0  0  0  0  0  0  0  0  0  0  0  0
   11.7935  -18.1095   21.6457 N   0  0  0  0  0  0  0  0  0  0  0  0
   11.2231  -17.3932   22.7705 C   0  0  0  0  0  0  0  0  0  0  0  0
   11.0928  -18.3646   23.9407 C   0  0  0  0  0  0  0  0  0  0  0  0
   11.3898  -17.7001   25.2402 C   0  0  0  0  0  0  0  0  0  0  0  0
   10.1370  -17.2134   25.9197 C   0  0  2  0  0  0  0  0  0  0  0  0
    9.8154  -15.8746   25.4186 N   0  0  0  0  0  0  0  0  0  0  0  0
   10.2518  -17.1206   27.3846 C   0  0  0  0  0  0  0  0  0  0  0  0
   10.2759  -18.3218   28.1210 O   0  0  0  0  0  0  0  0  0  0  0  0
   10.3304  -16.0299   28.0298 O   0  0  0  0  0  0  0  0  0  0  0  0
  2  3  1  0
  2  1  1  6
  4  3  1  0
  5  2  1  0
  6  5  2  0
  7  8  1  0
  9  8  1  0
  9 11  1  0
  9 10  1  1
 11 12  1  6
 12  5  1  0
 13 11  1  0
 13 14  2  0
 16 17  2  0
 16 15  1  0
 18 16  1  0
 19 18  1  0
 20 21  1  0
 20 19  1  0
 22 21  1  6
 22 23  1  0
 23 13  1  0
 24 22  1  0
 25 24  1  0
 26 24  2  0
M  END
$$$$
