CIR.pdb
     RDKit          3D

 26 25  0  0  1  0  0  0  0  0999 V2000
   10.5587  -17.5011   16.1948 N   0  0  0  0  0  0  0  0  0  0  0  0
    9.3741  -17.5231   17.0289 C   0  0  1  0  0  0  0  0  0  0  0  0
    8.8179  -18.9023   17.1338 C   0  0  0  0  0  0  0  0  0  0  0  0
    7.9653  -19.2820   15.5610 S   0  0  0  0  0  0  0  0  0  0  0  0
    9.6287  -16.8452   18.2865 C   0  0  0  0  0  0  0  0  0  0  0  0
   10.7723  -16.9229   18.8005 O   0  0  0  0  0  0  0  0  0  0  0  0
    6.9246  -12.1991   19.7740 C   0  0  0  0  0  0  0  0  0  0  0  0
    8.0561  -13.1486   19.4880 C   0  0  0  0  0  0  0  0  0  0  0  0
    8.0246  -14.2428   20.5079 C   0  0  2  0  0  0  0  0  0  0  0  0
    8.3192  -13.6490   21.8652 C   0  0  0  0  0  0  0  0  0  0  0  0
    8.9918  -15.3634   20.2182 C   0  0  2  0  0  0  0  0  0  0  0  0
    8.6594  -16.0802   19.0007 N   0  0  0  0  0  0  0  0  0  0  0  0
    9.0587  -16.3243   21.3507 C   0  0  0  0  0  0  0  0  0  0  0  0
    8.0773  -17.1125   21.5674 O   0  0  0  0  0  0  0  0  0  0  0  0
   15.5638  -19.7723   26.6432 N   0  0  0  0  0  0  0  0  0  0  0  0
   14.8332  -20.6749   25.8321 C   0  0  0  0  0  0  0  0  0  0  0  0
   15.3542  -21.7927   25.5013 N   0  0  0  0  0  0  0  0  0  0  0  0
   13.5325  -20.3296   25.3959 N   0  0  0  0  0  0  0  0  0  0  0  0
   13.2161  -18.9973   24.9179 C   0  0  0  0  0  0  0  0  0  0  0  0
   11.7919  -19.0111   24.3689 C   0  0  0  0  0  0  0  0  0  0  0  0
   11.6246  -18.0364   23.2550 C   0  0  0  0  0  0  0  0  0  0  0  0
   10.2365  -17.4532   23.2248 C   0  0  2  0  0  0  0  0  0  0  0  0
   10.1877  -16.3976   22.2097 N   0  0  0  0  0  0  0  0  0  0  0  0
    9.8132  -16.8567   24.5026 C   0  0  0  0  0  0  0  0  0  0  0  0
    9.3633  -17.7243   25.5177 O   0  0  0  0  0  0  0  0  0  0  0  0
    9.8263  -15.6117   24.7516 O   0  0  0  0  0  0  0  0  0  0  0  0
  2  3  1  0
  2  1  1  1
  4  3  1  0
  5  2  1  0
  6  5  2  0
  7  8  1  0
  9  8  1  0
  9 11  1  0
  9 10  1  1
 11 12  1  6
 12  5  1  0
 13 11  1  0
 13 14  2  0
 16 17  2  0
 16 15  1  0
 18 16  1  0
 19 18  1  0
 20 21  1  0
 20 19  1  0
 22 21  1  1
 22 23  1  0
 23 13  1  0
 24 22  1  0
 25 24  1  0
 26 24  2  0
M  END
$$$$
