CIR.pdb
     RDKit          3D

 26 25  0  0  1  0  0  0  0  0999 V2000
    9.6658  -17.3322   15.9602 N   0  0  0  0  0  0  0  0  0  0  0  0
    8.6847  -17.4976   17.0136 C   0  0  1  0  0  0  0  0  0  0  0  0
    8.3418  -18.9358   17.2058 C   0  0  0  0  0  0  0  0  0  0  0  0
    7.0248  -19.0317   18.4713 S   0  0  0  0  0  0  0  0  0  0  0  0
    9.0969  -16.7798   18.2055 C   0  0  0  0  0  0  0  0  0  0  0  0
   10.3202  -16.7087   18.4821 O   0  0  0  0  0  0  0  0  0  0  0  0
    6.5564  -12.2514   19.9830 C   0  0  0  0  0  0  0  0  0  0  0  0
    7.6292  -13.2237   19.5740 C   0  0  0  0  0  0  0  0  0  0  0  0
    7.7577  -14.2631   20.6425 C   0  0  2  0  0  0  0  0  0  0  0  0
    8.2529  -13.6005   21.9064 C   0  0  0  0  0  0  0  0  0  0  0  0
    8.6742  -15.4010   20.2678 C   0  0  2  0  0  0  0  0  0  0  0  0
    8.2007  -16.1338   19.1080 N   0  0  0  0  0  0  0  0  0  0  0  0
    8.8559  -16.3434   21.4033 C   0  0  0  0  0  0  0  0  0  0  0  0
    8.1086  -17.3755   21.4915 O   0  0  0  0  0  0  0  0  0  0  0  0
   15.0774  -20.5188   18.9571 N   0  0  0  0  0  0  0  0  0  0  0  0
   15.0347  -20.9299   20.3119 C   0  0  0  0  0  0  0  0  0  0  0  0
   15.8088  -21.8618   20.7152 N   0  0  0  0  0  0  0  0  0  0  0  0
   14.1347  -20.3040   21.2061 N   0  0  0  0  0  0  0  0  0  0  0  0
   13.1503  -19.3416   20.7495 C   0  0  0  0  0  0  0  0  0  0  0  0
   12.2706  -18.9566   21.9360 C   0  0  0  0  0  0  0  0  0  0  0  0
   11.3338  -17.8522   21.5880 C   0  0  0  0  0  0  0  0  0  0  0  0
   10.6854  -17.2609   22.8120 C   0  0  2  0  0  0  0  0  0  0  0  0
    9.8417  -16.1345   22.4044 N   0  0  0  0  0  0  0  0  0  0  0  0
   11.6443  -16.7563   23.8088 C   0  0  0  0  0  0  0  0  0  0  0  0
   12.1651  -17.6721   24.7446 O   0  0  0  0  0  0  0  0  0  0  0  0
   12.0338  -15.5501   23.8822 O   0  0  0  0  0  0  0  0  0  0  0  0
  2  3  1  0
  2  1  1  6
  4  3  1  0
  5  2  1  0
  6  5  2  0
  7  8  1  0
  9  8  1  0
  9 11  1  0
  9 10  1  1
 11 12  1  6
 12  5  1  0
 13 11  1  0
 13 14  2  0
 16 17  2  0
 16 15  1  0
 18 16  1  0
 19 18  1  0
 20 21  1  0
 20 19  1  0
 22 21  1  6
 22 23  1  0
 23 13  1  0
 24 22  1  0
 25 24  1  0
 26 24  2  0
M  END
$$$$
