CIR.pdb
     RDKit          3D

 26 25  0  0  1  0  0  0  0  0999 V2000
    8.0266  -12.9855   19.7584 N   0  0  0  0  0  0  0  0  0  0  0  0
    7.4342  -13.9816   20.6281 C   0  0  1  0  0  0  0  0  0  0  0  0
    7.5401  -15.3443   20.0327 C   0  0  0  0  0  0  0  0  0  0  0  0
    5.9545  -16.2072   20.3267 S   0  0  0  0  0  0  0  0  0  0  0  0
    7.9431  -13.8395   21.9797 C   0  0  0  0  0  0  0  0  0  0  0  0
    9.1828  -13.7427   22.1575 O   0  0  0  0  0  0  0  0  0  0  0  0
    5.1936  -11.2971   25.9403 C   0  0  0  0  0  0  0  0  0  0  0  0
    6.3687  -11.7032   25.0931 C   0  0  0  0  0  0  0  0  0  0  0  0
    6.7713  -13.0921   25.4774 C   0  0  2  0  0  0  0  0  0  0  0  0
    7.4284  -13.0477   26.8368 C   0  0  0  0  0  0  0  0  0  0  0  0
    7.6963  -13.7474   24.4824 C   0  0  2  0  0  0  0  0  0  0  0  0
    7.1264  -13.8002   23.1487 N   0  0  0  0  0  0  0  0  0  0  0  0
    8.0654  -15.1216   24.9132 C   0  0  0  0  0  0  0  0  0  0  0  0
    7.3162  -16.1052   24.5927 O   0  0  0  0  0  0  0  0  0  0  0  0
   14.6391  -19.3124   21.9272 N   0  0  0  0  0  0  0  0  0  0  0  0
   13.9882  -20.2430   22.7737 C   0  0  0  0  0  0  0  0  0  0  0  0
   14.3628  -21.4637   22.7787 N   0  0  0  0  0  0  0  0  0  0  0  0
   12.9289  -19.8114   23.6061 N   0  0  0  0  0  0  0  0  0  0  0  0
   12.3975  -18.4641   23.5288 C   0  0  0  0  0  0  0  0  0  0  0  0
   11.4014  -18.2759   24.6700 C   0  0  0  0  0  0  0  0  0  0  0  0
   10.7639  -16.9305   24.6245 C   0  0  0  0  0  0  0  0  0  0  0  0
    9.7549  -16.7512   25.7280 C   0  0  2  0  0  0  0  0  0  0  0  0
    9.2344  -15.3824   25.6768 N   0  0  0  0  0  0  0  0  0  0  0  0
   10.3039  -16.9646   27.0773 C   0  0  0  0  0  0  0  0  0  0  0  0
   10.5488  -18.2904   27.4870 O   0  0  0  0  0  0  0  0  0  0  0  0
   10.5717  -16.0333   27.8978 O   0  0  0  0  0  0  0  0  0  0  0  0
  2  3  1  0
  2  1  1  6
  4  3  1  0
  5  2  1  0
  6  5  2  0
  7  8  1  0
  9  8  1  0
  9 11  1  0
  9 10  1  1
 11 12  1  6
 12  5  1  0
 13 11  1  0
 13 14  2  0
 16 17  2  0
 16 15  1  0
 18 16  1  0
 19 18  1  0
 20 21  1  0
 20 19  1  0
 22 21  1  6
 22 23  1  0
 23 13  1  0
 24 22  1  0
 25 24  1  0
 26 24  2  0
M  END
$$$$
