CIR.pdb
     RDKit          3D

 26 25  0  0  1  0  0  0  0  0999 V2000
    8.0001  -14.8706   20.0553 N   0  0  0  0  0  0  0  0  0  0  0  0
    7.1575  -15.1900   21.1900 C   0  0  1  0  0  0  0  0  0  0  0  0
    6.6504  -16.5893   21.1043 C   0  0  0  0  0  0  0  0  0  0  0  0
    5.3077  -16.6219   19.8629 S   0  0  0  0  0  0  0  0  0  0  0  0
    7.8215  -14.8315   22.4295 C   0  0  0  0  0  0  0  0  0  0  0  0
    9.0507  -15.0601   22.5511 O   0  0  0  0  0  0  0  0  0  0  0  0
    6.0810  -10.9117   25.9271 C   0  0  0  0  0  0  0  0  0  0  0  0
    7.0094  -11.7443   25.0856 C   0  0  0  0  0  0  0  0  0  0  0  0
    7.1516  -13.0886   25.7271 C   0  0  2  0  0  0  0  0  0  0  0  0
    7.9343  -12.9333   27.0097 C   0  0  0  0  0  0  0  0  0  0  0  0
    7.8184  -14.1107   24.8406 C   0  0  2  0  0  0  0  0  0  0  0  0
    7.1723  -14.2260   23.5462 N   0  0  0  0  0  0  0  0  0  0  0  0
    7.8553  -15.4469   25.4915 C   0  0  0  0  0  0  0  0  0  0  0  0
    6.9332  -16.2950   25.2425 O   0  0  0  0  0  0  0  0  0  0  0  0
   13.3536  -21.0708   23.5098 N   0  0  0  0  0  0  0  0  0  0  0  0
   13.4786  -19.6611   23.5683 C   0  0  0  0  0  0  0  0  0  0  0  0
   14.6367  -19.1257   23.5173 N   0  0  0  0  0  0  0  0  0  0  0  0
   12.3190  -18.8590   23.6827 N   0  0  0  0  0  0  0  0  0  0  0  0
   10.9998  -19.4417   23.8373 C   0  0  0  0  0  0  0  0  0  0  0  0
   10.4432  -19.0142   25.1928 C   0  0  0  0  0  0  0  0  0  0  0  0
    9.8610  -17.6443   25.1387 C   0  0  0  0  0  0  0  0  0  0  0  0
    9.2892  -17.2258   26.4677 C   0  0  2  0  0  0  0  0  0  0  0  0
    8.8908  -15.8179   26.3902 N   0  0  0  0  0  0  0  0  0  0  0  0
   10.2333  -17.3564   27.5898 C   0  0  0  0  0  0  0  0  0  0  0  0
   10.5144  -18.6522   28.0670 O   0  0  0  0  0  0  0  0  0  0  0  0
   10.8118  -16.3790   28.1573 O   0  0  0  0  0  0  0  0  0  0  0  0
  2  3  1  0
  2  1  1  6
  4  3  1  0
  5  2  1  0
  6  5  2  0
  7  8  1  0
  9  8  1  0
  9 11  1  0
  9 10  1  1
 11 12  1  6
 12  5  1  0
 13 11  1  0
 13 14  2  0
 16 17  2  0
 16 15  1  0
 18 16  1  0
 19 18  1  0
 20 21  1  0
 20 19  1  0
 22 21  1  6
 22 23  1  0
 23 13  1  0
 24 22  1  0
 25 24  1  0
 26 24  2  0
M  END
$$$$
