CIR.pdb
     RDKit          3D

 26 25  0  0  1  0  0  0  0  0999 V2000
    9.0181  -17.6240   15.7650 N   0  0  0  0  0  0  0  0  0  0  0  0
    8.0974  -17.3607   16.8525 C   0  0  1  0  0  0  0  0  0  0  0  0
    7.3635  -18.5977   17.2450 C   0  0  0  0  0  0  0  0  0  0  0  0
    8.5603  -19.7282   18.0417 S   0  0  0  0  0  0  0  0  0  0  0  0
    8.7723  -16.6565   17.9270 C   0  0  0  0  0  0  0  0  0  0  0  0
   10.0237  -16.5516   17.8958 O   0  0  0  0  0  0  0  0  0  0  0  0
    6.7947  -12.2342   20.6341 C   0  0  0  0  0  0  0  0  0  0  0  0
    7.7764  -13.1294   19.9281 C   0  0  0  0  0  0  0  0  0  0  0  0
    8.0242  -14.3295   20.7866 C   0  0  2  0  0  0  0  0  0  0  0  0
    8.7155  -13.8846   22.0539 C   0  0  0  0  0  0  0  0  0  0  0  0
    8.8420  -15.3981   20.1052 C   0  0  2  0  0  0  0  0  0  0  0  0
    8.1102  -16.0605   19.0412 N   0  0  0  0  0  0  0  0  0  0  0  0
    9.3195  -16.4149   21.0791 C   0  0  0  0  0  0  0  0  0  0  0  0
    8.5034  -17.2880   21.5300 O   0  0  0  0  0  0  0  0  0  0  0  0
   16.3974  -20.2581   22.5096 N   0  0  0  0  0  0  0  0  0  0  0  0
   15.6163  -20.7974   23.5610 C   0  0  0  0  0  0  0  0  0  0  0  0
   15.7613  -22.0217   23.8935 N   0  0  0  0  0  0  0  0  0  0  0  0
   14.6825  -19.9744   24.2334 N   0  0  0  0  0  0  0  0  0  0  0  0
   14.1721  -18.7545   23.6378 C   0  0  0  0  0  0  0  0  0  0  0  0
   13.0291  -19.1231   22.6956 C   0  0  0  0  0  0  0  0  0  0  0  0
   12.5267  -17.9342   21.9522 C   0  0  0  0  0  0  0  0  0  0  0  0
   11.1117  -17.5903   22.3361 C   0  0  2  0  0  0  0  0  0  0  0  0
   10.6657  -16.4502   21.5311 N   0  0  0  0  0  0  0  0  0  0  0  0
   10.9521  -17.2203   23.7522 C   0  0  0  0  0  0  0  0  0  0  0  0
   10.9738  -15.8504   24.0817 O   0  0  0  0  0  0  0  0  0  0  0  0
   10.7962  -18.0534   24.6976 O   0  0  0  0  0  0  0  0  0  0  0  0
  2  3  1  0
  2  1  1  6
  4  3  1  0
  5  2  1  0
  6  5  2  0
  7  8  1  0
  9  8  1  0
  9 11  1  0
  9 10  1  1
 11 12  1  6
 12  5  1  0
 13 11  1  0
 13 14  2  0
 16 17  2  0
 16 15  1  0
 18 16  1  0
 19 18  1  0
 20 21  1  0
 20 19  1  0
 22 21  1  1
 22 23  1  0
 23 13  1  0
 24 22  1  0
 25 24  1  0
 26 24  2  0
M  END
$$$$
