CIR.pdb
     RDKit          3D

 26 25  0  0  1  0  0  0  0  0999 V2000
    7.6949  -12.8366   19.8239 N   0  0  0  0  0  0  0  0  0  0  0  0
    7.2273  -13.8965   20.6942 C   0  0  1  0  0  0  0  0  0  0  0  0
    7.2686  -15.2162   20.0017 C   0  0  0  0  0  0  0  0  0  0  0  0
    5.6222  -15.5104   19.2616 S   0  0  0  0  0  0  0  0  0  0  0  0
    7.9032  -13.8326   21.9767 C   0  0  0  0  0  0  0  0  0  0  0  0
    9.1266  -13.5496   22.0079 O   0  0  0  0  0  0  0  0  0  0  0  0
    5.5846  -11.7509   26.3977 C   0  0  0  0  0  0  0  0  0  0  0  0
    6.5978  -12.0776   25.3346 C   0  0  0  0  0  0  0  0  0  0  0  0
    7.1471  -13.4422   25.6081 C   0  0  2  0  0  0  0  0  0  0  0  0
    7.9516  -13.3938   26.8856 C   0  0  0  0  0  0  0  0  0  0  0  0
    7.9983  -13.9839   24.4869 C   0  0  2  0  0  0  0  0  0  0  0  0
    7.2720  -14.0716   23.2335 N   0  0  0  0  0  0  0  0  0  0  0  0
    8.5520  -15.3209   24.8279 C   0  0  0  0  0  0  0  0  0  0  0  0
    7.7606  -16.2602   25.1784 O   0  0  0  0  0  0  0  0  0  0  0  0
   15.1399  -16.8112   20.7636 N   0  0  0  0  0  0  0  0  0  0  0  0
   14.0489  -15.9078   20.7667 C   0  0  0  0  0  0  0  0  0  0  0  0
   14.0744  -14.8821   20.0067 N   0  0  0  0  0  0  0  0  0  0  0  0
   12.9408  -16.1504   21.6119 N   0  0  0  0  0  0  0  0  0  0  0  0
   12.5314  -17.4957   21.9670 C   0  0  0  0  0  0  0  0  0  0  0  0
   11.2808  -17.4020   22.8371 C   0  0  0  0  0  0  0  0  0  0  0  0
   11.6259  -17.2581   24.2789 C   0  0  0  0  0  0  0  0  0  0  0  0
   10.4148  -16.9397   25.1156 C   0  0  2  0  0  0  0  0  0  0  0  0
    9.9451  -15.5938   24.7771 N   0  0  0  0  0  0  0  0  0  0  0  0
   10.6689  -16.9670   26.5656 C   0  0  0  0  0  0  0  0  0  0  0  0
   11.1486  -15.7893   27.1727 O   0  0  0  0  0  0  0  0  0  0  0  0
   10.4849  -17.9814   27.3066 O   0  0  0  0  0  0  0  0  0  0  0  0
  2  3  1  0
  2  1  1  6
  4  3  1  0
  5  2  1  0
  6  5  2  0
  7  8  1  0
  9  8  1  0
  9 11  1  0
  9 10  1  1
 11 12  1  6
 12  5  1  0
 13 11  1  0
 13 14  2  0
 16 17  2  0
 16 15  1  0
 18 16  1  0
 19 18  1  0
 20 21  1  0
 20 19  1  0
 22 21  1  6
 22 23  1  0
 23 13  1  0
 24 22  1  0
 25 24  1  0
 26 24  2  0
M  END
$$$$
