CIR.pdb
     RDKit          3D

 26 25  0  0  1  0  0  0  0  0999 V2000
    7.6369  -13.5725   20.1835 N   0  0  0  0  0  0  0  0  0  0  0  0
    7.0102  -14.3700   21.2183 C   0  0  1  0  0  0  0  0  0  0  0  0
    6.7789  -15.7671   20.7522 C   0  0  0  0  0  0  0  0  0  0  0  0
    5.9317  -16.6717   22.0972 S   0  0  0  0  0  0  0  0  0  0  0  0
    7.7311  -14.2307   22.4700 C   0  0  0  0  0  0  0  0  0  0  0  0
    8.9818  -14.1168   22.4439 O   0  0  0  0  0  0  0  0  0  0  0  0
    5.6134  -11.8251   26.9114 C   0  0  0  0  0  0  0  0  0  0  0  0
    6.6903  -12.1584   25.9150 C   0  0  0  0  0  0  0  0  0  0  0  0
    7.1138  -13.5767   26.1331 C   0  0  2  0  0  0  0  0  0  0  0  0
    7.9369  -13.6479   27.3977 C   0  0  0  0  0  0  0  0  0  0  0  0
    7.8954  -14.1553   24.9800 C   0  0  2  0  0  0  0  0  0  0  0  0
    7.1161  -14.2129   23.7570 N   0  0  0  0  0  0  0  0  0  0  0  0
    8.4046  -15.5145   25.3019 C   0  0  0  0  0  0  0  0  0  0  0  0
    7.5922  -16.4994   25.3398 O   0  0  0  0  0  0  0  0  0  0  0  0
   14.6744  -19.8417   21.4456 N   0  0  0  0  0  0  0  0  0  0  0  0
   13.4281  -20.5107   21.5194 C   0  0  0  0  0  0  0  0  0  0  0  0
   13.2419  -21.5785   20.8443 N   0  0  0  0  0  0  0  0  0  0  0  0
   12.4007  -19.9897   22.3406 N   0  0  0  0  0  0  0  0  0  0  0  0
   12.5822  -18.7754   23.1126 C   0  0  0  0  0  0  0  0  0  0  0  0
   11.3142  -18.5310   23.9264 C   0  0  0  0  0  0  0  0  0  0  0  0
   11.4445  -17.3290   24.7962 C   0  0  0  0  0  0  0  0  0  0  0  0
   10.2404  -17.1453   25.6819 C   0  0  2  0  0  0  0  0  0  0  0  0
    9.7776  -15.7594   25.5716 N   0  0  0  0  0  0  0  0  0  0  0  0
   10.5026  -17.4111   27.1061 C   0  0  0  0  0  0  0  0  0  0  0  0
   10.7576  -16.3088   27.9461 O   0  0  0  0  0  0  0  0  0  0  0  0
   10.5145  -18.5681   27.6289 O   0  0  0  0  0  0  0  0  0  0  0  0
  2  3  1  0
  2  1  1  6
  4  3  1  0
  5  2  1  0
  6  5  2  0
  7  8  1  0
  9  8  1  0
  9 11  1  0
  9 10  1  1
 11 12  1  6
 12  5  1  0
 13 11  1  0
 13 14  2  0
 16 17  2  0
 16 15  1  0
 18 16  1  0
 19 18  1  0
 20 21  1  0
 20 19  1  0
 22 21  1  6
 22 23  1  0
 23 13  1  0
 24 22  1  0
 25 24  1  0
 26 24  2  0
M  END
$$$$
