CIR.pdb
     RDKit          3D

 26 25  0  0  1  0  0  0  0  0999 V2000
    7.8224  -14.3839   20.2280 N   0  0  0  0  0  0  0  0  0  0  0  0
    7.1857  -15.0160   21.3659 C   0  0  1  0  0  0  0  0  0  0  0  0
    7.0339  -16.4831   21.1486 C   0  0  0  0  0  0  0  0  0  0  0  0
    6.1478  -16.7249   19.5671 S   0  0  0  0  0  0  0  0  0  0  0  0
    7.8454  -14.6227   22.5972 C   0  0  0  0  0  0  0  0  0  0  0  0
    9.0703  -14.3453   22.5711 O   0  0  0  0  0  0  0  0  0  0  0  0
    5.3810  -11.8293   26.5887 C   0  0  0  0  0  0  0  0  0  0  0  0
    6.4283  -12.2630   25.5994 C   0  0  0  0  0  0  0  0  0  0  0  0
    7.0650  -13.5192   26.1049 C   0  0  2  0  0  0  0  0  0  0  0  0
    7.8891  -13.1873   27.3265 C   0  0  0  0  0  0  0  0  0  0  0  0
    7.9263  -14.2121   25.0787 C   0  0  2  0  0  0  0  0  0  0  0  0
    7.1964  -14.5244   23.8637 N   0  0  0  0  0  0  0  0  0  0  0  0
    8.5217  -15.4589   25.6277 C   0  0  0  0  0  0  0  0  0  0  0  0
    7.7567  -16.4095   26.0054 O   0  0  0  0  0  0  0  0  0  0  0  0
   15.0554  -14.7673   22.8180 N   0  0  0  0  0  0  0  0  0  0  0  0
   14.0943  -15.1967   21.8704 C   0  0  0  0  0  0  0  0  0  0  0  0
   14.0802  -14.6782   20.7036 N   0  0  0  0  0  0  0  0  0  0  0  0
   13.1585  -16.1966   22.2253 N   0  0  0  0  0  0  0  0  0  0  0  0
   13.1724  -16.8260   23.5319 C   0  0  0  0  0  0  0  0  0  0  0  0
   11.8315  -16.5542   24.2088 C   0  0  0  0  0  0  0  0  0  0  0  0
   11.7509  -17.2050   25.5461 C   0  0  0  0  0  0  0  0  0  0  0  0
   10.4414  -16.9162   26.2316 C   0  0  2  0  0  0  0  0  0  0  0  0
    9.9263  -15.6323   25.7485 N   0  0  0  0  0  0  0  0  0  0  0  0
   10.5435  -16.8275   27.6976 C   0  0  0  0  0  0  0  0  0  0  0  0
   10.6945  -18.0271   28.4214 O   0  0  0  0  0  0  0  0  0  0  0  0
   10.5045  -15.7416   28.3545 O   0  0  0  0  0  0  0  0  0  0  0  0
  2  3  1  0
  2  1  1  6
  4  3  1  0
  5  2  1  0
  6  5  2  0
  7  8  1  0
  9  8  1  0
  9 11  1  0
  9 10  1  1
 11 12  1  6
 12  5  1  0
 13 11  1  0
 13 14  2  0
 16 17  2  0
 16 15  1  0
 18 16  1  0
 19 18  1  0
 20 21  1  0
 20 19  1  0
 22 21  1  6
 22 23  1  0
 23 13  1  0
 24 22  1  0
 25 24  1  0
 26 24  2  0
M  END
$$$$
