CIR.pdb
     RDKit          3D

 26 25  0  0  1  0  0  0  0  0999 V2000
    5.3196  -18.7777   23.7108 N   0  0  0  0  0  0  0  0  0  0  0  0
    5.5908  -18.0153   24.9127 C   0  0  1  0  0  0  0  0  0  0  0  0
    6.0395  -18.9047   26.0219 C   0  0  0  0  0  0  0  0  0  0  0  0
    7.6465  -19.6324   25.5394 S   0  0  0  0  0  0  0  0  0  0  0  0
    6.4569  -16.8902   24.6129 C   0  0  0  0  0  0  0  0  0  0  0  0
    7.0183  -16.8349   23.4905 O   0  0  0  0  0  0  0  0  0  0  0  0
    5.8476  -12.1325   27.2310 C   0  0  0  0  0  0  0  0  0  0  0  0
    6.0631  -12.9788   26.0059 C   0  0  0  0  0  0  0  0  0  0  0  0
    7.4534  -13.5298   26.0502 C   0  0  2  0  0  0  0  0  0  0  0  0
    8.4186  -12.4441   25.6362 C   0  0  0  0  0  0  0  0  0  0  0  0
    7.6465  -14.7462   25.1795 C   0  0  2  0  0  0  0  0  0  0  0  0
    6.7266  -15.8177   25.5140 N   0  0  0  0  0  0  0  0  0  0  0  0
    9.0417  -15.2532   25.2631 C   0  0  0  0  0  0  0  0  0  0  0  0
    9.5006  -15.6537   26.3858 O   0  0  0  0  0  0  0  0  0  0  0  0
   10.5970  -19.5031   29.4360 N   0  0  0  0  0  0  0  0  0  0  0  0
   11.8319  -19.7399   28.7840 C   0  0  0  0  0  0  0  0  0  0  0  0
   12.8170  -20.2113   29.4457 N   0  0  0  0  0  0  0  0  0  0  0  0
   11.9627  -19.4520   27.4051 N   0  0  0  0  0  0  0  0  0  0  0  0
   10.9372  -18.7317   26.6749 C   0  0  0  0  0  0  0  0  0  0  0  0
   11.4837  -18.3924   25.2906 C   0  0  0  0  0  0  0  0  0  0  0  0
   10.4959  -17.6215   24.4854 C   0  0  0  0  0  0  0  0  0  0  0  0
   11.0120  -16.2529   24.1264 C   0  0  2  0  0  0  0  0  0  0  0  0
    9.8916  -15.3086   24.1263 N   0  0  0  0  0  0  0  0  0  0  0  0
   11.6467  -16.1850   22.7997 C   0  0  0  0  0  0  0  0  0  0  0  0
   13.0487  -16.3100   22.7329 O   0  0  0  0  0  0  0  0  0  0  0  0
   11.0151  -16.0211   21.7105 O   0  0  0  0  0  0  0  0  0  0  0  0
  2  3  1  0
  2  1  1  6
  4  3  1  0
  5  2  1  0
  6  5  2  0
  7  8  1  0
  9  8  1  0
  9 11  1  0
  9 10  1  6
 11 12  1  1
 12  5  1  0
 13 11  1  0
 13 14  2  0
 16 17  2  0
 16 15  1  0
 18 16  1  0
 19 18  1  0
 20 21  1  0
 20 19  1  0
 22 21  1  6
 22 23  1  0
 23 13  1  0
 24 22  1  0
 25 24  1  0
 26 24  2  0
M  END
$$$$
