CIR.pdb
     RDKit          3D

 26 25  0  0  1  0  0  0  0  0999 V2000
    7.7050  -13.9673   20.0169 N   0  0  0  0  0  0  0  0  0  0  0  0
    7.0166  -14.5903   21.1294 C   0  0  1  0  0  0  0  0  0  0  0  0
    6.6959  -16.0154   20.8311 C   0  0  0  0  0  0  0  0  0  0  0  0
    5.4965  -16.0409   19.4506 S   0  0  0  0  0  0  0  0  0  0  0  0
    7.7337  -14.3480   22.3674 C   0  0  0  0  0  0  0  0  0  0  0  0
    8.9876  -14.2768   22.3419 O   0  0  0  0  0  0  0  0  0  0  0  0
    5.5839  -11.5762   26.6031 C   0  0  0  0  0  0  0  0  0  0  0  0
    6.6402  -11.9884   25.6142 C   0  0  0  0  0  0  0  0  0  0  0  0
    7.1009  -13.3688   25.9621 C   0  0  2  0  0  0  0  0  0  0  0  0
    7.9385  -13.2985   27.2172 C   0  0  0  0  0  0  0  0  0  0  0  0
    7.8845  -14.0372   24.8601 C   0  0  2  0  0  0  0  0  0  0  0  0
    7.1115  -14.1804   23.6401 N   0  0  0  0  0  0  0  0  0  0  0  0
    8.3820  -15.3721   25.2855 C   0  0  0  0  0  0  0  0  0  0  0  0
    7.5469  -16.3056   25.5358 O   0  0  0  0  0  0  0  0  0  0  0  0
   14.9179  -19.0231   21.2475 N   0  0  0  0  0  0  0  0  0  0  0  0
   13.9897  -19.5799   22.1612 C   0  0  0  0  0  0  0  0  0  0  0  0
   14.2479  -20.6964   22.7243 N   0  0  0  0  0  0  0  0  0  0  0  0
   12.7847  -18.8937   22.4415 N   0  0  0  0  0  0  0  0  0  0  0  0
   11.7965  -19.4293   23.3581 C   0  0  0  0  0  0  0  0  0  0  0  0
   11.8869  -18.6513   24.6682 C   0  0  0  0  0  0  0  0  0  0  0  0
   11.3097  -17.2847   24.5349 C   0  0  0  0  0  0  0  0  0  0  0  0
   10.2035  -17.0444   25.5282 C   0  0  2  0  0  0  0  0  0  0  0  0
    9.7682  -15.6492   25.4248 N   0  0  0  0  0  0  0  0  0  0  0  0
   10.5973  -17.2816   26.9269 C   0  0  0  0  0  0  0  0  0  0  0  0
   10.5694  -16.1870   27.8139 O   0  0  0  0  0  0  0  0  0  0  0  0
   10.9608  -18.4072   27.3882 O   0  0  0  0  0  0  0  0  0  0  0  0
  2  3  1  0
  2  1  1  6
  4  3  1  0
  5  2  1  0
  6  5  2  0
  7  8  1  0
  9  8  1  0
  9 11  1  0
  9 10  1  1
 11 12  1  6
 12  5  1  0
 13 11  1  0
 13 14  2  0
 16 17  2  0
 16 15  1  0
 18 16  1  0
 19 18  1  0
 20 21  1  0
 20 19  1  0
 22 21  1  6
 22 23  1  0
 23 13  1  0
 24 22  1  0
 25 24  1  0
 26 24  2  0
M  END
$$$$
