CIR.pdb
     RDKit          3D

 26 25  0  0  1  0  0  0  0  0999 V2000
    6.2854  -17.2369   21.7543 N   0  0  0  0  0  0  0  0  0  0  0  0
    6.1628  -17.2761   23.1976 C   0  0  1  0  0  0  0  0  0  0  0  0
    6.2262  -18.6772   23.7031 C   0  0  0  0  0  0  0  0  0  0  0  0
    4.7405  -19.5567   23.0997 S   0  0  0  0  0  0  0  0  0  0  0  0
    7.0872  -16.3394   23.8090 C   0  0  0  0  0  0  0  0  0  0  0  0
    8.1317  -16.0203   23.1883 O   0  0  0  0  0  0  0  0  0  0  0  0
    5.7087  -12.0288   26.7616 C   0  0  0  0  0  0  0  0  0  0  0  0
    6.5236  -12.8389   25.7905 C   0  0  0  0  0  0  0  0  0  0  0  0
    7.3426  -13.8225   26.5654 C   0  0  2  0  0  0  0  0  0  0  0  0
    8.4528  -13.0799   27.2708 C   0  0  0  0  0  0  0  0  0  0  0  0
    7.9233  -14.9245   25.7147 C   0  0  2  0  0  0  0  0  0  0  0  0
    6.8979  -15.7391   25.0892 N   0  0  0  0  0  0  0  0  0  0  0  0
    8.8281  -15.7979   26.5077 C   0  0  0  0  0  0  0  0  0  0  0  0
    8.3445  -16.5273   27.4380 O   0  0  0  0  0  0  0  0  0  0  0  0
   14.3969  -14.2771   22.9120 N   0  0  0  0  0  0  0  0  0  0  0  0
   13.7123  -15.2234   22.1106 C   0  0  0  0  0  0  0  0  0  0  0  0
   13.4383  -14.9434   20.8953 N   0  0  0  0  0  0  0  0  0  0  0  0
   13.3382  -16.4704   22.6641 N   0  0  0  0  0  0  0  0  0  0  0  0
   13.5496  -16.7778   24.0657 C   0  0  0  0  0  0  0  0  0  0  0  0
   12.2076  -16.6768   24.7859 C   0  0  0  0  0  0  0  0  0  0  0  0
   12.3290  -17.0429   26.2246 C   0  0  0  0  0  0  0  0  0  0  0  0
   11.0277  -16.8610   26.9606 C   0  0  2  0  0  0  0  0  0  0  0  0
   10.2267  -15.8505   26.2648 N   0  0  0  0  0  0  0  0  0  0  0  0
   11.1892  -16.4137   28.3540 C   0  0  0  0  0  0  0  0  0  0  0  0
   11.7076  -17.3349   29.2859 O   0  0  0  0  0  0  0  0  0  0  0  0
   10.8923  -15.2525   28.7730 O   0  0  0  0  0  0  0  0  0  0  0  0
  2  3  1  0
  2  1  1  6
  4  3  1  0
  5  2  1  0
  6  5  2  0
  7  8  1  0
  9  8  1  0
  9 11  1  0
  9 10  1  6
 11 12  1  1
 12  5  1  0
 13 11  1  0
 13 14  2  0
 16 17  2  0
 16 15  1  0
 18 16  1  0
 19 18  1  0
 20 21  1  0
 20 19  1  0
 22 21  1  6
 22 23  1  0
 23 13  1  0
 24 22  1  0
 25 24  1  0
 26 24  2  0
M  END
$$$$
