CIR.pdb
     RDKit          3D

 26 25  0  0  1  0  0  0  0  0999 V2000
    6.3047  -19.3264   27.6428 N   0  0  0  0  0  0  0  0  0  0  0  0
    7.4557  -18.5721   27.1892 C   0  0  1  0  0  0  0  0  0  0  0  0
    8.4447  -19.4586   26.5119 C   0  0  0  0  0  0  0  0  0  0  0  0
    9.9702  -18.4875   26.2386 S   0  0  0  0  0  0  0  0  0  0  0  0
    7.0314  -17.4056   26.4376 C   0  0  0  0  0  0  0  0  0  0  0  0
    6.0800  -17.5167   25.6249 O   0  0  0  0  0  0  0  0  0  0  0  0
    6.8173  -12.2061   28.2364 C   0  0  0  0  0  0  0  0  0  0  0  0
    6.4334  -13.4695   27.5153 C   0  0  0  0  0  0  0  0  0  0  0  0
    7.3830  -13.6714   26.3768 C   0  0  2  0  0  0  0  0  0  0  0  0
    7.1811  -12.5598   25.3741 C   0  0  0  0  0  0  0  0  0  0  0  0
    7.2308  -15.0089   25.6963 C   0  0  2  0  0  0  0  0  0  0  0  0
    7.6241  -16.1130   26.5522 N   0  0  0  0  0  0  0  0  0  0  0  0
    8.0137  -15.0637   24.4336 C   0  0  0  0  0  0  0  0  0  0  0  0
    9.1058  -15.7252   24.3972 O   0  0  0  0  0  0  0  0  0  0  0  0
    9.0787  -12.9197   17.1765 N   0  0  0  0  0  0  0  0  0  0  0  0
    8.3762  -13.9729   16.5412 C   0  0  0  0  0  0  0  0  0  0  0  0
    8.7999  -14.4359   15.4292 N   0  0  0  0  0  0  0  0  0  0  0  0
    7.2114  -14.5023   17.1446 N   0  0  0  0  0  0  0  0  0  0  0  0
    6.7382  -14.0331   18.4328 C   0  0  0  0  0  0  0  0  0  0  0  0
    7.6447  -14.6118   19.5159 C   0  0  0  0  0  0  0  0  0  0  0  0
    7.1337  -14.3034   20.8806 C   0  0  0  0  0  0  0  0  0  0  0  0
    7.9708  -14.9514   21.9518 C   0  0  2  0  0  0  0  0  0  0  0  0
    7.5856  -14.3993   23.2533 N   0  0  0  0  0  0  0  0  0  0  0  0
    9.4178  -14.7330   21.7904 C   0  0  0  0  0  0  0  0  0  0  0  0
    9.9951  -13.6290   22.4489 O   0  0  0  0  0  0  0  0  0  0  0  0
   10.1815  -15.4733   21.0969 O   0  0  0  0  0  0  0  0  0  0  0  0
  2  3  1  0
  2  1  1  6
  4  3  1  0
  5  2  1  0
  6  5  2  0
  7  8  1  0
  9  8  1  0
  9 11  1  0
  9 10  1  6
 11 12  1  1
 12  5  1  0
 13 11  1  0
 13 14  2  0
 16 17  2  0
 16 15  1  0
 18 16  1  0
 19 18  1  0
 20 21  1  0
 20 19  1  0
 22 21  1  6
 22 23  1  0
 23 13  1  0
 24 22  1  0
 25 24  1  0
 26 24  2  0
M  END
$$$$
