IAM.pdb
     RDKit          3D

 22 21  0  0  1  0  0  0  0  0999 V2000
    7.3347  -12.1027   19.1899 C   0  0  0  0  0  0  0  0  0  0  0  0
    7.4801  -13.5760   19.3626 C   0  0  0  0  0  0  0  0  0  0  0  0
    7.4721  -14.0395   20.7808 C   0  0  2  0  0  0  0  0  0  0  0  0
    8.6576  -13.3851   21.4888 C   0  0  0  0  0  0  0  0  0  0  0  0
    7.6191  -15.5207   20.9560 C   0  0  2  0  0  0  0  0  0  0  0  0
    6.5385  -16.1345   20.1734 N   0  0  0  0  0  0  0  0  0  0  0  0
    7.4416  -15.9115   22.3714 C   0  0  0  0  0  0  0  0  0  0  0  0
    6.5405  -15.4022   23.1078 O   0  0  0  0  0  0  0  0  0  0  0  0
    8.6187  -18.7147   24.5585 C   0  0  0  0  0  0  0  0  0  0  0  0
    8.1841  -17.2799   24.3574 C   0  0  2  0  0  0  0  0  0  0  0  0
    8.2712  -16.8751   22.9710 N   0  0  0  0  0  0  0  0  0  0  0  0
    9.1317  -16.4315   25.1267 C   0  0  0  0  0  0  0  0  0  0  0  0
   10.2860  -16.1607   24.7058 O   0  0  0  0  0  0  0  0  0  0  0  0
    6.5617  -10.9591   26.0209 C   0  0  0  0  0  0  0  0  0  0  0  0
    7.1830  -12.0589   27.3340 S   0  0  0  0  0  0  0  0  0  0  0  0
    8.5677  -13.0019   26.5841 C   0  0  0  0  0  0  0  0  0  0  0  0
    9.1131  -13.8762   27.6918 C   0  0  0  0  0  0  0  0  0  0  0  0
    9.7278  -15.1606   27.1669 C   0  0  2  0  0  0  0  0  0  0  0  0
    8.7530  -15.8913   26.3847 N   0  0  0  0  0  0  0  0  0  0  0  0
   10.2348  -16.0212   28.2301 C   0  0  0  0  0  0  0  0  0  0  0  0
    9.6756  -17.1112   28.4850 O   0  0  0  0  0  0  0  0  0  0  0  0
   11.3390  -15.6536   28.9761 O   0  0  0  0  0  0  0  0  0  0  0  0
  1  2  1  0
  3  2  1  0
  3  5  1  0
  3  4  1  1
  5  7  1  0
  5  6  1  6
  7 11  1  0
  7  8  2  0
 10  9  1  6
 10 12  1  0
 11 10  1  0
 12 13  2  0
 15 14  1  0
 15 16  1  0
 16 17  1  0
 18 17  1  1
 19 18  1  0
 19 12  1  0
 20 18  1  0
 20 22  1  0
 21 20  2  0
M  END
$$$$
