IAM.pdb
     RDKit          3D

 22 21  0  0  1  0  0  0  0  0999 V2000
    5.8918  -12.2499   26.6770 C   0  0  0  0  0  0  0  0  0  0  0  0
    5.6368  -13.5213   25.9422 C   0  0  0  0  0  0  0  0  0  0  0  0
    6.8661  -14.2297   25.4804 C   0  0  2  0  0  0  0  0  0  0  0  0
    7.6431  -13.2704   24.5800 C   0  0  0  0  0  0  0  0  0  0  0  0
    6.6100  -15.4716   24.6814 C   0  0  2  0  0  0  0  0  0  0  0  0
    5.8227  -16.3597   25.5466 N   0  0  0  0  0  0  0  0  0  0  0  0
    7.8747  -16.1603   24.3440 C   0  0  0  0  0  0  0  0  0  0  0  0
    8.3288  -17.1228   25.0375 O   0  0  0  0  0  0  0  0  0  0  0  0
   10.3430  -15.8912   21.4655 C   0  0  0  0  0  0  0  0  0  0  0  0
    9.7639  -16.5245   22.7112 C   0  0  2  0  0  0  0  0  0  0  0  0
    8.6386  -15.7761   23.2282 N   0  0  0  0  0  0  0  0  0  0  0  0
   10.8304  -16.4917   23.7462 C   0  0  0  0  0  0  0  0  0  0  0  0
   12.0492  -16.3849   23.4529 O   0  0  0  0  0  0  0  0  0  0  0  0
   10.4712  -12.3111   28.8619 C   0  0  0  0  0  0  0  0  0  0  0  0
   10.4100  -14.1314   28.9129 S   0  0  0  0  0  0  0  0  0  0  0  0
   11.2408  -14.7038   27.3795 C   0  0  0  0  0  0  0  0  0  0  0  0
   11.1840  -16.2149   27.4243 C   0  0  0  0  0  0  0  0  0  0  0  0
   11.5400  -16.8480   26.0918 C   0  0  2  0  0  0  0  0  0  0  0  0
   10.4968  -16.5819   25.1240 N   0  0  0  0  0  0  0  0  0  0  0  0
   11.7515  -18.2882   26.1881 C   0  0  0  0  0  0  0  0  0  0  0  0
   12.6556  -18.7492   26.9202 O   0  0  0  0  0  0  0  0  0  0  0  0
   10.9615  -19.1716   25.4763 O   0  0  0  0  0  0  0  0  0  0  0  0
  1  2  1  0
  3  2  1  0
  3  5  1  0
  3  4  1  6
  5  7  1  0
  5  6  1  1
  7 11  1  0
  7  8  2  0
 10  9  1  6
 10 12  1  0
 11 10  1  0
 12 13  2  0
 15 14  1  0
 15 16  1  0
 16 17  1  0
 18 17  1  1
 19 18  1  0
 19 12  1  0
 20 18  1  0
 20 22  1  0
 21 20  2  0
M  END
$$$$
