IAM.pdb
     RDKit          3D

 22 21  0  0  1  0  0  0  0  0999 V2000
    4.9951  -11.4468   25.5572 C   0  0  0  0  0  0  0  0  0  0  0  0
    5.8509  -12.2214   26.5000 C   0  0  0  0  0  0  0  0  0  0  0  0
    6.8464  -13.1177   25.8427 C   0  0  2  0  0  0  0  0  0  0  0  0
    7.5540  -12.3072   24.7577 C   0  0  0  0  0  0  0  0  0  0  0  0
    6.2580  -14.3243   25.1762 C   0  0  2  0  0  0  0  0  0  0  0  0
    5.5174  -15.0470   26.2183 N   0  0  0  0  0  0  0  0  0  0  0  0
    7.3166  -15.2187   24.6595 C   0  0  0  0  0  0  0  0  0  0  0  0
    8.0190  -15.9507   25.4241 O   0  0  0  0  0  0  0  0  0  0  0  0
    8.6841  -16.0138   21.2033 C   0  0  0  0  0  0  0  0  0  0  0  0
    8.5413  -16.2223   22.6946 C   0  0  2  0  0  0  0  0  0  0  0  0
    7.5951  -15.2999   23.2840 N   0  0  0  0  0  0  0  0  0  0  0  0
    9.8700  -15.9391   23.2979 C   0  0  0  0  0  0  0  0  0  0  0  0
   10.6052  -15.0008   22.8955 O   0  0  0  0  0  0  0  0  0  0  0  0
    9.9383  -14.3740   29.4587 C   0  0  0  0  0  0  0  0  0  0  0  0
   11.3385  -14.4751   28.2973 S   0  0  0  0  0  0  0  0  0  0  0  0
   10.8206  -15.6542   26.9894 C   0  0  0  0  0  0  0  0  0  0  0  0
   11.7890  -15.4464   25.8458 C   0  0  0  0  0  0  0  0  0  0  0  0
   11.7218  -16.5623   24.8195 C   0  0  2  0  0  0  0  0  0  0  0  0
   10.3575  -16.7365   24.3677 N   0  0  0  0  0  0  0  0  0  0  0  0
   12.2255  -17.8324   25.3306 C   0  0  0  0  0  0  0  0  0  0  0  0
   11.4711  -18.8274   25.4126 O   0  0  0  0  0  0  0  0  0  0  0  0
   13.5412  -17.9646   25.7336 O   0  0  0  0  0  0  0  0  0  0  0  0
  1  2  1  0
  3  2  1  0
  3  5  1  0
  3  4  1  6
  5  7  1  0
  5  6  1  1
  7 11  1  0
  7  8  2  0
 10  9  1  6
 10 12  1  0
 11 10  1  0
 12 13  2  0
 15 14  1  0
 15 16  1  0
 16 17  1  0
 18 17  1  1
 19 18  1  0
 19 12  1  0
 20 18  1  0
 20 22  1  0
 21 20  2  0
M  END
$$$$
