IAM.pdb
     RDKit          3D

 22 21  0  0  1  0  0  0  0  0999 V2000
    7.5159  -12.0153   19.4736 C   0  0  0  0  0  0  0  0  0  0  0  0
    7.4805  -13.5050   19.5048 C   0  0  0  0  0  0  0  0  0  0  0  0
    7.9722  -14.1120   20.7760 C   0  0  2  0  0  0  0  0  0  0  0  0
    9.4413  -13.7237   20.9369 C   0  0  0  0  0  0  0  0  0  0  0  0
    7.9060  -15.6086   20.8216 C   0  0  2  0  0  0  0  0  0  0  0  0
    6.5009  -15.9634   20.5837 N   0  0  0  0  0  0  0  0  0  0  0  0
    8.2904  -16.1201   22.1551 C   0  0  0  0  0  0  0  0  0  0  0  0
    7.5600  -15.9552   23.1813 O   0  0  0  0  0  0  0  0  0  0  0  0
   11.1754  -18.2172   23.4646 C   0  0  0  0  0  0  0  0  0  0  0  0
    9.9076  -17.4042   23.6055 C   0  0  2  0  0  0  0  0  0  0  0  0
    9.4945  -16.8196   22.3481 N   0  0  0  0  0  0  0  0  0  0  0  0
   10.2152  -16.2850   24.5342 C   0  0  0  0  0  0  0  0  0  0  0  0
   10.5251  -15.1366   24.1241 O   0  0  0  0  0  0  0  0  0  0  0  0
    6.0561  -13.0941   27.2047 C   0  0  0  0  0  0  0  0  0  0  0  0
    7.6429  -12.2096   27.0653 S   0  0  0  0  0  0  0  0  0  0  0  0
    8.9209  -13.3727   27.6842 C   0  0  0  0  0  0  0  0  0  0  0  0
    9.0011  -14.4770   26.6532 C   0  0  0  0  0  0  0  0  0  0  0  0
   10.2383  -15.3394   26.8229 C   0  0  2  0  0  0  0  0  0  0  0  0
   10.1673  -16.4844   25.9398 N   0  0  0  0  0  0  0  0  0  0  0  0
   10.4232  -15.8002   28.1946 C   0  0  0  0  0  0  0  0  0  0  0  0
   10.6275  -14.9799   29.1173 O   0  0  0  0  0  0  0  0  0  0  0  0
   10.3769  -17.1466   28.5044 O   0  0  0  0  0  0  0  0  0  0  0  0
  1  2  1  0
  3  2  1  0
  3  5  1  0
  3  4  1  6
  5  7  1  0
  5  6  1  1
  7 11  1  0
  7  8  2  0
 10  9  1  6
 10 12  1  0
 11 10  1  0
 12 13  2  0
 15 14  1  0
 15 16  1  0
 16 17  1  0
 18 17  1  1
 19 18  1  0
 19 12  1  0
 20 18  1  0
 20 22  1  0
 21 20  2  0
M  END
$$$$
