IAM.pdb
     RDKit          3D

 22 21  0  0  1  0  0  0  0  0999 V2000
    7.4723  -12.0478   19.4813 C   0  0  0  0  0  0  0  0  0  0  0  0
    7.4476  -13.5336   19.5963 C   0  0  0  0  0  0  0  0  0  0  0  0
    7.8540  -14.0605   20.9317 C   0  0  2  0  0  0  0  0  0  0  0  0
    9.3136  -13.6700   21.1594 C   0  0  0  0  0  0  0  0  0  0  0  0
    7.7717  -15.5508   21.0680 C   0  0  2  0  0  0  0  0  0  0  0  0
    6.3974  -15.9197   20.7044 N   0  0  0  0  0  0  0  0  0  0  0  0
    8.0072  -15.9734   22.4657 C   0  0  0  0  0  0  0  0  0  0  0  0
    7.1927  -15.7031   23.4024 O   0  0  0  0  0  0  0  0  0  0  0  0
   10.3915  -18.4085   24.0816 C   0  0  0  0  0  0  0  0  0  0  0  0
    9.3793  -17.2854   24.1282 C   0  0  2  0  0  0  0  0  0  0  0  0
    9.1554  -16.7013   22.8235 N   0  0  0  0  0  0  0  0  0  0  0  0
    9.9540  -16.2239   24.9957 C   0  0  0  0  0  0  0  0  0  0  0  0
   10.8880  -15.4737   24.6114 O   0  0  0  0  0  0  0  0  0  0  0  0
    5.8326  -12.0754   25.8853 C   0  0  0  0  0  0  0  0  0  0  0  0
    7.1714  -12.3008   27.1004 S   0  0  0  0  0  0  0  0  0  0  0  0
    8.1387  -13.7478   26.5176 C   0  0  0  0  0  0  0  0  0  0  0  0
    9.2460  -13.9336   27.5316 C   0  0  0  0  0  0  0  0  0  0  0  0
   10.1436  -15.1116   27.2001 C   0  0  2  0  0  0  0  0  0  0  0  0
    9.4549  -16.0225   26.3103 N   0  0  0  0  0  0  0  0  0  0  0  0
   10.5847  -15.8381   28.3857 C   0  0  0  0  0  0  0  0  0  0  0  0
   10.2009  -17.0115   28.5902 O   0  0  0  0  0  0  0  0  0  0  0  0
   11.4326  -15.2496   29.3053 O   0  0  0  0  0  0  0  0  0  0  0  0
  1  2  1  0
  3  2  1  0
  3  5  1  0
  3  4  1  6
  5  7  1  0
  5  6  1  1
  7 11  1  0
  7  8  2  0
 10  9  1  6
 10 12  1  0
 11 10  1  0
 12 13  2  0
 15 14  1  0
 15 16  1  0
 16 17  1  0
 18 17  1  1
 19 18  1  0
 19 12  1  0
 20 18  1  0
 20 22  1  0
 21 20  2  0
M  END
$$$$
