IAM.pdb
     RDKit          3D

 22 21  0  0  1  0  0  0  0  0999 V2000
    6.2855  -11.6019   26.3595 C   0  0  0  0  0  0  0  0  0  0  0  0
    5.8757  -12.9161   25.7883 C   0  0  0  0  0  0  0  0  0  0  0  0
    7.0080  -13.7859   25.3552 C   0  0  2  0  0  0  0  0  0  0  0  0
    7.7377  -13.0663   24.2218 C   0  0  0  0  0  0  0  0  0  0  0  0
    6.6001  -15.1297   24.8315 C   0  0  2  0  0  0  0  0  0  0  0  0
    5.9288  -15.8156   25.9431 N   0  0  0  0  0  0  0  0  0  0  0  0
    7.7800  -15.9316   24.4411 C   0  0  0  0  0  0  0  0  0  0  0  0
    8.4477  -16.6098   25.2825 O   0  0  0  0  0  0  0  0  0  0  0  0
    9.5459  -16.6406   21.1498 C   0  0  0  0  0  0  0  0  0  0  0  0
    9.3315  -16.7796   22.6406 C   0  0  2  0  0  0  0  0  0  0  0  0
    8.2195  -15.9798   23.1066 N   0  0  0  0  0  0  0  0  0  0  0  0
   10.5576  -16.2608   23.3019 C   0  0  0  0  0  0  0  0  0  0  0  0
   10.9123  -15.0571   23.2118 O   0  0  0  0  0  0  0  0  0  0  0  0
   10.2157  -14.0519   29.5817 C   0  0  0  0  0  0  0  0  0  0  0  0
   10.5765  -14.3769   27.8255 S   0  0  0  0  0  0  0  0  0  0  0  0
   10.8393  -16.1888   27.6949 C   0  0  0  0  0  0  0  0  0  0  0  0
   10.5114  -16.5465   26.2620 C   0  0  0  0  0  0  0  0  0  0  0  0
   11.7549  -16.7446   25.4150 C   0  0  2  0  0  0  0  0  0  0  0  0
   11.3806  -17.1273   24.0698 N   0  0  0  0  0  0  0  0  0  0  0  0
   12.6611  -17.7463   25.9659 C   0  0  0  0  0  0  0  0  0  0  0  0
   13.2941  -17.5174   27.0208 O   0  0  0  0  0  0  0  0  0  0  0  0
   12.8399  -18.9648   25.3381 O   0  0  0  0  0  0  0  0  0  0  0  0
  1  2  1  0
  3  2  1  0
  3  5  1  0
  3  4  1  6
  5  7  1  0
  5  6  1  1
  7 11  1  0
  7  8  2  0
 10  9  1  6
 10 12  1  0
 11 10  1  0
 12 13  2  0
 15 14  1  0
 15 16  1  0
 16 17  1  0
 18 17  1  1
 19 18  1  0
 19 12  1  0
 20 18  1  0
 20 22  1  0
 21 20  2  0
M  END
$$$$
