IAM.pdb
     RDKit          3D

 22 21  0  0  1  0  0  0  0  0999 V2000
    7.5356  -11.8398   18.8616 C   0  0  0  0  0  0  0  0  0  0  0  0
    7.6717  -13.3234   18.8186 C   0  0  0  0  0  0  0  0  0  0  0  0
    7.8244  -13.9725   20.1534 C   0  0  2  0  0  0  0  0  0  0  0  0
    9.0744  -13.3901   20.8115 C   0  0  0  0  0  0  0  0  0  0  0  0
    8.0039  -15.4599   20.1091 C   0  0  2  0  0  0  0  0  0  0  0  0
    6.8374  -15.9916   19.3926 N   0  0  0  0  0  0  0  0  0  0  0  0
    8.0107  -16.0380   21.4704 C   0  0  0  0  0  0  0  0  0  0  0  0
    7.0020  -15.9733   22.2399 O   0  0  0  0  0  0  0  0  0  0  0  0
   10.2939  -18.4059   23.3100 C   0  0  0  0  0  0  0  0  0  0  0  0
    9.1977  -17.3648   23.2589 C   0  0  2  0  0  0  0  0  0  0  0  0
    9.1463  -16.6924   21.9787 N   0  0  0  0  0  0  0  0  0  0  0  0
    9.5291  -16.3405   24.2839 C   0  0  0  0  0  0  0  0  0  0  0  0
   10.4535  -15.5023   24.1229 O   0  0  0  0  0  0  0  0  0  0  0  0
    7.0753  -11.3796   27.3632 C   0  0  0  0  0  0  0  0  0  0  0  0
    6.2104  -12.5640   26.2822 S   0  0  0  0  0  0  0  0  0  0  0  0
    7.5040  -13.7023   25.6499 C   0  0  0  0  0  0  0  0  0  0  0  0
    8.0517  -14.4142   26.8672 C   0  0  0  0  0  0  0  0  0  0  0  0
    9.2031  -15.3423   26.5267 C   0  0  2  0  0  0  0  0  0  0  0  0
    8.7964  -16.2777   25.4993 N   0  0  0  0  0  0  0  0  0  0  0  0
    9.6949  -16.0821   27.6838 C   0  0  0  0  0  0  0  0  0  0  0  0
    9.3914  -17.2855   27.8434 O   0  0  0  0  0  0  0  0  0  0  0  0
   10.5035  -15.4732   28.6253 O   0  0  0  0  0  0  0  0  0  0  0  0
  1  2  1  0
  3  2  1  0
  3  5  1  0
  3  4  1  6
  5  7  1  0
  5  6  1  6
  7 11  1  0
  7  8  2  0
 10  9  1  6
 10 12  1  0
 11 10  1  0
 12 13  2  0
 15 14  1  0
 15 16  1  0
 16 17  1  0
 18 17  1  1
 19 18  1  0
 19 12  1  0
 20 18  1  0
 20 22  1  0
 21 20  2  0
M  END
$$$$
