IAM.pdb
     RDKit          3D

 22 21  0  0  1  0  0  0  0  0999 V2000
    8.1896  -11.8499   20.7158 C   0  0  0  0  0  0  0  0  0  0  0  0
    7.7105  -13.2232   21.0412 C   0  0  0  0  0  0  0  0  0  0  0  0
    8.1454  -14.2775   20.0791 C   0  0  2  0  0  0  0  0  0  0  0  0
    7.6320  -13.8820   18.6952 C   0  0  0  0  0  0  0  0  0  0  0  0
    7.6132  -15.6480   20.3698 C   0  0  2  0  0  0  0  0  0  0  0  0
    6.1586  -15.5703   20.1831 N   0  0  0  0  0  0  0  0  0  0  0  0
    7.8771  -16.0375   21.7720 C   0  0  0  0  0  0  0  0  0  0  0  0
    7.3549  -15.4261   22.7555 O   0  0  0  0  0  0  0  0  0  0  0  0
   10.8288  -15.9648   21.5462 C   0  0  0  0  0  0  0  0  0  0  0  0
   10.1266  -16.9782   22.4225 C   0  0  2  0  0  0  0  0  0  0  0  0
    8.7268  -17.1136   22.0820 N   0  0  0  0  0  0  0  0  0  0  0  0
   10.1955  -16.4637   23.8154 C   0  0  0  0  0  0  0  0  0  0  0  0
   11.2754  -16.0897   24.3416 O   0  0  0  0  0  0  0  0  0  0  0  0
    6.6187  -11.3676   26.5869 C   0  0  0  0  0  0  0  0  0  0  0  0
    6.1530  -13.0949   26.2417 S   0  0  0  0  0  0  0  0  0  0  0  0
    7.6570  -13.8916   25.5546 C   0  0  0  0  0  0  0  0  0  0  0  0
    7.8465  -15.1626   26.3530 C   0  0  0  0  0  0  0  0  0  0  0  0
    9.1157  -15.9024   25.9722 C   0  0  2  0  0  0  0  0  0  0  0  0
    9.0199  -16.3782   24.6082 N   0  0  0  0  0  0  0  0  0  0  0  0
    9.4016  -17.0276   26.8556 C   0  0  0  0  0  0  0  0  0  0  0  0
    9.2787  -18.2034   26.4454 O   0  0  0  0  0  0  0  0  0  0  0  0
    9.8128  -16.8211   28.1591 O   0  0  0  0  0  0  0  0  0  0  0  0
  1  2  1  0
  3  2  1  0
  3  5  1  0
  3  4  1  6
  5  7  1  0
  5  6  1  1
  7 11  1  0
  7  8  2  0
 10  9  1  6
 10 12  1  0
 11 10  1  0
 12 13  2  0
 15 14  1  0
 15 16  1  0
 16 17  1  0
 18 17  1  1
 19 18  1  0
 19 12  1  0
 20 18  1  0
 20 22  1  0
 21 20  2  0
M  END
$$$$
