IAM.pdb
     RDKit          3D

 22 21  0  0  1  0  0  0  0  0999 V2000
    6.3533  -11.6106   26.7337 C   0  0  0  0  0  0  0  0  0  0  0  0
    5.9181  -12.8575   26.0428 C   0  0  0  0  0  0  0  0  0  0  0  0
    7.0332  -13.7456   25.6023 C   0  0  2  0  0  0  0  0  0  0  0  0
    7.9086  -12.9466   24.6379 C   0  0  0  0  0  0  0  0  0  0  0  0
    6.5985  -14.9836   24.8779 C   0  0  2  0  0  0  0  0  0  0  0  0
    5.8474  -15.7855   25.8524 N   0  0  0  0  0  0  0  0  0  0  0  0
    7.7633  -15.7769   24.4292 C   0  0  0  0  0  0  0  0  0  0  0  0
    8.4594  -16.4734   25.2318 O   0  0  0  0  0  0  0  0  0  0  0  0
    9.5346  -16.2526   21.1006 C   0  0  0  0  0  0  0  0  0  0  0  0
    9.3045  -16.5152   22.5724 C   0  0  2  0  0  0  0  0  0  0  0  0
    8.1559  -15.7960   23.0795 N   0  0  0  0  0  0  0  0  0  0  0  0
   10.5002  -16.0040   23.2927 C   0  0  0  0  0  0  0  0  0  0  0  0
   10.7220  -14.7743   23.4399 O   0  0  0  0  0  0  0  0  0  0  0  0
    9.5039  -13.6241   28.7018 C   0  0  0  0  0  0  0  0  0  0  0  0
   10.8188  -14.8482   28.3976 S   0  0  0  0  0  0  0  0  0  0  0  0
   11.0913  -14.8501   26.5825 C   0  0  0  0  0  0  0  0  0  0  0  0
   11.1804  -16.3071   26.1848 C   0  0  0  0  0  0  0  0  0  0  0  0
   12.1610  -16.5392   25.0500 C   0  0  2  0  0  0  0  0  0  0  0  0
   11.4457  -16.9079   23.8466 N   0  0  0  0  0  0  0  0  0  0  0  0
   13.1488  -17.5677   25.3572 C   0  0  0  0  0  0  0  0  0  0  0  0
   12.9031  -18.7727   25.1258 O   0  0  0  0  0  0  0  0  0  0  0  0
   14.3725  -17.2359   25.9079 O   0  0  0  0  0  0  0  0  0  0  0  0
  1  2  1  0
  3  2  1  0
  3  5  1  0
  3  4  1  6
  5  7  1  0
  5  6  1  1
  7 11  1  0
  7  8  2  0
 10  9  1  6
 10 12  1  0
 11 10  1  0
 12 13  2  0
 15 14  1  0
 15 16  1  0
 16 17  1  0
 18 17  1  1
 19 18  1  0
 19 12  1  0
 20 18  1  0
 20 22  1  0
 21 20  2  0
M  END
$$$$
