IAM.pdb
     RDKit          3D

 22 21  0  0  1  0  0  0  0  0999 V2000
    7.6705  -11.7292   19.1248 C   0  0  0  0  0  0  0  0  0  0  0  0
    7.7947  -13.1935   18.8763 C   0  0  0  0  0  0  0  0  0  0  0  0
    7.9709  -14.0200   20.1061 C   0  0  2  0  0  0  0  0  0  0  0  0
    9.2439  -13.5449   20.8051 C   0  0  0  0  0  0  0  0  0  0  0  0
    8.1297  -15.4891   19.8554 C   0  0  2  0  0  0  0  0  0  0  0  0
    6.9061  -15.9215   19.1678 N   0  0  0  0  0  0  0  0  0  0  0  0
    8.2337  -16.2397   21.1255 C   0  0  0  0  0  0  0  0  0  0  0  0
    7.2933  -16.2617   21.9793 O   0  0  0  0  0  0  0  0  0  0  0  0
   10.8861  -18.4465   22.7167 C   0  0  0  0  0  0  0  0  0  0  0  0
    9.6188  -17.6207   22.7200 C   0  0  2  0  0  0  0  0  0  0  0  0
    9.3905  -16.9706   21.4477 N   0  0  0  0  0  0  0  0  0  0  0  0
    9.8045  -16.5517   23.7362 C   0  0  0  0  0  0  0  0  0  0  0  0
   10.6431  -15.6250   23.5920 O   0  0  0  0  0  0  0  0  0  0  0  0
    6.4131  -10.9690   27.3282 C   0  0  0  0  0  0  0  0  0  0  0  0
    6.2541  -12.5558   26.4471 S   0  0  0  0  0  0  0  0  0  0  0  0
    7.8266  -13.4543   26.7453 C   0  0  0  0  0  0  0  0  0  0  0  0
    7.8161  -14.6245   25.7865 C   0  0  0  0  0  0  0  0  0  0  0  0
    9.1100  -15.4167   25.8247 C   0  0  2  0  0  0  0  0  0  0  0  0
    9.0245  -16.5463   24.9234 N   0  0  0  0  0  0  0  0  0  0  0  0
    9.4429  -15.8926   27.1629 C   0  0  0  0  0  0  0  0  0  0  0  0
    9.6212  -15.0812   28.0988 O   0  0  0  0  0  0  0  0  0  0  0  0
    9.5680  -17.2439   27.4259 O   0  0  0  0  0  0  0  0  0  0  0  0
  1  2  1  0
  3  2  1  0
  3  5  1  0
  3  4  1  6
  5  7  1  0
  5  6  1  1
  7 11  1  0
  7  8  2  0
 10  9  1  6
 10 12  1  0
 11 10  1  0
 12 13  2  0
 15 14  1  0
 15 16  1  0
 16 17  1  0
 18 17  1  1
 19 18  1  0
 19 12  1  0
 20 18  1  0
 20 22  1  0
 21 20  2  0
M  END
$$$$
