MRT.pdb
     RDKit          3D

 27 26  0  0  1  0  0  0  0  0999 V2000
   12.4902   -5.7770   -8.5548 C   0  0  0  0  0  0  0  0  0  0  0  0
   11.4697   -7.0956   -7.8766 S   0  0  0  0  0  0  0  0  0  0  0  0
   11.6179   -8.5547   -8.9541 C   0  0  0  0  0  0  0  0  0  0  0  0
   13.0580   -8.7072   -9.3505 C   0  0  0  0  0  0  0  0  0  0  0  0
   13.2037   -9.8339  -10.3580 C   0  0  2  0  0  0  0  0  0  0  0  0
   12.8903  -11.0890   -9.7164 N   0  0  0  0  0  0  0  0  0  0  0  0
   14.6152   -9.8208  -10.8297 C   0  0  0  0  0  0  0  0  0  0  0  0
   15.4451  -10.5572  -10.2420 O   0  0  0  0  0  0  0  0  0  0  0  0
   18.6885  -12.9798  -16.3016 N   0  0  0  0  0  0  0  0  0  0  0  0
   17.2860  -13.2146  -16.3427 C   0  0  0  0  0  0  0  0  0  0  0  0
   16.8663  -14.4052  -16.5700 N   0  0  0  0  0  0  0  0  0  0  0  0
   16.4154  -12.1318  -16.1318 N   0  0  0  0  0  0  0  0  0  0  0  0
   16.9554  -10.8426  -15.7813 C   0  0  0  0  0  0  0  0  0  0  0  0
   16.8064  -10.6862  -14.2935 C   0  0  0  0  0  0  0  0  0  0  0  0
   16.2617   -9.3395  -13.9288 C   0  0  0  0  0  0  0  0  0  0  0  0
   16.4022   -9.1173  -12.4535 C   0  0  2  0  0  0  0  0  0  0  0  0
   15.0650   -9.0250  -11.9003 N   0  0  0  0  0  0  0  0  0  0  0  0
   17.1170   -7.8179  -12.1772 C   0  0  0  0  0  0  0  0  0  0  0  0
   16.5195   -6.7325  -12.3584 O   0  0  0  0  0  0  0  0  0  0  0  0
   15.8684  -14.6335  -16.6122 C   0  0  0  0  0  0  0  0  0  0  0  0
   20.5097   -5.2283   -9.8287 C   0  0  2  0  0  0  0  0  0  0  0  0
   19.7603   -6.5260  -10.0422 O   0  0  0  0  0  0  0  0  0  0  0  0
   18.7649   -6.6222   -9.0631 C   0  0  1  0  0  0  0  0  0  0  0  0
   19.1303   -6.5114  -11.4159 N   0  0  0  0  0  0  0  0  0  0  0  0
   18.4554   -7.7602  -11.7145 C   0  0  0  0  0  0  0  0  0  0  0  0
   20.1610   -6.2439  -12.4571 O   0  0  0  0  0  0  0  0  0  0  0  0
   20.7253   -7.1930  -13.0585 O   0  0  0  0  0  0  0  0  0  0  0  0
  2  1  1  0
  3  4  1  0
  3  2  1  0
  4  5  1  0
  5  6  1  1
  7  8  2  0
  7  5  1  0
 10  9  1  0
 11 10  2  0
 12 10  1  0
 13 12  1  0
 14 13  1  0
 14 15  1  0
 16 15  1  6
 16 17  1  0
 17  7  1  0
 18 19  2  0
 18 16  1  0
 21 20  1  1
 21 22  1  0
 23 21  1  0
 23 24  1  1
 24 18  1  0
 25 23  1  0
 26 25  2  0
 27 25  1  0
M  END
$$$$
