MRT.pdb
     RDKit          3D

 27 26  0  0  1  0  0  0  0  0999 V2000
   28.0120  -22.2122   -4.0898 C   0  0  0  0  0  0  0  0  0  0  0  0
   27.8253  -20.4579   -3.7327 S   0  0  0  0  0  0  0  0  0  0  0  0
   28.3592  -19.5100   -5.1916 C   0  0  0  0  0  0  0  0  0  0  0  0
   27.4405  -19.8385   -6.3328 C   0  0  0  0  0  0  0  0  0  0  0  0
   27.9051  -19.1326   -7.5944 C   0  0  2  0  0  0  0  0  0  0  0  0
   27.9251  -17.7076   -7.3622 N   0  0  0  0  0  0  0  0  0  0  0  0
   26.9381  -19.4779   -8.6717 C   0  0  0  0  0  0  0  0  0  0  0  0
   25.8868  -18.7982   -8.7670 O   0  0  0  0  0  0  0  0  0  0  0  0
   28.8636  -23.1683  -15.8043 N   0  0  0  0  0  0  0  0  0  0  0  0
   28.0169  -22.1456  -16.3154 C   0  0  0  0  0  0  0  0  0  0  0  0
   28.0917  -21.8480  -17.5609 N   0  0  0  0  0  0  0  0  0  0  0  0
   27.1309  -21.5021  -15.4346 N   0  0  0  0  0  0  0  0  0  0  0  0
   27.0894  -21.9003  -14.0504 C   0  0  0  0  0  0  0  0  0  0  0  0
   27.6078  -20.7459  -13.2385 C   0  0  0  0  0  0  0  0  0  0  0  0
   27.7857  -21.1161  -11.7981 C   0  0  0  0  0  0  0  0  0  0  0  0
   26.7153  -20.4704  -10.9718 C   0  0  2  0  0  0  0  0  0  0  0  0
   27.1435  -20.5272   -9.5876 N   0  0  0  0  0  0  0  0  0  0  0  0
   25.4177  -21.2300  -11.0949 C   0  0  0  0  0  0  0  0  0  0  0  0
   25.3061  -22.3552  -10.5570 O   0  0  0  0  0  0  0  0  0  0  0  0
   27.5856  -21.0535  -17.9636 C   0  0  0  0  0  0  0  0  0  0  0  0
   22.0391  -20.8499   -9.8598 C   0  0  2  0  0  0  0  0  0  0  0  0
   21.8836  -20.8239  -11.3653 O   0  0  0  0  0  0  0  0  0  0  0  0
   21.8160  -19.4873  -11.7747 C   0  0  2  0  0  0  0  0  0  0  0  0
   23.0817  -21.4949  -11.9965 N   0  0  0  0  0  0  0  0  0  0  0  0
   24.2966  -20.7269  -11.8014 C   0  0  0  0  0  0  0  0  0  0  0  0
   22.8541  -21.7003  -13.4539 O   0  0  0  0  0  0  0  0  0  0  0  0
   23.5456  -21.0830  -14.3034 O   0  0  0  0  0  0  0  0  0  0  0  0
  2  1  1  0
  3  4  1  0
  3  2  1  0
  4  5  1  0
  5  6  1  1
  7  8  2  0
  7  5  1  0
 10  9  1  0
 11 10  2  0
 12 10  1  0
 13 12  1  0
 14 13  1  0
 14 15  1  0
 16 15  1  6
 16 17  1  0
 17  7  1  0
 18 19  2  0
 18 16  1  0
 21 20  1  1
 21 22  1  0
 23 21  1  0
 23 24  1  6
 24 18  1  0
 25 23  1  0
 26 25  2  0
 27 25  1  0
M  END
$$$$
