MRT.pdb
     RDKit          3D

 27 26  0  0  1  0  0  0  0  0999 V2000
   10.2126  -11.7398   -9.8299 C   0  0  0  0  0  0  0  0  0  0  0  0
    9.6977  -11.3743  -11.5156 S   0  0  0  0  0  0  0  0  0  0  0  0
   10.9961  -11.9473  -12.6546 C   0  0  0  0  0  0  0  0  0  0  0  0
   12.3160  -11.4161  -12.1750 C   0  0  0  0  0  0  0  0  0  0  0  0
   13.4426  -11.9782  -13.0240 C   0  0  2  0  0  0  0  0  0  0  0  0
   13.6436  -13.3679  -12.6877 N   0  0  0  0  0  0  0  0  0  0  0  0
   14.6613  -11.1802  -12.7196 C   0  0  0  0  0  0  0  0  0  0  0  0
   15.5126  -11.6702  -11.9376 O   0  0  0  0  0  0  0  0  0  0  0  0
   21.9228   -9.8078  -14.0909 N   0  0  0  0  0  0  0  0  0  0  0  0
   21.6194   -8.4517  -14.3957 C   0  0  0  0  0  0  0  0  0  0  0  0
   22.5364   -7.7142  -14.9061 N   0  0  0  0  0  0  0  0  0  0  0  0
   20.3257   -7.9739  -14.1258 N   0  0  0  0  0  0  0  0  0  0  0  0
   19.1845   -8.7994  -14.4304 C   0  0  0  0  0  0  0  0  0  0  0  0
   17.9546   -7.9845  -14.1412 C   0  0  0  0  0  0  0  0  0  0  0  0
   16.7018   -8.7808  -14.3403 C   0  0  0  0  0  0  0  0  0  0  0  0
   16.1188   -9.1514  -13.0104 C   0  0  2  0  0  0  0  0  0  0  0  0
   14.9064   -9.9054  -13.2642 N   0  0  0  0  0  0  0  0  0  0  0  0
   15.7498   -7.9151  -12.2286 C   0  0  0  0  0  0  0  0  0  0  0  0
   14.6419   -7.3661  -12.4261 O   0  0  0  0  0  0  0  0  0  0  0  0
   22.3574   -6.7520  -15.2093 C   0  0  0  0  0  0  0  0  0  0  0  0
   16.7471   -4.7100   -8.5619 C   0  0  1  0  0  0  0  0  0  0  0  0
   17.1589   -5.9656   -9.3004 O   0  0  0  0  0  0  0  0  0  0  0  0
   17.0563   -7.0460   -8.4167 C   0  0  1  0  0  0  0  0  0  0  0  0
   16.2317   -6.1729  -10.4757 N   0  0  0  0  0  0  0  0  0  0  0  0
   16.6080   -7.3312  -11.2636 C   0  0  0  0  0  0  0  0  0  0  0  0
   16.2184   -4.9647  -11.3463 O   0  0  0  0  0  0  0  0  0  0  0  0
   17.1319   -4.7720  -12.1885 O   0  0  0  0  0  0  0  0  0  0  0  0
  2  1  1  0
  3  4  1  0
  3  2  1  0
  4  5  1  0
  5  6  1  1
  7  8  2  0
  7  5  1  0
 10  9  1  0
 11 10  2  0
 12 10  1  0
 13 12  1  0
 14 13  1  0
 14 15  1  0
 16 15  1  6
 16 17  1  0
 17  7  1  0
 18 19  2  0
 18 16  1  0
 21 20  1  1
 21 22  1  0
 23 21  1  0
 23 24  1  6
 24 18  1  0
 25 23  1  0
 26 25  2  0
 27 25  1  0
M  END
$$$$
