MRT.pdb
     RDKit          3D

 27 26  0  0  1  0  0  0  0  0999 V2000
   22.2994  -13.4888  -15.6545 C   0  0  0  0  0  0  0  0  0  0  0  0
   23.3581  -12.0965  -16.0796 S   0  0  0  0  0  0  0  0  0  0  0  0
   24.9947  -12.7367  -16.5522 C   0  0  0  0  0  0  0  0  0  0  0  0
   24.9367  -14.2370  -16.5466 C   0  0  0  0  0  0  0  0  0  0  0  0
   26.3318  -14.8122  -16.7167 C   0  0  2  0  0  0  0  0  0  0  0  0
   26.7638  -14.6165  -18.0805 N   0  0  0  0  0  0  0  0  0  0  0  0
   26.2510  -16.2624  -16.3920 C   0  0  0  0  0  0  0  0  0  0  0  0
   25.8050  -17.0436  -17.2679 O   0  0  0  0  0  0  0  0  0  0  0  0
   25.9729  -20.7992   -9.4192 N   0  0  0  0  0  0  0  0  0  0  0  0
   26.1166  -21.5687  -10.6071 C   0  0  0  0  0  0  0  0  0  0  0  0
   25.1558  -22.3411  -10.9618 N   0  0  0  0  0  0  0  0  0  0  0  0
   27.3063  -21.4514  -11.3458 N   0  0  0  0  0  0  0  0  0  0  0  0
   27.7321  -20.1545  -11.8074 C   0  0  0  0  0  0  0  0  0  0  0  0
   26.9040  -19.8172  -13.0160 C   0  0  0  0  0  0  0  0  0  0  0  0
   27.2126  -18.4466  -13.5352 C   0  0  0  0  0  0  0  0  0  0  0  0
   26.4058  -18.1773  -14.7691 C   0  0  2  0  0  0  0  0  0  0  0  0
   26.6492  -16.8005  -15.1536 N   0  0  0  0  0  0  0  0  0  0  0  0
   24.9324  -18.3338  -14.4855 C   0  0  0  0  0  0  0  0  0  0  0  0
   24.3837  -17.5941  -13.6372 O   0  0  0  0  0  0  0  0  0  0  0  0
   25.2258  -22.9621  -11.7736 C   0  0  0  0  0  0  0  0  0  0  0  0
   22.3841  -20.6962  -16.9937 C   0  0  2  0  0  0  0  0  0  0  0  0
   21.9295  -19.4697  -16.2319 O   0  0  0  0  0  0  0  0  0  0  0  0
   20.5592  -19.5964  -15.9770 C   0  0  1  0  0  0  0  0  0  0  0  0
   22.6896  -19.3892  -14.9280 N   0  0  0  0  0  0  0  0  0  0  0  0
   24.1210  -19.2929  -15.1417 C   0  0  0  0  0  0  0  0  0  0  0  0
   22.3940  -20.5774  -14.0803 O   0  0  0  0  0  0  0  0  0  0  0  0
   23.2823  -21.4369  -13.8500 O   0  0  0  0  0  0  0  0  0  0  0  0
  2  1  1  0
  3  4  1  0
  3  2  1  0
  4  5  1  0
  5  6  1  6
  7  8  2  0
  7  5  1  0
 10  9  1  0
 11 10  2  0
 12 10  1  0
 13 12  1  0
 14 13  1  0
 14 15  1  0
 16 15  1  1
 16 17  1  0
 17  7  1  0
 18 19  2  0
 18 16  1  0
 21 20  1  6
 21 22  1  0
 23 21  1  0
 23 24  1  6
 24 18  1  0
 25 23  1  0
 26 25  2  0
 27 25  1  0
M  END
$$$$
