MRT.pdb
     RDKit          3D

 27 26  0  0  1  0  0  0  0  0999 V2000
   33.1878  -20.9959   -8.1477 C   0  0  0  0  0  0  0  0  0  0  0  0
   32.9240  -22.2883   -9.3724 S   0  0  0  0  0  0  0  0  0  0  0  0
   31.2627  -22.9892   -9.1259 C   0  0  0  0  0  0  0  0  0  0  0  0
   30.4407  -22.7023  -10.3491 C   0  0  0  0  0  0  0  0  0  0  0  0
   29.8989  -21.2849  -10.2912 C   0  0  2  0  0  0  0  0  0  0  0  0
   29.4475  -21.0029   -8.9489 N   0  0  0  0  0  0  0  0  0  0  0  0
   28.7677  -21.2078  -11.2552 C   0  0  0  0  0  0  0  0  0  0  0  0
   28.9496  -21.6384  -12.4205 O   0  0  0  0  0  0  0  0  0  0  0  0
   20.0517  -20.0103  -10.0560 N   0  0  0  0  0  0  0  0  0  0  0  0
   20.2274  -20.4314  -11.4035 C   0  0  0  0  0  0  0  0  0  0  0  0
   19.1878  -20.6278  -12.1289 N   0  0  0  0  0  0  0  0  0  0  0  0
   21.5341  -20.6148  -11.8869 N   0  0  0  0  0  0  0  0  0  0  0  0
   22.6550  -20.3946  -11.0085 C   0  0  0  0  0  0  0  0  0  0  0  0
   23.9031  -20.6639  -11.8022 C   0  0  0  0  0  0  0  0  0  0  0  0
   25.1327  -20.5678  -10.9523 C   0  0  0  0  0  0  0  0  0  0  0  0
   26.3527  -20.7655  -11.7999 C   0  0  2  0  0  0  0  0  0  0  0  0
   27.5062  -20.6770  -10.9257 N   0  0  0  0  0  0  0  0  0  0  0  0
   26.4624  -19.6748  -12.8363 C   0  0  0  0  0  0  0  0  0  0  0  0
   26.7732  -18.5145  -12.4828 O   0  0  0  0  0  0  0  0  0  0  0  0
   19.2514  -20.9682  -13.0931 C   0  0  0  0  0  0  0  0  0  0  0  0
   27.1430  -18.1674  -17.4340 C   0  0  2  0  0  0  0  0  0  0  0  0
   27.0644  -19.3125  -16.4470 O   0  0  0  0  0  0  0  0  0  0  0  0
   28.3695  -19.6898  -16.1105 C   0  0  1  0  0  0  0  0  0  0  0  0
   26.3286  -18.8486  -15.2111 N   0  0  0  0  0  0  0  0  0  0  0  0
   26.2274  -19.8990  -14.2159 C   0  0  0  0  0  0  0  0  0  0  0  0
   24.9640  -18.3707  -15.5677 O   0  0  0  0  0  0  0  0  0  0  0  0
   24.0233  -19.1876  -15.7373 O   0  0  0  0  0  0  0  0  0  0  0  0
  2  1  1  0
  3  4  1  0
  3  2  1  0
  4  5  1  0
  5  6  1  1
  7  8  2  0
  7  5  1  0
 10  9  1  0
 11 10  2  0
 12 10  1  0
 13 12  1  0
 14 13  1  0
 14 15  1  0
 16 15  1  1
 16 17  1  0
 17  7  1  0
 18 19  2  0
 18 16  1  0
 21 20  1  6
 21 22  1  0
 23 21  1  0
 23 24  1  6
 24 18  1  0
 25 23  1  0
 26 25  2  0
 27 25  1  0
M  END
$$$$
