MRT.pdb
     RDKit          3D

 27 26  0  0  1  0  0  0  0  0999 V2000
   28.3002  -21.5732   -8.3163 C   0  0  0  0  0  0  0  0  0  0  0  0
   29.7636  -21.9043   -9.3107 S   0  0  0  0  0  0  0  0  0  0  0  0
   29.3598  -21.5908  -11.0573 C   0  0  0  0  0  0  0  0  0  0  0  0
   27.9918  -20.9756  -11.1247 C   0  0  0  0  0  0  0  0  0  0  0  0
   27.5524  -20.8416  -12.5721 C   0  0  2  0  0  0  0  0  0  0  0  0
   28.5635  -20.1232  -13.3114 N   0  0  0  0  0  0  0  0  0  0  0  0
   26.2665  -20.0924  -12.5725 C   0  0  0  0  0  0  0  0  0  0  0  0
   26.2698  -18.9060  -12.1618 O   0  0  0  0  0  0  0  0  0  0  0  0
   25.3705  -20.2596  -19.0995 N   0  0  0  0  0  0  0  0  0  0  0  0
   24.0067  -19.8801  -18.9589 C   0  0  0  0  0  0  0  0  0  0  0  0
   23.1747  -20.2187  -19.8747 N   0  0  0  0  0  0  0  0  0  0  0  0
   23.6247  -19.1493  -17.8210 N   0  0  0  0  0  0  0  0  0  0  0  0
   24.6032  -18.8495  -16.8065 C   0  0  0  0  0  0  0  0  0  0  0  0
   24.3083  -19.7340  -15.6272 C   0  0  0  0  0  0  0  0  0  0  0  0
   24.1143  -18.9395  -14.3724 C   0  0  0  0  0  0  0  0  0  0  0  0
   23.8479  -19.8629  -13.2226 C   0  0  2  0  0  0  0  0  0  0  0  0
   25.0489  -20.6473  -13.0100 N   0  0  0  0  0  0  0  0  0  0  0  0
   22.7195  -20.8089  -13.5509 C   0  0  0  0  0  0  0  0  0  0  0  0
   22.9332  -21.7913  -14.2973 O   0  0  0  0  0  0  0  0  0  0  0  0
   22.1855  -19.9543  -19.8384 C   0  0  0  0  0  0  0  0  0  0  0  0
   19.8623  -21.9069  -10.8597 C   0  0  2  0  0  0  0  0  0  0  0  0
   19.2764  -21.5196  -12.2007 O   0  0  0  0  0  0  0  0  0  0  0  0
   18.8159  -20.2010  -12.1121 C   0  0  2  0  0  0  0  0  0  0  0  0
   20.3534  -21.6181  -13.2563 N   0  0  0  0  0  0  0  0  0  0  0  0
   21.4048  -20.6405  -13.0490 C   0  0  0  0  0  0  0  0  0  0  0  0
   19.7684  -21.4363  -14.6138 O   0  0  0  0  0  0  0  0  0  0  0  0
   20.0286  -20.4094  -15.2910 O   0  0  0  0  0  0  0  0  0  0  0  0
  2  1  1  0
  3  4  1  0
  3  2  1  0
  4  5  1  0
  5  6  1  6
  7  8  2  0
  7  5  1  0
 10  9  1  0
 11 10  2  0
 12 10  1  0
 13 12  1  0
 14 13  1  0
 14 15  1  0
 16 15  1  6
 16 17  1  0
 17  7  1  0
 18 19  2  0
 18 16  1  0
 21 20  1  1
 21 22  1  0
 23 21  1  0
 23 24  1  6
 24 18  1  0
 25 23  1  0
 26 25  2  0
 27 25  1  0
M  END
$$$$
