MRT.pdb
     RDKit          3D

 27 26  0  0  1  0  0  0  0  0999 V2000
   20.9400  -16.7761  -19.0943 C   0  0  0  0  0  0  0  0  0  0  0  0
   22.2314  -16.8748  -20.3444 S   0  0  0  0  0  0  0  0  0  0  0  0
   23.7482  -17.5055  -19.5612 C   0  0  0  0  0  0  0  0  0  0  0  0
   23.3845  -18.6824  -18.7027 C   0  0  0  0  0  0  0  0  0  0  0  0
   24.5854  -19.1185  -17.8820 C   0  0  2  0  0  0  0  0  0  0  0  0
   25.5185  -19.8138  -18.7369 N   0  0  0  0  0  0  0  0  0  0  0  0
   24.0805  -20.0189  -16.8099 C   0  0  0  0  0  0  0  0  0  0  0  0
   23.9560  -21.2409  -17.0699 O   0  0  0  0  0  0  0  0  0  0  0  0
   26.2129  -22.3571  -10.2925 N   0  0  0  0  0  0  0  0  0  0  0  0
   26.3702  -21.2226  -11.1364 C   0  0  0  0  0  0  0  0  0  0  0  0
   27.3674  -21.1869  -11.9424 N   0  0  0  0  0  0  0  0  0  0  0  0
   25.4253  -20.1857  -11.0539 N   0  0  0  0  0  0  0  0  0  0  0  0
   24.0494  -20.4985  -10.7614 C   0  0  0  0  0  0  0  0  0  0  0  0
   23.3879  -20.8596  -12.0623 C   0  0  0  0  0  0  0  0  0  0  0  0
   23.8620  -19.9902  -13.1860 C   0  0  0  0  0  0  0  0  0  0  0  0
   23.2500  -20.4476  -14.4752 C   0  0  2  0  0  0  0  0  0  0  0  0
   23.7363  -19.5690  -15.5212 N   0  0  0  0  0  0  0  0  0  0  0  0
   21.7470  -20.3293  -14.4216 C   0  0  0  0  0  0  0  0  0  0  0  0
   21.2209  -19.2084  -14.2352 O   0  0  0  0  0  0  0  0  0  0  0  0
   27.5136  -20.4115  -12.5959 C   0  0  0  0  0  0  0  0  0  0  0  0
   19.2022  -23.7726  -14.7264 C   0  0  2  0  0  0  0  0  0  0  0  0
   18.7469  -22.4336  -15.2662 O   0  0  0  0  0  0  0  0  0  0  0  0
   17.3616  -22.3398  -15.0909 C   0  0  1  0  0  0  0  0  0  0  0  0
   19.4382  -21.3312  -14.4974 N   0  0  0  0  0  0  0  0  0  0  0  0
   20.8824  -21.4420  -14.5742 C   0  0  0  0  0  0  0  0  0  0  0  0
   19.0151  -21.3495  -13.0697 O   0  0  0  0  0  0  0  0  0  0  0  0
   19.8112  -21.7215  -12.1705 O   0  0  0  0  0  0  0  0  0  0  0  0
  2  1  1  0
  3  4  1  0
  3  2  1  0
  4  5  1  0
  5  6  1  6
  7  8  2  0
  7  5  1  0
 10  9  1  0
 11 10  2  0
 12 10  1  0
 13 12  1  0
 14 13  1  0
 14 15  1  0
 16 15  1  1
 16 17  1  0
 17  7  1  0
 18 19  2  0
 18 16  1  0
 21 20  1  6
 21 22  1  0
 23 21  1  0
 23 24  1  6
 24 18  1  0
 25 23  1  0
 26 25  2  0
 27 25  1  0
M  END
$$$$
