MRT.pdb
     RDKit          3D

 27 26  0  0  1  0  0  0  0  0999 V2000
   26.2615   -6.9454    7.9836 C   0  0  0  0  0  0  0  0  0  0  0  0
   25.3688   -8.4754    8.3031 S   0  0  0  0  0  0  0  0  0  0  0  0
   23.5846   -8.1440    8.1666 C   0  0  0  0  0  0  0  0  0  0  0  0
   22.8434   -9.4239    8.4252 C   0  0  0  0  0  0  0  0  0  0  0  0
   21.3483   -9.1960    8.2880 C   0  0  2  0  0  0  0  0  0  0  0  0
   20.8971   -8.3416    9.3610 N   0  0  0  0  0  0  0  0  0  0  0  0
   20.6925  -10.5298    8.3645 C   0  0  0  0  0  0  0  0  0  0  0  0
   20.5043  -11.0354    9.4982 O   0  0  0  0  0  0  0  0  0  0  0  0
   15.9898  -15.2462    2.5097 N   0  0  0  0  0  0  0  0  0  0  0  0
   16.9684  -16.0502    3.1576 C   0  0  0  0  0  0  0  0  0  0  0  0
   17.2535  -17.1969    2.6584 N   0  0  0  0  0  0  0  0  0  0  0  0
   17.5850  -15.5552    4.3193 N   0  0  0  0  0  0  0  0  0  0  0  0
   17.3252  -14.2021    4.7413 C   0  0  0  0  0  0  0  0  0  0  0  0
   18.0764  -13.9833    6.0251 C   0  0  0  0  0  0  0  0  0  0  0  0
   18.8991  -12.7324    5.9804 C   0  0  0  0  0  0  0  0  0  0  0  0
   19.5574  -12.5098    7.3080 C   0  0  2  0  0  0  0  0  0  0  0  0
   20.2734  -11.2512    7.2306 N   0  0  0  0  0  0  0  0  0  0  0  0
   20.5563  -13.6030    7.5961 C   0  0  0  0  0  0  0  0  0  0  0  0
   21.6033  -13.6798    6.9138 O   0  0  0  0  0  0  0  0  0  0  0  0
   17.9519  -17.8172    3.0794 C   0  0  0  0  0  0  0  0  0  0  0  0
   22.5341  -16.9350   10.5848 C   0  0  2  0  0  0  0  0  0  0  0  0
   21.4147  -15.9407   10.3614 O   0  0  0  0  0  0  0  0  0  0  0  0
   21.7137  -14.7773   11.0796 C   0  0  1  0  0  0  0  0  0  0  0  0
   21.3228  -15.6249    8.8863 N   0  0  0  0  0  0  0  0  0  0  0  0
   20.3678  -14.5664    8.6185 C   0  0  0  0  0  0  0  0  0  0  0  0
   20.9420  -16.8420    8.1172 O   0  0  0  0  0  0  0  0  0  0  0  0
   19.7322  -17.1292    7.9306 O   0  0  0  0  0  0  0  0  0  0  0  0
  2  1  1  0
  3  4  1  0
  3  2  1  0
  4  5  1  0
  5  6  1  1
  7  8  2  0
  7  5  1  0
 10  9  1  0
 11 10  2  0
 12 10  1  0
 13 12  1  0
 14 13  1  0
 14 15  1  0
 16 15  1  6
 16 17  1  0
 17  7  1  0
 18 19  2  0
 18 16  1  0
 21 20  1  1
 21 22  1  0
 23 21  1  0
 23 24  1  1
 24 18  1  0
 25 23  1  0
 26 25  2  0
 27 25  1  0
M  END
$$$$
