MRT.pdb
     RDKit          3D

 27 26  0  0  1  0  0  0  0  0999 V2000
   26.8450  -16.5144  -15.5031 C   0  0  0  0  0  0  0  0  0  0  0  0
   28.0052  -17.4281  -16.5323 S   0  0  0  0  0  0  0  0  0  0  0  0
   28.2525  -19.0768  -15.8024 C   0  0  0  0  0  0  0  0  0  0  0  0
   26.9152  -19.6147  -15.3820 C   0  0  0  0  0  0  0  0  0  0  0  0
   27.0907  -20.9393  -14.6605 C   0  0  2  0  0  0  0  0  0  0  0  0
   27.5258  -21.9412  -15.6050 N   0  0  0  0  0  0  0  0  0  0  0  0
   25.7692  -21.3007  -14.0794 C   0  0  0  0  0  0  0  0  0  0  0  0
   25.0129  -22.0509  -14.7439 O   0  0  0  0  0  0  0  0  0  0  0  0
   20.1040  -21.6719   -8.9752 N   0  0  0  0  0  0  0  0  0  0  0  0
   21.0858  -22.1839   -8.0820 C   0  0  0  0  0  0  0  0  0  0  0  0
   20.7955  -23.2094   -7.3682 N   0  0  0  0  0  0  0  0  0  0  0  0
   22.3361  -21.5455   -8.0177 N   0  0  0  0  0  0  0  0  0  0  0  0
   22.5916  -20.3960   -8.8483 C   0  0  0  0  0  0  0  0  0  0  0  0
   22.6437  -20.8770  -10.2717 C   0  0  0  0  0  0  0  0  0  0  0  0
   24.0308  -20.8027  -10.8321 C   0  0  0  0  0  0  0  0  0  0  0  0
   24.0054  -21.1257  -12.2952 C   0  0  2  0  0  0  0  0  0  0  0  0
   25.3260  -20.8439  -12.8237 N   0  0  0  0  0  0  0  0  0  0  0  0
   23.0124  -20.2482  -13.0162 C   0  0  0  0  0  0  0  0  0  0  0  0
   23.1382  -19.0033  -12.9687 O   0  0  0  0  0  0  0  0  0  0  0  0
   21.4825  -23.6614   -6.7572 C   0  0  0  0  0  0  0  0  0  0  0  0
   20.9952  -21.6292  -16.3483 C   0  0  2  0  0  0  0  0  0  0  0  0
   21.2476  -20.1688  -16.0404 O   0  0  0  0  0  0  0  0  0  0  0  0
   20.3313  -19.4034  -16.7706 C   0  0  1  0  0  0  0  0  0  0  0  0
   21.0485  -19.9352  -14.5605 N   0  0  0  0  0  0  0  0  0  0  0  0
   21.9235  -20.7693  -13.7589 C   0  0  0  0  0  0  0  0  0  0  0  0
   19.6321  -20.1937  -14.1799 O   0  0  0  0  0  0  0  0  0  0  0  0
   18.6979  -19.5334  -14.7016 O   0  0  0  0  0  0  0  0  0  0  0  0
  2  1  1  0
  3  4  1  0
  3  2  1  0
  4  5  1  0
  5  6  1  6
  7  8  2  0
  7  5  1  0
 10  9  1  0
 11 10  2  0
 12 10  1  0
 13 12  1  0
 14 13  1  0
 14 15  1  0
 16 15  1  1
 16 17  1  0
 17  7  1  0
 18 19  2  0
 18 16  1  0
 21 20  1  6
 21 22  1  0
 23 21  1  0
 23 24  1  6
 24 18  1  0
 25 23  1  0
 26 25  2  0
 27 25  1  0
M  END
$$$$
