MRT.pdb
     RDKit          3D

 27 26  0  0  1  0  0  0  0  0999 V2000
   25.5609  -19.2550   -7.6248 C   0  0  0  0  0  0  0  0  0  0  0  0
   27.2399  -19.8130   -7.2935 S   0  0  0  0  0  0  0  0  0  0  0  0
   27.7806  -20.8717   -8.6714 C   0  0  0  0  0  0  0  0  0  0  0  0
   26.7871  -20.7392   -9.7894 C   0  0  0  0  0  0  0  0  0  0  0  0
   27.2075  -21.6046  -10.9643 C   0  0  2  0  0  0  0  0  0  0  0  0
   28.5640  -21.2766  -11.3351 N   0  0  0  0  0  0  0  0  0  0  0  0
   26.2698  -21.3121  -12.0823 C   0  0  0  0  0  0  0  0  0  0  0  0
   26.4313  -20.2493  -12.7309 O   0  0  0  0  0  0  0  0  0  0  0  0
   23.0290  -27.3012  -15.8652 N   0  0  0  0  0  0  0  0  0  0  0  0
   22.7444  -26.0870  -16.5497 C   0  0  0  0  0  0  0  0  0  0  0  0
   21.7075  -26.0319  -17.3029 N   0  0  0  0  0  0  0  0  0  0  0  0
   23.6109  -24.9949  -16.3726 N   0  0  0  0  0  0  0  0  0  0  0  0
   24.8381  -25.1722  -15.6384 C   0  0  0  0  0  0  0  0  0  0  0  0
   25.1787  -23.8482  -15.0128 C   0  0  0  0  0  0  0  0  0  0  0  0
   24.0563  -23.3284  -14.1681 C   0  0  0  0  0  0  0  0  0  0  0  0
   24.4064  -21.9714  -13.6373 C   0  0  2  0  0  0  0  0  0  0  0  0
   25.2124  -22.1666  -12.4478 N   0  0  0  0  0  0  0  0  0  0  0  0
   23.1608  -21.2169  -13.2438 C   0  0  0  0  0  0  0  0  0  0  0  0
   22.7206  -21.3159  -12.0758 O   0  0  0  0  0  0  0  0  0  0  0  0
   21.4519  -25.1845  -17.8187 C   0  0  0  0  0  0  0  0  0  0  0  0
   21.3809  -18.3728  -15.8793 C   0  0  2  0  0  0  0  0  0  0  0  0
   21.3056  -18.2264  -14.3745 O   0  0  0  0  0  0  0  0  0  0  0  0
   20.1210  -17.5509  -14.0598 C   0  0  1  0  0  0  0  0  0  0  0  0
   21.2964  -19.6005  -13.7452 N   0  0  0  0  0  0  0  0  0  0  0  0
   22.4489  -20.3857  -14.1444 C   0  0  0  0  0  0  0  0  0  0  0  0
   20.0500  -20.3300  -14.1087 O   0  0  0  0  0  0  0  0  0  0  0  0
   20.0906  -21.3237  -14.8780 O   0  0  0  0  0  0  0  0  0  0  0  0
  2  1  1  0
  3  4  1  0
  3  2  1  0
  4  5  1  0
  5  6  1  6
  7  8  2  0
  7  5  1  0
 10  9  1  0
 11 10  2  0
 12 10  1  0
 13 12  1  0
 14 13  1  0
 14 15  1  0
 16 15  1  1
 16 17  1  0
 17  7  1  0
 18 19  2  0
 18 16  1  0
 21 20  1  6
 21 22  1  0
 23 21  1  0
 23 24  1  1
 24 18  1  0
 25 23  1  0
 26 25  2  0
 27 25  1  0
M  END
$$$$
