MRT.pdb
     RDKit          3D

 27 26  0  0  1  0  0  0  0  0999 V2000
   32.8406  -21.2765   -8.8142 C   0  0  0  0  0  0  0  0  0  0  0  0
   33.7016  -21.8856  -10.2729 S   0  0  0  0  0  0  0  0  0  0  0  0
   32.4702  -22.5500  -11.4366 C   0  0  0  0  0  0  0  0  0  0  0  0
   31.2595  -21.6626  -11.4038 C   0  0  0  0  0  0  0  0  0  0  0  0
   30.1919  -22.2043  -12.3380 C   0  0  2  0  0  0  0  0  0  0  0  0
   30.7459  -22.3414  -13.6644 N   0  0  0  0  0  0  0  0  0  0  0  0
   29.0688  -21.2278  -12.3338 C   0  0  0  0  0  0  0  0  0  0  0  0
   28.5279  -20.9488  -11.2356 O   0  0  0  0  0  0  0  0  0  0  0  0
   24.0154  -18.2958  -18.9729 N   0  0  0  0  0  0  0  0  0  0  0  0
   23.2493  -18.2187  -17.7767 C   0  0  0  0  0  0  0  0  0  0  0  0
   22.0041  -17.9220  -17.8597 N   0  0  0  0  0  0  0  0  0  0  0  0
   23.8877  -18.4716  -16.5506 N   0  0  0  0  0  0  0  0  0  0  0  0
   25.3155  -18.6632  -16.5181 C   0  0  0  0  0  0  0  0  0  0  0  0
   25.7009  -18.9026  -15.0847 C   0  0  0  0  0  0  0  0  0  0  0  0
   27.0482  -19.5473  -14.9726 C   0  0  0  0  0  0  0  0  0  0  0  0
   27.3593  -19.8268  -13.5336 C   0  0  2  0  0  0  0  0  0  0  0  0
   28.5838  -20.6027  -13.4982 N   0  0  0  0  0  0  0  0  0  0  0  0
   26.2626  -20.6484  -12.9024 C   0  0  0  0  0  0  0  0  0  0  0  0
   26.0048  -21.7873  -13.3544 O   0  0  0  0  0  0  0  0  0  0  0  0
   21.4160  -17.7978  -17.0300 C   0  0  0  0  0  0  0  0  0  0  0  0
   25.0161  -19.8614   -9.0091 C   0  0  2  0  0  0  0  0  0  0  0  0
   24.8635  -21.2167   -9.6658 O   0  0  0  0  0  0  0  0  0  0  0  0
   23.8279  -21.9015   -9.0197 C   0  0  1  0  0  0  0  0  0  0  0  0
   24.5193  -21.0220  -11.1245 N   0  0  0  0  0  0  0  0  0  0  0  0
   25.4940  -20.1896  -11.8036 C   0  0  0  0  0  0  0  0  0  0  0  0
   23.1668  -20.4140  -11.2623 O   0  0  0  0  0  0  0  0  0  0  0  0
   22.1538  -20.9923  -10.7929 O   0  0  0  0  0  0  0  0  0  0  0  0
  2  1  1  0
  3  4  1  0
  3  2  1  0
  4  5  1  0
  5  6  1  6
  7  8  2  0
  7  5  1  0
 10  9  1  0
 11 10  2  0
 12 10  1  0
 13 12  1  0
 14 13  1  0
 14 15  1  0
 16 15  1  6
 16 17  1  0
 17  7  1  0
 18 19  2  0
 18 16  1  0
 21 20  1  1
 21 22  1  0
 23 21  1  0
 23 24  1  1
 24 18  1  0
 25 23  1  0
 26 25  2  0
 27 25  1  0
M  END
$$$$
