MRT.pdb
     RDKit          3D

 27 26  0  0  1  0  0  0  0  0999 V2000
   30.3077  -21.3635   -5.9628 C   0  0  0  0  0  0  0  0  0  0  0  0
   29.7558  -19.9885   -4.9406 S   0  0  0  0  0  0  0  0  0  0  0  0
   28.1397  -19.4217   -5.5560 C   0  0  0  0  0  0  0  0  0  0  0  0
   27.9039  -20.0365   -6.9053 C   0  0  0  0  0  0  0  0  0  0  0  0
   26.6248  -19.4865   -7.5113 C   0  0  2  0  0  0  0  0  0  0  0  0
   25.5350  -19.6883   -6.5857 N   0  0  0  0  0  0  0  0  0  0  0  0
   26.3849  -20.2292   -8.7784 C   0  0  0  0  0  0  0  0  0  0  0  0
   27.2320  -21.0844   -9.1355 O   0  0  0  0  0  0  0  0  0  0  0  0
   22.9042  -21.5510  -15.1577 N   0  0  0  0  0  0  0  0  0  0  0  0
   22.0748  -22.6313  -14.7466 C   0  0  0  0  0  0  0  0  0  0  0  0
   21.9295  -23.6323  -15.5355 N   0  0  0  0  0  0  0  0  0  0  0  0
   21.4476  -22.5589  -13.4911 N   0  0  0  0  0  0  0  0  0  0  0  0
   21.7516  -21.4632  -12.6060 C   0  0  0  0  0  0  0  0  0  0  0  0
   23.1844  -21.6196  -12.1785 C   0  0  0  0  0  0  0  0  0  0  0  0
   23.5901  -20.5611  -11.1996 C   0  0  0  0  0  0  0  0  0  0  0  0
   25.0357  -20.7277  -10.8415 C   0  0  2  0  0  0  0  0  0  0  0  0
   25.2572  -20.0207   -9.5949 N   0  0  0  0  0  0  0  0  0  0  0  0
   25.9194  -20.1100  -11.8967 C   0  0  0  0  0  0  0  0  0  0  0  0
   26.2320  -18.9005  -11.8113 O   0  0  0  0  0  0  0  0  0  0  0  0
   21.2830  -24.4000  -15.3300 C   0  0  0  0  0  0  0  0  0  0  0  0
   28.9486  -20.6323  -15.7895 C   0  0  1  0  0  0  0  0  0  0  0  0
   28.0501  -21.3111  -14.7779 O   0  0  0  0  0  0  0  0  0  0  0  0
   28.8544  -22.0639  -13.9146 C   0  0  1  0  0  0  0  0  0  0  0  0
   27.3032  -20.2558  -13.9952 N   0  0  0  0  0  0  0  0  0  0  0  0
   26.4240  -20.8412  -13.0010 C   0  0  0  0  0  0  0  0  0  0  0  0
   26.5084  -19.3936  -14.9132 O   0  0  0  0  0  0  0  0  0  0  0  0
   25.3061  -19.6626  -15.1640 O   0  0  0  0  0  0  0  0  0  0  0  0
  2  1  1  0
  3  4  1  0
  3  2  1  0
  4  5  1  0
  5  6  1  1
  7  8  2  0
  7  5  1  0
 10  9  1  0
 11 10  2  0
 12 10  1  0
 13 12  1  0
 14 13  1  0
 14 15  1  0
 16 15  1  6
 16 17  1  0
 17  7  1  0
 18 19  2  0
 18 16  1  0
 21 20  1  6
 21 22  1  0
 23 21  1  0
 23 24  1  6
 24 18  1  0
 25 23  1  0
 26 25  2  0
 27 25  1  0
M  END
$$$$
