MRT.pdb
     RDKit          3D

 27 26  0  0  1  0  0  0  0  0999 V2000
   22.6740  -17.7351  -16.6421 C   0  0  0  0  0  0  0  0  0  0  0  0
   23.6970  -17.2101  -18.0271 S   0  0  0  0  0  0  0  0  0  0  0  0
   25.0753  -18.3847  -18.2067 C   0  0  0  0  0  0  0  0  0  0  0  0
   25.2209  -19.1454  -16.9204 C   0  0  0  0  0  0  0  0  0  0  0  0
   26.4055  -20.0915  -17.0067 C   0  0  2  0  0  0  0  0  0  0  0  0
   26.1145  -21.1315  -17.9652 N   0  0  0  0  0  0  0  0  0  0  0  0
   26.6071  -20.6669  -15.6490 C   0  0  0  0  0  0  0  0  0  0  0  0
   25.8196  -21.5644  -15.2610 O   0  0  0  0  0  0  0  0  0  0  0  0
   32.4808  -22.1380   -9.4745 N   0  0  0  0  0  0  0  0  0  0  0  0
   32.5470  -22.3025  -10.8860 C   0  0  0  0  0  0  0  0  0  0  0  0
   33.3190  -23.2076  -11.3660 N   0  0  0  0  0  0  0  0  0  0  0  0
   31.7627  -21.4666  -11.6991 N   0  0  0  0  0  0  0  0  0  0  0  0
   30.7833  -20.6004  -11.0934 C   0  0  0  0  0  0  0  0  0  0  0  0
   29.4379  -21.0059  -11.6279 C   0  0  0  0  0  0  0  0  0  0  0  0
   29.1924  -20.4461  -12.9953 C   0  0  0  0  0  0  0  0  0  0  0  0
   27.7997  -20.7786  -13.4377 C   0  0  2  0  0  0  0  0  0  0  0  0
   27.6354  -20.2554  -14.7801 N   0  0  0  0  0  0  0  0  0  0  0  0
   26.7844  -20.1104  -12.5441 C   0  0  0  0  0  0  0  0  0  0  0  0
   26.3401  -18.9803  -12.8496 O   0  0  0  0  0  0  0  0  0  0  0  0
   33.4513  -23.3339  -12.3741 C   0  0  0  0  0  0  0  0  0  0  0  0
   24.2316  -19.5092  -12.8458 C   0  0  2  0  0  0  0  0  0  0  0  0
   23.8987  -20.2308  -11.5574 O   0  0  0  0  0  0  0  0  0  0  0  0
   23.5431  -21.5471  -11.8730 C   0  0  2  0  0  0  0  0  0  0  0  0
   25.1161  -20.2279  -10.6618 N   0  0  0  0  0  0  0  0  0  0  0  0
   26.2976  -20.7064  -11.3539 C   0  0  0  0  0  0  0  0  0  0  0  0
   24.8751  -21.0665   -9.4550 O   0  0  0  0  0  0  0  0  0  0  0  0
   25.5554  -22.1037   -9.2495 O   0  0  0  0  0  0  0  0  0  0  0  0
  2  1  1  0
  3  4  1  0
  3  2  1  0
  4  5  1  0
  5  6  1  6
  7  8  2  0
  7  5  1  0
 10  9  1  0
 11 10  2  0
 12 10  1  0
 13 12  1  0
 14 13  1  0
 14 15  1  0
 16 15  1  1
 16 17  1  0
 17  7  1  0
 18 19  2  0
 18 16  1  0
 21 20  1  6
 21 22  1  0
 23 21  1  0
 23 24  1  1
 24 18  1  0
 25 23  1  0
 26 25  2  0
 27 25  1  0
M  END
$$$$
