PKW.pdb
     RDKit          3D

 31 33  0  0  1  0  0  0  0  0999 V2000
    8.8708  -14.3740   19.0529 N   0  0  0  0  0  0  0  0  0  0  0  0
    8.3401  -13.5329   18.0185 C   0  0  0  0  0  0  0  0  0  0  0  0
    6.9720  -13.1345   18.5480 C   0  0  0  0  0  0  0  0  0  0  0  0
    7.2598  -12.9103   20.0319 C   0  0  0  0  0  0  0  0  0  0  0  0
    8.5324  -13.6677   20.2652 C   0  0  1  0  0  0  0  0  0  0  0  0
    8.3915  -14.6660   21.3597 C   0  0  0  0  0  0  0  0  0  0  0  0
    7.9984  -14.3054   22.4889 O   0  0  0  0  0  0  0  0  0  0  0  0
    8.7044  -16.0428   21.1292 N   0  0  0  0  0  0  0  0  0  0  0  0
    8.5789  -17.0798   22.1026 C   0  0  1  0  0  0  0  0  0  0  0  0
    8.7912  -18.4557   21.5841 C   0  0  0  0  0  0  0  0  0  0  0  0
    8.4830  -19.4856   22.6118 C   0  0  0  0  0  0  0  0  0  0  0  0
    8.6761  -20.8968   22.1593 C   0  0  0  0  0  0  0  0  0  0  0  0
    8.3122  -21.8907   23.2648 C   0  0  0  0  0  0  0  0  0  0  0  0
    8.7110  -23.2326   22.8837 N   0  0  0  0  0  0  0  0  0  0  0  0
    9.4034  -16.7806   23.3351 C   0  0  0  0  0  0  0  0  0  0  0  0
   10.5897  -16.3907   23.2185 O   0  0  0  0  0  0  0  0  0  0  0  0
    8.8922  -16.9214   24.6308 N   0  0  0  0  0  0  0  0  0  0  0  0
    9.6821  -16.6747   25.8479 C   0  0  1  0  0  0  0  0  0  0  0  0
    8.8248  -16.1298   26.9285 C   0  0  0  0  0  0  0  0  0  0  0  0
    7.7856  -15.1877   26.4925 C   0  0  0  0  0  0  0  0  0  0  0  0
    6.5374  -15.4990   25.9297 C   0  0  0  0  0  0  0  0  0  0  0  0
    5.8691  -14.3763   25.6277 N   0  0  0  0  0  0  0  0  0  0  0  0
    6.6242  -13.3153   25.9684 C   0  0  0  0  0  0  0  0  0  0  0  0
    6.3628  -11.9495   25.8679 C   0  0  0  0  0  0  0  0  0  0  0  0
    7.3410  -11.0960   26.3287 C   0  0  0  0  0  0  0  0  0  0  0  0
    8.5241  -11.5485   26.8648 C   0  0  0  0  0  0  0  0  0  0  0  0
    8.7573  -12.8949   26.9519 C   0  0  0  0  0  0  0  0  0  0  0  0
    7.8067  -13.7919   26.5025 C   0  0  0  0  0  0  0  0  0  0  0  0
   10.5296  -17.8134   26.1833 C   0  0  0  0  0  0  0  0  0  0  0  0
   11.4159  -17.6567   27.2678 O   0  0  0  0  0  0  0  0  0  0  0  0
   10.5513  -18.9151   25.6080 O   0  0  0  0  0  0  0  0  0  0  0  0
  1  5  1  0
  2  3  1  0
  2  1  1  0
  3  4  1  0
  5  4  1  0
  6  7  2  0
  5  6  1  1
  8  6  1  0
  9  8  1  0
  9 10  1  6
 11 12  1  0
 11 10  1  0
 13 12  1  0
 14 13  1  0
 15  9  1  0
 15 17  1  0
 16 15  2  0
 18 17  1  0
 18 29  1  0
 18 19  1  1
 19 20  1  0
 20 28  1  0
 21 20  2  0
 21 22  1  0
 22 23  1  0
 23 24  1  0
 24 25  2  0
 26 25  1  0
 27 26  2  0
 28 23  2  0
 28 27  1  0
 29 30  1  0
 31 29  2  0
M  END
$$$$
