PKW.pdb
     RDKit          3D

 31 33  0  0  1  0  0  0  0  0999 V2000
    8.7808  -14.4304   18.7611 N   0  0  0  0  0  0  0  0  0  0  0  0
    8.2419  -13.5621   17.7537 C   0  0  0  0  0  0  0  0  0  0  0  0
    7.0026  -12.9770   18.4114 C   0  0  0  0  0  0  0  0  0  0  0  0
    7.4838  -12.7440   19.8429 C   0  0  0  0  0  0  0  0  0  0  0  0
    8.6725  -13.6488   19.9696 C   0  0  1  0  0  0  0  0  0  0  0  0
    8.5369  -14.5859   21.1175 C   0  0  0  0  0  0  0  0  0  0  0  0
    8.1588  -14.1624   22.2299 O   0  0  0  0  0  0  0  0  0  0  0  0
    8.8379  -15.9754   20.9579 N   0  0  0  0  0  0  0  0  0  0  0  0
    8.6874  -16.9630   21.9779 C   0  0  1  0  0  0  0  0  0  0  0  0
    8.8562  -18.3667   21.5218 C   0  0  0  0  0  0  0  0  0  0  0  0
    7.8068  -18.7582   20.5434 C   0  0  0  0  0  0  0  0  0  0  0  0
    8.0050  -20.1016   19.9192 C   0  0  0  0  0  0  0  0  0  0  0  0
    6.8446  -20.4591   18.9872 C   0  0  0  0  0  0  0  0  0  0  0  0
    7.1539  -21.6643   18.2411 N   0  0  0  0  0  0  0  0  0  0  0  0
    9.5272  -16.6328   23.1920 C   0  0  0  0  0  0  0  0  0  0  0  0
   10.6887  -16.1816   23.0492 O   0  0  0  0  0  0  0  0  0  0  0  0
    9.0576  -16.8108   24.4989 N   0  0  0  0  0  0  0  0  0  0  0  0
    9.8620  -16.5259   25.6979 C   0  0  1  0  0  0  0  0  0  0  0  0
    9.0123  -15.9739   26.7809 C   0  0  0  0  0  0  0  0  0  0  0  0
    7.8106  -15.2570   26.3343 C   0  0  0  0  0  0  0  0  0  0  0  0
    6.6630  -15.8077   25.7415 C   0  0  0  0  0  0  0  0  0  0  0  0
    5.7848  -14.8404   25.4387 N   0  0  0  0  0  0  0  0  0  0  0  0
    6.3006  -13.6532   25.8080 C   0  0  0  0  0  0  0  0  0  0  0  0
    5.7673  -12.3682   25.7181 C   0  0  0  0  0  0  0  0  0  0  0  0
    6.5416  -11.3403   26.2097 C   0  0  0  0  0  0  0  0  0  0  0  0
    7.7822  -11.5501   26.7654 C   0  0  0  0  0  0  0  0  0  0  0  0
    8.2842  -12.8217   26.8414 C   0  0  0  0  0  0  0  0  0  0  0  0
    7.5456  -13.8867   26.3613 C   0  0  0  0  0  0  0  0  0  0  0  0
   10.7344  -17.6428   26.0426 C   0  0  0  0  0  0  0  0  0  0  0  0
   10.5527  -18.8438   25.3279 O   0  0  0  0  0  0  0  0  0  0  0  0
   11.6276  -17.6452   26.9072 O   0  0  0  0  0  0  0  0  0  0  0  0
  1  5  1  0
  2  3  1  0
  2  1  1  0
  3  4  1  0
  5  4  1  0
  6  7  2  0
  5  6  1  1
  8  6  1  0
  9  8  1  0
  9 10  1  6
 11 12  1  0
 11 10  1  0
 13 12  1  0
 14 13  1  0
 15  9  1  0
 15 17  1  0
 16 15  2  0
 18 17  1  0
 18 29  1  0
 18 19  1  1
 19 20  1  0
 20 28  1  0
 21 20  2  0
 21 22  1  0
 22 23  1  0
 23 24  1  0
 24 25  2  0
 26 25  1  0
 27 26  2  0
 28 23  2  0
 28 27  1  0
 29 30  1  0
 31 29  2  0
M  END
$$$$
