PKW.pdb
     RDKit          3D

 31 33  0  0  1  0  0  0  0  0999 V2000
    8.8498  -14.6623   18.1913 N   0  0  0  0  0  0  0  0  0  0  0  0
    8.3892  -13.7947   17.1452 C   0  0  0  0  0  0  0  0  0  0  0  0
    7.1650  -13.1253   17.7486 C   0  0  0  0  0  0  0  0  0  0  0  0
    7.6159  -12.8788   19.1877 C   0  0  0  0  0  0  0  0  0  0  0  0
    8.7489  -13.8425   19.3748 C   0  0  1  0  0  0  0  0  0  0  0  0
    8.5284  -14.7385   20.5423 C   0  0  0  0  0  0  0  0  0  0  0  0
    8.1775  -14.2598   21.6411 O   0  0  0  0  0  0  0  0  0  0  0  0
    8.7162  -16.1512   20.4170 N   0  0  0  0  0  0  0  0  0  0  0  0
    8.5908  -17.0870   21.4881 C   0  0  1  0  0  0  0  0  0  0  0  0
    8.7407  -18.5121   21.0966 C   0  0  0  0  0  0  0  0  0  0  0  0
    7.9608  -18.8322   19.8715 C   0  0  0  0  0  0  0  0  0  0  0  0
    8.1652  -20.2158   19.3447 C   0  0  0  0  0  0  0  0  0  0  0  0
    7.2974  -20.4756   18.1110 C   0  0  0  0  0  0  0  0  0  0  0  0
    7.4770  -21.8395   17.6500 N   0  0  0  0  0  0  0  0  0  0  0  0
    9.4663  -16.7024   22.6603 C   0  0  0  0  0  0  0  0  0  0  0  0
   10.5683  -16.1370   22.4630 O   0  0  0  0  0  0  0  0  0  0  0  0
    9.0953  -16.9536   23.9867 N   0  0  0  0  0  0  0  0  0  0  0  0
    9.8516  -16.4620   25.1496 C   0  0  1  0  0  0  0  0  0  0  0  0
    9.5924  -15.0188   25.3722 C   0  0  0  0  0  0  0  0  0  0  0  0
    8.1808  -14.6531   25.5495 C   0  0  0  0  0  0  0  0  0  0  0  0
    7.0567  -15.4587   25.3066 C   0  0  0  0  0  0  0  0  0  0  0  0
    5.9303  -14.7733   25.5513 N   0  0  0  0  0  0  0  0  0  0  0  0
    6.2557  -13.5303   25.9525 C   0  0  0  0  0  0  0  0  0  0  0  0
    5.4453  -12.4618   26.3340 C   0  0  0  0  0  0  0  0  0  0  0  0
    6.0862  -11.3051   26.7198 C   0  0  0  0  0  0  0  0  0  0  0  0
    7.4567  -11.1892   26.7348 C   0  0  0  0  0  0  0  0  0  0  0  0
    8.2307  -12.2529   26.3548 C   0  0  0  0  0  0  0  0  0  0  0  0
    7.6347  -13.4353   25.9588 C   0  0  0  0  0  0  0  0  0  0  0  0
    9.7108  -17.3470   26.3005 C   0  0  0  0  0  0  0  0  0  0  0  0
    8.8516  -18.4549   26.1571 O   0  0  0  0  0  0  0  0  0  0  0  0
   10.2738  -17.2245   27.4019 O   0  0  0  0  0  0  0  0  0  0  0  0
  1  5  1  0
  2  3  1  0
  2  1  1  0
  3  4  1  0
  5  4  1  0
  6  7  2  0
  5  6  1  1
  8  6  1  0
  9  8  1  0
  9 10  1  6
 11 12  1  0
 11 10  1  0
 13 12  1  0
 14 13  1  0
 15  9  1  0
 15 17  1  0
 16 15  2  0
 18 17  1  0
 18 29  1  0
 18 19  1  1
 19 20  1  0
 20 28  1  0
 21 20  2  0
 21 22  1  0
 22 23  1  0
 23 24  1  0
 24 25  2  0
 26 25  1  0
 27 26  2  0
 28 23  2  0
 28 27  1  0
 29 30  1  0
 31 29  2  0
M  END
$$$$
