PKW.pdb
     RDKit          3D

 31 33  0  0  1  0  0  0  0  0999 V2000
    9.0018  -14.6117   18.4401 N   0  0  0  0  0  0  0  0  0  0  0  0
    8.4910  -13.7983   17.3739 C   0  0  0  0  0  0  0  0  0  0  0  0
    7.1131  -13.3865   17.8665 C   0  0  0  0  0  0  0  0  0  0  0  0
    7.3725  -13.1232   19.3492 C   0  0  0  0  0  0  0  0  0  0  0  0
    8.6403  -13.8738   19.6266 C   0  0  1  0  0  0  0  0  0  0  0  0
    8.4783  -14.8430   20.7441 C   0  0  0  0  0  0  0  0  0  0  0  0
    7.9645  -14.4758   21.8215 O   0  0  0  0  0  0  0  0  0  0  0  0
    8.9085  -16.1992   20.5950 N   0  0  0  0  0  0  0  0  0  0  0  0
    8.8778  -17.1813   21.6310 C   0  0  1  0  0  0  0  0  0  0  0  0
    9.2635  -18.5519   21.2075 C   0  0  0  0  0  0  0  0  0  0  0  0
    8.3897  -19.0579   20.1157 C   0  0  0  0  0  0  0  0  0  0  0  0
    8.7718  -20.4002   19.5812 C   0  0  0  0  0  0  0  0  0  0  0  0
    7.8260  -20.8440   18.4626 C   0  0  0  0  0  0  0  0  0  0  0  0
    8.2271  -22.1415   17.9523 N   0  0  0  0  0  0  0  0  0  0  0  0
    9.6273  -16.7106   22.8579 C   0  0  0  0  0  0  0  0  0  0  0  0
   10.7452  -16.1551   22.7371 O   0  0  0  0  0  0  0  0  0  0  0  0
    9.1193  -16.8694   24.1529 N   0  0  0  0  0  0  0  0  0  0  0  0
    9.8442  -16.4601   25.3665 C   0  0  1  0  0  0  0  0  0  0  0  0
    9.6745  -15.0077   25.6145 C   0  0  0  0  0  0  0  0  0  0  0  0
    8.2840  -14.5394   25.6836 C   0  0  0  0  0  0  0  0  0  0  0  0
    7.1260  -15.2620   25.3543 C   0  0  0  0  0  0  0  0  0  0  0  0
    6.0372  -14.4954   25.5129 N   0  0  0  0  0  0  0  0  0  0  0  0
    6.4207  -13.2777   25.9396 C   0  0  0  0  0  0  0  0  0  0  0  0
    5.6637  -12.1514   26.2593 C   0  0  0  0  0  0  0  0  0  0  0  0
    6.3558  -11.0428   26.6947 C   0  0  0  0  0  0  0  0  0  0  0  0
    7.7260  -11.0270   26.8147 C   0  0  0  0  0  0  0  0  0  0  0  0
    8.4471  -12.1458   26.4936 C   0  0  0  0  0  0  0  0  0  0  0  0
    7.7985  -13.2834   26.0516 C   0  0  0  0  0  0  0  0  0  0  0  0
    9.5802  -17.3595   26.4840 C   0  0  0  0  0  0  0  0  0  0  0  0
   10.4029  -17.2298   27.6209 O   0  0  0  0  0  0  0  0  0  0  0  0
    8.6988  -18.2345   26.5380 O   0  0  0  0  0  0  0  0  0  0  0  0
  1  5  1  0
  2  3  1  0
  2  1  1  0
  3  4  1  0
  5  4  1  0
  6  7  2  0
  5  6  1  1
  8  6  1  0
  9  8  1  0
  9 10  1  6
 11 12  1  0
 11 10  1  0
 13 12  1  0
 14 13  1  0
 15  9  1  0
 15 17  1  0
 16 15  2  0
 18 17  1  0
 18 29  1  0
 18 19  1  1
 19 20  1  0
 20 28  1  0
 21 20  2  0
 21 22  1  0
 22 23  1  0
 23 24  1  0
 24 25  2  0
 26 25  1  0
 27 26  2  0
 28 23  2  0
 28 27  1  0
 29 30  1  0
 31 29  2  0
M  END
$$$$
