PKW.pdb
     RDKit          3D

 31 33  0  0  1  0  0  0  0  0999 V2000
    8.8962  -14.5733   18.3867 N   0  0  0  0  0  0  0  0  0  0  0  0
    8.4643  -13.6870   17.3439 C   0  0  0  0  0  0  0  0  0  0  0  0
    7.1328  -13.1583   17.8524 C   0  0  0  0  0  0  0  0  0  0  0  0
    7.4181  -12.9602   19.3405 C   0  0  0  0  0  0  0  0  0  0  0  0
    8.6086  -13.8357   19.5934 C   0  0  1  0  0  0  0  0  0  0  0  0
    8.3560  -14.8139   20.6859 C   0  0  0  0  0  0  0  0  0  0  0  0
    7.8631  -14.4308   21.7675 O   0  0  0  0  0  0  0  0  0  0  0  0
    8.6749  -16.1971   20.5079 N   0  0  0  0  0  0  0  0  0  0  0  0
    8.6503  -17.1780   21.5452 C   0  0  1  0  0  0  0  0  0  0  0  0
    8.9261  -18.5683   21.1004 C   0  0  0  0  0  0  0  0  0  0  0  0
    8.2146  -18.8938   19.8357 C   0  0  0  0  0  0  0  0  0  0  0  0
    8.5561  -20.2266   19.2523 C   0  0  0  0  0  0  0  0  0  0  0  0
    7.8014  -20.4713   17.9433 C   0  0  0  0  0  0  0  0  0  0  0  0
    8.1424  -21.7743   17.4041 N   0  0  0  0  0  0  0  0  0  0  0  0
    9.5017  -16.7558   22.7222 C   0  0  0  0  0  0  0  0  0  0  0  0
   10.6853  -16.3828   22.5403 O   0  0  0  0  0  0  0  0  0  0  0  0
    9.0191  -16.7615   24.0363 N   0  0  0  0  0  0  0  0  0  0  0  0
    9.8487  -16.4402   25.2087 C   0  0  1  0  0  0  0  0  0  0  0  0
    9.7192  -15.0066   25.5662 C   0  0  0  0  0  0  0  0  0  0  0  0
    8.3467  -14.5373   25.7977 C   0  0  0  0  0  0  0  0  0  0  0  0
    7.1665  -15.2953   25.7328 C   0  0  0  0  0  0  0  0  0  0  0  0
    6.0999  -14.5187   25.9727 N   0  0  0  0  0  0  0  0  0  0  0  0
    6.5200  -13.2599   26.1985 C   0  0  0  0  0  0  0  0  0  0  0  0
    5.7987  -12.1071   26.5058 C   0  0  0  0  0  0  0  0  0  0  0  0
    6.5272  -10.9549   26.7045 C   0  0  0  0  0  0  0  0  0  0  0  0
    7.8990  -10.9221   26.6087 C   0  0  0  0  0  0  0  0  0  0  0  0
    8.5844  -12.0678   26.3049 C   0  0  0  0  0  0  0  0  0  0  0  0
    7.8985  -13.2494   26.0961 C   0  0  0  0  0  0  0  0  0  0  0  0
    9.6680  -17.4109   26.2823 C   0  0  0  0  0  0  0  0  0  0  0  0
   10.5950  -17.3749   27.3432 O   0  0  0  0  0  0  0  0  0  0  0  0
    8.7752  -18.2724   26.3589 O   0  0  0  0  0  0  0  0  0  0  0  0
  1  5  1  0
  2  3  1  0
  2  1  1  0
  3  4  1  0
  5  4  1  0
  6  7  2  0
  5  6  1  1
  8  6  1  0
  9  8  1  0
  9 10  1  6
 11 12  1  0
 11 10  1  0
 13 12  1  0
 14 13  1  0
 15  9  1  0
 15 17  1  0
 16 15  2  0
 18 17  1  0
 18 29  1  0
 18 19  1  1
 19 20  1  0
 20 28  1  0
 21 20  2  0
 21 22  1  0
 22 23  1  0
 23 24  1  0
 24 25  2  0
 26 25  1  0
 27 26  2  0
 28 23  2  0
 28 27  1  0
 29 30  1  0
 31 29  2  0
M  END
$$$$
