PKW.pdb
     RDKit          3D

 31 33  0  0  1  0  0  0  0  0999 V2000
    9.2776  -14.3703   18.6654 N   0  0  0  0  0  0  0  0  0  0  0  0
    8.6796  -13.5487   17.6521 C   0  0  0  0  0  0  0  0  0  0  0  0
    7.2405  -13.3967   18.1179 C   0  0  0  0  0  0  0  0  0  0  0  0
    7.4117  -13.2349   19.6277 C   0  0  0  0  0  0  0  0  0  0  0  0
    8.7713  -13.8078   19.8943 C   0  0  1  0  0  0  0  0  0  0  0  0
    8.7274  -14.8890   20.9158 C   0  0  0  0  0  0  0  0  0  0  0  0
    8.1940  -14.6803   22.0256 O   0  0  0  0  0  0  0  0  0  0  0  0
    9.2943  -16.1725   20.6370 N   0  0  0  0  0  0  0  0  0  0  0  0
    9.4017  -17.2374   21.5821 C   0  0  1  0  0  0  0  0  0  0  0  0
    9.8897  -18.5247   21.0238 C   0  0  0  0  0  0  0  0  0  0  0  0
    9.7416  -19.6391   21.9974 C   0  0  0  0  0  0  0  0  0  0  0  0
   10.8323  -20.6597   21.9490 C   0  0  0  0  0  0  0  0  0  0  0  0
   10.5510  -21.8209   22.9057 C   0  0  0  0  0  0  0  0  0  0  0  0
   11.6806  -22.7310   22.9352 N   0  0  0  0  0  0  0  0  0  0  0  0
   10.1625  -16.8039   22.8157 C   0  0  0  0  0  0  0  0  0  0  0  0
   11.1572  -16.0477   22.7074 O   0  0  0  0  0  0  0  0  0  0  0  0
    9.7994  -17.2164   24.1033 N   0  0  0  0  0  0  0  0  0  0  0  0
   10.0624  -16.4241   25.3154 C   0  0  1  0  0  0  0  0  0  0  0  0
    9.7048  -15.0010   25.1001 C   0  0  0  0  0  0  0  0  0  0  0  0
    8.3174  -14.6448   25.4253 C   0  0  0  0  0  0  0  0  0  0  0  0
    7.1749  -15.4465   25.2708 C   0  0  0  0  0  0  0  0  0  0  0  0
    6.0779  -14.7718   25.6443 N   0  0  0  0  0  0  0  0  0  0  0  0
    6.4408  -13.5397   26.0473 C   0  0  0  0  0  0  0  0  0  0  0  0
    5.6716  -12.4851   26.5369 C   0  0  0  0  0  0  0  0  0  0  0  0
    6.3470  -11.3379   26.8911 C   0  0  0  0  0  0  0  0  0  0  0  0
    7.7123  -11.2183   26.7750 C   0  0  0  0  0  0  0  0  0  0  0  0
    8.4455  -12.2684   26.2905 C   0  0  0  0  0  0  0  0  0  0  0  0
    7.8138  -13.4409   25.9211 C   0  0  0  0  0  0  0  0  0  0  0  0
    9.5293  -17.0692   26.5101 C   0  0  0  0  0  0  0  0  0  0  0  0
   10.0107  -16.6147   27.7542 O   0  0  0  0  0  0  0  0  0  0  0  0
    8.6887  -17.9843   26.5448 O   0  0  0  0  0  0  0  0  0  0  0  0
  1  5  1  0
  2  3  1  0
  2  1  1  0
  3  4  1  0
  5  4  1  0
  6  7  2  0
  5  6  1  1
  8  6  1  0
  9  8  1  0
  9 10  1  6
 11 12  1  0
 11 10  1  0
 13 12  1  0
 14 13  1  0
 15  9  1  0
 15 17  1  0
 16 15  2  0
 18 17  1  0
 18 29  1  0
 18 19  1  6
 19 20  1  0
 20 28  1  0
 21 20  2  0
 21 22  1  0
 22 23  1  0
 23 24  1  0
 24 25  2  0
 26 25  1  0
 27 26  2  0
 28 23  2  0
 28 27  1  0
 29 30  1  0
 31 29  2  0
M  END
$$$$
