PKW.pdb
     RDKit          3D

 31 33  0  0  1  0  0  0  0  0999 V2000
    9.1719  -14.4256   18.5333 N   0  0  0  0  0  0  0  0  0  0  0  0
    8.6273  -13.5576   17.5286 C   0  0  0  0  0  0  0  0  0  0  0  0
    7.2729  -13.1614   18.0940 C   0  0  0  0  0  0  0  0  0  0  0  0
    7.5915  -12.9728   19.5766 C   0  0  0  0  0  0  0  0  0  0  0  0
    8.8627  -13.7444   19.7675 C   0  0  1  0  0  0  0  0  0  0  0  0
    8.7357  -14.7661   20.8419 C   0  0  0  0  0  0  0  0  0  0  0  0
    8.2350  -14.4570   21.9435 O   0  0  0  0  0  0  0  0  0  0  0  0
    9.1849  -16.1067   20.6237 N   0  0  0  0  0  0  0  0  0  0  0  0
    9.2761  -17.1094   21.6360 C   0  0  1  0  0  0  0  0  0  0  0  0
    9.7826  -18.4262   21.1708 C   0  0  0  0  0  0  0  0  0  0  0  0
    8.8699  -19.0470   20.1742 C   0  0  0  0  0  0  0  0  0  0  0  0
    9.3608  -20.3340   19.5944 C   0  0  0  0  0  0  0  0  0  0  0  0
    8.3687  -20.9000   18.5755 C   0  0  0  0  0  0  0  0  0  0  0  0
    8.9211  -22.0820   17.9410 N   0  0  0  0  0  0  0  0  0  0  0  0
   10.0067  -16.5946   22.8565 C   0  0  0  0  0  0  0  0  0  0  0  0
   11.1777  -16.1579   22.7505 O   0  0  0  0  0  0  0  0  0  0  0  0
    9.4233  -16.5818   24.1291 N   0  0  0  0  0  0  0  0  0  0  0  0
   10.1691  -16.2850   25.3626 C   0  0  1  0  0  0  0  0  0  0  0  0
    9.8588  -14.9182   25.8475 C   0  0  0  0  0  0  0  0  0  0  0  0
    8.4293  -14.5978   25.9541 C   0  0  0  0  0  0  0  0  0  0  0  0
    7.3455  -15.4669   25.7495 C   0  0  0  0  0  0  0  0  0  0  0  0
    6.1862  -14.8107   25.9040 N   0  0  0  0  0  0  0  0  0  0  0  0
    6.4503  -13.5260   26.2071 C   0  0  0  0  0  0  0  0  0  0  0  0
    5.5874  -12.4639   26.4740 C   0  0  0  0  0  0  0  0  0  0  0  0
    6.1704  -11.2534   26.7778 C   0  0  0  0  0  0  0  0  0  0  0  0
    7.5342  -11.0799   26.8207 C   0  0  0  0  0  0  0  0  0  0  0  0
    8.3605  -12.1386   26.5538 C   0  0  0  0  0  0  0  0  0  0  0  0
    7.8236  -13.3738   26.2434 C   0  0  0  0  0  0  0  0  0  0  0  0
   10.0688  -17.3715   26.3306 C   0  0  0  0  0  0  0  0  0  0  0  0
   10.8694  -17.2775   27.4866 O   0  0  0  0  0  0  0  0  0  0  0  0
    9.3454  -18.3785   26.2410 O   0  0  0  0  0  0  0  0  0  0  0  0
  1  5  1  0
  2  3  1  0
  2  1  1  0
  3  4  1  0
  5  4  1  0
  6  7  2  0
  5  6  1  1
  8  6  1  0
  9  8  1  0
  9 10  1  6
 11 12  1  0
 11 10  1  0
 13 12  1  0
 14 13  1  0
 15  9  1  0
 15 17  1  0
 16 15  2  0
 18 17  1  0
 18 29  1  0
 18 19  1  1
 19 20  1  0
 20 28  1  0
 21 20  2  0
 21 22  1  0
 22 23  1  0
 23 24  1  0
 24 25  2  0
 26 25  1  0
 27 26  2  0
 28 23  2  0
 28 27  1  0
 29 30  1  0
 31 29  2  0
M  END
$$$$
