PKW.pdb
     RDKit          3D

 31 33  0  0  1  0  0  0  0  0999 V2000
    8.8508  -14.5603   18.2925 N   0  0  0  0  0  0  0  0  0  0  0  0
    8.3467  -13.6137   17.3390 C   0  0  0  0  0  0  0  0  0  0  0  0
    7.1982  -12.9421   18.0744 C   0  0  0  0  0  0  0  0  0  0  0  0
    7.7653  -12.8017   19.4864 C   0  0  0  0  0  0  0  0  0  0  0  0
    8.8710  -13.8133   19.5272 C   0  0  1  0  0  0  0  0  0  0  0  0
    8.7044  -14.7726   20.6525 C   0  0  0  0  0  0  0  0  0  0  0  0
    8.5838  -14.3508   21.8218 O   0  0  0  0  0  0  0  0  0  0  0  0
    8.6814  -16.1816   20.4060 N   0  0  0  0  0  0  0  0  0  0  0  0
    8.5726  -17.1831   21.4178 C   0  0  1  0  0  0  0  0  0  0  0  0
    8.6903  -18.5817   20.9312 C   0  0  0  0  0  0  0  0  0  0  0  0
    8.5612  -19.5639   22.0404 C   0  0  0  0  0  0  0  0  0  0  0  0
    8.7739  -20.9883   21.6412 C   0  0  0  0  0  0  0  0  0  0  0  0
    8.6034  -21.9323   22.8339 C   0  0  0  0  0  0  0  0  0  0  0  0
    9.0127  -23.2763   22.4721 N   0  0  0  0  0  0  0  0  0  0  0  0
    9.4866  -16.8867   22.5862 C   0  0  0  0  0  0  0  0  0  0  0  0
   10.7179  -16.7382   22.3993 O   0  0  0  0  0  0  0  0  0  0  0  0
    9.0113  -16.7669   23.8976 N   0  0  0  0  0  0  0  0  0  0  0  0
    9.8744  -16.4650   25.0509 C   0  0  1  0  0  0  0  0  0  0  0  0
    9.6647  -15.0714   25.5128 C   0  0  0  0  0  0  0  0  0  0  0  0
    8.2655  -14.6892   25.7447 C   0  0  0  0  0  0  0  0  0  0  0  0
    7.1314  -15.5109   25.6428 C   0  0  0  0  0  0  0  0  0  0  0  0
    6.0198  -14.8048   25.8964 N   0  0  0  0  0  0  0  0  0  0  0  0
    6.3649  -13.5323   26.1672 C   0  0  0  0  0  0  0  0  0  0  0  0
    5.5758  -12.4333   26.5039 C   0  0  0  0  0  0  0  0  0  0  0  0
    6.2351  -11.2485   26.7474 C   0  0  0  0  0  0  0  0  0  0  0  0
    7.6035  -11.1341   26.6673 C   0  0  0  0  0  0  0  0  0  0  0  0
    8.3563  -12.2282   26.3340 C   0  0  0  0  0  0  0  0  0  0  0  0
    7.7413  -13.4395   26.0798 C   0  0  0  0  0  0  0  0  0  0  0  0
    9.8147  -17.5153   26.0613 C   0  0  0  0  0  0  0  0  0  0  0  0
   10.8242  -17.5183   27.0447 O   0  0  0  0  0  0  0  0  0  0  0  0
    8.9600  -18.4140   26.1455 O   0  0  0  0  0  0  0  0  0  0  0  0
  1  5  1  0
  2  3  1  0
  2  1  1  0
  3  4  1  0
  5  4  1  0
  6  7  2  0
  5  6  1  1
  8  6  1  0
  9  8  1  0
  9 10  1  6
 11 12  1  0
 11 10  1  0
 13 12  1  0
 14 13  1  0
 15  9  1  0
 15 17  1  0
 16 15  2  0
 18 17  1  0
 18 29  1  0
 18 19  1  1
 19 20  1  0
 20 28  1  0
 21 20  2  0
 21 22  1  0
 22 23  1  0
 23 24  1  0
 24 25  2  0
 26 25  1  0
 27 26  2  0
 28 23  2  0
 28 27  1  0
 29 30  1  0
 31 29  2  0
M  END
$$$$
