WTE.pdb
     RDKit          3D

 31 32  0  0  1  0  0  0  0  0999 V2000
    6.3685  -17.1140   25.6057 N   0  0  0  0  0  0  0  0  0  0  0  0
    7.1663  -16.1935   24.8327 C   0  0  1  0  0  0  0  0  0  0  0  0
    8.1140  -15.3576   25.4921 C   0  0  0  0  0  0  0  0  0  0  0  0
    7.9065  -14.4354   26.5477 C   0  0  0  0  0  0  0  0  0  0  0  0
    8.4648  -14.6928   27.8155 C   0  0  0  0  0  0  0  0  0  0  0  0
    8.1312  -13.6864   28.6251 N   0  0  0  0  0  0  0  0  0  0  0  0
    7.3828  -12.7635   27.9884 C   0  0  0  0  0  0  0  0  0  0  0  0
    6.7979  -11.5810   28.3461 C   0  0  0  0  0  0  0  0  0  0  0  0
    6.0736  -10.8473   27.4448 C   0  0  0  0  0  0  0  0  0  0  0  0
    5.9538  -11.3383   26.1695 C   0  0  0  0  0  0  0  0  0  0  0  0
    6.5228  -12.5135   25.7759 C   0  0  0  0  0  0  0  0  0  0  0  0
    7.2528  -13.2551   26.6795 C   0  0  0  0  0  0  0  0  0  0  0  0
    7.5543  -16.7657   23.4863 C   0  0  0  0  0  0  0  0  0  0  0  0
    7.6783  -18.0174   23.3493 O   0  0  0  0  0  0  0  0  0  0  0  0
    6.8932  -14.7146   20.2856 C   0  0  0  0  0  0  0  0  0  0  0  0
    8.2409  -15.3383   20.1560 C   0  0  1  0  0  0  0  0  0  0  0  0
    9.1763  -14.2917   20.3701 O   0  0  0  0  0  0  0  0  0  0  0  0
    8.5127  -16.4389   21.1871 C   0  0  2  0  0  0  0  0  0  0  0  0
    7.7810  -15.9548   22.3833 N   0  0  0  0  0  0  0  0  0  0  0  0
    9.9567  -16.5282   21.5059 C   0  0  0  0  0  0  0  0  0  0  0  0
   10.4979  -15.6975   22.2944 O   0  0  0  0  0  0  0  0  0  0  0  0
   10.7462  -17.5333   20.9419 N   0  0  0  0  0  0  0  0  0  0  0  0
   12.1901  -17.6741   21.2066 C   0  0  1  0  0  0  0  0  0  0  0  0
   12.4723  -18.9456   21.9386 C   0  0  0  0  0  0  0  0  0  0  0  0
   11.8693  -19.0220   23.3073 C   0  0  0  0  0  0  0  0  0  0  0  0
   12.1993  -20.2806   24.0102 C   0  0  0  0  0  0  0  0  0  0  0  0
   12.1046  -21.4264   23.5009 O   0  0  0  0  0  0  0  0  0  0  0  0
   12.9274  -17.6669   19.9199 C   0  0  0  0  0  0  0  0  0  0  0  0
   13.1313  -18.6646   19.1950 O   0  0  0  0  0  0  0  0  0  0  0  0
   12.6484  -20.2258   25.3278 O   0  0  0  0  0  0  0  0  0  0  0  0
   13.4606  -16.4599   19.4344 O   0  0  0  0  0  0  0  0  0  0  0  0
  2  1  1  1
  3  2  1  0
  4  3  1  0
  4  5  2  0
  6  5  1  0
  7  6  1  0
  8  7  2  0
  9  8  1  0
 10  9  2  0
 10 11  1  0
 11 12  2  0
 12  7  1  0
 12  4  1  0
 13  2  1  0
 13 19  1  0
 14 13  2  0
 16 15  1  1
 17 16  1  0
 18 19  1  1
 18 16  1  0
 20 18  1  0
 21 20  2  0
 22 20  1  0
 23 28  1  0
 23 22  1  0
 23 24  1  6
 25 26  1  0
 25 24  1  0
 26 27  2  0
 28 31  1  0
 29 28  2  0
 30 26  1  0
M  END
$$$$
