WTE.pdb
     RDKit          3D

 31 32  0  0  1  0  0  0  0  0999 V2000
    6.0117  -17.7557   24.7767 N   0  0  0  0  0  0  0  0  0  0  0  0
    6.8366  -16.6663   24.3142 C   0  0  1  0  0  0  0  0  0  0  0  0
    7.3690  -15.7374   25.2551 C   0  0  0  0  0  0  0  0  0  0  0  0
    6.7333  -14.6323   25.8737 C   0  0  0  0  0  0  0  0  0  0  0  0
    5.4915  -14.8138   26.5142 C   0  0  0  0  0  0  0  0  0  0  0  0
    5.1090  -13.6372   27.0132 N   0  0  0  0  0  0  0  0  0  0  0  0
    6.0109  -12.6699   26.7524 C   0  0  0  0  0  0  0  0  0  0  0  0
    6.1005  -11.3339   27.0274 C   0  0  0  0  0  0  0  0  0  0  0  0
    7.1763  -10.5953   26.6122 C   0  0  0  0  0  0  0  0  0  0  0  0
    8.1624  -11.2405   25.9101 C   0  0  0  0  0  0  0  0  0  0  0  0
    8.1081  -12.5712   25.6168 C   0  0  0  0  0  0  0  0  0  0  0  0
    7.0275  -13.3185   26.0329 C   0  0  0  0  0  0  0  0  0  0  0  0
    7.7197  -17.0717   23.1537 C   0  0  0  0  0  0  0  0  0  0  0  0
    8.2487  -18.2209   23.1402 O   0  0  0  0  0  0  0  0  0  0  0  0
    7.0844  -15.1344   19.8683 C   0  0  0  0  0  0  0  0  0  0  0  0
    8.5192  -15.5376   19.9016 C   0  0  1  0  0  0  0  0  0  0  0  0
    9.2452  -14.3646   20.2378 O   0  0  0  0  0  0  0  0  0  0  0  0
    8.8341  -16.6100   20.9499 C   0  0  2  0  0  0  0  0  0  0  0  0
    7.9717  -16.2160   22.0908 N   0  0  0  0  0  0  0  0  0  0  0  0
   10.2531  -16.5462   21.3707 C   0  0  0  0  0  0  0  0  0  0  0  0
   10.6554  -15.6354   22.1538 O   0  0  0  0  0  0  0  0  0  0  0  0
   11.1721  -17.4924   20.9107 N   0  0  0  0  0  0  0  0  0  0  0  0
   12.6024  -17.4742   21.2694 C   0  0  1  0  0  0  0  0  0  0  0  0
   13.0586  -18.8319   21.6945 C   0  0  0  0  0  0  0  0  0  0  0  0
   12.4687  -19.3100   22.9854 C   0  0  0  0  0  0  0  0  0  0  0  0
   12.9428  -20.6574   23.3685 C   0  0  0  0  0  0  0  0  0  0  0  0
   14.1442  -20.9519   23.5943 O   0  0  0  0  0  0  0  0  0  0  0  0
   13.3957  -17.0269   20.0990 C   0  0  0  0  0  0  0  0  0  0  0  0
   12.9381  -16.7906   18.9599 O   0  0  0  0  0  0  0  0  0  0  0  0
   12.0190  -21.6924   23.4961 O   0  0  0  0  0  0  0  0  0  0  0  0
   14.7826  -16.8397   20.2335 O   0  0  0  0  0  0  0  0  0  0  0  0
  2  1  1  1
  3  2  1  0
  4  3  1  0
  4  5  2  0
  6  5  1  0
  7  6  1  0
  8  7  2  0
  9  8  1  0
 10  9  2  0
 10 11  1  0
 11 12  2  0
 12  7  1  0
 12  4  1  0
 13  2  1  0
 13 19  1  0
 14 13  2  0
 16 15  1  1
 17 16  1  0
 18 19  1  1
 18 16  1  0
 20 18  1  0
 21 20  2  0
 22 20  1  0
 23 28  1  0
 23 22  1  0
 23 24  1  6
 25 26  1  0
 25 24  1  0
 26 27  2  0
 28 31  1  0
 29 28  2  0
 30 26  1  0
M  END
$$$$
