WTE.pdb
     RDKit          3D

 31 32  0  0  1  0  0  0  0  0999 V2000
    6.3714  -17.8275   24.6799 N   0  0  0  0  0  0  0  0  0  0  0  0
    7.2724  -16.8109   24.1943 C   0  0  1  0  0  0  0  0  0  0  0  0
    7.7595  -15.8153   25.0906 C   0  0  0  0  0  0  0  0  0  0  0  0
    7.0486  -14.7747   25.7382 C   0  0  0  0  0  0  0  0  0  0  0  0
    5.9952  -15.0948   26.6174 C   0  0  0  0  0  0  0  0  0  0  0  0
    5.4945  -13.9539   27.0940 N   0  0  0  0  0  0  0  0  0  0  0  0
    6.1401  -12.8809   26.5948 C   0  0  0  0  0  0  0  0  0  0  0  0
    6.0266  -11.5276   26.7498 C   0  0  0  0  0  0  0  0  0  0  0  0
    6.8557  -10.6658   26.0826 C   0  0  0  0  0  0  0  0  0  0  0  0
    7.8050  -11.2054   25.2524 C   0  0  0  0  0  0  0  0  0  0  0  0
    7.9484  -12.5495   25.0724 C   0  0  0  0  0  0  0  0  0  0  0  0
    7.1165  -13.4206   25.7420 C   0  0  0  0  0  0  0  0  0  0  0  0
    8.2328  -17.3482   23.1553 C   0  0  0  0  0  0  0  0  0  0  0  0
    8.8819  -18.4085   23.3905 O   0  0  0  0  0  0  0  0  0  0  0  0
    7.5923  -16.2584   19.4678 C   0  0  0  0  0  0  0  0  0  0  0  0
    9.0601  -16.3931   19.6907 C   0  0  1  0  0  0  0  0  0  0  0  0
    9.5525  -15.0709   19.8498 O   0  0  0  0  0  0  0  0  0  0  0  0
    9.4221  -17.1911   20.9478 C   0  0  2  0  0  0  0  0  0  0  0  0
    8.4279  -16.7105   21.9384 N   0  0  0  0  0  0  0  0  0  0  0  0
   10.7832  -16.8510   21.4236 C   0  0  0  0  0  0  0  0  0  0  0  0
   11.0167  -15.7329   21.9715 O   0  0  0  0  0  0  0  0  0  0  0  0
   11.8333  -17.7606   21.2769 N   0  0  0  0  0  0  0  0  0  0  0  0
   13.2034  -17.5011   21.7567 C   0  0  1  0  0  0  0  0  0  0  0  0
   13.6613  -18.5941   22.6666 C   0  0  0  0  0  0  0  0  0  0  0  0
   12.7481  -18.8639   23.8226 C   0  0  0  0  0  0  0  0  0  0  0  0
   13.2139  -19.9805   24.6731 C   0  0  0  0  0  0  0  0  0  0  0  0
   13.4442  -21.1445   24.2568 O   0  0  0  0  0  0  0  0  0  0  0  0
   14.1198  -17.4049   20.5947 C   0  0  0  0  0  0  0  0  0  0  0  0
   13.8037  -17.6093   19.4026 O   0  0  0  0  0  0  0  0  0  0  0  0
   13.4207  -19.7590   26.0329 O   0  0  0  0  0  0  0  0  0  0  0  0
   15.4665  -17.0585   20.8020 O   0  0  0  0  0  0  0  0  0  0  0  0
  2  1  1  1
  3  2  1  0
  4  3  1  0
  4  5  2  0
  6  5  1  0
  7  6  1  0
  8  7  2  0
  9  8  1  0
 10  9  2  0
 10 11  1  0
 11 12  2  0
 12  7  1  0
 12  4  1  0
 13  2  1  0
 13 19  1  0
 14 13  2  0
 16 15  1  1
 17 16  1  0
 18 19  1  1
 18 16  1  0
 20 18  1  0
 21 20  2  0
 22 20  1  0
 23 28  1  0
 23 22  1  0
 23 24  1  1
 25 26  1  0
 25 24  1  0
 26 27  2  0
 28 31  1  0
 29 28  2  0
 30 26  1  0
M  END
$$$$
