WTE.pdb
     RDKit          3D

 31 32  0  0  1  0  0  0  0  0999 V2000
    6.0468  -17.0509   25.5204 N   0  0  0  0  0  0  0  0  0  0  0  0
    7.1391  -16.2622   25.0046 C   0  0  1  0  0  0  0  0  0  0  0  0
    8.0805  -15.6874   25.9075 C   0  0  0  0  0  0  0  0  0  0  0  0
    7.9427  -14.5400   26.7275 C   0  0  0  0  0  0  0  0  0  0  0  0
    8.7458  -14.4068   27.8774 C   0  0  0  0  0  0  0  0  0  0  0  0
    8.4303  -13.2538   28.4695 N   0  0  0  0  0  0  0  0  0  0  0  0
    7.4653  -12.5967   27.7955 C   0  0  0  0  0  0  0  0  0  0  0  0
    6.8013  -11.4144   27.9680 C   0  0  0  0  0  0  0  0  0  0  0  0
    5.8381  -11.0070   27.0841 C   0  0  0  0  0  0  0  0  0  0  0  0
    5.5606  -11.8251   26.0185 C   0  0  0  0  0  0  0  0  0  0  0  0
    6.2016  -13.0111   25.8134 C   0  0  0  0  0  0  0  0  0  0  0  0
    7.1719  -13.4250   26.7003 C   0  0  0  0  0  0  0  0  0  0  0  0
    7.6672  -16.8061   23.6946 C   0  0  0  0  0  0  0  0  0  0  0  0
    7.9805  -18.0286   23.6042 O   0  0  0  0  0  0  0  0  0  0  0  0
    6.8212  -15.0926   20.3730 C   0  0  0  0  0  0  0  0  0  0  0  0
    8.2742  -15.4240   20.3360 C   0  0  1  0  0  0  0  0  0  0  0  0
    8.9588  -14.1913   20.5032 O   0  0  0  0  0  0  0  0  0  0  0  0
    8.7191  -16.3719   21.4547 C   0  0  2  0  0  0  0  0  0  0  0  0
    7.8209  -16.0003   22.5754 N   0  0  0  0  0  0  0  0  0  0  0  0
   10.1222  -16.1099   21.8513 C   0  0  0  0  0  0  0  0  0  0  0  0
   10.4033  -15.1704   22.6533 O   0  0  0  0  0  0  0  0  0  0  0  0
   11.1602  -16.8974   21.3472 N   0  0  0  0  0  0  0  0  0  0  0  0
   12.5766  -16.6973   21.7052 C   0  0  1  0  0  0  0  0  0  0  0  0
   12.9686  -17.5933   22.8347 C   0  0  0  0  0  0  0  0  0  0  0  0
   12.8355  -19.0561   22.5427 C   0  0  0  0  0  0  0  0  0  0  0  0
   12.9347  -19.8948   23.7567 C   0  0  0  0  0  0  0  0  0  0  0  0
   12.3312  -20.9858   23.9196 O   0  0  0  0  0  0  0  0  0  0  0  0
   13.4262  -16.9852   20.5242 C   0  0  0  0  0  0  0  0  0  0  0  0
   13.0181  -17.4207   19.4258 O   0  0  0  0  0  0  0  0  0  0  0  0
   13.7444  -19.4739   24.8094 O   0  0  0  0  0  0  0  0  0  0  0  0
   14.8129  -16.7661   20.5991 O   0  0  0  0  0  0  0  0  0  0  0  0
  2  1  1  1
  3  2  1  0
  4  3  1  0
  4  5  2  0
  6  5  1  0
  7  6  1  0
  8  7  2  0
  9  8  1  0
 10  9  2  0
 10 11  1  0
 11 12  2  0
 12  7  1  0
 12  4  1  0
 13  2  1  0
 13 19  1  0
 14 13  2  0
 16 15  1  1
 17 16  1  0
 18 19  1  1
 18 16  1  0
 20 18  1  0
 21 20  2  0
 22 20  1  0
 23 28  1  0
 23 22  1  0
 23 24  1  1
 25 26  1  0
 25 24  1  0
 26 27  2  0
 28 31  1  0
 29 28  2  0
 30 26  1  0
M  END
$$$$
