WTE.pdb
     RDKit          3D

 31 32  0  0  1  0  0  0  0  0999 V2000
    6.3302  -17.3336   24.1469 N   0  0  0  0  0  0  0  0  0  0  0  0
    7.1228  -16.1954   23.7502 C   0  0  1  0  0  0  0  0  0  0  0  0
    7.7100  -15.3640   24.7480 C   0  0  0  0  0  0  0  0  0  0  0  0
    7.0732  -14.5545   25.7212 C   0  0  0  0  0  0  0  0  0  0  0  0
    6.3148  -15.1613   26.7418 C   0  0  0  0  0  0  0  0  0  0  0  0
    5.8264  -14.1958   27.5222 N   0  0  0  0  0  0  0  0  0  0  0  0
    6.2046  -12.9738   27.0967 C   0  0  0  0  0  0  0  0  0  0  0  0
    5.9849  -11.6932   27.5209 C   0  0  0  0  0  0  0  0  0  0  0  0
    6.5208  -10.6239   26.8541 C   0  0  0  0  0  0  0  0  0  0  0  0
    7.2861  -10.8800   25.7449 C   0  0  0  0  0  0  0  0  0  0  0  0
    7.5272  -12.1433   25.2916 C   0  0  0  0  0  0  0  0  0  0  0  0
    6.9902  -13.2225   25.9597 C   0  0  0  0  0  0  0  0  0  0  0  0
    7.9339  -16.4716   22.5025 C   0  0  0  0  0  0  0  0  0  0  0  0
    8.5276  -17.5814   22.3737 O   0  0  0  0  0  0  0  0  0  0  0  0
    7.0429  -14.1807   19.5444 C   0  0  0  0  0  0  0  0  0  0  0  0
    8.4415  -14.6516   19.3345 C   0  0  1  0  0  0  0  0  0  0  0  0
    9.2741  -13.5371   19.6185 O   0  0  0  0  0  0  0  0  0  0  0  0
    8.8508  -15.8010   20.2616 C   0  0  2  0  0  0  0  0  0  0  0  0
    8.0498  -15.5382   21.4823 N   0  0  0  0  0  0  0  0  0  0  0  0
   10.2907  -15.7267   20.6020 C   0  0  0  0  0  0  0  0  0  0  0  0
   10.6961  -14.9778   21.5399 O   0  0  0  0  0  0  0  0  0  0  0  0
   11.2266  -16.4842   19.8936 N   0  0  0  0  0  0  0  0  0  0  0  0
   12.6567  -16.5438   20.2484 C   0  0  1  0  0  0  0  0  0  0  0  0
   12.9354  -17.7202   21.1263 C   0  0  0  0  0  0  0  0  0  0  0  0
   12.6728  -17.4857   22.5819 C   0  0  0  0  0  0  0  0  0  0  0  0
   12.9836  -18.6650   23.4183 C   0  0  0  0  0  0  0  0  0  0  0  0
   13.3535  -19.7794   22.9683 O   0  0  0  0  0  0  0  0  0  0  0  0
   13.4653  -16.6453   19.0094 C   0  0  0  0  0  0  0  0  0  0  0  0
   14.7139  -16.6206   18.9540 O   0  0  0  0  0  0  0  0  0  0  0  0
   12.8680  -18.5659   24.8031 O   0  0  0  0  0  0  0  0  0  0  0  0
   12.8174  -16.7812   17.7691 O   0  0  0  0  0  0  0  0  0  0  0  0
  2  1  1  1
  3  2  1  0
  4  3  1  0
  4  5  2  0
  6  5  1  0
  7  6  1  0
  8  7  2  0
  9  8  1  0
 10  9  2  0
 10 11  1  0
 11 12  2  0
 12  7  1  0
 12  4  1  0
 13  2  1  0
 13 19  1  0
 14 13  2  0
 16 15  1  1
 17 16  1  0
 18 19  1  1
 18 16  1  0
 20 18  1  0
 21 20  2  0
 22 20  1  0
 23 28  1  0
 23 22  1  0
 23 24  1  1
 25 26  1  0
 25 24  1  0
 26 27  2  0
 28 31  1  0
 29 28  2  0
 30 26  1  0
M  END
$$$$
