WTE.pdb
     RDKit          3D

 31 32  0  0  1  0  0  0  0  0999 V2000
    6.3330  -18.3387   24.9478 N   0  0  0  0  0  0  0  0  0  0  0  0
    6.9120  -17.0787   24.5500 C   0  0  1  0  0  0  0  0  0  0  0  0
    7.4507  -16.2072   25.5410 C   0  0  0  0  0  0  0  0  0  0  0  0
    6.8668  -15.0581   26.1297 C   0  0  0  0  0  0  0  0  0  0  0  0
    5.5234  -15.1001   26.5525 C   0  0  0  0  0  0  0  0  0  0  0  0
    5.2159  -13.9089   27.0682 N   0  0  0  0  0  0  0  0  0  0  0  0
    6.2637  -13.0620   27.0222 C   0  0  0  0  0  0  0  0  0  0  0  0
    6.4751  -11.7663   27.4029 C   0  0  0  0  0  0  0  0  0  0  0  0
    7.6895  -11.1617   27.2158 C   0  0  0  0  0  0  0  0  0  0  0  0
    8.6883  -11.8995   26.6329 C   0  0  0  0  0  0  0  0  0  0  0  0
    8.5150  -13.1939   26.2402 C   0  0  0  0  0  0  0  0  0  0  0  0
    7.2946  -13.8065   26.4268 C   0  0  0  0  0  0  0  0  0  0  0  0
    7.6479  -17.1795   23.2312 C   0  0  0  0  0  0  0  0  0  0  0  0
    8.3815  -18.1835   22.9979 O   0  0  0  0  0  0  0  0  0  0  0  0
    7.6119  -13.8496   20.6929 C   0  0  0  0  0  0  0  0  0  0  0  0
    7.5932  -15.2224   20.1122 C   0  0  1  0  0  0  0  0  0  0  0  0
    8.2894  -15.1323   18.8780 O   0  0  0  0  0  0  0  0  0  0  0  0
    8.2977  -16.2693   20.9815 C   0  0  2  0  0  0  0  0  0  0  0  0
    7.5439  -16.1968   22.2571 N   0  0  0  0  0  0  0  0  0  0  0  0
    9.7092  -15.8950   21.2312 C   0  0  0  0  0  0  0  0  0  0  0  0
   10.0042  -15.0350   22.1133 O   0  0  0  0  0  0  0  0  0  0  0  0
   10.7400  -16.4869   20.4972 N   0  0  0  0  0  0  0  0  0  0  0  0
   12.0427  -16.8556   21.0816 C   0  0  1  0  0  0  0  0  0  0  0  0
   11.8741  -17.9076   22.1290 C   0  0  0  0  0  0  0  0  0  0  0  0
   13.1568  -18.4174   22.7102 C   0  0  0  0  0  0  0  0  0  0  0  0
   13.3580  -17.9965   24.1135 C   0  0  0  0  0  0  0  0  0  0  0  0
   13.0645  -18.6968   25.1159 O   0  0  0  0  0  0  0  0  0  0  0  0
   12.9358  -17.3592   20.0101 C   0  0  0  0  0  0  0  0  0  0  0  0
   14.1354  -17.0428   19.8571 O   0  0  0  0  0  0  0  0  0  0  0  0
   13.9083  -16.7437   24.3754 O   0  0  0  0  0  0  0  0  0  0  0  0
   12.4355  -18.2703   19.0634 O   0  0  0  0  0  0  0  0  0  0  0  0
  2  1  1  1
  3  2  1  0
  4  3  1  0
  4  5  2  0
  6  5  1  0
  7  6  1  0
  8  7  2  0
  9  8  1  0
 10  9  2  0
 10 11  1  0
 11 12  2  0
 12  7  1  0
 12  4  1  0
 13  2  1  0
 13 19  1  0
 14 13  2  0
 16 15  1  1
 17 16  1  0
 18 19  1  1
 18 16  1  0
 20 18  1  0
 21 20  2  0
 22 20  1  0
 23 28  1  0
 23 22  1  0
 23 24  1  1
 25 26  1  0
 25 24  1  0
 26 27  2  0
 28 31  1  0
 29 28  2  0
 30 26  1  0
M  END
$$$$
