WTE.pdb
     RDKit          3D

 31 32  0  0  1  0  0  0  0  0999 V2000
    6.2442  -17.1665   23.2719 N   0  0  0  0  0  0  0  0  0  0  0  0
    7.4204  -16.3314   23.2603 C   0  0  1  0  0  0  0  0  0  0  0  0
    7.8522  -15.7064   24.4665 C   0  0  0  0  0  0  0  0  0  0  0  0
    7.1267  -14.8591   25.3403 C   0  0  0  0  0  0  0  0  0  0  0  0
    6.2358  -15.4231   26.2748 C   0  0  0  0  0  0  0  0  0  0  0  0
    5.6848  -14.4280   26.9719 N   0  0  0  0  0  0  0  0  0  0  0  0
    6.1444  -13.2260   26.5704 C   0  0  0  0  0  0  0  0  0  0  0  0
    5.9111  -11.9308   26.9398 C   0  0  0  0  0  0  0  0  0  0  0  0
    6.5518  -10.8908   26.3207 C   0  0  0  0  0  0  0  0  0  0  0  0
    7.4363  -11.1915   25.3162 C   0  0  0  0  0  0  0  0  0  0  0  0
    7.6947  -12.4705   24.9202 C   0  0  0  0  0  0  0  0  0  0  0  0
    7.0525  -13.5203   25.5407 C   0  0  0  0  0  0  0  0  0  0  0  0
    8.4864  -16.8595   22.3246 C   0  0  0  0  0  0  0  0  0  0  0  0
    8.5266  -18.0947   22.0536 O   0  0  0  0  0  0  0  0  0  0  0  0
    9.5034  -15.0253   19.1741 C   0  0  0  0  0  0  0  0  0  0  0  0
   10.7495  -15.4300   19.8852 C   0  0  1  0  0  0  0  0  0  0  0  0
   11.1937  -14.2742   20.5802 O   0  0  0  0  0  0  0  0  0  0  0  0
   10.5389  -16.5504   20.9092 C   0  0  2  0  0  0  0  0  0  0  0  0
    9.4325  -16.0253   21.7464 N   0  0  0  0  0  0  0  0  0  0  0  0
   11.7410  -16.7345   21.7552 C   0  0  0  0  0  0  0  0  0  0  0  0
   11.8126  -16.2020   22.9024 O   0  0  0  0  0  0  0  0  0  0  0  0
   12.8167  -17.5015   21.3011 N   0  0  0  0  0  0  0  0  0  0  0  0
   14.0149  -17.7790   22.1148 C   0  0  1  0  0  0  0  0  0  0  0  0
   14.9471  -18.6936   21.3891 C   0  0  0  0  0  0  0  0  0  0  0  0
   16.1549  -19.1015   22.1751 C   0  0  0  0  0  0  0  0  0  0  0  0
   16.9998  -20.0827   21.4606 C   0  0  0  0  0  0  0  0  0  0  0  0
   16.8944  -21.3304   21.5758 O   0  0  0  0  0  0  0  0  0  0  0  0
   14.7068  -16.5031   22.4194 C   0  0  0  0  0  0  0  0  0  0  0  0
   14.7003  -15.4836   21.6961 O   0  0  0  0  0  0  0  0  0  0  0  0
   17.9891  -19.6241   20.5934 O   0  0  0  0  0  0  0  0  0  0  0  0
   15.4450  -16.3831   23.6099 O   0  0  0  0  0  0  0  0  0  0  0  0
  2  1  1  1
  3  2  1  0
  4  3  1  0
  4  5  2  0
  6  5  1  0
  7  6  1  0
  8  7  2  0
  9  8  1  0
 10  9  2  0
 10 11  1  0
 11 12  2  0
 12  7  1  0
 12  4  1  0
 13  2  1  0
 13 19  1  0
 14 13  2  0
 16 15  1  1
 17 16  1  0
 18 19  1  1
 18 16  1  0
 20 18  1  0
 21 20  2  0
 22 20  1  0
 23 28  1  0
 23 22  1  0
 23 24  1  6
 25 26  1  0
 25 24  1  0
 26 27  2  0
 28 31  1  0
 29 28  2  0
 30 26  1  0
M  END
$$$$
