WTE.pdb
     RDKit          3D

 31 32  0  0  1  0  0  0  0  0999 V2000
    6.5554  -18.1267   25.3089 N   0  0  0  0  0  0  0  0  0  0  0  0
    7.1534  -16.9593   24.7083 C   0  0  1  0  0  0  0  0  0  0  0  0
    7.6682  -15.9240   25.5419 C   0  0  0  0  0  0  0  0  0  0  0  0
    6.9864  -14.8264   26.1234 C   0  0  0  0  0  0  0  0  0  0  0  0
    5.7560  -15.0390   26.7761 C   0  0  0  0  0  0  0  0  0  0  0  0
    5.3235  -13.8631   27.2342 N   0  0  0  0  0  0  0  0  0  0  0  0
    6.1810  -12.8671   26.9343 C   0  0  0  0  0  0  0  0  0  0  0  0
    6.2124  -11.5194   27.1606 C   0  0  0  0  0  0  0  0  0  0  0  0
    7.2531  -10.7497   26.7138 C   0  0  0  0  0  0  0  0  0  0  0  0
    8.2645  -11.3759   26.0306 C   0  0  0  0  0  0  0  0  0  0  0  0
    8.2680  -12.7174   25.7856 C   0  0  0  0  0  0  0  0  0  0  0  0
    7.2228  -13.4960   26.2337 C   0  0  0  0  0  0  0  0  0  0  0  0
    7.9270  -17.2965   23.4517 C   0  0  0  0  0  0  0  0  0  0  0  0
    8.5907  -18.3721   23.3939 O   0  0  0  0  0  0  0  0  0  0  0  0
    8.3738  -14.2441   20.5644 C   0  0  0  0  0  0  0  0  0  0  0  0
    8.3461  -15.6791   20.1616 C   0  0  1  0  0  0  0  0  0  0  0  0
    9.1776  -15.7775   19.0149 O   0  0  0  0  0  0  0  0  0  0  0  0
    8.8940  -16.6303   21.2308 C   0  0  2  0  0  0  0  0  0  0  0  0
    7.9328  -16.4565   22.3473 N   0  0  0  0  0  0  0  0  0  0  0  0
   10.2410  -16.2093   21.6815 C   0  0  0  0  0  0  0  0  0  0  0  0
   10.4096  -15.0992   22.2678 O   0  0  0  0  0  0  0  0  0  0  0  0
   11.3493  -17.0326   21.4679 N   0  0  0  0  0  0  0  0  0  0  0  0
   12.7117  -16.6900   21.9162 C   0  0  1  0  0  0  0  0  0  0  0  0
   13.1305  -17.5649   23.0526 C   0  0  0  0  0  0  0  0  0  0  0  0
   12.9891  -19.0328   22.7917 C   0  0  0  0  0  0  0  0  0  0  0  0
   12.7527  -19.8144   24.0247 C   0  0  0  0  0  0  0  0  0  0  0  0
   12.4956  -21.0451   24.0493 O   0  0  0  0  0  0  0  0  0  0  0  0
   13.6565  -16.8573   20.7854 C   0  0  0  0  0  0  0  0  0  0  0  0
   13.3661  -17.3155   19.6591 O   0  0  0  0  0  0  0  0  0  0  0  0
   12.8120  -19.1713   25.2591 O   0  0  0  0  0  0  0  0  0  0  0  0
   15.0023  -16.4838   20.9466 O   0  0  0  0  0  0  0  0  0  0  0  0
  2  1  1  1
  3  2  1  0
  4  3  1  0
  4  5  2  0
  6  5  1  0
  7  6  1  0
  8  7  2  0
  9  8  1  0
 10  9  2  0
 10 11  1  0
 11 12  2  0
 12  7  1  0
 12  4  1  0
 13  2  1  0
 13 19  1  0
 14 13  2  0
 16 15  1  1
 17 16  1  0
 18 19  1  1
 18 16  1  0
 20 18  1  0
 21 20  2  0
 22 20  1  0
 23 28  1  0
 23 22  1  0
 23 24  1  1
 25 26  1  0
 25 24  1  0
 26 27  2  0
 28 31  1  0
 29 28  2  0
 30 26  1  0
M  END
$$$$
