WTE.pdb
     RDKit          3D

 31 32  0  0  1  0  0  0  0  0999 V2000
    7.0778  -17.5575   25.0272 N   0  0  0  0  0  0  0  0  0  0  0  0
    7.4195  -16.7734   23.8655 C   0  0  1  0  0  0  0  0  0  0  0  0
    7.2537  -15.3581   23.8974 C   0  0  0  0  0  0  0  0  0  0  0  0
    6.7236  -14.5461   24.9307 C   0  0  0  0  0  0  0  0  0  0  0  0
    5.5346  -14.9343   25.5792 C   0  0  0  0  0  0  0  0  0  0  0  0
    5.2494  -14.0149   26.5028 N   0  0  0  0  0  0  0  0  0  0  0  0
    6.1681  -13.0285   26.5224 C   0  0  0  0  0  0  0  0  0  0  0  0
    6.3407  -11.8845   27.2502 C   0  0  0  0  0  0  0  0  0  0  0  0
    7.4089  -11.0571   27.0274 C   0  0  0  0  0  0  0  0  0  0  0  0
    8.3012  -11.4141   26.0486 C   0  0  0  0  0  0  0  0  0  0  0  0
    8.1623  -12.5470   25.3024 C   0  0  0  0  0  0  0  0  0  0  0  0
    7.0890  -13.3828   25.5233 C   0  0  0  0  0  0  0  0  0  0  0  0
    8.6325  -17.3204   23.1441 C   0  0  0  0  0  0  0  0  0  0  0  0
    9.3165  -18.2415   23.6775 O   0  0  0  0  0  0  0  0  0  0  0  0
    8.8248  -16.8125   19.2269 C   0  0  0  0  0  0  0  0  0  0  0  0
   10.1700  -16.6611   19.8511 C   0  0  1  0  0  0  0  0  0  0  0  0
   10.3851  -15.2633   19.9777 O   0  0  0  0  0  0  0  0  0  0  0  0
   10.2770  -17.2881   21.2451 C   0  0  2  0  0  0  0  0  0  0  0  0
    9.0246  -16.8409   21.9024 N   0  0  0  0  0  0  0  0  0  0  0  0
   11.4360  -16.7426   21.9894 C   0  0  0  0  0  0  0  0  0  0  0  0
   11.2833  -15.8063   22.8288 O   0  0  0  0  0  0  0  0  0  0  0  0
   12.7186  -17.2544   21.7781 N   0  0  0  0  0  0  0  0  0  0  0  0
   13.8854  -16.8815   22.5992 C   0  0  1  0  0  0  0  0  0  0  0  0
   14.2208  -17.9693   23.5669 C   0  0  0  0  0  0  0  0  0  0  0  0
   15.4839  -17.7459   24.3399 C   0  0  0  0  0  0  0  0  0  0  0  0
   15.7872  -18.8507   25.2750 C   0  0  0  0  0  0  0  0  0  0  0  0
   16.4015  -19.9017   24.9601 O   0  0  0  0  0  0  0  0  0  0  0  0
   15.0475  -16.6282   21.7134 C   0  0  0  0  0  0  0  0  0  0  0  0
   16.1625  -16.2011   22.0835 O   0  0  0  0  0  0  0  0  0  0  0  0
   15.3769  -18.7496   26.6026 O   0  0  0  0  0  0  0  0  0  0  0  0
   14.9327  -16.8738   20.3338 O   0  0  0  0  0  0  0  0  0  0  0  0
  2  1  1  1
  3  2  1  0
  4  3  1  0
  4  5  2  0
  6  5  1  0
  7  6  1  0
  8  7  2  0
  9  8  1  0
 10  9  2  0
 10 11  1  0
 11 12  2  0
 12  7  1  0
 12  4  1  0
 13  2  1  0
 13 19  1  0
 14 13  2  0
 16 15  1  1
 17 16  1  0
 18 19  1  1
 18 16  1  0
 20 18  1  0
 21 20  2  0
 22 20  1  0
 23 28  1  0
 23 22  1  0
 23 24  1  1
 25 26  1  0
 25 24  1  0
 26 27  2  0
 28 31  1  0
 29 28  2  0
 30 26  1  0
M  END
$$$$
