WTE.pdb
     RDKit          3D

 31 32  0  0  1  0  0  0  0  0999 V2000
    7.9392  -15.5343   21.9364 N   0  0  0  0  0  0  0  0  0  0  0  0
    8.7000  -15.9120   23.1025 C   0  0  1  0  0  0  0  0  0  0  0  0
    8.0512  -15.9995   24.3687 C   0  0  0  0  0  0  0  0  0  0  0  0
    7.1817  -15.0694   24.9905 C   0  0  0  0  0  0  0  0  0  0  0  0
    5.9563  -15.5135   25.5255 C   0  0  0  0  0  0  0  0  0  0  0  0
    5.3294  -14.4597   26.0508 N   0  0  0  0  0  0  0  0  0  0  0  0
    6.0504  -13.3298   25.9066 C   0  0  0  0  0  0  0  0  0  0  0  0
    5.8713  -12.0196   26.2525 C   0  0  0  0  0  0  0  0  0  0  0  0
    6.8155  -11.0729   25.9565 C   0  0  0  0  0  0  0  0  0  0  0  0
    7.9484  -11.4827   25.3005 C   0  0  0  0  0  0  0  0  0  0  0  0
    8.1623  -12.7802   24.9394 C   0  0  0  0  0  0  0  0  0  0  0  0
    7.2149  -13.7364   25.2354 C   0  0  0  0  0  0  0  0  0  0  0  0
    9.7567  -16.9478   22.7839 C   0  0  0  0  0  0  0  0  0  0  0  0
   10.1028  -17.7829   23.6691 O   0  0  0  0  0  0  0  0  0  0  0  0
   10.5881  -17.8584   18.9222 C   0  0  0  0  0  0  0  0  0  0  0  0
   11.7912  -17.6766   19.7834 C   0  0  1  0  0  0  0  0  0  0  0  0
   12.1941  -16.3264   19.6089 O   0  0  0  0  0  0  0  0  0  0  0  0
   11.5223  -17.9050   21.2746 C   0  0  2  0  0  0  0  0  0  0  0  0
   10.3660  -17.0141   21.5390 N   0  0  0  0  0  0  0  0  0  0  0  0
   12.6716  -17.4643   22.0989 C   0  0  0  0  0  0  0  0  0  0  0  0
   12.9826  -16.2385   22.1729 O   0  0  0  0  0  0  0  0  0  0  0  0
   13.4318  -18.3955   22.8107 N   0  0  0  0  0  0  0  0  0  0  0  0
   14.1829  -18.0622   24.0351 C   0  0  1  0  0  0  0  0  0  0  0  0
   13.2511  -17.8129   25.1761 C   0  0  0  0  0  0  0  0  0  0  0  0
   12.5788  -19.0404   25.7092 C   0  0  0  0  0  0  0  0  0  0  0  0
   12.3659  -18.9886   27.1717 C   0  0  0  0  0  0  0  0  0  0  0  0
   11.2600  -19.1832   27.7375 O   0  0  0  0  0  0  0  0  0  0  0  0
   15.0932  -19.1834   24.3723 C   0  0  0  0  0  0  0  0  0  0  0  0
   15.0261  -20.3392   23.9010 O   0  0  0  0  0  0  0  0  0  0  0  0
   13.4453  -18.7070   28.0063 O   0  0  0  0  0  0  0  0  0  0  0  0
   16.1335  -18.9768   25.2952 O   0  0  0  0  0  0  0  0  0  0  0  0
  2  1  1  6
  3  2  1  0
  4  3  1  0
  4  5  2  0
  6  5  1  0
  7  6  1  0
  8  7  2  0
  9  8  1  0
 10  9  2  0
 10 11  1  0
 11 12  2  0
 12  7  1  0
 12  4  1  0
 13  2  1  0
 13 19  1  0
 14 13  2  0
 16 15  1  6
 17 16  1  0
 18 19  1  1
 18 16  1  0
 20 18  1  0
 21 20  2  0
 22 20  1  0
 23 28  1  0
 23 22  1  0
 23 24  1  1
 25 26  1  0
 25 24  1  0
 26 27  2  0
 28 31  1  0
 29 28  2  0
 30 26  1  0
M  END
$$$$
