WTE.pdb
     RDKit          3D

 31 32  0  0  1  0  0  0  0  0999 V2000
    5.8801  -16.7713   24.3765 N   0  0  0  0  0  0  0  0  0  0  0  0
    7.0285  -16.7092   23.5056 C   0  0  1  0  0  0  0  0  0  0  0  0
    7.4837  -15.4452   23.0294 C   0  0  0  0  0  0  0  0  0  0  0  0
    7.8106  -14.2802   23.7670 C   0  0  0  0  0  0  0  0  0  0  0  0
    8.8550  -13.4458   23.3218 C   0  0  0  0  0  0  0  0  0  0  0  0
    8.9623  -12.4275   24.1768 N   0  0  0  0  0  0  0  0  0  0  0  0
    8.0585  -12.5176   25.1730 C   0  0  0  0  0  0  0  0  0  0  0  0
    7.7537  -11.7629   26.2711 C   0  0  0  0  0  0  0  0  0  0  0  0
    6.7485  -12.1289   27.1259 C   0  0  0  0  0  0  0  0  0  0  0  0
    6.0564  -13.2793   26.8442 C   0  0  0  0  0  0  0  0  0  0  0  0
    6.3315  -14.0577   25.7588 C   0  0  0  0  0  0  0  0  0  0  0  0
    7.3422  -13.6930   24.8956 C   0  0  0  0  0  0  0  0  0  0  0  0
    8.0762  -17.7397   23.8679 C   0  0  0  0  0  0  0  0  0  0  0  0
    8.0859  -18.2423   25.0290 O   0  0  0  0  0  0  0  0  0  0  0  0
    9.6660  -20.0632   20.9095 C   0  0  0  0  0  0  0  0  0  0  0  0
   10.6352  -19.5387   21.9133 C   0  0  1  0  0  0  0  0  0  0  0  0
   11.1323  -18.3222   21.3755 O   0  0  0  0  0  0  0  0  0  0  0  0
   10.0066  -19.2352   23.2774 C   0  0  2  0  0  0  0  0  0  0  0  0
    9.0378  -18.1578   22.9592 N   0  0  0  0  0  0  0  0  0  0  0  0
   11.0164  -18.7134   24.2275 C   0  0  0  0  0  0  0  0  0  0  0  0
   11.2827  -17.4758   24.2737 O   0  0  0  0  0  0  0  0  0  0  0  0
   11.6917  -19.5797   25.0908 N   0  0  0  0  0  0  0  0  0  0  0  0
   12.6589  -19.1216   26.1053 C   0  0  1  0  0  0  0  0  0  0  0  0
   12.5216  -19.9153   27.3636 C   0  0  0  0  0  0  0  0  0  0  0  0
   11.1284  -19.9794   27.9094 C   0  0  0  0  0  0  0  0  0  0  0  0
   11.0165  -20.8562   29.0949 C   0  0  0  0  0  0  0  0  0  0  0  0
   11.4736  -20.5771   30.2326 O   0  0  0  0  0  0  0  0  0  0  0  0
   14.0350  -19.2686   25.5723 C   0  0  0  0  0  0  0  0  0  0  0  0
   14.3451  -19.8665   24.5192 O   0  0  0  0  0  0  0  0  0  0  0  0
   10.3655  -22.0821   28.9749 O   0  0  0  0  0  0  0  0  0  0  0  0
   15.1138  -18.7055   26.2763 O   0  0  0  0  0  0  0  0  0  0  0  0
  2  1  1  1
  3  2  1  0
  4  3  1  0
  4  5  2  0
  6  5  1  0
  7  6  1  0
  8  7  2  0
  9  8  1  0
 10  9  2  0
 10 11  1  0
 11 12  2  0
 12  7  1  0
 12  4  1  0
 13  2  1  0
 13 19  1  0
 14 13  2  0
 16 15  1  6
 17 16  1  0
 18 19  1  6
 18 16  1  0
 20 18  1  0
 21 20  2  0
 22 20  1  0
 23 28  1  0
 23 22  1  0
 23 24  1  1
 25 26  1  0
 25 24  1  0
 26 27  2  0
 28 31  1  0
 29 28  2  0
 30 26  1  0
M  END
$$$$
