WTE.pdb
     RDKit          3D

 31 32  0  0  1  0  0  0  0  0999 V2000
    6.1082  -17.0516   25.6469 N   0  0  0  0  0  0  0  0  0  0  0  0
    6.9884  -16.2087   24.8750 C   0  0  1  0  0  0  0  0  0  0  0  0
    8.0576  -15.5253   25.5243 C   0  0  0  0  0  0  0  0  0  0  0  0
    7.9979  -14.5312   26.5322 C   0  0  0  0  0  0  0  0  0  0  0  0
    8.7438  -14.6959   27.7162 C   0  0  0  0  0  0  0  0  0  0  0  0
    8.5214  -13.6356   28.4946 N   0  0  0  0  0  0  0  0  0  0  0  0
    7.6731  -12.7628   27.9152 C   0  0  0  0  0  0  0  0  0  0  0  0
    7.1319  -11.5598   28.2736 C   0  0  0  0  0  0  0  0  0  0  0  0
    6.2704  -10.8945   27.4428 C   0  0  0  0  0  0  0  0  0  0  0  0
    5.9673  -11.4753   26.2376 C   0  0  0  0  0  0  0  0  0  0  0  0
    6.4872  -12.6736   25.8456 C   0  0  0  0  0  0  0  0  0  0  0  0
    7.3549  -13.3466   26.6784 C   0  0  0  0  0  0  0  0  0  0  0  0
    7.2525  -16.7713   23.4949 C   0  0  0  0  0  0  0  0  0  0  0  0
    7.1356  -18.0146   23.2919 O   0  0  0  0  0  0  0  0  0  0  0  0
    6.8705  -14.5667   20.2372 C   0  0  0  0  0  0  0  0  0  0  0  0
    8.1637  -15.3082   20.2327 C   0  0  1  0  0  0  0  0  0  0  0  0
    9.1445  -14.3826   20.6769 O   0  0  0  0  0  0  0  0  0  0  0  0
    8.1856  -16.5154   21.1763 C   0  0  2  0  0  0  0  0  0  0  0  0
    7.6223  -15.9603   22.4314 N   0  0  0  0  0  0  0  0  0  0  0  0
    9.5721  -16.9723   21.4282 C   0  0  0  0  0  0  0  0  0  0  0  0
   10.2130  -16.5660   22.4426 O   0  0  0  0  0  0  0  0  0  0  0  0
   10.1960  -17.8617   20.5499 N   0  0  0  0  0  0  0  0  0  0  0  0
   11.5475  -18.4075   20.7736 C   0  0  1  0  0  0  0  0  0  0  0  0
   11.9791  -19.2439   19.6133 C   0  0  0  0  0  0  0  0  0  0  0  0
   12.0296  -18.5147   18.3061 C   0  0  0  0  0  0  0  0  0  0  0  0
   12.4453  -19.3808   17.1818 C   0  0  0  0  0  0  0  0  0  0  0  0
   13.5796  -19.9127   17.0745 O   0  0  0  0  0  0  0  0  0  0  0  0
   12.5027  -17.2890   20.9630 C   0  0  0  0  0  0  0  0  0  0  0  0
   12.2885  -16.0938   20.6657 O   0  0  0  0  0  0  0  0  0  0  0  0
   11.5404  -19.6440   16.1558 O   0  0  0  0  0  0  0  0  0  0  0  0
   13.7680  -17.5459   21.5195 O   0  0  0  0  0  0  0  0  0  0  0  0
  2  1  1  1
  3  2  1  0
  4  3  1  0
  4  5  2  0
  6  5  1  0
  7  6  1  0
  8  7  2  0
  9  8  1  0
 10  9  2  0
 10 11  1  0
 11 12  2  0
 12  7  1  0
 12  4  1  0
 13  2  1  0
 13 19  1  0
 14 13  2  0
 16 15  1  1
 17 16  1  0
 18 19  1  1
 18 16  1  0
 20 18  1  0
 21 20  2  0
 22 20  1  0
 23 28  1  0
 23 22  1  0
 23 24  1  6
 25 26  1  0
 25 24  1  0
 26 27  2  0
 28 31  1  0
 29 28  2  0
 30 26  1  0
M  END
$$$$
