WTE.pdb
     RDKit          3D

 31 32  0  0  1  0  0  0  0  0999 V2000
    8.7560  -17.3439   22.1718 N   0  0  0  0  0  0  0  0  0  0  0  0
    8.7713  -16.2922   23.1591 C   0  0  1  0  0  0  0  0  0  0  0  0
    7.6051  -15.4976   23.3598 C   0  0  0  0  0  0  0  0  0  0  0  0
    7.5095  -14.1304   23.7197 C   0  0  0  0  0  0  0  0  0  0  0  0
    8.0039  -13.1444   22.8430 C   0  0  0  0  0  0  0  0  0  0  0  0
    7.7957  -11.9520   23.4037 N   0  0  0  0  0  0  0  0  0  0  0  0
    7.1923  -12.0657   24.6038 C   0  0  0  0  0  0  0  0  0  0  0  0
    6.7714  -11.1843   25.5600 C   0  0  0  0  0  0  0  0  0  0  0  0
    6.1747  -11.6207   26.7128 C   0  0  0  0  0  0  0  0  0  0  0  0
    6.0132  -12.9729   26.8771 C   0  0  0  0  0  0  0  0  0  0  0  0
    6.4201  -13.8823   25.9459 C   0  0  0  0  0  0  0  0  0  0  0  0
    7.0207  -13.4476   24.7841 C   0  0  0  0  0  0  0  0  0  0  0  0
    9.5815  -16.6680   24.3812 C   0  0  0  0  0  0  0  0  0  0  0  0
   10.1548  -17.7948   24.4309 O   0  0  0  0  0  0  0  0  0  0  0  0
   10.4129  -13.6274   27.0694 C   0  0  0  0  0  0  0  0  0  0  0  0
   10.2824  -15.0118   27.6066 C   0  0  1  0  0  0  0  0  0  0  0  0
    8.9161  -15.1642   27.9618 O   0  0  0  0  0  0  0  0  0  0  0  0
   10.6354  -16.1032   26.5906 C   0  0  2  0  0  0  0  0  0  0  0  0
    9.7191  -15.8086   25.4618 N   0  0  0  0  0  0  0  0  0  0  0  0
   10.3284  -17.4505   27.1247 C   0  0  0  0  0  0  0  0  0  0  0  0
    9.1690  -17.7279   27.5532 O   0  0  0  0  0  0  0  0  0  0  0  0
   11.3143  -18.4395   27.1630 N   0  0  0  0  0  0  0  0  0  0  0  0
   11.0896  -19.7868   27.7185 C   0  0  1  0  0  0  0  0  0  0  0  0
   12.1608  -20.7283   27.2733 C   0  0  0  0  0  0  0  0  0  0  0  0
   13.5254  -20.4130   27.8039 C   0  0  0  0  0  0  0  0  0  0  0  0
   14.5878  -21.2262   27.1739 C   0  0  0  0  0  0  0  0  0  0  0  0
   14.3892  -22.0883   26.2804 O   0  0  0  0  0  0  0  0  0  0  0  0
   11.0785  -19.7108   29.1996 C   0  0  0  0  0  0  0  0  0  0  0  0
   10.7231  -20.6284   29.9705 O   0  0  0  0  0  0  0  0  0  0  0  0
   15.9095  -21.0480   27.5769 O   0  0  0  0  0  0  0  0  0  0  0  0
   11.4933  -18.5273   29.8351 O   0  0  0  0  0  0  0  0  0  0  0  0
  2  1  1  1
  3  2  1  0
  4  3  1  0
  4  5  2  0
  6  5  1  0
  7  6  1  0
  8  7  2  0
  9  8  1  0
 10  9  2  0
 10 11  1  0
 11 12  2  0
 12  7  1  0
 12  4  1  0
 13  2  1  0
 13 19  1  0
 14 13  2  0
 16 15  1  6
 17 16  1  0
 18 19  1  6
 18 16  1  0
 20 18  1  0
 21 20  2  0
 22 20  1  0
 23 28  1  0
 23 22  1  0
 23 24  1  1
 25 26  1  0
 25 24  1  0
 26 27  2  0
 28 31  1  0
 29 28  2  0
 30 26  1  0
M  END
$$$$
