WTE.pdb
     RDKit          3D

 31 32  0  0  1  0  0  0  0  0999 V2000
    6.6424  -17.7433   24.2319 N   0  0  0  0  0  0  0  0  0  0  0  0
    7.6129  -16.7182   23.9342 C   0  0  1  0  0  0  0  0  0  0  0  0
    7.9440  -15.7519   24.9283 C   0  0  0  0  0  0  0  0  0  0  0  0
    7.0987  -14.8236   25.5851 C   0  0  0  0  0  0  0  0  0  0  0  0
    5.9726  -15.2886   26.2929 C   0  0  0  0  0  0  0  0  0  0  0  0
    5.3492  -14.2318   26.8164 N   0  0  0  0  0  0  0  0  0  0  0  0
    5.9795  -13.0805   26.5094 C   0  0  0  0  0  0  0  0  0  0  0  0
    5.7638  -11.7589   26.7838 C   0  0  0  0  0  0  0  0  0  0  0  0
    6.6087  -10.7899   26.3123 C   0  0  0  0  0  0  0  0  0  0  0  0
    7.6801  -11.1892   25.5542 C   0  0  0  0  0  0  0  0  0  0  0  0
    7.9278  -12.4974   25.2597 C   0  0  0  0  0  0  0  0  0  0  0  0
    7.0802  -13.4760   25.7324 C   0  0  0  0  0  0  0  0  0  0  0  0
    8.7333  -17.2309   23.0551 C   0  0  0  0  0  0  0  0  0  0  0  0
    9.4638  -18.1809   23.4608 O   0  0  0  0  0  0  0  0  0  0  0  0
    8.3911  -16.6985   19.2040 C   0  0  0  0  0  0  0  0  0  0  0  0
    9.8176  -16.5324   19.6033 C   0  0  1  0  0  0  0  0  0  0  0  0
   10.0466  -15.1321   19.6554 O   0  0  0  0  0  0  0  0  0  0  0  0
   10.1451  -17.1205   20.9799 C   0  0  2  0  0  0  0  0  0  0  0  0
    8.9897  -16.6885   21.8039 N   0  0  0  0  0  0  0  0  0  0  0  0
   11.3841  -16.5268   21.5341 C   0  0  0  0  0  0  0  0  0  0  0  0
   11.4201  -15.3080   21.8777 O   0  0  0  0  0  0  0  0  0  0  0  0
   12.5348  -17.3037   21.6885 N   0  0  0  0  0  0  0  0  0  0  0  0
   13.8186  -16.7632   22.1727 C   0  0  1  0  0  0  0  0  0  0  0  0
   14.4310  -17.6785   23.1823 C   0  0  0  0  0  0  0  0  0  0  0  0
   13.6126  -17.8741   24.4212 C   0  0  0  0  0  0  0  0  0  0  0  0
   14.2150  -18.8459   25.3592 C   0  0  0  0  0  0  0  0  0  0  0  0
   14.1997  -20.0930   25.1995 O   0  0  0  0  0  0  0  0  0  0  0  0
   14.7442  -16.5971   21.0260 C   0  0  0  0  0  0  0  0  0  0  0  0
   15.8543  -16.0237   21.0668 O   0  0  0  0  0  0  0  0  0  0  0  0
   14.8502  -18.3783   26.5076 O   0  0  0  0  0  0  0  0  0  0  0  0
   14.3859  -17.1105   19.7671 O   0  0  0  0  0  0  0  0  0  0  0  0
  2  1  1  1
  3  2  1  0
  4  3  1  0
  4  5  2  0
  6  5  1  0
  7  6  1  0
  8  7  2  0
  9  8  1  0
 10  9  2  0
 10 11  1  0
 11 12  2  0
 12  7  1  0
 12  4  1  0
 13  2  1  0
 13 19  1  0
 14 13  2  0
 16 15  1  1
 17 16  1  0
 18 19  1  1
 18 16  1  0
 20 18  1  0
 21 20  2  0
 22 20  1  0
 23 28  1  0
 23 22  1  0
 23 24  1  1
 25 26  1  0
 25 24  1  0
 26 27  2  0
 28 31  1  0
 29 28  2  0
 30 26  1  0
M  END
$$$$
