WTE.pdb
     RDKit          3D

 31 32  0  0  1  0  0  0  0  0999 V2000
    6.5671  -17.5846   24.6826 N   0  0  0  0  0  0  0  0  0  0  0  0
    7.1329  -16.6767   23.7148 C   0  0  1  0  0  0  0  0  0  0  0  0
    7.5703  -15.3858   24.1319 C   0  0  0  0  0  0  0  0  0  0  0  0
    6.9336  -14.4678   25.0035 C   0  0  0  0  0  0  0  0  0  0  0  0
    5.6887  -14.7996   25.5738 C   0  0  0  0  0  0  0  0  0  0  0  0
    5.3057  -13.7832   26.3483 N   0  0  0  0  0  0  0  0  0  0  0  0
    6.2103  -12.7838   26.3400 C   0  0  0  0  0  0  0  0  0  0  0  0
    6.3008  -11.5586   26.9392 C   0  0  0  0  0  0  0  0  0  0  0  0
    7.3796  -10.7427   26.7251 C   0  0  0  0  0  0  0  0  0  0  0  0
    8.3679  -11.1955   25.8884 C   0  0  0  0  0  0  0  0  0  0  0  0
    8.3128  -12.4112   25.2730 C   0  0  0  0  0  0  0  0  0  0  0  0
    7.2291  -13.2357   25.4858 C   0  0  0  0  0  0  0  0  0  0  0  0
    7.9653  -17.3962   22.6754 C   0  0  0  0  0  0  0  0  0  0  0  0
    8.5001  -18.5070   22.9598 O   0  0  0  0  0  0  0  0  0  0  0  0
    9.8734  -16.9924   18.0868 C   0  0  0  0  0  0  0  0  0  0  0  0
    8.9604  -16.6146   19.2029 C   0  0  1  0  0  0  0  0  0  0  0  0
    7.6512  -16.9446   18.7634 O   0  0  0  0  0  0  0  0  0  0  0  0
    9.2316  -17.3745   20.5056 C   0  0  2  0  0  0  0  0  0  0  0  0
    8.1641  -16.8733   21.4055 N   0  0  0  0  0  0  0  0  0  0  0  0
   10.5518  -17.0117   21.0714 C   0  0  0  0  0  0  0  0  0  0  0  0
   10.7045  -15.9330   21.7178 O   0  0  0  0  0  0  0  0  0  0  0  0
   11.6518  -17.8561   20.9022 N   0  0  0  0  0  0  0  0  0  0  0  0
   12.7824  -17.9136   21.8473 C   0  0  1  0  0  0  0  0  0  0  0  0
   12.5747  -18.9964   22.8555 C   0  0  0  0  0  0  0  0  0  0  0  0
   13.6784  -19.1315   23.8588 C   0  0  0  0  0  0  0  0  0  0  0  0
   13.1815  -19.2351   25.2478 C   0  0  0  0  0  0  0  0  0  0  0  0
   12.4388  -20.1570   25.6714 O   0  0  0  0  0  0  0  0  0  0  0  0
   14.0362  -18.1667   21.0968 C   0  0  0  0  0  0  0  0  0  0  0  0
   14.2028  -19.0662   20.2448 O   0  0  0  0  0  0  0  0  0  0  0  0
   13.5438  -18.2594   26.1739 O   0  0  0  0  0  0  0  0  0  0  0  0
   15.1587  -17.3529   21.3299 O   0  0  0  0  0  0  0  0  0  0  0  0
  2  1  1  1
  3  2  1  0
  4  3  1  0
  4  5  2  0
  6  5  1  0
  7  6  1  0
  8  7  2  0
  9  8  1  0
 10  9  2  0
 10 11  1  0
 11 12  2  0
 12  7  1  0
 12  4  1  0
 13  2  1  0
 13 19  1  0
 14 13  2  0
 16 15  1  6
 17 16  1  0
 18 19  1  1
 18 16  1  0
 20 18  1  0
 21 20  2  0
 22 20  1  0
 23 28  1  0
 23 22  1  0
 23 24  1  1
 25 26  1  0
 25 24  1  0
 26 27  2  0
 28 31  1  0
 29 28  2  0
 30 26  1  0
M  END
$$$$
