WTE.pdb
     RDKit          3D

 31 32  0  0  1  0  0  0  0  0999 V2000
    5.9953  -18.5621   25.1512 N   0  0  0  0  0  0  0  0  0  0  0  0
    6.6757  -17.3257   24.8523 C   0  0  1  0  0  0  0  0  0  0  0  0
    7.1160  -16.4886   25.9187 C   0  0  0  0  0  0  0  0  0  0  0  0
    6.6112  -15.2303   26.3305 C   0  0  0  0  0  0  0  0  0  0  0  0
    5.3251  -15.1498   26.9003 C   0  0  0  0  0  0  0  0  0  0  0  0
    5.0867  -13.8724   27.2019 N   0  0  0  0  0  0  0  0  0  0  0  0
    6.1279  -13.0816   26.8734 C   0  0  0  0  0  0  0  0  0  0  0  0
    6.3902  -11.7433   26.9652 C   0  0  0  0  0  0  0  0  0  0  0  0
    7.5790  -11.2224   26.5286 C   0  0  0  0  0  0  0  0  0  0  0  0
    8.4993  -12.0886   25.9951 C   0  0  0  0  0  0  0  0  0  0  0  0
    8.2735  -13.4291   25.8870 C   0  0  0  0  0  0  0  0  0  0  0  0
    7.0786  -13.9577   26.3255 C   0  0  0  0  0  0  0  0  0  0  0  0
    7.5742  -17.4469   23.6403 C   0  0  0  0  0  0  0  0  0  0  0  0
    8.0287  -18.5799   23.3078 O   0  0  0  0  0  0  0  0  0  0  0  0
    9.4504  -14.8943   19.7954 C   0  0  0  0  0  0  0  0  0  0  0  0
    8.5420  -15.1231   20.9550 C   0  0  1  0  0  0  0  0  0  0  0  0
    7.2251  -15.1201   20.4242 O   0  0  0  0  0  0  0  0  0  0  0  0
    8.7686  -16.4644   21.6605 C   0  0  2  0  0  0  0  0  0  0  0  0
    7.9203  -16.3448   22.8716 N   0  0  0  0  0  0  0  0  0  0  0  0
   10.1829  -16.6194   22.0732 C   0  0  0  0  0  0  0  0  0  0  0  0
   10.6458  -15.9663   23.0551 O   0  0  0  0  0  0  0  0  0  0  0  0
   11.0305  -17.4914   21.3856 N   0  0  0  0  0  0  0  0  0  0  0  0
   12.4205  -17.7626   21.7964 C   0  0  1  0  0  0  0  0  0  0  0  0
   13.0245  -18.8323   20.9461 C   0  0  0  0  0  0  0  0  0  0  0  0
   14.4356  -19.1864   21.3016 C   0  0  0  0  0  0  0  0  0  0  0  0
   14.9807  -20.2787   20.4668 C   0  0  0  0  0  0  0  0  0  0  0  0
   15.6331  -21.2572   20.9118 O   0  0  0  0  0  0  0  0  0  0  0  0
   13.2195  -16.5193   21.6735 C   0  0  0  0  0  0  0  0  0  0  0  0
   13.0885  -15.6584   20.7766 O   0  0  0  0  0  0  0  0  0  0  0  0
   14.7737  -20.2498   19.0894 O   0  0  0  0  0  0  0  0  0  0  0  0
   14.2202  -16.2429   22.6216 O   0  0  0  0  0  0  0  0  0  0  0  0
  2  1  1  1
  3  2  1  0
  4  3  1  0
  4  5  2  0
  6  5  1  0
  7  6  1  0
  8  7  2  0
  9  8  1  0
 10  9  2  0
 10 11  1  0
 11 12  2  0
 12  7  1  0
 12  4  1  0
 13  2  1  0
 13 19  1  0
 14 13  2  0
 16 15  1  6
 17 16  1  0
 18 19  1  1
 18 16  1  0
 20 18  1  0
 21 20  2  0
 22 20  1  0
 23 28  1  0
 23 22  1  0
 23 24  1  6
 25 26  1  0
 25 24  1  0
 26 27  2  0
 28 31  1  0
 29 28  2  0
 30 26  1  0
M  END
$$$$
