TMC.pdb
     RDKit          3D

 22 21  0  0  1  0  0  0  0  0999 V2000
    6.9785  -14.7959   17.6174 C   0  0  0  0  0  0  0  0  0  0  0  0
    7.5367  -14.8532   19.0266 C   0  0  1  0  0  0  0  0  0  0  0  0
    8.8018  -15.4031   18.9823 O   0  0  0  0  0  0  0  0  0  0  0  0
    7.5189  -13.4503   19.5910 C   0  0  2  0  0  0  0  0  0  0  0  0
    8.3309  -12.5956   18.7537 N   0  0  0  0  0  0  0  0  0  0  0  0
    8.0542  -13.5031   20.9816 C   0  0  0  0  0  0  0  0  0  0  0  0
    9.2772  -13.3048   21.2357 O   0  0  0  0  0  0  0  0  0  0  0  0
    7.2090  -12.0567   28.5878 C   0  0  0  0  0  0  0  0  0  0  0  0
    6.3245  -12.2704   26.9960 S   0  0  0  0  0  0  0  0  0  0  0  0
    7.4388  -13.0534   25.7862 C   0  0  0  0  0  0  0  0  0  0  0  0
    6.7885  -13.1501   24.4303 C   0  0  0  0  0  0  0  0  0  0  0  0
    7.7044  -13.7898   23.4691 C   0  0  2  0  0  0  0  0  0  0  0  0
    7.2272  -13.7779   22.1006 N   0  0  0  0  0  0  0  0  0  0  0  0
    8.1652  -15.1448   23.7934 C   0  0  0  0  0  0  0  0  0  0  0  0
    7.4523  -16.1788   23.8605 O   0  0  0  0  0  0  0  0  0  0  0  0
    9.5619  -15.3825   24.0731 N   0  0  0  0  0  0  0  0  0  0  0  0
   10.0418  -16.6147   24.6100 C   0  0  1  0  0  0  0  0  0  0  0  0
   11.5139  -16.5719   24.9681 C   0  0  0  0  0  0  0  0  0  0  0  0
   12.0066  -18.1827   25.6946 S   0  0  0  0  0  0  0  0  0  0  0  0
    9.2987  -17.0969   25.7860 C   0  0  0  0  0  0  0  0  0  0  0  0
    9.1418  -16.3857   26.9545 O   0  0  0  0  0  0  0  0  0  0  0  0
    8.7743  -18.2404   25.7072 O   0  0  0  0  0  0  0  0  0  0  0  0
  2  1  1  6
  2  4  1  0
  3  2  1  0
  4  6  1  0
  4  5  1  6
  6  7  2  0
  8  9  1  0
  9 10  1  0
 10 11  1  0
 12 11  1  1
 12 14  1  0
 13 12  1  0
 13  6  1  0
 14 15  2  0
 14 16  1  0
 16 17  1  0
 17 20  1  0
 17 18  1  1
 19 18  1  0
 20 22  2  0
 20 21  1  0
M  END
$$$$
