TMC.pdb
     RDKit          3D

 22 21  0  0  1  0  0  0  0  0999 V2000
    7.4619  -18.6438   20.2855 C   0  0  0  0  0  0  0  0  0  0  0  0
    8.1100  -17.9718   21.4811 C   0  0  1  0  0  0  0  0  0  0  0  0
    9.2365  -18.6856   21.8364 O   0  0  0  0  0  0  0  0  0  0  0  0
    8.4102  -16.5388   21.1025 C   0  0  2  0  0  0  0  0  0  0  0  0
    9.4105  -16.5273   20.0584 N   0  0  0  0  0  0  0  0  0  0  0  0
    8.8985  -15.8302   22.3201 C   0  0  0  0  0  0  0  0  0  0  0  0
   10.1284  -15.7630   22.6071 O   0  0  0  0  0  0  0  0  0  0  0  0
    5.2441  -12.1630   26.9354 C   0  0  0  0  0  0  0  0  0  0  0  0
    6.9279  -11.4753   26.7040 S   0  0  0  0  0  0  0  0  0  0  0  0
    8.0461  -12.7951   26.1327 C   0  0  0  0  0  0  0  0  0  0  0  0
    7.5509  -13.4104   24.8494 C   0  0  0  0  0  0  0  0  0  0  0  0
    8.4565  -14.4901   24.4181 C   0  0  2  0  0  0  0  0  0  0  0  0
    8.0162  -15.1902   23.2277 N   0  0  0  0  0  0  0  0  0  0  0  0
    8.8366  -15.4811   25.4314 C   0  0  0  0  0  0  0  0  0  0  0  0
    8.1209  -16.4230   25.8586 O   0  0  0  0  0  0  0  0  0  0  0  0
   10.1465  -15.4255   26.0368 N   0  0  0  0  0  0  0  0  0  0  0  0
   10.5761  -16.3546   27.0314 C   0  0  1  0  0  0  0  0  0  0  0  0
   12.0303  -16.7545   26.8802 C   0  0  0  0  0  0  0  0  0  0  0  0
   12.5227  -16.5911   25.1206 S   0  0  0  0  0  0  0  0  0  0  0  0
   10.3675  -15.9030   28.4171 C   0  0  0  0  0  0  0  0  0  0  0  0
   10.6834  -16.6433   29.5342 O   0  0  0  0  0  0  0  0  0  0  0  0
    9.8648  -14.7588   28.5807 O   0  0  0  0  0  0  0  0  0  0  0  0
  2  1  1  6
  2  4  1  0
  3  2  1  0
  4  6  1  0
  4  5  1  6
  6  7  2  0
  8  9  1  0
  9 10  1  0
 10 11  1  0
 12 11  1  1
 12 14  1  0
 13 12  1  0
 13  6  1  0
 14 15  2  0
 14 16  1  0
 16 17  1  0
 17 20  1  0
 17 18  1  6
 19 18  1  0
 20 22  2  0
 20 21  1  0
M  END
$$$$
