TMC.pdb
     RDKit          3D

 22 21  0  0  1  0  0  0  0  0999 V2000
    9.3706  -18.9889   19.9197 C   0  0  0  0  0  0  0  0  0  0  0  0
    9.5637  -18.2269   21.2170 C   0  0  1  0  0  0  0  0  0  0  0  0
   10.6831  -18.7169   21.8587 O   0  0  0  0  0  0  0  0  0  0  0  0
    9.6685  -16.7561   20.8809 C   0  0  2  0  0  0  0  0  0  0  0  0
   10.8455  -16.5414   20.0688 N   0  0  0  0  0  0  0  0  0  0  0  0
    9.7531  -15.9933   22.1592 C   0  0  0  0  0  0  0  0  0  0  0  0
   10.8523  -15.5549   22.6052 O   0  0  0  0  0  0  0  0  0  0  0  0
    6.2455  -11.5611   27.6536 C   0  0  0  0  0  0  0  0  0  0  0  0
    5.9409  -12.7880   26.3256 S   0  0  0  0  0  0  0  0  0  0  0  0
    7.5208  -13.5490   25.8323 C   0  0  0  0  0  0  0  0  0  0  0  0
    7.3630  -14.3648   24.5753 C   0  0  0  0  0  0  0  0  0  0  0  0
    8.6533  -14.9630   24.1894 C   0  0  2  0  0  0  0  0  0  0  0  0
    8.6095  -15.7137   22.9503 N   0  0  0  0  0  0  0  0  0  0  0  0
    9.3390  -15.7720   25.2038 C   0  0  0  0  0  0  0  0  0  0  0  0
    9.2600  -17.0197   25.3409 O   0  0  0  0  0  0  0  0  0  0  0  0
   10.2037  -15.1346   26.1689 N   0  0  0  0  0  0  0  0  0  0  0  0
   10.9265  -15.8665   27.1582 C   0  0  1  0  0  0  0  0  0  0  0  0
   11.4937  -14.9838   28.2520 C   0  0  0  0  0  0  0  0  0  0  0  0
   10.1532  -13.9386   28.9418 S   0  0  0  0  0  0  0  0  0  0  0  0
   10.1593  -16.9493   27.7961 C   0  0  0  0  0  0  0  0  0  0  0  0
    8.8085  -17.1533   27.6247 O   0  0  0  0  0  0  0  0  0  0  0  0
   10.7922  -17.7379   28.5486 O   0  0  0  0  0  0  0  0  0  0  0  0
  2  1  1  6
  2  4  1  0
  3  2  1  0
  4  6  1  0
  4  5  1  6
  6  7  2  0
  8  9  1  0
  9 10  1  0
 10 11  1  0
 12 11  1  1
 12 14  1  0
 13 12  1  0
 13  6  1  0
 14 15  2  0
 14 16  1  0
 16 17  1  0
 17 20  1  0
 17 18  1  1
 19 18  1  0
 20 22  2  0
 20 21  1  0
M  END
$$$$
