TMC.pdb
     RDKit          3D

 22 21  0  0  1  0  0  0  0  0999 V2000
   10.1764  -18.9923   22.3094 C   0  0  0  0  0  0  0  0  0  0  0  0
   10.6376  -18.1799   21.1144 C   0  0  1  0  0  0  0  0  0  0  0  0
   10.5409  -18.9613   19.9808 O   0  0  0  0  0  0  0  0  0  0  0  0
    9.7898  -16.9294   21.0473 C   0  0  2  0  0  0  0  0  0  0  0  0
   10.2484  -16.1081   19.9490 N   0  0  0  0  0  0  0  0  0  0  0  0
    9.9219  -16.2095   22.3463 C   0  0  0  0  0  0  0  0  0  0  0  0
   11.0037  -15.6566   22.6979 O   0  0  0  0  0  0  0  0  0  0  0  0
    6.3599  -11.2454   27.0262 C   0  0  0  0  0  0  0  0  0  0  0  0
    6.1144  -12.8298   26.1368 S   0  0  0  0  0  0  0  0  0  0  0  0
    7.7275  -13.4633   25.5751 C   0  0  0  0  0  0  0  0  0  0  0  0
    7.5858  -14.8185   24.9317 C   0  0  0  0  0  0  0  0  0  0  0  0
    8.8992  -15.3068   24.4751 C   0  0  2  0  0  0  0  0  0  0  0  0
    8.8458  -16.1011   23.2638 N   0  0  0  0  0  0  0  0  0  0  0  0
    9.7243  -16.0123   25.4626 C   0  0  0  0  0  0  0  0  0  0  0  0
    9.8784  -17.2573   25.5524 O   0  0  0  0  0  0  0  0  0  0  0  0
   10.4566  -15.2626   26.4560 N   0  0  0  0  0  0  0  0  0  0  0  0
   11.2641  -15.8878   27.4530 C   0  0  1  0  0  0  0  0  0  0  0  0
   11.8142  -14.9080   28.4704 C   0  0  0  0  0  0  0  0  0  0  0  0
   10.4806  -13.7583   28.9852 S   0  0  0  0  0  0  0  0  0  0  0  0
   10.5955  -16.9778   28.1828 C   0  0  0  0  0  0  0  0  0  0  0  0
   11.2279  -17.8343   29.0558 O   0  0  0  0  0  0  0  0  0  0  0  0
    9.3593  -17.1283   27.9877 O   0  0  0  0  0  0  0  0  0  0  0  0
  2  1  1  1
  2  4  1  0
  3  2  1  0
  4  6  1  0
  4  5  1  6
  6  7  2  0
  8  9  1  0
  9 10  1  0
 10 11  1  0
 12 11  1  1
 12 14  1  0
 13 12  1  0
 13  6  1  0
 14 15  2  0
 14 16  1  0
 16 17  1  0
 17 20  1  0
 17 18  1  1
 19 18  1  0
 20 22  2  0
 20 21  1  0
M  END
$$$$
