TMC.pdb
     RDKit          3D

 22 21  0  0  1  0  0  0  0  0999 V2000
    7.1933  -14.8328   17.7937 C   0  0  0  0  0  0  0  0  0  0  0  0
    7.7032  -14.9105   19.2201 C   0  0  1  0  0  0  0  0  0  0  0  0
    8.9642  -15.4714   19.2122 O   0  0  0  0  0  0  0  0  0  0  0  0
    7.6787  -13.5136   19.7993 C   0  0  2  0  0  0  0  0  0  0  0  0
    8.5019  -12.6505   18.9817 N   0  0  0  0  0  0  0  0  0  0  0  0
    8.1958  -13.5817   21.1960 C   0  0  0  0  0  0  0  0  0  0  0  0
    9.4220  -13.4261   21.4638 O   0  0  0  0  0  0  0  0  0  0  0  0
    7.2184  -11.0285   27.8660 C   0  0  0  0  0  0  0  0  0  0  0  0
    6.3580  -12.5245   27.2469 S   0  0  0  0  0  0  0  0  0  0  0  0
    7.4255  -13.3811   26.0446 C   0  0  0  0  0  0  0  0  0  0  0  0
    6.8872  -13.2434   24.6439 C   0  0  0  0  0  0  0  0  0  0  0  0
    7.8105  -13.8660   23.6786 C   0  0  2  0  0  0  0  0  0  0  0  0
    7.3468  -13.8240   22.3060 N   0  0  0  0  0  0  0  0  0  0  0  0
    8.2638  -15.2290   23.9790 C   0  0  0  0  0  0  0  0  0  0  0  0
    7.5789  -16.2799   23.8873 O   0  0  0  0  0  0  0  0  0  0  0  0
    9.6176  -15.4547   24.4282 N   0  0  0  0  0  0  0  0  0  0  0  0
   10.1257  -16.7558   24.7212 C   0  0  1  0  0  0  0  0  0  0  0  0
   11.5920  -16.9124   24.3704 C   0  0  0  0  0  0  0  0  0  0  0  0
   12.1666  -18.5720   24.9003 S   0  0  0  0  0  0  0  0  0  0  0  0
    9.9419  -17.1808   26.1189 C   0  0  0  0  0  0  0  0  0  0  0  0
    9.6210  -18.4617   26.5084 O   0  0  0  0  0  0  0  0  0  0  0  0
   10.0907  -16.3039   27.0120 O   0  0  0  0  0  0  0  0  0  0  0  0
  2  1  1  6
  2  4  1  0
  3  2  1  0
  4  6  1  0
  4  5  1  6
  6  7  2  0
  8  9  1  0
  9 10  1  0
 10 11  1  0
 12 11  1  1
 12 14  1  0
 13 12  1  0
 13  6  1  0
 14 15  2  0
 14 16  1  0
 16 17  1  0
 17 20  1  0
 17 18  1  1
 19 18  1  0
 20 22  2  0
 20 21  1  0
M  END
$$$$
