TMC.pdb
     RDKit          3D

 22 21  0  0  1  0  0  0  0  0999 V2000
    7.1251  -17.1892   19.0039 C   0  0  0  0  0  0  0  0  0  0  0  0
    7.6867  -16.9466   20.3919 C   0  0  1  0  0  0  0  0  0  0  0  0
    8.6060  -17.9351   20.6794 O   0  0  0  0  0  0  0  0  0  0  0  0
    8.2828  -15.5569   20.4158 C   0  0  2  0  0  0  0  0  0  0  0  0
    9.3482  -15.4847   19.4408 N   0  0  0  0  0  0  0  0  0  0  0  0
    8.7964  -15.2962   21.7910 C   0  0  0  0  0  0  0  0  0  0  0  0
   10.0137  -15.4600   22.0928 O   0  0  0  0  0  0  0  0  0  0  0  0
    5.4633  -12.2360   26.7891 C   0  0  0  0  0  0  0  0  0  0  0  0
    7.2477  -11.9934   27.1333 S   0  0  0  0  0  0  0  0  0  0  0  0
    8.2117  -13.2582   26.2443 C   0  0  0  0  0  0  0  0  0  0  0  0
    7.6322  -13.5241   24.8790 C   0  0  0  0  0  0  0  0  0  0  0  0
    8.4267  -14.5482   24.1777 C   0  0  2  0  0  0  0  0  0  0  0  0
    7.9540  -14.8499   22.8412 N   0  0  0  0  0  0  0  0  0  0  0  0
    8.6578  -15.8105   24.8896 C   0  0  0  0  0  0  0  0  0  0  0  0
    7.8499  -16.7693   24.9890 O   0  0  0  0  0  0  0  0  0  0  0  0
    9.9150  -16.0374   25.5630 N   0  0  0  0  0  0  0  0  0  0  0  0
   10.1990  -17.2374   26.2815 C   0  0  1  0  0  0  0  0  0  0  0  0
   11.4839  -17.9059   25.8346 C   0  0  0  0  0  0  0  0  0  0  0  0
   11.4357  -18.1549   24.0177 S   0  0  0  0  0  0  0  0  0  0  0  0
   10.2534  -17.0733   27.7437 C   0  0  0  0  0  0  0  0  0  0  0  0
   10.5420  -18.0852   28.6315 O   0  0  0  0  0  0  0  0  0  0  0  0
   10.0179  -15.9236   28.2035 O   0  0  0  0  0  0  0  0  0  0  0  0
  2  1  1  6
  2  4  1  0
  3  2  1  0
  4  6  1  0
  4  5  1  6
  6  7  2  0
  8  9  1  0
  9 10  1  0
 10 11  1  0
 12 11  1  1
 12 14  1  0
 13 12  1  0
 13  6  1  0
 14 15  2  0
 14 16  1  0
 16 17  1  0
 17 20  1  0
 17 18  1  6
 19 18  1  0
 20 22  2  0
 20 21  1  0
M  END
$$$$
