TMC.pdb
     RDKit          3D

 22 21  0  0  1  0  0  0  0  0999 V2000
    8.3943  -17.8171   18.9301 C   0  0  0  0  0  0  0  0  0  0  0  0
    8.7173  -17.4106   20.3553 C   0  0  1  0  0  0  0  0  0  0  0  0
    9.8962  -18.0192   20.7357 O   0  0  0  0  0  0  0  0  0  0  0  0
    8.7866  -15.9006   20.4036 C   0  0  2  0  0  0  0  0  0  0  0  0
    9.8757  -15.4522   19.5647 N   0  0  0  0  0  0  0  0  0  0  0  0
    8.9987  -15.4913   21.8215 C   0  0  0  0  0  0  0  0  0  0  0  0
   10.1485  -15.4746   22.3481 O   0  0  0  0  0  0  0  0  0  0  0  0
    7.2645  -11.8549   28.3182 C   0  0  0  0  0  0  0  0  0  0  0  0
    6.8501  -12.1464   26.5561 S   0  0  0  0  0  0  0  0  0  0  0  0
    7.1492  -13.8962   26.1468 C   0  0  0  0  0  0  0  0  0  0  0  0
    6.9000  -14.1634   24.6849 C   0  0  0  0  0  0  0  0  0  0  0  0
    8.0816  -14.7968   24.0729 C   0  0  2  0  0  0  0  0  0  0  0  0
    7.9275  -15.0968   22.6633 N   0  0  0  0  0  0  0  0  0  0  0  0
    8.6230  -15.9819   24.7482 C   0  0  0  0  0  0  0  0  0  0  0  0
    8.1353  -17.1410   24.7256 O   0  0  0  0  0  0  0  0  0  0  0  0
    9.8316  -15.8749   25.5313 N   0  0  0  0  0  0  0  0  0  0  0  0
   10.3954  -16.9818   26.2339 C   0  0  1  0  0  0  0  0  0  0  0  0
   11.8838  -17.1399   25.9944 C   0  0  0  0  0  0  0  0  0  0  0  0
   12.2018  -17.2092   24.1891 S   0  0  0  0  0  0  0  0  0  0  0  0
   10.1658  -16.9610   27.6881 C   0  0  0  0  0  0  0  0  0  0  0  0
   10.6556  -17.8996   28.5682 O   0  0  0  0  0  0  0  0  0  0  0  0
    9.4718  -16.0147   28.1483 O   0  0  0  0  0  0  0  0  0  0  0  0
  2  1  1  6
  2  4  1  0
  3  2  1  0
  4  6  1  0
  4  5  1  6
  6  7  2  0
  8  9  1  0
  9 10  1  0
 10 11  1  0
 12 11  1  1
 12 14  1  0
 13 12  1  0
 13  6  1  0
 14 15  2  0
 14 16  1  0
 16 17  1  0
 17 20  1  0
 17 18  1  1
 19 18  1  0
 20 22  2  0
 20 21  1  0
M  END
$$$$
