TMC.pdb
     RDKit          3D

 22 21  0  0  1  0  0  0  0  0999 V2000
    7.6383  -18.2806   19.0419 C   0  0  0  0  0  0  0  0  0  0  0  0
    8.1469  -17.8354   20.3998 C   0  0  1  0  0  0  0  0  0  0  0  0
    9.1995  -18.6481   20.7693 O   0  0  0  0  0  0  0  0  0  0  0  0
    8.5314  -16.3764   20.2967 C   0  0  2  0  0  0  0  0  0  0  0  0
    9.6557  -16.2484   19.3963 N   0  0  0  0  0  0  0  0  0  0  0  0
    8.8809  -15.8914   21.6626 C   0  0  0  0  0  0  0  0  0  0  0  0
   10.0759  -15.8570   22.0750 O   0  0  0  0  0  0  0  0  0  0  0  0
    7.0539  -11.4972   27.9427 C   0  0  0  0  0  0  0  0  0  0  0  0
    6.3707  -12.3302   26.4592 S   0  0  0  0  0  0  0  0  0  0  0  0
    7.6282  -13.4486   25.7616 C   0  0  0  0  0  0  0  0  0  0  0  0
    7.1645  -14.0425   24.4566 C   0  0  0  0  0  0  0  0  0  0  0  0
    8.2049  -14.9249   23.8990 C   0  0  2  0  0  0  0  0  0  0  0  0
    7.8974  -15.4404   22.5797 N   0  0  0  0  0  0  0  0  0  0  0  0
    8.6537  -16.0373   24.7443 C   0  0  0  0  0  0  0  0  0  0  0  0
    7.9902  -17.0640   25.0400 O   0  0  0  0  0  0  0  0  0  0  0  0
    9.9760  -16.0127   25.3242 N   0  0  0  0  0  0  0  0  0  0  0  0
   10.4804  -17.0705   26.1388 C   0  0  1  0  0  0  0  0  0  0  0  0
   11.9841  -17.2313   26.0375 C   0  0  0  0  0  0  0  0  0  0  0  0
   12.4636  -17.3340   24.2698 S   0  0  0  0  0  0  0  0  0  0  0  0
   10.1268  -16.9631   27.5640 C   0  0  0  0  0  0  0  0  0  0  0  0
   10.5288  -17.8515   28.5360 O   0  0  0  0  0  0  0  0  0  0  0  0
    9.4063  -15.9874   27.9069 O   0  0  0  0  0  0  0  0  0  0  0  0
  2  1  1  6
  2  4  1  0
  3  2  1  0
  4  6  1  0
  4  5  1  6
  6  7  2  0
  8  9  1  0
  9 10  1  0
 10 11  1  0
 12 11  1  1
 12 14  1  0
 13 12  1  0
 13  6  1  0
 14 15  2  0
 14 16  1  0
 16 17  1  0
 17 20  1  0
 17 18  1  1
 19 18  1  0
 20 22  2  0
 20 21  1  0
M  END
$$$$
