TMC.pdb
     RDKit          3D

 22 21  0  0  1  0  0  0  0  0999 V2000
    7.7356  -18.3857   21.3688 C   0  0  0  0  0  0  0  0  0  0  0  0
    8.6461  -17.7975   20.3078 C   0  0  1  0  0  0  0  0  0  0  0  0
    8.3821  -18.4153   19.1022 O   0  0  0  0  0  0  0  0  0  0  0  0
    8.4142  -16.3035   20.2724 C   0  0  2  0  0  0  0  0  0  0  0  0
    9.2087  -15.7288   19.2097 N   0  0  0  0  0  0  0  0  0  0  0  0
    8.8048  -15.7421   21.5972 C   0  0  0  0  0  0  0  0  0  0  0  0
   10.0158  -15.6151   21.9393 O   0  0  0  0  0  0  0  0  0  0  0  0
    7.0962  -11.6390   28.1204 C   0  0  0  0  0  0  0  0  0  0  0  0
    6.4103  -12.3411   26.5718 S   0  0  0  0  0  0  0  0  0  0  0  0
    7.6369  -13.4588   25.8201 C   0  0  0  0  0  0  0  0  0  0  0  0
    7.1901  -13.9190   24.4565 C   0  0  0  0  0  0  0  0  0  0  0  0
    8.1868  -14.8359   23.8752 C   0  0  2  0  0  0  0  0  0  0  0  0
    7.8453  -15.3175   22.5515 N   0  0  0  0  0  0  0  0  0  0  0  0
    8.5960  -15.9792   24.6992 C   0  0  0  0  0  0  0  0  0  0  0  0
    7.8991  -16.9906   24.9699 O   0  0  0  0  0  0  0  0  0  0  0  0
    9.9151  -16.0080   25.2862 N   0  0  0  0  0  0  0  0  0  0  0  0
   10.3962  -17.1154   26.0472 C   0  0  1  0  0  0  0  0  0  0  0  0
   11.8770  -17.3716   25.8499 C   0  0  0  0  0  0  0  0  0  0  0  0
   12.2186  -17.5977   24.0617 S   0  0  0  0  0  0  0  0  0  0  0  0
   10.1374  -17.0187   27.4934 C   0  0  0  0  0  0  0  0  0  0  0  0
   10.5146  -17.9667   28.4179 O   0  0  0  0  0  0  0  0  0  0  0  0
    9.5282  -15.9938   27.9025 O   0  0  0  0  0  0  0  0  0  0  0  0
  2  1  1  1
  2  4  1  0
  3  2  1  0
  4  6  1  0
  4  5  1  6
  6  7  2  0
  8  9  1  0
  9 10  1  0
 10 11  1  0
 12 11  1  1
 12 14  1  0
 13 12  1  0
 13  6  1  0
 14 15  2  0
 14 16  1  0
 16 17  1  0
 17 20  1  0
 17 18  1  1
 19 18  1  0
 20 22  2  0
 20 21  1  0
M  END
$$$$
