TMC.pdb
     RDKit          3D

 22 21  0  0  1  0  0  0  0  0999 V2000
-669071.3750384457.2500-28049.8496 C   0  0  0  0  0  0  0  0  0  0  0  0
-669072.2500384455.9375-28051.0137 C   0  0  1  0  0  0  0  0  0  0  0  0
-669072.6875384456.5625-28051.8066 O   0  0  0  0  0  0  0  0  0  0  0  0
-669070.9375384455.6250-28051.5215 C   0  0  2  0  0  0  0  0  0  0  0  0
-669071.1875384454.9375-28052.9082 N   0  0  0  0  0  0  0  0  0  0  0  0
-669070.3750384454.3750-28050.6660 C   0  0  0  0  0  0  0  0  0  0  0  0
-669071.5000384453.3750-28050.2715 O   0  0  0  0  0  0  0  0  0  0  0  0
-669071.9375384455.4375-28048.8926 C   0  0  0  0  0  0  0  0  0  0  0  0
-669071.9375384453.2500-28048.4004 S   0  0  0  0  0  0  0  0  0  0  0  0
-669069.8125384453.3750-28047.7715 C   0  0  0  0  0  0  0  0  0  0  0  0
-669069.4375384454.6562-28048.3027 C   0  0  0  0  0  0  0  0  0  0  0  0
-669068.3125384454.4062-28049.4434 C   0  0  2  0  0  0  0  0  0  0  0  0
-669069.0625384453.8750-28050.6738 N   0  0  0  0  0  0  0  0  0  0  0  0
-669067.1250384454.0938-28049.1387 C   0  0  0  0  0  0  0  0  0  0  0  0
-669066.4375384453.0312-28049.7285 O   0  0  0  0  0  0  0  0  0  0  0  0
-669066.4375384454.6875-28048.2832 N   0  0  0  0  0  0  0  0  0  0  0  0
-669065.4375384454.1250-28047.3066 C   0  0  1  0  0  0  0  0  0  0  0  0
-669066.0000384453.2500-28046.4434 C   0  0  0  0  0  0  0  0  0  0  0  0
-669067.3125384452.4062-28047.7480 S   0  0  0  0  0  0  0  0  0  0  0  0
-669064.2500384453.5938-28048.0840 C   0  0  0  0  0  0  0  0  0  0  0  0
-669062.6875384453.9375-28047.9043 O   0  0  0  0  0  0  0  0  0  0  0  0
-669064.5625384452.8438-28049.0527 O   0  0  0  0  0  0  0  0  0  0  0  0
  2  1  1  1
  2  4  1  0
  3  2  1  0
  4  6  1  0
  4  5  1  6
  6  7  2  0
  8  9  1  0
  9 10  1  0
 10 11  1  0
 12 11  1  1
 12 14  1  0
 13 12  1  0
 13  6  1  0
 14 15  2  0
 14 16  1  0
 16 17  1  0
 17 20  1  0
 17 18  1  6
 19 18  1  0
 20 22  2  0
 20 21  1  0
M  END
$$$$
