TMC.pdb
     RDKit          3D

 22 21  0  0  1  0  0  0  0  0999 V2000
    7.4138  -17.0510   19.1474 C   0  0  0  0  0  0  0  0  0  0  0  0
    7.7539  -16.8766   20.6153 C   0  0  1  0  0  0  0  0  0  0  0  0
    8.6543  -17.8558   20.9831 O   0  0  0  0  0  0  0  0  0  0  0  0
    8.2904  -15.4754   20.8048 C   0  0  2  0  0  0  0  0  0  0  0  0
    9.5093  -15.3306   20.0402 N   0  0  0  0  0  0  0  0  0  0  0  0
    8.5428  -15.2684   22.2596 C   0  0  0  0  0  0  0  0  0  0  0  0
    9.6515  -15.5586   22.7943 O   0  0  0  0  0  0  0  0  0  0  0  0
    9.4003  -12.7489   28.1388 C   0  0  0  0  0  0  0  0  0  0  0  0
    7.9814  -12.2389   27.0957 S   0  0  0  0  0  0  0  0  0  0  0  0
    6.9658  -13.6991   26.7016 C   0  0  0  0  0  0  0  0  0  0  0  0
    6.6951  -13.7906   25.2221 C   0  0  0  0  0  0  0  0  0  0  0  0
    7.7441  -14.5857   24.5593 C   0  0  2  0  0  0  0  0  0  0  0  0
    7.5579  -14.7348   23.1297 N   0  0  0  0  0  0  0  0  0  0  0  0
    8.0399  -15.9033   25.1338 C   0  0  0  0  0  0  0  0  0  0  0  0
    7.3091  -16.9251   25.0713 O   0  0  0  0  0  0  0  0  0  0  0  0
    9.2739  -16.1143   25.8535 N   0  0  0  0  0  0  0  0  0  0  0  0
    9.6443  -17.3824   26.3935 C   0  0  1  0  0  0  0  0  0  0  0  0
   10.5392  -18.1823   25.4679 C   0  0  0  0  0  0  0  0  0  0  0  0
   11.0389  -19.7368   26.3042 S   0  0  0  0  0  0  0  0  0  0  0  0
   10.2936  -17.3161   27.7132 C   0  0  0  0  0  0  0  0  0  0  0  0
   10.0125  -18.1605   28.7637 O   0  0  0  0  0  0  0  0  0  0  0  0
   11.1652  -16.4213   27.8821 O   0  0  0  0  0  0  0  0  0  0  0  0
  2  1  1  6
  2  4  1  0
  3  2  1  0
  4  6  1  0
  4  5  1  6
  6  7  2  0
  8  9  1  0
  9 10  1  0
 10 11  1  0
 12 11  1  1
 12 14  1  0
 13 12  1  0
 13  6  1  0
 14 15  2  0
 14 16  1  0
 16 17  1  0
 17 20  1  0
 17 18  1  6
 19 18  1  0
 20 22  2  0
 20 21  1  0
M  END
$$$$
