TMC.pdb
     RDKit          3D

 22 21  0  0  1  0  0  0  0  0999 V2000
    4.3885  -18.6461   21.3195 C   0  0  0  0  0  0  0  0  0  0  0  0
    5.5887  -18.2161   22.1415 C   0  0  1  0  0  0  0  0  0  0  0  0
    6.4381  -19.2942   22.2869 O   0  0  0  0  0  0  0  0  0  0  0  0
    6.2349  -17.0416   21.4414 C   0  0  2  0  0  0  0  0  0  0  0  0
    6.7188  -17.4723   20.1486 N   0  0  0  0  0  0  0  0  0  0  0  0
    7.3537  -16.5508   22.2960 C   0  0  0  0  0  0  0  0  0  0  0  0
    8.5460  -16.9357   22.1234 O   0  0  0  0  0  0  0  0  0  0  0  0
    7.4109  -11.3758   26.9736 C   0  0  0  0  0  0  0  0  0  0  0  0
    6.6448  -13.0361   27.1086 S   0  0  0  0  0  0  0  0  0  0  0  0
    6.5829  -13.8085   25.4598 C   0  0  0  0  0  0  0  0  0  0  0  0
    7.9449  -13.8259   24.8155 C   0  0  0  0  0  0  0  0  0  0  0  0
    8.2094  -15.1460   24.2161 C   0  0  2  0  0  0  0  0  0  0  0  0
    7.1497  -15.6252   23.3512 N   0  0  0  0  0  0  0  0  0  0  0  0
    8.5908  -16.2263   25.1333 C   0  0  0  0  0  0  0  0  0  0  0  0
    7.8067  -16.9898   25.7530 O   0  0  0  0  0  0  0  0  0  0  0  0
    9.9864  -16.4908   25.3931 N   0  0  0  0  0  0  0  0  0  0  0  0
   10.4250  -17.5499   26.2434 C   0  0  1  0  0  0  0  0  0  0  0  0
   11.6754  -18.2392   25.7348 C   0  0  0  0  0  0  0  0  0  0  0  0
   11.4067  -18.7780   24.0019 S   0  0  0  0  0  0  0  0  0  0  0  0
   10.6588  -17.1513   27.6414 C   0  0  0  0  0  0  0  0  0  0  0  0
   10.5232  -15.8672   28.1190 O   0  0  0  0  0  0  0  0  0  0  0  0
   11.0066  -18.0555   28.4478 O   0  0  0  0  0  0  0  0  0  0  0  0
  2  1  1  6
  2  4  1  0
  3  2  1  0
  4  6  1  0
  4  5  1  6
  6  7  2  0
  8  9  1  0
  9 10  1  0
 10 11  1  0
 12 11  1  1
 12 14  1  0
 13 12  1  0
 13  6  1  0
 14 15  2  0
 14 16  1  0
 16 17  1  0
 17 20  1  0
 17 18  1  6
 19 18  1  0
 20 22  2  0
 20 21  1  0
M  END
$$$$
