TMC.pdb
     RDKit          3D

 22 21  0  0  1  0  0  0  0  0999 V2000
    7.4926  -16.5622   20.1858 C   0  0  0  0  0  0  0  0  0  0  0  0
    8.1065  -15.2689   19.6843 C   0  0  1  0  0  0  0  0  0  0  0  0
    7.8996  -15.1766   18.3228 O   0  0  0  0  0  0  0  0  0  0  0  0
    7.4839  -14.1283   20.4578 C   0  0  2  0  0  0  0  0  0  0  0  0
    7.8203  -12.8805   19.8091 N   0  0  0  0  0  0  0  0  0  0  0  0
    8.0147  -14.1683   21.8505 C   0  0  0  0  0  0  0  0  0  0  0  0
    9.2033  -13.8331   22.1234 O   0  0  0  0  0  0  0  0  0  0  0  0
    6.4533  -10.2147   26.6572 C   0  0  0  0  0  0  0  0  0  0  0  0
    6.9522  -11.9761   26.7569 S   0  0  0  0  0  0  0  0  0  0  0  0
    6.3785  -12.8517   25.2659 C   0  0  0  0  0  0  0  0  0  0  0  0
    6.7115  -14.3197   25.3349 C   0  0  0  0  0  0  0  0  0  0  0  0
    7.7142  -14.6645   24.3114 C   0  0  2  0  0  0  0  0  0  0  0  0
    7.2215  -14.5833   22.9507 N   0  0  0  0  0  0  0  0  0  0  0  0
    8.4212  -15.9396   24.4789 C   0  0  0  0  0  0  0  0  0  0  0  0
    7.9428  -17.0876   24.2918 O   0  0  0  0  0  0  0  0  0  0  0  0
    9.8033  -15.9467   24.8974 N   0  0  0  0  0  0  0  0  0  0  0  0
   10.5356  -17.1516   25.1182 C   0  0  1  0  0  0  0  0  0  0  0  0
   12.0165  -17.0065   24.8296 C   0  0  0  0  0  0  0  0  0  0  0  0
   12.2384  -16.2393   23.1781 S   0  0  0  0  0  0  0  0  0  0  0  0
   10.3862  -17.7159   26.4699 C   0  0  0  0  0  0  0  0  0  0  0  0
   11.0273  -18.8495   26.9167 O   0  0  0  0  0  0  0  0  0  0  0  0
    9.6162  -17.1121   27.2644 O   0  0  0  0  0  0  0  0  0  0  0  0
  2  1  1  1
  2  4  1  0
  3  2  1  0
  4  6  1  0
  4  5  1  6
  6  7  2  0
  8  9  1  0
  9 10  1  0
 10 11  1  0
 12 11  1  1
 12 14  1  0
 13 12  1  0
 13  6  1  0
 14 15  2  0
 14 16  1  0
 16 17  1  0
 17 20  1  0
 17 18  1  1
 19 18  1  0
 20 22  2  0
 20 21  1  0
M  END
$$$$
