EGM.pdb
     RDKit          3D

 22 21  0  0  1  0  0  0  0  0999 V2000
    9.3012  -12.4733   18.7765 N   0  0  0  0  0  0  0  0  0  0  0  0
    7.9368  -12.9601   18.7130 C   0  0  1  0  0  0  0  0  0  0  0  0
    7.7529  -13.5499   17.3387 C   0  0  0  0  0  0  0  0  0  0  0  0
    8.8420  -14.4396   16.8692 C   0  0  0  0  0  0  0  0  0  0  0  0
    8.5570  -14.9963   15.5425 C   0  0  0  0  0  0  0  0  0  0  0  0
    7.5367  -14.7396   14.8974 O   0  0  0  0  0  0  0  0  0  0  0  0
    7.7453  -14.1156   19.6581 C   0  0  0  0  0  0  0  0  0  0  0  0
    6.5777  -14.5322   19.8209 O   0  0  0  0  0  0  0  0  0  0  0  0
    9.5430  -15.8690   15.0265 O   0  0  0  0  0  0  0  0  0  0  0  0
    8.7995  -14.7390   20.3555 N   0  0  0  0  0  0  0  0  0  0  0  0
    8.6701  -15.7443   21.3472 C   0  0  0  0  0  0  0  0  0  0  0  0
    9.1628  -15.4155   22.6886 C   0  0  0  0  0  0  0  0  0  0  0  0
    9.8249  -14.3240   22.7710 O   0  0  0  0  0  0  0  0  0  0  0  0
    6.2824  -11.5484   27.7559 C   0  0  0  0  0  0  0  0  0  0  0  0
    6.6833  -12.2343   26.1330 S   0  0  0  0  0  0  0  0  0  0  0  0
    7.1644  -13.9907   26.3482 C   0  0  0  0  0  0  0  0  0  0  0  0
    7.5365  -14.5810   25.0178 C   0  0  0  0  0  0  0  0  0  0  0  0
    8.7452  -15.4475   25.1246 C   0  0  2  0  0  0  0  0  0  0  0  0
    8.9873  -16.1568   23.8562 N   0  0  0  0  0  0  0  0  0  0  0  0
    8.6947  -16.4601   26.1857 C   0  0  0  0  0  0  0  0  0  0  0  0
    8.5748  -16.0790   27.3927 O   0  0  0  0  0  0  0  0  0  0  0  0
    8.7735  -17.8285   25.8888 O   0  0  0  0  0  0  0  0  0  0  0  0
  2  1  1  6
  2  3  1  0
  3  4  1  0
  4  5  1  0
  5  6  2  0
  7  2  1  0
  7  8  2  0
  9  5  1  0
 10  7  1  0
 11 10  1  0
 11 12  1  0
 12 19  1  0
 13 12  2  0
 14 15  1  0
 15 16  1  0
 17 16  1  0
 18 17  1  6
 19 18  1  0
 20 18  1  0
 20 22  1  0
 21 20  2  0
M  END
$$$$
