EGM.pdb
     RDKit          3D

 22 21  0  0  1  0  0  0  0  0999 V2000
   10.5174  -19.7760   18.9211 N   0  0  0  0  0  0  0  0  0  0  0  0
   11.2218  -19.0409   19.9535 C   0  0  1  0  0  0  0  0  0  0  0  0
   12.3587  -18.3236   19.2729 C   0  0  0  0  0  0  0  0  0  0  0  0
   13.4345  -19.1892   18.7330 C   0  0  0  0  0  0  0  0  0  0  0  0
   14.5557  -18.4022   18.2089 C   0  0  0  0  0  0  0  0  0  0  0  0
   14.6653  -18.0716   17.0250 O   0  0  0  0  0  0  0  0  0  0  0  0
   10.3507  -17.9458   20.5078 C   0  0  0  0  0  0  0  0  0  0  0  0
    9.5666  -17.3829   19.7129 O   0  0  0  0  0  0  0  0  0  0  0  0
   15.5337  -18.0314   19.1608 O   0  0  0  0  0  0  0  0  0  0  0  0
   10.3760  -17.5322   21.8548 N   0  0  0  0  0  0  0  0  0  0  0  0
    9.4433  -16.6695   22.4848 C   0  0  0  0  0  0  0  0  0  0  0  0
    9.7446  -16.2642   23.8614 C   0  0  0  0  0  0  0  0  0  0  0  0
   10.7704  -16.8256   24.3802 O   0  0  0  0  0  0  0  0  0  0  0  0
    5.0773  -12.0585   26.7652 C   0  0  0  0  0  0  0  0  0  0  0  0
    6.8744  -12.0510   26.9531 S   0  0  0  0  0  0  0  0  0  0  0  0
    7.5348  -13.6234   26.2792 C   0  0  0  0  0  0  0  0  0  0  0  0
    9.0349  -13.6184   26.3583 C   0  0  0  0  0  0  0  0  0  0  0  0
    9.6076  -14.9292   25.9371 C   0  0  2  0  0  0  0  0  0  0  0  0
    9.0405  -15.3504   24.6443 N   0  0  0  0  0  0  0  0  0  0  0  0
    9.4007  -16.0326   26.8824 C   0  0  0  0  0  0  0  0  0  0  0  0
    9.9884  -15.9940   28.0092 O   0  0  0  0  0  0  0  0  0  0  0  0
    8.5700  -17.1166   26.5635 O   0  0  0  0  0  0  0  0  0  0  0  0
  2  1  1  6
  2  3  1  0
  3  4  1  0
  4  5  1  0
  5  6  2  0
  7  2  1  0
  7  8  2  0
  9  5  1  0
 10  7  1  0
 11 10  1  0
 11 12  1  0
 12 19  1  0
 13 12  2  0
 14 15  1  0
 15 16  1  0
 17 16  1  0
 18 17  1  1
 19 18  1  0
 20 18  1  0
 20 22  1  0
 21 20  2  0
M  END
$$$$
