EGM.pdb
     RDKit          3D

 22 21  0  0  1  0  0  0  0  0999 V2000
    8.9195  -20.2362   19.9444 N   0  0  0  0  0  0  0  0  0  0  0  0
    9.9384  -19.2838   19.5479 C   0  0  1  0  0  0  0  0  0  0  0  0
   10.1770  -19.4953   18.0753 C   0  0  0  0  0  0  0  0  0  0  0  0
   11.4359  -20.1939   17.7212 C   0  0  0  0  0  0  0  0  0  0  0  0
   11.6840  -20.1706   16.2758 C   0  0  0  0  0  0  0  0  0  0  0  0
   11.1360  -20.9333   15.4751 O   0  0  0  0  0  0  0  0  0  0  0  0
    9.4150  -17.8768   19.6563 C   0  0  0  0  0  0  0  0  0  0  0  0
    9.6410  -17.1084   18.6961 O   0  0  0  0  0  0  0  0  0  0  0  0
   12.6124  -19.1989   15.8354 O   0  0  0  0  0  0  0  0  0  0  0  0
    8.6958  -17.3930   20.7675 N   0  0  0  0  0  0  0  0  0  0  0  0
    8.5592  -16.0347   21.1513 C   0  0  0  0  0  0  0  0  0  0  0  0
    8.7809  -15.7234   22.5669 C   0  0  0  0  0  0  0  0  0  0  0  0
   10.0025  -15.7576   22.9452 O   0  0  0  0  0  0  0  0  0  0  0  0
    6.3627  -10.9417   28.2726 C   0  0  0  0  0  0  0  0  0  0  0  0
    5.9455  -11.8570   26.7716 S   0  0  0  0  0  0  0  0  0  0  0  0
    7.3829  -12.8971   26.3080 C   0  0  0  0  0  0  0  0  0  0  0  0
    7.0757  -13.6531   25.0467 C   0  0  0  0  0  0  0  0  0  0  0  0
    8.1962  -14.5614   24.6687 C   0  0  2  0  0  0  0  0  0  0  0  0
    7.8159  -15.4026   23.5206 N   0  0  0  0  0  0  0  0  0  0  0  0
    8.6556  -15.4612   25.7332 C   0  0  0  0  0  0  0  0  0  0  0  0
    8.2362  -16.6614   25.7462 O   0  0  0  0  0  0  0  0  0  0  0  0
    9.5438  -15.0199   26.7248 O   0  0  0  0  0  0  0  0  0  0  0  0
  2  1  1  6
  2  3  1  0
  3  4  1  0
  4  5  1  0
  5  6  2  0
  7  2  1  0
  7  8  2  0
  9  5  1  0
 10  7  1  0
 11 10  1  0
 11 12  1  0
 12 19  1  0
 13 12  2  0
 14 15  1  0
 15 16  1  0
 17 16  1  0
 18 17  1  1
 19 18  1  0
 20 18  1  0
 20 22  1  0
 21 20  2  0
M  END
$$$$
