EGM.pdb
     RDKit          3D

 22 21  0  0  1  0  0  0  0  0999 V2000
    7.1060  -19.2441   21.0534 N   0  0  0  0  0  0  0  0  0  0  0  0
    8.2128  -18.7211   20.2764 C   0  0  1  0  0  0  0  0  0  0  0  0
    7.9198  -19.0467   18.8348 C   0  0  0  0  0  0  0  0  0  0  0  0
    8.9577  -18.6369   17.8586 C   0  0  0  0  0  0  0  0  0  0  0  0
    8.6214  -19.0609   16.4954 C   0  0  0  0  0  0  0  0  0  0  0  0
    7.6383  -19.7530   16.2169 O   0  0  0  0  0  0  0  0  0  0  0  0
    8.2342  -17.2173   20.3362 C   0  0  0  0  0  0  0  0  0  0  0  0
    9.2866  -16.6468   19.9750 O   0  0  0  0  0  0  0  0  0  0  0  0
    9.5103  -18.6216   15.4870 O   0  0  0  0  0  0  0  0  0  0  0  0
    7.1451  -16.4361   20.7717 N   0  0  0  0  0  0  0  0  0  0  0  0
    7.1241  -15.0240   20.8999 C   0  0  0  0  0  0  0  0  0  0  0  0
    7.7589  -14.4602   22.0954 C   0  0  0  0  0  0  0  0  0  0  0  0
    7.7415  -13.1831   22.1679 O   0  0  0  0  0  0  0  0  0  0  0  0
    6.4278  -11.5006   28.3721 C   0  0  0  0  0  0  0  0  0  0  0  0
    6.0597  -12.4343   26.8696 S   0  0  0  0  0  0  0  0  0  0  0  0
    7.6007  -13.2495   26.3009 C   0  0  0  0  0  0  0  0  0  0  0  0
    7.3696  -13.8937   24.9636 C   0  0  0  0  0  0  0  0  0  0  0  0
    8.6300  -14.4653   24.4085 C   0  0  2  0  0  0  0  0  0  0  0  0
    8.3669  -15.1603   23.1365 N   0  0  0  0  0  0  0  0  0  0  0  0
    9.3238  -15.4145   25.2868 C   0  0  0  0  0  0  0  0  0  0  0  0
    9.3429  -16.6451   24.9677 O   0  0  0  0  0  0  0  0  0  0  0  0
    9.9617  -14.9862   26.4601 O   0  0  0  0  0  0  0  0  0  0  0  0
  2  1  1  1
  2  3  1  0
  3  4  1  0
  4  5  1  0
  5  6  2  0
  7  2  1  0
  7  8  2  0
  9  5  1  0
 10  7  1  0
 11 10  1  0
 11 12  1  0
 12 19  1  0
 13 12  2  0
 14 15  1  0
 15 16  1  0
 17 16  1  0
 18 17  1  1
 19 18  1  0
 20 18  1  0
 20 22  1  0
 21 20  2  0
M  END
$$$$
