EGM.pdb
     RDKit          3D

 22 21  0  0  1  0  0  0  0  0999 V2000
   10.6043  -18.6678   18.0795 N   0  0  0  0  0  0  0  0  0  0  0  0
   10.7276  -18.8021   19.5179 C   0  0  1  0  0  0  0  0  0  0  0  0
   12.1252  -18.3655   19.8736 C   0  0  0  0  0  0  0  0  0  0  0  0
   13.1212  -19.4537   20.0216 C   0  0  0  0  0  0  0  0  0  0  0  0
   14.4216  -18.9448   20.4700 C   0  0  0  0  0  0  0  0  0  0  0  0
   14.6546  -18.5888   21.6285 O   0  0  0  0  0  0  0  0  0  0  0  0
    9.8264  -17.8206   20.2178 C   0  0  0  0  0  0  0  0  0  0  0  0
    9.7654  -16.6646   19.7452 O   0  0  0  0  0  0  0  0  0  0  0  0
   15.4243  -18.8817   19.4746 O   0  0  0  0  0  0  0  0  0  0  0  0
    9.0623  -18.1363   21.3591 N   0  0  0  0  0  0  0  0  0  0  0  0
    8.1304  -17.2855   22.0061 C   0  0  0  0  0  0  0  0  0  0  0  0
    8.5788  -16.6325   23.2399 C   0  0  0  0  0  0  0  0  0  0  0  0
    9.8410  -16.6685   23.4451 O   0  0  0  0  0  0  0  0  0  0  0  0
    5.7876  -11.6174   26.4479 C   0  0  0  0  0  0  0  0  0  0  0  0
    7.5451  -11.6352   26.8670 S   0  0  0  0  0  0  0  0  0  0  0  0
    8.1180  -13.3770   26.8918 C   0  0  0  0  0  0  0  0  0  0  0  0
    7.5221  -14.1232   25.7321 C   0  0  0  0  0  0  0  0  0  0  0  0
    8.4360  -15.1970   25.2470 C   0  0  2  0  0  0  0  0  0  0  0  0
    7.7857  -15.9922   24.1911 N   0  0  0  0  0  0  0  0  0  0  0  0
    8.8964  -16.1360   26.2767 C   0  0  0  0  0  0  0  0  0  0  0  0
    9.8255  -15.7746   27.0658 O   0  0  0  0  0  0  0  0  0  0  0  0
    8.3292  -17.4125   26.4020 O   0  0  0  0  0  0  0  0  0  0  0  0
  2  1  1  6
  2  3  1  0
  3  4  1  0
  4  5  1  0
  5  6  2  0
  7  2  1  0
  7  8  2  0
  9  5  1  0
 10  7  1  0
 11 10  1  0
 11 12  1  0
 12 19  1  0
 13 12  2  0
 14 15  1  0
 15 16  1  0
 17 16  1  0
 18 17  1  1
 19 18  1  0
 20 18  1  0
 20 22  1  0
 21 20  2  0
M  END
$$$$
