EGM.pdb
     RDKit          3D

 22 21  0  0  1  0  0  0  0  0999 V2000
    7.6927  -20.5773   18.8373 N   0  0  0  0  0  0  0  0  0  0  0  0
    8.9038  -19.9060   19.2676 C   0  0  1  0  0  0  0  0  0  0  0  0
    9.8776  -19.9964   18.1214 C   0  0  0  0  0  0  0  0  0  0  0  0
    9.6748  -19.0182   17.0259 C   0  0  0  0  0  0  0  0  0  0  0  0
   10.6036  -19.2452   15.9138 C   0  0  0  0  0  0  0  0  0  0  0  0
   10.4651  -20.1437   15.0790 O   0  0  0  0  0  0  0  0  0  0  0  0
    8.6540  -18.4327   19.4469 C   0  0  0  0  0  0  0  0  0  0  0  0
    8.2138  -17.8042   18.4597 O   0  0  0  0  0  0  0  0  0  0  0  0
   11.6992  -18.3534   15.8469 O   0  0  0  0  0  0  0  0  0  0  0  0
    8.8883  -17.7404   20.6519 N   0  0  0  0  0  0  0  0  0  0  0  0
    8.6353  -16.3659   20.8923 C   0  0  0  0  0  0  0  0  0  0  0  0
    8.9275  -15.8669   22.2397 C   0  0  0  0  0  0  0  0  0  0  0  0
   10.1512  -15.5596   22.4511 O   0  0  0  0  0  0  0  0  0  0  0  0
    6.7742  -11.0865   27.9583 C   0  0  0  0  0  0  0  0  0  0  0  0
    6.2914  -12.0576   26.5130 S   0  0  0  0  0  0  0  0  0  0  0  0
    7.6870  -13.1577   26.0605 C   0  0  0  0  0  0  0  0  0  0  0  0
    7.3444  -13.9250   24.8153 C   0  0  0  0  0  0  0  0  0  0  0  0
    8.4253  -14.8860   24.4522 C   0  0  2  0  0  0  0  0  0  0  0  0
    8.0263  -15.6988   23.2901 N   0  0  0  0  0  0  0  0  0  0  0  0
    8.8173  -15.8152   25.5183 C   0  0  0  0  0  0  0  0  0  0  0  0
    9.2854  -15.3436   26.6023 O   0  0  0  0  0  0  0  0  0  0  0  0
    8.6815  -17.2020   25.3598 O   0  0  0  0  0  0  0  0  0  0  0  0
  2  1  1  6
  2  3  1  0
  3  4  1  0
  4  5  1  0
  5  6  2  0
  7  2  1  0
  7  8  2  0
  9  5  1  0
 10  7  1  0
 11 10  1  0
 11 12  1  0
 12 19  1  0
 13 12  2  0
 14 15  1  0
 15 16  1  0
 17 16  1  0
 18 17  1  1
 19 18  1  0
 20 18  1  0
 20 22  1  0
 21 20  2  0
M  END
$$$$
