EGM.pdb
     RDKit          3D

 22 21  0  0  1  0  0  0  0  0999 V2000
    7.1760  -16.2905   18.9760 N   0  0  0  0  0  0  0  0  0  0  0  0
    7.8869  -17.4977   19.3500 C   0  0  1  0  0  0  0  0  0  0  0  0
    8.5693  -17.9999   18.1041 C   0  0  0  0  0  0  0  0  0  0  0  0
    7.9304  -17.6179   16.8219 C   0  0  0  0  0  0  0  0  0  0  0  0
    8.6964  -18.0983   15.6671 C   0  0  0  0  0  0  0  0  0  0  0  0
    9.5735  -17.4368   15.1046 O   0  0  0  0  0  0  0  0  0  0  0  0
    9.0078  -17.1754   20.3013 C   0  0  0  0  0  0  0  0  0  0  0  0
    9.6659  -18.1372   20.7544 O   0  0  0  0  0  0  0  0  0  0  0  0
    8.3666  -19.3984   15.2188 O   0  0  0  0  0  0  0  0  0  0  0  0
    9.3448  -15.8659   20.6984 N   0  0  0  0  0  0  0  0  0  0  0  0
   10.2601  -15.5090   21.7211 C   0  0  0  0  0  0  0  0  0  0  0  0
    9.7754  -15.6005   23.1019 C   0  0  0  0  0  0  0  0  0  0  0  0
   10.6369  -15.3045   24.0002 O   0  0  0  0  0  0  0  0  0  0  0  0
    6.5725  -11.2803   27.6131 C   0  0  0  0  0  0  0  0  0  0  0  0
    7.0458  -11.8737   25.9733 S   0  0  0  0  0  0  0  0  0  0  0  0
    6.6441  -13.6596   25.8643 C   0  0  0  0  0  0  0  0  0  0  0  0
    7.1687  -14.2192   24.5727 C   0  0  0  0  0  0  0  0  0  0  0  0
    7.9878  -15.4440   24.8017 C   0  0  2  0  0  0  0  0  0  0  0  0
    8.4995  -15.9707   23.5246 N   0  0  0  0  0  0  0  0  0  0  0  0
    7.2890  -16.5440   25.4766 C   0  0  0  0  0  0  0  0  0  0  0  0
    6.7258  -16.3197   26.5942 O   0  0  0  0  0  0  0  0  0  0  0  0
    7.2328  -17.8256   24.9097 O   0  0  0  0  0  0  0  0  0  0  0  0
  2  1  1  6
  2  3  1  0
  3  4  1  0
  4  5  1  0
  5  6  2  0
  7  2  1  0
  7  8  2  0
  9  5  1  0
 10  7  1  0
 11 10  1  0
 11 12  1  0
 12 19  1  0
 13 12  2  0
 14 15  1  0
 15 16  1  0
 17 16  1  0
 18 17  1  6
 19 18  1  0
 20 18  1  0
 20 22  1  0
 21 20  2  0
M  END
$$$$
