EGM.pdb
     RDKit          3D

 22 21  0  0  1  0  0  0  0  0999 V2000
    7.7275  -14.9113   17.9933 N   0  0  0  0  0  0  0  0  0  0  0  0
    8.3727  -14.4037   19.1885 C   0  0  1  0  0  0  0  0  0  0  0  0
    8.1598  -12.9121   19.1933 C   0  0  0  0  0  0  0  0  0  0  0  0
    9.1732  -12.1151   18.4612 C   0  0  0  0  0  0  0  0  0  0  0  0
   10.5340  -12.4066   18.9240 C   0  0  0  0  0  0  0  0  0  0  0  0
   10.7935  -13.2126   19.8220 O   0  0  0  0  0  0  0  0  0  0  0  0
    7.6639  -14.8990   20.4204 C   0  0  0  0  0  0  0  0  0  0  0  0
    6.4718  -15.2528   20.2894 O   0  0  0  0  0  0  0  0  0  0  0  0
   11.5638  -11.6936   18.2673 O   0  0  0  0  0  0  0  0  0  0  0  0
    8.2683  -14.9815   21.6908 N   0  0  0  0  0  0  0  0  0  0  0  0
    7.6453  -15.4127   22.8896 C   0  0  0  0  0  0  0  0  0  0  0  0
    8.4983  -15.5121   24.0780 C   0  0  0  0  0  0  0  0  0  0  0  0
    9.7493  -15.3533   23.8628 O   0  0  0  0  0  0  0  0  0  0  0  0
    5.6460  -12.1614   27.5794 C   0  0  0  0  0  0  0  0  0  0  0  0
    7.3430  -11.6226   27.2709 S   0  0  0  0  0  0  0  0  0  0  0  0
    8.2185  -12.9540   26.3635 C   0  0  0  0  0  0  0  0  0  0  0  0
    8.3171  -14.1775   27.2296 C   0  0  0  0  0  0  0  0  0  0  0  0
    8.9513  -15.3126   26.4997 C   0  0  2  0  0  0  0  0  0  0  0  0
    8.0923  -15.7582   25.3888 N   0  0  0  0  0  0  0  0  0  0  0  0
    9.2481  -16.4930   27.3197 C   0  0  0  0  0  0  0  0  0  0  0  0
    8.4055  -17.4445   27.3538 O   0  0  0  0  0  0  0  0  0  0  0  0
   10.4377  -16.5854   28.0567 O   0  0  0  0  0  0  0  0  0  0  0  0
  2  1  1  6
  2  3  1  0
  3  4  1  0
  4  5  1  0
  5  6  2  0
  7  2  1  0
  7  8  2  0
  9  5  1  0
 10  7  1  0
 11 10  1  0
 11 12  1  0
 12 19  1  0
 13 12  2  0
 14 15  1  0
 15 16  1  0
 17 16  1  0
 18 17  1  1
 19 18  1  0
 20 18  1  0
 20 22  1  0
 21 20  2  0
M  END
$$$$
