EGM.pdb
     RDKit          3D

 22 21  0  0  1  0  0  0  0  0999 V2000
   10.1819  -18.6634   18.6425 N   0  0  0  0  0  0  0  0  0  0  0  0
   10.8018  -19.0787   19.8858 C   0  0  1  0  0  0  0  0  0  0  0  0
   12.0205  -18.2123   20.0706 C   0  0  0  0  0  0  0  0  0  0  0  0
   12.7876  -17.9092   18.8386 C   0  0  0  0  0  0  0  0  0  0  0  0
   14.2133  -18.2159   18.9952 C   0  0  0  0  0  0  0  0  0  0  0  0
   14.7053  -18.6725   20.0307 O   0  0  0  0  0  0  0  0  0  0  0  0
    9.9121  -18.7485   21.0540 C   0  0  0  0  0  0  0  0  0  0  0  0
   10.3329  -19.0453   22.1934 O   0  0  0  0  0  0  0  0  0  0  0  0
   15.0182  -17.9523   17.8626 O   0  0  0  0  0  0  0  0  0  0  0  0
    8.6510  -18.1323   20.9274 N   0  0  0  0  0  0  0  0  0  0  0  0
    7.7536  -17.8339   21.9841 C   0  0  0  0  0  0  0  0  0  0  0  0
    8.1810  -16.8112   22.9439 C   0  0  0  0  0  0  0  0  0  0  0  0
    9.0272  -17.2071   23.8179 O   0  0  0  0  0  0  0  0  0  0  0  0
    7.2034  -10.3899   27.1449 C   0  0  0  0  0  0  0  0  0  0  0  0
    6.8782  -11.2915   25.6132 S   0  0  0  0  0  0  0  0  0  0  0  0
    7.3740  -13.0406   25.8530 C   0  0  0  0  0  0  0  0  0  0  0  0
    7.0096  -13.8422   24.6359 C   0  0  0  0  0  0  0  0  0  0  0  0
    8.1624  -14.6556   24.1533 C   0  0  2  0  0  0  0  0  0  0  0  0
    7.7662  -15.4813   22.9994 N   0  0  0  0  0  0  0  0  0  0  0  0
    8.7504  -15.5570   25.1511 C   0  0  0  0  0  0  0  0  0  0  0  0
    8.1053  -16.5974   25.4944 O   0  0  0  0  0  0  0  0  0  0  0  0
   10.0027  -15.2900   25.7231 O   0  0  0  0  0  0  0  0  0  0  0  0
  2  1  1  6
  2  3  1  0
  3  4  1  0
  4  5  1  0
  5  6  2  0
  7  2  1  0
  7  8  2  0
  9  5  1  0
 10  7  1  0
 11 10  1  0
 11 12  1  0
 12 19  1  0
 13 12  2  0
 14 15  1  0
 15 16  1  0
 17 16  1  0
 18 17  1  1
 19 18  1  0
 20 18  1  0
 20 22  1  0
 21 20  2  0
M  END
$$$$
