EGM.pdb
     RDKit          3D

 22 21  0  0  1  0  0  0  0  0999 V2000
    8.0133  -18.4902   18.1821 N   0  0  0  0  0  0  0  0  0  0  0  0
    8.3571  -19.0428   19.4778 C   0  0  1  0  0  0  0  0  0  0  0  0
    9.8489  -18.8938   19.6283 C   0  0  0  0  0  0  0  0  0  0  0  0
   10.5668  -18.3741   18.4397 C   0  0  0  0  0  0  0  0  0  0  0  0
   12.0174  -18.3362   18.6527 C   0  0  0  0  0  0  0  0  0  0  0  0
   12.5638  -18.6803   19.7045 O   0  0  0  0  0  0  0  0  0  0  0  0
    7.7718  -18.2027   20.5809 C   0  0  0  0  0  0  0  0  0  0  0  0
    7.8024  -18.6774   21.7373 O   0  0  0  0  0  0  0  0  0  0  0  0
   12.7795  -17.8703   17.5562 O   0  0  0  0  0  0  0  0  0  0  0  0
    7.2013  -16.9302   20.3766 N   0  0  0  0  0  0  0  0  0  0  0  0
    6.6271  -16.0990   21.3717 C   0  0  0  0  0  0  0  0  0  0  0  0
    7.5056  -15.6784   22.4678 C   0  0  0  0  0  0  0  0  0  0  0  0
    8.7344  -15.5212   22.1486 O   0  0  0  0  0  0  0  0  0  0  0  0
    6.2005  -10.8892   26.5752 C   0  0  0  0  0  0  0  0  0  0  0  0
    7.1837  -11.9801   27.6280 S   0  0  0  0  0  0  0  0  0  0  0  0
    8.1783  -13.0829   26.5523 C   0  0  0  0  0  0  0  0  0  0  0  0
    7.2807  -13.7706   25.5633 C   0  0  0  0  0  0  0  0  0  0  0  0
    8.0543  -14.6638   24.6539 C   0  0  2  0  0  0  0  0  0  0  0  0
    7.1445  -15.4394   23.7930 N   0  0  0  0  0  0  0  0  0  0  0  0
    8.9391  -15.6225   25.3261 C   0  0  0  0  0  0  0  0  0  0  0  0
    8.4967  -16.7846   25.5915 O   0  0  0  0  0  0  0  0  0  0  0  0
   10.2534  -15.2782   25.6737 O   0  0  0  0  0  0  0  0  0  0  0  0
  2  1  1  6
  2  3  1  0
  3  4  1  0
  4  5  1  0
  5  6  2  0
  7  2  1  0
  7  8  2  0
  9  5  1  0
 10  7  1  0
 11 10  1  0
 11 12  1  0
 12 19  1  0
 13 12  2  0
 14 15  1  0
 15 16  1  0
 17 16  1  0
 18 17  1  1
 19 18  1  0
 20 18  1  0
 20 22  1  0
 21 20  2  0
M  END
$$$$
