EGM.pdb
     RDKit          3D

 22 21  0  0  1  0  0  0  0  0999 V2000
   10.4138  -17.8796   18.7096 N   0  0  0  0  0  0  0  0  0  0  0  0
   10.3957  -19.1642   19.3819 C   0  0  1  0  0  0  0  0  0  0  0  0
   11.7835  -19.3867   19.9246 C   0  0  0  0  0  0  0  0  0  0  0  0
   12.4541  -18.1900   20.4871 C   0  0  0  0  0  0  0  0  0  0  0  0
   13.8505  -18.4641   20.8418 C   0  0  0  0  0  0  0  0  0  0  0  0
   14.3793  -19.5738   20.7321 O   0  0  0  0  0  0  0  0  0  0  0  0
    9.5097  -19.1101   20.5973 C   0  0  0  0  0  0  0  0  0  0  0  0
    9.3260  -20.1801   21.2177 O   0  0  0  0  0  0  0  0  0  0  0  0
   14.5807  -17.3561   21.3310 O   0  0  0  0  0  0  0  0  0  0  0  0
    8.8887  -17.9330   21.0610 N   0  0  0  0  0  0  0  0  0  0  0  0
    8.1212  -17.8007   22.2461 C   0  0  0  0  0  0  0  0  0  0  0  0
    8.6669  -16.9300   23.2921 C   0  0  0  0  0  0  0  0  0  0  0  0
    9.7946  -16.3923   23.0169 O   0  0  0  0  0  0  0  0  0  0  0  0
    6.7956  -10.6644   27.2314 C   0  0  0  0  0  0  0  0  0  0  0  0
    6.2760  -12.1656   26.3704 S   0  0  0  0  0  0  0  0  0  0  0  0
    7.7434  -13.2417   26.1436 C   0  0  0  0  0  0  0  0  0  0  0  0
    7.3450  -14.4960   25.4190 C   0  0  0  0  0  0  0  0  0  0  0  0
    8.5067  -15.4130   25.2370 C   0  0  2  0  0  0  0  0  0  0  0  0
    8.0938  -16.6371   24.5289 N   0  0  0  0  0  0  0  0  0  0  0  0
    9.1709  -15.8314   26.4769 C   0  0  0  0  0  0  0  0  0  0  0  0
    8.9152  -16.9827   26.9520 O   0  0  0  0  0  0  0  0  0  0  0  0
   10.0766  -14.9879   27.1366 O   0  0  0  0  0  0  0  0  0  0  0  0
  2  1  1  1
  2  3  1  0
  3  4  1  0
  4  5  1  0
  5  6  2  0
  7  2  1  0
  7  8  2  0
  9  5  1  0
 10  7  1  0
 11 10  1  0
 11 12  1  0
 12 19  1  0
 13 12  2  0
 14 15  1  0
 15 16  1  0
 17 16  1  0
 18 17  1  1
 19 18  1  0
 20 18  1  0
 20 22  1  0
 21 20  2  0
M  END
$$$$
