EGM.pdb
     RDKit          3D

 22 21  0  0  1  0  0  0  0  0999 V2000
    9.1985  -19.0268   17.7976 N   0  0  0  0  0  0  0  0  0  0  0  0
    9.3082  -19.0960   19.2418 C   0  0  1  0  0  0  0  0  0  0  0  0
   10.7803  -19.1280   19.5615 C   0  0  0  0  0  0  0  0  0  0  0  0
   11.6605  -18.4032   18.6138 C   0  0  0  0  0  0  0  0  0  0  0  0
   13.0623  -18.4276   19.0446 C   0  0  0  0  0  0  0  0  0  0  0  0
   13.9303  -19.1239   18.5108 O   0  0  0  0  0  0  0  0  0  0  0  0
    8.8040  -17.8246   19.8699 C   0  0  0  0  0  0  0  0  0  0  0  0
    8.8303  -16.7912   19.1664 O   0  0  0  0  0  0  0  0  0  0  0  0
   13.3757  -17.5860   20.1371 O   0  0  0  0  0  0  0  0  0  0  0  0
    8.3129  -17.7446   21.1884 N   0  0  0  0  0  0  0  0  0  0  0  0
    7.7014  -16.6145   21.7885 C   0  0  0  0  0  0  0  0  0  0  0  0
    8.2890  -16.1346   23.0433 C   0  0  0  0  0  0  0  0  0  0  0  0
    9.5671  -16.0826   23.0591 O   0  0  0  0  0  0  0  0  0  0  0  0
    5.9573  -10.8666   25.9516 C   0  0  0  0  0  0  0  0  0  0  0  0
    6.6651  -11.7617   27.3526 S   0  0  0  0  0  0  0  0  0  0  0  0
    7.9123  -12.9450   26.7148 C   0  0  0  0  0  0  0  0  0  0  0  0
    7.2799  -13.8461   25.6926 C   0  0  0  0  0  0  0  0  0  0  0  0
    8.2679  -14.8115   25.1309 C   0  0  2  0  0  0  0  0  0  0  0  0
    7.6100  -15.7398   24.1952 N   0  0  0  0  0  0  0  0  0  0  0  0
    8.9775  -15.6262   26.1242 C   0  0  0  0  0  0  0  0  0  0  0  0
    8.5477  -16.7952   26.3794 O   0  0  0  0  0  0  0  0  0  0  0  0
   10.1131  -15.1382   26.7869 O   0  0  0  0  0  0  0  0  0  0  0  0
  2  1  1  6
  2  3  1  0
  3  4  1  0
  4  5  1  0
  5  6  2  0
  7  2  1  0
  7  8  2  0
  9  5  1  0
 10  7  1  0
 11 10  1  0
 11 12  1  0
 12 19  1  0
 13 12  2  0
 14 15  1  0
 15 16  1  0
 17 16  1  0
 18 17  1  1
 19 18  1  0
 20 18  1  0
 20 22  1  0
 21 20  2  0
M  END
$$$$
