EGM.pdb
     RDKit          3D

 22 21  0  0  1  0  0  0  0  0999 V2000
   11.6204  -16.9100   19.5517 N   0  0  0  0  0  0  0  0  0  0  0  0
   10.2273  -17.2321   19.3110 C   0  0  1  0  0  0  0  0  0  0  0  0
   10.2061  -18.5817   18.6414 C   0  0  0  0  0  0  0  0  0  0  0  0
   11.5073  -19.0597   18.1155 C   0  0  0  0  0  0  0  0  0  0  0  0
   11.3428  -20.2028   17.2114 C   0  0  0  0  0  0  0  0  0  0  0  0
   11.0978  -20.0929   16.0068 O   0  0  0  0  0  0  0  0  0  0  0  0
    9.5011  -17.4356   20.6134 C   0  0  0  0  0  0  0  0  0  0  0  0
    8.2644  -17.6111   20.5559 O   0  0  0  0  0  0  0  0  0  0  0  0
   11.4839  -21.4757   17.8113 O   0  0  0  0  0  0  0  0  0  0  0  0
   10.1364  -17.4375   21.8714 N   0  0  0  0  0  0  0  0  0  0  0  0
    9.5005  -17.5710   23.1319 C   0  0  0  0  0  0  0  0  0  0  0  0
    9.5382  -16.4028   24.0172 C   0  0  0  0  0  0  0  0  0  0  0  0
    9.7164  -15.2812   23.4283 O   0  0  0  0  0  0  0  0  0  0  0  0
    6.0087  -10.9727   27.3238 C   0  0  0  0  0  0  0  0  0  0  0  0
    6.1892  -12.4560   26.3080 S   0  0  0  0  0  0  0  0  0  0  0  0
    7.8105  -13.2246   26.6863 C   0  0  0  0  0  0  0  0  0  0  0  0
    8.0111  -14.4365   25.8215 C   0  0  0  0  0  0  0  0  0  0  0  0
    9.3165  -15.0990   26.1054 C   0  0  2  0  0  0  0  0  0  0  0  0
    9.4039  -16.3920   25.4048 N   0  0  0  0  0  0  0  0  0  0  0  0
    9.5905  -15.3543   27.5244 C   0  0  0  0  0  0  0  0  0  0  0  0
    9.5322  -14.3850   28.3450 O   0  0  0  0  0  0  0  0  0  0  0  0
    9.9101  -16.6406   27.9828 O   0  0  0  0  0  0  0  0  0  0  0  0
  2  1  1  1
  2  3  1  0
  3  4  1  0
  4  5  1  0
  5  6  2  0
  7  2  1  0
  7  8  2  0
  9  5  1  0
 10  7  1  0
 11 10  1  0
 11 12  1  0
 12 19  1  0
 13 12  2  0
 14 15  1  0
 15 16  1  0
 17 16  1  0
 18 17  1  1
 19 18  1  0
 20 18  1  0
 20 22  1  0
 21 20  2  0
M  END
$$$$
