EGM.pdb
     RDKit          3D

 22 21  0  0  1  0  0  0  0  0999 V2000
    7.8273  -19.5698   19.4718 N   0  0  0  0  0  0  0  0  0  0  0  0
    8.8259  -19.9068   20.4676 C   0  0  1  0  0  0  0  0  0  0  0  0
   10.0515  -19.0932   20.1420 C   0  0  0  0  0  0  0  0  0  0  0  0
   10.3643  -18.9497   18.6999 C   0  0  0  0  0  0  0  0  0  0  0  0
   11.6747  -19.5184   18.3673 C   0  0  0  0  0  0  0  0  0  0  0  0
   11.8310  -20.4803   17.6100 O   0  0  0  0  0  0  0  0  0  0  0  0
    8.3952  -19.4289   21.8282 C   0  0  0  0  0  0  0  0  0  0  0  0
    9.1216  -19.7380   22.7979 O   0  0  0  0  0  0  0  0  0  0  0  0
   12.7827  -18.8873   18.9790 O   0  0  0  0  0  0  0  0  0  0  0  0
    7.2339  -18.6640   22.0574 N   0  0  0  0  0  0  0  0  0  0  0  0
    6.7424  -18.2431   23.3192 C   0  0  0  0  0  0  0  0  0  0  0  0
    7.3370  -17.0293   23.8876 C   0  0  0  0  0  0  0  0  0  0  0  0
    8.3879  -16.6093   23.2912 O   0  0  0  0  0  0  0  0  0  0  0  0
    6.6958  -10.1575   27.5769 C   0  0  0  0  0  0  0  0  0  0  0  0
    5.9643  -11.7906   27.3262 S   0  0  0  0  0  0  0  0  0  0  0  0
    7.1977  -12.8561   26.4859 C   0  0  0  0  0  0  0  0  0  0  0  0
    6.5402  -14.1254   26.0242 C   0  0  0  0  0  0  0  0  0  0  0  0
    7.4989  -15.0003   25.2900 C   0  0  2  0  0  0  0  0  0  0  0  0
    6.8831  -16.3043   24.9886 N   0  0  0  0  0  0  0  0  0  0  0  0
    8.7610  -15.2672   25.9898 C   0  0  0  0  0  0  0  0  0  0  0  0
    9.6189  -14.3338   26.0859 O   0  0  0  0  0  0  0  0  0  0  0  0
    9.0294  -16.5245   26.5503 O   0  0  0  0  0  0  0  0  0  0  0  0
  2  1  1  6
  2  3  1  0
  3  4  1  0
  4  5  1  0
  5  6  2  0
  7  2  1  0
  7  8  2  0
  9  5  1  0
 10  7  1  0
 11 10  1  0
 11 12  1  0
 12 19  1  0
 13 12  2  0
 14 15  1  0
 15 16  1  0
 17 16  1  0
 18 17  1  1
 19 18  1  0
 20 18  1  0
 20 22  1  0
 21 20  2  0
M  END
$$$$
