ELD.pdb
     RDKit          3D

 26 25  0  0  1  0  0  0  0  0999 V2000
   20.4387  -15.6706  -18.8924 N   0  0  0  0  0  0  0  0  0  0  0  0
   19.2234  -15.1072  -18.2843 C   0  0  1  0  0  0  0  0  0  0  0  0
   18.4223  -16.1624  -17.6185 C   0  0  0  0  0  0  0  0  0  0  0  0
   17.9464  -17.2003  -18.5695 C   0  0  0  0  0  0  0  0  0  0  0  0
   16.8171  -16.7096  -19.3844 C   0  0  0  0  0  0  0  0  0  0  0  0
   16.3578  -15.5563  -19.3183 O   0  0  0  0  0  0  0  0  0  0  0  0
   19.6766  -14.1031  -17.2865 C   0  0  0  0  0  0  0  0  0  0  0  0
   19.0652  -13.8189  -16.2282 O   0  0  0  0  0  0  0  0  0  0  0  0
   16.1957  -17.5734  -20.3048 O   0  0  0  0  0  0  0  0  0  0  0  0
   24.9495  -13.8081  -15.8390 C   0  0  0  0  0  0  0  0  0  0  0  0
   23.4158  -13.8049  -15.8234 C   0  0  1  0  0  0  0  0  0  0  0  0
   22.9868  -14.2085  -14.4584 C   0  0  0  0  0  0  0  0  0  0  0  0
   22.8956  -12.5285  -16.3528 C   0  0  0  0  0  0  0  0  0  0  0  0
   21.4077  -12.4595  -16.5371 C   0  0  2  0  0  0  0  0  0  0  0  0
   20.8857  -13.3909  -17.5102 N   0  0  0  0  0  0  0  0  0  0  0  0
   20.9668  -11.0979  -16.9499 C   0  0  0  0  0  0  0  0  0  0  0  0
   21.0470  -10.7695  -18.1538 O   0  0  0  0  0  0  0  0  0  0  0  0
   20.4559  -10.1423  -16.0363 N   0  0  0  0  0  0  0  0  0  0  0  0
   19.9180   -8.8644  -16.3873 C   0  0  1  0  0  0  0  0  0  0  0  0
   18.8379   -9.0383  -17.4354 C   0  0  0  0  0  0  0  0  0  0  0  0
   18.1691   -7.7791  -17.7922 C   0  0  0  0  0  0  0  0  0  0  0  0
   18.7978   -6.9030  -18.4189 O   0  0  0  0  0  0  0  0  0  0  0  0
   19.4283   -8.0949  -15.2193 C   0  0  0  0  0  0  0  0  0  0  0  0
   19.2046   -8.6799  -14.1219 O   0  0  0  0  0  0  0  0  0  0  0  0
   16.8594   -7.5547  -17.4445 O   0  0  0  0  0  0  0  0  0  0  0  0
   19.1840   -6.7239  -15.2286 O   0  0  0  0  0  0  0  0  0  0  0  0
  2  7  1  0
  2  1  1  1
  3  2  1  0
  4  3  1  0
  5  9  1  0
  5  4  1  0
  6  5  2  0
  7  8  2  0
 11 10  1  1
 11 12  1  0
 13 11  1  0
 14 13  1  6
 15 14  1  0
 15  7  1  0
 16 18  1  0
 16 14  1  0
 17 16  2  0
 19 23  1  0
 19 18  1  0
 19 20  1  6
 21 22  2  0
 21 20  1  0
 23 26  1  0
 24 23  2  0
 25 21  1  0
M  END
$$$$
