ELD.pdb
     RDKit          3D

 26 25  0  0  1  0  0  0  0  0999 V2000
   20.9894  -12.3625  -18.8835 N   0  0  0  0  0  0  0  0  0  0  0  0
   21.7246  -11.0887  -18.8499 C   0  0  1  0  0  0  0  0  0  0  0  0
   21.5812  -10.3568  -20.1314 C   0  0  0  0  0  0  0  0  0  0  0  0
   22.1699  -11.0967  -21.2778 C   0  0  0  0  0  0  0  0  0  0  0  0
   22.0155  -10.3481  -22.5410 C   0  0  0  0  0  0  0  0  0  0  0  0
   21.6510  -10.8581  -23.6146 O   0  0  0  0  0  0  0  0  0  0  0  0
   21.1409  -10.2929  -17.7385 C   0  0  0  0  0  0  0  0  0  0  0  0
   19.9282  -10.2953  -17.4160 O   0  0  0  0  0  0  0  0  0  0  0  0
   22.2897   -8.9685  -22.5706 O   0  0  0  0  0  0  0  0  0  0  0  0
   23.2799   -9.9716  -12.7351 C   0  0  0  0  0  0  0  0  0  0  0  0
   22.2204   -9.9592  -13.8440 C   0  0  1  0  0  0  0  0  0  0  0  0
   20.9164  -10.2937  -13.2132 C   0  0  0  0  0  0  0  0  0  0  0  0
   22.3007   -8.7072  -14.6225 C   0  0  0  0  0  0  0  0  0  0  0  0
   21.4662   -8.6622  -15.8690 C   0  0  2  0  0  0  0  0  0  0  0  0
   21.9842   -9.4553  -16.9598 N   0  0  0  0  0  0  0  0  0  0  0  0
   21.3058   -7.2700  -16.3740 C   0  0  0  0  0  0  0  0  0  0  0  0
   22.3004   -6.6711  -16.8386 O   0  0  0  0  0  0  0  0  0  0  0  0
   20.0681   -6.5797  -16.3535 N   0  0  0  0  0  0  0  0  0  0  0  0
   19.8706   -5.2196  -16.7493 C   0  0  1  0  0  0  0  0  0  0  0  0
   18.6973   -5.1334  -17.7039 C   0  0  0  0  0  0  0  0  0  0  0  0
   18.4419   -3.7686  -18.1859 C   0  0  0  0  0  0  0  0  0  0  0  0
   17.6034   -3.0546  -17.6003 O   0  0  0  0  0  0  0  0  0  0  0  0
   19.7127   -4.2937  -15.6030 C   0  0  0  0  0  0  0  0  0  0  0  0
   19.9192   -3.0562  -15.7531 O   0  0  0  0  0  0  0  0  0  0  0  0
   19.1157   -3.2687  -19.2733 O   0  0  0  0  0  0  0  0  0  0  0  0
   19.3397   -4.6882  -14.3206 O   0  0  0  0  0  0  0  0  0  0  0  0
  2  7  1  0
  2  1  1  6
  3  2  1  0
  4  3  1  0
  5  9  1  0
  5  4  1  0
  6  5  2  0
  7  8  2  0
 11 10  1  1
 11 12  1  0
 13 11  1  0
 14 13  1  1
 15 14  1  0
 15  7  1  0
 16 18  1  0
 16 14  1  0
 17 16  2  0
 19 23  1  0
 19 18  1  0
 19 20  1  6
 21 22  2  0
 21 20  1  0
 23 26  1  0
 24 23  2  0
 25 21  1  0
M  END
$$$$
