ELD.pdb
     RDKit          3D

 26 25  0  0  1  0  0  0  0  0999 V2000
   20.8397  -11.6162  -18.1249 N   0  0  0  0  0  0  0  0  0  0  0  0
   19.8769  -11.1123  -17.1333 C   0  0  1  0  0  0  0  0  0  0  0  0
   19.2260  -12.2294  -16.4072 C   0  0  0  0  0  0  0  0  0  0  0  0
   18.6665  -13.2550  -17.3254 C   0  0  0  0  0  0  0  0  0  0  0  0
   17.9913  -14.3365  -16.5808 C   0  0  0  0  0  0  0  0  0  0  0  0
   17.9434  -14.4056  -15.3404 O   0  0  0  0  0  0  0  0  0  0  0  0
   20.6493  -10.2675  -16.1854 C   0  0  0  0  0  0  0  0  0  0  0  0
   20.2294   -9.8756  -15.0697 O   0  0  0  0  0  0  0  0  0  0  0  0
   17.3509  -15.3723  -17.2853 O   0  0  0  0  0  0  0  0  0  0  0  0
   26.2037  -10.6312  -15.6939 C   0  0  0  0  0  0  0  0  0  0  0  0
   24.7153  -10.4881  -15.3523 C   0  0  1  0  0  0  0  0  0  0  0  0
   24.5508  -10.8691  -13.9247 C   0  0  0  0  0  0  0  0  0  0  0  0
   24.2143   -9.1626  -15.7671 C   0  0  0  0  0  0  0  0  0  0  0  0
   22.7284   -8.9719  -15.6768 C   0  0  2  0  0  0  0  0  0  0  0  0
   21.9636   -9.8515  -16.5302 N   0  0  0  0  0  0  0  0  0  0  0  0
   22.3312   -7.5763  -16.0134 C   0  0  0  0  0  0  0  0  0  0  0  0
   22.4373   -7.1798  -17.1946 O   0  0  0  0  0  0  0  0  0  0  0  0
   21.8339   -6.6622  -15.0511 N   0  0  0  0  0  0  0  0  0  0  0  0
   21.5533   -5.2800  -15.2879 C   0  0  1  0  0  0  0  0  0  0  0  0
   20.0545   -5.0706  -15.3590 C   0  0  0  0  0  0  0  0  0  0  0  0
   19.6769   -3.6788  -15.6427 C   0  0  0  0  0  0  0  0  0  0  0  0
   19.2218   -2.9645  -14.7272 O   0  0  0  0  0  0  0  0  0  0  0  0
   22.1856   -4.3767  -14.2976 C   0  0  0  0  0  0  0  0  0  0  0  0
   22.2921   -4.7332  -13.0901 O   0  0  0  0  0  0  0  0  0  0  0  0
   19.8195   -3.1541  -16.9040 O   0  0  0  0  0  0  0  0  0  0  0  0
   22.6942   -3.1155  -14.5976 O   0  0  0  0  0  0  0  0  0  0  0  0
  2  7  1  0
  2  1  1  6
  3  2  1  0
  4  3  1  0
  5  9  1  0
  5  4  1  0
  6  5  2  0
  7  8  2  0
 11 10  1  1
 11 12  1  0
 13 11  1  0
 14 13  1  6
 15 14  1  0
 15  7  1  0
 16 18  1  0
 16 14  1  0
 17 16  2  0
 19 23  1  0
 19 18  1  0
 19 20  1  1
 21 22  2  0
 21 20  1  0
 23 26  1  0
 24 23  2  0
 25 21  1  0
M  END
$$$$
