ELD.pdb
     RDKit          3D

 26 25  0  0  1  0  0  0  0  0999 V2000
   13.0114  -19.4908    1.9834 N   0  0  0  0  0  0  0  0  0  0  0  0
   13.1809  -18.2507    2.7565 C   0  0  1  0  0  0  0  0  0  0  0  0
   12.7091  -18.4239    4.1516 C   0  0  0  0  0  0  0  0  0  0  0  0
   12.4984  -19.8511    4.5075 C   0  0  0  0  0  0  0  0  0  0  0  0
   11.1357  -20.0834    5.0263 C   0  0  0  0  0  0  0  0  0  0  0  0
   10.8870  -20.6262    6.1168 O   0  0  0  0  0  0  0  0  0  0  0  0
   14.6342  -17.9395    2.7431 C   0  0  0  0  0  0  0  0  0  0  0  0
   15.5249  -18.6986    2.2904 O   0  0  0  0  0  0  0  0  0  0  0  0
   10.0231  -19.6787    4.2663 O   0  0  0  0  0  0  0  0  0  0  0  0
   18.8735  -14.8702    2.0910 C   0  0  0  0  0  0  0  0  0  0  0  0
   18.1708  -14.4711    3.3947 C   0  0  1  0  0  0  0  0  0  0  0  0
   18.4774  -13.0374    3.6412 C   0  0  0  0  0  0  0  0  0  0  0  0
   16.7493  -14.8687    3.3590 C   0  0  0  0  0  0  0  0  0  0  0  0
   16.4890  -16.3438    3.2660 C   0  0  2  0  0  0  0  0  0  0  0  0
   15.0894  -16.7018    3.2725 N   0  0  0  0  0  0  0  0  0  0  0  0
   17.1394  -17.0887    4.3800 C   0  0  0  0  0  0  0  0  0  0  0  0
   18.3857  -17.0695    4.4811 O   0  0  0  0  0  0  0  0  0  0  0  0
   16.4091  -17.8290    5.3430 N   0  0  0  0  0  0  0  0  0  0  0  0
   16.9554  -18.4130    6.5288 C   0  0  1  0  0  0  0  0  0  0  0  0
   16.3676  -17.7321    7.7479 C   0  0  0  0  0  0  0  0  0  0  0  0
   16.7355  -18.3874    9.0109 C   0  0  0  0  0  0  0  0  0  0  0  0
   17.8946  -18.8213    9.1658 O   0  0  0  0  0  0  0  0  0  0  0  0
   16.7853  -19.8840    6.5883 C   0  0  0  0  0  0  0  0  0  0  0  0
   16.1609  -20.4887    5.6712 O   0  0  0  0  0  0  0  0  0  0  0  0
   15.8187  -18.5278   10.0240 O   0  0  0  0  0  0  0  0  0  0  0  0
   17.2763  -20.6905    7.6120 O   0  0  0  0  0  0  0  0  0  0  0  0
  2  7  1  0
  2  1  1  6
  3  2  1  0
  4  3  1  0
  5  9  1  0
  5  4  1  0
  6  5  2  0
  7  8  2  0
 11 10  1  6
 11 12  1  0
 13 11  1  0
 14 13  1  1
 15 14  1  0
 15  7  1  0
 16 18  1  0
 16 14  1  0
 17 16  2  0
 19 23  1  0
 19 18  1  0
 19 20  1  1
 21 22  2  0
 21 20  1  0
 23 26  1  0
 24 23  2  0
 25 21  1  0
M  END
$$$$
