ELD.pdb
     RDKit          3D

 26 25  0  0  1  0  0  0  0  0999 V2000
   17.2426  -22.5374  -10.6122 N   0  0  0  0  0  0  0  0  0  0  0  0
   18.4352  -23.0318  -11.3175 C   0  0  1  0  0  0  0  0  0  0  0  0
   18.0610  -23.7380  -12.5665 C   0  0  0  0  0  0  0  0  0  0  0  0
   17.4748  -25.0787  -12.3079 C   0  0  0  0  0  0  0  0  0  0  0  0
   18.4902  -26.0245  -11.8034 C   0  0  0  0  0  0  0  0  0  0  0  0
   18.5306  -26.4476  -10.6350 O   0  0  0  0  0  0  0  0  0  0  0  0
   19.2644  -21.8394  -11.6331 C   0  0  0  0  0  0  0  0  0  0  0  0
   18.8096  -20.7217  -11.9773 O   0  0  0  0  0  0  0  0  0  0  0  0
   19.4917  -26.4986  -12.6703 O   0  0  0  0  0  0  0  0  0  0  0  0
   24.0711  -20.8926   -8.9530 C   0  0  0  0  0  0  0  0  0  0  0  0
   22.6914  -20.7830   -9.6139 C   0  0  1  0  0  0  0  0  0  0  0  0
   21.9893  -19.6340   -8.9836 C   0  0  0  0  0  0  0  0  0  0  0  0
   22.8209  -20.7800  -11.0847 C   0  0  0  0  0  0  0  0  0  0  0  0
   21.5306  -20.8015  -11.8509 C   0  0  2  0  0  0  0  0  0  0  0  0
   20.6801  -21.9301  -11.5509 N   0  0  0  0  0  0  0  0  0  0  0  0
   21.7640  -20.8045  -13.3220 C   0  0  0  0  0  0  0  0  0  0  0  0
   22.6847  -21.5080  -13.7923 O   0  0  0  0  0  0  0  0  0  0  0  0
   20.9872  -20.0398  -14.2280 N   0  0  0  0  0  0  0  0  0  0  0  0
   20.7795  -20.3498  -15.6087 C   0  0  1  0  0  0  0  0  0  0  0  0
   20.3341  -21.7915  -15.7445 C   0  0  0  0  0  0  0  0  0  0  0  0
   20.0660  -22.1863  -17.1346 C   0  0  0  0  0  0  0  0  0  0  0  0
   20.7601  -21.7109  -18.0554 O   0  0  0  0  0  0  0  0  0  0  0  0
   19.8409  -19.4213  -16.2820 C   0  0  0  0  0  0  0  0  0  0  0  0
   19.9681  -19.1729  -17.5144 O   0  0  0  0  0  0  0  0  0  0  0  0
   19.0605  -23.0732  -17.4328 O   0  0  0  0  0  0  0  0  0  0  0  0
   18.7859  -18.7726  -15.6452 O   0  0  0  0  0  0  0  0  0  0  0  0
  2  7  1  0
  2  1  1  6
  3  2  1  0
  4  3  1  0
  5  9  1  0
  5  4  1  0
  6  5  2  0
  7  8  2  0
 11 10  1  1
 11 12  1  0
 13 11  1  0
 14 13  1  1
 15 14  1  0
 15  7  1  0
 16 18  1  0
 16 14  1  0
 17 16  2  0
 19 23  1  0
 19 18  1  0
 19 20  1  1
 21 22  2  0
 21 20  1  0
 23 26  1  0
 24 23  2  0
 25 21  1  0
M  END
$$$$
