ELD.pdb
     RDKit          3D

 26 25  0  0  1  0  0  0  0  0999 V2000
   24.0331  -20.1299  -18.3658 N   0  0  0  0  0  0  0  0  0  0  0  0
   24.5280  -21.5127  -18.2829 C   0  0  1  0  0  0  0  0  0  0  0  0
   25.7781  -21.6790  -19.0628 C   0  0  0  0  0  0  0  0  0  0  0  0
   26.6460  -20.4739  -19.0096 C   0  0  0  0  0  0  0  0  0  0  0  0
   28.0184  -20.8144  -18.5848 C   0  0  0  0  0  0  0  0  0  0  0  0
   28.8631  -19.9792  -18.2182 O   0  0  0  0  0  0  0  0  0  0  0  0
   24.7828  -21.7850  -16.8442 C   0  0  0  0  0  0  0  0  0  0  0  0
   25.0680  -22.9103  -16.3679 O   0  0  0  0  0  0  0  0  0  0  0  0
   28.4330  -22.1588  -18.5820 O   0  0  0  0  0  0  0  0  0  0  0  0
   28.2552  -18.8292  -14.0078 C   0  0  0  0  0  0  0  0  0  0  0  0
   27.3630  -19.9197  -14.6140 C   0  0  1  0  0  0  0  0  0  0  0  0
   28.1329  -21.1910  -14.5785 C   0  0  0  0  0  0  0  0  0  0  0  0
   26.0305  -19.9108  -13.9782 C   0  0  0  0  0  0  0  0  0  0  0  0
   25.0474  -20.9095  -14.5153 C   0  0  2  0  0  0  0  0  0  0  0  0
   24.7078  -20.7198  -15.9066 N   0  0  0  0  0  0  0  0  0  0  0  0
   23.7726  -20.8959  -13.7449 C   0  0  0  0  0  0  0  0  0  0  0  0
   23.7938  -21.1709  -12.5252 O   0  0  0  0  0  0  0  0  0  0  0  0
   22.5201  -20.5848  -14.3311 N   0  0  0  0  0  0  0  0  0  0  0  0
   21.2645  -20.5725  -13.6465 C   0  0  1  0  0  0  0  0  0  0  0  0
   20.5538  -19.2610  -13.9119 C   0  0  0  0  0  0  0  0  0  0  0  0
   19.2816  -19.1347  -13.1870 C   0  0  0  0  0  0  0  0  0  0  0  0
   18.9843  -19.9728  -12.3125 O   0  0  0  0  0  0  0  0  0  0  0  0
   20.4073  -21.7357  -13.9756 C   0  0  0  0  0  0  0  0  0  0  0  0
   20.4299  -22.2328  -15.1371 O   0  0  0  0  0  0  0  0  0  0  0  0
   18.4153  -18.1043  -13.4600 O   0  0  0  0  0  0  0  0  0  0  0  0
   19.5429  -22.3539  -13.0756 O   0  0  0  0  0  0  0  0  0  0  0  0
  2  7  1  0
  2  1  1  1
  3  2  1  0
  4  3  1  0
  5  9  1  0
  5  4  1  0
  6  5  2  0
  7  8  2  0
 11 10  1  1
 11 12  1  0
 13 11  1  0
 14 13  1  1
 15 14  1  0
 15  7  1  0
 16 18  1  0
 16 14  1  0
 17 16  2  0
 19 23  1  0
 19 18  1  0
 19 20  1  6
 21 22  2  0
 21 20  1  0
 23 26  1  0
 24 23  2  0
 25 21  1  0
M  END
$$$$
