ELD.pdb
     RDKit          3D

 26 25  0  0  1  0  0  0  0  0999 V2000
   19.6749  -11.9630  -17.8457 N   0  0  0  0  0  0  0  0  0  0  0  0
   20.0504  -10.6059  -18.2717 C   0  0  1  0  0  0  0  0  0  0  0  0
   18.9054   -9.9113  -18.9083 C   0  0  0  0  0  0  0  0  0  0  0  0
   18.5200  -10.5226  -20.2067 C   0  0  0  0  0  0  0  0  0  0  0  0
   17.4044   -9.7907  -20.8389 C   0  0  0  0  0  0  0  0  0  0  0  0
   17.5301   -8.7088  -21.4384 O   0  0  0  0  0  0  0  0  0  0  0  0
   20.4716   -9.8792  -17.0455 C   0  0  0  0  0  0  0  0  0  0  0  0
   19.8037   -9.8168  -15.9851 O   0  0  0  0  0  0  0  0  0  0  0  0
   16.1021  -10.3197  -20.7792 O   0  0  0  0  0  0  0  0  0  0  0  0
   25.3546  -10.2940  -14.7074 C   0  0  0  0  0  0  0  0  0  0  0  0
   23.8514  -10.0884  -14.9323 C   0  0  1  0  0  0  0  0  0  0  0  0
   23.1603  -10.4633  -13.6705 C   0  0  0  0  0  0  0  0  0  0  0  0
   23.5894   -8.7426  -15.4801 C   0  0  0  0  0  0  0  0  0  0  0  0
   22.1667   -8.4645  -15.8684 C   0  0  2  0  0  0  0  0  0  0  0  0
   21.7153   -9.1920  -17.0321 N   0  0  0  0  0  0  0  0  0  0  0  0
   21.9430   -7.0170  -16.1397 C   0  0  0  0  0  0  0  0  0  0  0  0
   22.3514   -6.5277  -17.2156 O   0  0  0  0  0  0  0  0  0  0  0  0
   21.2839   -6.1542  -15.2287 N   0  0  0  0  0  0  0  0  0  0  0  0
   21.1092   -4.7450  -15.3997 C   0  0  1  0  0  0  0  0  0  0  0  0
   19.6506   -4.3861  -15.2023 C   0  0  0  0  0  0  0  0  0  0  0  0
   19.3693   -2.9612  -15.4274 C   0  0  0  0  0  0  0  0  0  0  0  0
   20.2522   -2.2280  -15.9157 O   0  0  0  0  0  0  0  0  0  0  0  0
   21.9945   -3.9358  -14.5292 C   0  0  0  0  0  0  0  0  0  0  0  0
   22.4284   -4.4153  -13.4437 O   0  0  0  0  0  0  0  0  0  0  0  0
   18.1454   -2.4264  -15.1071 O   0  0  0  0  0  0  0  0  0  0  0  0
   22.4065   -2.6373  -14.8183 O   0  0  0  0  0  0  0  0  0  0  0  0
  2  7  1  0
  2  1  1  1
  3  2  1  0
  4  3  1  0
  5  9  1  0
  5  4  1  0
  6  5  2  0
  7  8  2  0
 11 10  1  1
 11 12  1  0
 13 11  1  0
 14 13  1  6
 15 14  1  0
 15  7  1  0
 16 18  1  0
 16 14  1  0
 17 16  2  0
 19 23  1  0
 19 18  1  0
 19 20  1  1
 21 22  2  0
 21 20  1  0
 23 26  1  0
 24 23  2  0
 25 21  1  0
M  END
$$$$
