ELD.pdb
     RDKit          3D

 26 25  0  0  1  0  0  0  0  0999 V2000
   26.8904  -19.4618  -13.5668 N   0  0  0  0  0  0  0  0  0  0  0  0
   26.7755  -20.9184  -13.7375 C   0  0  1  0  0  0  0  0  0  0  0  0
   28.0806  -21.5158  -14.1096 C   0  0  0  0  0  0  0  0  0  0  0  0
   28.4371  -21.2637  -15.5300 C   0  0  0  0  0  0  0  0  0  0  0  0
   27.5100  -20.3008  -16.1573 C   0  0  0  0  0  0  0  0  0  0  0  0
   27.6969  -19.0722  -16.1907 O   0  0  0  0  0  0  0  0  0  0  0  0
   26.3178  -21.4623  -12.4322 C   0  0  0  0  0  0  0  0  0  0  0  0
   26.1390  -22.6798  -12.1868 O   0  0  0  0  0  0  0  0  0  0  0  0
   26.3296  -20.7659  -16.7653 O   0  0  0  0  0  0  0  0  0  0  0  0
   27.2277  -18.9419   -7.5958 C   0  0  0  0  0  0  0  0  0  0  0  0
   27.0445  -19.9645   -8.7242 C   0  0  1  0  0  0  0  0  0  0  0  0
   27.9273  -21.1214   -8.4199 C   0  0  0  0  0  0  0  0  0  0  0  0
   25.6108  -20.2397   -8.9454 C   0  0  0  0  0  0  0  0  0  0  0  0
   25.2783  -20.9797  -10.2081 C   0  0  2  0  0  0  0  0  0  0  0  0
   26.0524  -20.5713  -11.3575 N   0  0  0  0  0  0  0  0  0  0  0  0
   23.8409  -20.8324  -10.5701 C   0  0  0  0  0  0  0  0  0  0  0  0
   22.9672  -21.0684   -9.7072 O   0  0  0  0  0  0  0  0  0  0  0  0
   23.4068  -20.4346  -11.8594 N   0  0  0  0  0  0  0  0  0  0  0  0
   22.0475  -20.2139  -12.2451 C   0  0  1  0  0  0  0  0  0  0  0  0
   22.0020  -19.2673  -13.4272 C   0  0  0  0  0  0  0  0  0  0  0  0
   20.6345  -18.9158  -13.8353 C   0  0  0  0  0  0  0  0  0  0  0  0
   19.6747  -19.2141  -13.0968 O   0  0  0  0  0  0  0  0  0  0  0  0
   21.3061  -21.4675  -12.5191 C   0  0  0  0  0  0  0  0  0  0  0  0
   21.8578  -22.4035  -13.1641 O   0  0  0  0  0  0  0  0  0  0  0  0
   20.3998  -18.2620  -15.0202 O   0  0  0  0  0  0  0  0  0  0  0  0
   19.9981  -21.7121  -12.1083 O   0  0  0  0  0  0  0  0  0  0  0  0
  2  7  1  0
  2  1  1  1
  3  2  1  0
  4  3  1  0
  5  9  1  0
  5  4  1  0
  6  5  2  0
  7  8  2  0
 11 10  1  1
 11 12  1  0
 13 11  1  0
 14 13  1  1
 15 14  1  0
 15  7  1  0
 16 18  1  0
 16 14  1  0
 17 16  2  0
 19 23  1  0
 19 18  1  0
 19 20  1  6
 21 22  2  0
 21 20  1  0
 23 26  1  0
 24 23  2  0
 25 21  1  0
M  END
$$$$
