ELD.pdb
     RDKit          3D

 26 25  0  0  1  0  0  0  0  0999 V2000
   25.1543  -23.8816  -16.6865 N   0  0  0  0  0  0  0  0  0  0  0  0
   24.0986  -24.5600  -15.9188 C   0  0  1  0  0  0  0  0  0  0  0  0
   24.4053  -26.0008  -15.7492 C   0  0  0  0  0  0  0  0  0  0  0  0
   24.9001  -26.6281  -17.0021 C   0  0  0  0  0  0  0  0  0  0  0  0
   23.7852  -27.0193  -17.8876 C   0  0  0  0  0  0  0  0  0  0  0  0
   22.5839  -26.8623  -17.6085 O   0  0  0  0  0  0  0  0  0  0  0  0
   24.0426  -23.8897  -14.5935 C   0  0  0  0  0  0  0  0  0  0  0  0
   23.2663  -24.2103  -13.6611 O   0  0  0  0  0  0  0  0  0  0  0  0
   24.0607  -27.6105  -19.1342 O   0  0  0  0  0  0  0  0  0  0  0  0
   25.8209  -21.4674  -10.2038 C   0  0  0  0  0  0  0  0  0  0  0  0
   26.0237  -20.5795  -11.4379 C   0  0  1  0  0  0  0  0  0  0  0  0
   27.1647  -19.6720  -11.1468 C   0  0  0  0  0  0  0  0  0  0  0  0
   26.1015  -21.4031  -12.6609 C   0  0  0  0  0  0  0  0  0  0  0  0
   24.8135  -22.0340  -13.1027 C   0  0  2  0  0  0  0  0  0  0  0  0
   24.9154  -22.8017  -14.3223 N   0  0  0  0  0  0  0  0  0  0  0  0
   23.7452  -21.0169  -13.3104 C   0  0  0  0  0  0  0  0  0  0  0  0
   23.3124  -20.3771  -12.3271 O   0  0  0  0  0  0  0  0  0  0  0  0
   23.1858  -20.7342  -14.5817 N   0  0  0  0  0  0  0  0  0  0  0  0
   22.1746  -19.7573  -14.8439 C   0  0  1  0  0  0  0  0  0  0  0  0
   22.4534  -19.0809  -16.1706 C   0  0  0  0  0  0  0  0  0  0  0  0
   21.5083  -17.9984  -16.4786 C   0  0  0  0  0  0  0  0  0  0  0  0
   20.7177  -17.6012  -15.5993 O   0  0  0  0  0  0  0  0  0  0  0  0
   20.8002  -20.3088  -14.7889 C   0  0  0  0  0  0  0  0  0  0  0  0
   20.4199  -21.1532  -15.6486 O   0  0  0  0  0  0  0  0  0  0  0  0
   21.4847  -17.4175  -17.7230 O   0  0  0  0  0  0  0  0  0  0  0  0
   19.8523  -19.9612  -13.8297 O   0  0  0  0  0  0  0  0  0  0  0  0
  2  7  1  0
  2  1  1  6
  3  2  1  0
  4  3  1  0
  5  9  1  0
  5  4  1  0
  6  5  2  0
  7  8  2  0
 11 10  1  1
 11 12  1  0
 13 11  1  0
 14 13  1  6
 15 14  1  0
 15  7  1  0
 16 18  1  0
 16 14  1  0
 17 16  2  0
 19 23  1  0
 19 18  1  0
 19 20  1  6
 21 22  2  0
 21 20  1  0
 23 26  1  0
 24 23  2  0
 25 21  1  0
M  END
$$$$
