ELD.pdb
     RDKit          3D

 26 25  0  0  1  0  0  0  0  0999 V2000
   25.5270  -20.0970  -15.6176 N   0  0  0  0  0  0  0  0  0  0  0  0
   25.5797  -21.5669  -15.5945 C   0  0  1  0  0  0  0  0  0  0  0  0
   26.9817  -22.0498  -15.5855 C   0  0  0  0  0  0  0  0  0  0  0  0
   27.7071  -21.7132  -16.8379 C   0  0  0  0  0  0  0  0  0  0  0  0
   28.9258  -22.5321  -16.9934 C   0  0  0  0  0  0  0  0  0  0  0  0
   28.9255  -23.7705  -17.1023 O   0  0  0  0  0  0  0  0  0  0  0  0
   24.8833  -21.9955  -14.3534 C   0  0  0  0  0  0  0  0  0  0  0  0
   24.6809  -23.1886  -14.0214 O   0  0  0  0  0  0  0  0  0  0  0  0
   30.1856  -21.9065  -17.0242 O   0  0  0  0  0  0  0  0  0  0  0  0
   25.8033  -19.8489   -9.4339 C   0  0  0  0  0  0  0  0  0  0  0  0
   25.4871  -20.7617  -10.6252 C   0  0  1  0  0  0  0  0  0  0  0  0
   25.9637  -22.1258  -10.2755 C   0  0  0  0  0  0  0  0  0  0  0  0
   24.0745  -20.6149  -11.0290 C   0  0  0  0  0  0  0  0  0  0  0  0
   23.6669  -21.3760  -12.2566 C   0  0  2  0  0  0  0  0  0  0  0  0
   24.3956  -21.0130  -13.4500 N   0  0  0  0  0  0  0  0  0  0  0  0
   22.2179  -21.2032  -12.5555 C   0  0  0  0  0  0  0  0  0  0  0  0
   21.3860  -21.3170  -11.6289 O   0  0  0  0  0  0  0  0  0  0  0  0
   21.7270  -20.9140  -13.8533 N   0  0  0  0  0  0  0  0  0  0  0  0
   20.3482  -20.7721  -14.2057 C   0  0  1  0  0  0  0  0  0  0  0  0
   20.2207  -19.8413  -15.3943 C   0  0  0  0  0  0  0  0  0  0  0  0
   20.0851  -18.4287  -15.0117 C   0  0  0  0  0  0  0  0  0  0  0  0
   20.0015  -18.1218  -13.8057 O   0  0  0  0  0  0  0  0  0  0  0  0
   19.6704  -22.0672  -14.4497 C   0  0  0  0  0  0  0  0  0  0  0  0
   20.2936  -23.0151  -15.0062 O   0  0  0  0  0  0  0  0  0  0  0  0
   20.0498  -17.4414  -15.9659 O   0  0  0  0  0  0  0  0  0  0  0  0
   18.3496  -22.3399  -14.1028 O   0  0  0  0  0  0  0  0  0  0  0  0
  2  7  1  0
  2  1  1  1
  3  2  1  0
  4  3  1  0
  5  9  1  0
  5  4  1  0
  6  5  2  0
  7  8  2  0
 11 10  1  1
 11 12  1  0
 13 11  1  0
 14 13  1  1
 15 14  1  0
 15  7  1  0
 16 18  1  0
 16 14  1  0
 17 16  2  0
 19 23  1  0
 19 18  1  0
 19 20  1  6
 21 22  2  0
 21 20  1  0
 23 26  1  0
 24 23  2  0
 25 21  1  0
M  END
$$$$
