ELD.pdb
     RDKit          3D

 26 25  0  0  1  0  0  0  0  0999 V2000
   21.0875  -13.8423  -16.2561 N   0  0  0  0  0  0  0  0  0  0  0  0
   21.1510  -12.6419  -17.1042 C   0  0  1  0  0  0  0  0  0  0  0  0
   19.7927  -12.1259  -17.3998 C   0  0  0  0  0  0  0  0  0  0  0  0
   18.9960  -13.0652  -18.2311 C   0  0  0  0  0  0  0  0  0  0  0  0
   17.6482  -12.5306  -18.5097 C   0  0  0  0  0  0  0  0  0  0  0  0
   17.3003  -11.3595  -18.2793 O   0  0  0  0  0  0  0  0  0  0  0  0
   21.9289  -11.6284  -16.3448 C   0  0  0  0  0  0  0  0  0  0  0  0
   21.6993  -11.2911  -15.1581 O   0  0  0  0  0  0  0  0  0  0  0  0
   16.6686  -13.3701  -19.0710 O   0  0  0  0  0  0  0  0  0  0  0  0
   27.4858  -10.7819  -16.8337 C   0  0  0  0  0  0  0  0  0  0  0  0
   26.0687  -10.9456  -16.2703 C   0  0  1  0  0  0  0  0  0  0  0  0
   26.1984  -11.1735  -14.8069 C   0  0  0  0  0  0  0  0  0  0  0  0
   25.2038   -9.8343  -16.7139 C   0  0  0  0  0  0  0  0  0  0  0  0
   23.7634   -9.9275  -16.3028 C   0  0  2  0  0  0  0  0  0  0  0  0
   23.0207  -10.9701  -16.9724 N   0  0  0  0  0  0  0  0  0  0  0  0
   23.0391   -8.6479  -16.5412 C   0  0  0  0  0  0  0  0  0  0  0  0
   22.6237   -8.3871  -17.6914 O   0  0  0  0  0  0  0  0  0  0  0  0
   22.7944   -7.6977  -15.5183 N   0  0  0  0  0  0  0  0  0  0  0  0
   22.2591   -6.3863  -15.7157 C   0  0  1  0  0  0  0  0  0  0  0  0
   21.6412   -5.8900  -14.4245 C   0  0  0  0  0  0  0  0  0  0  0  0
   21.0732   -4.5391  -14.5360 C   0  0  0  0  0  0  0  0  0  0  0  0
   19.9983   -4.3705  -15.1458 O   0  0  0  0  0  0  0  0  0  0  0  0
   23.2503   -5.4245  -16.2531 C   0  0  0  0  0  0  0  0  0  0  0  0
   22.8852   -4.5162  -17.0521 O   0  0  0  0  0  0  0  0  0  0  0  0
   21.7110   -3.4590  -13.9765 O   0  0  0  0  0  0  0  0  0  0  0  0
   24.6068   -5.4368  -15.9386 O   0  0  0  0  0  0  0  0  0  0  0  0
  2  7  1  0
  2  1  1  1
  3  2  1  0
  4  3  1  0
  5  9  1  0
  5  4  1  0
  6  5  2  0
  7  8  2  0
 11 10  1  1
 11 12  1  0
 13 11  1  0
 14 13  1  6
 15 14  1  0
 15  7  1  0
 16 18  1  0
 16 14  1  0
 17 16  2  0
 19 23  1  0
 19 18  1  0
 19 20  1  1
 21 22  2  0
 21 20  1  0
 23 26  1  0
 24 23  2  0
 25 21  1  0
M  END
$$$$
