ELD.pdb
     RDKit          3D

 26 25  0  0  1  0  0  0  0  0999 V2000
   20.9456  -20.5558   -9.9432 N   0  0  0  0  0  0  0  0  0  0  0  0
   20.8528  -20.8698  -11.3774 C   0  0  1  0  0  0  0  0  0  0  0  0
   19.5944  -20.3425  -11.9579 C   0  0  0  0  0  0  0  0  0  0  0  0
   18.4173  -21.1861  -11.6249 C   0  0  0  0  0  0  0  0  0  0  0  0
   18.5010  -22.5106  -12.2719 C   0  0  0  0  0  0  0  0  0  0  0  0
   19.0640  -23.4986  -11.7694 O   0  0  0  0  0  0  0  0  0  0  0  0
   22.0246  -20.2270  -12.0275 C   0  0  0  0  0  0  0  0  0  0  0  0
   22.3068  -19.0068  -11.9495 O   0  0  0  0  0  0  0  0  0  0  0  0
   17.9190  -22.7050  -13.5380 O   0  0  0  0  0  0  0  0  0  0  0  0
   26.9787  -22.2066  -11.4396 C   0  0  0  0  0  0  0  0  0  0  0  0
   25.7304  -21.3352  -11.6260 C   0  0  1  0  0  0  0  0  0  0  0  0
   25.9706  -20.0584  -10.9032 C   0  0  0  0  0  0  0  0  0  0  0  0
   25.3655  -21.2525  -13.0543 C   0  0  0  0  0  0  0  0  0  0  0  0
   24.1263  -20.4646  -13.3641 C   0  0  2  0  0  0  0  0  0  0  0  0
   22.9151  -21.0172  -12.8033 N   0  0  0  0  0  0  0  0  0  0  0  0
   23.9113  -20.3315  -14.8320 C   0  0  0  0  0  0  0  0  0  0  0  0
   23.3845  -21.2761  -15.4596 O   0  0  0  0  0  0  0  0  0  0  0  0
   24.2793  -19.1749  -15.5640 N   0  0  0  0  0  0  0  0  0  0  0  0
   24.1088  -18.9960  -16.9727 C   0  0  1  0  0  0  0  0  0  0  0  0
   23.6170  -17.5903  -17.2506 C   0  0  0  0  0  0  0  0  0  0  0  0
   24.5675  -16.5507  -16.8314 C   0  0  0  0  0  0  0  0  0  0  0  0
   25.6051  -16.8743  -16.2196 O   0  0  0  0  0  0  0  0  0  0  0  0
   25.3270  -19.3141  -17.7544 C   0  0  0  0  0  0  0  0  0  0  0  0
   26.4404  -19.4428  -17.1710 O   0  0  0  0  0  0  0  0  0  0  0  0
   24.3281  -15.2262  -17.1054 O   0  0  0  0  0  0  0  0  0  0  0  0
   25.3498  -19.4912  -19.1356 O   0  0  0  0  0  0  0  0  0  0  0  0
  2  7  1  0
  2  1  1  1
  3  2  1  0
  4  3  1  0
  5  9  1  0
  5  4  1  0
  6  5  2  0
  7  8  2  0
 11 10  1  6
 11 12  1  0
 13 11  1  0
 14 13  1  6
 15 14  1  0
 15  7  1  0
 16 18  1  0
 16 14  1  0
 17 16  2  0
 19 23  1  0
 19 18  1  0
 19 20  1  1
 21 22  2  0
 21 20  1  0
 23 26  1  0
 24 23  2  0
 25 21  1  0
M  END
$$$$
