ELD.pdb
     RDKit          3D

 26 25  0  0  1  0  0  0  0  0999 V2000
   16.8769  -10.3551  -13.2389 N   0  0  0  0  0  0  0  0  0  0  0  0
   17.6037  -10.0989  -14.4920 C   0  0  1  0  0  0  0  0  0  0  0  0
   16.7126   -9.4929  -15.5105 C   0  0  0  0  0  0  0  0  0  0  0  0
   15.6854  -10.4454  -16.0063 C   0  0  0  0  0  0  0  0  0  0  0  0
   14.8693   -9.8485  -17.0823 C   0  0  0  0  0  0  0  0  0  0  0  0
   13.7308  -10.2392  -17.3935 O   0  0  0  0  0  0  0  0  0  0  0  0
   18.7079   -9.1623  -14.1564 C   0  0  0  0  0  0  0  0  0  0  0  0
   18.7396   -8.4277  -13.1395 O   0  0  0  0  0  0  0  0  0  0  0  0
   15.3792   -8.7678  -17.8248 O   0  0  0  0  0  0  0  0  0  0  0  0
   24.0663  -10.3593  -15.0185 C   0  0  0  0  0  0  0  0  0  0  0  0
   22.7045   -9.9042  -14.4791 C   0  0  1  0  0  0  0  0  0  0  0  0
   22.8027   -9.8787  -12.9959 C   0  0  0  0  0  0  0  0  0  0  0  0
   22.2673   -8.6667  -15.1555 C   0  0  0  0  0  0  0  0  0  0  0  0
   20.9161   -8.1501  -14.7557 C   0  0  2  0  0  0  0  0  0  0  0  0
   19.8280   -9.0615  -15.0249 N   0  0  0  0  0  0  0  0  0  0  0  0
   20.5940   -6.8658  -15.4381 C   0  0  0  0  0  0  0  0  0  0  0  0
   21.3404   -5.8779  -15.2630 O   0  0  0  0  0  0  0  0  0  0  0  0
   19.4695   -6.7031  -16.2854 N   0  0  0  0  0  0  0  0  0  0  0  0
   19.1085   -5.4957  -16.9616 C   0  0  1  0  0  0  0  0  0  0  0  0
   18.3004   -5.8284  -18.1992 C   0  0  0  0  0  0  0  0  0  0  0  0
   19.1038   -6.4364  -19.2692 C   0  0  0  0  0  0  0  0  0  0  0  0
   20.3442   -6.3064  -19.2587 O   0  0  0  0  0  0  0  0  0  0  0  0
   18.4021   -4.5264  -16.0910 C   0  0  0  0  0  0  0  0  0  0  0  0
   17.7514   -4.9318  -15.0866 O   0  0  0  0  0  0  0  0  0  0  0  0
   18.5058   -7.1471  -20.2811 O   0  0  0  0  0  0  0  0  0  0  0  0
   18.3946   -3.1487  -16.2941 O   0  0  0  0  0  0  0  0  0  0  0  0
  2  7  1  0
  2  1  1  1
  3  2  1  0
  4  3  1  0
  5  9  1  0
  5  4  1  0
  6  5  2  0
  7  8  2  0
 11 10  1  6
 11 12  1  0
 13 11  1  0
 14 13  1  6
 15 14  1  0
 15  7  1  0
 16 18  1  0
 16 14  1  0
 17 16  2  0
 19 23  1  0
 19 18  1  0
 19 20  1  6
 21 22  2  0
 21 20  1  0
 23 26  1  0
 24 23  2  0
 25 21  1  0
M  END
$$$$
