EGE.pdb
     RDKit          3D

 23 22  0  0  1  0  0  0  0  0999 V2000
    9.2676  -12.6787   18.3313 N   0  0  0  0  0  0  0  0  0  0  0  0
    9.0182  -14.1333   18.4656 C   0  0  1  0  0  0  0  0  0  0  0  0
   10.4034  -14.7344   18.5738 C   0  0  0  0  0  0  0  0  0  0  0  0
   11.4195  -13.6903   18.8747 C   0  0  0  0  0  0  0  0  0  0  0  0
   12.8012  -14.2779   18.9829 C   0  0  0  0  0  0  0  0  0  0  0  0
   13.8325  -13.6506   18.7124 O   0  0  0  0  0  0  0  0  0  0  0  0
    8.3062  -14.3437   19.7240 C   0  0  0  0  0  0  0  0  0  0  0  0
    7.8298  -15.4977   19.9837 O   0  0  0  0  0  0  0  0  0  0  0  0
   12.8748  -15.5948   19.4124 O   0  0  0  0  0  0  0  0  0  0  0  0
    8.0987  -13.3400   20.7091 N   0  0  0  0  0  0  0  0  0  0  0  0
    7.3604  -13.6797   21.8870 C   0  0  0  0  0  0  0  0  0  0  0  0
    8.1416  -14.5199   22.8311 C   0  0  0  0  0  0  0  0  0  0  0  0
    9.1480  -15.1936   22.4441 O   0  0  0  0  0  0  0  0  0  0  0  0
    7.7957  -14.6018   24.1939 N   0  0  0  0  0  0  0  0  0  0  0  0
    8.5184  -15.4093   25.1705 C   0  0  1  0  0  0  0  0  0  0  0  0
    8.6462  -14.7045   26.4869 C   0  0  0  0  0  0  0  0  0  0  0  0
    9.4315  -15.4186   27.5272 C   0  0  0  0  0  0  0  0  0  0  0  0
    9.5887  -14.7145   28.7956 C   0  0  0  0  0  0  0  0  0  0  0  0
    9.0315  -13.6009   28.9423 O   0  0  0  0  0  0  0  0  0  0  0  0
    7.9460  -16.7619   25.2954 C   0  0  0  0  0  0  0  0  0  0  0  0
    8.7944  -17.8158   25.6578 O   0  0  0  0  0  0  0  0  0  0  0  0
   10.3207  -15.2066   29.8495 O   0  0  0  0  0  0  0  0  0  0  0  0
    6.7507  -17.0460   25.1015 O   0  0  0  0  0  0  0  0  0  0  0  0
  2  1  1  1
  2  7  1  0
  2  3  1  0
  4  3  1  0
  4  5  1  0
  5  6  2  0
  7  8  2  0
  9  5  1  0
 10 11  1  0
 10  7  1  0
 11 12  1  0
 12 13  2  0
 12 14  1  0
 14 15  1  0
 15 16  1  1
 17 16  1  0
 17 18  1  0
 18 22  1  0
 18 19  2  0
 20 21  1  0
 20 15  1  0
 23 20  2  0
M  END
$$$$
