EGE.pdb
     RDKit          3D

 23 22  0  0  1  0  0  0  0  0999 V2000
   11.5449  -14.2076   18.3415 N   0  0  0  0  0  0  0  0  0  0  0  0
   12.1903  -15.3825   18.9733 C   0  0  1  0  0  0  0  0  0  0  0  0
   13.6688  -15.0617   18.9196 C   0  0  0  0  0  0  0  0  0  0  0  0
   14.0559  -14.5368   17.5824 C   0  0  0  0  0  0  0  0  0  0  0  0
   15.5355  -14.2723   17.4990 C   0  0  0  0  0  0  0  0  0  0  0  0
   16.0958  -13.8442   16.4826 O   0  0  0  0  0  0  0  0  0  0  0  0
   11.7605  -15.4234   20.3691 C   0  0  0  0  0  0  0  0  0  0  0  0
   11.1346  -14.4251   20.8567 O   0  0  0  0  0  0  0  0  0  0  0  0
   16.2705  -14.5365   18.6453 O   0  0  0  0  0  0  0  0  0  0  0  0
   11.9875  -16.5162   21.2496 N   0  0  0  0  0  0  0  0  0  0  0  0
   11.4307  -16.4605   22.5668 C   0  0  0  0  0  0  0  0  0  0  0  0
   12.4549  -16.2034   23.6119 C   0  0  0  0  0  0  0  0  0  0  0  0
   13.6970  -16.2081   23.3402 O   0  0  0  0  0  0  0  0  0  0  0  0
   12.0875  -15.9440   24.9465 N   0  0  0  0  0  0  0  0  0  0  0  0
   13.0415  -15.8015   26.0410 C   0  0  1  0  0  0  0  0  0  0  0  0
   12.3518  -15.5656   27.3505 C   0  0  0  0  0  0  0  0  0  0  0  0
   11.3189  -16.5665   27.7249 C   0  0  0  0  0  0  0  0  0  0  0  0
   10.6344  -16.3259   28.9909 C   0  0  0  0  0  0  0  0  0  0  0  0
    9.5560  -15.6861   28.9833 O   0  0  0  0  0  0  0  0  0  0  0  0
   13.9952  -16.9244   26.0873 C   0  0  0  0  0  0  0  0  0  0  0  0
   13.5265  -18.2118   25.7961 O   0  0  0  0  0  0  0  0  0  0  0  0
   11.1090  -16.7640   30.2039 O   0  0  0  0  0  0  0  0  0  0  0  0
   15.2021  -16.8178   26.3688 O   0  0  0  0  0  0  0  0  0  0  0  0
  2  1  1  6
  2  7  1  0
  2  3  1  0
  4  3  1  0
  4  5  1  0
  5  6  2  0
  7  8  2  0
  9  5  1  0
 10 11  1  0
 10  7  1  0
 11 12  1  0
 12 13  2  0
 12 14  1  0
 14 15  1  0
 15 16  1  1
 17 16  1  0
 17 18  1  0
 18 22  1  0
 18 19  2  0
 20 21  1  0
 20 15  1  0
 23 20  2  0
M  END
$$$$
