EGE.pdb
     RDKit          3D

 23 22  0  0  1  0  0  0  0  0999 V2000
    6.7939  -16.4004   20.5033 N   0  0  0  0  0  0  0  0  0  0  0  0
    8.2644  -16.2176   20.5079 C   0  0  1  0  0  0  0  0  0  0  0  0
    8.5037  -15.1432   19.4686 C   0  0  0  0  0  0  0  0  0  0  0  0
    7.2191  -14.6373   18.9141 C   0  0  0  0  0  0  0  0  0  0  0  0
    7.4477  -13.6390   17.8109 C   0  0  0  0  0  0  0  0  0  0  0  0
    6.5448  -12.9593   17.3079 O   0  0  0  0  0  0  0  0  0  0  0  0
    8.6400  -15.7029   21.8227 C   0  0  0  0  0  0  0  0  0  0  0  0
    9.8710  -15.4913   22.0794 O   0  0  0  0  0  0  0  0  0  0  0  0
    8.7548  -13.5068   17.3656 O   0  0  0  0  0  0  0  0  0  0  0  0
    7.7193  -15.4088   22.8652 N   0  0  0  0  0  0  0  0  0  0  0  0
    8.2275  -14.9077   24.1056 C   0  0  0  0  0  0  0  0  0  0  0  0
    8.6454  -15.9903   25.0334 C   0  0  0  0  0  0  0  0  0  0  0  0
    7.9087  -17.0047   25.2453 O   0  0  0  0  0  0  0  0  0  0  0  0
    9.8766  -15.9336   25.7148 N   0  0  0  0  0  0  0  0  0  0  0  0
   10.3481  -16.9651   26.6323 C   0  0  1  0  0  0  0  0  0  0  0  0
   11.5880  -17.6355   26.1232 C   0  0  0  0  0  0  0  0  0  0  0  0
   11.5754  -18.0080   24.6845 C   0  0  0  0  0  0  0  0  0  0  0  0
   12.7545  -18.7217   24.2055 C   0  0  0  0  0  0  0  0  0  0  0  0
   13.6848  -18.9621   25.0110 O   0  0  0  0  0  0  0  0  0  0  0  0
   10.4945  -16.4519   28.0064 C   0  0  0  0  0  0  0  0  0  0  0  0
   10.7838  -17.3609   29.0320 O   0  0  0  0  0  0  0  0  0  0  0  0
   12.9059  -19.1496   22.9083 O   0  0  0  0  0  0  0  0  0  0  0  0
   10.3796  -15.2571   28.3324 O   0  0  0  0  0  0  0  0  0  0  0  0
  2  1  1  1
  2  7  1  0
  2  3  1  0
  4  3  1  0
  4  5  1  0
  5  6  2  0
  7  8  2  0
  9  5  1  0
 10 11  1  0
 10  7  1  0
 11 12  1  0
 12 13  2  0
 12 14  1  0
 14 15  1  0
 15 16  1  6
 17 16  1  0
 17 18  1  0
 18 22  1  0
 18 19  2  0
 20 21  1  0
 20 15  1  0
 23 20  2  0
M  END
$$$$
