EGE.pdb
     RDKit          3D

 23 22  0  0  1  0  0  0  0  0999 V2000
    7.8894  -12.6837   17.9916 N   0  0  0  0  0  0  0  0  0  0  0  0
    8.3796  -13.9464   18.5928 C   0  0  1  0  0  0  0  0  0  0  0  0
    9.8678  -13.9311   18.3155 C   0  0  0  0  0  0  0  0  0  0  0  0
   10.3287  -15.2432   17.7870 C   0  0  0  0  0  0  0  0  0  0  0  0
   11.8136  -15.2492   17.5399 C   0  0  0  0  0  0  0  0  0  0  0  0
   12.6540  -15.3899   18.4367 O   0  0  0  0  0  0  0  0  0  0  0  0
    8.1612  -13.8613   20.0349 C   0  0  0  0  0  0  0  0  0  0  0  0
    8.3429  -12.7466   20.6269 O   0  0  0  0  0  0  0  0  0  0  0  0
   12.2160  -15.0852   16.2225 O   0  0  0  0  0  0  0  0  0  0  0  0
    7.7491  -14.9490   20.8523 N   0  0  0  0  0  0  0  0  0  0  0  0
    7.4917  -14.7040   22.2385 C   0  0  0  0  0  0  0  0  0  0  0  0
    8.5828  -15.1942   23.1198 C   0  0  0  0  0  0  0  0  0  0  0  0
    9.6543  -15.6831   22.6410 O   0  0  0  0  0  0  0  0  0  0  0  0
    8.4707  -15.1356   24.5225 N   0  0  0  0  0  0  0  0  0  0  0  0
    9.5081  -15.5897   25.4421 C   0  0  1  0  0  0  0  0  0  0  0  0
    9.2221  -15.1694   26.8519 C   0  0  0  0  0  0  0  0  0  0  0  0
   10.2036  -15.6226   27.8718 C   0  0  0  0  0  0  0  0  0  0  0  0
   10.4414  -14.6984   28.9756 C   0  0  0  0  0  0  0  0  0  0  0  0
    9.7376  -13.6642   29.0608 O   0  0  0  0  0  0  0  0  0  0  0  0
    9.7608  -17.0362   25.3132 C   0  0  0  0  0  0  0  0  0  0  0  0
   11.0708  -17.5033   25.4793 O   0  0  0  0  0  0  0  0  0  0  0  0
   11.4030  -14.8979   29.9370 O   0  0  0  0  0  0  0  0  0  0  0  0
    8.8893  -17.8882   25.0647 O   0  0  0  0  0  0  0  0  0  0  0  0
  2  1  1  6
  2  7  1  0
  2  3  1  0
  4  3  1  0
  4  5  1  0
  5  6  2  0
  7  8  2  0
  9  5  1  0
 10 11  1  0
 10  7  1  0
 11 12  1  0
 12 13  2  0
 12 14  1  0
 14 15  1  0
 15 16  1  1
 17 16  1  0
 17 18  1  0
 18 22  1  0
 18 19  2  0
 20 21  1  0
 20 15  1  0
 23 20  2  0
M  END
$$$$
