EGE.pdb
     RDKit          3D

 23 22  0  0  1  0  0  0  0  0999 V2000
   11.1771  -13.9015   19.0914 N   0  0  0  0  0  0  0  0  0  0  0  0
   11.3577  -15.3692   19.1869 C   0  0  1  0  0  0  0  0  0  0  0  0
   12.8589  -15.5499   19.2621 C   0  0  0  0  0  0  0  0  0  0  0  0
   13.5699  -14.3873   18.6651 C   0  0  0  0  0  0  0  0  0  0  0  0
   15.0637  -14.5652   18.7193 C   0  0  0  0  0  0  0  0  0  0  0  0
   15.6310  -15.3366   19.5026 O   0  0  0  0  0  0  0  0  0  0  0  0
   10.7601  -15.8053   20.4469 C   0  0  0  0  0  0  0  0  0  0  0  0
   10.6881  -17.0525   20.7024 O   0  0  0  0  0  0  0  0  0  0  0  0
   15.8039  -13.8045   17.8263 O   0  0  0  0  0  0  0  0  0  0  0  0
   10.2412  -14.9281   21.4380 N   0  0  0  0  0  0  0  0  0  0  0  0
    9.7103  -15.4927   22.6411 C   0  0  0  0  0  0  0  0  0  0  0  0
   10.7699  -15.9040   23.5978 C   0  0  0  0  0  0  0  0  0  0  0  0
   11.9981  -15.6662   23.3712 O   0  0  0  0  0  0  0  0  0  0  0  0
   10.4527  -16.5746   24.7950 N   0  0  0  0  0  0  0  0  0  0  0  0
   11.4349  -16.9341   25.8120 C   0  0  1  0  0  0  0  0  0  0  0  0
   11.1103  -16.3175   27.1388 C   0  0  0  0  0  0  0  0  0  0  0  0
   10.3573  -15.0371   27.0880 C   0  0  0  0  0  0  0  0  0  0  0  0
   10.0754  -14.4173   28.3786 C   0  0  0  0  0  0  0  0  0  0  0  0
    9.5060  -13.3004   28.4017 O   0  0  0  0  0  0  0  0  0  0  0  0
   11.6361  -18.3923   25.8892 C   0  0  0  0  0  0  0  0  0  0  0  0
   10.6501  -19.2322   25.3562 O   0  0  0  0  0  0  0  0  0  0  0  0
   10.4022  -14.9930   29.5829 O   0  0  0  0  0  0  0  0  0  0  0  0
   12.6276  -18.9447   26.3982 O   0  0  0  0  0  0  0  0  0  0  0  0
  2  1  1  1
  2  7  1  0
  2  3  1  0
  4  3  1  0
  4  5  1  0
  5  6  2  0
  7  8  2  0
  9  5  1  0
 10 11  1  0
 10  7  1  0
 11 12  1  0
 12 13  2  0
 12 14  1  0
 14 15  1  0
 15 16  1  1
 17 16  1  0
 17 18  1  0
 18 22  1  0
 18 19  2  0
 20 21  1  0
 20 15  1  0
 23 20  2  0
M  END
$$$$
