EGE.pdb
     RDKit          3D

 23 22  0  0  1  0  0  0  0  0999 V2000
   11.3743  -19.7042   20.1542 N   0  0  0  0  0  0  0  0  0  0  0  0
   11.7967  -18.2838   20.1525 C   0  0  1  0  0  0  0  0  0  0  0  0
   11.2505  -17.7403   18.8494 C   0  0  0  0  0  0  0  0  0  0  0  0
   10.7069  -18.8327   17.9982 C   0  0  0  0  0  0  0  0  0  0  0  0
   10.0802  -18.2939   16.7400 C   0  0  0  0  0  0  0  0  0  0  0  0
    8.8585  -18.2513   16.5504 O   0  0  0  0  0  0  0  0  0  0  0  0
   11.1215  -17.6223   21.2667 C   0  0  0  0  0  0  0  0  0  0  0  0
   11.3105  -16.3756   21.4567 O   0  0  0  0  0  0  0  0  0  0  0  0
   10.9562  -17.8315   15.7690 O   0  0  0  0  0  0  0  0  0  0  0  0
   10.2460  -18.2731   22.1782 N   0  0  0  0  0  0  0  0  0  0  0  0
    9.6541  -17.5011   23.2279 C   0  0  0  0  0  0  0  0  0  0  0  0
   10.5133  -17.4238   24.4374 C   0  0  0  0  0  0  0  0  0  0  0  0
   11.6862  -17.9145   24.4515 O   0  0  0  0  0  0  0  0  0  0  0  0
   10.0597  -16.8025   25.6171 N   0  0  0  0  0  0  0  0  0  0  0  0
   10.8688  -16.6527   26.8218 C   0  0  1  0  0  0  0  0  0  0  0  0
   10.3312  -15.5812   27.7212 C   0  0  0  0  0  0  0  0  0  0  0  0
    9.7334  -14.4049   27.0371 C   0  0  0  0  0  0  0  0  0  0  0  0
    9.1660  -13.3849   27.9127 C   0  0  0  0  0  0  0  0  0  0  0  0
    9.2070  -13.5617   29.1533 O   0  0  0  0  0  0  0  0  0  0  0  0
   11.0660  -17.9392   27.5138 C   0  0  0  0  0  0  0  0  0  0  0  0
   12.0665  -18.0264   28.4901 O   0  0  0  0  0  0  0  0  0  0  0  0
    8.5823  -12.2296   27.4508 O   0  0  0  0  0  0  0  0  0  0  0  0
   10.4041  -18.9695   27.2961 O   0  0  0  0  0  0  0  0  0  0  0  0
  2  1  1  6
  2  7  1  0
  2  3  1  0
  4  3  1  0
  4  5  1  0
  5  6  2  0
  7  8  2  0
  9  5  1  0
 10 11  1  0
 10  7  1  0
 11 12  1  0
 12 13  2  0
 12 14  1  0
 14 15  1  0
 15 16  1  1
 17 16  1  0
 17 18  1  0
 18 22  1  0
 18 19  2  0
 20 21  1  0
 20 15  1  0
 23 20  2  0
M  END
$$$$
