EGE.pdb
     RDKit          3D

 23 22  0  0  1  0  0  0  0  0999 V2000
    8.3516  -12.7261   18.4506 N   0  0  0  0  0  0  0  0  0  0  0  0
    7.4622  -13.7098   19.1120 C   0  0  1  0  0  0  0  0  0  0  0  0
    7.7765  -15.0158   18.4139 C   0  0  0  0  0  0  0  0  0  0  0  0
    7.7086  -14.8639   16.9354 C   0  0  0  0  0  0  0  0  0  0  0  0
    8.8849  -15.5145   16.2579 C   0  0  0  0  0  0  0  0  0  0  0  0
    9.8277  -16.0283   16.8723 O   0  0  0  0  0  0  0  0  0  0  0  0
    7.8735  -13.8044   20.5108 C   0  0  0  0  0  0  0  0  0  0  0  0
    9.0727  -13.5087   20.8279 O   0  0  0  0  0  0  0  0  0  0  0  0
    8.8696  -15.5150   14.8709 O   0  0  0  0  0  0  0  0  0  0  0  0
    7.0215  -14.2077   21.5749 N   0  0  0  0  0  0  0  0  0  0  0  0
    7.5433  -14.2054   22.9075 C   0  0  0  0  0  0  0  0  0  0  0  0
    8.2456  -15.4689   23.2506 C   0  0  0  0  0  0  0  0  0  0  0  0
    7.8020  -16.5990   22.8732 O   0  0  0  0  0  0  0  0  0  0  0  0
    9.4324  -15.4622   24.0088 N   0  0  0  0  0  0  0  0  0  0  0  0
   10.1284  -16.6685   24.4430 C   0  0  1  0  0  0  0  0  0  0  0  0
   11.6125  -16.5431   24.2756 C   0  0  0  0  0  0  0  0  0  0  0  0
   12.0902  -16.3500   22.8815 C   0  0  0  0  0  0  0  0  0  0  0  0
   13.5380  -16.2819   22.7126 C   0  0  0  0  0  0  0  0  0  0  0  0
   14.2616  -17.0620   23.3758 O   0  0  0  0  0  0  0  0  0  0  0  0
    9.7351  -17.0684   25.8061 C   0  0  0  0  0  0  0  0  0  0  0  0
   10.1425  -18.3226   26.2784 O   0  0  0  0  0  0  0  0  0  0  0  0
   14.1606  -15.4020   21.8601 O   0  0  0  0  0  0  0  0  0  0  0  0
    9.0596  -16.3697   26.5823 O   0  0  0  0  0  0  0  0  0  0  0  0
  2  1  1  6
  2  7  1  0
  2  3  1  0
  4  3  1  0
  4  5  1  0
  5  6  2  0
  7  8  2  0
  9  5  1  0
 10 11  1  0
 10  7  1  0
 11 12  1  0
 12 13  2  0
 12 14  1  0
 14 15  1  0
 15 16  1  1
 17 16  1  0
 17 18  1  0
 18 22  1  0
 18 19  2  0
 20 21  1  0
 20 15  1  0
 23 20  2  0
M  END
$$$$
