EGE.pdb
     RDKit          3D

 23 22  0  0  1  0  0  0  0  0999 V2000
    8.9227  -18.9553   18.4190 N   0  0  0  0  0  0  0  0  0  0  0  0
    8.9586  -17.4821   18.5746 C   0  0  1  0  0  0  0  0  0  0  0  0
    8.1328  -16.9705   17.4135 C   0  0  0  0  0  0  0  0  0  0  0  0
    8.9426  -16.9037   16.1672 C   0  0  0  0  0  0  0  0  0  0  0  0
    8.1451  -17.3349   14.9656 C   0  0  0  0  0  0  0  0  0  0  0  0
    6.9528  -17.6604   15.0190 O   0  0  0  0  0  0  0  0  0  0  0  0
    8.2787  -17.1547   19.8257 C   0  0  0  0  0  0  0  0  0  0  0  0
    7.0335  -17.4047   19.9407 O   0  0  0  0  0  0  0  0  0  0  0  0
    8.8226  -17.3535   13.7553 O   0  0  0  0  0  0  0  0  0  0  0  0
    8.9104  -16.5670   20.9554 N   0  0  0  0  0  0  0  0  0  0  0  0
    8.1244  -16.3140   22.1243 C   0  0  0  0  0  0  0  0  0  0  0  0
    8.8607  -15.5349   23.1530 C   0  0  0  0  0  0  0  0  0  0  0  0
   10.0705  -15.1841   22.9807 O   0  0  0  0  0  0  0  0  0  0  0  0
    8.2444  -15.1546   24.3609 N   0  0  0  0  0  0  0  0  0  0  0  0
    8.9202  -14.4179   25.4234 C   0  0  1  0  0  0  0  0  0  0  0  0
    7.9612  -13.5808   26.2143 C   0  0  0  0  0  0  0  0  0  0  0  0
    6.8858  -12.9182   25.4312 C   0  0  0  0  0  0  0  0  0  0  0  0
    5.9694  -12.0805   26.1977 C   0  0  0  0  0  0  0  0  0  0  0  0
    6.4040  -11.0236   26.7136 O   0  0  0  0  0  0  0  0  0  0  0  0
    9.7425  -15.3033   26.2676 C   0  0  0  0  0  0  0  0  0  0  0  0
   10.6956  -16.1216   25.6480 O   0  0  0  0  0  0  0  0  0  0  0  0
    4.6435  -12.3869   26.3894 O   0  0  0  0  0  0  0  0  0  0  0  0
    9.6557  -15.3827   27.5058 O   0  0  0  0  0  0  0  0  0  0  0  0
  2  1  1  6
  2  7  1  0
  2  3  1  0
  4  3  1  0
  4  5  1  0
  5  6  2  0
  7  8  2  0
  9  5  1  0
 10 11  1  0
 10  7  1  0
 11 12  1  0
 12 13  2  0
 12 14  1  0
 14 15  1  0
 15 16  1  1
 17 16  1  0
 17 18  1  0
 18 22  1  0
 18 19  2  0
 20 21  1  0
 20 15  1  0
 23 20  2  0
M  END
$$$$
