EGE.pdb
     RDKit          3D

 23 22  0  0  1  0  0  0  0  0999 V2000
   12.1216  -18.7558   20.4315 N   0  0  0  0  0  0  0  0  0  0  0  0
   11.6565  -17.3516   20.5208 C   0  0  1  0  0  0  0  0  0  0  0  0
   10.6599  -17.2227   19.3886 C   0  0  0  0  0  0  0  0  0  0  0  0
   10.7812  -18.3581   18.4349 C   0  0  0  0  0  0  0  0  0  0  0  0
    9.7326  -18.2897   17.3571 C   0  0  0  0  0  0  0  0  0  0  0  0
    9.9966  -18.2672   16.1488 O   0  0  0  0  0  0  0  0  0  0  0  0
   10.9557  -17.2001   21.7939 C   0  0  0  0  0  0  0  0  0  0  0  0
   10.4867  -16.0582   22.1137 O   0  0  0  0  0  0  0  0  0  0  0  0
    8.4142  -18.2516   17.7867 O   0  0  0  0  0  0  0  0  0  0  0  0
   10.7470  -18.2512   22.7281 N   0  0  0  0  0  0  0  0  0  0  0  0
    9.9743  -17.9800   23.9018 C   0  0  0  0  0  0  0  0  0  0  0  0
   10.7572  -17.2845   24.9557 C   0  0  0  0  0  0  0  0  0  0  0  0
   12.0193  -17.1563   24.8700 O   0  0  0  0  0  0  0  0  0  0  0  0
   10.1291  -16.7398   26.0925 N   0  0  0  0  0  0  0  0  0  0  0  0
   10.8401  -16.0528   27.1652 C   0  0  1  0  0  0  0  0  0  0  0  0
   10.2654  -14.6944   27.4303 C   0  0  0  0  0  0  0  0  0  0  0  0
    8.8431  -14.5086   27.0409 C   0  0  0  0  0  0  0  0  0  0  0  0
    8.2611  -13.2119   27.3709 C   0  0  0  0  0  0  0  0  0  0  0  0
    8.9563  -12.3792   27.9998 O   0  0  0  0  0  0  0  0  0  0  0  0
   10.9367  -16.8834   28.3792 C   0  0  0  0  0  0  0  0  0  0  0  0
   10.2258  -18.0894   28.4221 O   0  0  0  0  0  0  0  0  0  0  0  0
    6.9809  -12.8471   27.0290 O   0  0  0  0  0  0  0  0  0  0  0  0
   11.6100  -16.5936   29.3841 O   0  0  0  0  0  0  0  0  0  0  0  0
  2  1  1  1
  2  7  1  0
  2  3  1  0
  4  3  1  0
  4  5  1  0
  5  6  2  0
  7  8  2  0
  9  5  1  0
 10 11  1  0
 10  7  1  0
 11 12  1  0
 12 13  2  0
 12 14  1  0
 14 15  1  0
 15 16  1  1
 17 16  1  0
 17 18  1  0
 18 22  1  0
 18 19  2  0
 20 21  1  0
 20 15  1  0
 23 20  2  0
M  END
$$$$
