CEW.pdb
     RDKit          3D

 30 31  0  0  1  0  0  0  0  0999 V2000
   25.2113  -16.9796  -16.8411 N   0  0  0  0  0  0  0  0  0  0  0  0
   25.0681  -15.7887  -15.9689 C   0  0  1  0  0  0  0  0  0  0  0  0
   26.4366  -15.2621  -15.7406 C   0  0  0  0  0  0  0  0  0  0  0  0
   27.2801  -16.0688  -14.3659 S   0  0  0  0  0  0  0  0  0  0  0  0
   24.1104  -14.9202  -16.6453 C   0  0  0  0  0  0  0  0  0  0  0  0
   24.2419  -14.6882  -17.9024 O   0  0  0  0  0  0  0  0  0  0  0  0
   22.9963  -14.2777  -16.0341 N   0  0  0  0  0  0  0  0  0  0  0  0
   22.1513  -13.3539  -16.8219 C   0  0  1  0  0  0  0  0  0  0  0  0
   20.7633  -13.9243  -16.7089 C   0  0  0  0  0  0  0  0  0  0  0  0
   20.2705  -14.1464  -15.3259 C   0  0  0  0  0  0  0  0  0  0  0  0
   18.8999  -14.6784  -15.3233 C   0  0  0  0  0  0  0  0  0  0  0  0
   18.5606  -15.8776  -15.3978 O   0  0  0  0  0  0  0  0  0  0  0  0
   22.2566  -11.9946  -16.2642 C   0  0  0  0  0  0  0  0  0  0  0  0
   22.7381  -11.7717  -15.1005 O   0  0  0  0  0  0  0  0  0  0  0  0
   17.8660  -13.7417  -15.2270 O   0  0  0  0  0  0  0  0  0  0  0  0
   21.8087  -10.8974  -17.0425 N   0  0  0  0  0  0  0  0  0  0  0  0
   21.9844   -9.5401  -16.6043 C   0  0  1  0  0  0  0  0  0  0  0  0
   23.4294   -9.2873  -16.3095 C   0  0  0  0  0  0  0  0  0  0  0  0
   23.7124   -7.8694  -15.9820 C   0  0  0  0  0  0  0  0  0  0  0  0
   24.6708   -7.0560  -16.5568 C   0  0  0  0  0  0  0  0  0  0  0  0
   24.5655   -5.8667  -15.9554 N   0  0  0  0  0  0  0  0  0  0  0  0
   23.5954   -5.8643  -15.0257 C   0  0  0  0  0  0  0  0  0  0  0  0
   23.1218   -4.8869  -14.1605 C   0  0  0  0  0  0  0  0  0  0  0  0
   22.0981   -5.2005  -13.3123 C   0  0  0  0  0  0  0  0  0  0  0  0
   21.5326   -6.4538  -13.2986 C   0  0  0  0  0  0  0  0  0  0  0  0
   22.0006   -7.4158  -14.1521 C   0  0  0  0  0  0  0  0  0  0  0  0
   23.0312   -7.1206  -15.0146 C   0  0  0  0  0  0  0  0  0  0  0  0
   21.4192   -8.5561  -17.5620 C   0  0  0  0  0  0  0  0  0  0  0  0
   20.6031   -7.4962  -17.1750 O   0  0  0  0  0  0  0  0  0  0  0  0
   21.6574   -8.6363  -18.7955 O   0  0  0  0  0  0  0  0  0  0  0  0
  2  5  1  0
  2  1  1  6
  3  2  1  0
  4  3  1  0
  5  6  2  0
  7  8  1  0
  7  5  1  0
  8  9  1  1
  9 10  1  0
 10 11  1  0
 11 15  1  0
 11 12  2  0
 13  8  1  0
 14 13  2  0
 16 13  1  0
 17 18  1  6
 17 16  1  0
 19 18  1  0
 20 19  2  0
 21 20  1  0
 22 21  1  0
 22 27  2  0
 23 22  1  0
 24 23  2  0
 24 25  1  0
 25 26  2  0
 26 27  1  0
 27 19  1  0
 28 17  1  0
 28 29  1  0
 30 28  2  0
M  END
$$$$
