CEW.pdb
     RDKit          3D

 30 31  0  0  1  0  0  0  0  0999 V2000
   24.4825  -16.7942  -17.2095 N   0  0  0  0  0  0  0  0  0  0  0  0
   24.7661  -17.1131  -15.7891 C   0  0  1  0  0  0  0  0  0  0  0  0
   23.6660  -16.5163  -14.9917 C   0  0  0  0  0  0  0  0  0  0  0  0
   23.7892  -14.7224  -14.8560 S   0  0  0  0  0  0  0  0  0  0  0  0
   24.9330  -18.5617  -15.7383 C   0  0  0  0  0  0  0  0  0  0  0  0
   24.0836  -19.3196  -16.3345 O   0  0  0  0  0  0  0  0  0  0  0  0
   25.9843  -19.2536  -15.0722 N   0  0  0  0  0  0  0  0  0  0  0  0
   26.0224  -20.7322  -15.0866 C   0  0  1  0  0  0  0  0  0  0  0  0
   27.4363  -21.0687  -15.4768 C   0  0  0  0  0  0  0  0  0  0  0  0
   27.7175  -22.5108  -15.6921 C   0  0  0  0  0  0  0  0  0  0  0  0
   29.0948  -22.7251  -16.1599 C   0  0  0  0  0  0  0  0  0  0  0  0
   29.9420  -21.8473  -16.4255 O   0  0  0  0  0  0  0  0  0  0  0  0
   25.6605  -21.2463  -13.7545 C   0  0  0  0  0  0  0  0  0  0  0  0
   25.6138  -22.4984  -13.4976 O   0  0  0  0  0  0  0  0  0  0  0  0
   29.4993  -24.0535  -16.3248 O   0  0  0  0  0  0  0  0  0  0  0  0
   25.3529  -20.3230  -12.7233 N   0  0  0  0  0  0  0  0  0  0  0  0
   24.8983  -20.7587  -11.4316 C   0  0  1  0  0  0  0  0  0  0  0  0
   25.6575  -20.0412  -10.3603 C   0  0  0  0  0  0  0  0  0  0  0  0
   26.9123  -20.7330   -9.9798 C   0  0  0  0  0  0  0  0  0  0  0  0
   27.7115  -21.5165  -10.7908 C   0  0  0  0  0  0  0  0  0  0  0  0
   28.7302  -21.9296  -10.0300 N   0  0  0  0  0  0  0  0  0  0  0  0
   28.6357  -21.4590   -8.7750 C   0  0  0  0  0  0  0  0  0  0  0  0
   29.4342  -21.6105   -7.6491 C   0  0  0  0  0  0  0  0  0  0  0  0
   29.0608  -20.9905   -6.4907 C   0  0  0  0  0  0  0  0  0  0  0  0
   27.9199  -20.2264   -6.4184 C   0  0  0  0  0  0  0  0  0  0  0  0
   27.1342  -20.0781   -7.5290 C   0  0  0  0  0  0  0  0  0  0  0  0
   27.4924  -20.6942   -8.7060 C   0  0  0  0  0  0  0  0  0  0  0  0
   23.4280  -20.6262  -11.2720 C   0  0  0  0  0  0  0  0  0  0  0  0
   22.7482  -21.0049  -10.1172 O   0  0  0  0  0  0  0  0  0  0  0  0
   22.7123  -20.1545  -12.1941 O   0  0  0  0  0  0  0  0  0  0  0  0
  2  5  1  0
  2  1  1  6
  3  2  1  0
  4  3  1  0
  5  6  2  0
  7  8  1  0
  7  5  1  0
  8  9  1  1
  9 10  1  0
 10 11  1  0
 11 15  1  0
 11 12  2  0
 13  8  1  0
 14 13  2  0
 16 13  1  0
 17 18  1  1
 17 16  1  0
 19 18  1  0
 20 19  2  0
 21 20  1  0
 22 21  1  0
 22 27  2  0
 23 22  1  0
 24 23  2  0
 24 25  1  0
 25 26  2  0
 26 27  1  0
 27 19  1  0
 28 17  1  0
 28 29  1  0
 30 28  2  0
M  END
$$$$
