CEW.pdb
     RDKit          3D

 30 31  0  0  1  0  0  0  0  0999 V2000
   28.2060  -21.4010  -16.7363 N   0  0  0  0  0  0  0  0  0  0  0  0
   28.8624  -20.1482  -16.2902 C   0  0  1  0  0  0  0  0  0  0  0  0
   29.1478  -19.3589  -17.5141 C   0  0  0  0  0  0  0  0  0  0  0  0
   29.9274  -17.7717  -17.1611 S   0  0  0  0  0  0  0  0  0  0  0  0
   27.9626  -19.5650  -15.3006 C   0  0  0  0  0  0  0  0  0  0  0  0
   28.3785  -18.6076  -14.5512 O   0  0  0  0  0  0  0  0  0  0  0  0
   26.6140  -19.9595  -15.0700 N   0  0  0  0  0  0  0  0  0  0  0  0
   25.7880  -19.2296  -14.0836 C   0  0  1  0  0  0  0  0  0  0  0  0
   24.8417  -18.4095  -14.9181 C   0  0  0  0  0  0  0  0  0  0  0  0
   23.5347  -19.0463  -15.2205 C   0  0  0  0  0  0  0  0  0  0  0  0
   23.3223  -19.1742  -16.6697 C   0  0  0  0  0  0  0  0  0  0  0  0
   22.8796  -20.1707  -17.2778 O   0  0  0  0  0  0  0  0  0  0  0  0
   25.0926  -20.1946  -13.2146 C   0  0  0  0  0  0  0  0  0  0  0  0
   24.5292  -21.2451  -13.6781 O   0  0  0  0  0  0  0  0  0  0  0  0
   23.6509  -18.0614  -17.4502 O   0  0  0  0  0  0  0  0  0  0  0  0
   25.0454  -19.9505  -11.8187 N   0  0  0  0  0  0  0  0  0  0  0  0
   24.4063  -20.8660  -10.9141 C   0  0  1  0  0  0  0  0  0  0  0  0
   24.8782  -20.6088   -9.5177 C   0  0  0  0  0  0  0  0  0  0  0  0
   26.3523  -20.6898   -9.3822 C   0  0  0  0  0  0  0  0  0  0  0  0
   27.2406  -21.2696  -10.2683 C   0  0  0  0  0  0  0  0  0  0  0  0
   28.4584  -21.1075   -9.7413 N   0  0  0  0  0  0  0  0  0  0  0  0
   28.4088  -20.4571   -8.5666 C   0  0  0  0  0  0  0  0  0  0  0  0
   29.3890  -20.0645   -7.6648 C   0  0  0  0  0  0  0  0  0  0  0  0
   29.0114  -19.4025   -6.5312 C   0  0  0  0  0  0  0  0  0  0  0  0
   27.6917  -19.1200   -6.2681 C   0  0  0  0  0  0  0  0  0  0  0  0
   26.7271  -19.5076   -7.1581 C   0  0  0  0  0  0  0  0  0  0  0  0
   27.0861  -20.1756   -8.3062 C   0  0  0  0  0  0  0  0  0  0  0  0
   22.9261  -20.8375  -11.0280 C   0  0  0  0  0  0  0  0  0  0  0  0
   22.0920  -21.7347  -10.3660 O   0  0  0  0  0  0  0  0  0  0  0  0
   22.3440  -19.9813  -11.7443 O   0  0  0  0  0  0  0  0  0  0  0  0
  2  5  1  0
  2  1  1  6
  3  2  1  0
  4  3  1  0
  5  6  2  0
  7  8  1  0
  7  5  1  0
  8  9  1  6
  9 10  1  0
 10 11  1  0
 11 15  1  0
 11 12  2  0
 13  8  1  0
 14 13  2  0
 16 13  1  0
 17 18  1  1
 17 16  1  0
 19 18  1  0
 20 19  2  0
 21 20  1  0
 22 21  1  0
 22 27  2  0
 23 22  1  0
 24 23  2  0
 24 25  1  0
 25 26  2  0
 26 27  1  0
 27 19  1  0
 28 17  1  0
 28 29  1  0
 30 28  2  0
M  END
$$$$
