CEW.pdb
     RDKit          3D

 30 31  0  0  1  0  0  0  0  0999 V2000
   26.5180  -14.5655  -18.2310 N   0  0  0  0  0  0  0  0  0  0  0  0
   25.6527  -14.4112  -17.0364 C   0  0  1  0  0  0  0  0  0  0  0  0
   26.5190  -13.8943  -15.9481 C   0  0  0  0  0  0  0  0  0  0  0  0
   27.6428  -15.1422  -15.2912 S   0  0  0  0  0  0  0  0  0  0  0  0
   24.5342  -13.5791  -17.4672 C   0  0  0  0  0  0  0  0  0  0  0  0
   24.7236  -12.6738  -18.3593 O   0  0  0  0  0  0  0  0  0  0  0  0
   23.1975  -13.6704  -16.9852 N   0  0  0  0  0  0  0  0  0  0  0  0
   22.1565  -12.7627  -17.5148 C   0  0  1  0  0  0  0  0  0  0  0  0
   20.9076  -13.6015  -17.5496 C   0  0  0  0  0  0  0  0  0  0  0  0
   19.6670  -12.8906  -17.9500 C   0  0  0  0  0  0  0  0  0  0  0  0
   18.4963  -13.7781  -17.8896 C   0  0  0  0  0  0  0  0  0  0  0  0
   17.4167  -13.5566  -17.3029 O   0  0  0  0  0  0  0  0  0  0  0  0
   22.0315  -11.5899  -16.6323 C   0  0  0  0  0  0  0  0  0  0  0  0
   21.9658  -11.6995  -15.3597 O   0  0  0  0  0  0  0  0  0  0  0  0
   18.6032  -15.0002  -18.5606 O   0  0  0  0  0  0  0  0  0  0  0  0
   21.9816  -10.2972  -17.2125 N   0  0  0  0  0  0  0  0  0  0  0  0
   21.8729   -9.1123  -16.4067 C   0  0  1  0  0  0  0  0  0  0  0  0
   23.2180   -8.7451  -15.8640 C   0  0  0  0  0  0  0  0  0  0  0  0
   23.2394   -7.4039  -15.2325 C   0  0  0  0  0  0  0  0  0  0  0  0
   22.6167   -7.0252  -14.0581 C   0  0  0  0  0  0  0  0  0  0  0  0
   22.9082   -5.7331  -13.8768 N   0  0  0  0  0  0  0  0  0  0  0  0
   23.6825   -5.2551  -14.8654 C   0  0  0  0  0  0  0  0  0  0  0  0
   24.2308   -4.0033  -15.1114 C   0  0  0  0  0  0  0  0  0  0  0  0
   24.9926   -3.8284  -16.2316 C   0  0  0  0  0  0  0  0  0  0  0  0
   25.2250   -4.8585  -17.1123 C   0  0  0  0  0  0  0  0  0  0  0  0
   24.6839   -6.0916  -16.8682 C   0  0  0  0  0  0  0  0  0  0  0  0
   23.9134   -6.2890  -15.7455 C   0  0  0  0  0  0  0  0  0  0  0  0
   21.2267   -7.9891  -17.1318 C   0  0  0  0  0  0  0  0  0  0  0  0
   20.3595   -7.0856  -16.5228 O   0  0  0  0  0  0  0  0  0  0  0  0
   21.4380   -7.7976  -18.3579 O   0  0  0  0  0  0  0  0  0  0  0  0
  2  5  1  0
  2  1  1  6
  3  2  1  0
  4  3  1  0
  5  6  2  0
  7  8  1  0
  7  5  1  0
  8  9  1  1
  9 10  1  0
 10 11  1  0
 11 15  1  0
 11 12  2  0
 13  8  1  0
 14 13  2  0
 16 13  1  0
 17 18  1  6
 17 16  1  0
 19 18  1  0
 20 19  2  0
 21 20  1  0
 22 21  1  0
 22 27  2  0
 23 22  1  0
 24 23  2  0
 24 25  1  0
 25 26  2  0
 26 27  1  0
 27 19  1  0
 28 17  1  0
 28 29  1  0
 30 28  2  0
M  END
$$$$
