CEW.pdb
     RDKit          3D

 30 31  0  0  1  0  0  0  0  0999 V2000
   28.8793  -21.3130   -8.6147 N   0  0  0  0  0  0  0  0  0  0  0  0
   27.6328  -20.5143   -8.5266 C   0  0  1  0  0  0  0  0  0  0  0  0
   28.0442  -19.1114   -8.2718 C   0  0  0  0  0  0  0  0  0  0  0  0
   27.1419  -18.3508   -6.9083 S   0  0  0  0  0  0  0  0  0  0  0  0
   26.9000  -20.7943   -9.7569 C   0  0  0  0  0  0  0  0  0  0  0  0
   27.5475  -21.0592  -10.8348 O   0  0  0  0  0  0  0  0  0  0  0  0
   25.4828  -20.8085   -9.8942 N   0  0  0  0  0  0  0  0  0  0  0  0
   24.8675  -21.2314  -11.1712 C   0  0  1  0  0  0  0  0  0  0  0  0
   23.4498  -21.5819  -10.8082 C   0  0  0  0  0  0  0  0  0  0  0  0
   22.4590  -20.4857  -10.9555 C   0  0  0  0  0  0  0  0  0  0  0  0
   21.0932  -20.9560  -10.6812 C   0  0  0  0  0  0  0  0  0  0  0  0
   20.6863  -21.5117   -9.6397 O   0  0  0  0  0  0  0  0  0  0  0  0
   24.9512  -20.1300  -12.1458 C   0  0  0  0  0  0  0  0  0  0  0  0
   24.9893  -18.9034  -11.7853 O   0  0  0  0  0  0  0  0  0  0  0  0
   20.1494  -20.7601  -11.6941 O   0  0  0  0  0  0  0  0  0  0  0  0
   24.9898  -20.4396  -13.5289 N   0  0  0  0  0  0  0  0  0  0  0  0
   24.9959  -19.4109  -14.5322 C   0  0  1  0  0  0  0  0  0  0  0  0
   25.9602  -19.7700  -15.6184 C   0  0  0  0  0  0  0  0  0  0  0  0
   26.0034  -18.7653  -16.7077 C   0  0  0  0  0  0  0  0  0  0  0  0
   26.6486  -17.5431  -16.6898 C   0  0  0  0  0  0  0  0  0  0  0  0
   26.4193  -16.9784  -17.8797 N   0  0  0  0  0  0  0  0  0  0  0  0
   25.6637  -17.7643  -18.6651 C   0  0  0  0  0  0  0  0  0  0  0  0
   25.1735  -17.6144  -19.9556 C   0  0  0  0  0  0  0  0  0  0  0  0
   24.4150  -18.6165  -20.4907 C   0  0  0  0  0  0  0  0  0  0  0  0
   24.1301  -19.7603  -19.7828 C   0  0  0  0  0  0  0  0  0  0  0  0
   24.6141  -19.9064  -18.5111 C   0  0  0  0  0  0  0  0  0  0  0  0
   25.3802  -18.9088  -17.9533 C   0  0  0  0  0  0  0  0  0  0  0  0
   23.6368  -19.1171  -15.0533 C   0  0  0  0  0  0  0  0  0  0  0  0
   23.2665  -17.8751  -15.5628 O   0  0  0  0  0  0  0  0  0  0  0  0
   22.7367  -19.9971  -15.0587 O   0  0  0  0  0  0  0  0  0  0  0  0
  2  5  1  0
  2  1  1  6
  3  2  1  0
  4  3  1  0
  5  6  2  0
  7  8  1  0
  7  5  1  0
  8  9  1  1
  9 10  1  0
 10 11  1  0
 11 15  1  0
 11 12  2  0
 13  8  1  0
 14 13  2  0
 16 13  1  0
 17 18  1  6
 17 16  1  0
 19 18  1  0
 20 19  2  0
 21 20  1  0
 22 21  1  0
 22 27  2  0
 23 22  1  0
 24 23  2  0
 24 25  1  0
 25 26  2  0
 26 27  1  0
 27 19  1  0
 28 17  1  0
 28 29  1  0
 30 28  2  0
M  END
$$$$
