CEW.pdb
     RDKit          3D

 30 31  0  0  1  0  0  0  0  0999 V2000
   25.3913  -21.3800  -20.4781 N   0  0  0  0  0  0  0  0  0  0  0  0
   24.3879  -22.1742  -19.7286 C   0  0  1  0  0  0  0  0  0  0  0  0
   25.1099  -23.3350  -19.1510 C   0  0  0  0  0  0  0  0  0  0  0  0
   25.5409  -24.5789  -20.3833 S   0  0  0  0  0  0  0  0  0  0  0  0
   23.7580  -21.2377  -18.8038 C   0  0  0  0  0  0  0  0  0  0  0  0
   24.4329  -20.2426  -18.3507 O   0  0  0  0  0  0  0  0  0  0  0  0
   22.4162  -21.3116  -18.3329 N   0  0  0  0  0  0  0  0  0  0  0  0
   21.8883  -20.2610  -17.4353 C   0  0  1  0  0  0  0  0  0  0  0  0
   20.6500  -19.7606  -18.1287 C   0  0  0  0  0  0  0  0  0  0  0  0
   20.8508  -18.6213  -19.0596 C   0  0  0  0  0  0  0  0  0  0  0  0
   21.0986  -17.3691  -18.3300 C   0  0  0  0  0  0  0  0  0  0  0  0
   22.2064  -16.8394  -18.1039 O   0  0  0  0  0  0  0  0  0  0  0  0
   21.6054  -20.8419  -16.1115 C   0  0  0  0  0  0  0  0  0  0  0  0
   21.3773  -22.0900  -15.9504 O   0  0  0  0  0  0  0  0  0  0  0  0
   19.9742  -16.7000  -17.8368 O   0  0  0  0  0  0  0  0  0  0  0  0
   21.5845  -19.9894  -14.9788 N   0  0  0  0  0  0  0  0  0  0  0  0
   21.3793  -20.5024  -13.6522 C   0  0  1  0  0  0  0  0  0  0  0  0
   22.6621  -21.0617  -13.1227 C   0  0  0  0  0  0  0  0  0  0  0  0
   22.6484  -21.2452  -11.6516 C   0  0  0  0  0  0  0  0  0  0  0  0
   21.5877  -21.6707  -10.8742 C   0  0  0  0  0  0  0  0  0  0  0  0
   22.0287  -21.6881   -9.6123 N   0  0  0  0  0  0  0  0  0  0  0  0
   23.3120  -21.2986   -9.5291 C   0  0  0  0  0  0  0  0  0  0  0  0
   24.1864  -21.1572   -8.4596 C   0  0  0  0  0  0  0  0  0  0  0  0
   25.4604  -20.7301   -8.7049 C   0  0  0  0  0  0  0  0  0  0  0  0
   25.8900  -20.4401   -9.9785 C   0  0  0  0  0  0  0  0  0  0  0  0
   25.0269  -20.5802  -11.0313 C   0  0  0  0  0  0  0  0  0  0  0  0
   23.7391  -21.0091  -10.8060 C   0  0  0  0  0  0  0  0  0  0  0  0
   20.7788  -19.4961  -12.7402 C   0  0  0  0  0  0  0  0  0  0  0  0
   19.7742  -19.7989  -11.8247 O   0  0  0  0  0  0  0  0  0  0  0  0
   21.1591  -18.2961  -12.7529 O   0  0  0  0  0  0  0  0  0  0  0  0
  2  5  1  0
  2  1  1  1
  3  2  1  0
  4  3  1  0
  5  6  2  0
  7  8  1  0
  7  5  1  0
  8  9  1  6
  9 10  1  0
 10 11  1  0
 11 15  1  0
 11 12  2  0
 13  8  1  0
 14 13  2  0
 16 13  1  0
 17 18  1  1
 17 16  1  0
 19 18  1  0
 20 19  2  0
 21 20  1  0
 22 21  1  0
 22 27  2  0
 23 22  1  0
 24 23  2  0
 24 25  1  0
 25 26  2  0
 26 27  1  0
 27 19  1  0
 28 17  1  0
 28 29  1  0
 30 28  2  0
M  END
$$$$
