CEW.pdb
     RDKit          3D

 30 31  0  0  1  0  0  0  0  0999 V2000
   28.9441  -21.5527  -18.2553 N   0  0  0  0  0  0  0  0  0  0  0  0
   28.3485  -22.4739  -17.2573 C   0  0  1  0  0  0  0  0  0  0  0  0
   29.3959  -23.4695  -16.9197 C   0  0  0  0  0  0  0  0  0  0  0  0
   30.0481  -23.2654  -15.2509 S   0  0  0  0  0  0  0  0  0  0  0  0
   27.8517  -21.6203  -16.1832 C   0  0  0  0  0  0  0  0  0  0  0  0
   28.4791  -20.5374  -15.8916 O   0  0  0  0  0  0  0  0  0  0  0  0
   26.6939  -21.8695  -15.3926 N   0  0  0  0  0  0  0  0  0  0  0  0
   26.2580  -20.8775  -14.3857 C   0  0  1  0  0  0  0  0  0  0  0  0
   24.9083  -20.4193  -14.8682 C   0  0  0  0  0  0  0  0  0  0  0  0
   24.1669  -19.5219  -13.9462 C   0  0  0  0  0  0  0  0  0  0  0  0
   22.9097  -20.1360  -13.4948 C   0  0  0  0  0  0  0  0  0  0  0  0
   22.1410  -20.8532  -14.1684 O   0  0  0  0  0  0  0  0  0  0  0  0
   26.2032  -21.5152  -13.0590 C   0  0  0  0  0  0  0  0  0  0  0  0
   25.8691  -22.7402  -12.9057 O   0  0  0  0  0  0  0  0  0  0  0  0
   22.5346  -19.8911  -12.1702 O   0  0  0  0  0  0  0  0  0  0  0  0
   26.5306  -20.7456  -11.9140 N   0  0  0  0  0  0  0  0  0  0  0  0
   26.3821  -21.2704  -10.5846 C   0  0  1  0  0  0  0  0  0  0  0  0
   27.6509  -21.0698   -9.8174 C   0  0  0  0  0  0  0  0  0  0  0  0
   27.4332  -20.4263   -8.4996 C   0  0  0  0  0  0  0  0  0  0  0  0
   26.3567  -19.6471   -8.1197 C   0  0  0  0  0  0  0  0  0  0  0  0
   26.5823  -19.2846   -6.8529 N   0  0  0  0  0  0  0  0  0  0  0  0
   27.7416  -19.7839   -6.3923 C   0  0  0  0  0  0  0  0  0  0  0  0
   28.3899  -19.6855   -5.1682 C   0  0  0  0  0  0  0  0  0  0  0  0
   29.5869  -20.3230   -5.0057 C   0  0  0  0  0  0  0  0  0  0  0  0
   30.1572  -21.0538   -6.0213 C   0  0  0  0  0  0  0  0  0  0  0  0
   29.5168  -21.1498   -7.2270 C   0  0  0  0  0  0  0  0  0  0  0  0
   28.3101  -20.5151   -7.4116 C   0  0  0  0  0  0  0  0  0  0  0  0
   25.1989  -20.7122   -9.8821 C   0  0  0  0  0  0  0  0  0  0  0  0
   24.4869  -21.4121   -8.9114 O   0  0  0  0  0  0  0  0  0  0  0  0
   24.7758  -19.5543  -10.1373 O   0  0  0  0  0  0  0  0  0  0  0  0
  2  5  1  0
  2  1  1  6
  3  2  1  0
  4  3  1  0
  5  6  2  0
  7  8  1  0
  7  5  1  0
  8  9  1  6
  9 10  1  0
 10 11  1  0
 11 15  1  0
 11 12  2  0
 13  8  1  0
 14 13  2  0
 16 13  1  0
 17 18  1  1
 17 16  1  0
 19 18  1  0
 20 19  2  0
 21 20  1  0
 22 21  1  0
 22 27  2  0
 23 22  1  0
 24 23  2  0
 24 25  1  0
 25 26  2  0
 26 27  1  0
 27 19  1  0
 28 17  1  0
 28 29  1  0
 30 28  2  0
M  END
$$$$
