CEW.pdb
     RDKit          3D

 30 31  0  0  1  0  0  0  0  0999 V2000
   27.8321  -18.9175  -16.4331 N   0  0  0  0  0  0  0  0  0  0  0  0
   28.2325  -18.6923  -15.0230 C   0  0  1  0  0  0  0  0  0  0  0  0
   28.6453  -17.2705  -14.9204 C   0  0  0  0  0  0  0  0  0  0  0  0
   30.1343  -16.9006  -15.8679 S   0  0  0  0  0  0  0  0  0  0  0  0
   27.0966  -19.1294  -14.2182 C   0  0  0  0  0  0  0  0  0  0  0  0
   26.0076  -18.4475  -14.2347 O   0  0  0  0  0  0  0  0  0  0  0  0
   27.0652  -20.2825  -13.3835 N   0  0  0  0  0  0  0  0  0  0  0  0
   25.8395  -20.6130  -12.6242 C   0  0  1  0  0  0  0  0  0  0  0  0
   25.2592  -21.8002  -13.3442 C   0  0  0  0  0  0  0  0  0  0  0  0
   24.6007  -21.5056  -14.6422 C   0  0  0  0  0  0  0  0  0  0  0  0
   24.0416  -22.7225  -15.2490 C   0  0  0  0  0  0  0  0  0  0  0  0
   24.1227  -23.8870  -14.8058 O   0  0  0  0  0  0  0  0  0  0  0  0
   26.1929  -20.9109  -11.2256 C   0  0  0  0  0  0  0  0  0  0  0  0
   27.3756  -21.2546  -10.8806 O   0  0  0  0  0  0  0  0  0  0  0  0
   23.3448  -22.5586  -16.4502 O   0  0  0  0  0  0  0  0  0  0  0  0
   25.1889  -20.8146  -10.2291 N   0  0  0  0  0  0  0  0  0  0  0  0
   25.4550  -21.1440   -8.8559 C   0  0  1  0  0  0  0  0  0  0  0  0
   26.6342  -20.3628   -8.3681 C   0  0  0  0  0  0  0  0  0  0  0  0
   26.9409  -20.6119   -6.9392 C   0  0  0  0  0  0  0  0  0  0  0  0
   26.4637  -21.6424   -6.1513 C   0  0  0  0  0  0  0  0  0  0  0  0
   27.0023  -21.4709   -4.9398 N   0  0  0  0  0  0  0  0  0  0  0  0
   27.7992  -20.3899   -4.8990 C   0  0  0  0  0  0  0  0  0  0  0  0
   28.5595  -19.8172   -3.8879 C   0  0  0  0  0  0  0  0  0  0  0  0
   29.2802  -18.6907   -4.1657 C   0  0  0  0  0  0  0  0  0  0  0  0
   29.2677  -18.1179   -5.4156 C   0  0  0  0  0  0  0  0  0  0  0  0
   28.5180  -18.6837   -6.4110 C   0  0  0  0  0  0  0  0  0  0  0  0
   27.7846  -19.8187   -6.1521 C   0  0  0  0  0  0  0  0  0  0  0  0
   24.2618  -20.9726   -7.9888 C   0  0  0  0  0  0  0  0  0  0  0  0
   24.0527  -21.7067   -6.8240 O   0  0  0  0  0  0  0  0  0  0  0  0
   23.3643  -20.1369   -8.2730 O   0  0  0  0  0  0  0  0  0  0  0  0
  2  5  1  0
  2  1  1  6
  3  2  1  0
  4  3  1  0
  5  6  2  0
  7  8  1  0
  7  5  1  0
  8  9  1  6
  9 10  1  0
 10 11  1  0
 11 15  1  0
 11 12  2  0
 13  8  1  0
 14 13  2  0
 16 13  1  0
 17 18  1  1
 17 16  1  0
 19 18  1  0
 20 19  2  0
 21 20  1  0
 22 21  1  0
 22 27  2  0
 23 22  1  0
 24 23  2  0
 24 25  1  0
 25 26  2  0
 26 27  1  0
 27 19  1  0
 28 17  1  0
 28 29  1  0
 30 28  2  0
M  END
$$$$
