CEW.pdb
     RDKit          3D

 30 31  0  0  1  0  0  0  0  0999 V2000
   27.5463  -18.9395  -16.1563 N   0  0  0  0  0  0  0  0  0  0  0  0
   26.8069  -20.1824  -15.8276 C   0  0  1  0  0  0  0  0  0  0  0  0
   27.8073  -21.2782  -15.8033 C   0  0  0  0  0  0  0  0  0  0  0  0
   28.3317  -21.7144  -14.1340 S   0  0  0  0  0  0  0  0  0  0  0  0
   26.0852  -19.8943  -14.5926 C   0  0  0  0  0  0  0  0  0  0  0  0
   26.5023  -18.9580  -13.8177 O   0  0  0  0  0  0  0  0  0  0  0  0
   24.9160  -20.5677  -14.1378 N   0  0  0  0  0  0  0  0  0  0  0  0
   24.3207  -20.2155  -12.8302 C   0  0  1  0  0  0  0  0  0  0  0  0
   22.9075  -20.7264  -12.9099 C   0  0  0  0  0  0  0  0  0  0  0  0
   22.1057  -20.5951  -11.6670 C   0  0  0  0  0  0  0  0  0  0  0  0
   20.7447  -21.1208  -11.8480 C   0  0  0  0  0  0  0  0  0  0  0  0
   19.9306  -20.8039  -12.7401 O   0  0  0  0  0  0  0  0  0  0  0  0
   25.0964  -20.8493  -11.7502 C   0  0  0  0  0  0  0  0  0  0  0  0
   25.5630  -22.0357  -11.8530 O   0  0  0  0  0  0  0  0  0  0  0  0
   20.3160  -22.0777  -10.9228 O   0  0  0  0  0  0  0  0  0  0  0  0
   25.3328  -20.1207  -10.5570 N   0  0  0  0  0  0  0  0  0  0  0  0
   26.0625  -20.6898   -9.4577 C   0  0  1  0  0  0  0  0  0  0  0  0
   27.2434  -19.8293   -9.1354 C   0  0  0  0  0  0  0  0  0  0  0  0
   28.0941  -20.3950   -8.0611 C   0  0  0  0  0  0  0  0  0  0  0  0
   28.9781  -21.4522   -8.1671 C   0  0  0  0  0  0  0  0  0  0  0  0
   29.5222  -21.6112   -6.9563 N   0  0  0  0  0  0  0  0  0  0  0  0
   29.0412  -20.7188   -6.0745 C   0  0  0  0  0  0  0  0  0  0  0  0
   29.2957  -20.4932   -4.7282 C   0  0  0  0  0  0  0  0  0  0  0  0
   28.6295  -19.4835   -4.0939 C   0  0  0  0  0  0  0  0  0  0  0  0
   27.7200  -18.6933   -4.7566 C   0  0  0  0  0  0  0  0  0  0  0  0
   27.4705  -18.9170   -6.0835 C   0  0  0  0  0  0  0  0  0  0  0  0
   28.1309  -19.9291   -6.7412 C   0  0  0  0  0  0  0  0  0  0  0  0
   25.2022  -20.9406   -8.2736 C   0  0  0  0  0  0  0  0  0  0  0  0
   25.5130  -21.8741   -7.2881 O   0  0  0  0  0  0  0  0  0  0  0  0
   24.1283  -20.3065   -8.1023 O   0  0  0  0  0  0  0  0  0  0  0  0
  2  5  1  0
  2  1  1  1
  3  2  1  0
  4  3  1  0
  5  6  2  0
  7  8  1  0
  7  5  1  0
  8  9  1  6
  9 10  1  0
 10 11  1  0
 11 15  1  0
 11 12  2  0
 13  8  1  0
 14 13  2  0
 16 13  1  0
 17 18  1  1
 17 16  1  0
 19 18  1  0
 20 19  2  0
 21 20  1  0
 22 21  1  0
 22 27  2  0
 23 22  1  0
 24 23  2  0
 24 25  1  0
 25 26  2  0
 26 27  1  0
 27 19  1  0
 28 17  1  0
 28 29  1  0
 30 28  2  0
M  END
$$$$
