CEW.pdb
     RDKit          3D

 30 31  0  0  1  0  0  0  0  0999 V2000
   12.0616  -20.6729    9.1632 N   0  0  0  0  0  0  0  0  0  0  0  0
   12.5713  -19.6673    8.1996 C   0  0  1  0  0  0  0  0  0  0  0  0
   12.1301  -18.3405    8.6968 C   0  0  0  0  0  0  0  0  0  0  0  0
   10.4663  -17.9046    8.1553 S   0  0  0  0  0  0  0  0  0  0  0  0
   14.0063  -19.9122    8.0997 C   0  0  0  0  0  0  0  0  0  0  0  0
   14.6536  -20.3208    9.1318 O   0  0  0  0  0  0  0  0  0  0  0  0
   14.7980  -19.7419    6.9285 N   0  0  0  0  0  0  0  0  0  0  0  0
   16.2527  -20.0066    6.9740 C   0  0  1  0  0  0  0  0  0  0  0  0
   16.5231  -20.8354    5.7474 C   0  0  0  0  0  0  0  0  0  0  0  0
   17.9497  -21.1588    5.4921 C   0  0  0  0  0  0  0  0  0  0  0  0
   18.1240  -21.8337    4.1976 C   0  0  0  0  0  0  0  0  0  0  0  0
   17.2278  -22.1343    3.3819 O   0  0  0  0  0  0  0  0  0  0  0  0
   16.9852  -18.7286    6.9718 C   0  0  0  0  0  0  0  0  0  0  0  0
   18.2632  -18.6765    6.9725 O   0  0  0  0  0  0  0  0  0  0  0  0
   19.4325  -22.1753    3.8419 O   0  0  0  0  0  0  0  0  0  0  0  0
   16.2497  -17.5165    6.9699 N   0  0  0  0  0  0  0  0  0  0  0  0
   16.9028  -16.2380    6.9078 C   0  0  1  0  0  0  0  0  0  0  0  0
   16.2352  -15.3789    5.8805 C   0  0  0  0  0  0  0  0  0  0  0  0
   16.7609  -15.6009    4.5122 C   0  0  0  0  0  0  0  0  0  0  0  0
   16.5000  -16.6753    3.6827 C   0  0  0  0  0  0  0  0  0  0  0  0
   17.1815  -16.4542    2.5541 N   0  0  0  0  0  0  0  0  0  0  0  0
   17.8674  -15.2999    2.6060 C   0  0  0  0  0  0  0  0  0  0  0  0
   18.7011  -14.6576    1.7001 C   0  0  0  0  0  0  0  0  0  0  0  0
   19.2638  -13.4651    2.0565 C   0  0  0  0  0  0  0  0  0  0  0  0
   19.0230  -12.8936    3.2838 C   0  0  0  0  0  0  0  0  0  0  0  0
   18.2010  -13.5280    4.1753 C   0  0  0  0  0  0  0  0  0  0  0  0
   17.6241  -14.7301    3.8360 C   0  0  0  0  0  0  0  0  0  0  0  0
   16.9853  -15.5768    8.2348 C   0  0  0  0  0  0  0  0  0  0  0  0
   17.5421  -14.3148    8.4256 O   0  0  0  0  0  0  0  0  0  0  0  0
   16.5454  -16.1392    9.2715 O   0  0  0  0  0  0  0  0  0  0  0  0
  2  5  1  0
  2  1  1  1
  3  2  1  0
  4  3  1  0
  5  6  2  0
  7  8  1  0
  7  5  1  0
  8  9  1  6
  9 10  1  0
 10 11  1  0
 11 15  1  0
 11 12  2  0
 13  8  1  0
 14 13  2  0
 16 13  1  0
 17 18  1  6
 17 16  1  0
 19 18  1  0
 20 19  2  0
 21 20  1  0
 22 21  1  0
 22 27  2  0
 23 22  1  0
 24 23  2  0
 24 25  1  0
 25 26  2  0
 26 27  1  0
 27 19  1  0
 28 17  1  0
 28 29  1  0
 30 28  2  0
M  END
$$$$
