CEW.pdb
     RDKit          3D

 30 31  0  0  1  0  0  0  0  0999 V2000
   23.1674  -27.4498  -19.2491 N   0  0  0  0  0  0  0  0  0  0  0  0
   22.4039  -27.6191  -17.9890 C   0  0  1  0  0  0  0  0  0  0  0  0
   23.3322  -28.2361  -17.0092 C   0  0  0  0  0  0  0  0  0  0  0  0
   22.4997  -28.8070  -15.5150 S   0  0  0  0  0  0  0  0  0  0  0  0
   21.8656  -26.2995  -17.6764 C   0  0  0  0  0  0  0  0  0  0  0  0
   22.6562  -25.2878  -17.6241 O   0  0  0  0  0  0  0  0  0  0  0  0
   20.4980  -26.0012  -17.4151 N   0  0  0  0  0  0  0  0  0  0  0  0
   20.1107  -24.6508  -16.9520 C   0  0  1  0  0  0  0  0  0  0  0  0
   18.9425  -24.2747  -17.8228 C   0  0  0  0  0  0  0  0  0  0  0  0
   19.2869  -23.6570  -19.1285 C   0  0  0  0  0  0  0  0  0  0  0  0
   19.4117  -22.1965  -19.0153 C   0  0  0  0  0  0  0  0  0  0  0  0
   19.1270  -21.4940  -18.0232 O   0  0  0  0  0  0  0  0  0  0  0  0
   19.7626  -24.7026  -15.5216 C   0  0  0  0  0  0  0  0  0  0  0  0
   19.3820  -25.7828  -14.9523 O   0  0  0  0  0  0  0  0  0  0  0  0
   19.9013  -21.5220  -20.1382 O   0  0  0  0  0  0  0  0  0  0  0  0
   19.8513  -23.5159  -14.7507 N   0  0  0  0  0  0  0  0  0  0  0  0
   19.5917  -23.5134  -13.3374 C   0  0  1  0  0  0  0  0  0  0  0  0
   20.7258  -22.8554  -12.6164 C   0  0  0  0  0  0  0  0  0  0  0  0
   20.8770  -21.4221  -12.9639 C   0  0  0  0  0  0  0  0  0  0  0  0
   20.2258  -20.3501  -12.3832 C   0  0  0  0  0  0  0  0  0  0  0  0
   20.6703  -19.2554  -13.0087 N   0  0  0  0  0  0  0  0  0  0  0  0
   21.5703  -19.5576  -13.9596 C   0  0  0  0  0  0  0  0  0  0  0  0
   22.2944  -18.7795  -14.8531 C   0  0  0  0  0  0  0  0  0  0  0  0
   23.1519  -19.3981  -15.7179 C   0  0  0  0  0  0  0  0  0  0  0  0
   23.3104  -20.7640  -15.7208 C   0  0  0  0  0  0  0  0  0  0  0  0
   22.5960  -21.5293  -14.8395 C   0  0  0  0  0  0  0  0  0  0  0  0
   21.7268  -20.9259  -13.9599 C   0  0  0  0  0  0  0  0  0  0  0  0
   18.2778  -22.9084  -13.0020 C   0  0  0  0  0  0  0  0  0  0  0  0
   17.6244  -23.1245  -11.7914 O   0  0  0  0  0  0  0  0  0  0  0  0
   17.6807  -22.1550  -13.8148 O   0  0  0  0  0  0  0  0  0  0  0  0
  2  5  1  0
  2  1  1  6
  3  2  1  0
  4  3  1  0
  5  6  2  0
  7  8  1  0
  7  5  1  0
  8  9  1  6
  9 10  1  0
 10 11  1  0
 11 15  1  0
 11 12  2  0
 13  8  1  0
 14 13  2  0
 16 13  1  0
 17 18  1  1
 17 16  1  0
 19 18  1  0
 20 19  2  0
 21 20  1  0
 22 21  1  0
 22 27  2  0
 23 22  1  0
 24 23  2  0
 24 25  1  0
 25 26  2  0
 26 27  1  0
 27 19  1  0
 28 17  1  0
 28 29  1  0
 30 28  2  0
M  END
$$$$
