CEW.pdb
     RDKit          3D

 30 31  0  0  1  0  0  0  0  0999 V2000
   28.3740  -19.1832  -16.2531 N   0  0  0  0  0  0  0  0  0  0  0  0
   28.3332  -20.2464  -15.2200 C   0  0  1  0  0  0  0  0  0  0  0  0
   29.6747  -20.2746  -14.5860 C   0  0  0  0  0  0  0  0  0  0  0  0
   30.1273  -21.9081  -13.9708 S   0  0  0  0  0  0  0  0  0  0  0  0
   27.1887  -19.9267  -14.3733 C   0  0  0  0  0  0  0  0  0  0  0  0
   27.0085  -18.7166  -13.9804 O   0  0  0  0  0  0  0  0  0  0  0  0
   26.2068  -20.8530  -13.9199 N   0  0  0  0  0  0  0  0  0  0  0  0
   25.2108  -20.4390  -12.9077 C   0  0  1  0  0  0  0  0  0  0  0  0
   23.8936  -20.9135  -13.4595 C   0  0  0  0  0  0  0  0  0  0  0  0
   22.7266  -20.7655  -12.5533 C   0  0  0  0  0  0  0  0  0  0  0  0
   21.6296  -20.0355  -13.2056 C   0  0  0  0  0  0  0  0  0  0  0  0
   21.1235  -20.2813  -14.3202 O   0  0  0  0  0  0  0  0  0  0  0  0
   25.5416  -21.0556  -11.6115 C   0  0  0  0  0  0  0  0  0  0  0  0
   25.7663  -22.3090  -11.4914 O   0  0  0  0  0  0  0  0  0  0  0  0
   21.0960  -18.9505  -12.5030 O   0  0  0  0  0  0  0  0  0  0  0  0
   25.6125  -20.2330  -10.4588 N   0  0  0  0  0  0  0  0  0  0  0  0
   25.8414  -20.7842   -9.1516 C   0  0  1  0  0  0  0  0  0  0  0  0
   26.9106  -20.0036   -8.4542 C   0  0  0  0  0  0  0  0  0  0  0  0
   27.1467  -20.4621   -7.0642 C   0  0  0  0  0  0  0  0  0  0  0  0
   26.5735  -21.5523   -6.4371 C   0  0  0  0  0  0  0  0  0  0  0  0
   27.0766  -21.5821   -5.1988 N   0  0  0  0  0  0  0  0  0  0  0  0
   27.9410  -20.5750   -4.9894 C   0  0  0  0  0  0  0  0  0  0  0  0
   28.6990  -20.1972   -3.8890 C   0  0  0  0  0  0  0  0  0  0  0  0
   29.5023  -19.0971   -3.9911 C   0  0  0  0  0  0  0  0  0  0  0  0
   29.5742  -18.3633   -5.1518 C   0  0  0  0  0  0  0  0  0  0  0  0
   28.8265  -18.7372   -6.2353 C   0  0  0  0  0  0  0  0  0  0  0  0
   28.0108  -19.8422   -6.1534 C   0  0  0  0  0  0  0  0  0  0  0  0
   24.5953  -20.8826   -8.3501 C   0  0  0  0  0  0  0  0  0  0  0  0
   23.3945  -20.2880   -8.7295 O   0  0  0  0  0  0  0  0  0  0  0  0
   24.5662  -21.5228   -7.2666 O   0  0  0  0  0  0  0  0  0  0  0  0
  2  5  1  0
  2  1  1  6
  3  2  1  0
  4  3  1  0
  5  6  2  0
  7  8  1  0
  7  5  1  0
  8  9  1  6
  9 10  1  0
 10 11  1  0
 11 15  1  0
 11 12  2  0
 13  8  1  0
 14 13  2  0
 16 13  1  0
 17 18  1  1
 17 16  1  0
 19 18  1  0
 20 19  2  0
 21 20  1  0
 22 21  1  0
 22 27  2  0
 23 22  1  0
 24 23  2  0
 24 25  1  0
 25 26  2  0
 26 27  1  0
 27 19  1  0
 28 17  1  0
 28 29  1  0
 30 28  2  0
M  END
$$$$
