CEW.pdb
     RDKit          3D

 30 31  0  0  1  0  0  0  0  0999 V2000
   21.7172  -34.0646  -14.0898 N   0  0  0  0  0  0  0  0  0  0  0  0
   22.7274  -33.8135  -13.0334 C   0  0  1  0  0  0  0  0  0  0  0  0
   23.7360  -32.8960  -13.6194 C   0  0  0  0  0  0  0  0  0  0  0  0
   22.9986  -31.4513  -14.4071 S   0  0  0  0  0  0  0  0  0  0  0  0
   21.9748  -33.3445  -11.8747 C   0  0  0  0  0  0  0  0  0  0  0  0
   20.7979  -32.8552  -12.0382 O   0  0  0  0  0  0  0  0  0  0  0  0
   22.4248  -33.3759  -10.5241 N   0  0  0  0  0  0  0  0  0  0  0  0
   21.5387  -32.9038   -9.4379 C   0  0  1  0  0  0  0  0  0  0  0  0
   21.9366  -33.7270   -8.2427 C   0  0  0  0  0  0  0  0  0  0  0  0
   21.1916  -33.4430   -6.9900 C   0  0  0  0  0  0  0  0  0  0  0  0
   21.7047  -34.2416   -5.8673 C   0  0  0  0  0  0  0  0  0  0  0  0
   22.6528  -35.0535   -5.8959 O   0  0  0  0  0  0  0  0  0  0  0  0
   21.7427  -31.4599   -9.2295 C   0  0  0  0  0  0  0  0  0  0  0  0
   22.9011  -30.9207   -9.2870 O   0  0  0  0  0  0  0  0  0  0  0  0
   21.0629  -34.0742   -4.6362 O   0  0  0  0  0  0  0  0  0  0  0  0
   20.6182  -30.6409   -8.9554 N   0  0  0  0  0  0  0  0  0  0  0  0
   20.7349  -29.2133   -8.8402 C   0  0  1  0  0  0  0  0  0  0  0  0
   20.7663  -28.5973  -10.2034 C   0  0  0  0  0  0  0  0  0  0  0  0
   19.4304  -28.5444  -10.8441 C   0  0  0  0  0  0  0  0  0  0  0  0
   18.2298  -28.2156  -10.2433 C   0  0  0  0  0  0  0  0  0  0  0  0
   17.2963  -28.2984  -11.1966 N   0  0  0  0  0  0  0  0  0  0  0  0
   17.8235  -28.6615  -12.3780 C   0  0  0  0  0  0  0  0  0  0  0  0
   17.2674  -28.8746  -13.6324 C   0  0  0  0  0  0  0  0  0  0  0  0
   18.0872  -29.2465  -14.6597 C   0  0  0  0  0  0  0  0  0  0  0  0
   19.4400  -29.4124  -14.4776 C   0  0  0  0  0  0  0  0  0  0  0  0
   19.9863  -29.2017  -13.2406 C   0  0  0  0  0  0  0  0  0  0  0  0
   19.1781  -28.8267  -12.1921 C   0  0  0  0  0  0  0  0  0  0  0  0
   19.6814  -28.6249   -7.9749 C   0  0  0  0  0  0  0  0  0  0  0  0
   18.6880  -29.3822   -7.3592 O   0  0  0  0  0  0  0  0  0  0  0  0
   19.6369  -27.3866   -7.7528 O   0  0  0  0  0  0  0  0  0  0  0  0
  2  5  1  0
  2  1  1  6
  3  2  1  0
  4  3  1  0
  5  6  2  0
  7  8  1  0
  7  5  1  0
  8  9  1  1
  9 10  1  0
 10 11  1  0
 11 15  1  0
 11 12  2  0
 13  8  1  0
 14 13  2  0
 16 13  1  0
 17 18  1  6
 17 16  1  0
 19 18  1  0
 20 19  2  0
 21 20  1  0
 22 21  1  0
 22 27  2  0
 23 22  1  0
 24 23  2  0
 24 25  1  0
 25 26  2  0
 26 27  1  0
 27 19  1  0
 28 17  1  0
 28 29  1  0
 30 28  2  0
M  END
$$$$
