NDH.pdb
     RDKit          3D

 27 27  0  0  1  0  0  0  0  0999 V2000
   29.8680  -12.3122  -15.8493 N   0  0  0  0  0  0  0  0  0  0  0  0
   29.2739  -12.7069  -17.0779 C   0  0  0  0  0  0  0  0  0  0  0  0
   29.9596  -13.3981  -17.8711 O   0  0  0  0  0  0  0  0  0  0  0  0
   27.9009  -12.3589  -17.4878 C   0  0  0  0  0  0  0  0  0  0  0  0
   27.1873  -11.5253  -16.4435 C   0  0  2  0  0  0  0  0  0  0  0  0
   27.0262  -12.2508  -15.2014 N   0  0  0  0  0  0  0  0  0  0  0  0
   25.8497  -11.0942  -16.9050 C   0  0  0  0  0  0  0  0  0  0  0  0
   25.7377  -10.3745  -17.9253 O   0  0  0  0  0  0  0  0  0  0  0  0
   24.6478  -11.4726  -16.2197 N   0  0  0  0  0  0  0  0  0  0  0  0
   23.3486  -10.9867  -16.6303 C   0  0  1  0  0  0  0  0  0  0  0  0
   22.2769  -11.9987  -16.3328 C   0  0  0  0  0  0  0  0  0  0  0  0
   20.9292  -11.5570  -16.7565 C   0  0  0  0  0  0  0  0  0  0  0  0
   20.0297  -11.1770  -15.9721 O   0  0  0  0  0  0  0  0  0  0  0  0
   22.9921   -9.7452  -15.8689 C   0  0  0  0  0  0  0  0  0  0  0  0
   23.5389   -9.4999  -14.7694 O   0  0  0  0  0  0  0  0  0  0  0  0
   20.6458  -11.5647  -18.1069 O   0  0  0  0  0  0  0  0  0  0  0  0
   22.0402   -8.8165  -16.3532 N   0  0  0  0  0  0  0  0  0  0  0  0
   21.7627   -7.5364  -15.6788 C   0  0  1  0  0  0  0  0  0  0  0  0
   22.8990   -6.5936  -15.8655 C   0  0  0  0  0  0  0  0  0  0  0  0
   22.5805   -5.2585  -15.3273 C   0  0  0  0  0  0  0  0  0  0  0  0
   21.9181   -5.0399  -14.0986 C   0  0  0  0  0  0  0  0  0  0  0  0
   21.7676   -3.7336  -13.8732 N   0  0  0  0  0  0  0  0  0  0  0  0
   22.3133   -3.1018  -14.9203 C   0  0  0  0  0  0  0  0  0  0  0  0
   22.7925   -4.0146  -15.7770 N   0  0  0  0  0  0  0  0  0  0  0  0
   20.5655   -6.9700  -16.4074 C   0  0  0  0  0  0  0  0  0  0  0  0
   20.0479   -5.8648  -16.0494 O   0  0  0  0  0  0  0  0  0  0  0  0
   20.0320   -7.6560  -17.4681 O   0  0  0  0  0  0  0  0  0  0  0  0
  2  3  2  0
  2  1  1  0
  4  2  1  0
  5  4  1  0
  5  6  1  1
  7  8  2  0
  7  5  1  0
  9  7  1  0
 10  9  1  0
 10 11  1  1
 12 11  1  0
 13 12  2  0
 14 10  1  0
 14 17  1  0
 15 14  2  0
 16 12  1  0
 18 17  1  0
 18 25  1  0
 18 19  1  6
 20 19  1  0
 21 20  2  0
 22 21  1  0
 23 22  1  0
 23 24  2  0
 24 20  1  0
 25 27  1  0
 26 25  2  0
M  END
$$$$
