NDH.pdb
     RDKit          3D

 27 27  0  0  1  0  0  0  0  0999 V2000
   15.5187  -12.3620  -14.5822 N   0  0  0  0  0  0  0  0  0  0  0  0
   16.1755  -12.1399  -15.8221 C   0  0  0  0  0  0  0  0  0  0  0  0
   16.2118  -13.0839  -16.6494 O   0  0  0  0  0  0  0  0  0  0  0  0
   16.8205  -10.8708  -16.2062 C   0  0  0  0  0  0  0  0  0  0  0  0
   16.6924   -9.8157  -15.1269 C   0  0  2  0  0  0  0  0  0  0  0  0
   15.3068   -9.4985  -14.8535 N   0  0  0  0  0  0  0  0  0  0  0  0
   17.3898   -8.5646  -15.4962 C   0  0  0  0  0  0  0  0  0  0  0  0
   18.3515   -8.5938  -16.2999 O   0  0  0  0  0  0  0  0  0  0  0  0
   17.0044   -7.2903  -14.9624 N   0  0  0  0  0  0  0  0  0  0  0  0
   17.6253   -6.0591  -15.3996 C   0  0  1  0  0  0  0  0  0  0  0  0
   16.6700   -4.9037  -15.2828 C   0  0  0  0  0  0  0  0  0  0  0  0
   17.2227   -3.6387  -15.8170 C   0  0  0  0  0  0  0  0  0  0  0  0
   18.0703   -3.5690  -16.7365 O   0  0  0  0  0  0  0  0  0  0  0  0
   18.8039   -5.7331  -14.5319 C   0  0  0  0  0  0  0  0  0  0  0  0
   18.7152   -5.8242  -13.2862 O   0  0  0  0  0  0  0  0  0  0  0  0
   16.7730   -2.4572  -15.2641 O   0  0  0  0  0  0  0  0  0  0  0  0
   20.0423   -5.3166  -15.0757 N   0  0  0  0  0  0  0  0  0  0  0  0
   21.2271   -5.0472  -14.2425 C   0  0  1  0  0  0  0  0  0  0  0  0
   22.4114   -5.7767  -14.7717 C   0  0  0  0  0  0  0  0  0  0  0  0
   22.2544   -7.2346  -14.6183 C   0  0  0  0  0  0  0  0  0  0  0  0
   21.3675   -7.8409  -13.7007 C   0  0  0  0  0  0  0  0  0  0  0  0
   21.4414   -9.1702  -13.7861 N   0  0  0  0  0  0  0  0  0  0  0  0
   22.3500   -9.4405  -14.7321 C   0  0  0  0  0  0  0  0  0  0  0  0
   22.8263   -8.2863  -15.2195 N   0  0  0  0  0  0  0  0  0  0  0  0
   21.4831   -3.5665  -14.4061 C   0  0  0  0  0  0  0  0  0  0  0  0
   20.7415   -2.8560  -15.1563 O   0  0  0  0  0  0  0  0  0  0  0  0
   22.5274   -2.9822  -13.7363 O   0  0  0  0  0  0  0  0  0  0  0  0
  2  3  2  0
  2  1  1  0
  4  2  1  0
  5  4  1  0
  5  6  1  6
  7  8  2  0
  7  5  1  0
  9  7  1  0
 10  9  1  0
 10 11  1  1
 12 11  1  0
 13 12  2  0
 14 10  1  0
 14 17  1  0
 15 14  2  0
 16 12  1  0
 18 17  1  0
 18 25  1  0
 18 19  1  6
 20 19  1  0
 21 20  2  0
 22 21  1  0
 23 22  1  0
 23 24  2  0
 24 20  1  0
 25 27  1  0
 26 25  2  0
M  END
$$$$
