NDH.pdb
     RDKit          3D

 27 27  0  0  1  0  0  0  0  0999 V2000
   17.8837  -14.4338  -17.1510 N   0  0  0  0  0  0  0  0  0  0  0  0
   17.0839  -13.3822  -16.6289 C   0  0  0  0  0  0  0  0  0  0  0  0
   16.0990  -13.6883  -15.9125 O   0  0  0  0  0  0  0  0  0  0  0  0
   17.3321  -11.9492  -16.8715 C   0  0  0  0  0  0  0  0  0  0  0  0
   17.7393  -11.2184  -15.6087 C   0  0  2  0  0  0  0  0  0  0  0  0
   16.6793  -11.2264  -14.6230 N   0  0  0  0  0  0  0  0  0  0  0  0
   18.1069   -9.8120  -15.8823 C   0  0  0  0  0  0  0  0  0  0  0  0
   18.8805   -9.5365  -16.8294 O   0  0  0  0  0  0  0  0  0  0  0  0
   17.6050   -8.7249  -15.0925 N   0  0  0  0  0  0  0  0  0  0  0  0
   18.0039   -7.3558  -15.3353 C   0  0  1  0  0  0  0  0  0  0  0  0
   16.9195   -6.3985  -14.9245 C   0  0  0  0  0  0  0  0  0  0  0  0
   15.7289   -6.4605  -15.8018 C   0  0  0  0  0  0  0  0  0  0  0  0
   15.7356   -6.1887  -17.0244 O   0  0  0  0  0  0  0  0  0  0  0  0
   19.2136   -7.0128  -14.5185 C   0  0  0  0  0  0  0  0  0  0  0  0
   19.2150   -7.2046  -13.2811 O   0  0  0  0  0  0  0  0  0  0  0  0
   14.5315   -6.8436  -15.2333 O   0  0  0  0  0  0  0  0  0  0  0  0
   20.3821   -6.4682  -15.1023 N   0  0  0  0  0  0  0  0  0  0  0  0
   21.5902   -6.1535  -14.3200 C   0  0  1  0  0  0  0  0  0  0  0  0
   22.8124   -6.5627  -15.0642 C   0  0  0  0  0  0  0  0  0  0  0  0
   22.8559   -8.0233  -15.2598 C   0  0  0  0  0  0  0  0  0  0  0  0
   22.3945   -8.9613  -14.3093 C   0  0  0  0  0  0  0  0  0  0  0  0
   22.5608  -10.2059  -14.7600 N   0  0  0  0  0  0  0  0  0  0  0  0
   23.1162  -10.0995  -15.9740 C   0  0  0  0  0  0  0  0  0  0  0  0
   23.2872   -8.8015  -16.2613 N   0  0  0  0  0  0  0  0  0  0  0  0
   21.5960   -4.6459  -14.2119 C   0  0  0  0  0  0  0  0  0  0  0  0
   20.7359   -3.9447  -14.8334 O   0  0  0  0  0  0  0  0  0  0  0  0
   22.5397   -4.0268  -13.4331 O   0  0  0  0  0  0  0  0  0  0  0  0
  2  3  2  0
  2  1  1  0
  4  2  1  0
  5  4  1  0
  5  6  1  1
  7  8  2  0
  7  5  1  0
  9  7  1  0
 10  9  1  0
 10 11  1  1
 12 11  1  0
 13 12  2  0
 14 10  1  0
 14 17  1  0
 15 14  2  0
 16 12  1  0
 18 17  1  0
 18 25  1  0
 18 19  1  6
 20 19  1  0
 21 20  2  0
 22 21  1  0
 23 22  1  0
 23 24  2  0
 24 20  1  0
 25 27  1  0
 26 25  2  0
M  END
$$$$
