NDH.pdb
     RDKit          3D

 27 27  0  0  1  0  0  0  0  0999 V2000
   36.5298  -33.9929   -1.5846 N   0  0  0  0  0  0  0  0  0  0  0  0
   35.4223  -33.1184   -1.7484 C   0  0  0  0  0  0  0  0  0  0  0  0
   35.6147  -31.8864   -1.5995 O   0  0  0  0  0  0  0  0  0  0  0  0
   34.0559  -33.5602   -2.0830 C   0  0  0  0  0  0  0  0  0  0  0  0
   33.9339  -35.0698   -2.1079 C   0  0  2  0  0  0  0  0  0  0  0  0
   34.7691  -35.6551   -3.1351 N   0  0  0  0  0  0  0  0  0  0  0  0
   32.5394  -35.5044   -2.3413 C   0  0  0  0  0  0  0  0  0  0  0  0
   32.1721  -35.8518   -3.4885 O   0  0  0  0  0  0  0  0  0  0  0  0
   31.5671  -35.5466   -1.2877 N   0  0  0  0  0  0  0  0  0  0  0  0
   30.2176  -36.0172   -1.5113 C   0  0  1  0  0  0  0  0  0  0  0  0
   29.4894  -36.2022   -0.2088 C   0  0  0  0  0  0  0  0  0  0  0  0
   28.0899  -36.6505   -0.3859 C   0  0  0  0  0  0  0  0  0  0  0  0
   27.1126  -36.1858    0.2447 O   0  0  0  0  0  0  0  0  0  0  0  0
   29.4383  -35.0089   -2.3013 C   0  0  0  0  0  0  0  0  0  0  0  0
   29.7772  -33.8034   -2.2954 O   0  0  0  0  0  0  0  0  0  0  0  0
   27.8468  -37.6476   -1.3081 O   0  0  0  0  0  0  0  0  0  0  0  0
   28.3082  -35.3719   -3.0720 N   0  0  0  0  0  0  0  0  0  0  0  0
   27.5843  -34.4125   -3.9240 C   0  0  1  0  0  0  0  0  0  0  0  0
   28.1202  -34.4429   -5.3121 C   0  0  0  0  0  0  0  0  0  0  0  0
   27.4218  -33.4742   -6.1767 C   0  0  0  0  0  0  0  0  0  0  0  0
   26.3472  -32.6639   -5.7471 C   0  0  0  0  0  0  0  0  0  0  0  0
   25.9173  -31.8884   -6.7439 N   0  0  0  0  0  0  0  0  0  0  0  0
   26.6828  -32.1740   -7.8050 C   0  0  0  0  0  0  0  0  0  0  0  0
   27.5718  -33.1154   -7.4587 N   0  0  0  0  0  0  0  0  0  0  0  0
   26.1644  -34.9290   -3.9636 C   0  0  0  0  0  0  0  0  0  0  0  0
   25.9218  -36.1750   -3.8838 O   0  0  0  0  0  0  0  0  0  0  0  0
   25.1250  -34.0429   -4.0860 O   0  0  0  0  0  0  0  0  0  0  0  0
  2  3  2  0
  2  1  1  0
  4  2  1  0
  5  4  1  0
  5  6  1  6
  7  8  2  0
  7  5  1  0
  9  7  1  0
 10  9  1  0
 10 11  1  1
 12 11  1  0
 13 12  2  0
 14 10  1  0
 14 17  1  0
 15 14  2  0
 16 12  1  0
 18 17  1  0
 18 25  1  0
 18 19  1  6
 20 19  1  0
 21 20  2  0
 22 21  1  0
 23 22  1  0
 23 24  2  0
 24 20  1  0
 25 27  1  0
 26 25  2  0
M  END
$$$$
