NDH.pdb
     RDKit          3D

 27 27  0  0  1  0  0  0  0  0999 V2000
   23.4833  -13.2175  -19.2167 N   0  0  0  0  0  0  0  0  0  0  0  0
   24.2074  -11.9990  -19.3133 C   0  0  0  0  0  0  0  0  0  0  0  0
   25.4373  -12.0601  -19.5593 O   0  0  0  0  0  0  0  0  0  0  0  0
   23.6110  -10.6612  -19.1436 C   0  0  0  0  0  0  0  0  0  0  0  0
   22.1130  -10.7269  -18.9293 C   0  0  2  0  0  0  0  0  0  0  0  0
   21.4221  -11.1615  -20.1247 N   0  0  0  0  0  0  0  0  0  0  0  0
   21.5581   -9.4171  -18.5239 C   0  0  0  0  0  0  0  0  0  0  0  0
   21.8861   -8.3764  -19.1411 O   0  0  0  0  0  0  0  0  0  0  0  0
   20.6400   -9.2831  -17.4300 N   0  0  0  0  0  0  0  0  0  0  0  0
   20.0372   -8.0130  -17.0892 C   0  0  1  0  0  0  0  0  0  0  0  0
   18.7156   -8.2123  -16.4002 C   0  0  0  0  0  0  0  0  0  0  0  0
   17.6764   -8.7748  -17.2915 C   0  0  0  0  0  0  0  0  0  0  0  0
   17.2004   -9.9283  -17.1840 O   0  0  0  0  0  0  0  0  0  0  0  0
   20.9129   -7.2607  -16.1325 C   0  0  0  0  0  0  0  0  0  0  0  0
   21.4369   -7.8495  -15.1595 O   0  0  0  0  0  0  0  0  0  0  0  0
   17.2007   -7.9735  -18.3091 O   0  0  0  0  0  0  0  0  0  0  0  0
   21.1781   -5.8791  -16.2874 N   0  0  0  0  0  0  0  0  0  0  0  0
   22.1363   -5.1524  -15.4363 C   0  0  1  0  0  0  0  0  0  0  0  0
   23.1799   -4.4974  -16.2711 C   0  0  0  0  0  0  0  0  0  0  0  0
   24.0769   -5.4934  -16.8851 C   0  0  0  0  0  0  0  0  0  0  0  0
   24.6604   -6.5706  -16.1813 C   0  0  0  0  0  0  0  0  0  0  0  0
   25.4229   -7.3036  -16.9944 N   0  0  0  0  0  0  0  0  0  0  0  0
   25.3491   -6.7315  -18.2030 C   0  0  0  0  0  0  0  0  0  0  0  0
   24.5487   -5.6590  -18.1279 N   0  0  0  0  0  0  0  0  0  0  0  0
   21.3181   -4.0647  -14.7789 C   0  0  0  0  0  0  0  0  0  0  0  0
   20.1129   -3.8553  -15.1272 O   0  0  0  0  0  0  0  0  0  0  0  0
   21.8821   -3.2952  -13.7940 O   0  0  0  0  0  0  0  0  0  0  0  0
  2  3  2  0
  2  1  1  0
  4  2  1  0
  5  4  1  0
  5  6  1  6
  7  8  2  0
  7  5  1  0
  9  7  1  0
 10  9  1  0
 10 11  1  1
 12 11  1  0
 13 12  2  0
 14 10  1  0
 14 17  1  0
 15 14  2  0
 16 12  1  0
 18 17  1  0
 18 25  1  0
 18 19  1  6
 20 19  1  0
 21 20  2  0
 22 21  1  0
 23 22  1  0
 23 24  2  0
 24 20  1  0
 25 27  1  0
 26 25  2  0
M  END
$$$$
