NDH.pdb
     RDKit          3D

 27 27  0  0  1  0  0  0  0  0999 V2000
   11.7658  -12.6598  -12.2152 N   0  0  0  0  0  0  0  0  0  0  0  0
   12.0109  -12.2411  -10.8800 C   0  0  0  0  0  0  0  0  0  0  0  0
   11.1092  -12.4290  -10.0264 O   0  0  0  0  0  0  0  0  0  0  0  0
   13.2575  -11.5979  -10.4254 C   0  0  0  0  0  0  0  0  0  0  0  0
   14.2522  -11.4193  -11.5537 C   0  0  2  0  0  0  0  0  0  0  0  0
   14.9253  -12.6606  -11.8723 N   0  0  0  0  0  0  0  0  0  0  0  0
   15.2791  -10.4065  -11.2256 C   0  0  0  0  0  0  0  0  0  0  0  0
   16.2085  -10.6867  -10.4324 O   0  0  0  0  0  0  0  0  0  0  0  0
   15.2568   -9.0875  -11.7887 N   0  0  0  0  0  0  0  0  0  0  0  0
   16.2685   -8.1036  -11.4710 C   0  0  1  0  0  0  0  0  0  0  0  0
   16.9470   -7.6074  -12.7179 C   0  0  0  0  0  0  0  0  0  0  0  0
   17.9621   -6.5642  -12.4492 C   0  0  0  0  0  0  0  0  0  0  0  0
   18.2948   -6.1783  -11.3050 O   0  0  0  0  0  0  0  0  0  0  0  0
   15.6450   -6.9082  -10.8149 C   0  0  0  0  0  0  0  0  0  0  0  0
   14.7450   -6.2642  -11.4007 O   0  0  0  0  0  0  0  0  0  0  0  0
   18.5832   -5.9781  -13.5330 O   0  0  0  0  0  0  0  0  0  0  0  0
   16.0412   -6.4670   -9.5299 N   0  0  0  0  0  0  0  0  0  0  0  0
   15.4576   -5.2800   -8.8810 C   0  0  1  0  0  0  0  0  0  0  0  0
   16.0778   -5.0598   -7.5462 C   0  0  0  0  0  0  0  0  0  0  0  0
   15.5706   -3.8266   -6.9173 C   0  0  0  0  0  0  0  0  0  0  0  0
   14.5738   -3.0026   -7.4861 C   0  0  0  0  0  0  0  0  0  0  0  0
   14.3189   -1.9602   -6.6935 N   0  0  0  0  0  0  0  0  0  0  0  0
   15.1218   -2.0866   -5.6292 C   0  0  0  0  0  0  0  0  0  0  0  0
   15.8601   -3.1963   -5.7712 N   0  0  0  0  0  0  0  0  0  0  0  0
   15.8502   -4.1234   -9.7713 C   0  0  0  0  0  0  0  0  0  0  0  0
   17.0085   -4.0672  -10.2938 O   0  0  0  0  0  0  0  0  0  0  0  0
   14.9457   -3.1231  -10.0196 O   0  0  0  0  0  0  0  0  0  0  0  0
  2  3  2  0
  2  1  1  0
  4  2  1  0
  5  4  1  0
  5  6  1  1
  7  8  2  0
  7  5  1  0
  9  7  1  0
 10  9  1  0
 10 11  1  6
 12 11  1  0
 13 12  2  0
 14 10  1  0
 14 17  1  0
 15 14  2  0
 16 12  1  0
 18 17  1  0
 18 25  1  0
 18 19  1  1
 20 19  1  0
 21 20  2  0
 22 21  1  0
 23 22  1  0
 23 24  2  0
 24 20  1  0
 25 27  1  0
 26 25  2  0
M  END
$$$$
