NDH.pdb
     RDKit          3D

 27 27  0  0  1  0  0  0  0  0999 V2000
   22.1344   -1.3979  -17.7196 N   0  0  0  0  0  0  0  0  0  0  0  0
   23.1268   -1.6397  -16.7323 C   0  0  0  0  0  0  0  0  0  0  0  0
   24.0815   -0.8288  -16.6427 O   0  0  0  0  0  0  0  0  0  0  0  0
   23.1127   -2.7828  -15.8011 C   0  0  0  0  0  0  0  0  0  0  0  0
   21.9513   -3.7190  -16.0638 C   0  0  2  0  0  0  0  0  0  0  0  0
   20.7030   -3.1686  -15.5798 N   0  0  0  0  0  0  0  0  0  0  0  0
   22.1540   -5.0382  -15.4263 C   0  0  0  0  0  0  0  0  0  0  0  0
   22.2370   -5.1282  -14.1786 O   0  0  0  0  0  0  0  0  0  0  0  0
   22.2622   -6.2467  -16.1914 N   0  0  0  0  0  0  0  0  0  0  0  0
   22.3009   -7.5487  -15.5623 C   0  0  1  0  0  0  0  0  0  0  0  0
   21.0674   -8.3428  -15.8926 C   0  0  0  0  0  0  0  0  0  0  0  0
   21.0657   -9.6913  -15.2824 C   0  0  0  0  0  0  0  0  0  0  0  0
   20.7624  -10.7432  -15.8909 O   0  0  0  0  0  0  0  0  0  0  0  0
   23.4702   -8.3381  -16.0698 C   0  0  0  0  0  0  0  0  0  0  0  0
   23.8640   -8.1954  -17.2499 O   0  0  0  0  0  0  0  0  0  0  0  0
   21.4225   -9.7955  -13.9536 O   0  0  0  0  0  0  0  0  0  0  0  0
   24.1641   -9.2602  -15.2506 N   0  0  0  0  0  0  0  0  0  0  0  0
   25.3435  -10.0094  -15.7178 C   0  0  1  0  0  0  0  0  0  0  0  0
   25.7797  -10.9885  -14.6854 C   0  0  0  0  0  0  0  0  0  0  0  0
   26.9847  -11.7201  -15.1169 C   0  0  0  0  0  0  0  0  0  0  0  0
   27.7133  -11.4195  -16.2895 C   0  0  0  0  0  0  0  0  0  0  0  0
   28.7519  -12.2465  -16.4209 N   0  0  0  0  0  0  0  0  0  0  0  0
   28.7158  -13.0725  -15.3674 C   0  0  0  0  0  0  0  0  0  0  0  0
   27.6644  -12.7524  -14.6002 N   0  0  0  0  0  0  0  0  0  0  0  0
   24.8539  -10.7875  -16.9175 C   0  0  0  0  0  0  0  0  0  0  0  0
   23.7167  -11.3570  -16.9050 O   0  0  0  0  0  0  0  0  0  0  0  0
   25.6453  -10.8793  -18.0336 O   0  0  0  0  0  0  0  0  0  0  0  0
  2  3  2  0
  2  1  1  0
  4  2  1  0
  5  4  1  0
  5  6  1  1
  7  8  2  0
  7  5  1  0
  9  7  1  0
 10  9  1  0
 10 11  1  6
 12 11  1  0
 13 12  2  0
 14 10  1  0
 14 17  1  0
 15 14  2  0
 16 12  1  0
 18 17  1  0
 18 25  1  0
 18 19  1  1
 20 19  1  0
 21 20  2  0
 22 21  1  0
 23 22  1  0
 23 24  2  0
 24 20  1  0
 25 27  1  0
 26 25  2  0
M  END
$$$$
