NDH.pdb
     RDKit          3D

 27 27  0  0  1  0  0  0  0  0999 V2000
   24.2558  -13.3926  -16.7940 N   0  0  0  0  0  0  0  0  0  0  0  0
   24.0917  -12.2694  -17.6483 C   0  0  0  0  0  0  0  0  0  0  0  0
   24.6950  -12.2712  -18.7497 O   0  0  0  0  0  0  0  0  0  0  0  0
   23.2577  -11.0961  -17.3290 C   0  0  0  0  0  0  0  0  0  0  0  0
   22.5858  -11.2240  -15.9774 C   0  0  2  0  0  0  0  0  0  0  0  0
   21.6667  -12.3418  -15.9428 N   0  0  0  0  0  0  0  0  0  0  0  0
   21.8392   -9.9990  -15.6171 C   0  0  0  0  0  0  0  0  0  0  0  0
   20.5858  -10.0100  -15.5929 O   0  0  0  0  0  0  0  0  0  0  0  0
   22.5025   -8.7710  -15.2864 N   0  0  0  0  0  0  0  0  0  0  0  0
   21.7673   -7.5755  -14.9360 C   0  0  1  0  0  0  0  0  0  0  0  0
   22.1219   -7.1126  -13.5499 C   0  0  0  0  0  0  0  0  0  0  0  0
   21.3326   -5.9399  -13.1110 C   0  0  0  0  0  0  0  0  0  0  0  0
   20.1031   -5.9630  -12.8730 O   0  0  0  0  0  0  0  0  0  0  0  0
   22.1198   -6.4550  -15.8678 C   0  0  0  0  0  0  0  0  0  0  0  0
   23.2284   -6.4429  -16.4499 O   0  0  0  0  0  0  0  0  0  0  0  0
   21.9970   -4.7409  -12.9538 O   0  0  0  0  0  0  0  0  0  0  0  0
   21.2299   -5.3845  -16.1230 N   0  0  0  0  0  0  0  0  0  0  0  0
   21.5496   -4.2883  -17.0540 C   0  0  1  0  0  0  0  0  0  0  0  0
   21.0501   -4.6043  -18.4198 C   0  0  0  0  0  0  0  0  0  0  0  0
   21.3274   -3.5023  -19.3592 C   0  0  0  0  0  0  0  0  0  0  0  0
   22.6069   -2.9366  -19.5570 C   0  0  0  0  0  0  0  0  0  0  0  0
   22.5524   -1.9601  -20.4644 N   0  0  0  0  0  0  0  0  0  0  0  0
   21.2751   -1.8784  -20.8586 C   0  0  0  0  0  0  0  0  0  0  0  0
   20.5568   -2.7969  -20.1976 N   0  0  0  0  0  0  0  0  0  0  0  0
   20.7664   -3.1038  -16.5361 C   0  0  0  0  0  0  0  0  0  0  0  0
   21.0131   -1.9274  -16.9521 O   0  0  0  0  0  0  0  0  0  0  0  0
   19.7770   -3.3004  -15.6073 O   0  0  0  0  0  0  0  0  0  0  0  0
  2  3  2  0
  2  1  1  0
  4  2  1  0
  5  4  1  0
  5  6  1  6
  7  8  2  0
  7  5  1  0
  9  7  1  0
 10  9  1  0
 10 11  1  1
 12 11  1  0
 13 12  2  0
 14 10  1  0
 14 17  1  0
 15 14  2  0
 16 12  1  0
 18 17  1  0
 18 25  1  0
 18 19  1  6
 20 19  1  0
 21 20  2  0
 22 21  1  0
 23 22  1  0
 23 24  2  0
 24 20  1  0
 25 27  1  0
 26 25  2  0
M  END
$$$$
