NDH.pdb
     RDKit          3D

 27 27  0  0  1  0  0  0  0  0999 V2000
   14.7841  -13.9638  -13.7236 N   0  0  0  0  0  0  0  0  0  0  0  0
   16.1778  -13.7000  -13.8017 C   0  0  0  0  0  0  0  0  0  0  0  0
   16.9487  -14.6609  -14.0453 O   0  0  0  0  0  0  0  0  0  0  0  0
   16.7842  -12.3689  -13.6156 C   0  0  0  0  0  0  0  0  0  0  0  0
   15.7481  -11.3071  -13.3098 C   0  0  2  0  0  0  0  0  0  0  0  0
   15.0211  -10.9140  -14.4981 N   0  0  0  0  0  0  0  0  0  0  0  0
   16.3597  -10.0967  -12.7193 C   0  0  0  0  0  0  0  0  0  0  0  0
   16.9569  -10.1660  -11.6192 O   0  0  0  0  0  0  0  0  0  0  0  0
   16.2976   -8.8178  -13.3658 N   0  0  0  0  0  0  0  0  0  0  0  0
   16.9093   -7.6399  -12.7904 C   0  0  1  0  0  0  0  0  0  0  0  0
   17.1694   -6.5993  -13.8442 C   0  0  0  0  0  0  0  0  0  0  0  0
   17.8323   -5.3879  -13.3111 C   0  0  0  0  0  0  0  0  0  0  0  0
   18.8184   -5.4024  -12.5390 O   0  0  0  0  0  0  0  0  0  0  0  0
   15.9903   -7.0142  -11.7844 C   0  0  0  0  0  0  0  0  0  0  0  0
   14.8775   -6.5634  -12.1403 O   0  0  0  0  0  0  0  0  0  0  0  0
   17.3292   -4.1606  -13.6912 O   0  0  0  0  0  0  0  0  0  0  0  0
   16.3368   -6.9093  -10.4163 N   0  0  0  0  0  0  0  0  0  0  0  0
   15.5105   -6.1783   -9.4397 C   0  0  1  0  0  0  0  0  0  0  0  0
   15.3433   -6.9800   -8.1971 C   0  0  0  0  0  0  0  0  0  0  0  0
   14.2288   -7.9368   -8.3234 C   0  0  0  0  0  0  0  0  0  0  0  0
   13.4069   -8.0449   -9.4675 C   0  0  0  0  0  0  0  0  0  0  0  0
   12.4851   -8.9937   -9.2945 N   0  0  0  0  0  0  0  0  0  0  0  0
   12.6874   -9.5018   -8.0720 C   0  0  0  0  0  0  0  0  0  0  0  0
   13.7234   -8.8686   -7.5043 N   0  0  0  0  0  0  0  0  0  0  0  0
   16.3208   -4.9502   -9.0939 C   0  0  0  0  0  0  0  0  0  0  0  0
   15.9111   -4.1248   -8.2172 O   0  0  0  0  0  0  0  0  0  0  0  0
   17.5130   -4.7239   -9.7326 O   0  0  0  0  0  0  0  0  0  0  0  0
  2  3  2  0
  2  1  1  0
  4  2  1  0
  5  4  1  0
  5  6  1  6
  7  8  2  0
  7  5  1  0
  9  7  1  0
 10  9  1  0
 10 11  1  6
 12 11  1  0
 13 12  2  0
 14 10  1  0
 14 17  1  0
 15 14  2  0
 16 12  1  0
 18 17  1  0
 18 25  1  0
 18 19  1  1
 20 19  1  0
 21 20  2  0
 22 21  1  0
 23 22  1  0
 23 24  2  0
 24 20  1  0
 25 27  1  0
 26 25  2  0
M  END
$$$$
