NDH.pdb
     RDKit          3D

 27 27  0  0  1  0  0  0  0  0999 V2000
   14.2421  -20.9133    0.3702 N   0  0  0  0  0  0  0  0  0  0  0  0
   13.4060  -20.8634    1.5176 C   0  0  0  0  0  0  0  0  0  0  0  0
   12.2756  -21.4062    1.4495 O   0  0  0  0  0  0  0  0  0  0  0  0
   13.7761  -20.2148    2.7890 C   0  0  0  0  0  0  0  0  0  0  0  0
   15.1186  -19.5183    2.7051 C   0  0  2  0  0  0  0  0  0  0  0  0
   16.0829  -20.3067    1.9678 N   0  0  0  0  0  0  0  0  0  0  0  0
   15.6770  -19.2386    4.0459 C   0  0  0  0  0  0  0  0  0  0  0  0
   15.0125  -18.5787    4.8794 O   0  0  0  0  0  0  0  0  0  0  0  0
   16.9758  -19.7003    4.4428 N   0  0  0  0  0  0  0  0  0  0  0  0
   17.4966  -19.4671    5.7720 C   0  0  1  0  0  0  0  0  0  0  0  0
   18.5140  -20.5107    6.1421 C   0  0  0  0  0  0  0  0  0  0  0  0
   17.9292  -21.8621    6.2931 C   0  0  0  0  0  0  0  0  0  0  0  0
   16.8352  -22.1013    6.8542 O   0  0  0  0  0  0  0  0  0  0  0  0
   18.1966  -18.1425    5.8324 C   0  0  0  0  0  0  0  0  0  0  0  0
   18.5060  -17.5432    4.7774 O   0  0  0  0  0  0  0  0  0  0  0  0
   18.6378  -22.9295    5.7809 O   0  0  0  0  0  0  0  0  0  0  0  0
   18.5303  -17.5267    7.0622 N   0  0  0  0  0  0  0  0  0  0  0  0
   19.1374  -16.1867    7.1424 C   0  0  1  0  0  0  0  0  0  0  0  0
   18.2002  -15.1590    6.6130 C   0  0  0  0  0  0  0  0  0  0  0  0
   18.8115  -13.8175    6.6305 C   0  0  0  0  0  0  0  0  0  0  0  0
   19.8689  -13.4206    5.7816 C   0  0  0  0  0  0  0  0  0  0  0  0
   20.2143  -12.1549    6.0237 N   0  0  0  0  0  0  0  0  0  0  0  0
   19.4111  -11.7225    7.0042 C   0  0  0  0  0  0  0  0  0  0  0  0
   18.5829  -12.7155    7.3571 N   0  0  0  0  0  0  0  0  0  0  0  0
   19.3156  -15.9336    8.6219 C   0  0  0  0  0  0  0  0  0  0  0  0
   18.6923  -16.6329    9.4823 O   0  0  0  0  0  0  0  0  0  0  0  0
   20.1607  -14.9385    9.0414 O   0  0  0  0  0  0  0  0  0  0  0  0
  2  3  2  0
  2  1  1  0
  4  2  1  0
  5  4  1  0
  5  6  1  6
  7  8  2  0
  7  5  1  0
  9  7  1  0
 10  9  1  0
 10 11  1  6
 12 11  1  0
 13 12  2  0
 14 10  1  0
 14 17  1  0
 15 14  2  0
 16 12  1  0
 18 17  1  0
 18 25  1  0
 18 19  1  1
 20 19  1  0
 21 20  2  0
 22 21  1  0
 23 22  1  0
 23 24  2  0
 24 20  1  0
 25 27  1  0
 26 25  2  0
M  END
$$$$
