NDH.pdb
     RDKit          3D

 27 27  0  0  1  0  0  0  0  0999 V2000
   19.8884  -13.0331  -19.5847 N   0  0  0  0  0  0  0  0  0  0  0  0
   21.3007  -12.9207  -19.4808 C   0  0  0  0  0  0  0  0  0  0  0  0
   21.9986  -13.9103  -19.8136 O   0  0  0  0  0  0  0  0  0  0  0  0
   22.0068  -11.7162  -19.0067 C   0  0  0  0  0  0  0  0  0  0  0  0
   21.0525  -10.5855  -18.6824 C   0  0  2  0  0  0  0  0  0  0  0  0
   20.2642  -10.2061  -19.8356 N   0  0  0  0  0  0  0  0  0  0  0  0
   21.7676   -9.3859  -18.1950 C   0  0  0  0  0  0  0  0  0  0  0  0
   22.5429   -9.4707  -17.2135 O   0  0  0  0  0  0  0  0  0  0  0  0
   21.6087   -8.1003  -18.8111 N   0  0  0  0  0  0  0  0  0  0  0  0
   22.2454   -6.9146  -18.2807 C   0  0  1  0  0  0  0  0  0  0  0  0
   22.2338   -5.8003  -19.2903 C   0  0  0  0  0  0  0  0  0  0  0  0
   22.9340   -4.5843  -18.8192 C   0  0  0  0  0  0  0  0  0  0  0  0
   24.1716   -4.5032  -18.6438 O   0  0  0  0  0  0  0  0  0  0  0  0
   21.4994   -6.4156  -17.0796 C   0  0  0  0  0  0  0  0  0  0  0  0
   20.2930   -6.0937  -17.1744 O   0  0  0  0  0  0  0  0  0  0  0  0
   22.1711   -3.4652  -18.5558 O   0  0  0  0  0  0  0  0  0  0  0  0
   22.1173   -6.2903  -15.8125 N   0  0  0  0  0  0  0  0  0  0  0  0
   21.4369   -5.6916  -14.6509 C   0  0  1  0  0  0  0  0  0  0  0  0
   21.5157   -6.6020  -13.4764 C   0  0  0  0  0  0  0  0  0  0  0  0
   20.5249   -7.6894  -13.5747 C   0  0  0  0  0  0  0  0  0  0  0  0
   19.6071   -7.8272  -14.6399 C   0  0  0  0  0  0  0  0  0  0  0  0
   18.8371   -8.9016  -14.4591 N   0  0  0  0  0  0  0  0  0  0  0  0
   19.2307   -9.4620  -13.3083 C   0  0  0  0  0  0  0  0  0  0  0  0
   20.2319   -8.7359  -12.7915 N   0  0  0  0  0  0  0  0  0  0  0  0
   22.2409   -4.4520  -14.3317 C   0  0  0  0  0  0  0  0  0  0  0  0
   23.2603   -4.1400  -15.0253 O   0  0  0  0  0  0  0  0  0  0  0  0
   21.8654   -3.6536  -13.2820 O   0  0  0  0  0  0  0  0  0  0  0  0
  2  3  2  0
  2  1  1  0
  4  2  1  0
  5  4  1  0
  5  6  1  6
  7  8  2  0
  7  5  1  0
  9  7  1  0
 10  9  1  0
 10 11  1  6
 12 11  1  0
 13 12  2  0
 14 10  1  0
 14 17  1  0
 15 14  2  0
 16 12  1  0
 18 17  1  0
 18 25  1  0
 18 19  1  1
 20 19  1  0
 21 20  2  0
 22 21  1  0
 23 22  1  0
 23 24  2  0
 24 20  1  0
 25 27  1  0
 26 25  2  0
M  END
$$$$
