NDH.pdb
     RDKit          3D

 27 27  0  0  1  0  0  0  0  0999 V2000
   17.0118  -13.7229  -15.5387 N   0  0  0  0  0  0  0  0  0  0  0  0
   17.0026  -13.0853  -16.8083 C   0  0  0  0  0  0  0  0  0  0  0  0
   16.6854  -13.7706  -17.8117 O   0  0  0  0  0  0  0  0  0  0  0  0
   17.3415  -11.6675  -17.0297 C   0  0  0  0  0  0  0  0  0  0  0  0
   17.6863  -10.9545  -15.7384 C   0  0  2  0  0  0  0  0  0  0  0  0
   16.5267  -10.8078  -14.8846 N   0  0  0  0  0  0  0  0  0  0  0  0
   18.2514   -9.6104  -15.9872 C   0  0  0  0  0  0  0  0  0  0  0  0
   19.2473   -9.4751  -16.7366 O   0  0  0  0  0  0  0  0  0  0  0  0
   17.6966   -8.4280  -15.3944 N   0  0  0  0  0  0  0  0  0  0  0  0
   18.1855   -7.1067  -15.7227 C   0  0  1  0  0  0  0  0  0  0  0  0
   17.0948   -6.0804  -15.5877 C   0  0  0  0  0  0  0  0  0  0  0  0
   16.0611   -6.1914  -16.6414 C   0  0  0  0  0  0  0  0  0  0  0  0
   16.2663   -5.9822  -17.8591 O   0  0  0  0  0  0  0  0  0  0  0  0
   19.2756   -6.7041  -14.7752 C   0  0  0  0  0  0  0  0  0  0  0  0
   19.0699   -6.7027  -13.5400 O   0  0  0  0  0  0  0  0  0  0  0  0
   14.7858   -6.5495  -16.2549 O   0  0  0  0  0  0  0  0  0  0  0  0
   20.5584   -6.3163  -15.2301 N   0  0  0  0  0  0  0  0  0  0  0  0
   21.6486   -5.9419  -14.3127 C   0  0  1  0  0  0  0  0  0  0  0  0
   22.9652   -6.3422  -14.8794 C   0  0  0  0  0  0  0  0  0  0  0  0
   23.0510   -7.8037  -15.0532 C   0  0  0  0  0  0  0  0  0  0  0  0
   22.0633   -8.7110  -14.6088 C   0  0  0  0  0  0  0  0  0  0  0  0
   22.4117   -9.9646  -14.9036 N   0  0  0  0  0  0  0  0  0  0  0  0
   23.5957   -9.8938  -15.5255 C   0  0  0  0  0  0  0  0  0  0  0  0
   23.9663   -8.6084  -15.6094 N   0  0  0  0  0  0  0  0  0  0  0  0
   21.6057   -4.4319  -14.2608 C   0  0  0  0  0  0  0  0  0  0  0  0
   20.8279   -3.7756  -15.0238 O   0  0  0  0  0  0  0  0  0  0  0  0
   22.4146   -3.7617  -13.3794 O   0  0  0  0  0  0  0  0  0  0  0  0
  2  3  2  0
  2  1  1  0
  4  2  1  0
  5  4  1  0
  5  6  1  1
  7  8  2  0
  7  5  1  0
  9  7  1  0
 10  9  1  0
 10 11  1  1
 12 11  1  0
 13 12  2  0
 14 10  1  0
 14 17  1  0
 15 14  2  0
 16 12  1  0
 18 17  1  0
 18 25  1  0
 18 19  1  6
 20 19  1  0
 21 20  2  0
 22 21  1  0
 23 22  1  0
 23 24  2  0
 24 20  1  0
 25 27  1  0
 26 25  2  0
M  END
$$$$
