NDH.pdb
     RDKit          3D

 27 27  0  0  1  0  0  0  0  0999 V2000
   18.7297  -13.0772  -17.3860 N   0  0  0  0  0  0  0  0  0  0  0  0
   18.6489  -12.9380  -15.9745 C   0  0  0  0  0  0  0  0  0  0  0  0
   18.3462  -13.9509  -15.2968 O   0  0  0  0  0  0  0  0  0  0  0  0
   18.8973  -11.6796  -15.2472 C   0  0  0  0  0  0  0  0  0  0  0  0
   19.2451  -10.5392  -16.1815 C   0  0  2  0  0  0  0  0  0  0  0  0
   20.5017  -10.7715  -16.8614 N   0  0  0  0  0  0  0  0  0  0  0  0
   19.3387   -9.2496  -15.4631 C   0  0  0  0  0  0  0  0  0  0  0  0
   18.3797   -8.8484  -14.7624 O   0  0  0  0  0  0  0  0  0  0  0  0
   20.5060   -8.4192  -15.5351 N   0  0  0  0  0  0  0  0  0  0  0  0
   20.5674   -7.1287  -14.8845 C   0  0  1  0  0  0  0  0  0  0  0  0
   21.9793   -6.7897  -14.4935 C   0  0  0  0  0  0  0  0  0  0  0  0
   22.0912   -5.4881  -13.7977 C   0  0  0  0  0  0  0  0  0  0  0  0
   21.5090   -5.2064  -12.7251 O   0  0  0  0  0  0  0  0  0  0  0  0
   20.1090   -6.0508  -15.8206 C   0  0  0  0  0  0  0  0  0  0  0  0
   20.7010   -5.8654  -16.9083 O   0  0  0  0  0  0  0  0  0  0  0  0
   22.8913   -4.5206  -14.3701 O   0  0  0  0  0  0  0  0  0  0  0  0
   19.0083   -5.2141  -15.5183 N   0  0  0  0  0  0  0  0  0  0  0  0
   18.5655   -4.1282  -16.4102 C   0  0  1  0  0  0  0  0  0  0  0  0
   17.0825   -4.1305  -16.5351 C   0  0  0  0  0  0  0  0  0  0  0  0
   16.6158   -5.2672  -17.3498 C   0  0  0  0  0  0  0  0  0  0  0  0
   17.2448   -5.6965  -18.5399 C   0  0  0  0  0  0  0  0  0  0  0  0
   16.6019   -6.7443  -19.0580 N   0  0  0  0  0  0  0  0  0  0  0  0
   15.5759   -7.0046  -18.2375 C   0  0  0  0  0  0  0  0  0  0  0  0
   15.5928   -6.1234  -17.2277 N   0  0  0  0  0  0  0  0  0  0  0  0
   18.9691   -2.8575  -15.6981 C   0  0  0  0  0  0  0  0  0  0  0  0
   18.7459   -1.7192  -16.2197 O   0  0  0  0  0  0  0  0  0  0  0  0
   19.5824   -2.9333  -14.4739 O   0  0  0  0  0  0  0  0  0  0  0  0
  2  3  2  0
  2  1  1  0
  4  2  1  0
  5  4  1  0
  5  6  1  1
  7  8  2  0
  7  5  1  0
  9  7  1  0
 10  9  1  0
 10 11  1  6
 12 11  1  0
 13 12  2  0
 14 10  1  0
 14 17  1  0
 15 14  2  0
 16 12  1  0
 18 17  1  0
 18 25  1  0
 18 19  1  1
 20 19  1  0
 21 20  2  0
 22 21  1  0
 23 22  1  0
 23 24  2  0
 24 20  1  0
 25 27  1  0
 26 25  2  0
M  END
$$$$
