NDH.pdb
     RDKit          3D

 27 27  0  0  1  0  0  0  0  0999 V2000
   30.8401  -31.4060  -16.4161 N   0  0  0  0  0  0  0  0  0  0  0  0
   29.4341  -31.2857  -16.5796 C   0  0  0  0  0  0  0  0  0  0  0  0
   28.7010  -31.5248  -15.5884 O   0  0  0  0  0  0  0  0  0  0  0  0
   28.7732  -30.8975  -17.8392 C   0  0  0  0  0  0  0  0  0  0  0  0
   27.9587  -29.6292  -17.6892 C   0  0  2  0  0  0  0  0  0  0  0  0
   28.5007  -28.7660  -16.6614 N   0  0  0  0  0  0  0  0  0  0  0  0
   26.5475  -29.9191  -17.3539 C   0  0  0  0  0  0  0  0  0  0  0  0
   25.6529  -29.0816  -17.6185 O   0  0  0  0  0  0  0  0  0  0  0  0
   26.1493  -31.1451  -16.7248 N   0  0  0  0  0  0  0  0  0  0  0  0
   24.7597  -31.4592  -16.4739 C   0  0  1  0  0  0  0  0  0  0  0  0
   24.2235  -32.3992  -17.5179 C   0  0  0  0  0  0  0  0  0  0  0  0
   22.7582  -32.5888  -17.4291 C   0  0  0  0  0  0  0  0  0  0  0  0
   21.9933  -31.8794  -16.7359 O   0  0  0  0  0  0  0  0  0  0  0  0
   24.6126  -32.1532  -15.1529 C   0  0  0  0  0  0  0  0  0  0  0  0
   25.5748  -32.1981  -14.3528 O   0  0  0  0  0  0  0  0  0  0  0  0
   22.1981  -33.6166  -18.1598 O   0  0  0  0  0  0  0  0  0  0  0  0
   23.4022  -32.7745  -14.7635 N   0  0  0  0  0  0  0  0  0  0  0  0
   23.0586  -33.0352  -13.3548 C   0  0  1  0  0  0  0  0  0  0  0  0
   23.6058  -31.9632  -12.4795 C   0  0  0  0  0  0  0  0  0  0  0  0
   24.6892  -32.4749  -11.6203 C   0  0  0  0  0  0  0  0  0  0  0  0
   25.1281  -33.8178  -11.6187 C   0  0  0  0  0  0  0  0  0  0  0  0
   26.1189  -33.9860  -10.7413 N   0  0  0  0  0  0  0  0  0  0  0  0
   26.3330  -32.7910  -10.1760 C   0  0  0  0  0  0  0  0  0  0  0  0
   25.4803  -31.9016  -10.7038 N   0  0  0  0  0  0  0  0  0  0  0  0
   21.5503  -32.9498  -13.3051 C   0  0  0  0  0  0  0  0  0  0  0  0
   20.8592  -33.9031  -12.8242 O   0  0  0  0  0  0  0  0  0  0  0  0
   20.9197  -31.8300  -13.7834 O   0  0  0  0  0  0  0  0  0  0  0  0
  2  3  2  0
  2  1  1  0
  4  2  1  0
  5  4  1  0
  5  6  1  1
  7  8  2  0
  7  5  1  0
  9  7  1  0
 10  9  1  0
 10 11  1  6
 12 11  1  0
 13 12  2  0
 14 10  1  0
 14 17  1  0
 15 14  2  0
 16 12  1  0
 18 17  1  0
 18 25  1  0
 18 19  1  1
 20 19  1  0
 21 20  2  0
 22 21  1  0
 23 22  1  0
 23 24  2  0
 24 20  1  0
 25 27  1  0
 26 25  2  0
M  END
$$$$
