LVC.pdb
     RDKit          3D

 22 21  0  0  1  0  0  0  0  0999 V2000
    9.6767  -13.3517   19.5287 C   0  0  0  0  0  0  0  0  0  0  0  0
    8.2572  -13.6467   19.0886 C   0  0  2  0  0  0  0  0  0  0  0  0
    7.6121  -12.3212   18.6680 C   0  0  0  0  0  0  0  0  0  0  0  0
    7.4856  -14.2066   20.2557 C   0  0  0  0  0  0  0  0  0  0  0  0
    8.0716  -15.4930   20.7804 C   0  0  2  0  0  0  0  0  0  0  0  0
    7.6046  -16.5833   19.9511 N   0  0  0  0  0  0  0  0  0  0  0  0
    7.5105  -15.6900   22.1650 C   0  0  0  0  0  0  0  0  0  0  0  0
    6.3231  -15.3705   22.4541 O   0  0  0  0  0  0  0  0  0  0  0  0
    6.9773  -18.5961   23.9731 C   0  0  0  0  0  0  0  0  0  0  0  0
    7.9400  -17.8601   24.9343 C   0  0  2  0  0  0  0  0  0  0  0  0
    7.4205  -18.1805   26.3136 C   0  0  0  0  0  0  0  0  0  0  0  0
    7.7998  -16.4012   24.5803 C   0  0  2  0  0  0  0  0  0  0  0  0
    8.3116  -16.2503   23.1972 N   0  0  0  0  0  0  0  0  0  0  0  0
    8.5344  -15.4831   25.4796 C   0  0  0  0  0  0  0  0  0  0  0  0
    9.8147  -15.5184   25.4242 O   0  0  0  0  0  0  0  0  0  0  0  0
    7.9952  -14.5745   26.3872 N   0  0  0  0  0  0  0  0  0  0  0  0
    8.7289  -13.6339   27.2121 C   0  0  1  0  0  0  0  0  0  0  0  0
    7.8979  -12.5363   27.7788 C   0  0  0  0  0  0  0  0  0  0  0  0
    6.1795  -12.6675   27.2013 S   0  0  0  0  0  0  0  0  0  0  0  0
    9.4027  -14.3233   28.3435 C   0  0  0  0  0  0  0  0  0  0  0  0
   10.3720  -13.6541   29.0858 O   0  0  0  0  0  0  0  0  0  0  0  0
    9.1371  -15.5021   28.6721 O   0  0  0  0  0  0  0  0  0  0  0  0
  2  3  1  1
  2  1  1  0
  4  5  1  0
  4  2  1  0
  5  7  1  0
  5  6  1  6
  7 13  1  0
  8  7  2  0
 10  9  1  6
 10 12  1  0
 10 11  1  0
 12 13  1  6
 14 15  2  0
 14 12  1  0
 16 14  1  0
 17 16  1  0
 17 20  1  0
 17 18  1  1
 19 18  1  0
 20 21  1  0
 22 20  2  0
M  END
$$$$
