LVC.pdb
     RDKit          3D

 22 21  0  0  1  0  0  0  0  0999 V2000
    5.4356  -17.2451   20.6710 C   0  0  0  0  0  0  0  0  0  0  0  0
    6.9354  -17.4071   20.5296 C   0  0  2  0  0  0  0  0  0  0  0  0
    7.2612  -18.8981   20.6737 C   0  0  0  0  0  0  0  0  0  0  0  0
    7.6194  -16.6569   21.6433 C   0  0  0  0  0  0  0  0  0  0  0  0
    7.2308  -15.2008   21.6918 C   0  0  2  0  0  0  0  0  0  0  0  0
    7.7341  -14.5503   20.5010 N   0  0  0  0  0  0  0  0  0  0  0  0
    7.9388  -14.6042   22.8807 C   0  0  0  0  0  0  0  0  0  0  0  0
    9.1615  -14.2897   22.8389 O   0  0  0  0  0  0  0  0  0  0  0  0
    6.5073  -11.9857   25.3747 C   0  0  0  0  0  0  0  0  0  0  0  0
    6.9211  -13.2372   26.1840 C   0  0  2  0  0  0  0  0  0  0  0  0
    7.5036  -12.6890   27.4627 C   0  0  0  0  0  0  0  0  0  0  0  0
    7.9463  -13.9324   25.3245 C   0  0  2  0  0  0  0  0  0  0  0  0
    7.2409  -14.3736   24.0976 N   0  0  0  0  0  0  0  0  0  0  0  0
    8.5904  -15.0994   25.9684 C   0  0  0  0  0  0  0  0  0  0  0  0
    7.8259  -16.0736   26.3000 O   0  0  0  0  0  0  0  0  0  0  0  0
    9.9421  -15.2680   26.2586 N   0  0  0  0  0  0  0  0  0  0  0  0
   10.5830  -16.4807   26.7299 C   0  0  1  0  0  0  0  0  0  0  0  0
   12.0219  -16.5959   26.3657 C   0  0  0  0  0  0  0  0  0  0  0  0
   12.8939  -15.0346   26.6904 S   0  0  0  0  0  0  0  0  0  0  0  0
   10.4776  -16.6048   28.2073 C   0  0  0  0  0  0  0  0  0  0  0  0
   10.8428  -17.7943   28.8318 O   0  0  0  0  0  0  0  0  0  0  0  0
   10.0687  -15.6728   28.9370 O   0  0  0  0  0  0  0  0  0  0  0  0
  2  3  1  1
  2  1  1  0
  4  5  1  0
  4  2  1  0
  5  7  1  0
  5  6  1  6
  7 13  1  0
  8  7  2  0
 10  9  1  6
 10 12  1  0
 10 11  1  0
 12 13  1  6
 14 15  2  0
 14 12  1  0
 16 14  1  0
 17 16  1  0
 17 20  1  0
 17 18  1  1
 19 18  1  0
 20 21  1  0
 22 20  2  0
M  END
$$$$
