LVC.pdb
     RDKit          3D

 22 21  0  0  1  0  0  0  0  0999 V2000
    6.1704  -19.7589   28.1083 C   0  0  0  0  0  0  0  0  0  0  0  0
    6.8176  -20.4554   26.9286 C   0  0  2  0  0  0  0  0  0  0  0  0
    8.0904  -21.1453   27.4324 C   0  0  0  0  0  0  0  0  0  0  0  0
    7.2057  -19.4248   25.8999 C   0  0  0  0  0  0  0  0  0  0  0  0
    6.0411  -18.5772   25.4536 C   0  0  2  0  0  0  0  0  0  0  0  0
    5.3747  -19.2505   24.3596 N   0  0  0  0  0  0  0  0  0  0  0  0
    6.6210  -17.2916   24.9230 C   0  0  0  0  0  0  0  0  0  0  0  0
    6.9392  -17.1559   23.7082 O   0  0  0  0  0  0  0  0  0  0  0  0
    5.8233  -13.5159   26.1054 C   0  0  0  0  0  0  0  0  0  0  0  0
    7.3021  -13.8990   26.3480 C   0  0  2  0  0  0  0  0  0  0  0  0
    8.0740  -12.6324   26.0743 C   0  0  0  0  0  0  0  0  0  0  0  0
    7.5893  -14.9878   25.3453 C   0  0  2  0  0  0  0  0  0  0  0  0
    6.8265  -16.1803   25.7855 N   0  0  0  0  0  0  0  0  0  0  0  0
    9.0221  -15.3385   25.2209 C   0  0  0  0  0  0  0  0  0  0  0  0
    9.6251  -15.7019   26.2922 O   0  0  0  0  0  0  0  0  0  0  0  0
    9.8011  -15.3224   24.0665 N   0  0  0  0  0  0  0  0  0  0  0  0
   11.0878  -15.9652   23.8797 C   0  0  1  0  0  0  0  0  0  0  0  0
   11.3698  -16.3782   22.4775 C   0  0  0  0  0  0  0  0  0  0  0  0
   10.1680  -15.6346   21.3345 S   0  0  0  0  0  0  0  0  0  0  0  0
   12.1985  -15.0836   24.3252 C   0  0  0  0  0  0  0  0  0  0  0  0
   11.9236  -13.7967   24.7796 O   0  0  0  0  0  0  0  0  0  0  0  0
   13.3968  -15.4470   24.3137 O   0  0  0  0  0  0  0  0  0  0  0  0
  2  3  1  1
  2  1  1  0
  4  5  1  0
  4  2  1  0
  5  7  1  0
  5  6  1  6
  7 13  1  0
  8  7  2  0
 10  9  1  6
 10 12  1  0
 10 11  1  0
 12 13  1  1
 14 15  2  0
 14 12  1  0
 16 14  1  0
 17 16  1  0
 17 20  1  0
 17 18  1  6
 19 18  1  0
 20 21  1  0
 22 20  2  0
M  END
$$$$
