LVC.pdb
     RDKit          3D

 22 21  0  0  1  0  0  0  0  0999 V2000
    5.8738  -12.2611   26.1121 C   0  0  0  0  0  0  0  0  0  0  0  0
    6.5780  -13.0761   27.1777 C   0  0  2  0  0  0  0  0  0  0  0  0
    7.6773  -12.1992   27.7880 C   0  0  0  0  0  0  0  0  0  0  0  0
    7.2235  -14.2761   26.5342 C   0  0  0  0  0  0  0  0  0  0  0  0
    6.3346  -14.9409   25.5136 C   0  0  2  0  0  0  0  0  0  0  0  0
    5.5430  -15.9516   26.1817 N   0  0  0  0  0  0  0  0  0  0  0  0
    7.2454  -15.6366   24.5353 C   0  0  0  0  0  0  0  0  0  0  0  0
    7.7360  -16.7754   24.7760 O   0  0  0  0  0  0  0  0  0  0  0  0
    6.9157  -15.1107   20.6210 C   0  0  0  0  0  0  0  0  0  0  0  0
    8.3905  -14.9137   21.0435 C   0  0  2  0  0  0  0  0  0  0  0  0
    9.1931  -15.5354   19.9280 C   0  0  0  0  0  0  0  0  0  0  0  0
    8.5229  -15.6608   22.3465 C   0  0  2  0  0  0  0  0  0  0  0  0
    7.5805  -15.0236   23.2971 N   0  0  0  0  0  0  0  0  0  0  0  0
    9.8870  -15.6456   22.9213 C   0  0  0  0  0  0  0  0  0  0  0  0
   10.3543  -14.5055   23.2751 O   0  0  0  0  0  0  0  0  0  0  0  0
   10.7317  -16.7336   23.1275 N   0  0  0  0  0  0  0  0  0  0  0  0
   12.0769  -16.6966   23.6683 C   0  0  1  0  0  0  0  0  0  0  0  0
   12.3631  -17.7556   24.6747 C   0  0  0  0  0  0  0  0  0  0  0  0
   11.1171  -17.7384   25.9978 S   0  0  0  0  0  0  0  0  0  0  0  0
   13.0930  -16.8095   22.5893 C   0  0  0  0  0  0  0  0  0  0  0  0
   14.4207  -16.4809   22.8491 O   0  0  0  0  0  0  0  0  0  0  0  0
   12.8106  -17.1949   21.4318 O   0  0  0  0  0  0  0  0  0  0  0  0
  2  3  1  6
  2  1  1  0
  4  5  1  0
  4  2  1  0
  5  7  1  0
  5  6  1  1
  7 13  1  0
  8  7  2  0
 10  9  1  6
 10 12  1  0
 10 11  1  0
 12 13  1  1
 14 15  2  0
 14 12  1  0
 16 14  1  0
 17 16  1  0
 17 20  1  0
 17 18  1  1
 19 18  1  0
 20 21  1  0
 22 20  2  0
M  END
$$$$
