LVC.pdb
     RDKit          3D

 22 21  0  0  1  0  0  0  0  0999 V2000
    9.2389  -13.9500   19.4357 C   0  0  0  0  0  0  0  0  0  0  0  0
    7.7592  -13.6638   19.5910 C   0  0  2  0  0  0  0  0  0  0  0  0
    7.4834  -12.2820   18.9871 C   0  0  0  0  0  0  0  0  0  0  0  0
    7.4161  -13.6234   21.0578 C   0  0  0  0  0  0  0  0  0  0  0  0
    7.7380  -14.9136   21.7689 C   0  0  2  0  0  0  0  0  0  0  0  0
    6.5021  -15.6271   22.0093 N   0  0  0  0  0  0  0  0  0  0  0  0
    8.3232  -14.5358   23.1051 C   0  0  0  0  0  0  0  0  0  0  0  0
    9.4906  -14.0653   23.2119 O   0  0  0  0  0  0  0  0  0  0  0  0
    6.7670  -12.3008   25.5070 C   0  0  0  0  0  0  0  0  0  0  0  0
    7.0100  -13.5791   26.3433 C   0  0  2  0  0  0  0  0  0  0  0  0
    7.4338  -13.0727   27.6994 C   0  0  0  0  0  0  0  0  0  0  0  0
    8.1128  -14.3105   25.6207 C   0  0  2  0  0  0  0  0  0  0  0  0
    7.5672  -14.6985   24.2980 N   0  0  0  0  0  0  0  0  0  0  0  0
    8.6053  -15.5170   26.3230 C   0  0  0  0  0  0  0  0  0  0  0  0
    7.7322  -16.4012   26.6382 O   0  0  0  0  0  0  0  0  0  0  0  0
    9.9180  -15.8102   26.6846 N   0  0  0  0  0  0  0  0  0  0  0  0
   10.3844  -17.0048   27.3620 C   0  0  1  0  0  0  0  0  0  0  0  0
   11.6780  -17.5351   26.8501 C   0  0  0  0  0  0  0  0  0  0  0  0
   11.6950  -17.5434   25.0327 S   0  0  0  0  0  0  0  0  0  0  0  0
   10.5361  -16.7701   28.8218 C   0  0  0  0  0  0  0  0  0  0  0  0
   10.8554  -17.8303   29.6658 O   0  0  0  0  0  0  0  0  0  0  0  0
   10.3891  -15.6416   29.3444 O   0  0  0  0  0  0  0  0  0  0  0  0
  2  3  1  1
  2  1  1  0
  4  5  1  0
  4  2  1  0
  5  7  1  0
  5  6  1  1
  7 13  1  0
  8  7  2  0
 10  9  1  6
 10 12  1  0
 10 11  1  0
 12 13  1  6
 14 15  2  0
 14 12  1  0
 16 14  1  0
 17 16  1  0
 17 20  1  0
 17 18  1  6
 19 18  1  0
 20 21  1  0
 22 20  2  0
M  END
$$$$
