LVC.pdb
     RDKit          3D

 22 21  0  0  1  0  0  0  0  0999 V2000
    7.8736  -18.3709   28.4558 C   0  0  0  0  0  0  0  0  0  0  0  0
    6.9404  -19.0900   27.5030 C   0  0  2  0  0  0  0  0  0  0  0  0
    6.7584  -20.5226   28.0175 C   0  0  0  0  0  0  0  0  0  0  0  0
    7.5775  -19.1477   26.1386 C   0  0  0  0  0  0  0  0  0  0  0  0
    6.5857  -18.9429   25.0215 C   0  0  2  0  0  0  0  0  0  0  0  0
    6.1932  -20.2391   24.5113 N   0  0  0  0  0  0  0  0  0  0  0  0
    7.3164  -18.2140   23.9235 C   0  0  0  0  0  0  0  0  0  0  0  0
    8.0572  -18.8207   23.0997 O   0  0  0  0  0  0  0  0  0  0  0  0
    6.1732  -15.1602   21.6059 C   0  0  0  0  0  0  0  0  0  0  0  0
    7.3274  -14.7521   22.5512 C   0  0  2  0  0  0  0  0  0  0  0  0
    8.1580  -13.7860   21.7439 C   0  0  0  0  0  0  0  0  0  0  0  0
    8.0538  -16.0384   22.8528 C   0  0  2  0  0  0  0  0  0  0  0  0
    7.1889  -16.8053   23.7809 N   0  0  0  0  0  0  0  0  0  0  0  0
    9.3896  -15.8546   23.4637 C   0  0  0  0  0  0  0  0  0  0  0  0
    9.4200  -15.4810   24.6896 O   0  0  0  0  0  0  0  0  0  0  0  0
   10.6306  -16.0427   22.8599 N   0  0  0  0  0  0  0  0  0  0  0  0
   11.9225  -16.0544   23.5189 C   0  0  1  0  0  0  0  0  0  0  0  0
   12.1078  -17.1707   24.4864 C   0  0  0  0  0  0  0  0  0  0  0  0
   13.7141  -17.0334   25.3259 S   0  0  0  0  0  0  0  0  0  0  0  0
   13.0297  -16.1229   22.5296 C   0  0  0  0  0  0  0  0  0  0  0  0
   14.3370  -15.8635   22.9320 O   0  0  0  0  0  0  0  0  0  0  0  0
   12.8437  -16.4096   21.3249 O   0  0  0  0  0  0  0  0  0  0  0  0
  2  3  1  1
  2  1  1  0
  4  5  1  0
  4  2  1  0
  5  7  1  0
  5  6  1  6
  7 13  1  0
  8  7  2  0
 10  9  1  6
 10 12  1  0
 10 11  1  0
 12 13  1  1
 14 15  2  0
 14 12  1  0
 16 14  1  0
 17 16  1  0
 17 20  1  0
 17 18  1  1
 19 18  1  0
 20 21  1  0
 22 20  2  0
M  END
$$$$
