LVC.pdb
     RDKit          3D

 22 21  0  0  1  0  0  0  0  0999 V2000
    8.0386  -12.4864   27.2920 C   0  0  0  0  0  0  0  0  0  0  0  0
    6.9694  -12.6854   26.2370 C   0  0  2  0  0  0  0  0  0  0  0  0
    5.8388  -11.6902   26.5223 C   0  0  0  0  0  0  0  0  0  0  0  0
    6.4182  -14.0832   26.3512 C   0  0  0  0  0  0  0  0  0  0  0  0
    7.3932  -15.1356   25.8870 C   0  0  2  0  0  0  0  0  0  0  0  0
    8.7361  -14.6731   26.1647 N   0  0  0  0  0  0  0  0  0  0  0  0
    7.2379  -15.2387   24.3917 C   0  0  0  0  0  0  0  0  0  0  0  0
    6.1957  -15.7166   23.8618 O   0  0  0  0  0  0  0  0  0  0  0  0
    7.0285  -13.0866   21.7215 C   0  0  0  0  0  0  0  0  0  0  0  0
    8.3312  -13.8242   21.3326 C   0  0  2  0  0  0  0  0  0  0  0  0
    8.2376  -14.0008   19.8375 C   0  0  0  0  0  0  0  0  0  0  0  0
    8.2739  -15.1317   22.0812 C   0  0  2  0  0  0  0  0  0  0  0  0
    8.2726  -14.7932   23.5245 N   0  0  0  0  0  0  0  0  0  0  0  0
    9.3993  -16.0489   21.7919 C   0  0  0  0  0  0  0  0  0  0  0  0
   10.5104  -15.8079   22.3842 O   0  0  0  0  0  0  0  0  0  0  0  0
    9.3949  -17.1550   20.9456 N   0  0  0  0  0  0  0  0  0  0  0  0
   10.5131  -18.0338   20.6615 C   0  0  1  0  0  0  0  0  0  0  0  0
   10.6661  -19.1621   21.6207 C   0  0  0  0  0  0  0  0  0  0  0  0
    9.2131  -19.2846   22.7058 S   0  0  0  0  0  0  0  0  0  0  0  0
   10.4097  -18.6105   19.2954 C   0  0  0  0  0  0  0  0  0  0  0  0
    9.2951  -18.3345   18.5081 O   0  0  0  0  0  0  0  0  0  0  0  0
   11.2941  -19.3482   18.8039 O   0  0  0  0  0  0  0  0  0  0  0  0
  2  3  1  1
  2  1  1  0
  4  5  1  0
  4  2  1  0
  5  7  1  0
  5  6  1  6
  7 13  1  0
  8  7  2  0
 10  9  1  1
 10 12  1  0
 10 11  1  0
 12 13  1  1
 14 15  2  0
 14 12  1  0
 16 14  1  0
 17 16  1  0
 17 20  1  0
 17 18  1  1
 19 18  1  0
 20 21  1  0
 22 20  2  0
M  END
$$$$
