LVC.pdb
     RDKit          3D

 22 21  0  0  1  0  0  0  0  0999 V2000
    6.2560  -18.0433   20.8527 C   0  0  0  0  0  0  0  0  0  0  0  0
    7.7669  -18.1140   20.9430 C   0  0  2  0  0  0  0  0  0  0  0  0
    8.1481  -19.5565   21.2952 C   0  0  0  0  0  0  0  0  0  0  0  0
    8.2372  -17.2091   22.0524 C   0  0  0  0  0  0  0  0  0  0  0  0
    7.7684  -15.7859   21.8840 C   0  0  2  0  0  0  0  0  0  0  0  0
    8.3742  -15.2404   20.6883 N   0  0  0  0  0  0  0  0  0  0  0  0
    8.2972  -15.0143   23.0655 C   0  0  0  0  0  0  0  0  0  0  0  0
    9.5089  -14.6668   23.1455 O   0  0  0  0  0  0  0  0  0  0  0  0
    6.5966  -11.9743   24.8622 C   0  0  0  0  0  0  0  0  0  0  0  0
    6.7876  -13.1297   25.8727 C   0  0  2  0  0  0  0  0  0  0  0  0
    7.1117  -12.4456   27.1773 C   0  0  0  0  0  0  0  0  0  0  0  0
    7.9428  -13.9319   25.3295 C   0  0  2  0  0  0  0  0  0  0  0  0
    7.4355  -14.6495   24.1356 N   0  0  0  0  0  0  0  0  0  0  0  0
    8.5093  -14.9087   26.2868 C   0  0  0  0  0  0  0  0  0  0  0  0
    7.7405  -15.8623   26.6652 O   0  0  0  0  0  0  0  0  0  0  0  0
    9.7918  -14.9168   26.8300 N   0  0  0  0  0  0  0  0  0  0  0  0
   10.3286  -15.8805   27.7716 C   0  0  1  0  0  0  0  0  0  0  0  0
   11.6334  -16.4723   27.3673 C   0  0  0  0  0  0  0  0  0  0  0  0
   11.6169  -16.9223   25.6064 S   0  0  0  0  0  0  0  0  0  0  0  0
   10.5022  -15.2764   29.1185 C   0  0  0  0  0  0  0  0  0  0  0  0
   10.2361  -13.9236   29.3120 O   0  0  0  0  0  0  0  0  0  0  0  0
   10.8834  -15.9366   30.1119 O   0  0  0  0  0  0  0  0  0  0  0  0
  2  3  1  1
  2  1  1  0
  4  5  1  0
  4  2  1  0
  5  7  1  0
  5  6  1  6
  7 13  1  0
  8  7  2  0
 10  9  1  6
 10 12  1  0
 10 11  1  0
 12 13  1  6
 14 15  2  0
 14 12  1  0
 16 14  1  0
 17 16  1  0
 17 20  1  0
 17 18  1  6
 19 18  1  0
 20 21  1  0
 22 20  2  0
M  END
$$$$
