LVC.pdb
     RDKit          3D

 22 21  0  0  1  0  0  0  0  0999 V2000
    5.5835  -12.1827   26.1587 C   0  0  0  0  0  0  0  0  0  0  0  0
    6.4512  -12.9717   27.1179 C   0  0  2  0  0  0  0  0  0  0  0  0
    7.4198  -11.9907   27.7885 C   0  0  0  0  0  0  0  0  0  0  0  0
    7.2541  -13.9818   26.3395 C   0  0  0  0  0  0  0  0  0  0  0  0
    6.3952  -14.8703   25.4755 C   0  0  2  0  0  0  0  0  0  0  0  0
    5.8327  -15.9142   26.3051 N   0  0  0  0  0  0  0  0  0  0  0  0
    7.3155  -15.5189   24.4739 C   0  0  0  0  0  0  0  0  0  0  0  0
    7.8752  -16.6276   24.7042 O   0  0  0  0  0  0  0  0  0  0  0  0
    6.7791  -14.9911   20.6218 C   0  0  0  0  0  0  0  0  0  0  0  0
    8.2786  -14.7759   20.9344 C   0  0  2  0  0  0  0  0  0  0  0  0
    9.0048  -15.4136   19.7764 C   0  0  0  0  0  0  0  0  0  0  0  0
    8.5094  -15.4966   22.2385 C   0  0  2  0  0  0  0  0  0  0  0  0
    7.5811  -14.8942   23.2249 N   0  0  0  0  0  0  0  0  0  0  0  0
    9.8963  -15.4045   22.7480 C   0  0  0  0  0  0  0  0  0  0  0  0
   10.1464  -14.4629   23.5813 O   0  0  0  0  0  0  0  0  0  0  0  0
   10.9729  -16.2281   22.4281 N   0  0  0  0  0  0  0  0  0  0  0  0
   11.9917  -16.7157   23.3379 C   0  0  1  0  0  0  0  0  0  0  0  0
   11.4695  -17.5538   24.4521 C   0  0  0  0  0  0  0  0  0  0  0  0
   11.8272  -16.7825   26.0585 S   0  0  0  0  0  0  0  0  0  0  0  0
   13.0206  -17.5098   22.6167 C   0  0  0  0  0  0  0  0  0  0  0  0
   14.3483  -17.4671   23.0333 O   0  0  0  0  0  0  0  0  0  0  0  0
   12.7488  -18.2330   21.6311 O   0  0  0  0  0  0  0  0  0  0  0  0
  2  3  1  6
  2  1  1  0
  4  5  1  0
  4  2  1  0
  5  7  1  0
  5  6  1  1
  7 13  1  0
  8  7  2  0
 10  9  1  6
 10 12  1  0
 10 11  1  0
 12 13  1  1
 14 15  2  0
 14 12  1  0
 16 14  1  0
 17 16  1  0
 17 20  1  0
 17 18  1  1
 19 18  1  0
 20 21  1  0
 22 20  2  0
M  END
$$$$
