LVC.pdb
     RDKit          3D

 22 21  0  0  1  0  0  0  0  0999 V2000
    8.0746  -14.6334   18.7455 C   0  0  0  0  0  0  0  0  0  0  0  0
    7.4688  -13.6275   19.7030 C   0  0  2  0  0  0  0  0  0  0  0  0
    7.5079  -12.2531   19.0252 C   0  0  0  0  0  0  0  0  0  0  0  0
    8.3079  -13.5699   20.9534 C   0  0  0  0  0  0  0  0  0  0  0  0
    8.2352  -14.8386   21.7649 C   0  0  2  0  0  0  0  0  0  0  0  0
    6.8500  -15.2475   21.8566 N   0  0  0  0  0  0  0  0  0  0  0  0
    8.7093  -14.4915   23.1525 C   0  0  0  0  0  0  0  0  0  0  0  0
    9.8527  -13.9970   23.3614 O   0  0  0  0  0  0  0  0  0  0  0  0
    6.9673  -12.3761   25.4749 C   0  0  0  0  0  0  0  0  0  0  0  0
    7.1690  -13.6587   26.3155 C   0  0  2  0  0  0  0  0  0  0  0  0
    7.5097  -13.1593   27.6974 C   0  0  0  0  0  0  0  0  0  0  0  0
    8.3166  -14.3786   25.6538 C   0  0  2  0  0  0  0  0  0  0  0  0
    7.8712  -14.7116   24.2796 N   0  0  0  0  0  0  0  0  0  0  0  0
    8.7401  -15.6161   26.3471 C   0  0  0  0  0  0  0  0  0  0  0  0
    7.8258  -16.4755   26.6095 O   0  0  0  0  0  0  0  0  0  0  0  0
   10.0271  -15.9628   26.7513 N   0  0  0  0  0  0  0  0  0  0  0  0
   10.4232  -17.1792   27.4346 C   0  0  1  0  0  0  0  0  0  0  0  0
   11.7610  -17.6981   27.0380 C   0  0  0  0  0  0  0  0  0  0  0  0
   11.9703  -17.6238   25.2341 S   0  0  0  0  0  0  0  0  0  0  0  0
   10.4287  -16.9898   28.9088 C   0  0  0  0  0  0  0  0  0  0  0  0
   10.6107  -18.0853   29.7486 O   0  0  0  0  0  0  0  0  0  0  0  0
   10.2755  -15.8698   29.4476 O   0  0  0  0  0  0  0  0  0  0  0  0
  2  3  1  6
  2  1  1  0
  4  5  1  0
  4  2  1  0
  5  7  1  0
  5  6  1  1
  7 13  1  0
  8  7  2  0
 10  9  1  6
 10 12  1  0
 10 11  1  0
 12 13  1  6
 14 15  2  0
 14 12  1  0
 16 14  1  0
 17 16  1  0
 17 20  1  0
 17 18  1  6
 19 18  1  0
 20 21  1  0
 22 20  2  0
M  END
$$$$
