KQG.pdb
     RDKit          3D

 23 22  0  0  1  0  0  0  0  0999 V2000
   18.7242  -12.9081  -16.6626 N   0  0  0  0  0  0  0  0  0  0  0  0
   19.9412  -12.2169  -17.0215 C   0  0  1  0  0  0  0  0  0  0  0  0
   20.3474  -12.7032  -18.3928 C   0  0  0  0  0  0  0  0  0  0  0  0
   21.3083  -13.8548  -18.1906 C   0  0  0  0  0  0  0  0  0  0  0  0
   21.7659  -14.4541  -19.4835 C   0  0  0  0  0  0  0  0  0  0  0  0
   22.7052  -15.6270  -19.2884 C   0  0  0  0  0  0  0  0  0  0  0  0
   22.9227  -16.1955  -20.6236 N   0  0  0  0  0  0  0  0  0  0  0  0
   19.6986  -10.7617  -16.9816 C   0  0  0  0  0  0  0  0  0  0  0  0
   19.1081  -10.2352  -17.9525 O   0  0  0  0  0  0  0  0  0  0  0  0
   15.4394   -8.1136  -16.4912 N   0  0  0  0  0  0  0  0  0  0  0  0
   16.2048   -6.9537  -16.1400 C   0  0  0  0  0  0  0  0  0  0  0  0
   15.5353   -5.8929  -16.0439 O   0  0  0  0  0  0  0  0  0  0  0  0
   17.6574   -7.0156  -15.9076 C   0  0  0  0  0  0  0  0  0  0  0  0
   18.3436   -8.2975  -16.1061 C   0  0  0  0  0  0  0  0  0  0  0  0
   19.7877   -8.4707  -15.9054 C   0  0  2  0  0  0  0  0  0  0  0  0
   20.0998   -9.9382  -15.9037 N   0  0  0  0  0  0  0  0  0  0  0  0
   20.4482   -7.8573  -14.7694 C   0  0  0  0  0  0  0  0  0  0  0  0
   20.3987   -8.4643  -13.6161 O   0  0  0  0  0  0  0  0  0  0  0  0
   21.1800   -6.6578  -14.7228 N   0  0  0  0  0  0  0  0  0  0  0  0
   21.7645   -6.1589  -13.5102 C   0  0  0  0  0  0  0  0  0  0  0  0
   22.3969   -4.8580  -13.5585 C   0  0  0  0  0  0  0  0  0  0  0  0
   22.5694   -4.2232  -14.6073 O   0  0  0  0  0  0  0  0  0  0  0  0
   22.8325   -4.2953  -12.3602 O   0  0  0  0  0  0  0  0  0  0  0  0
  2  1  1  6
  2  8  1  0
  3  2  1  0
  4  3  1  0
  5  4  1  0
  6  7  1  0
  6  5  1  0
  8  9  2  0
 11 12  2  0
 11 10  1  0
 13 11  1  0
 14 13  1  0
 15 14  1  1
 16  8  1  0
 16 15  1  0
 17 19  1  0
 17 15  1  0
 18 17  2  0
 20 19  1  0
 21 23  1  0
 21 20  1  0
 22 21  2  0
M  END
$$$$
