KQG.pdb
     RDKit          3D

 23 22  0  0  1  0  0  0  0  0999 V2000
   28.7642  -22.8082  -16.4553 N   0  0  0  0  0  0  0  0  0  0  0  0
   28.1446  -21.5505  -16.1062 C   0  0  1  0  0  0  0  0  0  0  0  0
   27.8235  -20.8333  -17.3962 C   0  0  0  0  0  0  0  0  0  0  0  0
   29.1151  -20.7206  -18.1768 C   0  0  0  0  0  0  0  0  0  0  0  0
   28.9472  -19.9661  -19.4585 C   0  0  0  0  0  0  0  0  0  0  0  0
   29.0276  -18.4645  -19.2721 C   0  0  0  0  0  0  0  0  0  0  0  0
   28.9320  -17.8858  -20.6172 N   0  0  0  0  0  0  0  0  0  0  0  0
   26.9455  -21.8149  -15.2874 C   0  0  0  0  0  0  0  0  0  0  0  0
   26.3149  -22.8777  -15.4908 O   0  0  0  0  0  0  0  0  0  0  0  0
   26.3035  -20.5133   -9.2700 N   0  0  0  0  0  0  0  0  0  0  0  0
   25.0108  -21.0396   -9.5966 C   0  0  0  0  0  0  0  0  0  0  0  0
   24.2728  -21.2708   -8.6043 O   0  0  0  0  0  0  0  0  0  0  0  0
   24.5923  -21.2797  -10.9876 C   0  0  0  0  0  0  0  0  0  0  0  0
   25.5831  -21.1062  -12.0561 C   0  0  0  0  0  0  0  0  0  0  0  0
   25.2594  -21.2633  -13.4797 C   0  0  2  0  0  0  0  0  0  0  0  0
   26.4777  -20.9288  -14.2889 N   0  0  0  0  0  0  0  0  0  0  0  0
   24.1208  -20.5718  -14.0527 C   0  0  0  0  0  0  0  0  0  0  0  0
   24.2357  -19.3024  -14.3287 O   0  0  0  0  0  0  0  0  0  0  0  0
   22.8564  -21.0893  -14.3844 N   0  0  0  0  0  0  0  0  0  0  0  0
   21.7708  -20.2537  -14.8137 C   0  0  0  0  0  0  0  0  0  0  0  0
   20.6396  -20.1158  -13.9214 C   0  0  0  0  0  0  0  0  0  0  0  0
   20.5794  -20.6570  -12.8096 O   0  0  0  0  0  0  0  0  0  0  0  0
   19.5656  -19.3325  -14.3398 O   0  0  0  0  0  0  0  0  0  0  0  0
  2  1  1  6
  2  8  1  0
  3  2  1  0
  4  3  1  0
  5  4  1  0
  6  7  1  0
  6  5  1  0
  8  9  2  0
 11 12  2  0
 11 10  1  0
 13 11  1  0
 14 13  1  0
 15 14  1  1
 16  8  1  0
 16 15  1  0
 17 19  1  0
 17 15  1  0
 18 17  2  0
 20 19  1  0
 21 23  1  0
 21 20  1  0
 22 21  2  0
M  END
$$$$
