KQG.pdb
     RDKit          3D

 23 22  0  0  1  0  0  0  0  0999 V2000
   18.9765  -16.0357  -15.4394 N   0  0  0  0  0  0  0  0  0  0  0  0
   20.0665  -15.2253  -15.9324 C   0  0  1  0  0  0  0  0  0  0  0  0
   20.8487  -16.0698  -16.9105 C   0  0  0  0  0  0  0  0  0  0  0  0
   21.4945  -17.1860  -16.1184 C   0  0  0  0  0  0  0  0  0  0  0  0
   22.1712  -18.1939  -16.9938 C   0  0  0  0  0  0  0  0  0  0  0  0
   22.8707  -19.2826  -16.2055 C   0  0  0  0  0  0  0  0  0  0  0  0
   23.5001  -20.1592  -17.1999 N   0  0  0  0  0  0  0  0  0  0  0  0
   19.5170  -14.0018  -16.5482 C   0  0  0  0  0  0  0  0  0  0  0  0
   19.2799  -14.0155  -17.7779 O   0  0  0  0  0  0  0  0  0  0  0  0
   14.2281  -12.0453  -16.5016 N   0  0  0  0  0  0  0  0  0  0  0  0
   14.9450  -12.1497  -15.2647 C   0  0  0  0  0  0  0  0  0  0  0  0
   14.2213  -12.3416  -14.2537 O   0  0  0  0  0  0  0  0  0  0  0  0
   16.4121  -12.0445  -15.1993 C   0  0  0  0  0  0  0  0  0  0  0  0
   17.1522  -11.8016  -16.4430 C   0  0  0  0  0  0  0  0  0  0  0  0
   18.6107  -11.6375  -16.4864 C   0  0  2  0  0  0  0  0  0  0  0  0
   19.2471  -12.8206  -15.8182 N   0  0  0  0  0  0  0  0  0  0  0  0
   19.2276  -10.4301  -15.9721 C   0  0  0  0  0  0  0  0  0  0  0  0
   19.3955  -10.3149  -14.6839 O   0  0  0  0  0  0  0  0  0  0  0  0
   19.7076   -9.3179  -16.6857 N   0  0  0  0  0  0  0  0  0  0  0  0
   18.9536   -8.1034  -16.8169 C   0  0  0  0  0  0  0  0  0  0  0  0
   18.5298   -7.4445  -15.6000 C   0  0  0  0  0  0  0  0  0  0  0  0
   17.4049   -7.5892  -15.1035 O   0  0  0  0  0  0  0  0  0  0  0  0
   19.4381   -6.6049  -14.9578 O   0  0  0  0  0  0  0  0  0  0  0  0
  2  1  1  6
  2  8  1  0
  3  2  1  0
  4  3  1  0
  5  4  1  0
  6  7  1  0
  6  5  1  0
  8  9  2  0
 11 12  2  0
 11 10  1  0
 13 11  1  0
 14 13  1  0
 15 14  1  1
 16  8  1  0
 16 15  1  0
 17 19  1  0
 17 15  1  0
 18 17  2  0
 20 19  1  0
 21 23  1  0
 21 20  1  0
 22 21  2  0
M  END
$$$$
