KQG.pdb
     RDKit          3D

 23 22  0  0  1  0  0  0  0  0999 V2000
   21.4998  -14.9392  -17.6266 N   0  0  0  0  0  0  0  0  0  0  0  0
   20.6373  -13.9215  -17.0715 C   0  0  1  0  0  0  0  0  0  0  0  0
   20.0083  -14.4958  -15.8240 C   0  0  0  0  0  0  0  0  0  0  0  0
   19.0826  -15.6093  -16.2639 C   0  0  0  0  0  0  0  0  0  0  0  0
   18.2669  -16.1572  -15.1348 C   0  0  0  0  0  0  0  0  0  0  0  0
   17.1748  -17.0986  -15.6007 C   0  0  0  0  0  0  0  0  0  0  0  0
   16.5540  -17.6302  -14.3820 N   0  0  0  0  0  0  0  0  0  0  0  0
   21.4343  -12.7091  -16.8016 C   0  0  0  0  0  0  0  0  0  0  0  0
   22.2369  -12.7326  -15.8404 O   0  0  0  0  0  0  0  0  0  0  0  0
   22.2530  -10.4726  -21.3048 N   0  0  0  0  0  0  0  0  0  0  0  0
   23.5253  -10.6382  -20.6654 C   0  0  0  0  0  0  0  0  0  0  0  0
   24.4147  -11.1512  -21.3924 O   0  0  0  0  0  0  0  0  0  0  0  0
   23.7588  -10.2301  -19.2702 C   0  0  0  0  0  0  0  0  0  0  0  0
   22.6266   -9.7112  -18.4942 C   0  0  0  0  0  0  0  0  0  0  0  0
   22.1676  -10.3251  -17.2418 C   0  0  2  0  0  0  0  0  0  0  0  0
   21.3346  -11.5280  -17.5736 N   0  0  0  0  0  0  0  0  0  0  0  0
   21.4610   -9.5330  -16.2537 C   0  0  0  0  0  0  0  0  0  0  0  0
   20.1616   -9.4527  -16.3311 O   0  0  0  0  0  0  0  0  0  0  0  0
   21.9873   -8.8154  -15.1653 N   0  0  0  0  0  0  0  0  0  0  0  0
   21.1629   -8.0355  -14.2861 C   0  0  0  0  0  0  0  0  0  0  0  0
   20.6491   -6.7797  -14.7898 C   0  0  0  0  0  0  0  0  0  0  0  0
   20.8325   -6.3847  -15.9488 O   0  0  0  0  0  0  0  0  0  0  0  0
   19.9107   -5.9774  -13.9219 O   0  0  0  0  0  0  0  0  0  0  0  0
  2  1  1  1
  2  8  1  0
  3  2  1  0
  4  3  1  0
  5  4  1  0
  6  7  1  0
  6  5  1  0
  8  9  2  0
 11 12  2  0
 11 10  1  0
 13 11  1  0
 14 13  1  0
 15 14  1  6
 16  8  1  0
 16 15  1  0
 17 19  1  0
 17 15  1  0
 18 17  2  0
 20 19  1  0
 21 23  1  0
 21 20  1  0
 22 21  2  0
M  END
$$$$
