KQG.pdb
     RDKit          3D

 23 22  0  0  1  0  0  0  0  0999 V2000
   27.2274  -22.6477  -16.6767 N   0  0  0  0  0  0  0  0  0  0  0  0
   26.4594  -21.4417  -16.4675 C   0  0  1  0  0  0  0  0  0  0  0  0
   25.7815  -21.1072  -17.7753 C   0  0  0  0  0  0  0  0  0  0  0  0
   26.8520  -20.5924  -18.7131 C   0  0  0  0  0  0  0  0  0  0  0  0
   26.8488  -19.0998  -18.8236 C   0  0  0  0  0  0  0  0  0  0  0  0
   27.8137  -18.5854  -19.8725 C   0  0  0  0  0  0  0  0  0  0  0  0
   27.6990  -17.1228  -19.8429 N   0  0  0  0  0  0  0  0  0  0  0  0
   25.4996  -21.6661  -15.3691 C   0  0  0  0  0  0  0  0  0  0  0  0
   24.6202  -22.5442  -15.5243 O   0  0  0  0  0  0  0  0  0  0  0  0
   26.5911  -20.5560   -9.2419 N   0  0  0  0  0  0  0  0  0  0  0  0
   25.1956  -20.8838   -9.2484 C   0  0  0  0  0  0  0  0  0  0  0  0
   24.6759  -20.9872   -8.1074 O   0  0  0  0  0  0  0  0  0  0  0  0
   24.4426  -21.0753  -10.4991 C   0  0  0  0  0  0  0  0  0  0  0  0
   25.1713  -21.0110  -11.7712 C   0  0  0  0  0  0  0  0  0  0  0  0
   24.5264  -21.2217  -13.0734 C   0  0  2  0  0  0  0  0  0  0  0  0
   25.5264  -20.9395  -14.1558 N   0  0  0  0  0  0  0  0  0  0  0  0
   23.2899  -20.5371  -13.3978 C   0  0  0  0  0  0  0  0  0  0  0  0
   23.3558  -19.3664  -13.9686 O   0  0  0  0  0  0  0  0  0  0  0  0
   21.9680  -20.9699  -13.1933 N   0  0  0  0  0  0  0  0  0  0  0  0
   20.8324  -20.1438  -13.4913 C   0  0  0  0  0  0  0  0  0  0  0  0
   20.1273  -20.3974  -14.7295 C   0  0  0  0  0  0  0  0  0  0  0  0
   20.5236  -21.1973  -15.5873 O   0  0  0  0  0  0  0  0  0  0  0  0
   18.9418  -19.7031  -14.9636 O   0  0  0  0  0  0  0  0  0  0  0  0
  2  1  1  6
  2  8  1  0
  3  2  1  0
  4  3  1  0
  5  4  1  0
  6  7  1  0
  6  5  1  0
  8  9  2  0
 11 12  2  0
 11 10  1  0
 13 11  1  0
 14 13  1  0
 15 14  1  1
 16  8  1  0
 16 15  1  0
 17 19  1  0
 17 15  1  0
 18 17  2  0
 20 19  1  0
 21 23  1  0
 21 20  1  0
 22 21  2  0
M  END
$$$$
