KQG.pdb
     RDKit          3D

 23 22  0  0  1  0  0  0  0  0999 V2000
   24.3339  -19.0365  -14.3912 N   0  0  0  0  0  0  0  0  0  0  0  0
   23.9017  -19.4475  -15.7072 C   0  0  1  0  0  0  0  0  0  0  0  0
   24.4427  -20.8377  -15.9450 C   0  0  0  0  0  0  0  0  0  0  0  0
   25.9506  -20.7246  -16.0062 C   0  0  0  0  0  0  0  0  0  0  0  0
   26.6184  -22.0506  -16.1957 C   0  0  0  0  0  0  0  0  0  0  0  0
   28.1225  -21.9368  -16.3389 C   0  0  0  0  0  0  0  0  0  0  0  0
   28.6294  -23.3134  -16.3745 N   0  0  0  0  0  0  0  0  0  0  0  0
   22.4283  -19.3909  -15.7701 C   0  0  0  0  0  0  0  0  0  0  0  0
   21.8751  -19.6285  -16.8683 O   0  0  0  0  0  0  0  0  0  0  0  0
   20.7396  -20.4737  -10.8538 N   0  0  0  0  0  0  0  0  0  0  0  0
   20.6693  -21.5002  -11.8519 C   0  0  0  0  0  0  0  0  0  0  0  0
   21.1686  -22.6022  -11.5069 O   0  0  0  0  0  0  0  0  0  0  0  0
   20.0534  -21.2698  -13.1692 C   0  0  0  0  0  0  0  0  0  0  0  0
   19.6501  -19.9041  -13.5237 C   0  0  0  0  0  0  0  0  0  0  0  0
   20.1241  -19.2190  -14.7329 C   0  0  2  0  0  0  0  0  0  0  0  0
   21.6161  -19.0824  -14.6538 N   0  0  0  0  0  0  0  0  0  0  0  0
   19.5631  -17.9379  -15.1164 C   0  0  0  0  0  0  0  0  0  0  0  0
   20.2575  -16.8583  -14.8858 O   0  0  0  0  0  0  0  0  0  0  0  0
   18.3323  -17.6710  -15.7411 N   0  0  0  0  0  0  0  0  0  0  0  0
   17.9144  -16.3407  -16.0825 C   0  0  0  0  0  0  0  0  0  0  0  0
   16.6940  -16.1986  -16.8474 C   0  0  0  0  0  0  0  0  0  0  0  0
   16.1956  -17.1171  -17.5113 O   0  0  0  0  0  0  0  0  0  0  0  0
   16.0507  -14.9624  -16.8327 O   0  0  0  0  0  0  0  0  0  0  0  0
  2  1  1  1
  2  8  1  0
  3  2  1  0
  4  3  1  0
  5  4  1  0
  6  7  1  0
  6  5  1  0
  8  9  2  0
 11 12  2  0
 11 10  1  0
 13 11  1  0
 14 13  1  0
 15 14  1  1
 16  8  1  0
 16 15  1  0
 17 19  1  0
 17 15  1  0
 18 17  2  0
 20 19  1  0
 21 23  1  0
 21 20  1  0
 22 21  2  0
M  END
$$$$
