KQG.pdb
     RDKit          3D

 23 22  0  0  1  0  0  0  0  0999 V2000
   26.6031  -21.6919  -11.7138 N   0  0  0  0  0  0  0  0  0  0  0  0
   25.6750  -20.5903  -11.6000 C   0  0  1  0  0  0  0  0  0  0  0  0
   25.8678  -19.9786  -10.2323 C   0  0  0  0  0  0  0  0  0  0  0  0
   25.1928  -20.8954   -9.2351 C   0  0  0  0  0  0  0  0  0  0  0  0
   23.7108  -20.6929   -9.1811 C   0  0  0  0  0  0  0  0  0  0  0  0
   23.0450  -21.5084   -8.0914 C   0  0  0  0  0  0  0  0  0  0  0  0
   21.6020  -21.2991   -8.2561 N   0  0  0  0  0  0  0  0  0  0  0  0
   25.9280  -19.6321  -12.6936 C   0  0  0  0  0  0  0  0  0  0  0  0
   26.3574  -18.4945  -12.3937 O   0  0  0  0  0  0  0  0  0  0  0  0
   28.8581  -20.5219  -17.9087 N   0  0  0  0  0  0  0  0  0  0  0  0
   28.3954  -19.1761  -18.0808 C   0  0  0  0  0  0  0  0  0  0  0  0
   28.9341  -18.5540  -19.0324 O   0  0  0  0  0  0  0  0  0  0  0  0
   27.3668  -18.5848  -17.2089 C   0  0  0  0  0  0  0  0  0  0  0  0
   26.7741  -19.4217  -16.1593 C   0  0  0  0  0  0  0  0  0  0  0  0
   25.8916  -18.8878  -15.1143 C   0  0  2  0  0  0  0  0  0  0  0  0
   25.7091  -19.9370  -14.0575 N   0  0  0  0  0  0  0  0  0  0  0  0
   24.5900  -18.3493  -15.4593 C   0  0  0  0  0  0  0  0  0  0  0  0
   23.5539  -19.1396  -15.4079 O   0  0  0  0  0  0  0  0  0  0  0  0
   24.2573  -17.0392  -15.8459 N   0  0  0  0  0  0  0  0  0  0  0  0
   22.9111  -16.6448  -16.1511 C   0  0  0  0  0  0  0  0  0  0  0  0
   22.3302  -17.1435  -17.3793 C   0  0  0  0  0  0  0  0  0  0  0  0
   22.9949  -17.6644  -18.2846 O   0  0  0  0  0  0  0  0  0  0  0  0
   20.9514  -17.0291  -17.5467 O   0  0  0  0  0  0  0  0  0  0  0  0
  2  1  1  6
  2  8  1  0
  3  2  1  0
  4  3  1  0
  5  4  1  0
  6  7  1  0
  6  5  1  0
  8  9  2  0
 11 12  2  0
 11 10  1  0
 13 11  1  0
 14 13  1  0
 15 14  1  6
 16  8  1  0
 16 15  1  0
 17 19  1  0
 17 15  1  0
 18 17  2  0
 20 19  1  0
 21 23  1  0
 21 20  1  0
 22 21  2  0
M  END
$$$$
