KQG.pdb
     RDKit          3D

 23 22  0  0  1  0  0  0  0  0999 V2000
   26.3486  -19.5816  -17.1643 N   0  0  0  0  0  0  0  0  0  0  0  0
   25.7595  -20.7749  -16.6015 C   0  0  1  0  0  0  0  0  0  0  0  0
   26.8913  -21.7049  -16.2328 C   0  0  0  0  0  0  0  0  0  0  0  0
   27.4385  -22.2744  -17.5237 C   0  0  0  0  0  0  0  0  0  0  0  0
   28.5483  -23.2522  -17.2947 C   0  0  0  0  0  0  0  0  0  0  0  0
   29.1793  -23.7385  -18.5836 C   0  0  0  0  0  0  0  0  0  0  0  0
   30.3055  -24.5904  -18.1847 N   0  0  0  0  0  0  0  0  0  0  0  0
   24.9282  -20.4007  -15.4409 C   0  0  0  0  0  0  0  0  0  0  0  0
   25.0982  -19.2680  -14.9342 O   0  0  0  0  0  0  0  0  0  0  0  0
   18.9228  -21.5472  -14.7668 N   0  0  0  0  0  0  0  0  0  0  0  0
   19.2403  -20.9512  -13.5023 C   0  0  0  0  0  0  0  0  0  0  0  0
   18.2433  -20.6876  -12.7817 O   0  0  0  0  0  0  0  0  0  0  0  0
   20.6280  -20.6804  -13.0914 C   0  0  0  0  0  0  0  0  0  0  0  0
   21.7131  -21.0429  -14.0103 C   0  0  0  0  0  0  0  0  0  0  0  0
   23.1304  -20.8110  -13.7047 C   0  0  2  0  0  0  0  0  0  0  0  0
   23.9537  -21.2570  -14.8770 N   0  0  0  0  0  0  0  0  0  0  0  0
   23.7174  -21.3546  -12.4952 C   0  0  0  0  0  0  0  0  0  0  0  0
   23.6810  -22.6449  -12.3090 O   0  0  0  0  0  0  0  0  0  0  0  0
   24.3626  -20.6712  -11.4495 N   0  0  0  0  0  0  0  0  0  0  0  0
   24.8258  -21.3369  -10.2649 C   0  0  0  0  0  0  0  0  0  0  0  0
   25.5252  -20.5398   -9.2800 C   0  0  0  0  0  0  0  0  0  0  0  0
   25.7754  -19.3366   -9.4307 O   0  0  0  0  0  0  0  0  0  0  0  0
   25.9361  -21.1630   -8.1032 O   0  0  0  0  0  0  0  0  0  0  0  0
  2  1  1  1
  2  8  1  0
  3  2  1  0
  4  3  1  0
  5  4  1  0
  6  7  1  0
  6  5  1  0
  8  9  2  0
 11 12  2  0
 11 10  1  0
 13 11  1  0
 14 13  1  0
 15 14  1  6
 16  8  1  0
 16 15  1  0
 17 19  1  0
 17 15  1  0
 18 17  2  0
 20 19  1  0
 21 23  1  0
 21 20  1  0
 22 21  2  0
M  END
$$$$
