KQG.pdb
     RDKit          3D

 23 22  0  0  1  0  0  0  0  0999 V2000
   21.2667  -21.7375  -13.7034 N   0  0  0  0  0  0  0  0  0  0  0  0
   22.5196  -21.8799  -14.4089 C   0  0  1  0  0  0  0  0  0  0  0  0
   22.3323  -21.2833  -15.7839 C   0  0  0  0  0  0  0  0  0  0  0  0
   21.0026  -21.7808  -16.3081 C   0  0  0  0  0  0  0  0  0  0  0  0
   20.7372  -21.3372  -17.7127 C   0  0  0  0  0  0  0  0  0  0  0  0
   19.3742  -21.7656  -18.2174 C   0  0  0  0  0  0  0  0  0  0  0  0
   19.1962  -23.1517  -17.7697 N   0  0  0  0  0  0  0  0  0  0  0  0
   23.5855  -21.2110  -13.6378 C   0  0  0  0  0  0  0  0  0  0  0  0
   23.3762  -20.0453  -13.2304 O   0  0  0  0  0  0  0  0  0  0  0  0
   25.5252  -19.4588   -9.9164 N   0  0  0  0  0  0  0  0  0  0  0  0
   25.1235  -20.7779   -9.5249 C   0  0  0  0  0  0  0  0  0  0  0  0
   24.4019  -20.8225   -8.4953 O   0  0  0  0  0  0  0  0  0  0  0  0
   25.5264  -21.9753  -10.2810 C   0  0  0  0  0  0  0  0  0  0  0  0
   26.3587  -21.8002  -11.4768 C   0  0  0  0  0  0  0  0  0  0  0  0
   25.9148  -21.0472  -12.6566 C   0  0  2  0  0  0  0  0  0  0  0  0
   24.8259  -21.8217  -13.3389 N   0  0  0  0  0  0  0  0  0  0  0  0
   26.8740  -20.6207  -13.6570 C   0  0  0  0  0  0  0  0  0  0  0  0
   27.4395  -21.5265  -14.4058 O   0  0  0  0  0  0  0  0  0  0  0  0
   27.2971  -19.3162  -13.9666 N   0  0  0  0  0  0  0  0  0  0  0  0
   28.2793  -19.0448  -14.9778 C   0  0  0  0  0  0  0  0  0  0  0  0
   27.8065  -18.8286  -16.3285 C   0  0  0  0  0  0  0  0  0  0  0  0
   27.2625  -19.7086  -17.0086 O   0  0  0  0  0  0  0  0  0  0  0  0
   27.9744  -17.5632  -16.8879 O   0  0  0  0  0  0  0  0  0  0  0  0
  2  1  1  1
  2  8  1  0
  3  2  1  0
  4  3  1  0
  5  4  1  0
  6  7  1  0
  6  5  1  0
  8  9  2  0
 11 12  2  0
 11 10  1  0
 13 11  1  0
 14 13  1  0
 15 14  1  1
 16  8  1  0
 16 15  1  0
 17 19  1  0
 17 15  1  0
 18 17  2  0
 20 19  1  0
 21 23  1  0
 21 20  1  0
 22 21  2  0
M  END
$$$$
