KQG.pdb
     RDKit          3D

 23 22  0  0  1  0  0  0  0  0999 V2000
   27.9424  -21.8093  -16.0856 N   0  0  0  0  0  0  0  0  0  0  0  0
   27.5261  -20.7796  -15.1615 C   0  0  1  0  0  0  0  0  0  0  0  0
   27.2507  -19.5337  -15.9700 C   0  0  0  0  0  0  0  0  0  0  0  0
   26.2826  -19.9197  -17.0674 C   0  0  0  0  0  0  0  0  0  0  0  0
   25.9247  -18.7646  -17.9494 C   0  0  0  0  0  0  0  0  0  0  0  0
   24.8489  -19.1072  -18.9599 C   0  0  0  0  0  0  0  0  0  0  0  0
   24.6438  -17.8928  -19.7577 N   0  0  0  0  0  0  0  0  0  0  0  0
   26.3412  -21.2499  -14.4178 C   0  0  0  0  0  0  0  0  0  0  0  0
   25.7643  -22.2857  -14.8213 O   0  0  0  0  0  0  0  0  0  0  0  0
   25.3228  -20.2400   -8.2226 N   0  0  0  0  0  0  0  0  0  0  0  0
   26.4265  -20.7100   -9.0073 C   0  0  0  0  0  0  0  0  0  0  0  0
   27.5184  -20.7817   -8.3865 O   0  0  0  0  0  0  0  0  0  0  0  0
   26.2774  -21.0809  -10.4243 C   0  0  0  0  0  0  0  0  0  0  0  0
   24.9601  -20.9278  -11.0526 C   0  0  0  0  0  0  0  0  0  0  0  0
   24.7168  -21.1977  -12.4753 C   0  0  2  0  0  0  0  0  0  0  0  0
   25.8295  -20.5889  -13.2768 N   0  0  0  0  0  0  0  0  0  0  0  0
   23.4538  -20.8293  -13.0852 C   0  0  0  0  0  0  0  0  0  0  0  0
   23.2159  -19.5677  -13.3147 O   0  0  0  0  0  0  0  0  0  0  0  0
   22.4024  -21.6660  -13.4989 N   0  0  0  0  0  0  0  0  0  0  0  0
   21.1895  -21.1531  -14.0704 C   0  0  0  0  0  0  0  0  0  0  0  0
   20.0581  -20.9713  -13.1863 C   0  0  0  0  0  0  0  0  0  0  0  0
   20.1082  -21.1735  -11.9659 O   0  0  0  0  0  0  0  0  0  0  0  0
   18.8526  -20.5468  -13.7420 O   0  0  0  0  0  0  0  0  0  0  0  0
  2  1  1  6
  2  8  1  0
  3  2  1  0
  4  3  1  0
  5  4  1  0
  6  7  1  0
  6  5  1  0
  8  9  2  0
 11 12  2  0
 11 10  1  0
 13 11  1  0
 14 13  1  0
 15 14  1  1
 16  8  1  0
 16 15  1  0
 17 19  1  0
 17 15  1  0
 18 17  2  0
 20 19  1  0
 21 23  1  0
 21 20  1  0
 22 21  2  0
M  END
$$$$
