KQG.pdb
     RDKit          3D

 23 22  0  0  1  0  0  0  0  0999 V2000
   24.9337  -16.2411  -17.7252 N   0  0  0  0  0  0  0  0  0  0  0  0
   23.8902  -16.8737  -18.4989 C   0  0  1  0  0  0  0  0  0  0  0  0
   24.4316  -17.0910  -19.8922 C   0  0  0  0  0  0  0  0  0  0  0  0
   25.0766  -15.7929  -20.3271 C   0  0  0  0  0  0  0  0  0  0  0  0
   26.5711  -15.8725  -20.3459 C   0  0  0  0  0  0  0  0  0  0  0  0
   27.2245  -14.5706  -20.7627 C   0  0  0  0  0  0  0  0  0  0  0  0
   28.6686  -14.7746  -20.6012 N   0  0  0  0  0  0  0  0  0  0  0  0
   23.4961  -18.1329  -17.8378 C   0  0  0  0  0  0  0  0  0  0  0  0
   22.6353  -18.8493  -18.3985 O   0  0  0  0  0  0  0  0  0  0  0  0
   28.3634  -20.2898  -15.1634 N   0  0  0  0  0  0  0  0  0  0  0  0
   27.3154  -21.0146  -15.8202 C   0  0  0  0  0  0  0  0  0  0  0  0
   27.4365  -22.2661  -15.7768 O   0  0  0  0  0  0  0  0  0  0  0  0
   26.1905  -20.3346  -16.4835 C   0  0  0  0  0  0  0  0  0  0  0  0
   24.8289  -20.8126  -16.2170 C   0  0  0  0  0  0  0  0  0  0  0  0
   23.6845  -19.9094  -16.0423 C   0  0  2  0  0  0  0  0  0  0  0  0
   24.0422  -18.5661  -16.6070 N   0  0  0  0  0  0  0  0  0  0  0  0
   23.0969  -19.7168  -14.7306 C   0  0  0  0  0  0  0  0  0  0  0  0
   23.5140  -18.7202  -14.0000 O   0  0  0  0  0  0  0  0  0  0  0  0
   22.0885  -20.4684  -14.1023 N   0  0  0  0  0  0  0  0  0  0  0  0
   21.5875  -20.1450  -12.7964 C   0  0  0  0  0  0  0  0  0  0  0  0
   20.5823  -21.0190  -12.2304 C   0  0  0  0  0  0  0  0  0  0  0  0
   20.1110  -21.9936  -12.8310 O   0  0  0  0  0  0  0  0  0  0  0  0
   20.1246  -20.7453  -10.9428 O   0  0  0  0  0  0  0  0  0  0  0  0
  2  1  1  1
  2  8  1  0
  3  2  1  0
  4  3  1  0
  5  4  1  0
  6  7  1  0
  6  5  1  0
  8  9  2  0
 11 12  2  0
 11 10  1  0
 13 11  1  0
 14 13  1  0
 15 14  1  1
 16  8  1  0
 16 15  1  0
 17 19  1  0
 17 15  1  0
 18 17  2  0
 20 19  1  0
 21 23  1  0
 21 20  1  0
 22 21  2  0
M  END
$$$$
