CKL.pdb
     RDKit          3D

 24 23  0  0  1  0  0  0  0  0999 V2000
   24.9263  -11.7634  -17.7054 N   0  0  0  0  0  0  0  0  0  0  0  0
   24.7399  -11.0692  -16.4504 C   0  0  1  0  0  0  0  0  0  0  0  0
   26.0150  -10.3514  -16.0298 C   0  0  0  0  0  0  0  0  0  0  0  0
   27.2365  -11.5421  -15.4221 S   0  0  0  0  0  0  0  0  0  0  0  0
   23.6160  -10.1176  -16.6052 C   0  0  0  0  0  0  0  0  0  0  0  0
   23.5248   -9.4491  -17.6651 O   0  0  0  0  0  0  0  0  0  0  0  0
   22.6899  -10.0067  -15.5394 N   0  0  0  0  0  0  0  0  0  0  0  0
   21.5203   -9.1872  -15.7073 C   0  0  1  0  0  0  0  0  0  0  0  0
   20.3252   -9.7260  -14.9561 C   0  0  0  0  0  0  0  0  0  0  0  0
   19.0931   -8.8871  -15.1248 C   0  0  0  0  0  0  0  0  0  0  0  0
   18.5233   -9.2135  -16.4994 C   0  0  0  0  0  0  0  0  0  0  0  0
   17.2610   -8.4118  -16.7307 C   0  0  0  0  0  0  0  0  0  0  0  0
   16.1150   -9.2863  -16.5764 N   0  0  0  0  0  0  0  0  0  0  0  0
   21.7967   -7.8432  -15.1439 C   0  0  0  0  0  0  0  0  0  0  0  0
   22.2597   -7.7743  -13.9781 O   0  0  0  0  0  0  0  0  0  0  0  0
   24.7026   -4.4684  -16.0352 C   0  0  0  0  0  0  0  0  0  0  0  0
   23.5015   -4.5265  -16.9916 C   0  0  2  0  0  0  0  0  0  0  0  0
   23.7134   -3.3618  -17.9623 C   0  0  0  0  0  0  0  0  0  0  0  0
   22.2503   -4.2942  -16.2182 C   0  0  0  0  0  0  0  0  0  0  0  0
   21.8168   -5.3825  -15.3080 C   0  0  2  0  0  0  0  0  0  0  0  0
   21.5557   -6.6517  -15.8751 N   0  0  0  0  0  0  0  0  0  0  0  0
   20.5544   -4.8878  -14.6339 C   0  0  0  0  0  0  0  0  0  0  0  0
   19.4342   -5.3085  -14.9641 O   0  0  0  0  0  0  0  0  0  0  0  0
   20.6770   -3.9428  -13.6270 O   0  0  0  0  0  0  0  0  0  0  0  0
  2  1  1  6
  3  2  1  0
  4  3  1  0
  5  6  2  0
  5  2  1  0
  7  5  1  0
  8  7  1  0
  9 10  1  0
  8  9  1  1
 10 11  1  0
 11 12  1  0
 12 13  1  0
 14 15  2  0
 14  8  1  0
 17 18  1  6
 17 16  1  0
 19 17  1  0
 20 19  1  6
 20 21  1  0
 21 14  1  0
 22 20  1  0
 23 22  2  0
 24 22  1  0
M  END
$$$$
