CKL.pdb
     RDKit          3D

 24 23  0  0  1  0  0  0  0  0999 V2000
   19.7576  -15.5123  -16.7922 N   0  0  0  0  0  0  0  0  0  0  0  0
   19.0953  -14.2760  -16.4392 C   0  0  1  0  0  0  0  0  0  0  0  0
   18.7944  -14.2253  -14.9476 C   0  0  0  0  0  0  0  0  0  0  0  0
   17.4013  -15.3113  -14.5491 S   0  0  0  0  0  0  0  0  0  0  0  0
   19.9623  -13.1478  -16.8492 C   0  0  0  0  0  0  0  0  0  0  0  0
   21.2017  -13.3327  -16.9388 O   0  0  0  0  0  0  0  0  0  0  0  0
   19.3449  -11.9029  -17.1229 N   0  0  0  0  0  0  0  0  0  0  0  0
   20.1419  -10.8206  -17.6338 C   0  0  1  0  0  0  0  0  0  0  0  0
   19.3116   -9.7790  -18.3471 C   0  0  0  0  0  0  0  0  0  0  0  0
   19.5737   -9.7226  -19.8229 C   0  0  0  0  0  0  0  0  0  0  0  0
   18.3061  -10.2091  -20.5140 C   0  0  0  0  0  0  0  0  0  0  0  0
   18.5094  -10.2033  -22.0133 C   0  0  0  0  0  0  0  0  0  0  0  0
   19.5592  -11.1455  -22.3481 N   0  0  0  0  0  0  0  0  0  0  0  0
   20.7907  -10.1286  -16.4935 C   0  0  0  0  0  0  0  0  0  0  0  0
   20.2103  -10.1519  -15.3796 O   0  0  0  0  0  0  0  0  0  0  0  0
   24.6882  -10.9693  -14.2793 C   0  0  0  0  0  0  0  0  0  0  0  0
   24.8498  -10.2104  -15.6054 C   0  0  2  0  0  0  0  0  0  0  0  0
   26.3571   -9.9855  -15.7503 C   0  0  0  0  0  0  0  0  0  0  0  0
   24.1687   -8.8904  -15.4983 C   0  0  0  0  0  0  0  0  0  0  0  0
   22.6853   -8.9032  -15.4979 C   0  0  2  0  0  0  0  0  0  0  0  0
   22.0301   -9.4512  -16.6252 N   0  0  0  0  0  0  0  0  0  0  0  0
   22.2533   -7.4600  -15.3447 C   0  0  0  0  0  0  0  0  0  0  0  0
   22.5242   -6.8057  -14.3252 O   0  0  0  0  0  0  0  0  0  0  0  0
   21.5395   -6.8768  -16.3802 O   0  0  0  0  0  0  0  0  0  0  0  0
  2  1  1  1
  3  2  1  0
  4  3  1  0
  5  6  2  0
  5  2  1  0
  7  5  1  0
  8  7  1  0
  9 10  1  0
  8  9  1  1
 10 11  1  0
 11 12  1  0
 12 13  1  0
 14 15  2  0
 14  8  1  0
 17 18  1  1
 17 16  1  0
 19 17  1  0
 20 19  1  6
 20 21  1  0
 21 14  1  0
 22 20  1  0
 23 22  2  0
 24 22  1  0
M  END
$$$$
