CKL.pdb
     RDKit          3D

 24 23  0  0  1  0  0  0  0  0999 V2000
   15.1290  -14.8804  -13.2007 N   0  0  0  0  0  0  0  0  0  0  0  0
   14.4578  -13.6332  -13.4932 C   0  0  1  0  0  0  0  0  0  0  0  0
   13.2005  -13.4797  -12.6484 C   0  0  0  0  0  0  0  0  0  0  0  0
   12.0281  -14.8097  -13.0168 S   0  0  0  0  0  0  0  0  0  0  0  0
   15.4065  -12.5232  -13.2479 C   0  0  0  0  0  0  0  0  0  0  0  0
   16.1748  -12.5859  -12.2558 O   0  0  0  0  0  0  0  0  0  0  0  0
   15.4008  -11.4341  -14.1532 N   0  0  0  0  0  0  0  0  0  0  0  0
   16.2967  -10.3314  -13.9316 C   0  0  1  0  0  0  0  0  0  0  0  0
   16.6612   -9.6173  -15.2123 C   0  0  0  0  0  0  0  0  0  0  0  0
   18.1063   -9.7702  -15.5841 C   0  0  0  0  0  0  0  0  0  0  0  0
   18.9176   -9.1040  -14.4800 C   0  0  0  0  0  0  0  0  0  0  0  0
   20.3736   -9.0390  -14.8867 C   0  0  0  0  0  0  0  0  0  0  0  0
   21.1255   -8.3826  -13.8352 N   0  0  0  0  0  0  0  0  0  0  0  0
   15.6156   -9.3305  -13.0746 C   0  0  0  0  0  0  0  0  0  0  0  0
   14.4385   -9.0037  -13.3677 O   0  0  0  0  0  0  0  0  0  0  0  0
   15.4066   -6.9447   -7.4662 C   0  0  0  0  0  0  0  0  0  0  0  0
   14.8474   -6.9267   -8.8972 C   0  0  2  0  0  0  0  0  0  0  0  0
   13.3679   -7.2903   -8.7474 C   0  0  0  0  0  0  0  0  0  0  0  0
   15.5286   -7.9795   -9.7005 C   0  0  0  0  0  0  0  0  0  0  0  0
   15.5857   -7.7669  -11.1676 C   0  0  2  0  0  0  0  0  0  0  0  0
   16.2484   -8.7412  -11.9499 N   0  0  0  0  0  0  0  0  0  0  0  0
   16.2762   -6.4348  -11.3718 C   0  0  0  0  0  0  0  0  0  0  0  0
   17.5054   -6.3573  -11.5260 O   0  0  0  0  0  0  0  0  0  0  0  0
   15.4969   -5.2883  -11.3832 O   0  0  0  0  0  0  0  0  0  0  0  0
  2  1  1  1
  3  2  1  0
  4  3  1  0
  5  6  2  0
  5  2  1  0
  7  5  1  0
  8  7  1  0
  9 10  1  0
  8  9  1  6
 10 11  1  0
 11 12  1  0
 12 13  1  0
 14 15  2  0
 14  8  1  0
 17 18  1  1
 17 16  1  0
 19 17  1  0
 20 19  1  1
 20 21  1  0
 21 14  1  0
 22 20  1  0
 23 22  2  0
 24 22  1  0
M  END
$$$$
