CKL.pdb
     RDKit          3D

 24 23  0  0  1  0  0  0  0  0999 V2000
   27.3568  -21.2664  -10.8876 N   0  0  0  0  0  0  0  0  0  0  0  0
   25.9557  -21.2411  -10.5300 C   0  0  1  0  0  0  0  0  0  0  0  0
   25.7053  -20.2819   -9.3745 C   0  0  0  0  0  0  0  0  0  0  0  0
   25.9813  -21.1171   -7.7918 S   0  0  0  0  0  0  0  0  0  0  0  0
   25.1750  -20.8530  -11.7268 C   0  0  0  0  0  0  0  0  0  0  0  0
   25.4992  -19.8150  -12.3560 O   0  0  0  0  0  0  0  0  0  0  0  0
   24.0898  -21.6798  -12.1070 N   0  0  0  0  0  0  0  0  0  0  0  0
   23.3812  -21.3933  -13.3250 C   0  0  1  0  0  0  0  0  0  0  0  0
   23.3410  -22.5781  -14.2619 C   0  0  0  0  0  0  0  0  0  0  0  0
   24.3637  -22.5016  -15.3565 C   0  0  0  0  0  0  0  0  0  0  0  0
   24.2089  -23.7656  -16.1927 C   0  0  0  0  0  0  0  0  0  0  0  0
   25.1382  -23.7041  -17.3852 C   0  0  0  0  0  0  0  0  0  0  0  0
   25.0435  -24.9512  -18.1186 N   0  0  0  0  0  0  0  0  0  0  0  0
   21.9710  -21.0767  -12.9914 C   0  0  0  0  0  0  0  0  0  0  0  0
   21.6224  -21.1284  -11.7855 O   0  0  0  0  0  0  0  0  0  0  0  0
   19.2566  -17.1620  -12.7481 C   0  0  0  0  0  0  0  0  0  0  0  0
   20.3230  -16.9726  -13.8379 C   0  0  2  0  0  0  0  0  0  0  0  0
   19.5327  -16.6949  -15.1193 C   0  0  0  0  0  0  0  0  0  0  0  0
   21.0846  -18.2419  -14.0011 C   0  0  0  0  0  0  0  0  0  0  0  0
   20.3082  -19.5025  -13.9075 C   0  0  2  0  0  0  0  0  0  0  0  0
   21.0199  -20.7225  -13.9825 N   0  0  0  0  0  0  0  0  0  0  0  0
   19.3033  -19.4614  -15.0395 C   0  0  0  0  0  0  0  0  0  0  0  0
   18.0969  -19.2576  -14.8299 O   0  0  0  0  0  0  0  0  0  0  0  0
   19.7644  -19.6587  -16.3319 O   0  0  0  0  0  0  0  0  0  0  0  0
  2  1  1  6
  3  2  1  0
  4  3  1  0
  5  6  2  0
  5  2  1  0
  7  5  1  0
  8  7  1  0
  9 10  1  0
  8  9  1  6
 10 11  1  0
 11 12  1  0
 12 13  1  0
 14 15  2  0
 14  8  1  0
 17 18  1  6
 17 16  1  0
 19 17  1  0
 20 19  1  6
 20 21  1  0
 21 14  1  0
 22 20  1  0
 23 22  2  0
 24 22  1  0
M  END
$$$$
