CKL.pdb
     RDKit          3D

 24 23  0  0  1  0  0  0  0  0999 V2000
   27.1784  -19.7341  -15.0930 N   0  0  0  0  0  0  0  0  0  0  0  0
   27.3742  -20.6789  -14.0157 C   0  0  1  0  0  0  0  0  0  0  0  0
   28.8563  -20.9174  -13.7624 C   0  0  0  0  0  0  0  0  0  0  0  0
   29.4573  -22.2864  -14.7839 S   0  0  0  0  0  0  0  0  0  0  0  0
   26.7020  -20.1534  -12.8054 C   0  0  0  0  0  0  0  0  0  0  0  0
   26.8464  -18.9419  -12.5053 O   0  0  0  0  0  0  0  0  0  0  0  0
   25.9214  -21.0520  -12.0379 N   0  0  0  0  0  0  0  0  0  0  0  0
   25.2124  -20.5607  -10.8874 C   0  0  1  0  0  0  0  0  0  0  0  0
   23.8380  -21.1735  -10.7513 C   0  0  0  0  0  0  0  0  0  0  0  0
   22.7296  -20.2210  -11.0893 C   0  0  0  0  0  0  0  0  0  0  0  0
   22.4777  -20.3522  -12.5860 C   0  0  0  0  0  0  0  0  0  0  0  0
   21.4803  -19.3037  -13.0282 C   0  0  0  0  0  0  0  0  0  0  0  0
   21.2381  -19.4565  -14.4494 N   0  0  0  0  0  0  0  0  0  0  0  0
   25.9633  -20.9439   -9.6669 C   0  0  0  0  0  0  0  0  0  0  0  0
   26.3273  -22.1403   -9.5475 O   0  0  0  0  0  0  0  0  0  0  0  0
   28.4945  -18.5708   -4.4925 C   0  0  0  0  0  0  0  0  0  0  0  0
   28.3578  -19.7600   -5.4558 C   0  0  2  0  0  0  0  0  0  0  0  0
   29.7927  -20.1060   -5.8617 C   0  0  0  0  0  0  0  0  0  0  0  0
   27.6016  -19.3256   -6.6629 C   0  0  0  0  0  0  0  0  0  0  0  0
   27.0148  -20.3974   -7.5040 C   0  0  2  0  0  0  0  0  0  0  0  0
   26.2764  -20.0096   -8.6463 N   0  0  0  0  0  0  0  0  0  0  0  0
   26.1070  -21.1962   -6.5927 C   0  0  0  0  0  0  0  0  0  0  0  0
   24.8715  -21.0926   -6.6534 O   0  0  0  0  0  0  0  0  0  0  0  0
   26.6917  -22.0571   -5.6768 O   0  0  0  0  0  0  0  0  0  0  0  0
  2  1  1  6
  3  2  1  0
  4  3  1  0
  5  6  2  0
  5  2  1  0
  7  5  1  0
  8  7  1  0
  9 10  1  0
  8  9  1  1
 10 11  1  0
 11 12  1  0
 12 13  1  0
 14 15  2  0
 14  8  1  0
 17 18  1  6
 17 16  1  0
 19 17  1  0
 20 19  1  1
 20 21  1  0
 21 14  1  0
 22 20  1  0
 23 22  2  0
 24 22  1  0
M  END
$$$$
