CKL.pdb
     RDKit          3D

 24 23  0  0  1  0  0  0  0  0999 V2000
   14.5621  -22.0973    0.0075 N   0  0  0  0  0  0  0  0  0  0  0  0
   14.9402  -22.1003    1.4034 C   0  0  1  0  0  0  0  0  0  0  0  0
   16.3477  -22.6512    1.5858 C   0  0  0  0  0  0  0  0  0  0  0  0
   16.4113  -24.3922    1.0920 S   0  0  0  0  0  0  0  0  0  0  0  0
   14.8361  -20.7160    1.9187 C   0  0  0  0  0  0  0  0  0  0  0  0
   14.8424  -19.7600    1.1035 O   0  0  0  0  0  0  0  0  0  0  0  0
   14.7336  -20.5362    3.3198 N   0  0  0  0  0  0  0  0  0  0  0  0
   14.4199  -19.2329    3.8399 C   0  0  1  0  0  0  0  0  0  0  0  0
   13.4924  -19.2946    5.0311 C   0  0  0  0  0  0  0  0  0  0  0  0
   13.0468  -17.9428    5.5045 C   0  0  0  0  0  0  0  0  0  0  0  0
   12.0904  -18.1769    6.6671 C   0  0  0  0  0  0  0  0  0  0  0  0
   11.5280  -16.8534    7.1379 C   0  0  0  0  0  0  0  0  0  0  0  0
   10.6742  -17.0883    8.2859 N   0  0  0  0  0  0  0  0  0  0  0  0
   15.6722  -18.5978    4.3180 C   0  0  0  0  0  0  0  0  0  0  0  0
   16.6293  -19.3453    4.6395 O   0  0  0  0  0  0  0  0  0  0  0  0
   18.8103  -16.0477    2.3105 C   0  0  0  0  0  0  0  0  0  0  0  0
   17.5463  -15.2813    2.7297 C   0  0  2  0  0  0  0  0  0  0  0  0
   17.7912  -13.8392    2.2784 C   0  0  0  0  0  0  0  0  0  0  0  0
   17.4260  -15.3133    4.2137 C   0  0  0  0  0  0  0  0  0  0  0  0
   17.0406  -16.6094    4.8240 C   0  0  2  0  0  0  0  0  0  0  0  0
   15.8158  -17.1901    4.4204 N   0  0  0  0  0  0  0  0  0  0  0  0
   16.9908  -16.3710    6.3185 C   0  0  0  0  0  0  0  0  0  0  0  0
   18.0008  -16.0337    6.9564 O   0  0  0  0  0  0  0  0  0  0  0  0
   15.7778  -16.5396    6.9684 O   0  0  0  0  0  0  0  0  0  0  0  0
  2  1  1  6
  3  2  1  0
  4  3  1  0
  5  6  2  0
  5  2  1  0
  7  5  1  0
  8  7  1  0
  9 10  1  0
  8  9  1  1
 10 11  1  0
 11 12  1  0
 12 13  1  0
 14 15  2  0
 14  8  1  0
 17 18  1  1
 17 16  1  0
 19 17  1  0
 20 19  1  6
 20 21  1  0
 21 14  1  0
 22 20  1  0
 23 22  2  0
 24 22  1  0
M  END
$$$$
