CKL.pdb
     RDKit          3D

 24 23  0  0  1  0  0  0  0  0999 V2000
   29.7564  -21.7108  -17.0022 N   0  0  0  0  0  0  0  0  0  0  0  0
   28.5350  -21.0184  -17.3490 C   0  0  1  0  0  0  0  0  0  0  0  0
   27.5551  -21.9554  -18.0417 C   0  0  0  0  0  0  0  0  0  0  0  0
   26.9347  -23.1927  -16.8742 S   0  0  0  0  0  0  0  0  0  0  0  0
   27.9510  -20.4526  -16.1115 C   0  0  0  0  0  0  0  0  0  0  0  0
   28.4952  -20.7084  -15.0084 O   0  0  0  0  0  0  0  0  0  0  0  0
   26.7957  -19.6427  -16.2340 N   0  0  0  0  0  0  0  0  0  0  0  0
   26.3459  -18.8838  -15.0983 C   0  0  1  0  0  0  0  0  0  0  0  0
   25.7003  -17.5770  -15.4963 C   0  0  0  0  0  0  0  0  0  0  0  0
   26.6921  -16.5232  -15.8911 C   0  0  0  0  0  0  0  0  0  0  0  0
   25.8894  -15.3243  -16.3801 C   0  0  0  0  0  0  0  0  0  0  0  0
   26.8320  -14.2372  -16.8482 C   0  0  0  0  0  0  0  0  0  0  0  0
   26.0538  -13.0793  -17.2427 N   0  0  0  0  0  0  0  0  0  0  0  0
   25.3046  -19.6647  -14.3870 C   0  0  0  0  0  0  0  0  0  0  0  0
   24.6188  -20.4801  -15.0526 O   0  0  0  0  0  0  0  0  0  0  0  0
   26.3521  -22.0900  -10.7481 C   0  0  0  0  0  0  0  0  0  0  0  0
   25.8202  -20.6955  -10.3831 C   0  0  2  0  0  0  0  0  0  0  0  0
   25.8478  -20.6507   -8.8531 C   0  0  0  0  0  0  0  0  0  0  0  0
   24.4109  -20.5735  -10.8485 C   0  0  0  0  0  0  0  0  0  0  0  0
   24.2026  -20.4006  -12.3071 C   0  0  2  0  0  0  0  0  0  0  0  0
   25.0659  -19.5174  -12.9964 N   0  0  0  0  0  0  0  0  0  0  0  0
   22.7798  -19.9094  -12.4723 C   0  0  0  0  0  0  0  0  0  0  0  0
   21.8130  -20.5686  -12.0581 O   0  0  0  0  0  0  0  0  0  0  0  0
   22.5765  -18.6924  -13.1043 O   0  0  0  0  0  0  0  0  0  0  0  0
  2  1  1  1
  3  2  1  0
  4  3  1  0
  5  6  2  0
  5  2  1  0
  7  5  1  0
  8  7  1  0
  9 10  1  0
  8  9  1  6
 10 11  1  0
 11 12  1  0
 12 13  1  0
 14 15  2  0
 14  8  1  0
 17 18  1  1
 17 16  1  0
 19 17  1  0
 20 19  1  1
 20 21  1  0
 21 14  1  0
 22 20  1  0
 23 22  2  0
 24 22  1  0
M  END
$$$$
