CKL.pdb
     RDKit          3D

 24 23  0  0  1  0  0  0  0  0999 V2000
   22.2398  -16.2307  -18.0040 N   0  0  0  0  0  0  0  0  0  0  0  0
   21.7114  -15.4914  -16.8789 C   0  0  1  0  0  0  0  0  0  0  0  0
   22.5648  -15.7058  -15.6365 C   0  0  0  0  0  0  0  0  0  0  0  0
   22.4521  -17.4266  -15.0844 S   0  0  0  0  0  0  0  0  0  0  0  0
   21.6526  -14.0585  -17.2474 C   0  0  0  0  0  0  0  0  0  0  0  0
   22.6269  -13.5437  -17.8508 O   0  0  0  0  0  0  0  0  0  0  0  0
   20.4886  -13.3314  -16.8976 N   0  0  0  0  0  0  0  0  0  0  0  0
   20.3844  -11.9479  -17.2754 C   0  0  1  0  0  0  0  0  0  0  0  0
   18.9614  -11.5367  -17.5742 C   0  0  0  0  0  0  0  0  0  0  0  0
   18.8437  -10.1215  -18.0571 C   0  0  0  0  0  0  0  0  0  0  0  0
   17.3610   -9.8564  -18.2858 C   0  0  0  0  0  0  0  0  0  0  0  0
   17.1673   -8.4388  -18.7783 C   0  0  0  0  0  0  0  0  0  0  0  0
   15.7500   -8.1958  -18.9627 N   0  0  0  0  0  0  0  0  0  0  0  0
   20.8311  -11.1092  -16.1364 C   0  0  0  0  0  0  0  0  0  0  0  0
   20.4343  -11.4158  -14.9846 O   0  0  0  0  0  0  0  0  0  0  0  0
   24.2706  -11.2103  -13.7237 C   0  0  0  0  0  0  0  0  0  0  0  0
   24.4433  -10.5332  -15.0921 C   0  0  2  0  0  0  0  0  0  0  0  0
   25.9446  -10.2574  -15.2092 C   0  0  0  0  0  0  0  0  0  0  0  0
   23.7089   -9.2378  -15.0916 C   0  0  0  0  0  0  0  0  0  0  0  0
   22.2309   -9.3088  -15.1977 C   0  0  2  0  0  0  0  0  0  0  0  0
   21.6813   -9.9870  -16.3105 N   0  0  0  0  0  0  0  0  0  0  0  0
   21.7424   -7.8757  -15.2183 C   0  0  0  0  0  0  0  0  0  0  0  0
   21.1924   -7.3914  -16.2203 O   0  0  0  0  0  0  0  0  0  0  0  0
   21.9245   -7.1053  -14.0802 O   0  0  0  0  0  0  0  0  0  0  0  0
  2  1  1  6
  3  2  1  0
  4  3  1  0
  5  6  2  0
  5  2  1  0
  7  5  1  0
  8  7  1  0
  9 10  1  0
  8  9  1  1
 10 11  1  0
 11 12  1  0
 12 13  1  0
 14 15  2  0
 14  8  1  0
 17 18  1  1
 17 16  1  0
 19 17  1  0
 20 19  1  6
 20 21  1  0
 21 14  1  0
 22 20  1  0
 23 22  2  0
 24 22  1  0
M  END
$$$$
