CKL.pdb
     RDKit          3D

 24 23  0  0  1  0  0  0  0  0999 V2000
   18.3848  -19.8893  -13.8508 N   0  0  0  0  0  0  0  0  0  0  0  0
   19.6094  -19.5292  -14.5308 C   0  0  1  0  0  0  0  0  0  0  0  0
   19.9443  -18.0606  -14.3093 C   0  0  0  0  0  0  0  0  0  0  0  0
   18.7907  -17.0067  -15.2243 S   0  0  0  0  0  0  0  0  0  0  0  0
   20.6944  -20.4065  -14.0353 C   0  0  0  0  0  0  0  0  0  0  0  0
   20.8217  -20.5788  -12.7973 O   0  0  0  0  0  0  0  0  0  0  0  0
   21.5442  -21.0143  -14.9915 N   0  0  0  0  0  0  0  0  0  0  0  0
   22.5586  -21.9317  -14.5476 C   0  0  1  0  0  0  0  0  0  0  0  0
   22.9384  -22.9325  -15.6140 C   0  0  0  0  0  0  0  0  0  0  0  0
   24.0407  -23.8578  -15.1911 C   0  0  0  0  0  0  0  0  0  0  0  0
   24.2822  -24.8142  -16.3521 C   0  0  0  0  0  0  0  0  0  0  0  0
   25.3848  -25.7853  -15.9908 C   0  0  0  0  0  0  0  0  0  0  0  0
   25.5626  -26.7211  -17.0838 N   0  0  0  0  0  0  0  0  0  0  0  0
   23.7897  -21.1650  -14.2367 C   0  0  0  0  0  0  0  0  0  0  0  0
   24.0290  -20.1317  -14.9098 O   0  0  0  0  0  0  0  0  0  0  0  0
   25.1346  -19.6419  -10.0498 C   0  0  0  0  0  0  0  0  0  0  0  0
   25.6085  -21.0658  -10.3795 C   0  0  2  0  0  0  0  0  0  0  0  0
   26.4447  -21.4932   -9.1705 C   0  0  0  0  0  0  0  0  0  0  0  0
   26.4821  -21.0224  -11.5848 C   0  0  0  0  0  0  0  0  0  0  0  0
   25.8135  -20.7678  -12.8844 C   0  0  2  0  0  0  0  0  0  0  0  0
   24.6906  -21.5616  -13.2151 N   0  0  0  0  0  0  0  0  0  0  0  0
   26.8733  -20.9669  -13.9475 C   0  0  0  0  0  0  0  0  0  0  0  0
   26.7614  -21.8427  -14.8201 O   0  0  0  0  0  0  0  0  0  0  0  0
   27.9859  -20.1401  -13.9259 O   0  0  0  0  0  0  0  0  0  0  0  0
  2  1  1  1
  3  2  1  0
  4  3  1  0
  5  6  2  0
  5  2  1  0
  7  5  1  0
  8  7  1  0
  9 10  1  0
  8  9  1  6
 10 11  1  0
 11 12  1  0
 12 13  1  0
 14 15  2  0
 14  8  1  0
 17 18  1  1
 17 16  1  0
 19 17  1  0
 20 19  1  1
 20 21  1  0
 21 14  1  0
 22 20  1  0
 23 22  2  0
 24 22  1  0
M  END
$$$$
