CKL.pdb
     RDKit          3D

 24 23  0  0  1  0  0  0  0  0999 V2000
   26.7374  -23.2353  -15.2715 N   0  0  0  0  0  0  0  0  0  0  0  0
   26.7809  -21.8051  -15.4820 C   0  0  1  0  0  0  0  0  0  0  0  0
   27.5452  -21.4643  -16.7539 C   0  0  0  0  0  0  0  0  0  0  0  0
   29.2008  -22.1962  -16.7089 S   0  0  0  0  0  0  0  0  0  0  0  0
   25.3906  -21.2989  -15.5409 C   0  0  0  0  0  0  0  0  0  0  0  0
   25.1935  -20.0894  -15.8179 O   0  0  0  0  0  0  0  0  0  0  0  0
   24.3409  -22.2128  -15.2790 N   0  0  0  0  0  0  0  0  0  0  0  0
   22.9800  -21.7502  -15.3197 C   0  0  1  0  0  0  0  0  0  0  0  0
   22.1326  -22.5345  -16.2943 C   0  0  0  0  0  0  0  0  0  0  0  0
   22.8847  -22.9654  -17.5186 C   0  0  0  0  0  0  0  0  0  0  0  0
   21.9059  -23.7501  -18.3830 C   0  0  0  0  0  0  0  0  0  0  0  0
   22.5914  -24.1879  -19.6589 C   0  0  0  0  0  0  0  0  0  0  0  0
   21.6655  -24.9854  -20.4390 N   0  0  0  0  0  0  0  0  0  0  0  0
   22.3702  -21.9487  -13.9822 C   0  0  0  0  0  0  0  0  0  0  0  0
   22.3325  -23.1148  -13.5164 O   0  0  0  0  0  0  0  0  0  0  0  0
   23.6881  -21.9778  -10.1999 C   0  0  0  0  0  0  0  0  0  0  0  0
   23.3646  -20.5407  -10.6368 C   0  0  2  0  0  0  0  0  0  0  0  0
   23.8336  -19.6602   -9.4756 C   0  0  0  0  0  0  0  0  0  0  0  0
   21.8904  -20.3980  -10.7916 C   0  0  0  0  0  0  0  0  0  0  0  0
   21.2709  -21.0900  -11.9484 C   0  0  2  0  0  0  0  0  0  0  0  0
   21.8364  -20.8733  -13.2266 N   0  0  0  0  0  0  0  0  0  0  0  0
   19.8248  -20.6422  -11.9799 C   0  0  0  0  0  0  0  0  0  0  0  0
   19.0810  -20.7789  -10.9955 O   0  0  0  0  0  0  0  0  0  0  0  0
   19.3420  -20.0689  -13.1462 O   0  0  0  0  0  0  0  0  0  0  0  0
  2  1  1  6
  3  2  1  0
  4  3  1  0
  5  6  2  0
  5  2  1  0
  7  5  1  0
  8  7  1  0
  9 10  1  0
  8  9  1  6
 10 11  1  0
 11 12  1  0
 12 13  1  0
 14 15  2  0
 14  8  1  0
 17 18  1  1
 17 16  1  0
 19 17  1  0
 20 19  1  1
 20 21  1  0
 21 14  1  0
 22 20  1  0
 23 22  2  0
 24 22  1  0
M  END
$$$$
