CKL.pdb
     RDKit          3D

 24 23  0  0  1  0  0  0  0  0999 V2000
  -25.7777   39.2764   -1.7625 N   0  0  0  0  0  0  0  0  0  0  0  0
  -24.7162   38.6738   -2.5383 C   0  0  1  0  0  0  0  0  0  0  0  0
  -24.7396   39.1749   -3.9757 C   0  0  0  0  0  0  0  0  0  0  0  0
  -25.3123   40.8916   -4.0348 S   0  0  0  0  0  0  0  0  0  0  0  0
  -23.4248   38.9845   -1.8838 C   0  0  0  0  0  0  0  0  0  0  0  0
  -22.3559   38.6773   -2.4681 O   0  0  0  0  0  0  0  0  0  0  0  0
  -23.4590   39.6191   -0.6181 N   0  0  0  0  0  0  0  0  0  0  0  0
  -24.2893   39.0715    0.4203 C   0  0  1  0  0  0  0  0  0  0  0  0
  -25.6434   39.7386    0.4887 C   0  0  0  0  0  0  0  0  0  0  0  0
  -26.2182   39.7696    1.8738 C   0  0  0  0  0  0  0  0  0  0  0  0
  -27.6998   39.4399    1.7429 C   0  0  0  0  0  0  0  0  0  0  0  0
  -27.9163   38.5343    0.5503 C   0  0  0  0  0  0  0  0  0  0  0  0
  -26.6806   38.4469   -0.2029 N   0  0  0  0  0  0  0  0  0  0  0  0
  -24.5430   37.6410    0.1213 C   0  0  0  0  0  0  0  0  0  0  0  0
  -25.4572   37.0572    0.7551 O   0  0  0  0  0  0  0  0  0  0  0  0
  -25.1053   34.7116   -0.0563 C   0  0  0  0  0  0  0  0  0  0  0  0
  -23.7234   34.0463    0.0372 C   0  0  2  0  0  0  0  0  0  0  0  0
  -23.8482   33.0364    1.1810 C   0  0  0  0  0  0  0  0  0  0  0  0
  -22.7107   35.0746    0.4039 C   0  0  0  0  0  0  0  0  0  0  0  0
  -22.6001   36.2515   -0.4925 C   0  0  2  0  0  0  0  0  0  0  0  0
  -23.7922   36.9253   -0.8465 N   0  0  0  0  0  0  0  0  0  0  0  0
  -21.9347   35.7538   -1.7582 C   0  0  0  0  0  0  0  0  0  0  0  0
  -22.1124   34.5977   -2.1740 O   0  0  0  0  0  0  0  0  0  0  0  0
  -21.1119   36.6272   -2.4525 O   0  0  0  0  0  0  0  0  0  0  0  0
  2  1  1  1
  3  2  1  0
  4  3  1  0
  5  6  2  0
  5  2  1  0
  7  5  1  0
  8  7  1  0
  9 10  1  0
  8  9  1  6
 10 11  1  0
 11 12  1  0
 12 13  1  0
 14 15  2  0
 14  8  1  0
 17 18  1  1
 17 16  1  0
 19 17  1  0
 20 19  1  1
 20 21  1  0
 21 14  1  0
 22 20  1  0
 23 22  2  0
 24 22  1  0
M  END
$$$$
