CKL.pdb
     RDKit          3D

 24 23  0  0  1  0  0  0  0  0999 V2000
   27.3332  -21.1365  -16.7613 N   0  0  0  0  0  0  0  0  0  0  0  0
   27.5875  -21.6668  -15.4400 C   0  0  1  0  0  0  0  0  0  0  0  0
   29.0800  -21.6904  -15.1401 C   0  0  0  0  0  0  0  0  0  0  0  0
   29.8562  -23.1284  -15.9203 S   0  0  0  0  0  0  0  0  0  0  0  0
   26.8565  -20.8374  -14.4549 C   0  0  0  0  0  0  0  0  0  0  0  0
   26.6904  -19.6147  -14.6913 O   0  0  0  0  0  0  0  0  0  0  0  0
   26.3759  -21.4702  -13.2826 N   0  0  0  0  0  0  0  0  0  0  0  0
   25.4439  -20.7719  -12.4390 C   0  0  1  0  0  0  0  0  0  0  0  0
   24.0068  -21.0405  -12.8204 C   0  0  0  0  0  0  0  0  0  0  0  0
   23.2465  -19.7969  -13.1746 C   0  0  0  0  0  0  0  0  0  0  0  0
   21.8241  -20.2301  -13.5064 C   0  0  0  0  0  0  0  0  0  0  0  0
   21.0022  -19.0215  -13.8980 C   0  0  0  0  0  0  0  0  0  0  0  0
   19.6753  -19.4612  -14.2827 N   0  0  0  0  0  0  0  0  0  0  0  0
   25.6049  -21.2595  -11.0474 C   0  0  0  0  0  0  0  0  0  0  0  0
   25.4996  -22.4936  -10.8370 O   0  0  0  0  0  0  0  0  0  0  0  0
   28.9250  -20.6439   -7.7795 C   0  0  0  0  0  0  0  0  0  0  0  0
   27.9232  -19.4860   -7.9079 C   0  0  2  0  0  0  0  0  0  0  0  0
   28.3343  -18.4864   -6.8237 C   0  0  0  0  0  0  0  0  0  0  0  0
   26.5538  -19.9904   -7.6111 C   0  0  0  0  0  0  0  0  0  0  0  0
   25.9277  -20.8626   -8.6348 C   0  0  2  0  0  0  0  0  0  0  0  0
   25.8702  -20.3829   -9.9641 N   0  0  0  0  0  0  0  0  0  0  0  0
   24.5151  -21.1240   -8.1561 C   0  0  0  0  0  0  0  0  0  0  0  0
   23.5286  -20.7202   -8.7923 O   0  0  0  0  0  0  0  0  0  0  0  0
   24.3439  -21.8329   -6.9771 O   0  0  0  0  0  0  0  0  0  0  0  0
  2  1  1  6
  3  2  1  0
  4  3  1  0
  5  6  2  0
  5  2  1  0
  7  5  1  0
  8  7  1  0
  9 10  1  0
  8  9  1  6
 10 11  1  0
 11 12  1  0
 12 13  1  0
 14 15  2  0
 14  8  1  0
 17 18  1  1
 17 16  1  0
 19 17  1  0
 20 19  1  1
 20 21  1  0
 21 14  1  0
 22 20  1  0
 23 22  2  0
 24 22  1  0
M  END
$$$$
