WKI.pdb
     RDKit          3D

 32 33  0  0  1  0  0  0  0  0999 V2000
   28.3112  -21.0075  -11.4058 N   0  0  0  0  0  0  0  0  0  0  0  0
   27.0968  -21.2243  -10.6452 C   0  0  1  0  0  0  0  0  0  0  0  0
   26.9734  -20.2036   -9.5359 C   0  0  0  0  0  0  0  0  0  0  0  0
   28.0669  -20.4784   -8.5748 C   0  0  0  0  0  0  0  0  0  0  0  0
   29.2792  -21.0559   -8.8579 C   0  0  0  0  0  0  0  0  0  0  0  0
   29.9554  -21.1136   -7.6987 N   0  0  0  0  0  0  0  0  0  0  0  0
   29.2383  -20.6018   -6.6837 C   0  0  0  0  0  0  0  0  0  0  0  0
   29.5350  -20.4588   -5.3421 C   0  0  0  0  0  0  0  0  0  0  0  0
   28.5924  -19.8844   -4.5033 C   0  0  0  0  0  0  0  0  0  0  0  0
   27.3886  -19.4754   -5.0419 C   0  0  0  0  0  0  0  0  0  0  0  0
   27.0763  -19.6110   -6.3798 C   0  0  0  0  0  0  0  0  0  0  0  0
   28.0331  -20.1912   -7.2168 C   0  0  0  0  0  0  0  0  0  0  0  0
   25.9597  -21.2004  -11.5949 C   0  0  0  0  0  0  0  0  0  0  0  0
   25.5999  -20.1448  -12.1508 O   0  0  0  0  0  0  0  0  0  0  0  0
   25.2242  -22.3790  -11.9184 N   0  0  0  0  0  0  0  0  0  0  0  0
   24.1886  -22.4504  -12.9235 C   0  0  1  0  0  0  0  0  0  0  0  0
   24.0384  -23.7975  -13.5329 C   0  0  0  0  0  0  0  0  0  0  0  0
   23.0574  -23.8759  -14.6522 C   0  0  0  0  0  0  0  0  0  0  0  0
   22.8049  -25.2721  -15.1505 C   0  0  0  0  0  0  0  0  0  0  0  0
   22.1258  -25.1209  -16.5066 C   0  0  0  0  0  0  0  0  0  0  0  0
   21.7945  -26.4452  -17.0321 N   0  0  0  0  0  0  0  0  0  0  0  0
   22.9497  -21.8781  -12.3715 C   0  0  0  0  0  0  0  0  0  0  0  0
   22.7647  -21.9058  -11.1339 O   0  0  0  0  0  0  0  0  0  0  0  0
   21.2325  -16.9028  -13.2841 C   0  0  0  0  0  0  0  0  0  0  0  0
   21.4526  -18.2562  -12.7123 C   0  0  0  0  0  0  0  0  0  0  0  0
   20.4256  -19.2976  -13.0371 C   0  0  2  0  0  0  0  0  0  0  0  0
   19.0580  -18.8483  -12.5178 C   0  0  0  0  0  0  0  0  0  0  0  0
   20.7358  -20.6939  -12.6390 C   0  0  2  0  0  0  0  0  0  0  0  0
   21.9203  -21.2804  -13.1546 N   0  0  0  0  0  0  0  0  0  0  0  0
   19.5691  -21.5364  -13.0361 C   0  0  0  0  0  0  0  0  0  0  0  0
   18.6528  -21.8373  -12.2389 O   0  0  0  0  0  0  0  0  0  0  0  0
   19.4687  -22.0196  -14.3325 O   0  0  0  0  0  0  0  0  0  0  0  0
  2  1  1  6
  2 13  1  0
  2  3  1  0
  4  5  2  0
  4  3  1  0
  6  5  1  0
  7 12  2  0
  7  6  1  0
  8  7  1  0
  9 10  1  0
  9  8  2  0
 10 11  2  0
 11 12  1  0
 12  4  1  0
 13 14  2  0
 15 16  1  0
 15 13  1  0
 16 17  1  1
 18 17  1  0
 19 20  1  0
 19 18  1  0
 21 20  1  0
 22 16  1  0
 22 23  2  0
 24 25  1  0
 25 26  1  0
 26 28  1  0
 26 27  1  1
 28 29  1  6
 28 30  1  0
 29 22  1  0
 30 31  2  0
 30 32  1  0
M  END
$$$$
