WKI.pdb
     RDKit          3D

 32 33  0  0  1  0  0  0  0  0999 V2000
   26.7879  -19.7376  -11.0710 N   0  0  0  0  0  0  0  0  0  0  0  0
   26.1676  -21.0066  -10.7469 C   0  0  1  0  0  0  0  0  0  0  0  0
   25.4905  -20.9392   -9.3961 C   0  0  0  0  0  0  0  0  0  0  0  0
   26.4180  -20.2289   -8.4849 C   0  0  0  0  0  0  0  0  0  0  0  0
   26.4535  -18.8785   -8.2432 C   0  0  0  0  0  0  0  0  0  0  0  0
   27.4440  -18.6741   -7.3591 N   0  0  0  0  0  0  0  0  0  0  0  0
   28.0476  -19.8261   -7.0199 C   0  0  0  0  0  0  0  0  0  0  0  0
   29.0955  -20.0839   -6.1576 C   0  0  0  0  0  0  0  0  0  0  0  0
   29.5232  -21.3924   -5.9928 C   0  0  0  0  0  0  0  0  0  0  0  0
   28.8838  -22.3918   -6.6990 C   0  0  0  0  0  0  0  0  0  0  0  0
   27.8355  -22.1512   -7.5646 C   0  0  0  0  0  0  0  0  0  0  0  0
   27.4120  -20.8292   -7.7236 C   0  0  0  0  0  0  0  0  0  0  0  0
   25.2422  -21.3512  -11.8515 C   0  0  0  0  0  0  0  0  0  0  0  0
   24.4180  -20.5257  -12.2897 O   0  0  0  0  0  0  0  0  0  0  0  0
   25.2490  -22.6389  -12.4652 N   0  0  0  0  0  0  0  0  0  0  0  0
   24.4611  -23.0017  -13.6208 C   0  0  1  0  0  0  0  0  0  0  0  0
   24.8786  -24.2809  -14.2516 C   0  0  0  0  0  0  0  0  0  0  0  0
   25.5019  -24.1442  -15.5984 C   0  0  0  0  0  0  0  0  0  0  0  0
   27.0036  -24.2253  -15.5910 C   0  0  0  0  0  0  0  0  0  0  0  0
   27.4503  -23.9290  -17.0178 C   0  0  0  0  0  0  0  0  0  0  0  0
   28.9103  -23.9839  -17.0889 N   0  0  0  0  0  0  0  0  0  0  0  0
   23.0342  -22.9212  -13.2679 C   0  0  0  0  0  0  0  0  0  0  0  0
   22.6604  -23.3296  -12.1454 O   0  0  0  0  0  0  0  0  0  0  0  0
   19.9012  -18.5377  -13.5822 C   0  0  0  0  0  0  0  0  0  0  0  0
   20.5218  -19.8557  -13.2909 C   0  0  0  0  0  0  0  0  0  0  0  0
   19.9441  -21.0417  -14.0012 C   0  0  2  0  0  0  0  0  0  0  0  0
   18.4489  -21.1458  -13.6922 C   0  0  0  0  0  0  0  0  0  0  0  0
   20.6383  -22.3407  -13.8137 C   0  0  2  0  0  0  0  0  0  0  0  0
   22.0211  -22.4018  -14.1247 N   0  0  0  0  0  0  0  0  0  0  0  0
   19.9140  -23.3522  -14.6387 C   0  0  0  0  0  0  0  0  0  0  0  0
   20.2279  -23.6054  -15.8232 O   0  0  0  0  0  0  0  0  0  0  0  0
   18.8468  -24.0553  -14.0992 O   0  0  0  0  0  0  0  0  0  0  0  0
  2  1  1  6
  2 13  1  0
  2  3  1  0
  4  5  2  0
  4  3  1  0
  6  5  1  0
  7 12  2  0
  7  6  1  0
  8  7  1  0
  9 10  1  0
  9  8  2  0
 10 11  2  0
 11 12  1  0
 12  4  1  0
 13 14  2  0
 15 16  1  0
 15 13  1  0
 16 17  1  1
 18 17  1  0
 19 20  1  0
 19 18  1  0
 21 20  1  0
 22 16  1  0
 22 23  2  0
 24 25  1  0
 25 26  1  0
 26 28  1  0
 26 27  1  1
 28 29  1  6
 28 30  1  0
 29 22  1  0
 30 31  2  0
 30 32  1  0
M  END
$$$$
