WKI.pdb
     RDKit          3D

 32 33  0  0  1  0  0  0  0  0999 V2000
   26.3317  -17.8599  -19.6270 N   0  0  0  0  0  0  0  0  0  0  0  0
   26.9688  -18.1767  -18.3644 C   0  0  1  0  0  0  0  0  0  0  0  0
   26.8581  -17.0129  -17.4048 C   0  0  0  0  0  0  0  0  0  0  0  0
   27.7283  -15.9360  -17.9324 C   0  0  0  0  0  0  0  0  0  0  0  0
   27.3312  -14.6836  -18.3288 C   0  0  0  0  0  0  0  0  0  0  0  0
   28.4390  -14.0422  -18.7359 N   0  0  0  0  0  0  0  0  0  0  0  0
   29.5292  -14.8198  -18.6211 C   0  0  0  0  0  0  0  0  0  0  0  0
   30.8562  -14.5745  -18.9164 C   0  0  0  0  0  0  0  0  0  0  0  0
   31.7897  -15.5752  -18.6944 C   0  0  0  0  0  0  0  0  0  0  0  0
   31.3567  -16.7833  -18.1849 C   0  0  0  0  0  0  0  0  0  0  0  0
   30.0348  -17.0446  -17.8846 C   0  0  0  0  0  0  0  0  0  0  0  0
   29.1019  -16.0295  -18.1120 C   0  0  0  0  0  0  0  0  0  0  0  0
   26.3547  -19.4231  -17.8498 C   0  0  0  0  0  0  0  0  0  0  0  0
   25.1177  -19.5602  -17.7881 O   0  0  0  0  0  0  0  0  0  0  0  0
   27.1454  -20.5226  -17.4018 N   0  0  0  0  0  0  0  0  0  0  0  0
   26.6211  -21.6945  -16.7387 C   0  0  1  0  0  0  0  0  0  0  0  0
   27.6013  -22.8055  -16.6238 C   0  0  0  0  0  0  0  0  0  0  0  0
   27.0717  -24.0495  -15.9968 C   0  0  0  0  0  0  0  0  0  0  0  0
   26.3540  -24.9615  -16.9532 C   0  0  0  0  0  0  0  0  0  0  0  0
   25.8339  -26.1256  -16.1180 C   0  0  0  0  0  0  0  0  0  0  0  0
   25.1016  -27.0516  -16.9817 N   0  0  0  0  0  0  0  0  0  0  0  0
   25.9975  -21.2841  -15.4699 C   0  0  0  0  0  0  0  0  0  0  0  0
   26.6400  -20.5510  -14.6847 O   0  0  0  0  0  0  0  0  0  0  0  0
   20.9793  -19.2301  -14.8786 C   0  0  0  0  0  0  0  0  0  0  0  0
   22.4000  -19.6474  -14.7583 C   0  0  0  0  0  0  0  0  0  0  0  0
   22.6842  -20.8114  -13.8587 C   0  0  2  0  0  0  0  0  0  0  0  0
   22.1496  -20.5170  -12.4553 C   0  0  0  0  0  0  0  0  0  0  0  0
   24.0832  -21.3074  -13.8237 C   0  0  2  0  0  0  0  0  0  0  0  0
   24.6885  -21.6651  -15.0560 N   0  0  0  0  0  0  0  0  0  0  0  0
   24.1104  -22.4897  -12.9128 C   0  0  0  0  0  0  0  0  0  0  0  0
   24.0277  -23.6657  -13.3322 O   0  0  0  0  0  0  0  0  0  0  0  0
   24.2312  -22.3100  -11.5426 O   0  0  0  0  0  0  0  0  0  0  0  0
  2  1  1  6
  2 13  1  0
  2  3  1  0
  4  5  2  0
  4  3  1  0
  6  5  1  0
  7 12  2  0
  7  6  1  0
  8  7  1  0
  9 10  1  0
  9  8  2  0
 10 11  2  0
 11 12  1  0
 12  4  1  0
 13 14  2  0
 15 16  1  0
 15 13  1  0
 16 17  1  1
 18 17  1  0
 19 20  1  0
 19 18  1  0
 21 20  1  0
 22 16  1  0
 22 23  2  0
 24 25  1  0
 25 26  1  0
 26 28  1  0
 26 27  1  1
 28 29  1  6
 28 30  1  0
 29 22  1  0
 30 31  2  0
 30 32  1  0
M  END
$$$$
