WKI.pdb
     RDKit          3D

 32 33  0  0  1  0  0  0  0  0999 V2000
   24.4729  -20.1944  -17.0478 N   0  0  0  0  0  0  0  0  0  0  0  0
   24.3009  -20.6577  -15.6854 C   0  0  1  0  0  0  0  0  0  0  0  0
   24.9113  -19.6779  -14.7082 C   0  0  0  0  0  0  0  0  0  0  0  0
   26.3636  -19.6298  -14.9978 C   0  0  0  0  0  0  0  0  0  0  0  0
   27.2835  -20.6132  -14.7337 C   0  0  0  0  0  0  0  0  0  0  0  0
   28.4713  -20.1491  -15.1559 N   0  0  0  0  0  0  0  0  0  0  0  0
   28.3611  -18.9158  -15.6786 C   0  0  0  0  0  0  0  0  0  0  0  0
   29.3085  -18.0718  -16.2249 C   0  0  0  0  0  0  0  0  0  0  0  0
   28.9096  -16.8314  -16.6988 C   0  0  0  0  0  0  0  0  0  0  0  0
   27.5762  -16.4852  -16.6066 C   0  0  0  0  0  0  0  0  0  0  0  0
   26.6170  -17.3165  -16.0636 C   0  0  0  0  0  0  0  0  0  0  0  0
   27.0293  -18.5643  -15.5889 C   0  0  0  0  0  0  0  0  0  0  0  0
   22.8530  -20.8825  -15.4651 C   0  0  0  0  0  0  0  0  0  0  0  0
   22.0545  -19.9302  -15.3738 O   0  0  0  0  0  0  0  0  0  0  0  0
   22.3042  -22.1938  -15.3473 N   0  0  0  0  0  0  0  0  0  0  0  0
   20.9020  -22.4823  -15.1505 C   0  0  1  0  0  0  0  0  0  0  0  0
   20.3860  -23.5671  -16.0254 C   0  0  0  0  0  0  0  0  0  0  0  0
   20.4264  -23.2707  -17.4854 C   0  0  0  0  0  0  0  0  0  0  0  0
   19.7687  -24.3168  -18.3426 C   0  0  0  0  0  0  0  0  0  0  0  0
   19.8514  -23.8029  -19.7752 C   0  0  0  0  0  0  0  0  0  0  0  0
   19.2246  -24.7721  -20.6738 N   0  0  0  0  0  0  0  0  0  0  0  0
   20.6533  -22.6745  -13.7123 C   0  0  0  0  0  0  0  0  0  0  0  0
   21.5181  -23.2533  -13.0168 O   0  0  0  0  0  0  0  0  0  0  0  0
   21.1280  -19.6055   -9.8394 C   0  0  0  0  0  0  0  0  0  0  0  0
   20.8650  -20.7473  -10.7527 C   0  0  0  0  0  0  0  0  0  0  0  0
   19.4836  -21.3267  -10.7231 C   0  0  2  0  0  0  0  0  0  0  0  0
   19.1066  -21.6794   -9.2824 C   0  0  0  0  0  0  0  0  0  0  0  0
   19.2050  -22.4470  -11.6567 C   0  0  2  0  0  0  0  0  0  0  0  0
   19.4771  -22.2427  -13.0340 N   0  0  0  0  0  0  0  0  0  0  0  0
   17.7647  -22.8064  -11.4987 C   0  0  0  0  0  0  0  0  0  0  0  0
   16.8584  -22.2714  -12.1755 O   0  0  0  0  0  0  0  0  0  0  0  0
   17.3846  -23.7675  -10.5734 O   0  0  0  0  0  0  0  0  0  0  0  0
  2  1  1  6
  2 13  1  0
  2  3  1  0
  4  5  2  0
  4  3  1  0
  6  5  1  0
  7 12  2  0
  7  6  1  0
  8  7  1  0
  9 10  1  0
  9  8  2  0
 10 11  2  0
 11 12  1  0
 12  4  1  0
 13 14  2  0
 15 16  1  0
 15 13  1  0
 16 17  1  6
 18 17  1  0
 19 20  1  0
 19 18  1  0
 21 20  1  0
 22 16  1  0
 22 23  2  0
 24 25  1  0
 25 26  1  0
 26 28  1  0
 26 27  1  1
 28 29  1  6
 28 30  1  0
 29 22  1  0
 30 31  2  0
 30 32  1  0
M  END
$$$$
