WKI.pdb
     RDKit          3D

 32 33  0  0  1  0  0  0  0  0999 V2000
   22.2059  -20.5441  -15.3314 N   0  0  0  0  0  0  0  0  0  0  0  0
   23.0214  -19.5993  -14.5950 C   0  0  1  0  0  0  0  0  0  0  0  0
   22.1530  -18.6727  -13.7734 C   0  0  0  0  0  0  0  0  0  0  0  0
   21.5845  -17.6740  -14.7085 C   0  0  0  0  0  0  0  0  0  0  0  0
   20.3067  -17.6559  -15.2087 C   0  0  0  0  0  0  0  0  0  0  0  0
   20.2262  -16.5832  -16.0133 N   0  0  0  0  0  0  0  0  0  0  0  0
   21.3889  -15.9103  -16.0556 C   0  0  0  0  0  0  0  0  0  0  0  0
   21.7534  -14.7672  -16.7403 C   0  0  0  0  0  0  0  0  0  0  0  0
   23.0442  -14.2816  -16.5973 C   0  0  0  0  0  0  0  0  0  0  0  0
   23.9195  -14.9608  -15.7734 C   0  0  0  0  0  0  0  0  0  0  0  0
   23.5713  -16.1042  -15.0824 C   0  0  0  0  0  0  0  0  0  0  0  0
   22.2682  -16.5854  -15.2333 C   0  0  0  0  0  0  0  0  0  0  0  0
   23.9868  -20.3750  -13.7816 C   0  0  0  0  0  0  0  0  0  0  0  0
   23.6061  -21.2575  -12.9884 O   0  0  0  0  0  0  0  0  0  0  0  0
   25.3930  -20.1510  -13.8658 N   0  0  0  0  0  0  0  0  0  0  0  0
   26.3811  -20.8200  -13.0508 C   0  0  1  0  0  0  0  0  0  0  0  0
   27.7232  -20.9007  -13.6838 C   0  0  0  0  0  0  0  0  0  0  0  0
   27.7616  -21.6214  -14.9877 C   0  0  0  0  0  0  0  0  0  0  0  0
   29.1453  -21.8030  -15.5482 C   0  0  0  0  0  0  0  0  0  0  0  0
   28.9685  -22.4927  -16.8959 C   0  0  0  0  0  0  0  0  0  0  0  0
   30.2766  -22.6609  -17.5285 N   0  0  0  0  0  0  0  0  0  0  0  0
   26.3657  -20.2280  -11.7031 C   0  0  0  0  0  0  0  0  0  0  0  0
   26.2228  -18.9904  -11.5831 O   0  0  0  0  0  0  0  0  0  0  0  0
   23.1393  -21.3089   -7.5625 C   0  0  0  0  0  0  0  0  0  0  0  0
   24.1159  -20.7740   -8.5459 C   0  0  0  0  0  0  0  0  0  0  0  0
   25.5660  -20.9096   -8.1944 C   0  0  2  0  0  0  0  0  0  0  0  0
   25.8147  -20.3143   -6.8067 C   0  0  0  0  0  0  0  0  0  0  0  0
   26.5481  -20.4143   -9.1917 C   0  0  2  0  0  0  0  0  0  0  0  0
   26.5040  -20.9716  -10.4956 N   0  0  0  0  0  0  0  0  0  0  0  0
   27.9090  -20.6352   -8.6193 C   0  0  0  0  0  0  0  0  0  0  0  0
   28.6675  -21.5473   -9.0172 O   0  0  0  0  0  0  0  0  0  0  0  0
   28.3795  -19.8135   -7.6055 O   0  0  0  0  0  0  0  0  0  0  0  0
  2  1  1  1
  2 13  1  0
  2  3  1  0
  4  5  2  0
  4  3  1  0
  6  5  1  0
  7 12  2  0
  7  6  1  0
  8  7  1  0
  9 10  1  0
  9  8  2  0
 10 11  2  0
 11 12  1  0
 12  4  1  0
 13 14  2  0
 15 16  1  0
 15 13  1  0
 16 17  1  6
 18 17  1  0
 19 20  1  0
 19 18  1  0
 21 20  1  0
 22 16  1  0
 22 23  2  0
 24 25  1  0
 25 26  1  0
 26 28  1  0
 26 27  1  1
 28 29  1  6
 28 30  1  0
 29 22  1  0
 30 31  2  0
 30 32  1  0
M  END
$$$$
