WKI.pdb
     RDKit          3D

 32 33  0  0  1  0  0  0  0  0999 V2000
   16.0648  -10.6162  -10.3054 N   0  0  0  0  0  0  0  0  0  0  0  0
   15.6150  -10.2843  -11.6425 C   0  0  1  0  0  0  0  0  0  0  0  0
   14.5474   -9.2139  -11.5951 C   0  0  0  0  0  0  0  0  0  0  0  0
   13.3561   -9.8223  -10.9581 C   0  0  0  0  0  0  0  0  0  0  0  0
   12.7435  -10.9954  -11.3211 C   0  0  0  0  0  0  0  0  0  0  0  0
   11.7089  -11.1625  -10.4808 N   0  0  0  0  0  0  0  0  0  0  0  0
   11.6255  -10.1550   -9.5951 C   0  0  0  0  0  0  0  0  0  0  0  0
   10.7340   -9.9203   -8.5663 C   0  0  0  0  0  0  0  0  0  0  0  0
   10.8856   -8.7793   -7.7934 C   0  0  0  0  0  0  0  0  0  0  0  0
   11.9252   -7.9177   -8.0819 C   0  0  0  0  0  0  0  0  0  0  0  0
   12.8245   -8.1373   -9.1061 C   0  0  0  0  0  0  0  0  0  0  0  0
   12.6630   -9.2901   -9.8792 C   0  0  0  0  0  0  0  0  0  0  0  0
   16.8047   -9.8930  -12.4343 C   0  0  0  0  0  0  0  0  0  0  0  0
   17.6951   -9.1663  -11.9527 O   0  0  0  0  0  0  0  0  0  0  0  0
   16.9887  -10.3269  -13.7807 N   0  0  0  0  0  0  0  0  0  0  0  0
   18.1087   -9.9584  -14.6160 C   0  0  1  0  0  0  0  0  0  0  0  0
   18.1741  -10.7120  -15.8952 C   0  0  0  0  0  0  0  0  0  0  0  0
   19.3635  -10.4123  -16.7418 C   0  0  0  0  0  0  0  0  0  0  0  0
   19.3100  -11.0246  -18.1144 C   0  0  0  0  0  0  0  0  0  0  0  0
   20.5976  -10.6062  -18.8146 C   0  0  0  0  0  0  0  0  0  0  0  0
   20.5537  -11.0438  -20.2097 N   0  0  0  0  0  0  0  0  0  0  0  0
   18.1349   -8.4934  -14.7574 C   0  0  0  0  0  0  0  0  0  0  0  0
   17.0530   -7.8647  -14.7849 O   0  0  0  0  0  0  0  0  0  0  0  0
   22.6011   -5.3588  -12.8905 C   0  0  0  0  0  0  0  0  0  0  0  0
   21.7258   -5.9818  -13.9165 C   0  0  0  0  0  0  0  0  0  0  0  0
   20.2649   -5.6580  -13.8394 C   0  0  2  0  0  0  0  0  0  0  0  0
   19.7636   -5.8887  -12.4120 C   0  0  0  0  0  0  0  0  0  0  0  0
   19.3808   -6.2990  -14.8453 C   0  0  2  0  0  0  0  0  0  0  0  0
   19.3242   -7.7165  -14.8677 N   0  0  0  0  0  0  0  0  0  0  0  0
   19.8146   -5.8132  -16.1886 C   0  0  0  0  0  0  0  0  0  0  0  0
   20.2316   -6.5841  -17.0816 O   0  0  0  0  0  0  0  0  0  0  0  0
   19.7650   -4.4598  -16.4887 O   0  0  0  0  0  0  0  0  0  0  0  0
  2  1  1  1
  2 13  1  0
  2  3  1  0
  4  5  2  0
  4  3  1  0
  6  5  1  0
  7 12  2  0
  7  6  1  0
  8  7  1  0
  9 10  1  0
  9  8  2  0
 10 11  2  0
 11 12  1  0
 12  4  1  0
 13 14  2  0
 15 16  1  0
 15 13  1  0
 16 17  1  6
 18 17  1  0
 19 20  1  0
 19 18  1  0
 21 20  1  0
 22 16  1  0
 22 23  2  0
 24 25  1  0
 25 26  1  0
 26 28  1  0
 26 27  1  1
 28 29  1  6
 28 30  1  0
 29 22  1  0
 30 31  2  0
 30 32  1  0
M  END
$$$$
