WKI.pdb
     RDKit          3D

 32 33  0  0  1  0  0  0  0  0999 V2000
   25.7297  -18.8632   -9.4204 N   0  0  0  0  0  0  0  0  0  0  0  0
   26.4873  -20.0435   -9.7854 C   0  0  1  0  0  0  0  0  0  0  0  0
   26.3137  -21.1301   -8.7477 C   0  0  0  0  0  0  0  0  0  0  0  0
   26.8374  -20.5927   -7.4702 C   0  0  0  0  0  0  0  0  0  0  0  0
   26.1157  -19.9501   -6.4957 C   0  0  0  0  0  0  0  0  0  0  0  0
   26.9849  -19.6354   -5.5210 N   0  0  0  0  0  0  0  0  0  0  0  0
   28.2300  -20.0436   -5.8201 C   0  0  0  0  0  0  0  0  0  0  0  0
   29.4157  -19.9341   -5.1197 C   0  0  0  0  0  0  0  0  0  0  0  0
   30.5743  -20.4553   -5.6748 C   0  0  0  0  0  0  0  0  0  0  0  0
   30.4994  -21.0662   -6.9107 C   0  0  0  0  0  0  0  0  0  0  0  0
   29.3230  -21.1839   -7.6237 C   0  0  0  0  0  0  0  0  0  0  0  0
   28.1610  -20.6554   -7.0556 C   0  0  0  0  0  0  0  0  0  0  0  0
   26.0574  -20.4532  -11.1429 C   0  0  0  0  0  0  0  0  0  0  0  0
   24.8762  -20.3218  -11.5173 O   0  0  0  0  0  0  0  0  0  0  0  0
   26.9702  -21.0155  -12.0838 N   0  0  0  0  0  0  0  0  0  0  0  0
   26.7493  -21.0687  -13.5108 C   0  0  1  0  0  0  0  0  0  0  0  0
   27.9533  -21.4619  -14.2881 C   0  0  0  0  0  0  0  0  0  0  0  0
   27.7536  -21.5348  -15.7632 C   0  0  0  0  0  0  0  0  0  0  0  0
   29.0053  -21.8436  -16.5376 C   0  0  0  0  0  0  0  0  0  0  0  0
   28.7178  -21.4483  -17.9813 C   0  0  0  0  0  0  0  0  0  0  0  0
   27.6814  -22.3254  -18.5258 N   0  0  0  0  0  0  0  0  0  0  0  0
   25.5484  -21.8777  -13.7763 C   0  0  0  0  0  0  0  0  0  0  0  0
   25.4986  -23.0526  -13.3478 O   0  0  0  0  0  0  0  0  0  0  0  0
   19.5133  -21.8434  -13.4637 C   0  0  0  0  0  0  0  0  0  0  0  0
   20.6944  -22.3092  -14.2352 C   0  0  0  0  0  0  0  0  0  0  0  0
   21.9843  -21.5879  -13.9892 C   0  0  2  0  0  0  0  0  0  0  0  0
   21.7993  -20.0956  -14.2734 C   0  0  0  0  0  0  0  0  0  0  0  0
   23.1950  -22.1307  -14.6555 C   0  0  2  0  0  0  0  0  0  0  0  0
   24.4110  -21.4166  -14.5001 N   0  0  0  0  0  0  0  0  0  0  0  0
   22.8855  -22.2435  -16.1115 C   0  0  0  0  0  0  0  0  0  0  0  0
   23.3904  -21.4844  -16.9685 O   0  0  0  0  0  0  0  0  0  0  0  0
   22.0073  -23.2177  -16.5630 O   0  0  0  0  0  0  0  0  0  0  0  0
  2  1  1  1
  2 13  1  0
  2  3  1  0
  4  5  2  0
  4  3  1  0
  6  5  1  0
  7 12  2  0
  7  6  1  0
  8  7  1  0
  9 10  1  0
  9  8  2  0
 10 11  2  0
 11 12  1  0
 12  4  1  0
 13 14  2  0
 15 16  1  0
 15 13  1  0
 16 17  1  6
 18 17  1  0
 19 20  1  0
 19 18  1  0
 21 20  1  0
 22 16  1  0
 22 23  2  0
 24 25  1  0
 25 26  1  0
 26 28  1  0
 26 27  1  6
 28 29  1  6
 28 30  1  0
 29 22  1  0
 30 31  2  0
 30 32  1  0
M  END
$$$$
