WKI.pdb
     RDKit          3D

 32 33  0  0  1  0  0  0  0  0999 V2000
   25.1930  -19.1423  -11.0705 N   0  0  0  0  0  0  0  0  0  0  0  0
   25.6907  -20.4200  -11.5394 C   0  0  1  0  0  0  0  0  0  0  0  0
   25.7188  -21.4274  -10.4116 C   0  0  0  0  0  0  0  0  0  0  0  0
   26.6045  -20.8728   -9.3613 C   0  0  0  0  0  0  0  0  0  0  0  0
   26.2311  -20.0562   -8.3235 C   0  0  0  0  0  0  0  0  0  0  0  0
   27.3464  -19.7958   -7.6215 N   0  0  0  0  0  0  0  0  0  0  0  0
   28.4188  -20.4046   -8.1562 C   0  0  0  0  0  0  0  0  0  0  0  0
   29.7452  -20.4147   -7.7700 C   0  0  0  0  0  0  0  0  0  0  0  0
   30.6571  -21.1425   -8.5189 C   0  0  0  0  0  0  0  0  0  0  0  0
   30.2041  -21.8320   -9.6260 C   0  0  0  0  0  0  0  0  0  0  0  0
   28.8826  -21.8323  -10.0255 C   0  0  0  0  0  0  0  0  0  0  0  0
   27.9714  -21.0957   -9.2641 C   0  0  0  0  0  0  0  0  0  0  0  0
   24.8467  -20.8407  -12.6823 C   0  0  0  0  0  0  0  0  0  0  0  0
   23.6477  -20.5104  -12.7603 O   0  0  0  0  0  0  0  0  0  0  0  0
   25.3625  -21.6407  -13.7447 N   0  0  0  0  0  0  0  0  0  0  0  0
   24.6247  -22.0014  -14.9335 C   0  0  1  0  0  0  0  0  0  0  0  0
   25.4838  -22.4738  -16.0503 C   0  0  0  0  0  0  0  0  0  0  0  0
   26.1414  -23.7919  -15.8241 C   0  0  0  0  0  0  0  0  0  0  0  0
   26.9597  -24.2777  -16.9886 C   0  0  0  0  0  0  0  0  0  0  0  0
   28.4149  -24.0060  -16.6257 C   0  0  0  0  0  0  0  0  0  0  0  0
   29.0178  -23.1532  -17.6498 N   0  0  0  0  0  0  0  0  0  0  0  0
   23.5362  -22.9186  -14.5578 C   0  0  0  0  0  0  0  0  0  0  0  0
   23.7806  -23.8667  -13.7782 O   0  0  0  0  0  0  0  0  0  0  0  0
   19.1353  -21.3141  -12.1997 C   0  0  0  0  0  0  0  0  0  0  0  0
   20.2618  -22.1106  -12.7506 C   0  0  0  0  0  0  0  0  0  0  0  0
   19.9601  -22.9646  -13.9441 C   0  0  2  0  0  0  0  0  0  0  0  0
   18.8549  -23.9633  -13.5934 C   0  0  0  0  0  0  0  0  0  0  0  0
   21.1131  -23.6266  -14.6050 C   0  0  2  0  0  0  0  0  0  0  0  0
   22.1941  -22.8085  -15.0233 N   0  0  0  0  0  0  0  0  0  0  0  0
   20.5806  -24.3633  -15.7892 C   0  0  0  0  0  0  0  0  0  0  0  0
   20.2944  -25.5809  -15.7525 O   0  0  0  0  0  0  0  0  0  0  0  0
   20.3844  -23.6997  -16.9914 O   0  0  0  0  0  0  0  0  0  0  0  0
  2  1  1  1
  2 13  1  0
  2  3  1  0
  4  5  2  0
  4  3  1  0
  6  5  1  0
  7 12  2  0
  7  6  1  0
  8  7  1  0
  9 10  1  0
  9  8  2  0
 10 11  2  0
 11 12  1  0
 12  4  1  0
 13 14  2  0
 15 16  1  0
 15 13  1  0
 16 17  1  6
 18 17  1  0
 19 20  1  0
 19 18  1  0
 21 20  1  0
 22 16  1  0
 22 23  2  0
 24 25  1  0
 25 26  1  0
 26 28  1  0
 26 27  1  1
 28 29  1  6
 28 30  1  0
 29 22  1  0
 30 31  2  0
 30 32  1  0
M  END
$$$$
