WKI.pdb
     RDKit          3D

 32 33  0  0  1  0  0  0  0  0999 V2000
   28.3356  -20.2652  -10.0074 N   0  0  0  0  0  0  0  0  0  0  0  0
   26.9966  -20.7264   -9.6998 C   0  0  1  0  0  0  0  0  0  0  0  0
   26.3571  -19.8445   -8.6506 C   0  0  0  0  0  0  0  0  0  0  0  0
   27.4181  -19.4952   -7.6773 C   0  0  0  0  0  0  0  0  0  0  0  0
   28.4354  -18.5934   -7.8645 C   0  0  0  0  0  0  0  0  0  0  0  0
   29.1597  -18.5936   -6.7332 N   0  0  0  0  0  0  0  0  0  0  0  0
   28.6587  -19.4509   -5.8273 C   0  0  0  0  0  0  0  0  0  0  0  0
   29.0749  -19.7689   -4.5490 C   0  0  0  0  0  0  0  0  0  0  0  0
   28.3565  -20.7061   -3.8225 C   0  0  0  0  0  0  0  0  0  0  0  0
   27.2486  -21.2882   -4.4057 C   0  0  0  0  0  0  0  0  0  0  0  0
   26.8195  -20.9819   -5.6816 C   0  0  0  0  0  0  0  0  0  0  0  0
   27.5503  -20.0362   -6.4055 C   0  0  0  0  0  0  0  0  0  0  0  0
   26.2343  -20.7766  -10.9694 C   0  0  0  0  0  0  0  0  0  0  0  0
   26.2343  -19.8177  -11.7652 O   0  0  0  0  0  0  0  0  0  0  0  0
   25.4666  -21.9198  -11.3418 N   0  0  0  0  0  0  0  0  0  0  0  0
   24.8018  -22.0831  -12.6143 C   0  0  1  0  0  0  0  0  0  0  0  0
   24.8622  -23.4691  -13.1470 C   0  0  0  0  0  0  0  0  0  0  0  0
   24.3266  -23.6364  -14.5277 C   0  0  0  0  0  0  0  0  0  0  0  0
   24.3057  -25.0607  -15.0097 C   0  0  0  0  0  0  0  0  0  0  0  0
   25.5031  -25.2098  -15.9409 C   0  0  0  0  0  0  0  0  0  0  0  0
   25.4230  -24.2011  -16.9973 N   0  0  0  0  0  0  0  0  0  0  0  0
   23.4476  -21.5136  -12.5200 C   0  0  0  0  0  0  0  0  0  0  0  0
   22.7889  -21.6798  -11.4688 O   0  0  0  0  0  0  0  0  0  0  0  0
   20.7602  -18.4062  -16.8381 C   0  0  0  0  0  0  0  0  0  0  0  0
   21.0778  -19.4823  -15.8644 C   0  0  0  0  0  0  0  0  0  0  0  0
   21.2248  -19.0696  -14.4316 C   0  0  2  0  0  0  0  0  0  0  0  0
   22.2034  -17.8971  -14.3339 C   0  0  0  0  0  0  0  0  0  0  0  0
   21.5461  -20.1398  -13.4540 C   0  0  2  0  0  0  0  0  0  0  0  0
   22.8131  -20.7699  -13.5565 N   0  0  0  0  0  0  0  0  0  0  0  0
   20.4807  -21.1791  -13.5700 C   0  0  0  0  0  0  0  0  0  0  0  0
   20.6617  -22.2664  -14.1622 O   0  0  0  0  0  0  0  0  0  0  0  0
   19.2307  -20.9601  -13.0099 O   0  0  0  0  0  0  0  0  0  0  0  0
  2  1  1  6
  2 13  1  0
  2  3  1  0
  4  5  2  0
  4  3  1  0
  6  5  1  0
  7 12  2  0
  7  6  1  0
  8  7  1  0
  9 10  1  0
  9  8  2  0
 10 11  2  0
 11 12  1  0
 12  4  1  0
 13 14  2  0
 15 16  1  0
 15 13  1  0
 16 17  1  1
 18 17  1  0
 19 20  1  0
 19 18  1  0
 21 20  1  0
 22 16  1  0
 22 23  2  0
 24 25  1  0
 25 26  1  0
 26 28  1  0
 26 27  1  6
 28 29  1  6
 28 30  1  0
 29 22  1  0
 30 31  2  0
 30 32  1  0
M  END
$$$$
