WKI.pdb
     RDKit          3D

 32 33  0  0  1  0  0  0  0  0999 V2000
   24.6086  -16.8383  -16.4795 N   0  0  0  0  0  0  0  0  0  0  0  0
   25.4290  -17.4823  -15.4733 C   0  0  1  0  0  0  0  0  0  0  0  0
   26.4293  -16.5054  -14.8963 C   0  0  0  0  0  0  0  0  0  0  0  0
   27.3869  -16.1803  -15.9791 C   0  0  0  0  0  0  0  0  0  0  0  0
   27.6070  -14.9440  -16.5327 C   0  0  0  0  0  0  0  0  0  0  0  0
   28.5504  -15.1093  -17.4746 N   0  0  0  0  0  0  0  0  0  0  0  0
   28.9483  -16.3906  -17.5544 C   0  0  0  0  0  0  0  0  0  0  0  0
   29.8818  -17.0040  -18.3673 C   0  0  0  0  0  0  0  0  0  0  0  0
   30.0967  -18.3671  -18.2332 C   0  0  0  0  0  0  0  0  0  0  0  0
   29.3675  -19.0626  -17.2894 C   0  0  0  0  0  0  0  0  0  0  0  0
   28.4312  -18.4651  -16.4694 C   0  0  0  0  0  0  0  0  0  0  0  0
   28.2219  -17.0910  -16.6124 C   0  0  0  0  0  0  0  0  0  0  0  0
   24.5218  -18.0638  -14.4564 C   0  0  0  0  0  0  0  0  0  0  0  0
   23.7021  -17.3580  -13.8378 O   0  0  0  0  0  0  0  0  0  0  0  0
   24.5417  -19.4539  -14.1369 N   0  0  0  0  0  0  0  0  0  0  0  0
   23.7257  -20.0737  -13.1182 C   0  0  1  0  0  0  0  0  0  0  0  0
   22.6280  -20.9156  -13.6612 C   0  0  0  0  0  0  0  0  0  0  0  0
   21.7473  -21.5406  -12.6341 C   0  0  0  0  0  0  0  0  0  0  0  0
   20.7066  -22.4673  -13.1996 C   0  0  0  0  0  0  0  0  0  0  0  0
   19.8664  -22.9324  -12.0160 C   0  0  0  0  0  0  0  0  0  0  0  0
   18.7801  -23.7845  -12.4990 N   0  0  0  0  0  0  0  0  0  0  0  0
   24.6052  -20.7502  -12.1506 C   0  0  0  0  0  0  0  0  0  0  0  0
   25.2172  -21.7836  -12.5028 O   0  0  0  0  0  0  0  0  0  0  0  0
   27.5825  -19.0269   -7.5035 C   0  0  0  0  0  0  0  0  0  0  0  0
   26.3583  -19.4328   -8.2409 C   0  0  0  0  0  0  0  0  0  0  0  0
   26.4088  -20.7502   -8.9527 C   0  0  2  0  0  0  0  0  0  0  0  0
   27.6816  -20.8270   -9.7989 C   0  0  0  0  0  0  0  0  0  0  0  0
   25.2051  -21.1406   -9.7293 C   0  0  2  0  0  0  0  0  0  0  0  0
   24.8195  -20.3097  -10.8127 N   0  0  0  0  0  0  0  0  0  0  0  0
   24.0686  -21.2342   -8.7660 C   0  0  0  0  0  0  0  0  0  0  0  0
   23.0552  -20.5046   -8.8464 O   0  0  0  0  0  0  0  0  0  0  0  0
   24.1081  -22.1561   -7.7303 O   0  0  0  0  0  0  0  0  0  0  0  0
  2  1  1  6
  2 13  1  0
  2  3  1  0
  4  5  2  0
  4  3  1  0
  6  5  1  0
  7 12  2  0
  7  6  1  0
  8  7  1  0
  9 10  1  0
  9  8  2  0
 10 11  2  0
 11 12  1  0
 12  4  1  0
 13 14  2  0
 15 16  1  0
 15 13  1  0
 16 17  1  6
 18 17  1  0
 19 20  1  0
 19 18  1  0
 21 20  1  0
 22 16  1  0
 22 23  2  0
 24 25  1  0
 25 26  1  0
 26 28  1  0
 26 27  1  6
 28 29  1  6
 28 30  1  0
 29 22  1  0
 30 31  2  0
 30 32  1  0
M  END
$$$$
