WKI.pdb
     RDKit          3D

 32 33  0  0  1  0  0  0  0  0999 V2000
   28.5300  -21.2934  -15.8871 N   0  0  0  0  0  0  0  0  0  0  0  0
   27.5780  -20.3644  -15.3119 C   0  0  1  0  0  0  0  0  0  0  0  0
   26.7936  -19.6639  -16.3989 C   0  0  0  0  0  0  0  0  0  0  0  0
   27.6620  -18.5877  -16.9306 C   0  0  0  0  0  0  0  0  0  0  0  0
   28.4668  -18.6587  -18.0399 C   0  0  0  0  0  0  0  0  0  0  0  0
   29.0718  -17.4645  -18.1506 N   0  0  0  0  0  0  0  0  0  0  0  0
   28.6961  -16.6285  -17.1675 C   0  0  0  0  0  0  0  0  0  0  0  0
   29.0594  -15.3239  -16.8949 C   0  0  0  0  0  0  0  0  0  0  0  0
   28.5059  -14.6887  -15.7938 C   0  0  0  0  0  0  0  0  0  0  0  0
   27.6095  -15.3861  -15.0085 C   0  0  0  0  0  0  0  0  0  0  0  0
   27.2360  -16.6898  -15.2669 C   0  0  0  0  0  0  0  0  0  0  0  0
   27.7995  -17.3210  -16.3788 C   0  0  0  0  0  0  0  0  0  0  0  0
   26.7246  -21.1212  -14.3661 C   0  0  0  0  0  0  0  0  0  0  0  0
   26.1006  -22.1382  -14.7256 O   0  0  0  0  0  0  0  0  0  0  0  0
   26.5759  -20.7250  -13.0039 N   0  0  0  0  0  0  0  0  0  0  0  0
   25.3966  -20.9632  -12.2038 C   0  0  1  0  0  0  0  0  0  0  0  0
   25.5148  -20.4768  -10.8045 C   0  0  0  0  0  0  0  0  0  0  0  0
   24.2717  -20.5930   -9.9908 C   0  0  0  0  0  0  0  0  0  0  0  0
   24.4286  -21.4207   -8.7450 C   0  0  0  0  0  0  0  0  0  0  0  0
   23.0339  -21.5481   -8.1434 C   0  0  0  0  0  0  0  0  0  0  0  0
   23.1288  -22.1949   -6.8348 N   0  0  0  0  0  0  0  0  0  0  0  0
   24.2182  -20.4688  -12.9346 C   0  0  0  0  0  0  0  0  0  0  0  0
   24.2047  -19.2841  -13.3380 O   0  0  0  0  0  0  0  0  0  0  0  0
   22.3204  -22.0578  -17.5208 C   0  0  0  0  0  0  0  0  0  0  0  0
   22.6063  -21.3205  -16.2632 C   0  0  0  0  0  0  0  0  0  0  0  0
   21.5552  -21.3781  -15.1971 C   0  0  2  0  0  0  0  0  0  0  0  0
   20.2375  -20.8267  -15.7462 C   0  0  0  0  0  0  0  0  0  0  0  0
   21.8986  -20.7800  -13.8822 C   0  0  2  0  0  0  0  0  0  0  0  0
   23.0643  -21.2523  -13.2257 N   0  0  0  0  0  0  0  0  0  0  0  0
   20.7240  -20.9835  -12.9837 C   0  0  0  0  0  0  0  0  0  0  0  0
   19.7601  -20.1866  -12.9437 O   0  0  0  0  0  0  0  0  0  0  0  0
   20.6700  -22.0897  -12.1484 O   0  0  0  0  0  0  0  0  0  0  0  0
  2  1  1  6
  2 13  1  0
  2  3  1  0
  4  5  2  0
  4  3  1  0
  6  5  1  0
  7 12  2  0
  7  6  1  0
  8  7  1  0
  9 10  1  0
  9  8  2  0
 10 11  2  0
 11 12  1  0
 12  4  1  0
 13 14  2  0
 15 16  1  0
 15 13  1  0
 16 17  1  1
 18 17  1  0
 19 20  1  0
 19 18  1  0
 21 20  1  0
 22 16  1  0
 22 23  2  0
 24 25  1  0
 25 26  1  0
 26 28  1  0
 26 27  1  6
 28 29  1  1
 28 30  1  0
 29 22  1  0
 30 31  2  0
 30 32  1  0
M  END
$$$$
