SFI.pdb
     RDKit          3D

 26 26  0  0  1  0  0  0  0  0999 V2000
   27.7806  -19.7345  -17.5330 O   0  0  0  0  0  0  0  0  0  0  0  0
   27.2459  -20.9144  -17.0276 C   0  0  0  0  0  0  0  0  0  0  0  0
   28.0349  -21.4185  -15.8271 C   0  0  2  0  0  0  0  0  0  0  0  0
   28.5760  -22.7110  -16.1999 N   0  0  0  0  0  0  0  0  0  0  0  0
   27.0254  -21.5740  -14.7184 C   0  0  0  0  0  0  0  0  0  0  0  0
   26.3693  -22.6404  -14.6076 O   0  0  0  0  0  0  0  0  0  0  0  0
   26.7741  -20.5536  -13.7735 N   0  0  0  0  0  0  0  0  0  0  0  0
   25.7774  -20.6416  -12.7383 C   0  0  1  0  0  0  0  0  0  0  0  0
   26.1263  -19.8300  -11.5095 C   0  0  0  0  0  0  0  0  0  0  0  0
   27.1384  -20.4297  -10.6577 C   0  0  0  0  0  0  0  0  0  0  0  0
   26.8950  -20.6253   -9.3187 C   0  0  0  0  0  0  0  0  0  0  0  0
   27.8617  -21.2018   -8.4835 C   0  0  0  0  0  0  0  0  0  0  0  0
   29.0751  -21.5796   -9.0076 C   0  0  0  0  0  0  0  0  0  0  0  0
   29.3292  -21.3861  -10.3565 C   0  0  0  0  0  0  0  0  0  0  0  0
   28.3521  -20.8084  -11.1781 C   0  0  0  0  0  0  0  0  0  0  0  0
   24.4237  -20.2543  -13.2367 C   0  0  0  0  0  0  0  0  0  0  0  0
   24.2971  -19.3896  -14.1403 O   0  0  0  0  0  0  0  0  0  0  0  0
   20.7952  -21.9964  -16.7803 C   0  0  0  0  0  0  0  0  0  0  0  0
   20.6419  -21.3590  -15.4193 C   0  0  0  0  0  0  0  0  0  0  0  0
   21.9662  -21.4761  -14.6962 C   0  0  2  0  0  0  0  0  0  0  0  0
   22.2565  -22.9395  -14.4898 C   0  0  0  0  0  0  0  0  0  0  0  0
   21.9429  -20.7202  -13.3828 C   0  0  2  0  0  0  0  0  0  0  0  0
   23.2342  -20.8371  -12.7198 N   0  0  0  0  0  0  0  0  0  0  0  0
   20.8878  -21.2504  -12.4847 C   0  0  0  0  0  0  0  0  0  0  0  0
   19.5861  -20.7752  -12.5692 O   0  0  0  0  0  0  0  0  0  0  0  0
   21.1268  -22.1371  -11.6251 O   0  0  0  0  0  0  0  0  0  0  0  0
  2  1  1  0
  3  2  1  0
  3  4  1  6
  5  3  1  0
  5  7  1  0
  6  5  2  0
  8  7  1  0
  8  9  1  1
  9 10  1  0
 10 11  2  0
 11 12  1  0
 13 12  2  0
 14 13  1  0
 15 10  1  0
 15 14  2  0
 16  8  1  0
 17 16  2  0
 19 18  1  0
 19 20  1  0
 20 22  1  0
 20 21  1  1
 22 23  1  1
 22 24  1  0
 23 16  1  0
 24 25  1  0
 26 24  2  0
M  END
$$$$
