SFI.pdb
     RDKit          3D

 26 26  0  0  1  0  0  0  0  0999 V2000
   39.7392  -26.8583    5.4563 O   0  0  0  0  0  0  0  0  0  0  0  0
   39.3545  -25.7718    6.2341 C   0  0  0  0  0  0  0  0  0  0  0  0
   39.2344  -24.5019    5.4031 C   0  0  2  0  0  0  0  0  0  0  0  0
   40.4198  -23.7133    5.6777 N   0  0  0  0  0  0  0  0  0  0  0  0
   38.0060  -23.7973    5.9198 C   0  0  0  0  0  0  0  0  0  0  0  0
   38.0586  -23.1414    6.9909 O   0  0  0  0  0  0  0  0  0  0  0  0
   36.7667  -23.8391    5.2419 N   0  0  0  0  0  0  0  0  0  0  0  0
   35.5663  -23.2021    5.7174 C   0  0  1  0  0  0  0  0  0  0  0  0
   34.5510  -22.9589    4.6217 C   0  0  0  0  0  0  0  0  0  0  0  0
   33.3728  -22.2216    5.0436 C   0  0  0  0  0  0  0  0  0  0  0  0
   33.2830  -21.7251    6.3225 C   0  0  0  0  0  0  0  0  0  0  0  0
   32.1525  -21.0125    6.7450 C   0  0  0  0  0  0  0  0  0  0  0  0
   31.1135  -20.8041    5.8693 C   0  0  0  0  0  0  0  0  0  0  0  0
   31.1955  -21.3012    4.5778 C   0  0  0  0  0  0  0  0  0  0  0  0
   32.3328  -22.0116    4.1710 C   0  0  0  0  0  0  0  0  0  0  0  0
   34.9364  -23.9680    6.8343 C   0  0  0  0  0  0  0  0  0  0  0  0
   34.6553  -25.1856    6.6972 O   0  0  0  0  0  0  0  0  0  0  0  0
   37.1991  -24.3894   11.3885 C   0  0  0  0  0  0  0  0  0  0  0  0
   36.3574  -24.5683   10.1468 C   0  0  0  0  0  0  0  0  0  0  0  0
   34.9953  -23.9655   10.4144 C   0  0  2  0  0  0  0  0  0  0  0  0
   34.4181  -24.6401   11.6310 C   0  0  0  0  0  0  0  0  0  0  0  0
   34.0855  -24.1095    9.2110 C   0  0  2  0  0  0  0  0  0  0  0  0
   34.6303  -23.3643    8.0847 N   0  0  0  0  0  0  0  0  0  0  0  0
   32.7237  -23.6042    9.5125 C   0  0  0  0  0  0  0  0  0  0  0  0
   31.6416  -24.4732    9.5493 O   0  0  0  0  0  0  0  0  0  0  0  0
   32.4989  -22.3883    9.7431 O   0  0  0  0  0  0  0  0  0  0  0  0
  2  1  1  0
  3  2  1  0
  3  4  1  1
  5  3  1  0
  5  7  1  0
  6  5  2  0
  8  7  1  0
  8  9  1  6
  9 10  1  0
 10 11  2  0
 11 12  1  0
 13 12  2  0
 14 13  1  0
 15 10  1  0
 15 14  2  0
 16  8  1  0
 17 16  2  0
 19 18  1  0
 19 20  1  0
 20 22  1  0
 20 21  1  1
 22 23  1  6
 22 24  1  0
 23 16  1  0
 24 25  1  0
 26 24  2  0
M  END
$$$$
