SFI.pdb
     RDKit          3D

 26 26  0  0  1  0  0  0  0  0999 V2000
   25.8112  -24.7355  -17.4872 O   0  0  0  0  0  0  0  0  0  0  0  0
   24.7117  -24.2376  -16.7968 C   0  0  0  0  0  0  0  0  0  0  0  0
   24.9219  -24.2968  -15.2901 C   0  0  2  0  0  0  0  0  0  0  0  0
   24.5628  -25.6387  -14.8741 N   0  0  0  0  0  0  0  0  0  0  0  0
   23.9583  -23.2935  -14.7094 C   0  0  0  0  0  0  0  0  0  0  0  0
   22.8453  -23.6721  -14.2646 O   0  0  0  0  0  0  0  0  0  0  0  0
   24.2525  -21.9131  -14.6388 N   0  0  0  0  0  0  0  0  0  0  0  0
   23.3441  -20.9207  -14.1260 C   0  0  1  0  0  0  0  0  0  0  0  0
   24.0454  -19.7993  -13.3906 C   0  0  0  0  0  0  0  0  0  0  0  0
   24.5258  -20.1538  -12.0665 C   0  0  0  0  0  0  0  0  0  0  0  0
   23.7277  -19.9661  -10.9628 C   0  0  0  0  0  0  0  0  0  0  0  0
   24.1771  -20.3023   -9.6785 C   0  0  0  0  0  0  0  0  0  0  0  0
   25.4363  -20.8288   -9.5148 C   0  0  0  0  0  0  0  0  0  0  0  0
   26.2479  -21.0215  -10.6220 C   0  0  0  0  0  0  0  0  0  0  0  0
   25.7836  -20.6802  -11.8994 C   0  0  0  0  0  0  0  0  0  0  0  0
   22.4725  -20.3580  -15.2006 C   0  0  0  0  0  0  0  0  0  0  0  0
   22.9772  -19.8377  -16.2277 O   0  0  0  0  0  0  0  0  0  0  0  0
   19.3629  -22.8893  -18.1468 C   0  0  0  0  0  0  0  0  0  0  0  0
   20.2343  -21.7760  -17.6146 C   0  0  0  0  0  0  0  0  0  0  0  0
   19.3609  -20.8482  -16.7980 C   0  0  2  0  0  0  0  0  0  0  0  0
   18.3293  -20.2498  -17.7179 C   0  0  0  0  0  0  0  0  0  0  0  0
   20.1871  -19.7780  -16.1134 C   0  0  2  0  0  0  0  0  0  0  0  0
   21.0537  -20.3843  -15.1123 N   0  0  0  0  0  0  0  0  0  0  0  0
   19.3146  -18.7750  -15.4549 C   0  0  0  0  0  0  0  0  0  0  0  0
   18.7668  -19.0298  -14.2049 O   0  0  0  0  0  0  0  0  0  0  0  0
   19.0409  -17.6720  -15.9940 O   0  0  0  0  0  0  0  0  0  0  0  0
  2  1  1  0
  3  2  1  0
  3  4  1  1
  5  3  1  0
  5  7  1  0
  6  5  2  0
  8  7  1  0
  8  9  1  6
  9 10  1  0
 10 11  2  0
 11 12  1  0
 13 12  2  0
 14 13  1  0
 15 10  1  0
 15 14  2  0
 16  8  1  0
 17 16  2  0
 19 18  1  0
 19 20  1  0
 20 22  1  0
 20 21  1  6
 22 23  1  1
 22 24  1  0
 23 16  1  0
 24 25  1  0
 26 24  2  0
M  END
$$$$
