SFI.pdb
     RDKit          3D

 26 26  0  0  1  0  0  0  0  0999 V2000
   26.2972  -19.7391  -14.5448 O   0  0  0  0  0  0  0  0  0  0  0  0
   26.7108  -19.7519  -13.2173 C   0  0  0  0  0  0  0  0  0  0  0  0
   27.4677  -21.0286  -12.8781 C   0  0  2  0  0  0  0  0  0  0  0  0
   26.8755  -22.0854  -13.6751 N   0  0  0  0  0  0  0  0  0  0  0  0
   27.2107  -21.2718  -11.4128 C   0  0  0  0  0  0  0  0  0  0  0  0
   26.3086  -22.0705  -11.0546 O   0  0  0  0  0  0  0  0  0  0  0  0
   27.9531  -20.6294  -10.3963 N   0  0  0  0  0  0  0  0  0  0  0  0
   27.6727  -20.7580   -8.9900 C   0  0  1  0  0  0  0  0  0  0  0  0
   28.7387  -20.1359   -8.1142 C   0  0  0  0  0  0  0  0  0  0  0  0
   28.3886  -20.0489   -6.7072 C   0  0  0  0  0  0  0  0  0  0  0  0
   28.6371  -21.1038   -5.8612 C   0  0  0  0  0  0  0  0  0  0  0  0
   28.3044  -21.0355   -4.5015 C   0  0  0  0  0  0  0  0  0  0  0  0
   27.7195  -19.8967   -4.0008 C   0  0  0  0  0  0  0  0  0  0  0  0
   27.4653  -18.8281   -4.8465 C   0  0  0  0  0  0  0  0  0  0  0  0
   27.8041  -18.9122   -6.2036 C   0  0  0  0  0  0  0  0  0  0  0  0
   26.3336  -20.1982   -8.6375 C   0  0  0  0  0  0  0  0  0  0  0  0
   26.0908  -18.9742   -8.7899 O   0  0  0  0  0  0  0  0  0  0  0  0
   21.1236  -19.6793  -10.2792 C   0  0  0  0  0  0  0  0  0  0  0  0
   21.7872  -19.8443   -8.9321 C   0  0  0  0  0  0  0  0  0  0  0  0
   23.1653  -20.4277   -9.1580 C   0  0  2  0  0  0  0  0  0  0  0  0
   22.9989  -21.7847   -9.7898 C   0  0  0  0  0  0  0  0  0  0  0  0
   23.9469  -20.5065   -7.8620 C   0  0  2  0  0  0  0  0  0  0  0  0
   25.2880  -21.0116   -8.1210 N   0  0  0  0  0  0  0  0  0  0  0  0
   23.2721  -21.4010   -6.8897 C   0  0  0  0  0  0  0  0  0  0  0  0
   22.0526  -21.0429   -6.3312 O   0  0  0  0  0  0  0  0  0  0  0  0
   23.7700  -22.5014   -6.5383 O   0  0  0  0  0  0  0  0  0  0  0  0
  2  1  1  0
  3  2  1  0
  3  4  1  6
  5  3  1  0
  5  7  1  0
  6  5  2  0
  8  7  1  0
  8  9  1  1
  9 10  1  0
 10 11  2  0
 11 12  1  0
 13 12  2  0
 14 13  1  0
 15 10  1  0
 15 14  2  0
 16  8  1  0
 17 16  2  0
 19 18  1  0
 19 20  1  0
 20 22  1  0
 20 21  1  1
 22 23  1  6
 22 24  1  0
 23 16  1  0
 24 25  1  0
 26 24  2  0
M  END
$$$$
