SFI.pdb
     RDKit          3D

 26 26  0  0  1  0  0  0  0  0999 V2000
   27.6964  -19.0474  -14.9106 O   0  0  0  0  0  0  0  0  0  0  0  0
   28.5594  -18.8743  -13.8341 C   0  0  0  0  0  0  0  0  0  0  0  0
   28.9483  -20.2062  -13.2075 C   0  0  2  0  0  0  0  0  0  0  0  0
   29.3687  -21.0685  -14.2947 N   0  0  0  0  0  0  0  0  0  0  0  0
   27.6868  -20.7376  -12.5760 C   0  0  0  0  0  0  0  0  0  0  0  0
   27.1432  -21.7760  -13.0300 O   0  0  0  0  0  0  0  0  0  0  0  0
   27.0699  -20.1095  -11.4706 N   0  0  0  0  0  0  0  0  0  0  0  0
   25.8734  -20.5941  -10.8328 C   0  0  1  0  0  0  0  0  0  0  0  0
   25.6036  -19.9322   -9.4988 C   0  0  0  0  0  0  0  0  0  0  0  0
   26.6912  -20.0378   -8.5420 C   0  0  0  0  0  0  0  0  0  0  0  0
   27.4955  -21.1526   -8.5221 C   0  0  0  0  0  0  0  0  0  0  0  0
   28.5483  -21.2699   -7.6043 C   0  0  0  0  0  0  0  0  0  0  0  0
   28.7843  -20.2556   -6.7070 C   0  0  0  0  0  0  0  0  0  0  0  0
   27.9783  -19.1278   -6.7198 C   0  0  0  0  0  0  0  0  0  0  0  0
   26.9298  -19.0260   -7.6438 C   0  0  0  0  0  0  0  0  0  0  0  0
   24.6786  -20.4594  -11.7189 C   0  0  0  0  0  0  0  0  0  0  0  0
   24.4225  -19.3678  -12.2874 O   0  0  0  0  0  0  0  0  0  0  0  0
   23.7889  -24.5850  -14.9105 C   0  0  0  0  0  0  0  0  0  0  0  0
   23.9115  -23.1750  -14.3826 C   0  0  0  0  0  0  0  0  0  0  0  0
   22.6259  -22.8322  -13.6613 C   0  0  2  0  0  0  0  0  0  0  0  0
   21.5086  -22.8407  -14.6712 C   0  0  0  0  0  0  0  0  0  0  0  0
   22.7320  -21.4948  -12.9564 C   0  0  2  0  0  0  0  0  0  0  0  0
   23.7894  -21.5432  -11.9562 N   0  0  0  0  0  0  0  0  0  0  0  0
   21.4531  -21.1428  -12.2922 C   0  0  0  0  0  0  0  0  0  0  0  0
   21.1832  -21.5840  -11.0038 O   0  0  0  0  0  0  0  0  0  0  0  0
   20.5767  -20.4420  -12.8606 O   0  0  0  0  0  0  0  0  0  0  0  0
  2  1  1  0
  3  2  1  0
  3  4  1  6
  5  3  1  0
  5  7  1  0
  6  5  2  0
  8  7  1  0
  8  9  1  1
  9 10  1  0
 10 11  2  0
 11 12  1  0
 13 12  2  0
 14 13  1  0
 15 10  1  0
 15 14  2  0
 16  8  1  0
 17 16  2  0
 19 18  1  0
 19 20  1  0
 20 22  1  0
 20 21  1  6
 22 23  1  1
 22 24  1  0
 23 16  1  0
 24 25  1  0
 26 24  2  0
M  END
$$$$
