SFI.pdb
     RDKit          3D

 26 26  0  0  1  0  0  0  0  0999 V2000
   26.4275  -21.0424  -18.4893 O   0  0  0  0  0  0  0  0  0  0  0  0
   27.6949  -20.6272  -18.0959 C   0  0  0  0  0  0  0  0  0  0  0  0
   28.4009  -21.6905  -17.2660 C   0  0  2  0  0  0  0  0  0  0  0  0
   28.4329  -22.8936  -18.0748 N   0  0  0  0  0  0  0  0  0  0  0  0
   27.5302  -21.8984  -16.0531 C   0  0  0  0  0  0  0  0  0  0  0  0
   26.8682  -22.9594  -15.9261 O   0  0  0  0  0  0  0  0  0  0  0  0
   27.4189  -20.9344  -15.0258 N   0  0  0  0  0  0  0  0  0  0  0  0
   26.5120  -21.0437  -13.9129 C   0  0  1  0  0  0  0  0  0  0  0  0
   26.9359  -20.2149  -12.7197 C   0  0  0  0  0  0  0  0  0  0  0  0
   26.1401  -20.4281  -11.5236 C   0  0  0  0  0  0  0  0  0  0  0  0
   24.9319  -19.7906  -11.3681 C   0  0  0  0  0  0  0  0  0  0  0  0
   24.1528  -19.9853  -10.2194 C   0  0  0  0  0  0  0  0  0  0  0  0
   24.6003  -20.8269   -9.2288 C   0  0  0  0  0  0  0  0  0  0  0  0
   25.8173  -21.4738   -9.3771 C   0  0  0  0  0  0  0  0  0  0  0  0
   26.5843  -21.2685  -10.5317 C   0  0  0  0  0  0  0  0  0  0  0  0
   25.1120  -20.6976  -14.3016 C   0  0  0  0  0  0  0  0  0  0  0  0
   24.8773  -19.6989  -15.0281 O   0  0  0  0  0  0  0  0  0  0  0  0
   20.4617  -22.0050  -17.0763 C   0  0  0  0  0  0  0  0  0  0  0  0
   20.6569  -21.9008  -15.5820 C   0  0  0  0  0  0  0  0  0  0  0  0
   22.1247  -22.1207  -15.2856 C   0  0  2  0  0  0  0  0  0  0  0  0
   22.3021  -23.5501  -14.8456 C   0  0  0  0  0  0  0  0  0  0  0  0
   22.6247  -21.1470  -14.2374 C   0  0  2  0  0  0  0  0  0  0  0  0
   23.9974  -21.4701  -13.8742 N   0  0  0  0  0  0  0  0  0  0  0  0
   21.7774  -21.1968  -13.0207 C   0  0  0  0  0  0  0  0  0  0  0  0
   21.9719  -22.1862  -12.0664 O   0  0  0  0  0  0  0  0  0  0  0  0
   20.8641  -20.3582  -12.8086 O   0  0  0  0  0  0  0  0  0  0  0  0
  2  1  1  0
  3  2  1  0
  3  4  1  6
  5  3  1  0
  5  7  1  0
  6  5  2  0
  8  7  1  0
  8  9  1  1
  9 10  1  0
 10 11  2  0
 11 12  1  0
 13 12  2  0
 14 13  1  0
 15 10  1  0
 15 14  2  0
 16  8  1  0
 17 16  2  0
 19 18  1  0
 19 20  1  0
 20 22  1  0
 20 21  1  1
 22 23  1  1
 22 24  1  0
 23 16  1  0
 24 25  1  0
 26 24  2  0
M  END
$$$$
