SFI.pdb
     RDKit          3D

 26 26  0  0  1  0  0  0  0  0999 V2000
   30.0837  -22.6556  -16.2596 O   0  0  0  0  0  0  0  0  0  0  0  0
   28.8526  -23.2083  -15.9242 C   0  0  0  0  0  0  0  0  0  0  0  0
   27.7110  -22.2361  -16.1879 C   0  0  2  0  0  0  0  0  0  0  0  0
   28.0704  -21.4878  -17.3767 N   0  0  0  0  0  0  0  0  0  0  0  0
   27.6728  -21.3249  -14.9876 C   0  0  0  0  0  0  0  0  0  0  0  0
   28.5592  -20.4470  -14.8337 O   0  0  0  0  0  0  0  0  0  0  0  0
   26.6638  -21.4116  -14.0020 N   0  0  0  0  0  0  0  0  0  0  0  0
   26.4695  -20.4374  -12.9598 C   0  0  1  0  0  0  0  0  0  0  0  0
   25.3099  -19.5035  -13.2307 C   0  0  0  0  0  0  0  0  0  0  0  0
   25.5343  -18.5607  -14.3125 C   0  0  0  0  0  0  0  0  0  0  0  0
   26.4108  -17.5135  -14.1530 C   0  0  0  0  0  0  0  0  0  0  0  0
   26.6375  -16.5949  -15.1871 C   0  0  0  0  0  0  0  0  0  0  0  0
   25.9746  -16.7395  -16.3826 C   0  0  0  0  0  0  0  0  0  0  0  0
   25.0890  -17.7924  -16.5523 C   0  0  0  0  0  0  0  0  0  0  0  0
   24.8735  -18.7023  -15.5086 C   0  0  0  0  0  0  0  0  0  0  0  0
   26.3032  -21.0810  -11.6223 C   0  0  0  0  0  0  0  0  0  0  0  0
   25.9212  -22.2750  -11.5292 O   0  0  0  0  0  0  0  0  0  0  0  0
   27.8369  -19.9228   -5.7246 C   0  0  0  0  0  0  0  0  0  0  0  0
   27.0220  -20.7631   -6.6795 C   0  0  0  0  0  0  0  0  0  0  0  0
   27.1319  -20.1454   -8.0567 C   0  0  2  0  0  0  0  0  0  0  0  0
   26.5414  -18.7613   -7.9950 C   0  0  0  0  0  0  0  0  0  0  0  0
   26.4411  -21.0018   -9.0989 C   0  0  2  0  0  0  0  0  0  0  0  0
   26.5652  -20.3833  -10.4114 N   0  0  0  0  0  0  0  0  0  0  0  0
   25.0027  -21.1709   -8.7774 C   0  0  0  0  0  0  0  0  0  0  0  0
   24.5974  -22.0961   -7.8251 O   0  0  0  0  0  0  0  0  0  0  0  0
   24.1079  -20.4936   -9.3456 O   0  0  0  0  0  0  0  0  0  0  0  0
  2  1  1  0
  3  2  1  0
  3  4  1  6
  5  3  1  0
  5  7  1  0
  6  5  2  0
  8  7  1  0
  8  9  1  6
  9 10  1  0
 10 11  2  0
 11 12  1  0
 13 12  2  0
 14 13  1  0
 15 10  1  0
 15 14  2  0
 16  8  1  0
 17 16  2  0
 19 18  1  0
 19 20  1  0
 20 22  1  0
 20 21  1  1
 22 23  1  6
 22 24  1  0
 23 16  1  0
 24 25  1  0
 26 24  2  0
M  END
$$$$
