SFI.pdb
     RDKit          3D

 26 26  0  0  1  0  0  0  0  0999 V2000
   25.7097  -20.7689  -16.8229 O   0  0  0  0  0  0  0  0  0  0  0  0
   27.0732  -21.0116  -16.9483 C   0  0  0  0  0  0  0  0  0  0  0  0
   27.4845  -22.2870  -16.2258 C   0  0  2  0  0  0  0  0  0  0  0  0
   26.9634  -23.3920  -17.0067 N   0  0  0  0  0  0  0  0  0  0  0  0
   26.8016  -22.2272  -14.8832 C   0  0  0  0  0  0  0  0  0  0  0  0
   25.8196  -22.9735  -14.6412 O   0  0  0  0  0  0  0  0  0  0  0  0
   27.2221  -21.3509  -13.8573 N   0  0  0  0  0  0  0  0  0  0  0  0
   26.5449  -21.2039  -12.5953 C   0  0  1  0  0  0  0  0  0  0  0  0
   27.4294  -20.6250  -11.5123 C   0  0  0  0  0  0  0  0  0  0  0  0
   26.7762  -20.4551  -10.2263 C   0  0  0  0  0  0  0  0  0  0  0  0
   26.8751  -21.4291   -9.2609 C   0  0  0  0  0  0  0  0  0  0  0  0
   26.2497  -21.2804   -8.0154 C   0  0  0  0  0  0  0  0  0  0  0  0
   25.5242  -20.1433   -7.7501 C   0  0  0  0  0  0  0  0  0  0  0  0
   25.4191  -19.1561   -8.7176 C   0  0  0  0  0  0  0  0  0  0  0  0
   26.0504  -19.3200   -9.9579 C   0  0  0  0  0  0  0  0  0  0  0  0
   25.2997  -20.3893  -12.7251 C   0  0  0  0  0  0  0  0  0  0  0  0
   25.3312  -19.2520  -13.2598 O   0  0  0  0  0  0  0  0  0  0  0  0
   20.9395  -19.5690  -15.7938 C   0  0  0  0  0  0  0  0  0  0  0  0
   21.1723  -19.4918  -14.3032 C   0  0  0  0  0  0  0  0  0  0  0  0
   22.4319  -20.2684  -13.9858 C   0  0  2  0  0  0  0  0  0  0  0  0
   22.2118  -21.7009  -14.3954 C   0  0  0  0  0  0  0  0  0  0  0  0
   22.7907  -20.1557  -12.5177 C   0  0  2  0  0  0  0  0  0  0  0  0
   24.0408  -20.8557  -12.2569 N   0  0  0  0  0  0  0  0  0  0  0  0
   21.7240  -20.7358  -11.6653 C   0  0  0  0  0  0  0  0  0  0  0  0
   20.5826  -20.0034  -11.3684 O   0  0  0  0  0  0  0  0  0  0  0  0
   21.8100  -21.8955  -11.1856 O   0  0  0  0  0  0  0  0  0  0  0  0
  2  1  1  0
  3  2  1  0
  3  4  1  6
  5  3  1  0
  5  7  1  0
  6  5  2  0
  8  7  1  0
  8  9  1  1
  9 10  1  0
 10 11  2  0
 11 12  1  0
 13 12  2  0
 14 13  1  0
 15 10  1  0
 15 14  2  0
 16  8  1  0
 17 16  2  0
 19 18  1  0
 19 20  1  0
 20 22  1  0
 20 21  1  1
 22 23  1  6
 22 24  1  0
 23 16  1  0
 24 25  1  0
 26 24  2  0
M  END
$$$$
