SFI.pdb
     RDKit          3D

 26 26  0  0  1  0  0  0  0  0999 V2000
   26.3780  -19.7795  -19.2198 O   0  0  0  0  0  0  0  0  0  0  0  0
   27.0611  -18.6544  -18.7713 C   0  0  0  0  0  0  0  0  0  0  0  0
   28.3061  -19.0324  -17.9810 C   0  0  2  0  0  0  0  0  0  0  0  0
   29.0906  -19.9028  -18.8351 N   0  0  0  0  0  0  0  0  0  0  0  0
   27.8049  -19.7919  -16.7791 C   0  0  0  0  0  0  0  0  0  0  0  0
   27.7619  -21.0480  -16.7996 O   0  0  0  0  0  0  0  0  0  0  0  0
   27.3700  -19.1444  -15.6007 N   0  0  0  0  0  0  0  0  0  0  0  0
   26.8741  -19.8343  -14.4383 C   0  0  1  0  0  0  0  0  0  0  0  0
   27.0588  -19.0474  -13.1589 C   0  0  0  0  0  0  0  0  0  0  0  0
   26.5485  -19.7036  -11.9678 C   0  0  0  0  0  0  0  0  0  0  0  0
   25.3168  -19.3647  -11.4596 C   0  0  0  0  0  0  0  0  0  0  0  0
   24.8110  -19.9881  -10.3107 C   0  0  0  0  0  0  0  0  0  0  0  0
   25.5554  -20.9552   -9.6781 C   0  0  0  0  0  0  0  0  0  0  0  0
   26.7984  -21.3032  -10.1836 C   0  0  0  0  0  0  0  0  0  0  0  0
   27.2899  -20.6705  -11.3332 C   0  0  0  0  0  0  0  0  0  0  0  0
   25.4408  -20.2245  -14.5937 C   0  0  0  0  0  0  0  0  0  0  0  0
   24.6447  -19.4953  -15.2378 O   0  0  0  0  0  0  0  0  0  0  0  0
   24.4281  -25.2234  -15.9352 C   0  0  0  0  0  0  0  0  0  0  0  0
   24.3216  -23.7202  -15.8303 C   0  0  0  0  0  0  0  0  0  0  0  0
   23.5894  -23.3916  -14.5472 C   0  0  2  0  0  0  0  0  0  0  0  0
   22.1971  -23.9572  -14.6474 C   0  0  0  0  0  0  0  0  0  0  0  0
   23.5689  -21.8975  -14.2943 C   0  0  2  0  0  0  0  0  0  0  0  0
   24.9189  -21.4203  -14.0287 N   0  0  0  0  0  0  0  0  0  0  0  0
   22.7023  -21.5678  -13.1363 C   0  0  0  0  0  0  0  0  0  0  0  0
   21.4774  -20.9430  -13.3278 O   0  0  0  0  0  0  0  0  0  0  0  0
   23.0373  -21.8368  -11.9540 O   0  0  0  0  0  0  0  0  0  0  0  0
  2  1  1  0
  3  2  1  0
  3  4  1  6
  5  3  1  0
  5  7  1  0
  6  5  2  0
  8  7  1  0
  8  9  1  1
  9 10  1  0
 10 11  2  0
 11 12  1  0
 13 12  2  0
 14 13  1  0
 15 10  1  0
 15 14  2  0
 16  8  1  0
 17 16  2  0
 19 18  1  0
 19 20  1  0
 20 22  1  0
 20 21  1  6
 22 23  1  1
 22 24  1  0
 23 16  1  0
 24 25  1  0
 26 24  2  0
M  END
$$$$
