SFI.pdb
     RDKit          3D

 26 26  0  0  1  0  0  0  0  0999 V2000
   34.2602  -28.0765  -19.6199 O   0  0  0  0  0  0  0  0  0  0  0  0
   33.1065  -28.7296  -19.2004 C   0  0  0  0  0  0  0  0  0  0  0  0
   32.0559  -27.7471  -18.7019 C   0  0  2  0  0  0  0  0  0  0  0  0
   32.6356  -27.0637  -17.5619 N   0  0  0  0  0  0  0  0  0  0  0  0
   30.8875  -28.5939  -18.2656 C   0  0  0  0  0  0  0  0  0  0  0  0
   30.7262  -28.8678  -17.0495 O   0  0  0  0  0  0  0  0  0  0  0  0
   29.9407  -29.1079  -19.1801 N   0  0  0  0  0  0  0  0  0  0  0  0
   28.7783  -29.8656  -18.7960 C   0  0  1  0  0  0  0  0  0  0  0  0
   27.4832  -29.1121  -19.0087 C   0  0  0  0  0  0  0  0  0  0  0  0
   27.3074  -27.9582  -18.1443 C   0  0  0  0  0  0  0  0  0  0  0  0
   27.8959  -26.7562  -18.4591 C   0  0  0  0  0  0  0  0  0  0  0  0
   27.7365  -25.6339  -17.6348 C   0  0  0  0  0  0  0  0  0  0  0  0
   26.9800  -25.7320  -16.4912 C   0  0  0  0  0  0  0  0  0  0  0  0
   26.3829  -26.9401  -16.1660 C   0  0  0  0  0  0  0  0  0  0  0  0
   26.5520  -28.0528  -17.0008 C   0  0  0  0  0  0  0  0  0  0  0  0
   28.7201  -31.1850  -19.4936 C   0  0  0  0  0  0  0  0  0  0  0  0
   29.0834  -31.2922  -20.6923 O   0  0  0  0  0  0  0  0  0  0  0  0
   30.1136  -35.6606  -16.9123 C   0  0  0  0  0  0  0  0  0  0  0  0
   29.8538  -34.5206  -17.8688 C   0  0  0  0  0  0  0  0  0  0  0  0
   28.5147  -34.7621  -18.5315 C   0  0  2  0  0  0  0  0  0  0  0  0
   28.5661  -36.1061  -19.2094 C   0  0  0  0  0  0  0  0  0  0  0  0
   28.1792  -33.6548  -19.5103 C   0  0  2  0  0  0  0  0  0  0  0  0
   28.2582  -32.3623  -18.8439 N   0  0  0  0  0  0  0  0  0  0  0  0
   26.8141  -33.8318  -20.0633 C   0  0  0  0  0  0  0  0  0  0  0  0
   26.6203  -34.5114  -21.2582 O   0  0  0  0  0  0  0  0  0  0  0  0
   25.7945  -33.3805  -19.4809 O   0  0  0  0  0  0  0  0  0  0  0  0
  2  1  1  0
  3  2  1  0
  3  4  1  1
  5  3  1  0
  5  7  1  0
  6  5  2  0
  8  7  1  0
  8  9  1  6
  9 10  1  0
 10 11  2  0
 11 12  1  0
 13 12  2  0
 14 13  1  0
 15 10  1  0
 15 14  2  0
 16  8  1  0
 17 16  2  0
 19 18  1  0
 19 20  1  0
 20 22  1  0
 20 21  1  6
 22 23  1  1
 22 24  1  0
 23 16  1  0
 24 25  1  0
 26 24  2  0
M  END
$$$$
