SFI.pdb
     RDKit          3D

 26 26  0  0  1  0  0  0  0  0999 V2000
   26.9123  -19.5031  -13.8924 O   0  0  0  0  0  0  0  0  0  0  0  0
   28.2621  -19.6037  -13.5737 C   0  0  0  0  0  0  0  0  0  0  0  0
   28.6465  -21.0300  -13.2055 C   0  0  2  0  0  0  0  0  0  0  0  0
   27.9437  -21.8999  -14.1284 N   0  0  0  0  0  0  0  0  0  0  0  0
   28.1364  -21.2348  -11.8018 C   0  0  0  0  0  0  0  0  0  0  0  0
   27.1489  -21.9839  -11.5926 O   0  0  0  0  0  0  0  0  0  0  0  0
   28.7290  -20.6101  -10.6813 N   0  0  0  0  0  0  0  0  0  0  0  0
   28.1895  -20.6677   -9.3476 C   0  0  1  0  0  0  0  0  0  0  0  0
   29.0367  -19.9297   -8.3337 C   0  0  0  0  0  0  0  0  0  0  0  0
   28.5280  -19.9765   -6.9740 C   0  0  0  0  0  0  0  0  0  0  0  0
   27.7421  -18.9579   -6.4891 C   0  0  0  0  0  0  0  0  0  0  0  0
   27.2445  -18.9880   -5.1792 C   0  0  0  0  0  0  0  0  0  0  0  0
   27.5446  -20.0518   -4.3619 C   0  0  0  0  0  0  0  0  0  0  0  0
   28.3364  -21.0833   -4.8425 C   0  0  0  0  0  0  0  0  0  0  0  0
   28.8261  -21.0381   -6.1547 C   0  0  0  0  0  0  0  0  0  0  0  0
   26.7828  -20.1682   -9.2957 C   0  0  0  0  0  0  0  0  0  0  0  0
   26.4820  -19.0494   -9.7839 O   0  0  0  0  0  0  0  0  0  0  0  0
   23.6831  -20.5491  -12.4638 C   0  0  0  0  0  0  0  0  0  0  0  0
   24.2887  -20.0498  -11.1731 C   0  0  0  0  0  0  0  0  0  0  0  0
   23.7026  -20.8602  -10.0372 C   0  0  2  0  0  0  0  0  0  0  0  0
   22.2149  -20.6261  -10.0171 C   0  0  0  0  0  0  0  0  0  0  0  0
   24.3440  -20.4941   -8.7139 C   0  0  2  0  0  0  0  0  0  0  0  0
   25.7354  -20.9236   -8.7009 N   0  0  0  0  0  0  0  0  0  0  0  0
   23.6289  -21.1348   -7.5830 C   0  0  0  0  0  0  0  0  0  0  0  0
   22.5634  -20.4918   -6.9677 O   0  0  0  0  0  0  0  0  0  0  0  0
   23.9543  -22.2678   -7.1438 O   0  0  0  0  0  0  0  0  0  0  0  0
  2  1  1  0
  3  2  1  0
  3  4  1  6
  5  3  1  0
  5  7  1  0
  6  5  2  0
  8  7  1  0
  8  9  1  1
  9 10  1  0
 10 11  2  0
 11 12  1  0
 13 12  2  0
 14 13  1  0
 15 10  1  0
 15 14  2  0
 16  8  1  0
 17 16  2  0
 19 18  1  0
 19 20  1  0
 20 22  1  0
 20 21  1  1
 22 23  1  6
 22 24  1  0
 23 16  1  0
 24 25  1  0
 26 24  2  0
M  END
$$$$
