SFI.pdb
     RDKit          3D

 26 26  0  0  1  0  0  0  0  0999 V2000
   18.8963  -13.6251  -19.6726 O   0  0  0  0  0  0  0  0  0  0  0  0
   19.0144  -12.4558  -18.9293 C   0  0  0  0  0  0  0  0  0  0  0  0
   19.5151  -12.7360  -17.5191 C   0  0  2  0  0  0  0  0  0  0  0  0
   18.5301  -13.5965  -16.8931 N   0  0  0  0  0  0  0  0  0  0  0  0
   19.5515  -11.3952  -16.8310 C   0  0  0  0  0  0  0  0  0  0  0  0
   18.4825  -10.8459  -16.4629 O   0  0  0  0  0  0  0  0  0  0  0  0
   20.7591  -10.7083  -16.5731 N   0  0  0  0  0  0  0  0  0  0  0  0
   20.8310   -9.4056  -15.9641 C   0  0  1  0  0  0  0  0  0  0  0  0
   22.1503   -9.1489  -15.2684 C   0  0  0  0  0  0  0  0  0  0  0  0
   22.2816   -7.8211  -14.6947 C   0  0  0  0  0  0  0  0  0  0  0  0
   21.7450   -7.5395  -13.4606 C   0  0  0  0  0  0  0  0  0  0  0  0
   21.8624   -6.2630  -12.8939 C   0  0  0  0  0  0  0  0  0  0  0  0
   22.5245   -5.2727  -13.5800 C   0  0  0  0  0  0  0  0  0  0  0  0
   23.0687   -5.5476  -14.8250 C   0  0  0  0  0  0  0  0  0  0  0  0
   22.9425   -6.8291  -15.3777 C   0  0  0  0  0  0  0  0  0  0  0  0
   20.5540   -8.3167  -16.9482 C   0  0  0  0  0  0  0  0  0  0  0  0
   21.1379   -8.2957  -18.0613 O   0  0  0  0  0  0  0  0  0  0  0  0
   16.2376   -7.4160  -19.3676 C   0  0  0  0  0  0  0  0  0  0  0  0
   17.6803   -7.4520  -18.9214 C   0  0  0  0  0  0  0  0  0  0  0  0
   17.9395   -6.2231  -18.0769 C   0  0  2  0  0  0  0  0  0  0  0  0
   17.5851   -5.0108  -18.8973 C   0  0  0  0  0  0  0  0  0  0  0  0
   19.3783   -6.1763  -17.6031 C   0  0  2  0  0  0  0  0  0  0  0  0
   19.6314   -7.2698  -16.6753 N   0  0  0  0  0  0  0  0  0  0  0  0
   19.6718   -4.8893  -16.9261 C   0  0  0  0  0  0  0  0  0  0  0  0
   20.4951   -3.9477  -17.5285 O   0  0  0  0  0  0  0  0  0  0  0  0
   19.1941   -4.6047  -15.7978 O   0  0  0  0  0  0  0  0  0  0  0  0
  2  1  1  0
  3  2  1  0
  3  4  1  1
  5  3  1  0
  5  7  1  0
  6  5  2  0
  8  7  1  0
  8  9  1  6
  9 10  1  0
 10 11  2  0
 11 12  1  0
 13 12  2  0
 14 13  1  0
 15 10  1  0
 15 14  2  0
 16  8  1  0
 17 16  2  0
 19 18  1  0
 19 20  1  0
 20 22  1  0
 20 21  1  6
 22 23  1  1
 22 24  1  0
 23 16  1  0
 24 25  1  0
 26 24  2  0
M  END
$$$$
