SFI.pdb
     RDKit          3D

 26 26  0  0  1  0  0  0  0  0999 V2000
   27.8182  -19.0130  -13.3580 O   0  0  0  0  0  0  0  0  0  0  0  0
   28.0410  -20.2482  -13.9565 C   0  0  0  0  0  0  0  0  0  0  0  0
   29.1171  -21.0393  -13.2258 C   0  0  2  0  0  0  0  0  0  0  0  0
   29.2487  -22.3030  -13.9245 N   0  0  0  0  0  0  0  0  0  0  0  0
   28.5779  -21.2636  -11.8360 C   0  0  0  0  0  0  0  0  0  0  0  0
   27.6225  -22.0591  -11.6508 O   0  0  0  0  0  0  0  0  0  0  0  0
   29.1075  -20.6067  -10.7024 N   0  0  0  0  0  0  0  0  0  0  0  0
   28.5132  -20.6554   -9.3919 C   0  0  1  0  0  0  0  0  0  0  0  0
   29.3371  -19.9432   -8.3410 C   0  0  0  0  0  0  0  0  0  0  0  0
   28.7389  -19.9215   -7.0177 C   0  0  0  0  0  0  0  0  0  0  0  0
   28.1002  -18.7931   -6.5606 C   0  0  0  0  0  0  0  0  0  0  0  0
   27.5188  -18.7562   -5.2858 C   0  0  0  0  0  0  0  0  0  0  0  0
   27.5859  -19.8646   -4.4754 C   0  0  0  0  0  0  0  0  0  0  0  0
   28.2279  -21.0068   -4.9281 C   0  0  0  0  0  0  0  0  0  0  0  0
   28.8041  -21.0275   -6.2053 C   0  0  0  0  0  0  0  0  0  0  0  0
   27.1188  -20.1202   -9.3945 C   0  0  0  0  0  0  0  0  0  0  0  0
   26.8891  -18.9328   -9.7375 O   0  0  0  0  0  0  0  0  0  0  0  0
   24.1683  -20.5804  -12.8599 C   0  0  0  0  0  0  0  0  0  0  0  0
   24.7303  -20.0707  -11.5536 C   0  0  0  0  0  0  0  0  0  0  0  0
   24.0259  -20.7953  -10.4270 C   0  0  2  0  0  0  0  0  0  0  0  0
   22.5629  -20.4426  -10.4890 C   0  0  0  0  0  0  0  0  0  0  0  0
   24.6300  -20.4396   -9.0834 C   0  0  2  0  0  0  0  0  0  0  0  0
   26.0041  -20.9171   -9.0148 N   0  0  0  0  0  0  0  0  0  0  0  0
   23.8514  -21.0448   -7.9751 C   0  0  0  0  0  0  0  0  0  0  0  0
   22.6674  -20.4613   -7.5448 O   0  0  0  0  0  0  0  0  0  0  0  0
   24.2268  -22.0936   -7.3908 O   0  0  0  0  0  0  0  0  0  0  0  0
  2  1  1  0
  3  2  1  0
  3  4  1  6
  5  3  1  0
  5  7  1  0
  6  5  2  0
  8  7  1  0
  8  9  1  1
  9 10  1  0
 10 11  2  0
 11 12  1  0
 13 12  2  0
 14 13  1  0
 15 10  1  0
 15 14  2  0
 16  8  1  0
 17 16  2  0
 19 18  1  0
 19 20  1  0
 20 22  1  0
 20 21  1  1
 22 23  1  6
 22 24  1  0
 23 16  1  0
 24 25  1  0
 26 24  2  0
M  END
$$$$
