SFI.pdb
     RDKit          3D

 26 26  0  0  1  0  0  0  0  0999 V2000
   17.4987   -9.2275  -18.6874 O   0  0  0  0  0  0  0  0  0  0  0  0
   17.9390   -8.5422  -17.5604 C   0  0  0  0  0  0  0  0  0  0  0  0
   19.2524   -9.1075  -17.0379 C   0  0  2  0  0  0  0  0  0  0  0  0
   18.9512  -10.4151  -16.4883 N   0  0  0  0  0  0  0  0  0  0  0  0
   19.6881   -8.1674  -15.9430 C   0  0  0  0  0  0  0  0  0  0  0  0
   19.0953   -8.1720  -14.8346 O   0  0  0  0  0  0  0  0  0  0  0  0
   20.7576   -7.2581  -16.1058 N   0  0  0  0  0  0  0  0  0  0  0  0
   21.2514   -6.3994  -15.0609 C   0  0  1  0  0  0  0  0  0  0  0  0
   22.6600   -6.7436  -14.6276 C   0  0  0  0  0  0  0  0  0  0  0  0
   22.8181   -8.0884  -14.1024 C   0  0  0  0  0  0  0  0  0  0  0  0
   22.3162   -8.4163  -12.8651 C   0  0  0  0  0  0  0  0  0  0  0  0
   22.4615   -9.7092  -12.3440 C   0  0  0  0  0  0  0  0  0  0  0  0
   23.1162  -10.6690  -13.0788 C   0  0  0  0  0  0  0  0  0  0  0  0
   23.6255  -10.3473  -14.3273 C   0  0  0  0  0  0  0  0  0  0  0  0
   23.4719   -9.0499  -14.8341 C   0  0  0  0  0  0  0  0  0  0  0  0
   21.1745   -4.9579  -15.4444 C   0  0  0  0  0  0  0  0  0  0  0  0
   21.5382   -4.5787  -16.5864 O   0  0  0  0  0  0  0  0  0  0  0  0
   17.4217   -0.4064  -15.1852 C   0  0  0  0  0  0  0  0  0  0  0  0
   18.9052   -0.6890  -15.1469 C   0  0  0  0  0  0  0  0  0  0  0  0
   19.0948   -2.1427  -14.7712 C   0  0  2  0  0  0  0  0  0  0  0  0
   18.6117   -2.3250  -13.3563 C   0  0  0  0  0  0  0  0  0  0  0  0
   20.5419   -2.5654  -14.9265 C   0  0  2  0  0  0  0  0  0  0  0  0
   20.6940   -3.9636  -14.5488 N   0  0  0  0  0  0  0  0  0  0  0  0
   21.4307   -1.7351  -14.0772 C   0  0  0  0  0  0  0  0  0  0  0  0
   22.0190   -2.2697  -12.9390 O   0  0  0  0  0  0  0  0  0  0  0  0
   21.6825   -0.5332  -14.3500 O   0  0  0  0  0  0  0  0  0  0  0  0
  2  1  1  0
  3  2  1  0
  3  4  1  1
  5  3  1  0
  5  7  1  0
  6  5  2  0
  8  7  1  0
  8  9  1  6
  9 10  1  0
 10 11  2  0
 11 12  1  0
 13 12  2  0
 14 13  1  0
 15 10  1  0
 15 14  2  0
 16  8  1  0
 17 16  2  0
 19 18  1  0
 19 20  1  0
 20 22  1  0
 20 21  1  1
 22 23  1  1
 22 24  1  0
 23 16  1  0
 24 25  1  0
 26 24  2  0
M  END
$$$$
