QTF.pdb
     RDKit          3D

 28 28  0  0  1  0  0  0  0  0999 V2000
   16.7069  -20.7066  -13.5635 N   0  0  0  0  0  0  0  0  0  0  0  0
   16.7727  -19.2892  -13.6784 C   0  0  0  0  0  0  0  0  0  0  0  0
   15.7351  -18.6868  -14.0397 O   0  0  0  0  0  0  0  0  0  0  0  0
   18.0500  -18.5379  -13.3717 C   0  0  0  0  0  0  0  0  0  0  0  0
   19.0556  -19.5428  -12.8999 C   0  0  0  0  0  0  0  0  0  0  0  0
   20.4053  -19.4357  -13.5116 C   0  0  2  0  0  0  0  0  0  0  0  0
   20.2526  -19.4113  -14.9625 N   0  0  0  0  0  0  0  0  0  0  0  0
   21.4300  -20.3612  -13.0276 C   0  0  0  0  0  0  0  0  0  0  0  0
   21.1168  -21.2247  -12.1844 O   0  0  0  0  0  0  0  0  0  0  0  0
   22.6534  -22.9951  -14.4691 C   0  0  0  0  0  0  0  0  0  0  0  0
   24.0017  -22.3001  -14.3110 C   0  0  1  0  0  0  0  0  0  0  0  0
   24.1774  -21.5632  -15.4712 O   0  0  0  0  0  0  0  0  0  0  0  0
   23.8075  -21.2965  -13.1561 C   0  0  2  0  0  0  0  0  0  0  0  0
   22.7977  -20.3417  -13.4610 N   0  0  0  0  0  0  0  0  0  0  0  0
   25.1092  -20.7496  -12.7538 C   0  0  0  0  0  0  0  0  0  0  0  0
   25.4409  -19.5406  -12.9483 O   0  0  0  0  0  0  0  0  0  0  0  0
   26.1144  -21.5371  -12.0987 N   0  0  0  0  0  0  0  0  0  0  0  0
   27.4115  -20.9874  -11.7110 C   0  0  1  0  0  0  0  0  0  0  0  0
   28.0403  -21.7765  -10.6187 C   0  0  0  0  0  0  0  0  0  0  0  0
   27.7937  -21.1591   -9.3070 C   0  0  0  0  0  0  0  0  0  0  0  0
   26.4897  -20.9432   -8.8742 C   0  0  0  0  0  0  0  0  0  0  0  0
   26.2014  -20.3741   -7.6631 C   0  0  0  0  0  0  0  0  0  0  0  0
   27.2228  -19.9770   -6.7904 C   0  0  0  0  0  0  0  0  0  0  0  0
   28.5187  -20.1913   -7.2180 C   0  0  0  0  0  0  0  0  0  0  0  0
   28.8033  -20.7644   -8.4382 C   0  0  0  0  0  0  0  0  0  0  0  0
   28.3016  -20.8303  -12.8784 C   0  0  0  0  0  0  0  0  0  0  0  0
   29.1883  -19.8086  -13.0961 O   0  0  0  0  0  0  0  0  0  0  0  0
   28.2581  -21.7315  -13.8037 O   0  0  0  0  0  0  0  0  0  0  0  0
  2  3  2  0
  2  1  1  0
  4  2  1  0
  5  4  1  0
  6  5  1  0
  6  7  1  6
  8  9  2  0
  8  6  1  0
 11 10  1  6
 11 13  1  0
 12 11  1  0
 13 14  1  6
 14  8  1  0
 15 13  1  0
 15 16  2  0
 17 15  1  0
 18 17  1  0
 18 19  1  1
 20 19  1  0
 20 21  2  0
 22 21  1  0
 23 22  2  0
 24 25  2  0
 24 23  1  0
 25 20  1  0
 26 18  1  0
 27 26  1  0
 28 26  2  0
M  END
$$$$
