QTF.pdb
     RDKit          3D

 28 28  0  0  1  0  0  0  0  0999 V2000
   29.7063  -22.0149  -17.8466 N   0  0  0  0  0  0  0  0  0  0  0  0
   28.9219  -20.8994  -18.2547 C   0  0  0  0  0  0  0  0  0  0  0  0
   29.4697  -20.0391  -18.9827 O   0  0  0  0  0  0  0  0  0  0  0  0
   27.4771  -20.7604  -17.8266 C   0  0  0  0  0  0  0  0  0  0  0  0
   27.4679  -20.0233  -16.5227 C   0  0  0  0  0  0  0  0  0  0  0  0
   27.4096  -20.8734  -15.3055 C   0  0  2  0  0  0  0  0  0  0  0  0
   26.7135  -22.1110  -15.6413 N   0  0  0  0  0  0  0  0  0  0  0  0
   26.9488  -20.2368  -14.0713 C   0  0  0  0  0  0  0  0  0  0  0  0
   27.3089  -19.0698  -13.8207 O   0  0  0  0  0  0  0  0  0  0  0  0
   23.8140  -19.2788  -12.9864 C   0  0  0  0  0  0  0  0  0  0  0  0
   24.1535  -20.1681  -11.7949 C   0  0  1  0  0  0  0  0  0  0  0  0
   23.5787  -21.3975  -12.0741 O   0  0  0  0  0  0  0  0  0  0  0  0
   25.6834  -20.3547  -11.8512 C   0  0  2  0  0  0  0  0  0  0  0  0
   26.0979  -20.8756  -13.1087 N   0  0  0  0  0  0  0  0  0  0  0  0
   26.1337  -21.0972  -10.6675 C   0  0  0  0  0  0  0  0  0  0  0  0
   26.3839  -22.3408  -10.6855 O   0  0  0  0  0  0  0  0  0  0  0  0
   26.3361  -20.4752   -9.3901 N   0  0  0  0  0  0  0  0  0  0  0  0
   26.6454  -21.2416   -8.1852 C   0  0  1  0  0  0  0  0  0  0  0  0
   28.0758  -21.1108   -7.8006 C   0  0  0  0  0  0  0  0  0  0  0  0
   28.2289  -20.2797   -6.5971 C   0  0  0  0  0  0  0  0  0  0  0  0
   28.6759  -20.8504   -5.4102 C   0  0  0  0  0  0  0  0  0  0  0  0
   28.8381  -20.1250   -4.2607 C   0  0  0  0  0  0  0  0  0  0  0  0
   28.5571  -18.7531   -4.2269 C   0  0  0  0  0  0  0  0  0  0  0  0
   28.1138  -18.1841   -5.4050 C   0  0  0  0  0  0  0  0  0  0  0  0
   27.9520  -18.9189   -6.5592 C   0  0  0  0  0  0  0  0  0  0  0  0
   25.7298  -20.8998   -7.0785 C   0  0  0  0  0  0  0  0  0  0  0  0
   24.8226  -19.8731   -7.0584 O   0  0  0  0  0  0  0  0  0  0  0  0
   25.7694  -21.6240   -6.0088 O   0  0  0  0  0  0  0  0  0  0  0  0
  2  3  2  0
  2  1  1  0
  4  2  1  0
  5  4  1  0
  6  5  1  0
  6  7  1  6
  8  9  2  0
  8  6  1  0
 11 10  1  6
 11 13  1  0
 12 11  1  0
 13 14  1  6
 14  8  1  0
 15 13  1  0
 15 16  2  0
 17 15  1  0
 18 17  1  0
 18 19  1  1
 20 19  1  0
 20 21  2  0
 22 21  1  0
 23 22  2  0
 24 25  2  0
 24 23  1  0
 25 20  1  0
 26 18  1  0
 27 26  1  0
 28 26  2  0
M  END
$$$$
