QTF.pdb
     RDKit          3D

 28 28  0  0  1  0  0  0  0  0999 V2000
   16.7399  -13.0722  -14.7735 N   0  0  0  0  0  0  0  0  0  0  0  0
   16.1148  -13.6042  -15.9365 C   0  0  0  0  0  0  0  0  0  0  0  0
   15.3058  -14.5483  -15.7810 O   0  0  0  0  0  0  0  0  0  0  0  0
   16.4152  -13.0462  -17.3107 C   0  0  0  0  0  0  0  0  0  0  0  0
   17.4424  -11.9695  -17.1395 C   0  0  0  0  0  0  0  0  0  0  0  0
   17.8631  -11.2800  -18.3866 C   0  0  2  0  0  0  0  0  0  0  0  0
   17.9279  -12.2673  -19.4591 N   0  0  0  0  0  0  0  0  0  0  0  0
   19.0320  -10.4042  -18.3003 C   0  0  0  0  0  0  0  0  0  0  0  0
   20.1710  -10.9042  -18.3856 O   0  0  0  0  0  0  0  0  0  0  0  0
   20.0196   -7.5372  -20.2571 C   0  0  0  0  0  0  0  0  0  0  0  0
   20.0173   -6.9050  -18.8692 C   0  0  1  0  0  0  0  0  0  0  0  0
   18.7818   -6.2906  -18.7436 O   0  0  0  0  0  0  0  0  0  0  0  0
   20.0413   -8.0909  -17.8835 C   0  0  2  0  0  0  0  0  0  0  0  0
   18.9578   -8.9831  -18.1168 N   0  0  0  0  0  0  0  0  0  0  0  0
   20.1764   -7.5885  -16.5107 C   0  0  0  0  0  0  0  0  0  0  0  0
   19.2624   -7.7056  -15.6387 O   0  0  0  0  0  0  0  0  0  0  0  0
   21.3595   -6.9282  -16.0374 N   0  0  0  0  0  0  0  0  0  0  0  0
   21.5308   -6.5318  -14.6415 C   0  0  1  0  0  0  0  0  0  0  0  0
   22.0233   -7.6583  -13.8050 C   0  0  0  0  0  0  0  0  0  0  0  0
   23.1981   -8.2991  -14.4147 C   0  0  0  0  0  0  0  0  0  0  0  0
   24.1954   -7.5190  -14.9903 C   0  0  0  0  0  0  0  0  0  0  0  0
   25.3104   -8.0613  -15.5703 C   0  0  0  0  0  0  0  0  0  0  0  0
   25.5012   -9.4485  -15.6111 C   0  0  0  0  0  0  0  0  0  0  0  0
   24.5122  -10.2251  -15.0392 C   0  0  0  0  0  0  0  0  0  0  0  0
   23.3916   -9.6741  -14.4569 C   0  0  0  0  0  0  0  0  0  0  0  0
   22.3774   -5.3281  -14.5225 C   0  0  0  0  0  0  0  0  0  0  0  0
   22.7023   -4.6709  -13.3649 O   0  0  0  0  0  0  0  0  0  0  0  0
   22.8722   -4.8216  -15.6037 O   0  0  0  0  0  0  0  0  0  0  0  0
  2  3  2  0
  2  1  1  0
  4  2  1  0
  5  4  1  0
  6  5  1  0
  6  7  1  6
  8  9  2  0
  8  6  1  0
 11 10  1  6
 11 13  1  0
 12 11  1  0
 13 14  1  1
 14  8  1  0
 15 13  1  0
 15 16  2  0
 17 15  1  0
 18 17  1  0
 18 19  1  1
 20 19  1  0
 20 21  2  0
 22 21  1  0
 23 22  2  0
 24 25  2  0
 24 23  1  0
 25 20  1  0
 26 18  1  0
 27 26  1  0
 28 26  2  0
M  END
$$$$
