QTF.pdb
     RDKit          3D

 28 28  0  0  1  0  0  0  0  0999 V2000
   28.6082  -19.3681  -19.6950 N   0  0  0  0  0  0  0  0  0  0  0  0
   28.8002  -20.6468  -20.2903 C   0  0  0  0  0  0  0  0  0  0  0  0
   28.5851  -20.7533  -21.5201 O   0  0  0  0  0  0  0  0  0  0  0  0
   29.2512  -21.8335  -19.4667 C   0  0  0  0  0  0  0  0  0  0  0  0
   29.4970  -21.3412  -18.0735 C   0  0  0  0  0  0  0  0  0  0  0  0
   28.4014  -21.5922  -17.1017 C   0  0  2  0  0  0  0  0  0  0  0  0
   27.1269  -21.3822  -17.7804 N   0  0  0  0  0  0  0  0  0  0  0  0
   28.5065  -20.9374  -15.7975 C   0  0  0  0  0  0  0  0  0  0  0  0
   29.3079  -19.9926  -15.6569 O   0  0  0  0  0  0  0  0  0  0  0  0
   28.1551  -18.6948  -14.8719 C   0  0  0  0  0  0  0  0  0  0  0  0
   27.2494  -19.1026  -13.7146 C   0  0  1  0  0  0  0  0  0  0  0  0
   25.9603  -19.0639  -14.2211 O   0  0  0  0  0  0  0  0  0  0  0  0
   27.5879  -20.5814  -13.4367 C   0  0  2  0  0  0  0  0  0  0  0  0
   27.7395  -21.3163  -14.6456 N   0  0  0  0  0  0  0  0  0  0  0  0
   26.6347  -21.1314  -12.4651 C   0  0  0  0  0  0  0  0  0  0  0  0
   25.6786  -21.8983  -12.7927 O   0  0  0  0  0  0  0  0  0  0  0  0
   26.7096  -20.8528  -11.0592 N   0  0  0  0  0  0  0  0  0  0  0  0
   25.7565  -21.4043  -10.0988 C   0  0  1  0  0  0  0  0  0  0  0  0
   26.4362  -21.9143   -8.8785 C   0  0  0  0  0  0  0  0  0  0  0  0
   27.1564  -20.8378   -8.1820 C   0  0  0  0  0  0  0  0  0  0  0  0
   26.4469  -19.8377   -7.5258 C   0  0  0  0  0  0  0  0  0  0  0  0
   27.0646  -18.8130   -6.8608 C   0  0  0  0  0  0  0  0  0  0  0  0
   28.4617  -18.7235   -6.8099 C   0  0  0  0  0  0  0  0  0  0  0  0
   29.1684  -19.7164   -7.4604 C   0  0  0  0  0  0  0  0  0  0  0  0
   28.5415  -20.7455   -8.1285 C   0  0  0  0  0  0  0  0  0  0  0  0
   24.6852  -20.4378   -9.7861 C   0  0  0  0  0  0  0  0  0  0  0  0
   23.5040  -20.7085   -9.1466 O   0  0  0  0  0  0  0  0  0  0  0  0
   24.8517  -19.2067  -10.1426 O   0  0  0  0  0  0  0  0  0  0  0  0
  2  3  2  0
  2  1  1  0
  4  2  1  0
  5  4  1  0
  6  5  1  0
  6  7  1  6
  8  9  2  0
  8  6  1  0
 11 10  1  6
 11 13  1  0
 12 11  1  0
 13 14  1  6
 14  8  1  0
 15 13  1  0
 15 16  2  0
 17 15  1  0
 18 17  1  0
 18 19  1  1
 20 19  1  0
 20 21  2  0
 22 21  1  0
 23 22  2  0
 24 25  2  0
 24 23  1  0
 25 20  1  0
 26 18  1  0
 27 26  1  0
 28 26  2  0
M  END
$$$$
