QTF.pdb
     RDKit          3D

 28 28  0  0  1  0  0  0  0  0999 V2000
   13.5617  -14.5601  -17.4907 N   0  0  0  0  0  0  0  0  0  0  0  0
   14.7626  -14.0139  -16.9562 C   0  0  0  0  0  0  0  0  0  0  0  0
   14.9364  -14.0937  -15.7178 O   0  0  0  0  0  0  0  0  0  0  0  0
   15.7933  -13.3632  -17.8531 C   0  0  0  0  0  0  0  0  0  0  0  0
   15.4735  -11.9010  -17.9113 C   0  0  0  0  0  0  0  0  0  0  0  0
   15.7344  -11.1370  -16.6640 C   0  0  2  0  0  0  0  0  0  0  0  0
   14.4604  -10.9041  -15.9919 N   0  0  0  0  0  0  0  0  0  0  0  0
   16.5840   -9.9511  -16.7760 C   0  0  0  0  0  0  0  0  0  0  0  0
   16.1335   -8.9344  -17.3400 O   0  0  0  0  0  0  0  0  0  0  0  0
   16.7143   -7.4418  -16.0703 C   0  0  0  0  0  0  0  0  0  0  0  0
   18.1227   -7.5604  -15.4972 C   0  0  1  0  0  0  0  0  0  0  0  0
   17.9554   -7.9669  -14.1832 O   0  0  0  0  0  0  0  0  0  0  0  0
   18.7732   -8.7326  -16.2597 C   0  0  2  0  0  0  0  0  0  0  0  0
   17.9268   -9.8761  -16.2759 N   0  0  0  0  0  0  0  0  0  0  0  0
   20.1370   -8.9490  -15.7613 C   0  0  0  0  0  0  0  0  0  0  0  0
   20.4677   -9.9593  -15.0689 O   0  0  0  0  0  0  0  0  0  0  0  0
   21.2141   -8.0373  -16.0227 N   0  0  0  0  0  0  0  0  0  0  0  0
   22.5918   -8.3167  -15.6242 C   0  0  1  0  0  0  0  0  0  0  0  0
   23.2376   -9.3049  -16.5284 C   0  0  0  0  0  0  0  0  0  0  0  0
   24.6151   -9.5942  -16.1028 C   0  0  0  0  0  0  0  0  0  0  0  0
   25.6870   -9.0271  -16.7839 C   0  0  0  0  0  0  0  0  0  0  0  0
   26.9889   -9.2602  -16.4309 C   0  0  0  0  0  0  0  0  0  0  0  0
   27.3061  -10.0935  -15.3505 C   0  0  0  0  0  0  0  0  0  0  0  0
   26.2429  -10.6571  -14.6722 C   0  0  0  0  0  0  0  0  0  0  0  0
   24.9343  -10.4194  -15.0318 C   0  0  0  0  0  0  0  0  0  0  0  0
   23.3780   -7.0739  -15.4927 C   0  0  0  0  0  0  0  0  0  0  0  0
   24.2969   -6.7898  -14.5169 O   0  0  0  0  0  0  0  0  0  0  0  0
   23.1987   -6.1434  -16.3715 O   0  0  0  0  0  0  0  0  0  0  0  0
  2  3  2  0
  2  1  1  0
  4  2  1  0
  5  4  1  0
  6  5  1  0
  6  7  1  6
  8  9  2  0
  8  6  1  0
 11 10  1  6
 11 13  1  0
 12 11  1  0
 13 14  1  1
 14  8  1  0
 15 13  1  0
 15 16  2  0
 17 15  1  0
 18 17  1  0
 18 19  1  6
 20 19  1  0
 20 21  2  0
 22 21  1  0
 23 22  2  0
 24 25  2  0
 24 23  1  0
 25 20  1  0
 26 18  1  0
 27 26  1  0
 28 26  2  0
M  END
$$$$
