QTF.pdb
     RDKit          3D

 28 28  0  0  1  0  0  0  0  0999 V2000
   25.0239  -17.2409  -18.1043 N   0  0  0  0  0  0  0  0  0  0  0  0
   24.1725  -18.3170  -17.7252 C   0  0  0  0  0  0  0  0  0  0  0  0
   22.9534  -18.2166  -17.9967 O   0  0  0  0  0  0  0  0  0  0  0  0
   24.7222  -19.5392  -17.0224 C   0  0  0  0  0  0  0  0  0  0  0  0
   24.3354  -19.4346  -15.5790 C   0  0  0  0  0  0  0  0  0  0  0  0
   25.4544  -19.1985  -14.6304 C   0  0  2  0  0  0  0  0  0  0  0  0
   26.5817  -20.0338  -15.0313 N   0  0  0  0  0  0  0  0  0  0  0  0
   25.1388  -19.2543  -13.2028 C   0  0  0  0  0  0  0  0  0  0  0  0
   24.1383  -18.6425  -12.7793 O   0  0  0  0  0  0  0  0  0  0  0  0
   23.3357  -20.7236  -11.5524 C   0  0  0  0  0  0  0  0  0  0  0  0
   24.4869  -21.2183  -10.6831 C   0  0  1  0  0  0  0  0  0  0  0  0
   24.9206  -22.3934  -11.2755 O   0  0  0  0  0  0  0  0  0  0  0  0
   25.6079  -20.1744  -10.8625 C   0  0  2  0  0  0  0  0  0  0  0  0
   25.9176  -19.9747  -12.2367 N   0  0  0  0  0  0  0  0  0  0  0  0
   26.7399  -20.5114   -9.9906 C   0  0  0  0  0  0  0  0  0  0  0  0
   27.7894  -21.0866  -10.4116 O   0  0  0  0  0  0  0  0  0  0  0  0
   26.7568  -20.2108   -8.5874 N   0  0  0  0  0  0  0  0  0  0  0  0
   27.6147  -20.9233   -7.6433 C   0  0  1  0  0  0  0  0  0  0  0  0
   28.9013  -20.2115   -7.4220 C   0  0  0  0  0  0  0  0  0  0  0  0
   28.9502  -19.6056   -6.0829 C   0  0  0  0  0  0  0  0  0  0  0  0
   28.4458  -18.3254   -5.8801 C   0  0  0  0  0  0  0  0  0  0  0  0
   28.4639  -17.7133   -4.6559 C   0  0  0  0  0  0  0  0  0  0  0  0
   28.9997  -18.3584   -3.5337 C   0  0  0  0  0  0  0  0  0  0  0  0
   29.5005  -19.6302   -3.7329 C   0  0  0  0  0  0  0  0  0  0  0  0
   29.4800  -20.2417   -4.9674 C   0  0  0  0  0  0  0  0  0  0  0  0
   26.9050  -21.2120   -6.3812 C   0  0  0  0  0  0  0  0  0  0  0  0
   27.3848  -21.9397   -5.3240 O   0  0  0  0  0  0  0  0  0  0  0  0
   25.7087  -20.7456   -6.2342 O   0  0  0  0  0  0  0  0  0  0  0  0
  2  3  2  0
  2  1  1  0
  4  2  1  0
  5  4  1  0
  6  5  1  0
  6  7  1  1
  8  9  2  0
  8  6  1  0
 11 10  1  6
 11 13  1  0
 12 11  1  0
 13 14  1  6
 14  8  1  0
 15 13  1  0
 15 16  2  0
 17 15  1  0
 18 17  1  0
 18 19  1  1
 20 19  1  0
 20 21  2  0
 22 21  1  0
 23 22  2  0
 24 25  2  0
 24 23  1  0
 25 20  1  0
 26 18  1  0
 27 26  1  0
 28 26  2  0
M  END
$$$$
