QTF.pdb
     RDKit          3D

 28 28  0  0  1  0  0  0  0  0999 V2000
   19.6009  -15.2911  -18.6517 N   0  0  0  0  0  0  0  0  0  0  0  0
   18.7154  -15.6006  -17.5810 C   0  0  0  0  0  0  0  0  0  0  0  0
   18.4419  -16.8074  -17.3836 O   0  0  0  0  0  0  0  0  0  0  0  0
   18.1285  -14.5103  -16.7111 C   0  0  0  0  0  0  0  0  0  0  0  0
   18.7106  -13.2099  -17.1733 C   0  0  0  0  0  0  0  0  0  0  0  0
   18.2346  -12.0013  -16.4520 C   0  0  2  0  0  0  0  0  0  0  0  0
   16.7910  -12.1120  -16.2709 N   0  0  0  0  0  0  0  0  0  0  0  0
   18.6820  -10.7043  -16.9602 C   0  0  0  0  0  0  0  0  0  0  0  0
   19.6636  -10.6604  -17.7277 O   0  0  0  0  0  0  0  0  0  0  0  0
   16.7077   -8.3277  -18.8437 C   0  0  0  0  0  0  0  0  0  0  0  0
   17.1967   -7.4323  -17.7101 C   0  0  1  0  0  0  0  0  0  0  0  0
   16.1917   -7.4590  -16.7566 O   0  0  0  0  0  0  0  0  0  0  0  0
   18.4151   -8.1647  -17.1119 C   0  0  2  0  0  0  0  0  0  0  0  0
   18.0602   -9.4546  -16.6277 N   0  0  0  0  0  0  0  0  0  0  0  0
   19.0991   -7.2848  -16.1562 C   0  0  0  0  0  0  0  0  0  0  0  0
   18.9448   -7.3757  -14.9003 O   0  0  0  0  0  0  0  0  0  0  0  0
   20.0072   -6.2510  -16.5638 N   0  0  0  0  0  0  0  0  0  0  0  0
   20.6016   -5.3112  -15.6159 C   0  0  1  0  0  0  0  0  0  0  0  0
   21.9713   -4.9047  -16.0281 C   0  0  0  0  0  0  0  0  0  0  0  0
   22.3083   -3.5702  -15.5102 C   0  0  0  0  0  0  0  0  0  0  0  0
   22.7561   -3.4250  -14.2015 C   0  0  0  0  0  0  0  0  0  0  0  0
   23.0851   -2.2082  -13.6676 C   0  0  0  0  0  0  0  0  0  0  0  0
   22.9842   -1.0353  -14.4268 C   0  0  0  0  0  0  0  0  0  0  0  0
   22.5403   -1.1774  -15.7272 C   0  0  0  0  0  0  0  0  0  0  0  0
   22.2103   -2.4046  -16.2596 C   0  0  0  0  0  0  0  0  0  0  0  0
   19.7169   -4.1535  -15.3774 C   0  0  0  0  0  0  0  0  0  0  0  0
   18.8585   -3.5835  -16.2806 O   0  0  0  0  0  0  0  0  0  0  0  0
   19.7366   -3.6018  -14.2088 O   0  0  0  0  0  0  0  0  0  0  0  0
  2  3  2  0
  2  1  1  0
  4  2  1  0
  5  4  1  0
  6  5  1  0
  6  7  1  6
  8  9  2  0
  8  6  1  0
 11 10  1  6
 11 13  1  0
 12 11  1  0
 13 14  1  1
 14  8  1  0
 15 13  1  0
 15 16  2  0
 17 15  1  0
 18 17  1  0
 18 19  1  6
 20 19  1  0
 20 21  2  0
 22 21  1  0
 23 22  2  0
 24 25  2  0
 24 23  1  0
 25 20  1  0
 26 18  1  0
 27 26  1  0
 28 26  2  0
M  END
$$$$
