QTF.pdb
     RDKit          3D

 28 28  0  0  1  0  0  0  0  0999 V2000
   18.4146  -12.0265  -20.9960 N   0  0  0  0  0  0  0  0  0  0  0  0
   19.6111  -12.2428  -21.7364 C   0  0  0  0  0  0  0  0  0  0  0  0
   19.5335  -12.2155  -22.9867 O   0  0  0  0  0  0  0  0  0  0  0  0
   20.9294  -12.4934  -21.0370 C   0  0  0  0  0  0  0  0  0  0  0  0
   20.6559  -12.5123  -19.5644 C   0  0  0  0  0  0  0  0  0  0  0  0
   21.8406  -12.7297  -18.6945 C   0  0  2  0  0  0  0  0  0  0  0  0
   21.9932  -14.1641  -18.4747 N   0  0  0  0  0  0  0  0  0  0  0  0
   21.9312  -11.9194  -17.4796 C   0  0  0  0  0  0  0  0  0  0  0  0
   21.0210  -11.9965  -16.6309 O   0  0  0  0  0  0  0  0  0  0  0  0
   24.3889  -12.0017  -14.9858 C   0  0  0  0  0  0  0  0  0  0  0  0
   24.4523  -10.5060  -15.2771 C   0  0  1  0  0  0  0  0  0  0  0  0
   25.5071  -10.3448  -16.1610 O   0  0  0  0  0  0  0  0  0  0  0  0
   23.1554  -10.1880  -16.0489 C   0  0  2  0  0  0  0  0  0  0  0  0
   23.0133  -11.0219  -17.1929 N   0  0  0  0  0  0  0  0  0  0  0  0
   23.0677   -8.7428  -16.2917 C   0  0  0  0  0  0  0  0  0  0  0  0
   23.6034   -8.1762  -17.2925 O   0  0  0  0  0  0  0  0  0  0  0  0
   22.3607   -7.8494  -15.4190 N   0  0  0  0  0  0  0  0  0  0  0  0
   22.3723   -6.4000  -15.6041 C   0  0  1  0  0  0  0  0  0  0  0  0
   21.3487   -5.9620  -16.5898 C   0  0  0  0  0  0  0  0  0  0  0  0
   21.4136   -4.5100  -16.8139 C   0  0  0  0  0  0  0  0  0  0  0  0
   22.5966   -3.8208  -16.5692 C   0  0  0  0  0  0  0  0  0  0  0  0
   22.7144   -2.4707  -16.7616 C   0  0  0  0  0  0  0  0  0  0  0  0
   21.6318   -1.7095  -17.2210 C   0  0  0  0  0  0  0  0  0  0  0  0
   20.4561   -2.3923  -17.4654 C   0  0  0  0  0  0  0  0  0  0  0  0
   20.3429   -3.7514  -17.2699 C   0  0  0  0  0  0  0  0  0  0  0  0
   22.2545   -5.6905  -14.3148 C   0  0  0  0  0  0  0  0  0  0  0  0
   22.9392   -4.5651  -13.9378 O   0  0  0  0  0  0  0  0  0  0  0  0
   21.4319   -6.1583  -13.4345 O   0  0  0  0  0  0  0  0  0  0  0  0
  2  3  2  0
  2  1  1  0
  4  2  1  0
  5  4  1  0
  6  5  1  0
  6  7  1  1
  8  9  2  0
  8  6  1  0
 11 10  1  6
 11 13  1  0
 12 11  1  0
 13 14  1  6
 14  8  1  0
 15 13  1  0
 15 16  2  0
 17 15  1  0
 18 17  1  0
 18 19  1  6
 20 19  1  0
 20 21  2  0
 22 21  1  0
 23 22  2  0
 24 25  2  0
 24 23  1  0
 25 20  1  0
 26 18  1  0
 27 26  1  0
 28 26  2  0
M  END
$$$$
