QTF.pdb
     RDKit          3D

 28 28  0  0  1  0  0  0  0  0999 V2000
   27.6646  -15.0031  -23.6511 N   0  0  0  0  0  0  0  0  0  0  0  0
   26.3289  -15.4892  -23.7284 C   0  0  0  0  0  0  0  0  0  0  0  0
   26.0540  -16.2880  -24.6538 O   0  0  0  0  0  0  0  0  0  0  0  0
   25.2802  -15.0582  -22.7261 C   0  0  0  0  0  0  0  0  0  0  0  0
   25.9349  -14.0972  -21.7819 C   0  0  0  0  0  0  0  0  0  0  0  0
   25.0555  -13.5395  -20.7220 C   0  0  2  0  0  0  0  0  0  0  0  0
   23.6732  -13.6174  -21.1826 N   0  0  0  0  0  0  0  0  0  0  0  0
   25.4327  -12.2425  -20.1595 C   0  0  0  0  0  0  0  0  0  0  0  0
   26.5220  -12.1348  -19.5626 O   0  0  0  0  0  0  0  0  0  0  0  0
   26.1684   -9.0992  -21.6278 C   0  0  0  0  0  0  0  0  0  0  0  0
   24.9879   -8.6943  -20.7512 C   0  0  1  0  0  0  0  0  0  0  0  0
   23.8684   -8.8121  -21.5590 O   0  0  0  0  0  0  0  0  0  0  0  0
   24.8905   -9.7908  -19.6709 C   0  0  2  0  0  0  0  0  0  0  0  0
   24.6188  -11.0639  -20.2451 N   0  0  0  0  0  0  0  0  0  0  0  0
   23.9756   -9.3562  -18.6082 C   0  0  0  0  0  0  0  0  0  0  0  0
   22.7838   -9.7790  -18.5064 O   0  0  0  0  0  0  0  0  0  0  0  0
   24.3564   -8.4203  -17.5890 N   0  0  0  0  0  0  0  0  0  0  0  0
   23.4147   -7.9260  -16.5871 C   0  0  1  0  0  0  0  0  0  0  0  0
   24.0493   -7.8014  -15.2481 C   0  0  0  0  0  0  0  0  0  0  0  0
   23.0628   -7.4231  -14.2253 C   0  0  0  0  0  0  0  0  0  0  0  0
   22.7850   -6.0809  -13.9899 C   0  0  0  0  0  0  0  0  0  0  0  0
   21.8759   -5.6715  -13.0519 C   0  0  0  0  0  0  0  0  0  0  0  0
   21.1726   -6.6004  -12.2742 C   0  0  0  0  0  0  0  0  0  0  0  0
   21.4465   -7.9342  -12.5070 C   0  0  0  0  0  0  0  0  0  0  0  0
   22.3627   -8.3408  -13.4522 C   0  0  0  0  0  0  0  0  0  0  0  0
   22.7699   -6.6721  -17.0251 C   0  0  0  0  0  0  0  0  0  0  0  0
   21.4526   -6.3322  -16.8614 O   0  0  0  0  0  0  0  0  0  0  0  0
   23.4978   -5.7907  -17.6282 O   0  0  0  0  0  0  0  0  0  0  0  0
  2  3  2  0
  2  1  1  0
  4  2  1  0
  5  4  1  0
  6  5  1  0
  6  7  1  6
  8  9  2  0
  8  6  1  0
 11 10  1  6
 11 13  1  0
 12 11  1  0
 13 14  1  6
 14  8  1  0
 15 13  1  0
 15 16  2  0
 17 15  1  0
 18 17  1  0
 18 19  1  1
 20 19  1  0
 20 21  2  0
 22 21  1  0
 23 22  2  0
 24 25  2  0
 24 23  1  0
 25 20  1  0
 26 18  1  0
 27 26  1  0
 28 26  2  0
M  END
$$$$
