QTF.pdb
     RDKit          3D

 28 28  0  0  1  0  0  0  0  0999 V2000
   22.6958  -17.4213  -14.5052 N   0  0  0  0  0  0  0  0  0  0  0  0
   22.0248  -17.5127  -15.7573 C   0  0  0  0  0  0  0  0  0  0  0  0
   22.4260  -18.3783  -16.5696 O   0  0  0  0  0  0  0  0  0  0  0  0
   20.8664  -16.5985  -16.0927 C   0  0  0  0  0  0  0  0  0  0  0  0
   21.4451  -15.2849  -16.5207 C   0  0  0  0  0  0  0  0  0  0  0  0
   20.8133  -14.6635  -17.7132 C   0  0  2  0  0  0  0  0  0  0  0  0
   21.0205  -15.5462  -18.8565 N   0  0  0  0  0  0  0  0  0  0  0  0
   21.1219  -13.2569  -17.9723 C   0  0  0  0  0  0  0  0  0  0  0  0
   22.2486  -12.9553  -18.4130 O   0  0  0  0  0  0  0  0  0  0  0  0
   19.7728  -11.0478  -20.3300 C   0  0  0  0  0  0  0  0  0  0  0  0
   19.4577  -10.2531  -19.0671 C   0  0  1  0  0  0  0  0  0  0  0  0
   18.1779  -10.6351  -18.6982 O   0  0  0  0  0  0  0  0  0  0  0  0
   20.4244  -10.7959  -17.9949 C   0  0  2  0  0  0  0  0  0  0  0  0
   20.2021  -12.1791  -17.7466 N   0  0  0  0  0  0  0  0  0  0  0  0
   20.3983   -9.9189  -16.8179 C   0  0  0  0  0  0  0  0  0  0  0  0
   19.7133  -10.1739  -15.7809 O   0  0  0  0  0  0  0  0  0  0  0  0
   21.1531   -8.7009  -16.7390 N   0  0  0  0  0  0  0  0  0  0  0  0
   21.0737   -7.8024  -15.5895 C   0  0  1  0  0  0  0  0  0  0  0  0
   22.3797   -7.6883  -14.8877 C   0  0  0  0  0  0  0  0  0  0  0  0
   22.8740   -9.0078  -14.4666 C   0  0  0  0  0  0  0  0  0  0  0  0
   23.8255   -9.6711  -15.2339 C   0  0  0  0  0  0  0  0  0  0  0  0
   24.3217  -10.8995  -14.8895 C   0  0  0  0  0  0  0  0  0  0  0  0
   23.8871  -11.5548  -13.7302 C   0  0  0  0  0  0  0  0  0  0  0  0
   22.9425  -10.8973  -12.9662 C   0  0  0  0  0  0  0  0  0  0  0  0
   22.4462   -9.6610  -13.3176 C   0  0  0  0  0  0  0  0  0  0  0  0
   20.5205   -6.4874  -15.9698 C   0  0  0  0  0  0  0  0  0  0  0  0
   20.1009   -5.5014  -15.1158 O   0  0  0  0  0  0  0  0  0  0  0  0
   20.4074   -6.2145  -17.2280 O   0  0  0  0  0  0  0  0  0  0  0  0
  2  3  2  0
  2  1  1  0
  4  2  1  0
  5  4  1  0
  6  5  1  0
  6  7  1  6
  8  9  2  0
  8  6  1  0
 11 10  1  6
 11 13  1  0
 12 11  1  0
 13 14  1  1
 14  8  1  0
 15 13  1  0
 15 16  2  0
 17 15  1  0
 18 17  1  0
 18 19  1  6
 20 19  1  0
 20 21  2  0
 22 21  1  0
 23 22  2  0
 24 25  2  0
 24 23  1  0
 25 20  1  0
 26 18  1  0
 27 26  1  0
 28 26  2  0
M  END
$$$$
