QTF.pdb
     RDKit          3D

 28 28  0  0  1  0  0  0  0  0999 V2000
   18.8105  -13.1410  -15.3629 N   0  0  0  0  0  0  0  0  0  0  0  0
   19.6974  -13.5047  -16.4152 C   0  0  0  0  0  0  0  0  0  0  0  0
   20.6327  -14.2921  -16.1408 O   0  0  0  0  0  0  0  0  0  0  0  0
   19.5141  -12.9615  -17.8157 C   0  0  0  0  0  0  0  0  0  0  0  0
   20.3158  -11.6999  -17.9127 C   0  0  0  0  0  0  0  0  0  0  0  0
   19.5674  -10.4969  -18.3601 C   0  0  2  0  0  0  0  0  0  0  0  0
   19.0262  -10.7595  -19.6895 N   0  0  0  0  0  0  0  0  0  0  0  0
   20.2431   -9.2059  -18.2272 C   0  0  0  0  0  0  0  0  0  0  0  0
   21.4854   -9.1599  -18.3222 O   0  0  0  0  0  0  0  0  0  0  0  0
   19.3672   -6.1958  -20.1862 C   0  0  0  0  0  0  0  0  0  0  0  0
   19.3407   -5.6512  -18.7620 C   0  0  1  0  0  0  0  0  0  0  0  0
   18.0184   -5.7364  -18.3569 O   0  0  0  0  0  0  0  0  0  0  0  0
   20.1427   -6.6678  -17.9242 C   0  0  2  0  0  0  0  0  0  0  0  0
   19.5629   -7.9656  -17.9867 N   0  0  0  0  0  0  0  0  0  0  0  0
   20.3684   -6.1284  -16.5776 C   0  0  0  0  0  0  0  0  0  0  0  0
   19.6047   -6.3784  -15.5959 O   0  0  0  0  0  0  0  0  0  0  0  0
   21.4787   -5.2775  -16.2570 N   0  0  0  0  0  0  0  0  0  0  0  0
   21.6901   -4.7363  -14.9163 C   0  0  1  0  0  0  0  0  0  0  0  0
   22.9872   -5.1806  -14.3408 C   0  0  0  0  0  0  0  0  0  0  0  0
   23.0840   -6.6478  -14.3179 C   0  0  0  0  0  0  0  0  0  0  0  0
   23.8495   -7.3091  -15.2724 C   0  0  0  0  0  0  0  0  0  0  0  0
   23.9763   -8.6718  -15.2981 C   0  0  0  0  0  0  0  0  0  0  0  0
   23.3308   -9.4752  -14.3494 C   0  0  0  0  0  0  0  0  0  0  0  0
   22.5705   -8.8203  -13.4000 C   0  0  0  0  0  0  0  0  0  0  0  0
   22.4461   -7.4483  -13.3787 C   0  0  0  0  0  0  0  0  0  0  0  0
   21.5372   -3.2680  -14.8969 C   0  0  0  0  0  0  0  0  0  0  0  0
   21.3789   -2.4502  -15.9848 O   0  0  0  0  0  0  0  0  0  0  0  0
   21.5536   -2.6685  -13.7520 O   0  0  0  0  0  0  0  0  0  0  0  0
  2  3  2  0
  2  1  1  0
  4  2  1  0
  5  4  1  0
  6  5  1  0
  6  7  1  6
  8  9  2  0
  8  6  1  0
 11 10  1  6
 11 13  1  0
 12 11  1  0
 13 14  1  1
 14  8  1  0
 15 13  1  0
 15 16  2  0
 17 15  1  0
 18 17  1  0
 18 19  1  6
 20 19  1  0
 20 21  2  0
 22 21  1  0
 23 22  2  0
 24 25  2  0
 24 23  1  0
 25 20  1  0
 26 18  1  0
 27 26  1  0
 28 26  2  0
M  END
$$$$
