QTF.pdb
     RDKit          3D

 28 28  0  0  1  0  0  0  0  0999 V2000
   27.8341  -17.7968  -17.5780 N   0  0  0  0  0  0  0  0  0  0  0  0
   29.1856  -18.2437  -17.5736 C   0  0  0  0  0  0  0  0  0  0  0  0
   29.7639  -18.3562  -18.6796 O   0  0  0  0  0  0  0  0  0  0  0  0
   29.8982  -18.5680  -16.2787 C   0  0  0  0  0  0  0  0  0  0  0  0
   28.9624  -18.2310  -15.1587 C   0  0  0  0  0  0  0  0  0  0  0  0
   28.3731  -19.3924  -14.4435 C   0  0  2  0  0  0  0  0  0  0  0  0
   28.0473  -20.4209  -15.4258 N   0  0  0  0  0  0  0  0  0  0  0  0
   27.3030  -19.1106  -13.4863 C   0  0  0  0  0  0  0  0  0  0  0  0
   26.4841  -18.2059  -13.7423 O   0  0  0  0  0  0  0  0  0  0  0  0
   24.9027  -19.6782  -13.6231 C   0  0  0  0  0  0  0  0  0  0  0  0
   24.7252  -20.2914  -12.2381 C   0  0  1  0  0  0  0  0  0  0  0  0
   24.8298  -21.6606  -12.4225 O   0  0  0  0  0  0  0  0  0  0  0  0
   25.9622  -19.8418  -11.4341 C   0  0  2  0  0  0  0  0  0  0  0  0
   27.1291  -19.8137  -12.2477 N   0  0  0  0  0  0  0  0  0  0  0  0
   26.0591  -20.6272  -10.1976 C   0  0  0  0  0  0  0  0  0  0  0  0
   26.7135  -21.7111  -10.1167 O   0  0  0  0  0  0  0  0  0  0  0  0
   25.4262  -20.2297   -8.9725 N   0  0  0  0  0  0  0  0  0  0  0  0
   25.3921  -21.0906   -7.7924 C   0  0  1  0  0  0  0  0  0  0  0  0
   25.6549  -20.3260   -6.5444 C   0  0  0  0  0  0  0  0  0  0  0  0
   27.0957  -20.1049   -6.3499 C   0  0  0  0  0  0  0  0  0  0  0  0
   27.9368  -21.1834   -6.0975 C   0  0  0  0  0  0  0  0  0  0  0  0
   29.2848  -21.0366   -5.9100 C   0  0  0  0  0  0  0  0  0  0  0  0
   29.8883  -19.7736   -5.9648 C   0  0  0  0  0  0  0  0  0  0  0  0
   29.0547  -18.7011   -6.2162 C   0  0  0  0  0  0  0  0  0  0  0  0
   27.6984  -18.8545   -6.4039 C   0  0  0  0  0  0  0  0  0  0  0  0
   24.1371  -21.8654   -7.7259 C   0  0  0  0  0  0  0  0  0  0  0  0
   23.8399  -22.8613   -6.8330 O   0  0  0  0  0  0  0  0  0  0  0  0
   23.2102  -21.5995   -8.5865 O   0  0  0  0  0  0  0  0  0  0  0  0
  2  3  2  0
  2  1  1  0
  4  2  1  0
  5  4  1  0
  6  5  1  0
  6  7  1  6
  8  9  2  0
  8  6  1  0
 11 10  1  6
 11 13  1  0
 12 11  1  0
 13 14  1  6
 14  8  1  0
 15 13  1  0
 15 16  2  0
 17 15  1  0
 18 17  1  0
 18 19  1  1
 20 19  1  0
 20 21  2  0
 22 21  1  0
 23 22  2  0
 24 25  2  0
 24 23  1  0
 25 20  1  0
 26 18  1  0
 27 26  1  0
 28 26  2  0
M  END
$$$$
