QTF.pdb
     RDKit          3D

 28 28  0  0  1  0  0  0  0  0999 V2000
   20.0306  -15.2469  -15.9107 N   0  0  0  0  0  0  0  0  0  0  0  0
   18.6819  -14.7997  -15.8244 C   0  0  0  0  0  0  0  0  0  0  0  0
   17.8479  -15.5686  -15.2919 O   0  0  0  0  0  0  0  0  0  0  0  0
   18.2721  -13.4428  -16.3542 C   0  0  0  0  0  0  0  0  0  0  0  0
   19.5031  -12.7882  -16.9019 C   0  0  0  0  0  0  0  0  0  0  0  0
   19.3180  -12.0296  -18.1660 C   0  0  2  0  0  0  0  0  0  0  0  0
   19.6226  -12.9166  -19.2839 N   0  0  0  0  0  0  0  0  0  0  0  0
   19.9503  -10.7128  -18.2500 C   0  0  0  0  0  0  0  0  0  0  0  0
   21.1143  -10.6268  -18.6884 O   0  0  0  0  0  0  0  0  0  0  0  0
   19.2301   -7.8865  -20.2421 C   0  0  0  0  0  0  0  0  0  0  0  0
   19.0591   -7.2699  -18.8578 C   0  0  1  0  0  0  0  0  0  0  0  0
   17.7191   -7.4293  -18.5437 O   0  0  0  0  0  0  0  0  0  0  0  0
   19.8636   -8.1794  -17.9068 C   0  0  2  0  0  0  0  0  0  0  0  0
   19.3134   -9.4903  -17.8517 N   0  0  0  0  0  0  0  0  0  0  0  0
   20.0469   -7.5041  -16.6162 C   0  0  0  0  0  0  0  0  0  0  0  0
   19.3589   -7.7816  -15.5870 O   0  0  0  0  0  0  0  0  0  0  0  0
   21.0272   -6.4767  -16.4087 N   0  0  0  0  0  0  0  0  0  0  0  0
   21.1971   -5.8033  -15.1231 C   0  0  1  0  0  0  0  0  0  0  0  0
   22.5864   -5.9370  -14.6101 C   0  0  0  0  0  0  0  0  0  0  0  0
   22.9748   -7.3502  -14.4892 C   0  0  0  0  0  0  0  0  0  0  0  0
   22.3959   -8.1491  -13.5090 C   0  0  0  0  0  0  0  0  0  0  0  0
   22.7183   -9.4701  -13.3517 C   0  0  0  0  0  0  0  0  0  0  0  0
   23.6609  -10.0875  -14.1841 C   0  0  0  0  0  0  0  0  0  0  0  0
   24.2365   -9.2959  -15.1589 C   0  0  0  0  0  0  0  0  0  0  0  0
   23.9085   -7.9666  -15.3127 C   0  0  0  0  0  0  0  0  0  0  0  0
   20.7520   -4.3971  -15.1876 C   0  0  0  0  0  0  0  0  0  0  0  0
   20.5996   -3.5407  -14.1289 O   0  0  0  0  0  0  0  0  0  0  0  0
   20.4688   -3.9000  -16.3465 O   0  0  0  0  0  0  0  0  0  0  0  0
  2  3  2  0
  2  1  1  0
  4  2  1  0
  5  4  1  0
  6  5  1  0
  6  7  1  6
  8  9  2  0
  8  6  1  0
 11 10  1  6
 11 13  1  0
 12 11  1  0
 13 14  1  1
 14  8  1  0
 15 13  1  0
 15 16  2  0
 17 15  1  0
 18 17  1  0
 18 19  1  6
 20 19  1  0
 20 21  2  0
 22 21  1  0
 23 22  2  0
 24 25  2  0
 24 23  1  0
 25 20  1  0
 26 18  1  0
 27 26  1  0
 28 26  2  0
M  END
$$$$
