QTF.pdb
     RDKit          3D

 28 28  0  0  1  0  0  0  0  0999 V2000
   24.0812  -16.4393  -19.7634 N   0  0  0  0  0  0  0  0  0  0  0  0
   23.1282  -17.2834  -19.1265 C   0  0  0  0  0  0  0  0  0  0  0  0
   23.4159  -18.4970  -19.0059 O   0  0  0  0  0  0  0  0  0  0  0  0
   21.8163  -16.7328  -18.6112 C   0  0  0  0  0  0  0  0  0  0  0  0
   21.7643  -15.2831  -18.9844 C   0  0  0  0  0  0  0  0  0  0  0  0
   21.1380  -14.3842  -17.9807 C   0  0  2  0  0  0  0  0  0  0  0  0
   19.7915  -14.8726  -17.7021 N   0  0  0  0  0  0  0  0  0  0  0  0
   21.2181  -12.9455  -18.2348 C   0  0  0  0  0  0  0  0  0  0  0  0
   21.7272  -12.5462  -19.3006 O   0  0  0  0  0  0  0  0  0  0  0  0
   18.8125  -10.5671  -18.9159 C   0  0  0  0  0  0  0  0  0  0  0  0
   19.3837   -9.9319  -17.6526 C   0  0  1  0  0  0  0  0  0  0  0  0
   18.6141  -10.4226  -16.6102 O   0  0  0  0  0  0  0  0  0  0  0  0
   20.7965  -10.5317  -17.5005 C   0  0  2  0  0  0  0  0  0  0  0  0
   20.7462  -11.9425  -17.3237 N   0  0  0  0  0  0  0  0  0  0  0  0
   21.5435   -9.7823  -16.4829 C   0  0  0  0  0  0  0  0  0  0  0  0
   21.6025  -10.1385  -15.2667 O   0  0  0  0  0  0  0  0  0  0  0  0
   22.2773   -8.5855  -16.7813 N   0  0  0  0  0  0  0  0  0  0  0  0
   23.0044   -7.8363  -15.7590 C   0  0  1  0  0  0  0  0  0  0  0  0
   24.4258   -7.6216  -16.1395 C   0  0  0  0  0  0  0  0  0  0  0  0
   25.1320   -8.9014  -16.3011 C   0  0  0  0  0  0  0  0  0  0  0  0
   25.4809   -9.3475  -17.5713 C   0  0  0  0  0  0  0  0  0  0  0  0
   26.1396  -10.5291  -17.7806 C   0  0  0  0  0  0  0  0  0  0  0  0
   26.4981  -11.3559  -16.7081 C   0  0  0  0  0  0  0  0  0  0  0  0
   26.1531  -10.9142  -15.4455 C   0  0  0  0  0  0  0  0  0  0  0  0
   25.4898   -9.7241  -15.2404 C   0  0  0  0  0  0  0  0  0  0  0  0
   22.3140   -6.5759  -15.4206 C   0  0  0  0  0  0  0  0  0  0  0  0
   22.5334   -5.7977  -14.3144 O   0  0  0  0  0  0  0  0  0  0  0  0
   21.4054   -6.1420  -16.2308 O   0  0  0  0  0  0  0  0  0  0  0  0
  2  3  2  0
  2  1  1  0
  4  2  1  0
  5  4  1  0
  6  5  1  0
  6  7  1  6
  8  9  2  0
  8  6  1  0
 11 10  1  6
 11 13  1  0
 12 11  1  0
 13 14  1  1
 14  8  1  0
 15 13  1  0
 15 16  2  0
 17 15  1  0
 18 17  1  0
 18 19  1  6
 20 19  1  0
 20 21  2  0
 22 21  1  0
 23 22  2  0
 24 25  2  0
 24 23  1  0
 25 20  1  0
 26 18  1  0
 27 26  1  0
 28 26  2  0
M  END
$$$$
