QTF.pdb
     RDKit          3D

 28 28  0  0  1  0  0  0  0  0999 V2000
   26.0160  -26.5984  -16.2294 N   0  0  0  0  0  0  0  0  0  0  0  0
   24.7010  -26.1694  -16.5658 C   0  0  0  0  0  0  0  0  0  0  0  0
   23.8815  -27.0427  -16.9342 O   0  0  0  0  0  0  0  0  0  0  0  0
   24.3074  -24.7109  -16.4778 C   0  0  0  0  0  0  0  0  0  0  0  0
   25.4504  -23.9784  -15.8448 C   0  0  0  0  0  0  0  0  0  0  0  0
   25.2212  -22.5336  -15.5846 C   0  0  2  0  0  0  0  0  0  0  0  0
   25.0072  -21.8639  -16.8632 N   0  0  0  0  0  0  0  0  0  0  0  0
   26.1717  -21.8583  -14.7006 C   0  0  0  0  0  0  0  0  0  0  0  0
   27.3156  -21.6010  -15.1246 O   0  0  0  0  0  0  0  0  0  0  0  0
   27.1161  -18.9830  -14.0382 C   0  0  0  0  0  0  0  0  0  0  0  0
   26.6422  -19.2595  -12.6152 C   0  0  1  0  0  0  0  0  0  0  0  0
   25.2972  -18.9269  -12.6011 O   0  0  0  0  0  0  0  0  0  0  0  0
   26.7373  -20.7895  -12.4464 C   0  0  2  0  0  0  0  0  0  0  0  0
   25.8747  -21.4674  -13.3524 N   0  0  0  0  0  0  0  0  0  0  0  0
   26.5845  -21.1398  -11.0289 C   0  0  0  0  0  0  0  0  0  0  0  0
   25.4967  -21.5681  -10.5362 O   0  0  0  0  0  0  0  0  0  0  0  0
   27.6575  -21.0338  -10.0819 N   0  0  0  0  0  0  0  0  0  0  0  0
   27.4254  -20.9170   -8.6440 C   0  0  1  0  0  0  0  0  0  0  0  0
   28.4781  -20.1033   -7.9800 C   0  0  0  0  0  0  0  0  0  0  0  0
   28.2600  -20.0350   -6.5273 C   0  0  0  0  0  0  0  0  0  0  0  0
   27.8342  -18.8467   -5.9433 C   0  0  0  0  0  0  0  0  0  0  0  0
   27.6141  -18.7263   -4.5976 C   0  0  0  0  0  0  0  0  0  0  0  0
   27.8106  -19.8114   -3.7337 C   0  0  0  0  0  0  0  0  0  0  0  0
   28.2327  -20.9927   -4.3119 C   0  0  0  0  0  0  0  0  0  0  0  0
   28.4530  -21.1085   -5.6670 C   0  0  0  0  0  0  0  0  0  0  0  0
   26.0643  -20.4231   -8.3556 C   0  0  0  0  0  0  0  0  0  0  0  0
   25.1442  -21.0065   -7.5246 O   0  0  0  0  0  0  0  0  0  0  0  0
   25.6756  -19.3346   -8.9340 O   0  0  0  0  0  0  0  0  0  0  0  0
  2  3  2  0
  2  1  1  0
  4  2  1  0
  5  4  1  0
  6  5  1  0
  6  7  1  6
  8  9  2  0
  8  6  1  0
 11 10  1  6
 11 13  1  0
 12 11  1  0
 13 14  1  6
 14  8  1  0
 15 13  1  0
 15 16  2  0
 17 15  1  0
 18 17  1  0
 18 19  1  6
 20 19  1  0
 20 21  2  0
 22 21  1  0
 23 22  2  0
 24 25  2  0
 24 23  1  0
 25 20  1  0
 26 18  1  0
 27 26  1  0
 28 26  2  0
M  END
$$$$
