QTF.pdb
     RDKit          3D

 28 28  0  0  1  0  0  0  0  0999 V2000
   15.6091  -13.0501  -13.3271 N   0  0  0  0  0  0  0  0  0  0  0  0
   15.2181  -12.9145  -14.6891 C   0  0  0  0  0  0  0  0  0  0  0  0
   13.9927  -12.8283  -14.9360 O   0  0  0  0  0  0  0  0  0  0  0  0
   16.2471  -12.8729  -15.7979 C   0  0  0  0  0  0  0  0  0  0  0  0
   17.5571  -13.2938  -15.2061 C   0  0  0  0  0  0  0  0  0  0  0  0
   18.7272  -13.2186  -16.1186 C   0  0  2  0  0  0  0  0  0  0  0  0
   19.0475  -14.5691  -16.5688 N   0  0  0  0  0  0  0  0  0  0  0  0
   19.8811  -12.4459  -15.6579 C   0  0  0  0  0  0  0  0  0  0  0  0
   20.9201  -13.0493  -15.3245 O   0  0  0  0  0  0  0  0  0  0  0  0
   22.3489  -12.0443  -16.2177 C   0  0  0  0  0  0  0  0  0  0  0  0
   22.1772  -10.5326  -16.3241 C   0  0  1  0  0  0  0  0  0  0  0  0
   21.7054  -10.3023  -17.6064 O   0  0  0  0  0  0  0  0  0  0  0  0
   21.0359  -10.1846  -15.3469 C   0  0  2  0  0  0  0  0  0  0  0  0
   19.8997  -11.0147  -15.5574 N   0  0  0  0  0  0  0  0  0  0  0  0
   20.7887   -8.7377  -15.3724 C   0  0  0  0  0  0  0  0  0  0  0  0
   19.8978   -8.2013  -16.0991 O   0  0  0  0  0  0  0  0  0  0  0  0
   21.5311   -7.8079  -14.5699 N   0  0  0  0  0  0  0  0  0  0  0  0
   21.3665   -6.3612  -14.6917 C   0  0  1  0  0  0  0  0  0  0  0  0
   21.5655   -5.6721  -13.3892 C   0  0  0  0  0  0  0  0  0  0  0  0
   21.3589   -4.2218  -13.5180 C   0  0  0  0  0  0  0  0  0  0  0  0
   20.1569   -3.6519  -13.1122 C   0  0  0  0  0  0  0  0  0  0  0  0
   19.9106   -2.3087  -13.2076 C   0  0  0  0  0  0  0  0  0  0  0  0
   20.8732   -1.4330  -13.7263 C   0  0  0  0  0  0  0  0  0  0  0  0
   22.0681   -1.9970  -14.1293 C   0  0  0  0  0  0  0  0  0  0  0  0
   22.3107   -3.3497  -14.0313 C   0  0  0  0  0  0  0  0  0  0  0  0
   22.2236   -5.8087  -15.7594 C   0  0  0  0  0  0  0  0  0  0  0  0
   23.5295   -6.1394  -16.0097 O   0  0  0  0  0  0  0  0  0  0  0  0
   21.7166   -4.9205  -16.5496 O   0  0  0  0  0  0  0  0  0  0  0  0
  2  3  2  0
  2  1  1  0
  4  2  1  0
  5  4  1  0
  6  5  1  0
  6  7  1  1
  8  9  2  0
  8  6  1  0
 11 10  1  6
 11 13  1  0
 12 11  1  0
 13 14  1  6
 14  8  1  0
 15 13  1  0
 15 16  2  0
 17 15  1  0
 18 17  1  0
 18 19  1  1
 20 19  1  0
 20 21  2  0
 22 21  1  0
 23 22  2  0
 24 25  2  0
 24 23  1  0
 25 20  1  0
 26 18  1  0
 27 26  1  0
 28 26  2  0
M  END
$$$$
