YDE.pdb
     RDKit          3D

 30 30  0  0  1  0  0  0  0  0999 V2000
    8.4434  -11.8867   18.7589 O   0  0  0  0  0  0  0  0  0  0  0  0
    8.0199  -12.8196   19.7130 C   0  0  0  0  0  0  0  0  0  0  0  0
    6.7450  -13.3366   19.7135 C   0  0  0  0  0  0  0  0  0  0  0  0
    6.3896  -14.2498   20.6786 C   0  0  0  0  0  0  0  0  0  0  0  0
    7.2549  -14.6904   21.6701 C   0  0  0  0  0  0  0  0  0  0  0  0
    6.7933  -15.6760   22.6827 C   0  0  0  0  0  0  0  0  0  0  0  0
    6.5014  -16.9749   21.9469 C   0  0  2  0  0  0  0  0  0  0  0  0
    5.9373  -17.9620   22.8697 N   0  0  0  0  0  0  0  0  0  0  0  0
    7.8310  -17.5171   21.5583 C   0  0  0  0  0  0  0  0  0  0  0  0
    8.5957  -18.1316   22.3399 O   0  0  0  0  0  0  0  0  0  0  0  0
    8.5269  -14.1670   21.6596 C   0  0  0  0  0  0  0  0  0  0  0  0
    8.9056  -13.2461   20.6972 C   0  0  0  0  0  0  0  0  0  0  0  0
    8.2486  -17.3170   20.2067 N   0  0  0  0  0  0  0  0  0  0  0  0
    9.4889  -17.8928   19.7839 C   0  0  1  0  0  0  0  0  0  0  0  0
    9.5583  -18.0714   18.2773 C   0  0  0  0  0  0  0  0  0  0  0  0
   10.6597  -18.9946   17.9238 C   0  0  0  0  0  0  0  0  0  0  0  0
   11.7850  -19.0223   18.4537 O   0  0  0  0  0  0  0  0  0  0  0  0
   10.5917  -16.9639   20.1583 C   0  0  0  0  0  0  0  0  0  0  0  0
   10.5597  -15.7338   19.9105 O   0  0  0  0  0  0  0  0  0  0  0  0
   10.3837  -19.9049   16.9011 O   0  0  0  0  0  0  0  0  0  0  0  0
   11.7029  -17.5416   20.8209 N   0  0  0  0  0  0  0  0  0  0  0  0
   12.6956  -16.6886   21.5483 C   0  0  1  0  0  0  0  0  0  0  0  0
   12.4577  -17.0585   22.9802 C   0  0  0  0  0  0  0  0  0  0  0  0
   13.2906  -16.4548   24.0305 C   0  0  0  0  0  0  0  0  0  0  0  0
   12.9866  -16.9677   25.3706 C   0  0  0  0  0  0  0  0  0  0  0  0
   13.7760  -16.7357   26.3242 O   0  0  0  0  0  0  0  0  0  0  0  0
   13.9810  -17.0189   20.9691 C   0  0  0  0  0  0  0  0  0  0  0  0
   14.2539  -18.1861   20.6146 O   0  0  0  0  0  0  0  0  0  0  0  0
   11.8483  -17.7031   25.6304 O   0  0  0  0  0  0  0  0  0  0  0  0
   14.9645  -16.0713   20.7780 O   0  0  0  0  0  0  0  0  0  0  0  0
  2  1  1  0
  2 12  2  0
  3  2  1  0
  4  3  2  0
  4  5  1  0
  5 11  2  0
  6  5  1  0
  7  6  1  0
  7  8  1  1
  9  7  1  0
 10  9  2  0
 11 12  1  0
 13  9  1  0
 14 13  1  0
 14 15  1  6
 16 15  1  0
 17 16  2  0
 18 14  1  0
 18 19  2  0
 20 16  1  0
 21 18  1  0
 22 21  1  0
 22 23  1  1
 23 24  1  0
 24 25  1  0
 25 29  1  0
 26 25  2  0
 27 22  1  0
 28 27  2  0
 30 27  1  0
M  END
$$$$
