YDE.pdb
     RDKit          3D

 30 30  0  0  1  0  0  0  0  0999 V2000
    6.4972  -10.5021   26.2847 O   0  0  0  0  0  0  0  0  0  0  0  0
    6.6677  -11.8864   26.1633 C   0  0  0  0  0  0  0  0  0  0  0  0
    7.8688  -12.4447   25.7914 C   0  0  0  0  0  0  0  0  0  0  0  0
    7.9722  -13.8124   25.6892 C   0  0  0  0  0  0  0  0  0  0  0  0
    6.9192  -14.6800   25.9437 C   0  0  0  0  0  0  0  0  0  0  0  0
    7.1086  -16.1479   25.8051 C   0  0  0  0  0  0  0  0  0  0  0  0
    6.8166  -16.5050   24.3556 C   0  0  2  0  0  0  0  0  0  0  0  0
    5.8657  -17.6166   24.2912 N   0  0  0  0  0  0  0  0  0  0  0  0
    8.0922  -17.0491   23.8173 C   0  0  0  0  0  0  0  0  0  0  0  0
    8.5430  -18.1868   24.0922 O   0  0  0  0  0  0  0  0  0  0  0  0
    5.7234  -14.1106   26.3149 C   0  0  0  0  0  0  0  0  0  0  0  0
    5.5973  -12.7358   26.4236 C   0  0  0  0  0  0  0  0  0  0  0  0
    8.8388  -16.2109   22.9334 N   0  0  0  0  0  0  0  0  0  0  0  0
   10.1465  -16.6342   22.5343 C   0  0  1  0  0  0  0  0  0  0  0  0
   10.7249  -15.7615   21.4341 C   0  0  0  0  0  0  0  0  0  0  0  0
   11.9712  -16.3625   20.9091 C   0  0  0  0  0  0  0  0  0  0  0  0
   12.0787  -17.4975   20.4109 O   0  0  0  0  0  0  0  0  0  0  0  0
   11.0593  -16.5120   23.7051 C   0  0  0  0  0  0  0  0  0  0  0  0
   11.3238  -15.4129   24.2507 O   0  0  0  0  0  0  0  0  0  0  0  0
   13.1129  -15.5623   20.9932 O   0  0  0  0  0  0  0  0  0  0  0  0
   11.6289  -17.7165   24.1871 N   0  0  0  0  0  0  0  0  0  0  0  0
   12.5182  -17.7208   25.3918 C   0  0  1  0  0  0  0  0  0  0  0  0
   11.7039  -18.4761   26.3969 C   0  0  0  0  0  0  0  0  0  0  0  0
   12.3027  -18.8320   27.6915 C   0  0  0  0  0  0  0  0  0  0  0  0
   11.3954  -19.5973   28.5532 C   0  0  0  0  0  0  0  0  0  0  0  0
   11.2732  -19.2860   29.7675 O   0  0  0  0  0  0  0  0  0  0  0  0
   13.7623  -18.3132   24.9468 C   0  0  0  0  0  0  0  0  0  0  0  0
   13.8327  -18.9475   23.8720 O   0  0  0  0  0  0  0  0  0  0  0  0
   10.6562  -20.6597   28.0747 O   0  0  0  0  0  0  0  0  0  0  0  0
   14.9268  -18.2094   25.6781 O   0  0  0  0  0  0  0  0  0  0  0  0
  2  1  1  0
  2 12  2  0
  3  2  1  0
  4  3  2  0
  4  5  1  0
  5 11  2  0
  6  5  1  0
  7  6  1  0
  7  8  1  1
  9  7  1  0
 10  9  2  0
 11 12  1  0
 13  9  1  0
 14 13  1  0
 14 15  1  6
 16 15  1  0
 17 16  2  0
 18 14  1  0
 18 19  2  0
 20 16  1  0
 21 18  1  0
 22 21  1  0
 22 23  1  1
 23 24  1  0
 24 25  1  0
 25 29  1  0
 26 25  2  0
 27 22  1  0
 28 27  2  0
 30 27  1  0
M  END
$$$$
