YDE.pdb
     RDKit          3D

 30 30  0  0  1  0  0  0  0  0999 V2000
    4.8735  -10.2902   26.5239 O   0  0  0  0  0  0  0  0  0  0  0  0
    5.7128  -11.3707   26.2272 C   0  0  0  0  0  0  0  0  0  0  0  0
    6.6700  -11.3031   25.2414 C   0  0  0  0  0  0  0  0  0  0  0  0
    7.4635  -12.3997   24.9975 C   0  0  0  0  0  0  0  0  0  0  0  0
    7.3558  -13.5926   25.6986 C   0  0  0  0  0  0  0  0  0  0  0  0
    8.2471  -14.7363   25.3711 C   0  0  0  0  0  0  0  0  0  0  0  0
    7.5275  -15.5861   24.3348 C   0  0  2  0  0  0  0  0  0  0  0  0
    6.5329  -16.4412   24.9857 N   0  0  0  0  0  0  0  0  0  0  0  0
    8.5575  -16.5183   23.8030 C   0  0  0  0  0  0  0  0  0  0  0  0
    8.7496  -17.6780   24.2406 O   0  0  0  0  0  0  0  0  0  0  0  0
    6.3956  -13.6486   26.6819 C   0  0  0  0  0  0  0  0  0  0  0  0
    5.5858  -12.5562   26.9438 C   0  0  0  0  0  0  0  0  0  0  0  0
    9.3708  -16.0482   22.7265 N   0  0  0  0  0  0  0  0  0  0  0  0
   10.4555  -16.8696   22.2824 C   0  0  1  0  0  0  0  0  0  0  0  0
   11.0550  -16.3774   20.9766 C   0  0  0  0  0  0  0  0  0  0  0  0
   12.1199  -17.3005   20.5249 C   0  0  0  0  0  0  0  0  0  0  0  0
   12.0060  -18.5318   20.3867 O   0  0  0  0  0  0  0  0  0  0  0  0
   11.5395  -16.8110   23.3025 C   0  0  0  0  0  0  0  0  0  0  0  0
   11.9762  -15.7314   23.7711 O   0  0  0  0  0  0  0  0  0  0  0  0
   13.3519  -16.7101   20.2348 O   0  0  0  0  0  0  0  0  0  0  0  0
   12.0682  -18.0539   23.7307 N   0  0  0  0  0  0  0  0  0  0  0  0
   12.9869  -18.1357   24.9104 C   0  0  1  0  0  0  0  0  0  0  0  0
   12.0929  -18.6749   25.9844 C   0  0  0  0  0  0  0  0  0  0  0  0
   12.6669  -19.0353   27.2890 C   0  0  0  0  0  0  0  0  0  0  0  0
   11.6803  -19.6036   28.2137 C   0  0  0  0  0  0  0  0  0  0  0  0
   11.7711  -20.8103   28.5628 O   0  0  0  0  0  0  0  0  0  0  0  0
   14.0951  -18.9600   24.4757 C   0  0  0  0  0  0  0  0  0  0  0  0
   14.0069  -19.6866   23.4625 O   0  0  0  0  0  0  0  0  0  0  0  0
   10.6423  -18.8527   28.7263 O   0  0  0  0  0  0  0  0  0  0  0  0
   15.2977  -18.9869   25.1500 O   0  0  0  0  0  0  0  0  0  0  0  0
  2  1  1  0
  2 12  2  0
  3  2  1  0
  4  3  2  0
  4  5  1  0
  5 11  2  0
  6  5  1  0
  7  6  1  0
  7  8  1  1
  9  7  1  0
 10  9  2  0
 11 12  1  0
 13  9  1  0
 14 13  1  0
 14 15  1  6
 16 15  1  0
 17 16  2  0
 18 14  1  0
 18 19  2  0
 20 16  1  0
 21 18  1  0
 22 21  1  0
 22 23  1  1
 23 24  1  0
 24 25  1  0
 25 29  1  0
 26 25  2  0
 27 22  1  0
 28 27  2  0
 30 27  1  0
M  END
$$$$
