YDE.pdb
     RDKit          3D

 30 30  0  0  1  0  0  0  0  0999 V2000
    7.0591  -13.3220   27.6167 O   0  0  0  0  0  0  0  0  0  0  0  0
    6.9225  -13.6925   26.2736 C   0  0  0  0  0  0  0  0  0  0  0  0
    7.0467  -12.7833   25.2487 C   0  0  0  0  0  0  0  0  0  0  0  0
    6.9008  -13.2098   23.9493 C   0  0  0  0  0  0  0  0  0  0  0  0
    6.6314  -14.5263   23.6023 C   0  0  0  0  0  0  0  0  0  0  0  0
    6.4812  -14.9081   22.1735 C   0  0  0  0  0  0  0  0  0  0  0  0
    7.8760  -14.9442   21.5677 C   0  0  2  0  0  0  0  0  0  0  0  0
    7.8146  -15.4308   20.1880 N   0  0  0  0  0  0  0  0  0  0  0  0
    8.6080  -15.9968   22.3220 C   0  0  0  0  0  0  0  0  0  0  0  0
    8.3123  -17.2154   22.2955 O   0  0  0  0  0  0  0  0  0  0  0  0
    6.5094  -15.4265   24.6352 C   0  0  0  0  0  0  0  0  0  0  0  0
    6.6524  -15.0183   25.9507 C   0  0  0  0  0  0  0  0  0  0  0  0
    9.7147  -15.5771   23.1223 N   0  0  0  0  0  0  0  0  0  0  0  0
   10.4367  -16.5679   23.8608 C   0  0  1  0  0  0  0  0  0  0  0  0
   11.9408  -16.3975   23.7374 C   0  0  0  0  0  0  0  0  0  0  0  0
   12.3767  -16.7030   22.3565 C   0  0  0  0  0  0  0  0  0  0  0  0
   12.1259  -17.7471   21.7279 O   0  0  0  0  0  0  0  0  0  0  0  0
   10.1035  -16.4154   25.3047 C   0  0  0  0  0  0  0  0  0  0  0  0
   10.2268  -15.3290   25.9211 O   0  0  0  0  0  0  0  0  0  0  0  0
   13.1357  -15.7139   21.7270 O   0  0  0  0  0  0  0  0  0  0  0  0
    9.6309  -17.5754   25.9671 N   0  0  0  0  0  0  0  0  0  0  0  0
    9.4507  -17.5949   27.4535 C   0  0  1  0  0  0  0  0  0  0  0  0
    8.2584  -18.4849   27.6269 C   0  0  0  0  0  0  0  0  0  0  0  0
    8.3850  -19.9239   27.3536 C   0  0  0  0  0  0  0  0  0  0  0  0
    7.1385  -20.6633   27.5790 C   0  0  0  0  0  0  0  0  0  0  0  0
    6.0995  -20.0464   27.9340 O   0  0  0  0  0  0  0  0  0  0  0  0
   10.7177  -18.0502   27.9865 C   0  0  0  0  0  0  0  0  0  0  0  0
   11.5835  -18.5707   27.2504 O   0  0  0  0  0  0  0  0  0  0  0  0
    7.0596  -22.0306   27.4103 O   0  0  0  0  0  0  0  0  0  0  0  0
   11.0350  -17.9343   29.3235 O   0  0  0  0  0  0  0  0  0  0  0  0
  2  1  1  0
  2 12  2  0
  3  2  1  0
  4  3  2  0
  4  5  1  0
  5 11  2  0
  6  5  1  0
  7  6  1  0
  7  8  1  6
  9  7  1  0
 10  9  2  0
 11 12  1  0
 13  9  1  0
 14 13  1  0
 14 15  1  1
 16 15  1  0
 17 16  2  0
 18 14  1  0
 18 19  2  0
 20 16  1  0
 21 18  1  0
 22 21  1  0
 22 23  1  6
 23 24  1  0
 24 25  1  0
 25 29  1  0
 26 25  2  0
 27 22  1  0
 28 27  2  0
 30 27  1  0
M  END
$$$$
