YDE.pdb
     RDKit          3D

 30 30  0  0  1  0  0  0  0  0999 V2000
    7.8867  -11.1878   18.4216 O   0  0  0  0  0  0  0  0  0  0  0  0
    8.2719  -12.2860   19.1998 C   0  0  0  0  0  0  0  0  0  0  0  0
    9.5909  -12.5509   19.4874 C   0  0  0  0  0  0  0  0  0  0  0  0
    9.9049  -13.6466   20.2572 C   0  0  0  0  0  0  0  0  0  0  0  0
    8.9544  -14.5173   20.7717 C   0  0  0  0  0  0  0  0  0  0  0  0
    9.3743  -15.6845   21.5909 C   0  0  0  0  0  0  0  0  0  0  0  0
   10.1749  -16.6069   20.6842 C   0  0  2  0  0  0  0  0  0  0  0  0
    9.3209  -17.1309   19.6164 N   0  0  0  0  0  0  0  0  0  0  0  0
   10.5199  -17.7855   21.5237 C   0  0  0  0  0  0  0  0  0  0  0  0
    9.7514  -18.7566   21.7224 O   0  0  0  0  0  0  0  0  0  0  0  0
    7.6391  -14.2425   20.4779 C   0  0  0  0  0  0  0  0  0  0  0  0
    7.3009  -13.1448   19.7043 C   0  0  0  0  0  0  0  0  0  0  0  0
   11.8112  -17.7966   22.1351 N   0  0  0  0  0  0  0  0  0  0  0  0
   12.2083  -18.9597   22.8687 C   0  0  1  0  0  0  0  0  0  0  0  0
   13.3585  -19.6961   22.2044 C   0  0  0  0  0  0  0  0  0  0  0  0
   14.3362  -18.7281   21.6592 C   0  0  0  0  0  0  0  0  0  0  0  0
   14.1522  -17.9785   20.6833 O   0  0  0  0  0  0  0  0  0  0  0  0
   12.6909  -18.5287   24.2104 C   0  0  0  0  0  0  0  0  0  0  0  0
   13.2990  -17.4472   24.4005 O   0  0  0  0  0  0  0  0  0  0  0  0
   15.5665  -18.6720   22.3179 O   0  0  0  0  0  0  0  0  0  0  0  0
   12.4283  -19.4119   25.2869 N   0  0  0  0  0  0  0  0  0  0  0  0
   12.9332  -19.1182   26.6658 C   0  0  1  0  0  0  0  0  0  0  0  0
   11.9753  -19.8758   27.5330 C   0  0  0  0  0  0  0  0  0  0  0  0
   12.0969  -19.7842   28.9953 C   0  0  0  0  0  0  0  0  0  0  0  0
   11.0356  -20.5049   29.7064 C   0  0  0  0  0  0  0  0  0  0  0  0
   11.1974  -20.8278   30.9129 O   0  0  0  0  0  0  0  0  0  0  0  0
   14.3193  -19.5371   26.6628 C   0  0  0  0  0  0  0  0  0  0  0  0
   14.7316  -20.4153   25.8747 O   0  0  0  0  0  0  0  0  0  0  0  0
    9.8463  -20.8441   29.0943 O   0  0  0  0  0  0  0  0  0  0  0  0
   15.2514  -18.9935   27.5214 O   0  0  0  0  0  0  0  0  0  0  0  0
  2  1  1  0
  2 12  2  0
  3  2  1  0
  4  3  2  0
  4  5  1  0
  5 11  2  0
  6  5  1  0
  7  6  1  0
  7  8  1  6
  9  7  1  0
 10  9  2  0
 11 12  1  0
 13  9  1  0
 14 13  1  0
 14 15  1  6
 16 15  1  0
 17 16  2  0
 18 14  1  0
 18 19  2  0
 20 16  1  0
 21 18  1  0
 22 21  1  0
 22 23  1  1
 23 24  1  0
 24 25  1  0
 25 29  1  0
 26 25  2  0
 27 22  1  0
 28 27  2  0
 30 27  1  0
M  END
$$$$
