YDE.pdb
     RDKit          3D

 30 30  0  0  1  0  0  0  0  0999 V2000
    6.2345  -13.2554   16.2284 O   0  0  0  0  0  0  0  0  0  0  0  0
    7.0319  -13.4573   17.3612 C   0  0  0  0  0  0  0  0  0  0  0  0
    7.3496  -12.4329   18.2229 C   0  0  0  0  0  0  0  0  0  0  0  0
    8.1382  -12.6954   19.3187 C   0  0  0  0  0  0  0  0  0  0  0  0
    8.6421  -13.9544   19.6142 C   0  0  0  0  0  0  0  0  0  0  0  0
    9.4936  -14.1567   20.8157 C   0  0  0  0  0  0  0  0  0  0  0  0
    8.6664  -14.9335   21.8287 C   0  0  2  0  0  0  0  0  0  0  0  0
    7.7458  -14.0329   22.5255 N   0  0  0  0  0  0  0  0  0  0  0  0
    9.6325  -15.3851   22.8658 C   0  0  0  0  0  0  0  0  0  0  0  0
   10.0076  -14.6794   23.8325 O   0  0  0  0  0  0  0  0  0  0  0  0
    8.3178  -14.9708   18.7459 C   0  0  0  0  0  0  0  0  0  0  0  0
    7.5254  -14.7283   17.6364 C   0  0  0  0  0  0  0  0  0  0  0  0
   10.1570  -16.7080   22.7384 N   0  0  0  0  0  0  0  0  0  0  0  0
   11.2795  -17.0771   23.5459 C   0  0  1  0  0  0  0  0  0  0  0  0
   10.9271  -18.1390   24.5730 C   0  0  0  0  0  0  0  0  0  0  0  0
   10.2551  -17.5192   25.7368 C   0  0  0  0  0  0  0  0  0  0  0  0
   10.7064  -16.5877   26.4273 O   0  0  0  0  0  0  0  0  0  0  0  0
   12.3241  -17.6643   22.6610 C   0  0  0  0  0  0  0  0  0  0  0  0
   12.1112  -18.6556   21.9210 O   0  0  0  0  0  0  0  0  0  0  0  0
    9.0046  -18.0463   26.0670 O   0  0  0  0  0  0  0  0  0  0  0  0
   13.5966  -17.0419   22.6913 N   0  0  0  0  0  0  0  0  0  0  0  0
   14.7757  -17.6643   22.0095 C   0  0  1  0  0  0  0  0  0  0  0  0
   15.4208  -16.4919   21.3365 C   0  0  0  0  0  0  0  0  0  0  0  0
   14.7914  -15.9074   20.1433 C   0  0  0  0  0  0  0  0  0  0  0  0
   15.5848  -14.8282   19.5457 C   0  0  0  0  0  0  0  0  0  0  0  0
   16.5844  -15.1067   18.8319 O   0  0  0  0  0  0  0  0  0  0  0  0
   15.5156  -18.3329   23.0594 C   0  0  0  0  0  0  0  0  0  0  0  0
   15.4539  -17.9458   24.2463 O   0  0  0  0  0  0  0  0  0  0  0  0
   15.2696  -13.4983   19.7360 O   0  0  0  0  0  0  0  0  0  0  0  0
   16.3208  -19.4240   22.8086 O   0  0  0  0  0  0  0  0  0  0  0  0
  2  1  1  0
  2 12  2  0
  3  2  1  0
  4  3  2  0
  4  5  1  0
  5 11  2  0
  6  5  1  0
  7  6  1  0
  7  8  1  1
  9  7  1  0
 10  9  2  0
 11 12  1  0
 13  9  1  0
 14 13  1  0
 14 15  1  1
 16 15  1  0
 17 16  2  0
 18 14  1  0
 18 19  2  0
 20 16  1  0
 21 18  1  0
 22 21  1  0
 22 23  1  1
 23 24  1  0
 24 25  1  0
 25 29  1  0
 26 25  2  0
 27 22  1  0
 28 27  2  0
 30 27  1  0
M  END
$$$$
