YDE.pdb
     RDKit          3D

 30 30  0  0  1  0  0  0  0  0999 V2000
    7.4540  -12.4109   25.9832 O   0  0  0  0  0  0  0  0  0  0  0  0
    7.2822  -12.8008   24.6496 C   0  0  0  0  0  0  0  0  0  0  0  0
    7.5719  -11.9603   23.5997 C   0  0  0  0  0  0  0  0  0  0  0  0
    7.3810  -12.4023   22.3113 C   0  0  0  0  0  0  0  0  0  0  0  0
    6.9057  -13.6686   21.9999 C   0  0  0  0  0  0  0  0  0  0  0  0
    6.7202  -14.0703   20.5808 C   0  0  0  0  0  0  0  0  0  0  0  0
    8.1029  -14.3255   20.0003 C   0  0  2  0  0  0  0  0  0  0  0  0
    7.9915  -14.7868   18.6150 N   0  0  0  0  0  0  0  0  0  0  0  0
    8.6420  -15.4868   20.7576 C   0  0  0  0  0  0  0  0  0  0  0  0
    8.3388  -16.6811   20.5235 O   0  0  0  0  0  0  0  0  0  0  0  0
    6.6198  -14.5002   23.0575 C   0  0  0  0  0  0  0  0  0  0  0  0
    6.8044  -14.0752   24.3625 C   0  0  0  0  0  0  0  0  0  0  0  0
    9.5614  -15.2074   21.8149 N   0  0  0  0  0  0  0  0  0  0  0  0
   10.2637  -16.3009   22.4146 C   0  0  1  0  0  0  0  0  0  0  0  0
   11.7707  -16.1236   22.3504 C   0  0  0  0  0  0  0  0  0  0  0  0
   12.4488  -17.3716   22.7662 C   0  0  0  0  0  0  0  0  0  0  0  0
   12.1317  -18.5234   22.4184 O   0  0  0  0  0  0  0  0  0  0  0  0
    9.8986  -16.3611   23.8575 C   0  0  0  0  0  0  0  0  0  0  0  0
    9.9357  -15.3584   24.6119 O   0  0  0  0  0  0  0  0  0  0  0  0
   13.5382  -17.2128   23.6256 O   0  0  0  0  0  0  0  0  0  0  0  0
    9.4989  -17.6269   24.3530 N   0  0  0  0  0  0  0  0  0  0  0  0
    9.1048  -17.8043   25.7867 C   0  0  1  0  0  0  0  0  0  0  0  0
    8.1158  -18.9271   25.7176 C   0  0  0  0  0  0  0  0  0  0  0  0
    7.5121  -19.4356   26.9579 C   0  0  0  0  0  0  0  0  0  0  0  0
    6.5861  -20.5503   26.7312 C   0  0  0  0  0  0  0  0  0  0  0  0
    6.2748  -21.3102   27.6861 O   0  0  0  0  0  0  0  0  0  0  0  0
   10.3443  -18.0376   26.4980 C   0  0  0  0  0  0  0  0  0  0  0  0
   11.3744  -18.4194   25.9017 O   0  0  0  0  0  0  0  0  0  0  0  0
    6.0318  -20.7990   25.4923 O   0  0  0  0  0  0  0  0  0  0  0  0
   10.4543  -17.8518   27.8600 O   0  0  0  0  0  0  0  0  0  0  0  0
  2  1  1  0
  2 12  2  0
  3  2  1  0
  4  3  2  0
  4  5  1  0
  5 11  2  0
  6  5  1  0
  7  6  1  0
  7  8  1  6
  9  7  1  0
 10  9  2  0
 11 12  1  0
 13  9  1  0
 14 13  1  0
 14 15  1  1
 16 15  1  0
 17 16  2  0
 18 14  1  0
 18 19  2  0
 20 16  1  0
 21 18  1  0
 22 21  1  0
 22 23  1  6
 23 24  1  0
 24 25  1  0
 25 29  1  0
 26 25  2  0
 27 22  1  0
 28 27  2  0
 30 27  1  0
M  END
$$$$
