YDE.pdb
     RDKit          3D

 30 30  0  0  1  0  0  0  0  0999 V2000
    1.7657  -24.0080   25.9319 O   0  0  0  0  0  0  0  0  0  0  0  0
    2.9752  -23.4831   25.4613 C   0  0  0  0  0  0  0  0  0  0  0  0
    4.1846  -24.0820   25.7283 C   0  0  0  0  0  0  0  0  0  0  0  0
    5.3384  -23.5166   25.2378 C   0  0  0  0  0  0  0  0  0  0  0  0
    5.3575  -22.3572   24.4751 C   0  0  0  0  0  0  0  0  0  0  0  0
    6.6478  -21.8041   23.9862 C   0  0  0  0  0  0  0  0  0  0  0  0
    6.6292  -21.8919   22.4677 C   0  0  2  0  0  0  0  0  0  0  0  0
    6.6171  -23.2933   22.0433 N   0  0  0  0  0  0  0  0  0  0  0  0
    7.9457  -21.3598   22.0243 C   0  0  0  0  0  0  0  0  0  0  0  0
    8.9787  -22.0589   21.8929 O   0  0  0  0  0  0  0  0  0  0  0  0
    4.1426  -21.7673   24.2144 C   0  0  0  0  0  0  0  0  0  0  0  0
    2.9688  -22.3197   24.6988 C   0  0  0  0  0  0  0  0  0  0  0  0
    8.0215  -19.9629   21.7341 N   0  0  0  0  0  0  0  0  0  0  0  0
    9.2485  -19.4401   21.2147 C   0  0  1  0  0  0  0  0  0  0  0  0
    9.0395  -18.1691   20.4100 C   0  0  0  0  0  0  0  0  0  0  0  0
    9.8200  -18.2271   19.1539 C   0  0  0  0  0  0  0  0  0  0  0  0
   11.0598  -18.1734   19.0639 O   0  0  0  0  0  0  0  0  0  0  0  0
   10.1314  -19.0836   22.3604 C   0  0  0  0  0  0  0  0  0  0  0  0
    9.6882  -18.6615   23.4563 O   0  0  0  0  0  0  0  0  0  0  0  0
    9.0730  -18.3534   17.9807 O   0  0  0  0  0  0  0  0  0  0  0  0
   11.5241  -19.2451   22.1552 N   0  0  0  0  0  0  0  0  0  0  0  0
   12.5082  -18.8776   23.2224 C   0  0  1  0  0  0  0  0  0  0  0  0
   13.7688  -19.5297   22.7434 C   0  0  0  0  0  0  0  0  0  0  0  0
   14.9895  -19.4267   23.5562 C   0  0  0  0  0  0  0  0  0  0  0  0
   16.1721  -19.9824   22.8897 C   0  0  0  0  0  0  0  0  0  0  0  0
   16.5349  -21.1625   23.1387 O   0  0  0  0  0  0  0  0  0  0  0  0
   12.4780  -17.4314   23.2889 C   0  0  0  0  0  0  0  0  0  0  0  0
   12.5599  -16.8288   24.3810 O   0  0  0  0  0  0  0  0  0  0  0  0
   16.9111  -19.2503   21.9831 O   0  0  0  0  0  0  0  0  0  0  0  0
   12.3592  -16.6477   22.1605 O   0  0  0  0  0  0  0  0  0  0  0  0
  2  1  1  0
  2 12  2  0
  3  2  1  0
  4  3  2  0
  4  5  1  0
  5 11  2  0
  6  5  1  0
  7  6  1  0
  7  8  1  1
  9  7  1  0
 10  9  2  0
 11 12  1  0
 13  9  1  0
 14 13  1  0
 14 15  1  1
 16 15  1  0
 17 16  2  0
 18 14  1  0
 18 19  2  0
 20 16  1  0
 21 18  1  0
 22 21  1  0
 22 23  1  6
 23 24  1  0
 24 25  1  0
 25 29  1  0
 26 25  2  0
 27 22  1  0
 28 27  2  0
 30 27  1  0
M  END
$$$$
