YDE.pdb
     RDKit          3D

 30 30  0  0  1  0  0  0  0  0999 V2000
    5.7064  -10.5614   26.8833 O   0  0  0  0  0  0  0  0  0  0  0  0
    6.2077  -11.8362   26.5945 C   0  0  0  0  0  0  0  0  0  0  0  0
    5.5859  -12.6815   25.7048 C   0  0  0  0  0  0  0  0  0  0  0  0
    6.1280  -13.9224   25.4642 C   0  0  0  0  0  0  0  0  0  0  0  0
    7.2862  -14.3824   26.0752 C   0  0  0  0  0  0  0  0  0  0  0  0
    7.8064  -15.7404   25.7669 C   0  0  0  0  0  0  0  0  0  0  0  0
    7.2502  -16.1383   24.4082 C   0  0  2  0  0  0  0  0  0  0  0  0
    6.1685  -17.1116   24.5709 N   0  0  0  0  0  0  0  0  0  0  0  0
    8.3479  -16.8818   23.7335 C   0  0  0  0  0  0  0  0  0  0  0  0
    8.6706  -18.0621   24.0087 O   0  0  0  0  0  0  0  0  0  0  0  0
    7.8994  -13.5288   26.9625 C   0  0  0  0  0  0  0  0  0  0  0  0
    7.3703  -12.2751   27.2196 C   0  0  0  0  0  0  0  0  0  0  0  0
    9.0701  -16.1943   22.7103 N   0  0  0  0  0  0  0  0  0  0  0  0
   10.3055  -16.7546   22.2538 C   0  0  1  0  0  0  0  0  0  0  0  0
   10.8472  -16.0371   21.0297 C   0  0  0  0  0  0  0  0  0  0  0  0
   11.8607  -16.8771   20.3535 C   0  0  0  0  0  0  0  0  0  0  0  0
   12.0557  -18.0889   20.5574 O   0  0  0  0  0  0  0  0  0  0  0  0
   11.3221  -16.5951   23.3309 C   0  0  0  0  0  0  0  0  0  0  0  0
   11.6118  -15.4824   23.8347 O   0  0  0  0  0  0  0  0  0  0  0  0
   12.6550  -16.2259   19.4071 O   0  0  0  0  0  0  0  0  0  0  0  0
   11.9623  -17.7796   23.7720 N   0  0  0  0  0  0  0  0  0  0  0  0
   12.9228  -17.7550   24.9205 C   0  0  1  0  0  0  0  0  0  0  0  0
   12.2521  -18.6387   25.9270 C   0  0  0  0  0  0  0  0  0  0  0  0
   12.9774  -19.0258   27.1458 C   0  0  0  0  0  0  0  0  0  0  0  0
   12.1917  -19.8920   28.0311 C   0  0  0  0  0  0  0  0  0  0  0  0
   12.1468  -21.1322   27.8159 O   0  0  0  0  0  0  0  0  0  0  0  0
   14.1880  -18.1952   24.3706 C   0  0  0  0  0  0  0  0  0  0  0  0
   15.2751  -17.7791   24.8261 O   0  0  0  0  0  0  0  0  0  0  0  0
   11.4922  -19.3916   29.1102 O   0  0  0  0  0  0  0  0  0  0  0  0
   14.2609  -19.0903   23.3241 O   0  0  0  0  0  0  0  0  0  0  0  0
  2  1  1  0
  2 12  2  0
  3  2  1  0
  4  3  2  0
  4  5  1  0
  5 11  2  0
  6  5  1  0
  7  6  1  0
  7  8  1  1
  9  7  1  0
 10  9  2  0
 11 12  1  0
 13  9  1  0
 14 13  1  0
 14 15  1  6
 16 15  1  0
 17 16  2  0
 18 14  1  0
 18 19  2  0
 20 16  1  0
 21 18  1  0
 22 21  1  0
 22 23  1  1
 23 24  1  0
 24 25  1  0
 25 29  1  0
 26 25  2  0
 27 22  1  0
 28 27  2  0
 30 27  1  0
M  END
$$$$
