YDE.pdb
     RDKit          3D

 30 30  0  0  1  0  0  0  0  0999 V2000
    6.5278  -12.0729   18.8538 O   0  0  0  0  0  0  0  0  0  0  0  0
    7.3607  -12.9239   19.5900 C   0  0  0  0  0  0  0  0  0  0  0  0
    6.9031  -13.6348   20.6753 C   0  0  0  0  0  0  0  0  0  0  0  0
    7.7716  -14.4541   21.3580 C   0  0  0  0  0  0  0  0  0  0  0  0
    9.1065  -14.6109   21.0120 C   0  0  0  0  0  0  0  0  0  0  0  0
    9.9843  -15.5116   21.8044 C   0  0  0  0  0  0  0  0  0  0  0  0
   10.1790  -16.7818   20.9904 C   0  0  2  0  0  0  0  0  0  0  0  0
    9.0545  -17.6951   21.2035 N   0  0  0  0  0  0  0  0  0  0  0  0
   11.3560  -17.4622   21.5941 C   0  0  0  0  0  0  0  0  0  0  0  0
   11.2801  -18.3327   22.4939 O   0  0  0  0  0  0  0  0  0  0  0  0
    9.5528  -13.8955   19.9252 C   0  0  0  0  0  0  0  0  0  0  0  0
    8.6953  -13.0646   19.2238 C   0  0  0  0  0  0  0  0  0  0  0  0
   12.6467  -17.0896   21.1077 N   0  0  0  0  0  0  0  0  0  0  0  0
   13.7907  -17.7946   21.6003 C   0  0  1  0  0  0  0  0  0  0  0  0
   15.0738  -17.3670   20.9092 C   0  0  0  0  0  0  0  0  0  0  0  0
   16.1849  -18.2644   21.2970 C   0  0  0  0  0  0  0  0  0  0  0  0
   17.3792  -17.9358   21.4146 O   0  0  0  0  0  0  0  0  0  0  0  0
   13.9541  -17.4761   23.0463 C   0  0  0  0  0  0  0  0  0  0  0  0
   13.8425  -16.3127   23.5043 O   0  0  0  0  0  0  0  0  0  0  0  0
   15.8330  -19.5927   21.5470 O   0  0  0  0  0  0  0  0  0  0  0  0
   14.2475  -18.5671   23.9014 N   0  0  0  0  0  0  0  0  0  0  0  0
   14.3566  -18.3778   25.3829 C   0  0  1  0  0  0  0  0  0  0  0  0
   13.1495  -19.1019   25.8949 C   0  0  0  0  0  0  0  0  0  0  0  0
   12.2557  -18.4311   26.8502 C   0  0  0  0  0  0  0  0  0  0  0  0
   11.4423  -19.3686   27.6317 C   0  0  0  0  0  0  0  0  0  0  0  0
   11.5070  -20.6036   27.3933 O   0  0  0  0  0  0  0  0  0  0  0  0
   15.6597  -18.8985   25.7401 C   0  0  0  0  0  0  0  0  0  0  0  0
   16.0843  -18.8390   26.9142 O   0  0  0  0  0  0  0  0  0  0  0  0
   10.5987  -18.9417   28.6368 O   0  0  0  0  0  0  0  0  0  0  0  0
   16.4950  -19.4840   24.8121 O   0  0  0  0  0  0  0  0  0  0  0  0
  2  1  1  0
  2 12  2  0
  3  2  1  0
  4  3  2  0
  4  5  1  0
  5 11  2  0
  6  5  1  0
  7  6  1  0
  7  8  1  1
  9  7  1  0
 10  9  2  0
 11 12  1  0
 13  9  1  0
 14 13  1  0
 14 15  1  6
 16 15  1  0
 17 16  2  0
 18 14  1  0
 18 19  2  0
 20 16  1  0
 21 18  1  0
 22 21  1  0
 22 23  1  1
 23 24  1  0
 24 25  1  0
 25 29  1  0
 26 25  2  0
 27 22  1  0
 28 27  2  0
 30 27  1  0
M  END
$$$$
