YDE.pdb
     RDKit          3D

 30 30  0  0  1  0  0  0  0  0999 V2000
    8.2010  -12.8371   17.4204 O   0  0  0  0  0  0  0  0  0  0  0  0
    8.0412  -13.3685   18.7057 C   0  0  0  0  0  0  0  0  0  0  0  0
    8.8986  -14.3153   19.2166 C   0  0  0  0  0  0  0  0  0  0  0  0
    8.6875  -14.7989   20.4868 C   0  0  0  0  0  0  0  0  0  0  0  0
    7.6432  -14.3816   21.3001 C   0  0  0  0  0  0  0  0  0  0  0  0
    7.4782  -14.9571   22.6607 C   0  0  0  0  0  0  0  0  0  0  0  0
    6.7784  -16.2983   22.5009 C   0  0  2  0  0  0  0  0  0  0  0  0
    5.3533  -16.0953   22.2330 N   0  0  0  0  0  0  0  0  0  0  0  0
    6.8375  -16.9380   23.8426 C   0  0  0  0  0  0  0  0  0  0  0  0
    6.1358  -16.5863   24.8209 O   0  0  0  0  0  0  0  0  0  0  0  0
    6.7926  -13.4346   20.7790 C   0  0  0  0  0  0  0  0  0  0  0  0
    6.9866  -12.9345   19.5023 C   0  0  0  0  0  0  0  0  0  0  0  0
    7.7562  -18.0191   24.0111 N   0  0  0  0  0  0  0  0  0  0  0  0
    8.0777  -18.4397   25.3409 C   0  0  1  0  0  0  0  0  0  0  0  0
    7.1885  -19.5749   25.8179 C   0  0  0  0  0  0  0  0  0  0  0  0
    7.6349  -20.0477   27.1473 C   0  0  0  0  0  0  0  0  0  0  0  0
    7.7873  -21.2356   27.4843 O   0  0  0  0  0  0  0  0  0  0  0  0
    9.4750  -18.9560   25.3471 C   0  0  0  0  0  0  0  0  0  0  0  0
    9.7836  -20.0915   24.9100 O   0  0  0  0  0  0  0  0  0  0  0  0
    7.9016  -19.0503   28.0879 O   0  0  0  0  0  0  0  0  0  0  0  0
   10.4628  -18.0909   25.8797 N   0  0  0  0  0  0  0  0  0  0  0  0
   11.9003  -18.5062   25.9394 C   0  0  1  0  0  0  0  0  0  0  0  0
   12.5956  -17.3795   25.2390 C   0  0  0  0  0  0  0  0  0  0  0  0
   13.8947  -17.6212   24.5945 C   0  0  0  0  0  0  0  0  0  0  0  0
   14.4041  -16.4509   23.8718 C   0  0  0  0  0  0  0  0  0  0  0  0
   14.3641  -16.4254   22.6132 O   0  0  0  0  0  0  0  0  0  0  0  0
   12.1827  -18.7057   27.3455 C   0  0  0  0  0  0  0  0  0  0  0  0
   11.4278  -18.2500   28.2315 O   0  0  0  0  0  0  0  0  0  0  0  0
   14.9303  -15.3581   24.5299 O   0  0  0  0  0  0  0  0  0  0  0  0
   13.2899  -19.4040   27.7792 O   0  0  0  0  0  0  0  0  0  0  0  0
  2  1  1  0
  2 12  2  0
  3  2  1  0
  4  3  2  0
  4  5  1  0
  5 11  2  0
  6  5  1  0
  7  6  1  0
  7  8  1  1
  9  7  1  0
 10  9  2  0
 11 12  1  0
 13  9  1  0
 14 13  1  0
 14 15  1  6
 16 15  1  0
 17 16  2  0
 18 14  1  0
 18 19  2  0
 20 16  1  0
 21 18  1  0
 22 21  1  0
 22 23  1  1
 23 24  1  0
 24 25  1  0
 25 29  1  0
 26 25  2  0
 27 22  1  0
 28 27  2  0
 30 27  1  0
M  END
$$$$
