CQA.pdb
     RDKit          3D

 21 20  0  0  1  0  0  0  0  0999 V2000
    7.5096  -14.9345   19.4374 N   0  0  0  0  0  0  0  0  0  0  0  0
    7.9281  -14.5162   20.7431 C   0  0  1  0  0  0  0  0  0  0  0  0
    6.7678  -13.9394   21.5492 C   0  0  0  0  0  0  0  0  0  0  0  0
    7.2627  -13.5796   23.2459 S   0  0  0  0  0  0  0  0  0  0  0  0
    8.4332  -15.6951   21.5339 C   0  0  0  0  0  0  0  0  0  0  0  0
    7.7587  -16.7544   21.5932 O   0  0  0  0  0  0  0  0  0  0  0  0
   13.4687  -19.5343   24.4655 N   0  0  0  0  0  0  0  0  0  0  0  0
   13.3840  -18.4661   23.5464 C   0  0  0  0  0  0  0  0  0  0  0  0
   14.3499  -17.6875   23.4206 O   0  0  0  0  0  0  0  0  0  0  0  0
   12.1148  -18.3139   22.7499 C   0  0  0  0  0  0  0  0  0  0  0  0
   11.6425  -16.8982   22.7610 C   0  0  0  0  0  0  0  0  0  0  0  0
   10.1551  -16.8117   22.9402 C   0  0  2  0  0  0  0  0  0  0  0  0
    9.6556  -15.6513   22.2209 N   0  0  0  0  0  0  0  0  0  0  0  0
    9.7047  -16.8393   24.3273 C   0  0  0  0  0  0  0  0  0  0  0  0
    9.7696  -15.8002   25.0229 O   0  0  0  0  0  0  0  0  0  0  0  0
    7.3507  -18.3936   26.4962 C   0  0  0  0  0  0  0  0  0  0  0  0
    8.7912  -17.9522   26.3407 C   0  0  2  0  0  0  0  0  0  0  0  0
    9.1796  -18.0206   24.9504 N   0  0  0  0  0  0  0  0  0  0  0  0
    9.6558  -18.7711   27.2101 C   0  0  0  0  0  0  0  0  0  0  0  0
    9.5622  -18.7520   28.5889 O   0  0  0  0  0  0  0  0  0  0  0  0
   10.5128  -19.5173   26.6846 O   0  0  0  0  0  0  0  0  0  0  0  0
  2  1  1  6
  2  5  1  0
  3  2  1  0
  4  3  1  0
  5  6  2  0
  7  8  1  0
  8  9  2  0
  8 10  1  0
 10 11  1  0
 12 11  1  1
 12 14  1  0
 13 12  1  0
 13  5  1  0
 14 15  2  0
 14 18  1  0
 17 16  1  6
 18 17  1  0
 19 17  1  0
 19 20  1  0
 21 19  2  0
M  END
$$$$
