CQA.pdb
     RDKit          3D

 21 20  0  0  1  0  0  0  0  0999 V2000
    4.8098  -13.4995   26.1473 N   0  0  0  0  0  0  0  0  0  0  0  0
    5.9845  -13.2445   25.3664 C   0  0  1  0  0  0  0  0  0  0  0  0
    6.7467  -12.0248   25.8764 C   0  0  0  0  0  0  0  0  0  0  0  0
    5.6874  -10.5662   25.9341 S   0  0  0  0  0  0  0  0  0  0  0  0
    6.9433  -14.4021   25.4694 C   0  0  0  0  0  0  0  0  0  0  0  0
    6.9831  -15.1013   26.5134 O   0  0  0  0  0  0  0  0  0  0  0  0
   10.6300  -17.5546   21.2741 N   0  0  0  0  0  0  0  0  0  0  0  0
   10.9877  -16.2206   21.5668 C   0  0  0  0  0  0  0  0  0  0  0  0
   11.9787  -15.7141   21.0045 O   0  0  0  0  0  0  0  0  0  0  0  0
   10.1451  -15.4610   22.5575 C   0  0  0  0  0  0  0  0  0  0  0  0
    9.0549  -16.3215   23.1037 C   0  0  0  0  0  0  0  0  0  0  0  0
    8.6661  -15.9082   24.4929 C   0  0  2  0  0  0  0  0  0  0  0  0
    7.8118  -14.7342   24.4187 N   0  0  0  0  0  0  0  0  0  0  0  0
    9.7850  -15.7215   25.4099 C   0  0  0  0  0  0  0  0  0  0  0  0
   10.5701  -14.7601   25.2454 O   0  0  0  0  0  0  0  0  0  0  0  0
   10.3554  -14.9395   28.2507 C   0  0  0  0  0  0  0  0  0  0  0  0
   10.9340  -16.1562   27.5589 C   0  0  2  0  0  0  0  0  0  0  0  0
   10.0389  -16.6011   26.5151 N   0  0  0  0  0  0  0  0  0  0  0  0
   11.2075  -17.2081   28.5553 C   0  0  0  0  0  0  0  0  0  0  0  0
   10.6839  -18.4834   28.4587 O   0  0  0  0  0  0  0  0  0  0  0  0
   11.9440  -16.9423   29.5321 O   0  0  0  0  0  0  0  0  0  0  0  0
  2  1  1  1
  2  5  1  0
  3  2  1  0
  4  3  1  0
  5  6  2  0
  7  8  1  0
  8  9  2  0
  8 10  1  0
 10 11  1  0
 12 11  1  6
 12 14  1  0
 13 12  1  0
 13  5  1  0
 14 15  2  0
 14 18  1  0
 17 16  1  1
 18 17  1  0
 19 17  1  0
 19 20  1  0
 21 19  2  0
M  END
$$$$
