CQA.pdb
     RDKit          3D

 21 20  0  0  1  0  0  0  0  0999 V2000
    5.8329  -16.5589   24.9662 N   0  0  0  0  0  0  0  0  0  0  0  0
    6.6146  -15.5254   24.3533 C   0  0  1  0  0  0  0  0  0  0  0  0
    7.7729  -15.0899   25.2464 C   0  0  0  0  0  0  0  0  0  0  0  0
    7.3230  -13.6645   26.2558 S   0  0  0  0  0  0  0  0  0  0  0  0
    7.2431  -16.0294   23.0801 C   0  0  0  0  0  0  0  0  0  0  0  0
    7.5867  -17.2343   22.9766 O   0  0  0  0  0  0  0  0  0  0  0  0
    7.9133  -12.8046   17.6962 N   0  0  0  0  0  0  0  0  0  0  0  0
    8.3987  -14.0773   17.3252 C   0  0  0  0  0  0  0  0  0  0  0  0
    8.6969  -14.2966   16.1345 O   0  0  0  0  0  0  0  0  0  0  0  0
    8.5360  -15.1251   18.3985 C   0  0  0  0  0  0  0  0  0  0  0  0
    7.9698  -14.6431   19.6925 C   0  0  0  0  0  0  0  0  0  0  0  0
    8.1117  -15.6709   20.7765 C   0  0  2  0  0  0  0  0  0  0  0  0
    7.4632  -15.1833   21.9828 N   0  0  0  0  0  0  0  0  0  0  0  0
    9.4797  -16.1127   21.0235 C   0  0  0  0  0  0  0  0  0  0  0  0
   10.2501  -15.3990   21.7054 O   0  0  0  0  0  0  0  0  0  0  0  0
   11.5611  -19.1744   20.8441 C   0  0  0  0  0  0  0  0  0  0  0  0
   11.3859  -17.6717   20.7718 C   0  0  2  0  0  0  0  0  0  0  0  0
   10.0007  -17.3495   20.5150 N   0  0  0  0  0  0  0  0  0  0  0  0
   12.2939  -17.1166   19.7512 C   0  0  0  0  0  0  0  0  0  0  0  0
   11.8468  -16.6357   18.5351 O   0  0  0  0  0  0  0  0  0  0  0  0
   13.5223  -17.0759   19.9892 O   0  0  0  0  0  0  0  0  0  0  0  0
  2  1  1  1
  2  5  1  0
  3  2  1  0
  4  3  1  0
  5  6  2  0
  7  8  1  0
  8  9  2  0
  8 10  1  0
 10 11  1  0
 12 11  1  6
 12 14  1  0
 13 12  1  0
 13  5  1  0
 14 15  2  0
 14 18  1  0
 17 16  1  6
 18 17  1  0
 19 17  1  0
 19 20  1  0
 21 19  2  0
M  END
$$$$
