CQA.pdb
     RDKit          3D

 21 20  0  0  1  0  0  0  0  0999 V2000
    7.6134  -13.9919   17.9682 N   0  0  0  0  0  0  0  0  0  0  0  0
    8.7534  -14.0831   18.8325 C   0  0  1  0  0  0  0  0  0  0  0  0
    9.3368  -12.7076   19.1433 C   0  0  0  0  0  0  0  0  0  0  0  0
    8.0886  -11.6079   19.8401 S   0  0  0  0  0  0  0  0  0  0  0  0
    8.3574  -14.6724   20.1614 C   0  0  0  0  0  0  0  0  0  0  0  0
    7.1608  -14.6254   20.5443 O   0  0  0  0  0  0  0  0  0  0  0  0
   10.6429  -19.7894   22.2869 N   0  0  0  0  0  0  0  0  0  0  0  0
   11.5382  -18.6988   22.3330 C   0  0  0  0  0  0  0  0  0  0  0  0
   12.7649  -18.9147   22.3909 O   0  0  0  0  0  0  0  0  0  0  0  0
   10.9631  -17.3070   22.3099 C   0  0  0  0  0  0  0  0  0  0  0  0
    9.4729  -17.3448   22.2368 C   0  0  0  0  0  0  0  0  0  0  0  0
    8.8837  -15.9648   22.2210 C   0  0  2  0  0  0  0  0  0  0  0  0
    9.2969  -15.2846   21.0045 N   0  0  0  0  0  0  0  0  0  0  0  0
    9.1518  -15.1729   23.4163 C   0  0  0  0  0  0  0  0  0  0  0  0
   10.2100  -14.5086   23.4978 O   0  0  0  0  0  0  0  0  0  0  0  0
    7.3744  -13.3428   25.9342 C   0  0  0  0  0  0  0  0  0  0  0  0
    8.5623  -14.2311   25.6283 C   0  0  2  0  0  0  0  0  0  0  0  0
    8.2466  -15.1138   24.5284 N   0  0  0  0  0  0  0  0  0  0  0  0
    8.9583  -14.9636   26.8452 C   0  0  0  0  0  0  0  0  0  0  0  0
    9.4294  -14.3295   27.9792 O   0  0  0  0  0  0  0  0  0  0  0  0
    8.8666  -16.2120   26.8591 O   0  0  0  0  0  0  0  0  0  0  0  0
  2  1  1  6
  2  5  1  0
  3  2  1  0
  4  3  1  0
  5  6  2  0
  7  8  1  0
  8  9  2  0
  8 10  1  0
 10 11  1  0
 12 11  1  1
 12 14  1  0
 13 12  1  0
 13  5  1  0
 14 15  2  0
 14 18  1  0
 17 16  1  1
 18 17  1  0
 19 17  1  0
 19 20  1  0
 21 19  2  0
M  END
$$$$
