CQA.pdb
     RDKit          3D

 21 20  0  0  1  0  0  0  0  0999 V2000
    7.3413  -15.8314   18.9190 N   0  0  0  0  0  0  0  0  0  0  0  0
    8.0160  -14.8692   19.7399 C   0  0  1  0  0  0  0  0  0  0  0  0
    7.5565  -13.4464   19.4344 C   0  0  0  0  0  0  0  0  0  0  0  0
    8.3046  -12.2581   20.5663 S   0  0  0  0  0  0  0  0  0  0  0  0
    7.6941  -15.1029   21.1931 C   0  0  0  0  0  0  0  0  0  0  0  0
    6.5220  -15.3918   21.5442 O   0  0  0  0  0  0  0  0  0  0  0  0
   10.2108  -19.0476   24.9817 N   0  0  0  0  0  0  0  0  0  0  0  0
   10.0344  -17.9423   25.8420 C   0  0  0  0  0  0  0  0  0  0  0  0
   10.6666  -17.8941   26.9158 O   0  0  0  0  0  0  0  0  0  0  0  0
    9.0787  -16.8582   25.4179 C   0  0  0  0  0  0  0  0  0  0  0  0
    9.3390  -16.4359   24.0104 C   0  0  0  0  0  0  0  0  0  0  0  0
    8.3864  -15.3639   23.5684 C   0  0  2  0  0  0  0  0  0  0  0  0
    8.6773  -15.0075   22.1894 N   0  0  0  0  0  0  0  0  0  0  0  0
    8.3324  -14.1971   24.4421 C   0  0  0  0  0  0  0  0  0  0  0  0
    9.3703  -13.5290   24.6522 O   0  0  0  0  0  0  0  0  0  0  0  0
    5.7952  -12.0972   26.2374 C   0  0  0  0  0  0  0  0  0  0  0  0
    7.1895  -12.6296   25.9796 C   0  0  2  0  0  0  0  0  0  0  0  0
    7.1257  -13.7650   25.0878 N   0  0  0  0  0  0  0  0  0  0  0  0
    7.8398  -12.9544   27.2625 C   0  0  0  0  0  0  0  0  0  0  0  0
    8.2911  -14.2236   27.5714 O   0  0  0  0  0  0  0  0  0  0  0  0
    7.9930  -12.0479   28.1121 O   0  0  0  0  0  0  0  0  0  0  0  0
  2  1  1  6
  2  5  1  0
  3  2  1  0
  4  3  1  0
  5  6  2  0
  7  8  1  0
  8  9  2  0
  8 10  1  0
 10 11  1  0
 12 11  1  1
 12 14  1  0
 13 12  1  0
 13  5  1  0
 14 15  2  0
 14 18  1  0
 17 16  1  1
 18 17  1  0
 19 17  1  0
 19 20  1  0
 21 19  2  0
M  END
$$$$
