CQA.pdb
     RDKit          3D

 21 20  0  0  1  0  0  0  0  0999 V2000
    6.6069  -15.0095   19.5171 N   0  0  0  0  0  0  0  0  0  0  0  0
    7.6539  -14.5583   20.3861 C   0  0  1  0  0  0  0  0  0  0  0  0
    7.8539  -13.0483   20.2912 C   0  0  0  0  0  0  0  0  0  0  0  0
    8.6434  -12.5876   18.7364 S   0  0  0  0  0  0  0  0  0  0  0  0
    7.2982  -14.8371   21.8234 C   0  0  0  0  0  0  0  0  0  0  0  0
    6.1663  -14.5201   22.2692 O   0  0  0  0  0  0  0  0  0  0  0  0
    8.4839  -19.9154   26.0202 N   0  0  0  0  0  0  0  0  0  0  0  0
    7.3058  -19.2403   25.6335 C   0  0  0  0  0  0  0  0  0  0  0  0
    6.2755  -19.8977   25.3864 O   0  0  0  0  0  0  0  0  0  0  0  0
    7.3483  -17.7379   25.5361 C   0  0  0  0  0  0  0  0  0  0  0  0
    7.6771  -17.3007   24.1475 C   0  0  0  0  0  0  0  0  0  0  0  0
    7.8154  -15.8095   24.0542 C   0  0  2  0  0  0  0  0  0  0  0  0
    8.2051  -15.4512   22.7002 N   0  0  0  0  0  0  0  0  0  0  0  0
    8.6901  -15.2136   25.0579 C   0  0  0  0  0  0  0  0  0  0  0  0
    9.9323  -15.3218   24.9434 O   0  0  0  0  0  0  0  0  0  0  0  0
    8.6488  -12.7788   27.8448 C   0  0  0  0  0  0  0  0  0  0  0  0
    9.1303  -14.0649   27.2059 C   0  0  2  0  0  0  0  0  0  0  0  0
    8.1911  -14.4938   26.1948 N   0  0  0  0  0  0  0  0  0  0  0  0
    9.3436  -15.0853   28.2487 C   0  0  0  0  0  0  0  0  0  0  0  0
   10.2813  -14.9422   29.2538 O   0  0  0  0  0  0  0  0  0  0  0  0
    8.6501  -16.1274   28.2291 O   0  0  0  0  0  0  0  0  0  0  0  0
  2  1  1  6
  2  5  1  0
  3  2  1  0
  4  3  1  0
  5  6  2  0
  7  8  1  0
  8  9  2  0
  8 10  1  0
 10 11  1  0
 12 11  1  6
 12 14  1  0
 13 12  1  0
 13  5  1  0
 14 15  2  0
 14 18  1  0
 17 16  1  1
 18 17  1  0
 19 17  1  0
 19 20  1  0
 21 19  2  0
M  END
$$$$
