CQA.pdb
     RDKit          3D

 21 20  0  0  1  0  0  0  0  0999 V2000
    5.1615  -15.0125   25.4227 N   0  0  0  0  0  0  0  0  0  0  0  0
    6.3066  -14.2264   25.0682 C   0  0  1  0  0  0  0  0  0  0  0  0
    6.5744  -13.1268   26.0919 C   0  0  0  0  0  0  0  0  0  0  0  0
    5.2289  -11.9264   26.1324 S   0  0  0  0  0  0  0  0  0  0  0  0
    7.5454  -15.0837   25.0509 C   0  0  0  0  0  0  0  0  0  0  0  0
    7.5871  -16.1509   25.7141 O   0  0  0  0  0  0  0  0  0  0  0  0
    9.2202  -17.7414   20.8243 N   0  0  0  0  0  0  0  0  0  0  0  0
   10.2114  -16.7630   21.0549 C   0  0  0  0  0  0  0  0  0  0  0  0
   11.3812  -16.9748   20.6786 O   0  0  0  0  0  0  0  0  0  0  0  0
    9.8052  -15.4921   21.7538 C   0  0  0  0  0  0  0  0  0  0  0  0
   10.6162  -15.2774   22.9881 C   0  0  0  0  0  0  0  0  0  0  0  0
    9.8352  -15.6020   24.2276 C   0  0  2  0  0  0  0  0  0  0  0  0
    8.6782  -14.7252   24.3047 N   0  0  0  0  0  0  0  0  0  0  0  0
   10.6160  -15.5977   25.4597 C   0  0  0  0  0  0  0  0  0  0  0  0
   11.7062  -16.2118   25.5073 O   0  0  0  0  0  0  0  0  0  0  0  0
   10.6384  -13.9134   28.8092 C   0  0  0  0  0  0  0  0  0  0  0  0
   11.0157  -15.0053   27.8296 C   0  0  2  0  0  0  0  0  0  0  0  0
   10.1912  -14.9115   26.6464 N   0  0  0  0  0  0  0  0  0  0  0  0
   10.9100  -16.3196   28.4895 C   0  0  0  0  0  0  0  0  0  0  0  0
   10.0965  -17.3310   28.0147 O   0  0  0  0  0  0  0  0  0  0  0  0
   11.5822  -16.5358   29.5232 O   0  0  0  0  0  0  0  0  0  0  0  0
  2  1  1  1
  2  5  1  0
  3  2  1  0
  4  3  1  0
  5  6  2  0
  7  8  1  0
  8  9  2  0
  8 10  1  0
 10 11  1  0
 12 11  1  6
 12 14  1  0
 13 12  1  0
 13  5  1  0
 14 15  2  0
 14 18  1  0
 17 16  1  1
 18 17  1  0
 19 17  1  0
 19 20  1  0
 21 19  2  0
M  END
$$$$
