CQA.pdb
     RDKit          3D

 21 20  0  0  1  0  0  0  0  0999 V2000
    8.1392  -14.2644   16.5239 N   0  0  0  0  0  0  0  0  0  0  0  0
    8.7043  -13.6883   17.7086 C   0  0  1  0  0  0  0  0  0  0  0  0
    7.6790  -13.5963   18.8352 C   0  0  0  0  0  0  0  0  0  0  0  0
    8.1782  -12.3898   20.0795 S   0  0  0  0  0  0  0  0  0  0  0  0
    9.8169  -14.5577   18.2343 C   0  0  0  0  0  0  0  0  0  0  0  0
    9.7248  -15.8101   18.1748 O   0  0  0  0  0  0  0  0  0  0  0  0
   15.6585  -13.5565   17.4047 N   0  0  0  0  0  0  0  0  0  0  0  0
   15.7740  -14.6676   18.2680 C   0  0  0  0  0  0  0  0  0  0  0  0
   16.8946  -15.1785   18.4632 O   0  0  0  0  0  0  0  0  0  0  0  0
   14.5224  -15.1913   18.9219 C   0  0  0  0  0  0  0  0  0  0  0  0
   13.3630  -14.2893   18.6580 C   0  0  0  0  0  0  0  0  0  0  0  0
   12.0863  -14.8518   19.2106 C   0  0  2  0  0  0  0  0  0  0  0  0
   10.9767  -14.0070   18.7999 N   0  0  0  0  0  0  0  0  0  0  0  0
   12.0969  -15.0909   20.6495 C   0  0  0  0  0  0  0  0  0  0  0  0
   12.2405  -14.1295   21.4386 O   0  0  0  0  0  0  0  0  0  0  0  0
   11.2936  -17.8154   23.0753 C   0  0  0  0  0  0  0  0  0  0  0  0
   11.9792  -16.5304   22.6598 C   0  0  2  0  0  0  0  0  0  0  0  0
   11.9482  -16.3990   21.2209 N   0  0  0  0  0  0  0  0  0  0  0  0
   13.3509  -16.5047   23.2002 C   0  0  0  0  0  0  0  0  0  0  0  0
   14.4726  -16.5213   22.3932 O   0  0  0  0  0  0  0  0  0  0  0  0
   13.5139  -16.4663   24.4408 O   0  0  0  0  0  0  0  0  0  0  0  0
  2  1  1  6
  2  5  1  0
  3  2  1  0
  4  3  1  0
  5  6  2  0
  7  8  1  0
  8  9  2  0
  8 10  1  0
 10 11  1  0
 12 11  1  1
 12 14  1  0
 13 12  1  0
 13  5  1  0
 14 15  2  0
 14 18  1  0
 17 16  1  6
 18 17  1  0
 19 17  1  0
 19 20  1  0
 21 19  2  0
M  END
$$$$
