GWH.pdb
     RDKit          3D

 29 31  0  0  1  0  0  0  0  0999 V2000
   22.1419  -16.4557  -16.8283 N   0  0  0  0  0  0  0  0  0  0  0  0
   22.5755  -17.4856  -15.9129 C   0  0  0  0  0  0  0  0  0  0  0  0
   22.0711  -18.8017  -16.3867 C   0  0  0  0  0  0  0  0  0  0  0  0
   21.2809  -18.8638  -17.3876 O   0  0  0  0  0  0  0  0  0  0  0  0
   22.4178  -20.0329  -15.7852 N   0  0  0  0  0  0  0  0  0  0  0  0
   21.8218  -21.2962  -16.1718 C   0  0  1  0  0  0  0  0  0  0  0  0
   22.8757  -22.3313  -16.5004 C   0  0  0  0  0  0  0  0  0  0  0  0
   23.5494  -22.1027  -17.7795 C   0  0  0  0  0  0  0  0  0  0  0  0
   24.4108  -21.0899  -18.1287 C   0  0  0  0  0  0  0  0  0  0  0  0
   24.8092  -21.2450  -19.4032 N   0  0  0  0  0  0  0  0  0  0  0  0
   24.2130  -22.3508  -19.8841 C   0  0  0  0  0  0  0  0  0  0  0  0
   24.2523  -22.9892  -21.1248 C   0  0  0  0  0  0  0  0  0  0  0  0
   23.5373  -24.1382  -21.3874 C   0  0  0  0  0  0  0  0  0  0  0  0
   22.7519  -24.6715  -20.3720 C   0  0  0  0  0  0  0  0  0  0  0  0
   22.6890  -24.0756  -19.1483 C   0  0  0  0  0  0  0  0  0  0  0  0
   23.4151  -22.9202  -18.9024 C   0  0  0  0  0  0  0  0  0  0  0  0
   20.9981  -21.8468  -15.0619 C   0  0  0  0  0  0  0  0  0  0  0  0
   21.1329  -21.3659  -13.9144 O   0  0  0  0  0  0  0  0  0  0  0  0
   20.0780  -22.8892  -15.2746 N   0  0  0  0  0  0  0  0  0  0  0  0
   19.1303  -23.3746  -14.2471 C   0  0  1  0  0  0  0  0  0  0  0  0
   18.0851  -22.3451  -13.9644 C   0  0  0  0  0  0  0  0  0  0  0  0
   17.0658  -22.8858  -13.0418 C   0  0  0  0  0  0  0  0  0  0  0  0
   17.0284  -24.0787  -12.3885 C   0  0  0  0  0  0  0  0  0  0  0  0
   15.9420  -24.1364  -11.5686 N   0  0  0  0  0  0  0  0  0  0  0  0
   15.3015  -22.9821  -11.7070 C   0  0  0  0  0  0  0  0  0  0  0  0
   15.9566  -22.2184  -12.5834 N   0  0  0  0  0  0  0  0  0  0  0  0
   18.4117  -24.5467  -14.8811 C   0  0  0  0  0  0  0  0  0  0  0  0
   18.0235  -25.6279  -14.0618 O   0  0  0  0  0  0  0  0  0  0  0  0
   18.1225  -24.6564  -16.0714 O   0  0  0  0  0  0  0  0  0  0  0  0
  1  2  1  0
  2  3  1  0
  3  4  2  0
  5  3  1  0
  5  6  1  0
  6 17  1  0
  6  7  1  1
  8  7  1  0
  9  8  2  0
 10 11  1  0
 10  9  1  0
 11 16  2  0
 12 11  1  0
 12 13  2  0
 13 14  1  0
 14 15  2  0
 16  8  1  0
 16 15  1  0
 17 18  2  0
 19 20  1  0
 19 17  1  0
 20 27  1  0
 20 21  1  6
 22 21  1  0
 23 22  2  0
 24 23  1  0
 25 24  1  0
 25 26  2  0
 26 22  1  0
 27 29  2  0
 27 28  1  0
M  END
$$$$
