GWH.pdb
     RDKit          3D

 29 31  0  0  1  0  0  0  0  0999 V2000
   27.7851  -23.5681  -16.0663 N   0  0  0  0  0  0  0  0  0  0  0  0
   27.4779  -22.2007  -15.7159 C   0  0  0  0  0  0  0  0  0  0  0  0
   26.6117  -22.1908  -14.5074 C   0  0  0  0  0  0  0  0  0  0  0  0
   26.0054  -23.2537  -14.1433 O   0  0  0  0  0  0  0  0  0  0  0  0
   26.4051  -21.0458  -13.7046 N   0  0  0  0  0  0  0  0  0  0  0  0
   25.5006  -21.0280  -12.5724 C   0  0  1  0  0  0  0  0  0  0  0  0
   25.9599  -20.0547  -11.5084 C   0  0  0  0  0  0  0  0  0  0  0  0
   27.2074  -20.4450  -10.8498 C   0  0  0  0  0  0  0  0  0  0  0  0
   28.3479  -20.9696  -11.4099 C   0  0  0  0  0  0  0  0  0  0  0  0
   29.2685  -21.1900  -10.4556 N   0  0  0  0  0  0  0  0  0  0  0  0
   28.7345  -20.8125   -9.2801 C   0  0  0  0  0  0  0  0  0  0  0  0
   29.2197  -20.8132   -7.9713 C   0  0  0  0  0  0  0  0  0  0  0  0
   28.4684  -20.3677   -6.9047 C   0  0  0  0  0  0  0  0  0  0  0  0
   27.1823  -19.9030   -7.1537 C   0  0  0  0  0  0  0  0  0  0  0  0
   26.6753  -19.8875   -8.4183 C   0  0  0  0  0  0  0  0  0  0  0  0
   27.4455  -20.3397   -9.4788 C   0  0  0  0  0  0  0  0  0  0  0  0
   24.1398  -20.6025  -12.9972 C   0  0  0  0  0  0  0  0  0  0  0  0
   24.0142  -19.5364  -13.6404 O   0  0  0  0  0  0  0  0  0  0  0  0
   23.0000  -21.3685  -12.6925 N   0  0  0  0  0  0  0  0  0  0  0  0
   21.6245  -20.9920  -13.0869 C   0  0  1  0  0  0  0  0  0  0  0  0
   20.8566  -22.1924  -13.5359 C   0  0  0  0  0  0  0  0  0  0  0  0
   21.2649  -22.5844  -14.9005 C   0  0  0  0  0  0  0  0  0  0  0  0
   21.2707  -21.8566  -16.0501 C   0  0  0  0  0  0  0  0  0  0  0  0
   21.8063  -22.5845  -17.0695 N   0  0  0  0  0  0  0  0  0  0  0  0
   22.1365  -23.7646  -16.5592 C   0  0  0  0  0  0  0  0  0  0  0  0
   21.8218  -23.7862  -15.2627 N   0  0  0  0  0  0  0  0  0  0  0  0
   20.9565  -20.5113  -11.8161 C   0  0  0  0  0  0  0  0  0  0  0  0
   19.7062  -19.8642  -11.9100 O   0  0  0  0  0  0  0  0  0  0  0  0
   21.4044  -20.6307  -10.6769 O   0  0  0  0  0  0  0  0  0  0  0  0
  1  2  1  0
  2  3  1  0
  3  4  2  0
  5  3  1  0
  5  6  1  0
  6 17  1  0
  6  7  1  1
  8  7  1  0
  9  8  2  0
 10 11  1  0
 10  9  1  0
 11 16  2  0
 12 11  1  0
 12 13  2  0
 13 14  1  0
 14 15  2  0
 16  8  1  0
 16 15  1  0
 17 18  2  0
 19 20  1  0
 19 17  1  0
 20 27  1  0
 20 21  1  1
 22 21  1  0
 23 22  2  0
 24 23  1  0
 25 24  1  0
 25 26  2  0
 26 22  1  0
 27 29  2  0
 27 28  1  0
M  END
$$$$
