GWH.pdb
     RDKit          3D

 29 31  0  0  1  0  0  0  0  0999 V2000
   28.5649  -20.9850  -14.0561 N   0  0  0  0  0  0  0  0  0  0  0  0
   28.5418  -20.2479  -12.8140 C   0  0  0  0  0  0  0  0  0  0  0  0
   27.5308  -20.8537  -11.9073 C   0  0  0  0  0  0  0  0  0  0  0  0
   27.0917  -22.0315  -12.1310 O   0  0  0  0  0  0  0  0  0  0  0  0
   27.0030  -20.1932  -10.7746 N   0  0  0  0  0  0  0  0  0  0  0  0
   25.9765  -20.7713   -9.9305 C   0  0  1  0  0  0  0  0  0  0  0  0
   26.1489  -20.3606   -8.4841 C   0  0  0  0  0  0  0  0  0  0  0  0
   27.4905  -20.6104   -7.9551 C   0  0  0  0  0  0  0  0  0  0  0  0
   28.5384  -21.2746   -8.5472 C   0  0  0  0  0  0  0  0  0  0  0  0
   29.6005  -21.2834   -7.7234 N   0  0  0  0  0  0  0  0  0  0  0  0
   29.2503  -20.6301   -6.6009 C   0  0  0  0  0  0  0  0  0  0  0  0
   29.9340  -20.3334   -5.4207 C   0  0  0  0  0  0  0  0  0  0  0  0
   29.3510  -19.6352   -4.3848 C   0  0  0  0  0  0  0  0  0  0  0  0
   28.0339  -19.2162   -4.5322 C   0  0  0  0  0  0  0  0  0  0  0  0
   27.3353  -19.4876   -5.6701 C   0  0  0  0  0  0  0  0  0  0  0  0
   27.9381  -20.1913   -6.7016 C   0  0  0  0  0  0  0  0  0  0  0  0
   24.6277  -20.3118  -10.3586 C   0  0  0  0  0  0  0  0  0  0  0  0
   24.2837  -19.1349  -10.1083 O   0  0  0  0  0  0  0  0  0  0  0  0
   23.7381  -21.1671  -11.0335 N   0  0  0  0  0  0  0  0  0  0  0  0
   22.4582  -20.7222  -11.6278 C   0  0  1  0  0  0  0  0  0  0  0  0
   22.2213  -21.3987  -12.9387 C   0  0  0  0  0  0  0  0  0  0  0  0
   23.0967  -20.8236  -13.9807 C   0  0  0  0  0  0  0  0  0  0  0  0
   23.6836  -19.5978  -14.0452 C   0  0  0  0  0  0  0  0  0  0  0  0
   24.4815  -19.5114  -15.1459 N   0  0  0  0  0  0  0  0  0  0  0  0
   24.3957  -20.6806  -15.7683 C   0  0  0  0  0  0  0  0  0  0  0  0
   23.5727  -21.4810  -15.0883 N   0  0  0  0  0  0  0  0  0  0  0  0
   21.3807  -21.2241  -10.6900 C   0  0  0  0  0  0  0  0  0  0  0  0
   20.0487  -20.8108  -10.9043 O   0  0  0  0  0  0  0  0  0  0  0  0
   21.5518  -21.9773   -9.7330 O   0  0  0  0  0  0  0  0  0  0  0  0
  1  2  1  0
  2  3  1  0
  3  4  2  0
  5  3  1  0
  5  6  1  0
  6 17  1  0
  6  7  1  1
  8  7  1  0
  9  8  2  0
 10 11  1  0
 10  9  1  0
 11 16  2  0
 12 11  1  0
 12 13  2  0
 13 14  1  0
 14 15  2  0
 16  8  1  0
 16 15  1  0
 17 18  2  0
 19 20  1  0
 19 17  1  0
 20 27  1  0
 20 21  1  6
 22 21  1  0
 23 22  2  0
 24 23  1  0
 25 24  1  0
 25 26  2  0
 26 22  1  0
 27 29  2  0
 27 28  1  0
M  END
$$$$
