GWH.pdb
     RDKit          3D

 29 31  0  0  1  0  0  0  0  0999 V2000
   29.0940  -20.6621  -14.5685 N   0  0  0  0  0  0  0  0  0  0  0  0
   28.5073  -19.7884  -13.5789 C   0  0  0  0  0  0  0  0  0  0  0  0
   27.5252  -20.5586  -12.7707 C   0  0  0  0  0  0  0  0  0  0  0  0
   26.9331  -21.5714  -13.2743 O   0  0  0  0  0  0  0  0  0  0  0  0
   27.1892  -20.2364  -11.4361 N   0  0  0  0  0  0  0  0  0  0  0  0
   26.1147  -20.8872  -10.7132 C   0  0  1  0  0  0  0  0  0  0  0  0
   26.2462  -20.6841   -9.2192 C   0  0  0  0  0  0  0  0  0  0  0  0
   27.6063  -20.8772   -8.7144 C   0  0  0  0  0  0  0  0  0  0  0  0
   28.6497  -21.5598   -9.2935 C   0  0  0  0  0  0  0  0  0  0  0  0
   29.7342  -21.4984   -8.5017 N   0  0  0  0  0  0  0  0  0  0  0  0
   29.4030  -20.7813   -7.4129 C   0  0  0  0  0  0  0  0  0  0  0  0
   30.1134  -20.3990   -6.2738 C   0  0  0  0  0  0  0  0  0  0  0  0
   29.5464  -19.6464   -5.2675 C   0  0  0  0  0  0  0  0  0  0  0  0
   28.2181  -19.2598   -5.4030 C   0  0  0  0  0  0  0  0  0  0  0  0
   27.4935  -19.6146   -6.5010 C   0  0  0  0  0  0  0  0  0  0  0  0
   28.0805  -20.3720   -7.5031 C   0  0  0  0  0  0  0  0  0  0  0  0
   24.7977  -20.3255  -11.1174 C   0  0  0  0  0  0  0  0  0  0  0  0
   24.5129  -19.1538  -10.7823 O   0  0  0  0  0  0  0  0  0  0  0  0
   23.8730  -21.0792  -11.8626 N   0  0  0  0  0  0  0  0  0  0  0  0
   22.6764  -20.5036  -12.5156 C   0  0  1  0  0  0  0  0  0  0  0  0
   22.4777  -21.0980  -13.8719 C   0  0  0  0  0  0  0  0  0  0  0  0
   21.3208  -20.4717  -14.5443 C   0  0  0  0  0  0  0  0  0  0  0  0
   21.0640  -19.1587  -14.7920 C   0  0  0  0  0  0  0  0  0  0  0  0
   19.9167  -19.0280  -15.5148 N   0  0  0  0  0  0  0  0  0  0  0  0
   19.4571  -20.2562  -15.7205 C   0  0  0  0  0  0  0  0  0  0  0  0
   20.2818  -21.1356  -15.1488 N   0  0  0  0  0  0  0  0  0  0  0  0
   21.5004  -20.9568  -11.6767 C   0  0  0  0  0  0  0  0  0  0  0  0
   21.5672  -22.2130  -11.0377 O   0  0  0  0  0  0  0  0  0  0  0  0
   20.4626  -20.3241  -11.4890 O   0  0  0  0  0  0  0  0  0  0  0  0
  1  2  1  0
  2  3  1  0
  3  4  2  0
  5  3  1  0
  5  6  1  0
  6 17  1  0
  6  7  1  1
  8  7  1  0
  9  8  2  0
 10 11  1  0
 10  9  1  0
 11 16  2  0
 12 11  1  0
 12 13  2  0
 13 14  1  0
 14 15  2  0
 16  8  1  0
 16 15  1  0
 17 18  2  0
 19 20  1  0
 19 17  1  0
 20 27  1  0
 20 21  1  6
 22 21  1  0
 23 22  2  0
 24 23  1  0
 25 24  1  0
 25 26  2  0
 26 22  1  0
 27 29  2  0
 27 28  1  0
M  END
$$$$
