GWH.pdb
     RDKit          3D

 29 31  0  0  1  0  0  0  0  0999 V2000
   28.6969  -18.5792  -14.4782 N   0  0  0  0  0  0  0  0  0  0  0  0
   29.2339  -19.3838  -13.4054 C   0  0  0  0  0  0  0  0  0  0  0  0
   28.1942  -20.3442  -12.9499 C   0  0  0  0  0  0  0  0  0  0  0  0
   27.7091  -21.1993  -13.7644 O   0  0  0  0  0  0  0  0  0  0  0  0
   27.6872  -20.3780  -11.6309 N   0  0  0  0  0  0  0  0  0  0  0  0
   26.6934  -21.3371  -11.1912 C   0  0  1  0  0  0  0  0  0  0  0  0
   26.9726  -21.8228   -9.7853 C   0  0  0  0  0  0  0  0  0  0  0  0
   27.0211  -20.7516   -8.7892 C   0  0  0  0  0  0  0  0  0  0  0  0
   26.2258  -19.6350   -8.6877 C   0  0  0  0  0  0  0  0  0  0  0  0
   26.5999  -18.8998   -7.6264 N   0  0  0  0  0  0  0  0  0  0  0  0
   27.6321  -19.5305   -7.0380 C   0  0  0  0  0  0  0  0  0  0  0  0
   28.4119  -19.2375   -5.9179 C   0  0  0  0  0  0  0  0  0  0  0  0
   29.4402  -20.0547   -5.4994 C   0  0  0  0  0  0  0  0  0  0  0  0
   29.7008  -21.2101   -6.2269 C   0  0  0  0  0  0  0  0  0  0  0  0
   28.9604  -21.5284   -7.3256 C   0  0  0  0  0  0  0  0  0  0  0  0
   27.9301  -20.6942   -7.7319 C   0  0  0  0  0  0  0  0  0  0  0  0
   25.3399  -20.7195  -11.1807 C   0  0  0  0  0  0  0  0  0  0  0  0
   25.2072  -19.5645  -10.7176 O   0  0  0  0  0  0  0  0  0  0  0  0
   24.2149  -21.4027  -11.6767 N   0  0  0  0  0  0  0  0  0  0  0  0
   23.0532  -20.7326  -12.3019 C   0  0  1  0  0  0  0  0  0  0  0  0
   23.4508  -20.0709  -13.5812 C   0  0  0  0  0  0  0  0  0  0  0  0
   22.2839  -19.4146  -14.2060 C   0  0  0  0  0  0  0  0  0  0  0  0
   21.9308  -18.1008  -14.2248 C   0  0  0  0  0  0  0  0  0  0  0  0
   20.8183  -17.9196  -14.9898 N   0  0  0  0  0  0  0  0  0  0  0  0
   20.4765  -19.1168  -15.4502 C   0  0  0  0  0  0  0  0  0  0  0  0
   21.3400  -20.0260  -14.9940 N   0  0  0  0  0  0  0  0  0  0  0  0
   22.0984  -21.8456  -12.6783 C   0  0  0  0  0  0  0  0  0  0  0  0
   20.7113  -21.5890  -12.6469 O   0  0  0  0  0  0  0  0  0  0  0  0
   22.4167  -22.9837  -13.0190 O   0  0  0  0  0  0  0  0  0  0  0  0
  1  2  1  0
  2  3  1  0
  3  4  2  0
  5  3  1  0
  5  6  1  0
  6 17  1  0
  6  7  1  1
  8  7  1  0
  9  8  2  0
 10 11  1  0
 10  9  1  0
 11 16  2  0
 12 11  1  0
 12 13  2  0
 13 14  1  0
 14 15  2  0
 16  8  1  0
 16 15  1  0
 17 18  2  0
 19 20  1  0
 19 17  1  0
 20 27  1  0
 20 21  1  6
 22 21  1  0
 23 22  2  0
 24 23  1  0
 25 24  1  0
 25 26  2  0
 26 22  1  0
 27 29  2  0
 27 28  1  0
M  END
$$$$
