GWH.pdb
     RDKit          3D

 29 31  0  0  1  0  0  0  0  0999 V2000
   21.8689  -20.6517  -10.3320 N   0  0  0  0  0  0  0  0  0  0  0  0
   22.9710  -21.5844  -10.3774 C   0  0  0  0  0  0  0  0  0  0  0  0
   24.2370  -20.8323  -10.5836 C   0  0  0  0  0  0  0  0  0  0  0  0
   24.2295  -19.7245  -11.2183 O   0  0  0  0  0  0  0  0  0  0  0  0
   25.4931  -21.2736  -10.1089 N   0  0  0  0  0  0  0  0  0  0  0  0
   26.7408  -20.6211  -10.4528 C   0  0  1  0  0  0  0  0  0  0  0  0
   27.8020  -20.8597   -9.4004 C   0  0  0  0  0  0  0  0  0  0  0  0
   27.4766  -20.2875   -8.0933 C   0  0  0  0  0  0  0  0  0  0  0  0
   26.3764  -19.5488   -7.7277 C   0  0  0  0  0  0  0  0  0  0  0  0
   26.4596  -19.2133   -6.4287 N   0  0  0  0  0  0  0  0  0  0  0  0
   27.6054  -19.7285   -5.9480 C   0  0  0  0  0  0  0  0  0  0  0  0
   28.2060  -19.7003   -4.6882 C   0  0  0  0  0  0  0  0  0  0  0  0
   29.4126  -20.3155   -4.4311 C   0  0  0  0  0  0  0  0  0  0  0  0
   30.0451  -20.9854   -5.4719 C   0  0  0  0  0  0  0  0  0  0  0  0
   29.4887  -21.0339   -6.7147 C   0  0  0  0  0  0  0  0  0  0  0  0
   28.2744  -20.4091   -6.9548 C   0  0  0  0  0  0  0  0  0  0  0  0
   27.2711  -21.1514  -11.7377 C   0  0  0  0  0  0  0  0  0  0  0  0
   27.4805  -22.3807  -11.8426 O   0  0  0  0  0  0  0  0  0  0  0  0
   27.5401  -20.3052  -12.8286 N   0  0  0  0  0  0  0  0  0  0  0  0
   27.2006  -20.6348  -14.2306 C   0  0  1  0  0  0  0  0  0  0  0  0
   25.7233  -20.7874  -14.3944 C   0  0  0  0  0  0  0  0  0  0  0  0
   25.3465  -22.2156  -14.3634 C   0  0  0  0  0  0  0  0  0  0  0  0
   26.1194  -23.3154  -14.1528 C   0  0  0  0  0  0  0  0  0  0  0  0
   25.3487  -24.4384  -14.1249 N   0  0  0  0  0  0  0  0  0  0  0  0
   24.0962  -24.0426  -14.3160 C   0  0  0  0  0  0  0  0  0  0  0  0
   24.0716  -22.7164  -14.4607 N   0  0  0  0  0  0  0  0  0  0  0  0
   27.5939  -19.4167  -15.0392 C   0  0  0  0  0  0  0  0  0  0  0  0
   28.4115  -19.5922  -16.1757 O   0  0  0  0  0  0  0  0  0  0  0  0
   27.2643  -18.2561  -14.8006 O   0  0  0  0  0  0  0  0  0  0  0  0
  1  2  1  0
  2  3  1  0
  3  4  2  0
  5  3  1  0
  5  6  1  0
  6 17  1  0
  6  7  1  1
  8  7  1  0
  9  8  2  0
 10 11  1  0
 10  9  1  0
 11 16  2  0
 12 11  1  0
 12 13  2  0
 13 14  1  0
 14 15  2  0
 16  8  1  0
 16 15  1  0
 17 18  2  0
 19 20  1  0
 19 17  1  0
 20 27  1  0
 20 21  1  1
 22 21  1  0
 23 22  2  0
 24 23  1  0
 25 24  1  0
 25 26  2  0
 26 22  1  0
 27 29  2  0
 27 28  1  0
M  END
$$$$
