GWH.pdb
     RDKit          3D

 29 31  0  0  1  0  0  0  0  0999 V2000
   28.5067  -21.1193  -14.7119 N   0  0  0  0  0  0  0  0  0  0  0  0
   27.9528  -20.1207  -13.8270 C   0  0  0  0  0  0  0  0  0  0  0  0
   27.0437  -20.7828  -12.8543 C   0  0  0  0  0  0  0  0  0  0  0  0
   26.5111  -21.9083  -13.1367 O   0  0  0  0  0  0  0  0  0  0  0  0
   26.7162  -20.2338  -11.5936 N   0  0  0  0  0  0  0  0  0  0  0  0
   25.7081  -20.8035  -10.7220 C   0  0  1  0  0  0  0  0  0  0  0  0
   25.9361  -20.4130   -9.2778 C   0  0  0  0  0  0  0  0  0  0  0  0
   27.3016  -20.6540   -8.8093 C   0  0  0  0  0  0  0  0  0  0  0  0
   28.3299  -21.3007   -9.4528 C   0  0  0  0  0  0  0  0  0  0  0  0
   29.4264  -21.3069   -8.6752 N   0  0  0  0  0  0  0  0  0  0  0  0
   29.1179  -20.6691   -7.5317 C   0  0  0  0  0  0  0  0  0  0  0  0
   29.8484  -20.3776   -6.3786 C   0  0  0  0  0  0  0  0  0  0  0  0
   29.3032  -19.6965   -5.3112 C   0  0  0  0  0  0  0  0  0  0  0  0
   27.9768  -19.2900   -5.3977 C   0  0  0  0  0  0  0  0  0  0  0  0
   27.2330  -19.5569   -6.5076 C   0  0  0  0  0  0  0  0  0  0  0  0
   27.7982  -20.2433   -7.5715 C   0  0  0  0  0  0  0  0  0  0  0  0
   24.3544  -20.3151  -11.0994 C   0  0  0  0  0  0  0  0  0  0  0  0
   24.1581  -19.0816  -11.1775 O   0  0  0  0  0  0  0  0  0  0  0  0
   23.2988  -21.2050  -11.3679 N   0  0  0  0  0  0  0  0  0  0  0  0
   21.9781  -20.7847  -11.8862 C   0  0  1  0  0  0  0  0  0  0  0  0
   21.6141  -21.5705  -13.1036 C   0  0  0  0  0  0  0  0  0  0  0  0
   22.2928  -21.0193  -14.2945 C   0  0  0  0  0  0  0  0  0  0  0  0
   23.1382  -19.9586  -14.4015 C   0  0  0  0  0  0  0  0  0  0  0  0
   23.6021  -19.8488  -15.6777 N   0  0  0  0  0  0  0  0  0  0  0  0
   23.0498  -20.8391  -16.3677 C   0  0  0  0  0  0  0  0  0  0  0  0
   22.2630  -21.5523  -15.5597 N   0  0  0  0  0  0  0  0  0  0  0  0
   20.9809  -21.1738  -10.8155 C   0  0  0  0  0  0  0  0  0  0  0  0
   19.6442  -20.7404  -10.9439 O   0  0  0  0  0  0  0  0  0  0  0  0
   21.2228  -21.8489   -9.8164 O   0  0  0  0  0  0  0  0  0  0  0  0
  1  2  1  0
  2  3  1  0
  3  4  2  0
  5  3  1  0
  5  6  1  0
  6 17  1  0
  6  7  1  1
  8  7  1  0
  9  8  2  0
 10 11  1  0
 10  9  1  0
 11 16  2  0
 12 11  1  0
 12 13  2  0
 13 14  1  0
 14 15  2  0
 16  8  1  0
 16 15  1  0
 17 18  2  0
 19 20  1  0
 19 17  1  0
 20 27  1  0
 20 21  1  6
 22 21  1  0
 23 22  2  0
 24 23  1  0
 25 24  1  0
 25 26  2  0
 26 22  1  0
 27 29  2  0
 27 28  1  0
M  END
$$$$
