GWH.pdb
     RDKit          3D

 29 31  0  0  1  0  0  0  0  0999 V2000
   28.4412  -19.8693  -16.0899 N   0  0  0  0  0  0  0  0  0  0  0  0
   28.7473  -19.8123  -14.6792 C   0  0  0  0  0  0  0  0  0  0  0  0
   27.7404  -20.6097  -13.9301 C   0  0  0  0  0  0  0  0  0  0  0  0
   27.5404  -21.8349  -14.2286 O   0  0  0  0  0  0  0  0  0  0  0  0
   26.9612  -20.0876  -12.8726 N   0  0  0  0  0  0  0  0  0  0  0  0
   26.0081  -20.8844  -12.1260 C   0  0  1  0  0  0  0  0  0  0  0  0
   25.9856  -20.4985  -10.6628 C   0  0  0  0  0  0  0  0  0  0  0  0
   27.2714  -20.6742   -9.9859 C   0  0  0  0  0  0  0  0  0  0  0  0
   28.4271  -21.2405  -10.4688 C   0  0  0  0  0  0  0  0  0  0  0  0
   29.3840  -21.2066   -9.5253 N   0  0  0  0  0  0  0  0  0  0  0  0
   28.8583  -20.6226   -8.4335 C   0  0  0  0  0  0  0  0  0  0  0  0
   29.3764  -20.3242   -7.1721 C   0  0  0  0  0  0  0  0  0  0  0  0
   28.6270  -19.7083   -6.1925 C   0  0  0  0  0  0  0  0  0  0  0  0
   27.3086  -19.3769   -6.4828 C   0  0  0  0  0  0  0  0  0  0  0  0
   26.7691  -19.6528   -7.7032 C   0  0  0  0  0  0  0  0  0  0  0  0
   27.5380  -20.2729   -8.6762 C   0  0  0  0  0  0  0  0  0  0  0  0
   24.6317  -20.6828  -12.6534 C   0  0  0  0  0  0  0  0  0  0  0  0
   24.2233  -19.5152  -12.8435 O   0  0  0  0  0  0  0  0  0  0  0  0
   23.7863  -21.7698  -12.9403 N   0  0  0  0  0  0  0  0  0  0  0  0
   22.4338  -21.6304  -13.5241 C   0  0  1  0  0  0  0  0  0  0  0  0
   21.9137  -20.2438  -13.3265 C   0  0  0  0  0  0  0  0  0  0  0  0
   21.3308  -20.0998  -11.9766 C   0  0  0  0  0  0  0  0  0  0  0  0
   21.3211  -20.9749  -10.9349 C   0  0  0  0  0  0  0  0  0  0  0  0
   20.7448  -20.4033   -9.8408 N   0  0  0  0  0  0  0  0  0  0  0  0
   20.3960  -19.1728  -10.1961 C   0  0  0  0  0  0  0  0  0  0  0  0
   20.7376  -18.9698  -11.4698 N   0  0  0  0  0  0  0  0  0  0  0  0
   22.6173  -21.8067  -15.0165 C   0  0  0  0  0  0  0  0  0  0  0  0
   23.9080  -22.0876  -15.5127 O   0  0  0  0  0  0  0  0  0  0  0  0
   21.7312  -21.7284  -15.8658 O   0  0  0  0  0  0  0  0  0  0  0  0
  1  2  1  0
  2  3  1  0
  3  4  2  0
  5  3  1  0
  5  6  1  0
  6 17  1  0
  6  7  1  1
  8  7  1  0
  9  8  2  0
 10 11  1  0
 10  9  1  0
 11 16  2  0
 12 11  1  0
 12 13  2  0
 13 14  1  0
 14 15  2  0
 16  8  1  0
 16 15  1  0
 17 18  2  0
 19 20  1  0
 19 17  1  0
 20 27  1  0
 20 21  1  6
 22 21  1  0
 23 22  2  0
 24 23  1  0
 25 24  1  0
 25 26  2  0
 26 22  1  0
 27 29  2  0
 27 28  1  0
M  END
$$$$
