APD.pdb
     RDKit          3D

 21 21  0  0  1  0  0  0  0  0999 V2000
   20.2875  -10.9724  -18.9931 C   0  0  0  0  0  0  0  0  0  0  0  0
   20.1277  -11.5971  -17.6062 C   0  0  2  0  0  0  0  0  0  0  0  0
   18.8800  -12.2748  -17.5900 N   0  0  0  0  0  0  0  0  0  0  0  0
   20.3601  -10.6203  -16.5371 C   0  0  0  0  0  0  0  0  0  0  0  0
   19.4975   -9.7654  -16.3016 O   0  0  0  0  0  0  0  0  0  0  0  0
   21.5591  -10.6134  -15.7456 N   0  0  0  0  0  0  0  0  0  0  0  0
   22.4755  -11.7165  -15.7534 C   0  0  0  0  0  0  0  0  0  0  0  0
   23.6547  -11.2887  -14.8672 C   0  0  0  0  0  0  0  0  0  0  0  0
   23.5532   -9.7832  -14.8859 C   0  0  0  0  0  0  0  0  0  0  0  0
   22.0317   -9.6091  -14.8585 C   0  0  1  0  0  0  0  0  0  0  0  0
   21.7169   -8.2132  -15.2918 C   0  0  0  0  0  0  0  0  0  0  0  0
   21.7843   -7.9582  -16.5166 O   0  0  0  0  0  0  0  0  0  0  0  0
   21.3467   -7.1677  -14.4108 N   0  0  0  0  0  0  0  0  0  0  0  0
   21.1572   -5.7964  -14.8646 C   0  0  1  0  0  0  0  0  0  0  0  0
   19.7158   -5.4311  -14.4687 C   0  0  0  0  0  0  0  0  0  0  0  0
   19.3965   -4.0455  -14.8630 C   0  0  0  0  0  0  0  0  0  0  0  0
   19.3919   -3.1343  -14.0005 O   0  0  0  0  0  0  0  0  0  0  0  0
   22.0817   -4.8658  -14.2111 C   0  0  0  0  0  0  0  0  0  0  0  0
   22.4125   -3.7051  -14.9386 O   0  0  0  0  0  0  0  0  0  0  0  0
   19.0971   -3.7240  -16.1807 O   0  0  0  0  0  0  0  0  0  0  0  0
   22.6080   -4.9791  -13.0853 O   0  0  0  0  0  0  0  0  0  0  0  0
  2  1  1  6
  3  2  1  0
  4  5  2  0
  4  2  1  0
  6  4  1  0
  7  6  1  0
  8  7  1  0
  9  8  1  0
  9 10  1  0
 10 11  1  6
 10  6  1  0
 11 13  1  0
 12 11  2  0
 13 14  1  0
 14 15  1  1
 14 18  1  0
 16 20  1  0
 16 15  1  0
 17 16  2  0
 18 21  2  0
 18 19  1  0
M  END
$$$$
