APD.pdb
     RDKit          3D

 21 21  0  0  1  0  0  0  0  0999 V2000
   22.8835  -11.6904  -19.3406 C   0  0  0  0  0  0  0  0  0  0  0  0
   23.1452  -12.3311  -17.9767 C   0  0  2  0  0  0  0  0  0  0  0  0
   22.2554  -13.4303  -17.8493 N   0  0  0  0  0  0  0  0  0  0  0  0
   23.1267  -11.3405  -16.8953 C   0  0  0  0  0  0  0  0  0  0  0  0
   22.0522  -10.8209  -16.5700 O   0  0  0  0  0  0  0  0  0  0  0  0
   24.3151  -10.9433  -16.1925 N   0  0  0  0  0  0  0  0  0  0  0  0
   25.5271  -11.7062  -16.2669 C   0  0  0  0  0  0  0  0  0  0  0  0
   26.5719  -10.9131  -15.4680 C   0  0  0  0  0  0  0  0  0  0  0  0
   26.0047   -9.5148  -15.4785 C   0  0  0  0  0  0  0  0  0  0  0  0
   24.5105   -9.8225  -15.3413 C   0  0  1  0  0  0  0  0  0  0  0  0
   23.7469   -8.6038  -15.7500 C   0  0  0  0  0  0  0  0  0  0  0  0
   23.8171   -8.2522  -16.9505 O   0  0  0  0  0  0  0  0  0  0  0  0
   22.9513   -7.8277  -14.8719 N   0  0  0  0  0  0  0  0  0  0  0  0
   22.2972   -6.5968  -15.2950 C   0  0  1  0  0  0  0  0  0  0  0  0
   20.7925   -6.9183  -15.3091 C   0  0  0  0  0  0  0  0  0  0  0  0
   20.0013   -5.7209  -15.6519 C   0  0  0  0  0  0  0  0  0  0  0  0
   20.2864   -5.0538  -16.6756 O   0  0  0  0  0  0  0  0  0  0  0  0
   22.5404   -5.4934  -14.3617 C   0  0  0  0  0  0  0  0  0  0  0  0
   22.9488   -5.8568  -13.0628 O   0  0  0  0  0  0  0  0  0  0  0  0
   18.9374   -5.3110  -14.8584 O   0  0  0  0  0  0  0  0  0  0  0  0
   22.4311   -4.2700  -14.5827 O   0  0  0  0  0  0  0  0  0  0  0  0
  2  1  1  6
  3  2  1  0
  4  5  2  0
  4  2  1  0
  6  4  1  0
  7  6  1  0
  8  7  1  0
  9  8  1  0
  9 10  1  0
 10 11  1  6
 10  6  1  0
 11 13  1  0
 12 11  2  0
 13 14  1  0
 14 15  1  1
 14 18  1  0
 16 20  1  0
 16 15  1  0
 17 16  2  0
 18 21  2  0
 18 19  1  0
M  END
$$$$
