APD.pdb
     RDKit          3D

 21 21  0  0  1  0  0  0  0  0999 V2000
   19.3863  -10.1466  -18.6722 C   0  0  0  0  0  0  0  0  0  0  0  0
   19.2598  -10.7711  -17.2818 C   0  0  2  0  0  0  0  0  0  0  0  0
   18.0102  -11.4438  -17.2337 N   0  0  0  0  0  0  0  0  0  0  0  0
   19.5236   -9.7957  -16.2188 C   0  0  0  0  0  0  0  0  0  0  0  0
   18.7271   -8.8662  -16.0401 O   0  0  0  0  0  0  0  0  0  0  0  0
   20.6797   -9.8740  -15.3695 N   0  0  0  0  0  0  0  0  0  0  0  0
   21.4759  -11.0638  -15.2853 C   0  0  0  0  0  0  0  0  0  0  0  0
   22.6518  -10.7173  -14.3601 C   0  0  0  0  0  0  0  0  0  0  0  0
   22.7084   -9.2119  -14.4468 C   0  0  0  0  0  0  0  0  0  0  0  0
   21.2135   -8.8827  -14.5027 C   0  0  1  0  0  0  0  0  0  0  0  0
   21.0656   -7.4837  -15.0092 C   0  0  0  0  0  0  0  0  0  0  0  0
   21.3010   -7.2795  -16.2227 O   0  0  0  0  0  0  0  0  0  0  0  0
   20.6757   -6.3816  -14.2094 N   0  0  0  0  0  0  0  0  0  0  0  0
   20.7507   -5.0072  -14.6864 C   0  0  1  0  0  0  0  0  0  0  0  0
   19.6111   -4.2633  -13.9682 C   0  0  0  0  0  0  0  0  0  0  0  0
   18.2949   -4.7444  -14.4299 C   0  0  0  0  0  0  0  0  0  0  0  0
   18.0059   -4.7033  -15.6501 O   0  0  0  0  0  0  0  0  0  0  0  0
   22.0259   -4.3723  -14.3424 C   0  0  0  0  0  0  0  0  0  0  0  0
   22.6742   -4.8636  -13.1916 O   0  0  0  0  0  0  0  0  0  0  0  0
   17.3587   -5.2465  -13.5349 O   0  0  0  0  0  0  0  0  0  0  0  0
   22.6066   -3.4500  -14.9504 O   0  0  0  0  0  0  0  0  0  0  0  0
  2  1  1  6
  3  2  1  0
  4  5  2  0
  4  2  1  0
  6  4  1  0
  7  6  1  0
  8  7  1  0
  9  8  1  0
  9 10  1  0
 10 11  1  6
 10  6  1  0
 11 13  1  0
 12 11  2  0
 13 14  1  0
 14 15  1  1
 14 18  1  0
 16 20  1  0
 16 15  1  0
 17 16  2  0
 18 21  2  0
 18 19  1  0
M  END
$$$$
