APD.pdb
     RDKit          3D

 21 21  0  0  1  0  0  0  0  0999 V2000
   22.3028  -10.8246  -20.0436 C   0  0  0  0  0  0  0  0  0  0  0  0
   21.7968  -11.6645  -18.8698 C   0  0  2  0  0  0  0  0  0  0  0  0
   20.6045  -12.3082  -19.2947 N   0  0  0  0  0  0  0  0  0  0  0  0
   21.7170  -10.8815  -17.6323 C   0  0  0  0  0  0  0  0  0  0  0  0
   20.8701   -9.9847  -17.5380 O   0  0  0  0  0  0  0  0  0  0  0  0
   22.5902  -11.1132  -16.5151 N   0  0  0  0  0  0  0  0  0  0  0  0
   23.4009  -12.2924  -16.4220 C   0  0  0  0  0  0  0  0  0  0  0  0
   24.2461  -12.1214  -15.1511 C   0  0  0  0  0  0  0  0  0  0  0  0
   24.2336  -10.6267  -14.9443 C   0  0  0  0  0  0  0  0  0  0  0  0
   22.7977  -10.3019  -15.3672 C   0  0  1  0  0  0  0  0  0  0  0  0
   22.7139   -8.8330  -15.6333 C   0  0  0  0  0  0  0  0  0  0  0  0
   22.9569   -8.4410  -16.7982 O   0  0  0  0  0  0  0  0  0  0  0  0
   22.3764   -7.8626  -14.6583 N   0  0  0  0  0  0  0  0  0  0  0  0
   22.2768   -6.4436  -14.9728 C   0  0  1  0  0  0  0  0  0  0  0  0
   21.1106   -6.3275  -15.9699 C   0  0  0  0  0  0  0  0  0  0  0  0
   20.9004   -4.9238  -16.3733 C   0  0  0  0  0  0  0  0  0  0  0  0
   21.7580   -4.0543  -16.0855 O   0  0  0  0  0  0  0  0  0  0  0  0
   21.9738   -5.6356  -13.7883 C   0  0  0  0  0  0  0  0  0  0  0  0
   22.6458   -4.4009  -13.6899 O   0  0  0  0  0  0  0  0  0  0  0  0
   19.7627   -4.5391  -17.0712 O   0  0  0  0  0  0  0  0  0  0  0  0
   21.1885   -5.9111  -12.8583 O   0  0  0  0  0  0  0  0  0  0  0  0
  2  1  1  6
  3  2  1  0
  4  5  2  0
  4  2  1  0
  6  4  1  0
  7  6  1  0
  8  7  1  0
  9  8  1  0
  9 10  1  0
 10 11  1  6
 10  6  1  0
 11 13  1  0
 12 11  2  0
 13 14  1  0
 14 15  1  6
 14 18  1  0
 16 20  1  0
 16 15  1  0
 17 16  2  0
 18 21  2  0
 18 19  1  0
M  END
$$$$
