APD.pdb
     RDKit          3D

 21 21  0  0  1  0  0  0  0  0999 V2000
   21.2147  -10.6910  -19.6991 C   0  0  0  0  0  0  0  0  0  0  0  0
   21.0458  -11.4831  -18.4017 C   0  0  2  0  0  0  0  0  0  0  0  0
   19.9019  -12.3098  -18.5581 N   0  0  0  0  0  0  0  0  0  0  0  0
   21.0718  -10.6116  -17.2223 C   0  0  0  0  0  0  0  0  0  0  0  0
   20.2152   -9.7268  -17.1057 O   0  0  0  0  0  0  0  0  0  0  0  0
   22.0604  -10.7424  -16.1881 N   0  0  0  0  0  0  0  0  0  0  0  0
   22.9230  -11.8853  -16.1080 C   0  0  0  0  0  0  0  0  0  0  0  0
   23.8829  -11.6057  -14.9421 C   0  0  0  0  0  0  0  0  0  0  0  0
   23.8312  -10.1022  -14.8245 C   0  0  0  0  0  0  0  0  0  0  0  0
   22.3485   -9.8536  -15.1176 C   0  0  1  0  0  0  0  0  0  0  0  0
   22.1798   -8.4082  -15.4608 C   0  0  0  0  0  0  0  0  0  0  0  0
   22.6360   -8.0171  -16.5602 O   0  0  0  0  0  0  0  0  0  0  0  0
   21.5381   -7.4590  -14.6279 N   0  0  0  0  0  0  0  0  0  0  0  0
   21.4899   -6.0405  -14.9560 C   0  0  1  0  0  0  0  0  0  0  0  0
   19.9942   -5.6812  -14.9948 C   0  0  0  0  0  0  0  0  0  0  0  0
   19.8041   -4.2504  -15.3008 C   0  0  0  0  0  0  0  0  0  0  0  0
   20.4677   -3.7129  -16.2201 O   0  0  0  0  0  0  0  0  0  0  0  0
   22.1521   -5.2163  -13.9411 C   0  0  0  0  0  0  0  0  0  0  0  0
   22.7579   -4.0304  -14.4021 O   0  0  0  0  0  0  0  0  0  0  0  0
   18.8981   -3.4768  -14.5865 O   0  0  0  0  0  0  0  0  0  0  0  0
   22.2401   -5.4399  -12.7165 O   0  0  0  0  0  0  0  0  0  0  0  0
  2  1  1  6
  3  2  1  0
  4  5  2  0
  4  2  1  0
  6  4  1  0
  7  6  1  0
  8  7  1  0
  9  8  1  0
  9 10  1  0
 10 11  1  6
 10  6  1  0
 11 13  1  0
 12 11  2  0
 13 14  1  0
 14 15  1  1
 14 18  1  0
 16 20  1  0
 16 15  1  0
 17 16  2  0
 18 21  2  0
 18 19  1  0
M  END
$$$$
