APD.pdb
     RDKit          3D

 21 21  0  0  1  0  0  0  0  0999 V2000
   27.1585  -17.6210  -14.7330 C   0  0  0  0  0  0  0  0  0  0  0  0
   27.3849  -19.0979  -15.0599 C   0  0  2  0  0  0  0  0  0  0  0  0
   27.6879  -19.1817  -16.4446 N   0  0  0  0  0  0  0  0  0  0  0  0
   26.2864  -19.9394  -14.5743 C   0  0  0  0  0  0  0  0  0  0  0  0
   25.2706  -20.0674  -15.2687 O   0  0  0  0  0  0  0  0  0  0  0  0
   26.3399  -20.6265  -13.3137 N   0  0  0  0  0  0  0  0  0  0  0  0
   27.5768  -20.8327  -12.6179 C   0  0  0  0  0  0  0  0  0  0  0  0
   27.2039  -21.5087  -11.2902 C   0  0  0  0  0  0  0  0  0  0  0  0
   25.7543  -21.1256  -11.1198 C   0  0  0  0  0  0  0  0  0  0  0  0
   25.2753  -21.2063  -12.5724 C   0  0  1  0  0  0  0  0  0  0  0  0
   23.9822  -20.4629  -12.6761 C   0  0  0  0  0  0  0  0  0  0  0  0
   23.8873  -19.3775  -12.0576 O   0  0  0  0  0  0  0  0  0  0  0  0
   22.8653  -20.9040  -13.4273 N   0  0  0  0  0  0  0  0  0  0  0  0
   21.6366  -20.1275  -13.5260 C   0  0  1  0  0  0  0  0  0  0  0  0
   21.5152  -19.7428  -15.0109 C   0  0  0  0  0  0  0  0  0  0  0  0
   20.2846  -18.9661  -15.2548 C   0  0  0  0  0  0  0  0  0  0  0  0
   19.6212  -18.5232  -14.2863 O   0  0  0  0  0  0  0  0  0  0  0  0
   20.4581  -20.9073  -13.1375 C   0  0  0  0  0  0  0  0  0  0  0  0
   20.4970  -22.2835  -13.4380 O   0  0  0  0  0  0  0  0  0  0  0  0
   19.8390  -18.7120  -16.5457 O   0  0  0  0  0  0  0  0  0  0  0  0
   19.4257  -20.4963  -12.5695 O   0  0  0  0  0  0  0  0  0  0  0  0
  2  1  1  6
  3  2  1  0
  4  5  2  0
  4  2  1  0
  6  4  1  0
  7  6  1  0
  8  7  1  0
  9  8  1  0
  9 10  1  0
 10 11  1  1
 10  6  1  0
 11 13  1  0
 12 11  2  0
 13 14  1  0
 14 15  1  6
 14 18  1  0
 16 20  1  0
 16 15  1  0
 17 16  2  0
 18 21  2  0
 18 19  1  0
M  END
$$$$
