APD.pdb
     RDKit          3D

 21 21  0  0  1  0  0  0  0  0999 V2000
   40.0844  -10.6647   -8.3884 C   0  0  0  0  0  0  0  0  0  0  0  0
   40.6003  -11.0568   -7.0029 C   0  0  2  0  0  0  0  0  0  0  0  0
   39.4966  -11.0027   -6.1111 N   0  0  0  0  0  0  0  0  0  0  0  0
   41.7901  -10.2872   -6.6251 C   0  0  0  0  0  0  0  0  0  0  0  0
   41.6519   -9.1458   -6.1686 O   0  0  0  0  0  0  0  0  0  0  0  0
   43.1220  -10.8072   -6.7658 N   0  0  0  0  0  0  0  0  0  0  0  0
   43.3651  -12.1738   -7.1260 C   0  0  0  0  0  0  0  0  0  0  0  0
   44.8890  -12.3070   -7.2635 C   0  0  0  0  0  0  0  0  0  0  0  0
   45.3249  -10.8827   -7.5053 C   0  0  0  0  0  0  0  0  0  0  0  0
   44.3611  -10.1380   -6.5764 C   0  0  1  0  0  0  0  0  0  0  0  0
   44.3468   -8.6987   -6.9808 C   0  0  0  0  0  0  0  0  0  0  0  0
   43.9927   -8.4300   -8.1522 O   0  0  0  0  0  0  0  0  0  0  0  0
   44.7032   -7.6257   -6.1276 N   0  0  0  0  0  0  0  0  0  0  0  0
   44.6953   -6.2390   -6.5742 C   0  0  1  0  0  0  0  0  0  0  0  0
   43.5148   -5.5804   -5.8392 C   0  0  0  0  0  0  0  0  0  0  0  0
   43.4198   -4.1465   -6.1742 C   0  0  0  0  0  0  0  0  0  0  0  0
   43.5182   -3.7745   -7.3684 O   0  0  0  0  0  0  0  0  0  0  0  0
   45.9311   -5.5369   -6.2169 C   0  0  0  0  0  0  0  0  0  0  0  0
   46.6715   -6.0857   -5.1508 O   0  0  0  0  0  0  0  0  0  0  0  0
   43.2224   -3.1893   -5.1871 O   0  0  0  0  0  0  0  0  0  0  0  0
   46.4062   -4.5122   -6.7476 O   0  0  0  0  0  0  0  0  0  0  0  0
  2  1  1  6
  3  2  1  0
  4  5  2  0
  4  2  1  0
  6  4  1  0
  7  6  1  0
  8  7  1  0
  9  8  1  0
  9 10  1  0
 10 11  1  6
 10  6  1  0
 11 13  1  0
 12 11  2  0
 13 14  1  0
 14 15  1  1
 14 18  1  0
 16 20  1  0
 16 15  1  0
 17 16  2  0
 18 21  2  0
 18 19  1  0
M  END
$$$$
