MKS.pdb
     RDKit          3D

 24 23  0  0  1  0  0  0  0  0999 V2000
    7.3599  -11.1475   26.6856 C   0  0  0  0  0  0  0  0  0  0  0  0
    6.3488  -12.2724   27.7067 S   0  0  0  0  0  0  0  0  0  0  0  0
    5.9469  -13.7054   26.6769 C   0  0  0  0  0  0  0  0  0  0  0  0
    7.1626  -14.1816   25.8884 C   0  0  0  0  0  0  0  0  0  0  0  0
    6.6514  -15.2519   24.9447 C   0  0  2  0  0  0  0  0  0  0  0  0
    6.2200  -16.3637   25.7716 N   0  0  0  0  0  0  0  0  0  0  0  0
    7.6628  -15.6847   23.9743 C   0  0  0  0  0  0  0  0  0  0  0  0
    8.1927  -16.8235   24.1007 O   0  0  0  0  0  0  0  0  0  0  0  0
    8.0772  -14.8876   22.8983 N   0  0  0  0  0  0  0  0  0  0  0  0
    8.9446  -15.4260   21.8061 C   0  0  1  0  0  0  0  0  0  0  0  0
    9.0198  -14.4023   20.7180 C   0  0  0  0  0  0  0  0  0  0  0  0
    7.9337  -14.3816   19.7172 C   0  0  0  0  0  0  0  0  0  0  0  0
    8.3993  -13.6645   18.4714 C   0  0  0  0  0  0  0  0  0  0  0  0
    7.2593  -13.6988   17.4588 C   0  0  0  0  0  0  0  0  0  0  0  0
    7.6923  -12.8978   16.3028 N   0  0  0  0  0  0  0  0  0  0  0  0
   10.2327  -15.7423   22.4554 C   0  0  0  0  0  0  0  0  0  0  0  0
   10.6637  -14.9577   23.3745 O   0  0  0  0  0  0  0  0  0  0  0  0
   11.5739  -18.8641   24.0749 O   0  0  0  0  0  0  0  0  0  0  0  0
   12.5221  -18.4806   23.1131 C   0  0  0  0  0  0  0  0  0  0  0  0
   12.3893  -17.0051   22.7879 C   0  0  2  0  0  0  0  0  0  0  0  0
   11.0717  -16.8304   22.1875 N   0  0  0  0  0  0  0  0  0  0  0  0
   13.4670  -16.6708   21.8209 C   0  0  0  0  0  0  0  0  0  0  0  0
   13.1351  -16.3195   20.6735 O   0  0  0  0  0  0  0  0  0  0  0  0
   14.8089  -16.7418   22.1663 O   0  0  0  0  0  0  0  0  0  0  0  0
  2  1  1  0
  3  2  1  0
  4  3  1  0
  5  4  1  0
  5  7  1  0
  5  6  1  1
  7  9  1  0
  7  8  2  0
  9 10  1  0
 10 11  1  6
 12 11  1  0
 13 12  1  0
 13 14  1  0
 15 14  1  0
 16 21  1  0
 16 10  1  0
 17 16  2  0
 20 19  1  6
 19 18  1  0
 20 22  1  0
 20 21  1  0
 22 24  1  0
 23 22  2  0
M  END
$$$$
