MKS.pdb
     RDKit          3D

 24 23  0  0  1  0  0  0  0  0999 V2000
    5.3266  -12.3848   26.7075 C   0  0  0  0  0  0  0  0  0  0  0  0
    7.1319  -12.2374   26.9300 S   0  0  0  0  0  0  0  0  0  0  0  0
    7.8861  -13.6539   26.0932 C   0  0  0  0  0  0  0  0  0  0  0  0
    7.1394  -14.9466   26.4062 C   0  0  0  0  0  0  0  0  0  0  0  0
    6.4447  -15.3459   25.1197 C   0  0  2  0  0  0  0  0  0  0  0  0
    5.7046  -16.5607   25.4065 N   0  0  0  0  0  0  0  0  0  0  0  0
    7.3804  -15.5546   24.0093 C   0  0  0  0  0  0  0  0  0  0  0  0
    7.9643  -16.6680   23.8946 O   0  0  0  0  0  0  0  0  0  0  0  0
    7.6638  -14.5674   23.0554 N   0  0  0  0  0  0  0  0  0  0  0  0
    8.4656  -14.8632   21.8286 C   0  0  1  0  0  0  0  0  0  0  0  0
    8.5561  -13.6122   21.0136 C   0  0  0  0  0  0  0  0  0  0  0  0
    7.6773  -13.4962   19.8321 C   0  0  0  0  0  0  0  0  0  0  0  0
    8.4794  -13.7281   18.5728 C   0  0  0  0  0  0  0  0  0  0  0  0
    7.5309  -13.6038   17.3850 C   0  0  0  0  0  0  0  0  0  0  0  0
    8.3292  -13.8545   16.1745 N   0  0  0  0  0  0  0  0  0  0  0  0
    9.7570  -15.3791   22.3255 C   0  0  0  0  0  0  0  0  0  0  0  0
   10.3440  -14.7468   23.2751 O   0  0  0  0  0  0  0  0  0  0  0  0
   10.8131  -18.6256   23.5666 O   0  0  0  0  0  0  0  0  0  0  0  0
   11.8007  -18.3308   22.6133 C   0  0  0  0  0  0  0  0  0  0  0  0
   11.8042  -16.8498   22.2853 C   0  0  2  0  0  0  0  0  0  0  0  0
   10.4451  -16.5128   21.8776 N   0  0  0  0  0  0  0  0  0  0  0  0
   12.7634  -16.6508   21.1679 C   0  0  0  0  0  0  0  0  0  0  0  0
   12.3133  -16.2700   20.0714 O   0  0  0  0  0  0  0  0  0  0  0  0
   14.1237  -16.8772   21.3212 O   0  0  0  0  0  0  0  0  0  0  0  0
  2  1  1  0
  3  2  1  0
  4  3  1  0
  5  4  1  0
  5  7  1  0
  5  6  1  1
  7  9  1  0
  7  8  2  0
  9 10  1  0
 10 11  1  1
 12 11  1  0
 13 12  1  0
 13 14  1  0
 15 14  1  0
 16 21  1  0
 16 10  1  0
 17 16  2  0
 20 19  1  6
 19 18  1  0
 20 22  1  0
 20 21  1  0
 22 24  1  0
 23 22  2  0
M  END
$$$$
