MKS.pdb
     RDKit          3D

 24 23  0  0  1  0  0  0  0  0999 V2000
    8.9827  -12.2119   18.6821 C   0  0  0  0  0  0  0  0  0  0  0  0
    7.2352  -12.1320   19.2018 S   0  0  0  0  0  0  0  0  0  0  0  0
    6.7519  -13.8051   19.6944 C   0  0  0  0  0  0  0  0  0  0  0  0
    7.8032  -14.4446   20.5956 C   0  0  0  0  0  0  0  0  0  0  0  0
    7.4094  -15.9028   20.7219 C   0  0  2  0  0  0  0  0  0  0  0  0
    6.1752  -15.9356   21.4845 N   0  0  0  0  0  0  0  0  0  0  0  0
    8.4442  -16.7174   21.3682 C   0  0  0  0  0  0  0  0  0  0  0  0
    8.4780  -16.7870   22.6283 O   0  0  0  0  0  0  0  0  0  0  0  0
    9.4113  -17.4327   20.6486 N   0  0  0  0  0  0  0  0  0  0  0  0
   10.4865  -18.2137   21.3337 C   0  0  1  0  0  0  0  0  0  0  0  0
   11.0506  -19.1946   20.3554 C   0  0  0  0  0  0  0  0  0  0  0  0
   12.2240  -19.9872   20.7755 C   0  0  0  0  0  0  0  0  0  0  0  0
   11.8519  -21.4495   20.8554 C   0  0  0  0  0  0  0  0  0  0  0  0
   13.1117  -22.2337   21.2076 C   0  0  0  0  0  0  0  0  0  0  0  0
   12.7253  -23.6520   21.2756 N   0  0  0  0  0  0  0  0  0  0  0  0
   11.4439  -17.2033   21.8271 C   0  0  0  0  0  0  0  0  0  0  0  0
   11.1289  -15.9634   21.7308 O   0  0  0  0  0  0  0  0  0  0  0  0
   12.7253  -17.1752   25.3532 O   0  0  0  0  0  0  0  0  0  0  0  0
   12.5975  -16.1426   24.4106 C   0  0  0  0  0  0  0  0  0  0  0  0
   13.4301  -16.4365   23.1772 C   0  0  2  0  0  0  0  0  0  0  0  0
   12.6952  -17.4357   22.4100 N   0  0  0  0  0  0  0  0  0  0  0  0
   14.7336  -16.9740   23.6465 C   0  0  0  0  0  0  0  0  0  0  0  0
   15.5294  -16.1863   24.1909 O   0  0  0  0  0  0  0  0  0  0  0  0
   15.0731  -18.3105   23.4920 O   0  0  0  0  0  0  0  0  0  0  0  0
  2  1  1  0
  3  2  1  0
  4  3  1  0
  5  4  1  0
  5  7  1  0
  5  6  1  1
  7  9  1  0
  7  8  2  0
  9 10  1  0
 10 11  1  6
 12 11  1  0
 13 12  1  0
 13 14  1  0
 15 14  1  0
 16 21  1  0
 16 10  1  0
 17 16  2  0
 20 19  1  1
 19 18  1  0
 20 22  1  0
 20 21  1  0
 22 24  1  0
 23 22  2  0
M  END
$$$$
