MKS.pdb
     RDKit          3D

 24 23  0  0  1  0  0  0  0  0999 V2000
    7.3409  -11.0111   26.5259 C   0  0  0  0  0  0  0  0  0  0  0  0
    6.2478  -11.9555   27.6411 S   0  0  0  0  0  0  0  0  0  0  0  0
    5.7968  -13.4795   26.7754 C   0  0  0  0  0  0  0  0  0  0  0  0
    6.9390  -13.9779   25.8959 C   0  0  0  0  0  0  0  0  0  0  0  0
    6.3689  -15.1262   25.0874 C   0  0  2  0  0  0  0  0  0  0  0  0
    6.1004  -16.2014   26.0242 N   0  0  0  0  0  0  0  0  0  0  0  0
    7.2723  -15.5753   24.0223 C   0  0  0  0  0  0  0  0  0  0  0  0
    7.8339  -16.7014   24.1228 O   0  0  0  0  0  0  0  0  0  0  0  0
    7.5479  -14.8077   22.8823 N   0  0  0  0  0  0  0  0  0  0  0  0
    8.3738  -15.3386   21.7548 C   0  0  1  0  0  0  0  0  0  0  0  0
    8.3385  -14.3443   20.6378 C   0  0  0  0  0  0  0  0  0  0  0  0
    8.4055  -14.8604   19.2555 C   0  0  0  0  0  0  0  0  0  0  0  0
    8.4388  -13.7073   18.2797 C   0  0  0  0  0  0  0  0  0  0  0  0
    8.4595  -14.2886   16.8698 C   0  0  0  0  0  0  0  0  0  0  0  0
    8.6815  -13.1631   15.9483 N   0  0  0  0  0  0  0  0  0  0  0  0
    9.7107  -15.5789   22.3343 C   0  0  0  0  0  0  0  0  0  0  0  0
   10.1539  -14.7558   23.2130 O   0  0  0  0  0  0  0  0  0  0  0  0
   13.3242  -18.4568   23.5851 O   0  0  0  0  0  0  0  0  0  0  0  0
   12.0270  -18.1931   23.1171 C   0  0  0  0  0  0  0  0  0  0  0  0
   11.9173  -16.7650   22.6177 C   0  0  2  0  0  0  0  0  0  0  0  0
   10.5859  -16.6304   22.0377 N   0  0  0  0  0  0  0  0  0  0  0  0
   12.9716  -16.5790   21.5872 C   0  0  0  0  0  0  0  0  0  0  0  0
   12.6193  -16.5132   20.3949 O   0  0  0  0  0  0  0  0  0  0  0  0
   14.3143  -16.4794   21.9227 O   0  0  0  0  0  0  0  0  0  0  0  0
  2  1  1  0
  3  2  1  0
  4  3  1  0
  5  4  1  0
  5  7  1  0
  5  6  1  1
  7  9  1  0
  7  8  2  0
  9 10  1  0
 10 11  1  6
 12 11  1  0
 13 12  1  0
 13 14  1  0
 15 14  1  0
 16 21  1  0
 16 10  1  0
 17 16  2  0
 20 19  1  6
 19 18  1  0
 20 22  1  0
 20 21  1  0
 22 24  1  0
 23 22  2  0
M  END
$$$$
