MKS.pdb
     RDKit          3D

 24 23  0  0  1  0  0  0  0  0999 V2000
    7.4651  -11.3412   26.9133 C   0  0  0  0  0  0  0  0  0  0  0  0
    6.4980  -12.4145   28.0282 S   0  0  0  0  0  0  0  0  0  0  0  0
    6.0400  -13.8869   27.0808 C   0  0  0  0  0  0  0  0  0  0  0  0
    7.1153  -14.2484   26.0611 C   0  0  0  0  0  0  0  0  0  0  0  0
    6.5228  -15.3516   25.2073 C   0  0  2  0  0  0  0  0  0  0  0  0
    6.4195  -16.5242   26.0559 N   0  0  0  0  0  0  0  0  0  0  0  0
    7.3254  -15.6401   24.0137 C   0  0  0  0  0  0  0  0  0  0  0  0
    7.9360  -16.7419   23.9315 O   0  0  0  0  0  0  0  0  0  0  0  0
    7.4512  -14.7426   22.9443 N   0  0  0  0  0  0  0  0  0  0  0  0
    8.2742  -15.0633   21.7381 C   0  0  1  0  0  0  0  0  0  0  0  0
    8.1064  -13.9558   20.7468 C   0  0  0  0  0  0  0  0  0  0  0  0
    8.9078  -14.0150   19.5075 C   0  0  0  0  0  0  0  0  0  0  0  0
    8.0327  -13.7009   18.3165 C   0  0  0  0  0  0  0  0  0  0  0  0
    8.8888  -13.8289   17.0608 C   0  0  0  0  0  0  0  0  0  0  0  0
    7.9750  -13.7366   15.9111 N   0  0  0  0  0  0  0  0  0  0  0  0
    9.6494  -15.2442   22.2450 C   0  0  0  0  0  0  0  0  0  0  0  0
   10.1176  -14.3775   23.0669 O   0  0  0  0  0  0  0  0  0  0  0  0
   11.4617  -18.6521   22.5898 O   0  0  0  0  0  0  0  0  0  0  0  0
   12.1051  -17.5601   23.1937 C   0  0  0  0  0  0  0  0  0  0  0  0
   11.9329  -16.3066   22.3571 C   0  0  2  0  0  0  0  0  0  0  0  0
   10.5377  -16.2801   21.9332 N   0  0  0  0  0  0  0  0  0  0  0  0
   12.8448  -16.4301   21.1902 C   0  0  0  0  0  0  0  0  0  0  0  0
   14.0714  -16.4272   21.4033 O   0  0  0  0  0  0  0  0  0  0  0  0
   12.3638  -16.5462   19.8939 O   0  0  0  0  0  0  0  0  0  0  0  0
  2  1  1  0
  3  2  1  0
  4  3  1  0
  5  4  1  0
  5  7  1  0
  5  6  1  1
  7  9  1  0
  7  8  2  0
  9 10  1  0
 10 11  1  6
 12 11  1  0
 13 12  1  0
 13 14  1  0
 15 14  1  0
 16 21  1  0
 16 10  1  0
 17 16  2  0
 20 19  1  1
 19 18  1  0
 20 22  1  0
 20 21  1  0
 22 24  1  0
 23 22  2  0
M  END
$$$$
