MKS.pdb
     RDKit          3D

 24 23  0  0  1  0  0  0  0  0999 V2000
    7.8205  -11.1909   26.5003 C   0  0  0  0  0  0  0  0  0  0  0  0
    6.1004  -11.8000   26.4780 S   0  0  0  0  0  0  0  0  0  0  0  0
    6.1105  -13.4434   27.2357 C   0  0  0  0  0  0  0  0  0  0  0  0
    7.1562  -14.3468   26.5900 C   0  0  0  0  0  0  0  0  0  0  0  0
    6.4726  -14.9855   25.3975 C   0  0  2  0  0  0  0  0  0  0  0  0
    5.5047  -15.9275   25.9282 N   0  0  0  0  0  0  0  0  0  0  0  0
    7.4140  -15.6573   24.4949 C   0  0  0  0  0  0  0  0  0  0  0  0
    7.6924  -16.8736   24.6867 O   0  0  0  0  0  0  0  0  0  0  0  0
    8.0293  -15.0091   23.4151 N   0  0  0  0  0  0  0  0  0  0  0  0
    8.8719  -15.7497   22.4268 C   0  0  1  0  0  0  0  0  0  0  0  0
    9.1565  -14.8381   21.2755 C   0  0  0  0  0  0  0  0  0  0  0  0
    8.0282  -14.4661   20.3978 C   0  0  0  0  0  0  0  0  0  0  0  0
    8.5369  -13.6639   19.2227 C   0  0  0  0  0  0  0  0  0  0  0  0
    7.3666  -13.4344   18.2720 C   0  0  0  0  0  0  0  0  0  0  0  0
    7.8632  -12.5758   17.1849 N   0  0  0  0  0  0  0  0  0  0  0  0
   10.0612  -16.1884   23.1843 C   0  0  0  0  0  0  0  0  0  0  0  0
   10.7265  -15.3100   23.8415 O   0  0  0  0  0  0  0  0  0  0  0  0
   10.9852  -20.0273   23.4981 O   0  0  0  0  0  0  0  0  0  0  0  0
   11.6776  -19.2528   24.4424 C   0  0  0  0  0  0  0  0  0  0  0  0
   11.8179  -17.8209   23.9622 C   0  0  2  0  0  0  0  0  0  0  0  0
   10.5714  -17.4883   23.2819 N   0  0  0  0  0  0  0  0  0  0  0  0
   12.9675  -17.7851   23.0212 C   0  0  0  0  0  0  0  0  0  0  0  0
   12.7401  -17.5029   21.8301 O   0  0  0  0  0  0  0  0  0  0  0  0
   14.2634  -18.0549   23.4374 O   0  0  0  0  0  0  0  0  0  0  0  0
  2  1  1  0
  3  2  1  0
  4  3  1  0
  5  4  1  0
  5  7  1  0
  5  6  1  1
  7  9  1  0
  7  8  2  0
  9 10  1  0
 10 11  1  6
 12 11  1  0
 13 12  1  0
 13 14  1  0
 15 14  1  0
 16 21  1  0
 16 10  1  0
 17 16  2  0
 20 19  1  6
 19 18  1  0
 20 22  1  0
 20 21  1  0
 22 24  1  0
 23 22  2  0
M  END
$$$$
