MKS.pdb
     RDKit          3D

 24 23  0  0  1  0  0  0  0  0999 V2000
    7.0328  -11.0633   26.5170 C   0  0  0  0  0  0  0  0  0  0  0  0
    6.4740  -12.3422   27.6929 S   0  0  0  0  0  0  0  0  0  0  0  0
    6.0184  -13.7965   26.7169 C   0  0  0  0  0  0  0  0  0  0  0  0
    7.1916  -14.2925   25.8777 C   0  0  0  0  0  0  0  0  0  0  0  0
    6.6387  -15.4042   25.0084 C   0  0  2  0  0  0  0  0  0  0  0  0
    6.3094  -16.5027   25.8976 N   0  0  0  0  0  0  0  0  0  0  0  0
    7.5812  -15.8370   23.9709 C   0  0  0  0  0  0  0  0  0  0  0  0
    8.0390  -17.0130   24.0041 O   0  0  0  0  0  0  0  0  0  0  0  0
    8.0059  -15.0002   22.9297 N   0  0  0  0  0  0  0  0  0  0  0  0
    8.9004  -15.4921   21.8374 C   0  0  1  0  0  0  0  0  0  0  0  0
    8.9450  -14.4527   20.7626 C   0  0  0  0  0  0  0  0  0  0  0  0
    8.3004  -14.7700   19.4721 C   0  0  0  0  0  0  0  0  0  0  0  0
    8.4616  -13.6078   18.5200 C   0  0  0  0  0  0  0  0  0  0  0  0
    7.7162  -13.9501   17.2342 C   0  0  0  0  0  0  0  0  0  0  0  0
    7.9154  -12.8202   16.3128 N   0  0  0  0  0  0  0  0  0  0  0  0
   10.1948  -15.7685   22.4923 C   0  0  0  0  0  0  0  0  0  0  0  0
   10.6812  -14.8840   23.2842 O   0  0  0  0  0  0  0  0  0  0  0  0
   11.3984  -19.2808   23.3243 O   0  0  0  0  0  0  0  0  0  0  0  0
   12.1853  -18.2736   23.9052 C   0  0  0  0  0  0  0  0  0  0  0  0
   12.2940  -17.0772   22.9791 C   0  0  2  0  0  0  0  0  0  0  0  0
   10.9853  -16.9157   22.3559 N   0  0  0  0  0  0  0  0  0  0  0  0
   13.3330  -17.3997   21.9668 C   0  0  0  0  0  0  0  0  0  0  0  0
   14.4902  -17.6243   22.3673 O   0  0  0  0  0  0  0  0  0  0  0  0
   13.0427  -17.4540   20.6111 O   0  0  0  0  0  0  0  0  0  0  0  0
  2  1  1  0
  3  2  1  0
  4  3  1  0
  5  4  1  0
  5  7  1  0
  5  6  1  1
  7  9  1  0
  7  8  2  0
  9 10  1  0
 10 11  1  6
 12 11  1  0
 13 12  1  0
 13 14  1  0
 15 14  1  0
 16 21  1  0
 16 10  1  0
 17 16  2  0
 20 19  1  1
 19 18  1  0
 20 22  1  0
 20 21  1  0
 22 24  1  0
 23 22  2  0
M  END
$$$$
