MKS.pdb
     RDKit          3D

 24 23  0  0  1  0  0  0  0  0999 V2000
    7.4671  -11.4427   26.9426 C   0  0  0  0  0  0  0  0  0  0  0  0
    5.8395  -12.1972   27.2777 S   0  0  0  0  0  0  0  0  0  0  0  0
    6.0814  -13.9906   27.2995 C   0  0  0  0  0  0  0  0  0  0  0  0
    7.2178  -14.4095   26.3724 C   0  0  0  0  0  0  0  0  0  0  0  0
    6.6178  -15.4139   25.4088 C   0  0  2  0  0  0  0  0  0  0  0  0
    6.3516  -16.6173   26.1749 N   0  0  0  0  0  0  0  0  0  0  0  0
    7.4956  -15.7038   24.2698 C   0  0  0  0  0  0  0  0  0  0  0  0
    8.2233  -16.7350   24.2976 O   0  0  0  0  0  0  0  0  0  0  0  0
    7.5693  -14.8831   23.1359 N   0  0  0  0  0  0  0  0  0  0  0  0
    8.4367  -15.2276   21.9679 C   0  0  1  0  0  0  0  0  0  0  0  0
    8.0350  -14.3651   20.8137 C   0  0  0  0  0  0  0  0  0  0  0  0
    8.6586  -14.6367   19.5026 C   0  0  0  0  0  0  0  0  0  0  0  0
    8.0236  -13.7659   18.4436 C   0  0  0  0  0  0  0  0  0  0  0  0
    8.5511  -14.2205   17.0867 C   0  0  0  0  0  0  0  0  0  0  0  0
    7.8890  -13.3864   16.0712 N   0  0  0  0  0  0  0  0  0  0  0  0
    9.8211  -15.0300   22.4426 C   0  0  0  0  0  0  0  0  0  0  0  0
   10.0033  -14.4640   23.5795 O   0  0  0  0  0  0  0  0  0  0  0  0
   12.5656  -18.0806   23.6803 O   0  0  0  0  0  0  0  0  0  0  0  0
   11.5428  -17.2972   23.1222 C   0  0  0  0  0  0  0  0  0  0  0  0
   12.1182  -16.0690   22.4431 C   0  0  2  0  0  0  0  0  0  0  0  0
   11.0020  -15.3976   21.7869 N   0  0  0  0  0  0  0  0  0  0  0  0
   13.1158  -16.5444   21.4497 C   0  0  0  0  0  0  0  0  0  0  0  0
   14.3226  -16.3782   21.7068 O   0  0  0  0  0  0  0  0  0  0  0  0
   12.7347  -17.1577   20.2649 O   0  0  0  0  0  0  0  0  0  0  0  0
  2  1  1  0
  3  2  1  0
  4  3  1  0
  5  4  1  0
  5  7  1  0
  5  6  1  1
  7  9  1  0
  7  8  2  0
  9 10  1  0
 10 11  1  6
 12 11  1  0
 13 12  1  0
 13 14  1  0
 15 14  1  0
 16 21  1  0
 16 10  1  0
 17 16  2  0
 20 19  1  6
 19 18  1  0
 20 22  1  0
 20 21  1  0
 22 24  1  0
 23 22  2  0
M  END
$$$$
