MKS.pdb
     RDKit          3D

 24 23  0  0  1  0  0  0  0  0999 V2000
    6.9523  -11.2162   26.7676 C   0  0  0  0  0  0  0  0  0  0  0  0
    6.6076  -12.4244   28.0912 S   0  0  0  0  0  0  0  0  0  0  0  0
    6.1727  -13.9847   27.2839 C   0  0  0  0  0  0  0  0  0  0  0  0
    7.2245  -14.3911   26.2567 C   0  0  0  0  0  0  0  0  0  0  0  0
    6.6290  -15.5567   25.4925 C   0  0  2  0  0  0  0  0  0  0  0  0
    6.6932  -16.7080   26.3735 N   0  0  0  0  0  0  0  0  0  0  0  0
    7.3272  -15.8255   24.2306 C   0  0  0  0  0  0  0  0  0  0  0  0
    7.8133  -16.9724   24.0259 O   0  0  0  0  0  0  0  0  0  0  0  0
    7.4848  -14.8608   23.2260 N   0  0  0  0  0  0  0  0  0  0  0  0
    8.0941  -15.1933   21.9018 C   0  0  1  0  0  0  0  0  0  0  0  0
    7.8158  -14.0650   20.9600 C   0  0  0  0  0  0  0  0  0  0  0  0
    8.3504  -14.1678   19.5869 C   0  0  0  0  0  0  0  0  0  0  0  0
    7.8657  -12.9996   18.7602 C   0  0  0  0  0  0  0  0  0  0  0  0
    8.4471  -13.1464   17.3579 C   0  0  0  0  0  0  0  0  0  0  0  0
    7.9297  -14.4114   16.8126 N   0  0  0  0  0  0  0  0  0  0  0  0
    9.5239  -15.4331   22.1832 C   0  0  0  0  0  0  0  0  0  0  0  0
   10.1331  -14.6340   22.9809 O   0  0  0  0  0  0  0  0  0  0  0  0
   11.0740  -18.8987   21.8539 O   0  0  0  0  0  0  0  0  0  0  0  0
   11.9531  -18.0038   22.4844 C   0  0  0  0  0  0  0  0  0  0  0  0
   11.7504  -16.5947   21.9608 C   0  0  2  0  0  0  0  0  0  0  0  0
   10.3267  -16.4605   21.6738 N   0  0  0  0  0  0  0  0  0  0  0  0
   12.5607  -16.4670   20.7217 C   0  0  0  0  0  0  0  0  0  0  0  0
   11.9651  -16.2262   19.6553 O   0  0  0  0  0  0  0  0  0  0  0  0
   13.9410  -16.6083   20.7315 O   0  0  0  0  0  0  0  0  0  0  0  0
  2  1  1  0
  3  2  1  0
  4  3  1  0
  5  4  1  0
  5  7  1  0
  5  6  1  1
  7  9  1  0
  7  8  2  0
  9 10  1  0
 10 11  1  6
 12 11  1  0
 13 12  1  0
 13 14  1  0
 15 14  1  0
 16 21  1  0
 16 10  1  0
 17 16  2  0
 20 19  1  6
 19 18  1  0
 20 22  1  0
 20 21  1  0
 22 24  1  0
 23 22  2  0
M  END
$$$$
