RPI.pdb
     RDKit          3D

 27 27  0  0  1  0  0  0  0  0999 V2000
   20.1714  -18.4331  -15.2871 N   0  0  0  0  0  0  0  0  0  0  0  0
   20.9165  -19.6556  -15.2562 C   0  0  0  0  0  0  0  0  0  0  0  0
   20.5605  -20.6450  -15.9857 N   0  0  0  0  0  0  0  0  0  0  0  0
   22.0629  -19.7620  -14.4002 N   0  0  0  0  0  0  0  0  0  0  0  0
   22.9155  -18.6490  -14.1049 C   0  0  0  0  0  0  0  0  0  0  0  0
   24.2498  -19.0754  -13.4890 C   0  0  0  0  0  0  0  0  0  0  0  0
   23.9228  -20.1397  -12.4778 C   0  0  0  0  0  0  0  0  0  0  0  0
   24.7849  -21.3829  -12.6342 C   0  0  2  0  0  0  0  0  0  0  0  0
   24.0374  -22.4889  -13.1666 N   0  0  0  0  0  0  0  0  0  0  0  0
   25.5886  -21.6662  -11.4472 C   0  0  0  0  0  0  0  0  0  0  0  0
   25.0191  -22.3299  -10.5103 O   0  0  0  0  0  0  0  0  0  0  0  0
   21.0769  -21.5462  -15.9004 N   0  0  0  0  0  0  0  0  0  0  0  0
   26.9414  -21.2783  -11.2229 C   0  0  0  0  0  0  0  0  0  0  0  0
   27.8147  -20.4437  -12.0079 C   0  0  0  0  0  0  0  0  0  0  0  0
   29.1539  -21.1148  -11.8617 C   0  0  0  0  0  0  0  0  0  0  0  0
   29.0688  -21.9691  -10.6205 C   0  0  1  0  0  0  0  0  0  0  0  0
   27.7257  -21.6868  -10.0778 C   0  0  0  0  0  0  0  0  0  0  0  0
   27.6810  -20.7016   -8.9778 O   0  0  0  0  0  0  0  0  0  0  0  0
   27.3375  -19.5295   -9.2560 C   0  0  0  0  0  0  0  0  0  0  0  0
   27.2961  -22.2634   -3.5335 C   0  0  0  0  0  0  0  0  0  0  0  0
   27.0464  -21.5213   -4.8011 C   0  0  2  0  0  0  0  0  0  0  0  0
   28.1530  -20.6314   -5.2584 C   0  0  0  0  0  0  0  0  0  0  0  0
   28.3283  -19.5350   -4.2156 C   0  0  2  0  0  0  0  0  0  0  0  0
   27.9537  -19.9798   -6.5813 N   0  0  0  0  0  0  0  0  0  0  0  0
   28.0014  -20.9884   -7.6217 C   0  0  0  0  0  0  0  0  0  0  0  0
   28.8439  -18.8411   -6.8629 O   0  0  0  0  0  0  0  0  0  0  0  0
   28.4477  -17.5667   -6.5343 O   0  0  0  0  0  0  0  0  0  0  0  0
  2  4  1  0
  2  1  1  0
  3  2  2  0
  5  4  1  0
  6  5  1  0
  7  6  1  0
  8  7  1  0
  8  9  1  1
 10  8  1  0
 11 10  2  0
 12 16  1  0
 12 10  1  0
 13 14  1  0
 13 12  1  0
 14 15  1  0
 15 16  1  0
 16 17  1  1
 18 17  2  0
 19 20  1  0
 20 21  1  0
 21 22  1  6
 23 21  1  0
 23 24  1  6
 24 17  1  0
 25 26  1  0
 25 23  1  0
 27 25  2  0
M  END
$$$$
