RPI.pdb
     RDKit          3D

 27 27  0  0  1  0  0  0  0  0999 V2000
   23.7677  -27.4916  -18.5758 N   0  0  0  0  0  0  0  0  0  0  0  0
   24.8202  -27.9206  -17.7048 C   0  0  0  0  0  0  0  0  0  0  0  0
   25.2398  -29.1289  -17.7488 N   0  0  0  0  0  0  0  0  0  0  0  0
   25.3983  -26.9861  -16.7824 N   0  0  0  0  0  0  0  0  0  0  0  0
   24.9433  -25.6327  -16.6633 C   0  0  0  0  0  0  0  0  0  0  0  0
   25.7004  -24.6729  -17.5838 C   0  0  0  0  0  0  0  0  0  0  0  0
   25.8874  -23.4024  -16.8009 C   0  0  0  0  0  0  0  0  0  0  0  0
   27.3476  -22.9922  -16.6874 C   0  0  2  0  0  0  0  0  0  0  0  0
   28.2277  -24.1274  -16.7372 N   0  0  0  0  0  0  0  0  0  0  0  0
   27.5857  -22.0454  -15.6003 C   0  0  0  0  0  0  0  0  0  0  0  0
   28.3826  -22.4237  -14.6705 O   0  0  0  0  0  0  0  0  0  0  0  0
   26.0168  -29.4164  -17.1166 N   0  0  0  0  0  0  0  0  0  0  0  0
   27.0209  -20.7440  -15.4661 C   0  0  0  0  0  0  0  0  0  0  0  0
   26.1470  -20.0113  -16.3464 C   0  0  0  0  0  0  0  0  0  0  0  0
   26.6378  -18.5945  -16.2163 C   0  0  0  0  0  0  0  0  0  0  0  0
   27.4016  -18.5262  -14.9165 C   0  0  1  0  0  0  0  0  0  0  0  0
   27.2449  -19.8727  -14.3330 C   0  0  0  0  0  0  0  0  0  0  0  0
   26.1936  -19.9984  -13.3028 O   0  0  0  0  0  0  0  0  0  0  0  0
   25.1041  -20.5173  -13.6392 C   0  0  0  0  0  0  0  0  0  0  0  0
   28.1607  -19.4575   -8.0867 C   0  0  0  0  0  0  0  0  0  0  0  0
   27.5182  -20.1395   -9.2452 C   0  0  2  0  0  0  0  0  0  0  0  0
   26.1312  -19.6958   -9.5692 C   0  0  0  0  0  0  0  0  0  0  0  0
   25.2137  -20.1915   -8.4588 C   0  0  2  0  0  0  0  0  0  0  0  0
   25.5847  -20.1780  -10.8664 N   0  0  0  0  0  0  0  0  0  0  0  0
   26.3290  -19.5712  -11.9526 C   0  0  0  0  0  0  0  0  0  0  0  0
   24.1292  -20.0279  -11.0315 O   0  0  0  0  0  0  0  0  0  0  0  0
   23.2863  -21.0239  -10.5996 O   0  0  0  0  0  0  0  0  0  0  0  0
  2  4  1  0
  2  1  1  0
  3  2  2  0
  5  4  1  0
  6  5  1  0
  7  6  1  0
  8  7  1  0
  8  9  1  1
 10  8  1  0
 11 10  2  0
 12 16  1  0
 12 10  1  0
 13 14  1  0
 13 12  1  0
 14 15  1  0
 15 16  1  0
 16 17  1  1
 18 17  2  0
 19 20  1  0
 20 21  1  0
 21 22  1  6
 23 21  1  0
 23 24  1  6
 24 17  1  0
 25 26  1  0
 25 23  1  0
 27 25  2  0
M  END
$$$$
