RPI.pdb
     RDKit          3D

 27 27  0  0  1  0  0  0  0  0999 V2000
   21.6052  -17.8446  -13.8592 N   0  0  0  0  0  0  0  0  0  0  0  0
   21.3447  -18.8989  -14.7925 C   0  0  0  0  0  0  0  0  0  0  0  0
   20.9627  -18.6249  -15.9828 N   0  0  0  0  0  0  0  0  0  0  0  0
   21.5137  -20.2630  -14.3818 N   0  0  0  0  0  0  0  0  0  0  0  0
   22.2625  -20.6348  -13.2182 C   0  0  0  0  0  0  0  0  0  0  0  0
   23.7405  -20.2519  -13.3208 C   0  0  0  0  0  0  0  0  0  0  0  0
   24.4102  -20.8398  -12.1091 C   0  0  0  0  0  0  0  0  0  0  0  0
   25.4703  -21.8703  -12.4662 C   0  0  2  0  0  0  0  0  0  0  0  0
   24.8907  -23.0680  -13.0094 N   0  0  0  0  0  0  0  0  0  0  0  0
   26.4539  -22.0609  -11.4026 C   0  0  0  0  0  0  0  0  0  0  0  0
   26.2563  -23.0438  -10.6041 O   0  0  0  0  0  0  0  0  0  0  0  0
   20.8478  -19.4023  -16.6673 N   0  0  0  0  0  0  0  0  0  0  0  0
   27.6105  -21.2645  -11.1601 C   0  0  0  0  0  0  0  0  0  0  0  0
   28.1556  -20.1599  -11.9073 C   0  0  0  0  0  0  0  0  0  0  0  0
   29.6418  -20.3654  -11.7887 C   0  0  0  0  0  0  0  0  0  0  0  0
   29.8545  -21.2514  -10.5857 C   0  0  1  0  0  0  0  0  0  0  0  0
   28.4996  -21.4431  -10.0329 C   0  0  0  0  0  0  0  0  0  0  0  0
   28.1520  -20.5721   -8.8913 O   0  0  0  0  0  0  0  0  0  0  0  0
   27.3526  -19.6298   -9.0969 C   0  0  0  0  0  0  0  0  0  0  0  0
   29.8046  -22.0696   -3.6739 C   0  0  0  0  0  0  0  0  0  0  0  0
   28.9073  -21.6996   -4.8043 C   0  0  2  0  0  0  0  0  0  0  0  0
   28.9703  -20.2743   -5.2405 C   0  0  0  0  0  0  0  0  0  0  0  0
   28.4586  -19.4141   -4.0921 C   0  0  2  0  0  0  0  0  0  0  0  0
   28.1818  -19.9348   -6.4559 N   0  0  0  0  0  0  0  0  0  0  0  0
   28.6613  -20.7262   -7.5720 C   0  0  0  0  0  0  0  0  0  0  0  0
   28.1067  -18.4997   -6.7773 O   0  0  0  0  0  0  0  0  0  0  0  0
   26.9617  -17.7948   -6.4925 O   0  0  0  0  0  0  0  0  0  0  0  0
  2  4  1  0
  2  1  1  0
  3  2  2  0
  5  4  1  0
  6  5  1  0
  7  6  1  0
  8  7  1  0
  8  9  1  1
 10  8  1  0
 11 10  2  0
 12 16  1  0
 12 10  1  0
 13 14  1  0
 13 12  1  0
 14 15  1  0
 15 16  1  0
 16 17  1  1
 18 17  2  0
 19 20  1  0
 20 21  1  0
 21 22  1  6
 23 21  1  0
 23 24  1  1
 24 17  1  0
 25 26  1  0
 25 23  1  0
 27 25  2  0
M  END
$$$$
