RPI.pdb
     RDKit          3D

 27 27  0  0  1  0  0  0  0  0999 V2000
   20.1040  -19.1546  -13.2773 N   0  0  0  0  0  0  0  0  0  0  0  0
   21.4081  -18.8819  -13.8022 C   0  0  0  0  0  0  0  0  0  0  0  0
   21.6220  -17.8117  -14.4706 N   0  0  0  0  0  0  0  0  0  0  0  0
   22.4708  -19.8183  -13.5741 N   0  0  0  0  0  0  0  0  0  0  0  0
   22.6278  -20.5265  -12.3385 C   0  0  0  0  0  0  0  0  0  0  0  0
   24.0244  -20.3588  -11.7361 C   0  0  0  0  0  0  0  0  0  0  0  0
   24.9962  -20.6083  -12.8566 C   0  0  0  0  0  0  0  0  0  0  0  0
   25.7803  -21.8993  -12.6772 C   0  0  2  0  0  0  0  0  0  0  0  0
   24.9671  -23.0580  -12.9254 N   0  0  0  0  0  0  0  0  0  0  0  0
   26.5618  -21.9187  -11.4428 C   0  0  0  0  0  0  0  0  0  0  0  0
   26.1739  -22.7276  -10.5275 O   0  0  0  0  0  0  0  0  0  0  0  0
   22.5818  -17.6256  -14.8313 N   0  0  0  0  0  0  0  0  0  0  0  0
   27.7113  -21.1285  -11.1507 C   0  0  0  0  0  0  0  0  0  0  0  0
   28.3200  -20.0564  -11.8960 C   0  0  0  0  0  0  0  0  0  0  0  0
   29.7921  -20.2756  -11.6727 C   0  0  0  0  0  0  0  0  0  0  0  0
   29.9126  -21.1232  -10.4298 C   0  0  1  0  0  0  0  0  0  0  0  0
   28.5218  -21.2798   -9.9618 C   0  0  0  0  0  0  0  0  0  0  0  0
   28.1124  -20.3667   -8.8750 O   0  0  0  0  0  0  0  0  0  0  0  0
   27.5054  -19.3172   -9.1904 C   0  0  0  0  0  0  0  0  0  0  0  0
   29.5573  -21.2173   -3.3149 C   0  0  0  0  0  0  0  0  0  0  0  0
   29.4455  -20.6360   -4.6823 C   0  0  2  0  0  0  0  0  0  0  0  0
   28.0625  -20.3051   -5.1334 C   0  0  0  0  0  0  0  0  0  0  0  0
   27.2664  -21.6030   -5.1809 C   0  0  1  0  0  0  0  0  0  0  0  0
   27.9562  -19.6517   -6.4660 N   0  0  0  0  0  0  0  0  0  0  0  0
   28.3588  -20.5933   -7.4923 C   0  0  0  0  0  0  0  0  0  0  0  0
   28.6478  -18.3576   -6.5899 O   0  0  0  0  0  0  0  0  0  0  0  0
   29.7652  -18.2534   -7.3834 O   0  0  0  0  0  0  0  0  0  0  0  0
  2  4  1  0
  2  1  1  0
  3  2  2  0
  5  4  1  0
  6  5  1  0
  7  6  1  0
  8  7  1  0
  8  9  1  1
 10  8  1  0
 11 10  2  0
 12 16  1  0
 12 10  1  0
 13 14  1  0
 13 12  1  0
 14 15  1  0
 15 16  1  0
 16 17  1  1
 18 17  2  0
 19 20  1  0
 20 21  1  0
 21 22  1  1
 23 21  1  0
 23 24  1  6
 24 17  1  0
 25 26  1  0
 25 23  1  0
 27 25  2  0
M  END
$$$$
