RPI.pdb
     RDKit          3D

 27 27  0  0  1  0  0  0  0  0999 V2000
   23.3369  -19.6770  -15.3604 N   0  0  0  0  0  0  0  0  0  0  0  0
   22.1888  -20.0929  -14.6124 C   0  0  0  0  0  0  0  0  0  0  0  0
   21.2184  -20.6859  -15.1993 N   0  0  0  0  0  0  0  0  0  0  0  0
   22.1351  -19.8377  -13.2016 N   0  0  0  0  0  0  0  0  0  0  0  0
   23.1688  -20.2509  -12.2995 C   0  0  0  0  0  0  0  0  0  0  0  0
   24.5067  -19.5638  -12.5814 C   0  0  0  0  0  0  0  0  0  0  0  0
   25.4326  -19.9795  -11.4713 C   0  0  0  0  0  0  0  0  0  0  0  0
   26.0777  -21.3341  -11.7211 C   0  0  2  0  0  0  0  0  0  0  0  0
   25.1183  -22.3115  -12.1564 N   0  0  0  0  0  0  0  0  0  0  0  0
   26.9637  -21.7468  -10.6350 C   0  0  0  0  0  0  0  0  0  0  0  0
   26.4793  -22.5642   -9.7749 O   0  0  0  0  0  0  0  0  0  0  0  0
   20.3738  -20.9413  -14.6447 N   0  0  0  0  0  0  0  0  0  0  0  0
   28.3119  -21.3321  -10.4321 C   0  0  0  0  0  0  0  0  0  0  0  0
   29.2222  -20.6530  -11.3186 C   0  0  0  0  0  0  0  0  0  0  0  0
   30.5475  -21.2944  -11.0069 C   0  0  0  0  0  0  0  0  0  0  0  0
   30.4084  -21.9163   -9.6389 C   0  0  1  0  0  0  0  0  0  0  0  0
   29.0500  -21.5363   -9.2047 C   0  0  0  0  0  0  0  0  0  0  0  0
   28.9771  -20.3726   -8.2974 O   0  0  0  0  0  0  0  0  0  0  0  0
   28.2651  -19.4027   -8.6463 C   0  0  0  0  0  0  0  0  0  0  0  0
   25.8963  -19.9591   -3.9117 C   0  0  0  0  0  0  0  0  0  0  0  0
   27.0591  -19.2589   -4.5262 C   0  0  2  0  0  0  0  0  0  0  0  0
   27.7800  -20.0145   -5.5916 C   0  0  0  0  0  0  0  0  0  0  0  0
   27.9212  -21.4571   -5.1233 C   0  0  2  0  0  0  0  0  0  0  0  0
   29.1359  -19.5088   -5.9379 N   0  0  0  0  0  0  0  0  0  0  0  0
   29.6595  -20.2732   -7.0531 C   0  0  0  0  0  0  0  0  0  0  0  0
   30.0855  -19.4330   -4.8150 O   0  0  0  0  0  0  0  0  0  0  0  0
   30.8531  -20.5270   -4.4943 O   0  0  0  0  0  0  0  0  0  0  0  0
  2  4  1  0
  2  1  1  0
  3  2  2  0
  5  4  1  0
  6  5  1  0
  7  6  1  0
  8  7  1  0
  8  9  1  1
 10  8  1  0
 11 10  2  0
 12 16  1  0
 12 10  1  0
 13 14  1  0
 13 12  1  0
 14 15  1  0
 15 16  1  0
 16 17  1  1
 18 17  2  0
 19 20  1  0
 20 21  1  0
 21 22  1  6
 23 21  1  0
 23 24  1  1
 24 17  1  0
 25 26  1  0
 25 23  1  0
 27 25  2  0
M  END
$$$$
