RPI.pdb
     RDKit          3D

 27 27  0  0  1  0  0  0  0  0999 V2000
   22.2081  -21.4479  -13.4048 N   0  0  0  0  0  0  0  0  0  0  0  0
   21.7969  -20.1528  -12.9530 C   0  0  0  0  0  0  0  0  0  0  0  0
   20.5539  -19.8885  -12.8020 N   0  0  0  0  0  0  0  0  0  0  0  0
   22.7891  -19.1551  -12.6729 N   0  0  0  0  0  0  0  0  0  0  0  0
   24.1899  -19.3766  -12.8769 C   0  0  0  0  0  0  0  0  0  0  0  0
   24.8778  -19.9728  -11.6469 C   0  0  0  0  0  0  0  0  0  0  0  0
   26.3258  -20.1407  -12.0175 C   0  0  0  0  0  0  0  0  0  0  0  0
   26.7974  -21.5823  -11.9043 C   0  0  2  0  0  0  0  0  0  0  0  0
   25.7782  -22.5119  -12.3073 N   0  0  0  0  0  0  0  0  0  0  0  0
   27.4521  -21.8640  -10.6288 C   0  0  0  0  0  0  0  0  0  0  0  0
   26.7647  -22.5043   -9.7569 O   0  0  0  0  0  0  0  0  0  0  0  0
   20.2773  -18.9468  -12.4515 N   0  0  0  0  0  0  0  0  0  0  0  0
   28.7772  -21.4981  -10.2531 C   0  0  0  0  0  0  0  0  0  0  0  0
   29.8202  -20.8604  -11.0153 C   0  0  0  0  0  0  0  0  0  0  0  0
   31.0684  -21.5481  -10.5315 C   0  0  0  0  0  0  0  0  0  0  0  0
   30.7289  -22.1535   -9.1915 C   0  0  1  0  0  0  0  0  0  0  0  0
   29.3409  -21.7199   -8.9392 C   0  0  0  0  0  0  0  0  0  0  0  0
   29.1947  -20.5471   -8.0527 O   0  0  0  0  0  0  0  0  0  0  0  0
   28.4880  -19.5943   -8.4552 C   0  0  0  0  0  0  0  0  0  0  0  0
   25.7266  -19.5128   -4.1725 C   0  0  0  0  0  0  0  0  0  0  0  0
   27.1194  -19.0892   -4.4894 C   0  0  2  0  0  0  0  0  0  0  0  0
   27.8584  -19.9610   -5.4484 C   0  0  0  0  0  0  0  0  0  0  0  0
   27.8821  -21.3705   -4.8712 C   0  0  2  0  0  0  0  0  0  0  0  0
   29.2616  -19.5592   -5.7380 N   0  0  0  0  0  0  0  0  0  0  0  0
   29.8006  -20.4210   -6.7718 C   0  0  0  0  0  0  0  0  0  0  0  0
   30.1463  -19.4705   -4.5642 O   0  0  0  0  0  0  0  0  0  0  0  0
   30.3047  -18.2682   -3.9174 O   0  0  0  0  0  0  0  0  0  0  0  0
  2  4  1  0
  2  1  1  0
  3  2  2  0
  5  4  1  0
  6  5  1  0
  7  6  1  0
  8  7  1  0
  8  9  1  1
 10  8  1  0
 11 10  2  0
 12 16  1  0
 12 10  1  0
 13 14  1  0
 13 12  1  0
 14 15  1  0
 15 16  1  0
 16 17  1  1
 18 17  2  0
 19 20  1  0
 20 21  1  0
 21 22  1  6
 23 21  1  0
 23 24  1  1
 24 17  1  0
 25 26  1  0
 25 23  1  0
 27 25  2  0
M  END
$$$$
