RPI.pdb
     RDKit          3D

 27 27  0  0  1  0  0  0  0  0999 V2000
   24.0825  -17.5748  -18.7464 N   0  0  0  0  0  0  0  0  0  0  0  0
   22.7155  -17.7637  -19.1288 C   0  0  0  0  0  0  0  0  0  0  0  0
   22.3642  -17.6255  -20.3516 N   0  0  0  0  0  0  0  0  0  0  0  0
   21.7442  -18.1071  -18.1303 N   0  0  0  0  0  0  0  0  0  0  0  0
   22.0681  -18.2145  -16.7388 C   0  0  0  0  0  0  0  0  0  0  0  0
   22.1682  -19.6667  -16.2669 C   0  0  0  0  0  0  0  0  0  0  0  0
   20.7561  -20.1290  -16.0333 C   0  0  0  0  0  0  0  0  0  0  0  0
   20.6858  -21.5415  -15.4734 C   0  0  2  0  0  0  0  0  0  0  0  0
   19.3402  -21.9169  -15.1360 N   0  0  0  0  0  0  0  0  0  0  0  0
   21.6964  -21.7940  -14.4488 C   0  0  0  0  0  0  0  0  0  0  0  0
   21.3777  -21.5061  -13.2413 O   0  0  0  0  0  0  0  0  0  0  0  0
   21.3552  -17.7076  -20.5990 N   0  0  0  0  0  0  0  0  0  0  0  0
   23.0023  -22.3263  -14.6543 C   0  0  0  0  0  0  0  0  0  0  0  0
   23.6955  -22.6514  -15.8747 C   0  0  0  0  0  0  0  0  0  0  0  0
   24.4565  -23.8991  -15.5154 C   0  0  0  0  0  0  0  0  0  0  0  0
   24.5572  -23.9177  -14.0097 C   0  0  2  0  0  0  0  0  0  0  0  0
   23.9250  -22.6523  -13.5887 C   0  0  0  0  0  0  0  0  0  0  0  0
   24.8581  -21.5474  -13.2872 O   0  0  0  0  0  0  0  0  0  0  0  0
   25.1885  -20.7879  -14.2271 C   0  0  0  0  0  0  0  0  0  0  0  0
   27.1085  -20.2903   -7.9864 C   0  0  0  0  0  0  0  0  0  0  0  0
   26.9069  -20.7746   -9.3810 C   0  0  2  0  0  0  0  0  0  0  0  0
   26.2521  -19.8105  -10.3123 C   0  0  0  0  0  0  0  0  0  0  0  0
   24.7876  -19.6967   -9.9088 C   0  0  1  0  0  0  0  0  0  0  0  0
   26.3046  -20.1687  -11.7556 N   0  0  0  0  0  0  0  0  0  0  0  0
   25.4107  -21.2831  -12.0032 C   0  0  0  0  0  0  0  0  0  0  0  0
   27.6537  -20.4007  -12.2982 O   0  0  0  0  0  0  0  0  0  0  0  0
   28.0784  -21.6838  -12.5476 O   0  0  0  0  0  0  0  0  0  0  0  0
  2  4  1  0
  2  1  1  0
  3  2  2  0
  5  4  1  0
  6  5  1  0
  7  6  1  0
  8  7  1  0
  8  9  1  1
 10  8  1  0
 11 10  2  0
 12 16  1  0
 12 10  1  0
 13 14  1  0
 13 12  1  0
 14 15  1  0
 15 16  1  0
 16 17  1  6
 18 17  2  0
 19 20  1  0
 20 21  1  0
 21 22  1  6
 23 21  1  0
 23 24  1  1
 24 17  1  0
 25 26  1  0
 25 23  1  0
 27 25  2  0
M  END
$$$$
