RPI.pdb
     RDKit          3D

 27 27  0  0  1  0  0  0  0  0999 V2000
   20.3344  -16.7953  -17.9640 N   0  0  0  0  0  0  0  0  0  0  0  0
   20.5307  -15.9935  -16.7940 C   0  0  0  0  0  0  0  0  0  0  0  0
   19.5360  -15.4098  -16.2394 N   0  0  0  0  0  0  0  0  0  0  0  0
   21.8506  -15.8489  -16.2506 N   0  0  0  0  0  0  0  0  0  0  0  0
   23.0029  -16.4630  -16.8404 C   0  0  0  0  0  0  0  0  0  0  0  0
   22.8130  -17.9617  -17.0837 C   0  0  0  0  0  0  0  0  0  0  0  0
   23.5277  -18.6619  -15.9607 C   0  0  0  0  0  0  0  0  0  0  0  0
   24.3484  -19.8503  -16.4376 C   0  0  2  0  0  0  0  0  0  0  0  0
   23.5526  -20.7845  -17.1856 N   0  0  0  0  0  0  0  0  0  0  0  0
   25.1820  -20.4213  -15.3822 C   0  0  0  0  0  0  0  0  0  0  0  0
   24.6972  -21.4196  -14.7412 O   0  0  0  0  0  0  0  0  0  0  0  0
   18.6001  -15.4662  -16.6945 N   0  0  0  0  0  0  0  0  0  0  0  0
   26.4794  -19.9808  -14.9903 C   0  0  0  0  0  0  0  0  0  0  0  0
   27.3422  -18.9856  -15.5740 C   0  0  0  0  0  0  0  0  0  0  0  0
   28.7146  -19.5803  -15.4066 C   0  0  0  0  0  0  0  0  0  0  0  0
   28.6021  -20.6082  -14.3073 C   0  0  1  0  0  0  0  0  0  0  0  0
   27.2036  -20.4968  -13.8490 C   0  0  0  0  0  0  0  0  0  0  0  0
   26.9984  -19.6855  -12.6316 O   0  0  0  0  0  0  0  0  0  0  0  0
   26.4932  -18.5471  -12.7657 C   0  0  0  0  0  0  0  0  0  0  0  0
   22.6710  -20.8964  -10.0041 C   0  0  0  0  0  0  0  0  0  0  0  0
   23.9778  -20.2791   -9.6418 C   0  0  2  0  0  0  0  0  0  0  0  0
   25.1150  -20.5882  -10.5565 C   0  0  0  0  0  0  0  0  0  0  0  0
   25.3002  -22.1002  -10.5729 C   0  0  2  0  0  0  0  0  0  0  0  0
   26.4197  -19.9693  -10.1978 N   0  0  0  0  0  0  0  0  0  0  0  0
   27.3347  -20.1045  -11.3143 C   0  0  0  0  0  0  0  0  0  0  0  0
   27.0092  -20.4324   -8.9304 O   0  0  0  0  0  0  0  0  0  0  0  0
   26.8754  -19.6689   -7.7954 O   0  0  0  0  0  0  0  0  0  0  0  0
  2  4  1  0
  2  1  1  0
  3  2  2  0
  5  4  1  0
  6  5  1  0
  7  6  1  0
  8  7  1  0
  8  9  1  1
 10  8  1  0
 11 10  2  0
 12 16  1  0
 12 10  1  0
 13 14  1  0
 13 12  1  0
 14 15  1  0
 15 16  1  0
 16 17  1  1
 18 17  2  0
 19 20  1  0
 20 21  1  0
 21 22  1  6
 23 21  1  0
 23 24  1  1
 24 17  1  0
 25 26  1  0
 25 23  1  0
 27 25  2  0
M  END
$$$$
