RPI.pdb
     RDKit          3D

 27 27  0  0  1  0  0  0  0  0999 V2000
   32.3564  -30.0097  -24.3707 N   0  0  0  0  0  0  0  0  0  0  0  0
   31.1198  -29.7314  -23.7046 C   0  0  0  0  0  0  0  0  0  0  0  0
   30.0151  -30.1494  -24.1973 N   0  0  0  0  0  0  0  0  0  0  0  0
   31.1297  -28.9794  -22.4829 N   0  0  0  0  0  0  0  0  0  0  0  0
   32.3350  -28.6721  -21.7719 C   0  0  0  0  0  0  0  0  0  0  0  0
   32.2619  -29.0580  -20.2929 C   0  0  0  0  0  0  0  0  0  0  0  0
   33.5509  -28.5912  -19.6743 C   0  0  0  0  0  0  0  0  0  0  0  0
   33.6752  -28.9830  -18.2100 C   0  0  2  0  0  0  0  0  0  0  0  0
   33.6895  -30.4097  -18.0372 N   0  0  0  0  0  0  0  0  0  0  0  0
   32.7568  -28.2433  -17.3472 C   0  0  0  0  0  0  0  0  0  0  0  0
   31.7267  -28.8775  -16.9237 O   0  0  0  0  0  0  0  0  0  0  0  0
   29.1226  -29.8930  -23.7241 N   0  0  0  0  0  0  0  0  0  0  0  0
   32.8875  -26.8872  -16.9293 C   0  0  0  0  0  0  0  0  0  0  0  0
   33.8478  -25.8827  -17.3092 C   0  0  0  0  0  0  0  0  0  0  0  0
   34.0860  -25.1329  -16.0261 C   0  0  0  0  0  0  0  0  0  0  0  0
   32.8966  -25.4149  -15.1410 C   0  0  2  0  0  0  0  0  0  0  0  0
   32.0069  -26.2394  -15.9816 C   0  0  0  0  0  0  0  0  0  0  0  0
   30.9019  -25.5114  -16.6385 O   0  0  0  0  0  0  0  0  0  0  0  0
   31.0698  -25.1379  -17.8224 C   0  0  0  0  0  0  0  0  0  0  0  0
   26.3154  -27.8679  -16.6357 C   0  0  0  0  0  0  0  0  0  0  0  0
   27.4651  -26.9801  -16.9673 C   0  0  2  0  0  0  0  0  0  0  0  0
   27.3417  -25.5647  -16.5122 C   0  0  0  0  0  0  0  0  0  0  0  0
   26.1430  -24.9507  -17.2241 C   0  0  2  0  0  0  0  0  0  0  0  0
   28.5230  -24.6975  -16.7700 N   0  0  0  0  0  0  0  0  0  0  0  0
   29.6576  -25.2023  -16.0218 C   0  0  0  0  0  0  0  0  0  0  0  0
   28.3058  -23.2570  -16.5551 O   0  0  0  0  0  0  0  0  0  0  0  0
   27.9471  -22.4550  -17.6121 O   0  0  0  0  0  0  0  0  0  0  0  0
  2  4  1  0
  2  1  1  0
  3  2  2  0
  5  4  1  0
  6  5  1  0
  7  6  1  0
  8  7  1  0
  8  9  1  6
 10  8  1  0
 11 10  2  0
 12 16  1  0
 12 10  1  0
 13 14  1  0
 13 12  1  0
 14 15  1  0
 15 16  1  0
 16 17  1  6
 18 17  2  0
 19 20  1  0
 20 21  1  0
 21 22  1  1
 23 21  1  0
 23 24  1  6
 24 17  1  0
 25 26  1  0
 25 23  1  0
 27 25  2  0
M  END
$$$$
