RPI.pdb
     RDKit          3D

 27 27  0  0  1  0  0  0  0  0999 V2000
   33.3230  -23.9182  -14.4891 N   0  0  0  0  0  0  0  0  0  0  0  0
   32.6383  -23.4003  -13.3430 C   0  0  0  0  0  0  0  0  0  0  0  0
   33.2439  -23.3064  -12.2195 N   0  0  0  0  0  0  0  0  0  0  0  0
   31.2690  -22.9899  -13.4645 N   0  0  0  0  0  0  0  0  0  0  0  0
   30.5849  -22.9362  -14.7223 C   0  0  0  0  0  0  0  0  0  0  0  0
   29.9271  -21.5784  -14.9782 C   0  0  0  0  0  0  0  0  0  0  0  0
   28.5791  -21.6346  -14.3134 C   0  0  0  0  0  0  0  0  0  0  0  0
   27.8318  -20.3120  -14.3887 C   0  0  2  0  0  0  0  0  0  0  0  0
   28.5975  -19.3027  -15.0673 N   0  0  0  0  0  0  0  0  0  0  0  0
   27.2481  -19.9191  -13.1081 C   0  0  0  0  0  0  0  0  0  0  0  0
   27.8584  -19.0017  -12.4536 O   0  0  0  0  0  0  0  0  0  0  0  0
   32.7430  -22.8814  -11.4104 N   0  0  0  0  0  0  0  0  0  0  0  0
   26.0699  -20.4530  -12.5102 C   0  0  0  0  0  0  0  0  0  0  0  0
   25.2582  -21.5800  -12.8932 C   0  0  0  0  0  0  0  0  0  0  0  0
   23.8599  -21.1164  -12.5854 C   0  0  0  0  0  0  0  0  0  0  0  0
   23.9943  -19.9873  -11.5931 C   0  0  2  0  0  0  0  0  0  0  0  0
   25.4434  -19.9128  -11.3232 C   0  0  0  0  0  0  0  0  0  0  0  0
   25.8930  -20.5855  -10.0871 O   0  0  0  0  0  0  0  0  0  0  0  0
   26.0725  -21.8246  -10.1277 C   0  0  0  0  0  0  0  0  0  0  0  0
   29.2748  -18.3315   -6.5703 C   0  0  0  0  0  0  0  0  0  0  0  0
   28.5611  -19.4155   -7.3021 C   0  0  2  0  0  0  0  0  0  0  0  0
   27.2456  -19.8248   -6.7299 C   0  0  0  0  0  0  0  0  0  0  0  0
   27.5190  -20.6261   -5.4635 C   0  0  2  0  0  0  0  0  0  0  0  0
   26.3828  -20.6497   -7.6184 N   0  0  0  0  0  0  0  0  0  0  0  0
   26.1370  -19.9260   -8.8504 C   0  0  0  0  0  0  0  0  0  0  0  0
   25.1411  -21.1489   -7.0040 O   0  0  0  0  0  0  0  0  0  0  0  0
   23.9406  -20.5532   -7.3088 O   0  0  0  0  0  0  0  0  0  0  0  0
  2  4  1  0
  2  1  1  0
  3  2  2  0
  5  4  1  0
  6  5  1  0
  7  6  1  0
  8  7  1  0
  8  9  1  1
 10  8  1  0
 11 10  2  0
 12 16  1  0
 12 10  1  0
 13 14  1  0
 13 12  1  0
 14 15  1  0
 15 16  1  0
 16 17  1  1
 18 17  2  0
 19 20  1  0
 20 21  1  0
 21 22  1  6
 23 21  1  0
 23 24  1  6
 24 17  1  0
 25 26  1  0
 25 23  1  0
 27 25  2  0
M  END
$$$$
