RPI.pdb
     RDKit          3D

 27 27  0  0  1  0  0  0  0  0999 V2000
   25.6854  -26.9811  -17.3684 N   0  0  0  0  0  0  0  0  0  0  0  0
   24.3982  -26.3599  -17.2816 C   0  0  0  0  0  0  0  0  0  0  0  0
   23.4503  -26.9303  -16.6382 N   0  0  0  0  0  0  0  0  0  0  0  0
   24.1801  -25.0952  -17.9227 N   0  0  0  0  0  0  0  0  0  0  0  0
   25.2433  -24.3208  -18.4908 C   0  0  0  0  0  0  0  0  0  0  0  0
   26.5402  -24.4189  -17.6845 C   0  0  0  0  0  0  0  0  0  0  0  0
   26.4727  -23.3299  -16.6493 C   0  0  0  0  0  0  0  0  0  0  0  0
   27.8057  -22.6246  -16.4513 C   0  0  2  0  0  0  0  0  0  0  0  0
   28.9102  -23.5424  -16.5075 N   0  0  0  0  0  0  0  0  0  0  0  0
   27.7951  -21.7051  -15.3158 C   0  0  0  0  0  0  0  0  0  0  0  0
   28.3746  -22.1048  -14.2448 O   0  0  0  0  0  0  0  0  0  0  0  0
   22.5028  -26.4964  -16.6458 N   0  0  0  0  0  0  0  0  0  0  0  0
   27.2046  -20.4088  -15.2758 C   0  0  0  0  0  0  0  0  0  0  0  0
   26.5622  -19.6441  -16.3142 C   0  0  0  0  0  0  0  0  0  0  0  0
   26.9963  -18.2334  -16.0203 C   0  0  0  0  0  0  0  0  0  0  0  0
   27.4248  -18.2124  -14.5734 C   0  0  2  0  0  0  0  0  0  0  0  0
   27.1430  -19.5789  -14.0923 C   0  0  0  0  0  0  0  0  0  0  0  0
   25.8758  -19.7406  -13.3501 O   0  0  0  0  0  0  0  0  0  0  0  0
   24.8720  -20.1370  -13.9862 C   0  0  0  0  0  0  0  0  0  0  0  0
   27.0106  -19.9385   -7.9650 C   0  0  0  0  0  0  0  0  0  0  0  0
   26.4826  -20.5384   -9.2225 C   0  0  2  0  0  0  0  0  0  0  0  0
   25.1690  -20.0080   -9.6905 C   0  0  0  0  0  0  0  0  0  0  0  0
   24.0806  -20.6402   -8.8325 C   0  0  2  0  0  0  0  0  0  0  0  0
   24.8383  -20.2682  -11.1177 N   0  0  0  0  0  0  0  0  0  0  0  0
   25.7125  -19.4773  -11.9617 C   0  0  0  0  0  0  0  0  0  0  0  0
   23.4187  -20.1079  -11.4746 O   0  0  0  0  0  0  0  0  0  0  0  0
   22.5236  -21.1092  -11.1827 O   0  0  0  0  0  0  0  0  0  0  0  0
  2  4  1  0
  2  1  1  0
  3  2  2  0
  5  4  1  0
  6  5  1  0
  7  6  1  0
  8  7  1  0
  8  9  1  1
 10  8  1  0
 11 10  2  0
 12 16  1  0
 12 10  1  0
 13 14  1  0
 13 12  1  0
 14 15  1  0
 15 16  1  0
 16 17  1  1
 18 17  2  0
 19 20  1  0
 20 21  1  0
 21 22  1  6
 23 21  1  0
 23 24  1  6
 24 17  1  0
 25 26  1  0
 25 23  1  0
 27 25  2  0
M  END
$$$$
