RPI.pdb
     RDKit          3D

 27 27  0  0  1  0  0  0  0  0999 V2000
   28.5297  -18.1990  -15.1578 N   0  0  0  0  0  0  0  0  0  0  0  0
   27.2721  -17.7962  -15.7114 C   0  0  0  0  0  0  0  0  0  0  0  0
   27.1628  -17.5756  -16.9673 N   0  0  0  0  0  0  0  0  0  0  0  0
   26.1376  -17.6405  -14.8471 N   0  0  0  0  0  0  0  0  0  0  0  0
   26.0166  -18.3281  -13.5959 C   0  0  0  0  0  0  0  0  0  0  0  0
   26.6391  -19.7256  -13.6284 C   0  0  0  0  0  0  0  0  0  0  0  0
   27.2070  -19.9628  -12.2561 C   0  0  0  0  0  0  0  0  0  0  0  0
   26.9532  -21.3751  -11.7517 C   0  0  2  0  0  0  0  0  0  0  0  0
   25.5983  -21.7923  -11.9881 N   0  0  0  0  0  0  0  0  0  0  0  0
   27.4627  -21.5923  -10.3995 C   0  0  0  0  0  0  0  0  0  0  0  0
   26.6242  -22.0188   -9.5291 O   0  0  0  0  0  0  0  0  0  0  0  0
   26.2493  -17.2439  -17.3437 N   0  0  0  0  0  0  0  0  0  0  0  0
   28.7970  -21.3766   -9.9479 C   0  0  0  0  0  0  0  0  0  0  0  0
   29.9379  -20.8299  -10.6371 C   0  0  0  0  0  0  0  0  0  0  0  0
   31.0824  -21.6566  -10.1159 C   0  0  0  0  0  0  0  0  0  0  0  0
   30.6136  -22.2604   -8.8146 C   0  0  1  0  0  0  0  0  0  0  0  0
   29.2662  -21.6920   -8.6162 C   0  0  0  0  0  0  0  0  0  0  0  0
   29.1950  -20.5353   -7.6998 O   0  0  0  0  0  0  0  0  0  0  0  0
   28.4916  -19.5579   -8.0452 C   0  0  0  0  0  0  0  0  0  0  0  0
   26.2941  -21.1036   -3.8774 C   0  0  0  0  0  0  0  0  0  0  0  0
   27.7365  -20.8652   -4.1650 C   0  0  2  0  0  0  0  0  0  0  0  0
   28.0331  -19.7339   -5.0911 C   0  0  0  0  0  0  0  0  0  0  0  0
   27.2935  -19.9963   -6.3967 C   0  0  1  0  0  0  0  0  0  0  0  0
   29.4704  -19.5210   -5.4120 N   0  0  0  0  0  0  0  0  0  0  0  0
   29.8700  -20.4507   -6.4504 C   0  0  0  0  0  0  0  0  0  0  0  0
   30.3837  -19.5439   -4.2571 O   0  0  0  0  0  0  0  0  0  0  0  0
   31.2204  -20.6179   -4.0690 O   0  0  0  0  0  0  0  0  0  0  0  0
  2  4  1  0
  2  1  1  0
  3  2  2  0
  5  4  1  0
  6  5  1  0
  7  6  1  0
  8  7  1  0
  8  9  1  1
 10  8  1  0
 11 10  2  0
 12 16  1  0
 12 10  1  0
 13 14  1  0
 13 12  1  0
 14 15  1  0
 15 16  1  0
 16 17  1  1
 18 17  2  0
 19 20  1  0
 20 21  1  0
 21 22  1  1
 23 21  1  0
 23 24  1  6
 24 17  1  0
 25 26  1  0
 25 23  1  0
 27 25  2  0
M  END
$$$$
