RPI.pdb
     RDKit          3D

 27 27  0  0  1  0  0  0  0  0999 V2000
   22.9547  -21.7435  -16.5071 N   0  0  0  0  0  0  0  0  0  0  0  0
   22.9087  -23.1438  -16.2114 C   0  0  0  0  0  0  0  0  0  0  0  0
   22.0305  -23.6020  -15.4010 N   0  0  0  0  0  0  0  0  0  0  0  0
   23.8553  -24.0273  -16.8291 N   0  0  0  0  0  0  0  0  0  0  0  0
   24.9443  -23.5568  -17.6326 C   0  0  0  0  0  0  0  0  0  0  0  0
   26.1944  -23.2446  -16.8071 C   0  0  0  0  0  0  0  0  0  0  0  0
   27.2080  -22.6962  -17.7736 C   0  0  0  0  0  0  0  0  0  0  0  0
   28.4829  -22.2316  -17.0866 C   0  0  2  0  0  0  0  0  0  0  0  0
   29.4753  -23.2702  -17.0413 N   0  0  0  0  0  0  0  0  0  0  0  0
   28.2253  -21.5377  -15.8268 C   0  0  0  0  0  0  0  0  0  0  0  0
   28.6886  -22.0824  -14.7633 O   0  0  0  0  0  0  0  0  0  0  0  0
   21.9928  -24.6286  -15.2255 N   0  0  0  0  0  0  0  0  0  0  0  0
   27.5093  -20.3171  -15.6585 C   0  0  0  0  0  0  0  0  0  0  0  0
   26.7293  -19.5558  -16.6007 C   0  0  0  0  0  0  0  0  0  0  0  0
   27.0348  -18.1304  -16.2268 C   0  0  0  0  0  0  0  0  0  0  0  0
   27.5476  -18.1629  -14.8078 C   0  0  2  0  0  0  0  0  0  0  0  0
   27.4368  -19.5812  -14.4150 C   0  0  0  0  0  0  0  0  0  0  0  0
   26.2411  -19.9266  -13.6191 O   0  0  0  0  0  0  0  0  0  0  0  0
   25.2789  -20.4658  -14.2130 C   0  0  0  0  0  0  0  0  0  0  0  0
   27.1923  -20.2738   -8.1400 C   0  0  0  0  0  0  0  0  0  0  0  0
   26.7533  -20.7282   -9.4894 C   0  0  2  0  0  0  0  0  0  0  0  0
   25.4546  -20.1721   -9.9685 C   0  0  0  0  0  0  0  0  0  0  0  0
   24.3444  -20.8029   -9.1377 C   0  0  2  0  0  0  0  0  0  0  0  0
   25.1424  -20.4043  -11.4047 N   0  0  0  0  0  0  0  0  0  0  0  0
   26.1027  -19.6901  -12.2231 C   0  0  0  0  0  0  0  0  0  0  0  0
   23.7516  -20.1255  -11.8000 O   0  0  0  0  0  0  0  0  0  0  0  0
   23.4003  -18.8649  -12.2199 O   0  0  0  0  0  0  0  0  0  0  0  0
  2  4  1  0
  2  1  1  0
  3  2  2  0
  5  4  1  0
  6  5  1  0
  7  6  1  0
  8  7  1  0
  8  9  1  1
 10  8  1  0
 11 10  2  0
 12 16  1  0
 12 10  1  0
 13 14  1  0
 13 12  1  0
 14 15  1  0
 15 16  1  0
 16 17  1  1
 18 17  2  0
 19 20  1  0
 20 21  1  0
 21 22  1  6
 23 21  1  0
 23 24  1  6
 24 17  1  0
 25 26  1  0
 25 23  1  0
 27 25  2  0
M  END
$$$$
