RPI.pdb
     RDKit          3D

 27 27  0  0  1  0  0  0  0  0999 V2000
   11.8488  -22.6588   -3.8272 N   0  0  0  0  0  0  0  0  0  0  0  0
   13.2791  -22.6010   -3.8609 C   0  0  0  0  0  0  0  0  0  0  0  0
   13.9276  -23.2321   -4.7659 N   0  0  0  0  0  0  0  0  0  0  0  0
   13.9780  -21.8320   -2.8717 N   0  0  0  0  0  0  0  0  0  0  0  0
   14.4060  -22.3844   -1.6209 C   0  0  0  0  0  0  0  0  0  0  0  0
   13.2544  -23.0004   -0.8235 C   0  0  0  0  0  0  0  0  0  0  0  0
   13.3582  -22.4348    0.5664 C   0  0  0  0  0  0  0  0  0  0  0  0
   13.7666  -23.4775    1.5956 C   0  0  2  0  0  0  0  0  0  0  0  0
   12.8241  -24.5604    1.6633 N   0  0  0  0  0  0  0  0  0  0  0  0
   14.1555  -22.8870    2.8743 C   0  0  0  0  0  0  0  0  0  0  0  0
   13.3199  -23.0000    3.8395 O   0  0  0  0  0  0  0  0  0  0  0  0
   14.9689  -23.2429   -4.7255 N   0  0  0  0  0  0  0  0  0  0  0  0
   15.3689  -22.1959    3.1587 C   0  0  0  0  0  0  0  0  0  0  0  0
   16.4908  -21.8923    2.3074 C   0  0  0  0  0  0  0  0  0  0  0  0
   17.6721  -22.0522    3.2261 C   0  0  0  0  0  0  0  0  0  0  0  0
   17.1369  -21.9342    4.6323 C   0  0  1  0  0  0  0  0  0  0  0  0
   15.7029  -21.6362    4.4503 C   0  0  0  0  0  0  0  0  0  0  0  0
   15.3326  -20.2106    4.5649 O   0  0  0  0  0  0  0  0  0  0  0  0
   15.5204  -19.4756    3.5680 C   0  0  0  0  0  0  0  0  0  0  0  0
   11.0158  -18.9761    7.5699 C   0  0  0  0  0  0  0  0  0  0  0  0
   12.0930  -19.0460    6.5428 C   0  0  2  0  0  0  0  0  0  0  0  0
   13.2200  -18.0850    6.7211 C   0  0  0  0  0  0  0  0  0  0  0  0
   12.6562  -16.6767    6.5814 C   0  0  2  0  0  0  0  0  0  0  0  0
   14.3477  -18.2258    5.7605 N   0  0  0  0  0  0  0  0  0  0  0  0
   14.7771  -19.6103    5.7289 C   0  0  0  0  0  0  0  0  0  0  0  0
   15.4701  -17.2951    5.9660 O   0  0  0  0  0  0  0  0  0  0  0  0
   15.4208  -16.0345    5.4208 O   0  0  0  0  0  0  0  0  0  0  0  0
  2  4  1  0
  2  1  1  0
  3  2  2  0
  5  4  1  0
  6  5  1  0
  7  6  1  0
  8  7  1  0
  8  9  1  1
 10  8  1  0
 11 10  2  0
 12 16  1  0
 12 10  1  0
 13 14  1  0
 13 12  1  0
 14 15  1  0
 15 16  1  0
 16 17  1  6
 18 17  2  0
 19 20  1  0
 20 21  1  0
 21 22  1  1
 23 21  1  0
 23 24  1  6
 24 17  1  0
 25 26  1  0
 25 23  1  0
 27 25  2  0
M  END
$$$$
