YFE.pdb
     RDKit          3D

 33 34  0  0  1  0  0  0  0  0999 V2000
   10.2337  -28.8845   -5.9189 O   0  0  0  0  0  0  0  0  0  0  0  0
   11.0793  -29.0240   -4.8232 C   0  0  0  0  0  0  0  0  0  0  0  0
   11.6396  -30.2547   -4.5281 C   0  0  0  0  0  0  0  0  0  0  0  0
   12.4653  -30.3460   -3.4412 C   0  0  0  0  0  0  0  0  0  0  0  0
   12.7759  -29.2822   -2.6164 C   0  0  0  0  0  0  0  0  0  0  0  0
   13.6665  -29.4026   -1.4523 C   0  0  0  0  0  0  0  0  0  0  0  0
   15.0979  -29.1457   -1.8735 C   0  0  2  0  0  0  0  0  0  0  0  0
   15.4919  -30.2625   -2.7150 N   0  0  0  0  0  0  0  0  0  0  0  0
   16.0187  -29.0970   -0.7290 C   0  0  0  0  0  0  0  0  0  0  0  0
   16.6329  -30.1402   -0.3970 O   0  0  0  0  0  0  0  0  0  0  0  0
   12.1941  -28.0611   -2.9442 C   0  0  0  0  0  0  0  0  0  0  0  0
   11.3531  -27.9248   -4.0350 C   0  0  0  0  0  0  0  0  0  0  0  0
   16.2599  -27.9297    0.0339 N   0  0  0  0  0  0  0  0  0  0  0  0
   17.2111  -27.9657    1.1662 C   0  0  1  0  0  0  0  0  0  0  0  0
   18.0070  -26.7268    1.0497 C   0  0  0  0  0  0  0  0  0  0  0  0
   18.8109  -26.2833    2.1635 C   0  0  0  0  0  0  0  0  0  0  0  0
   20.0723  -26.7913    2.3679 C   0  0  0  0  0  0  0  0  0  0  0  0
   20.8613  -26.3698    3.4435 C   0  0  0  0  0  0  0  0  0  0  0  0
   20.3869  -25.4303    4.3264 C   0  0  0  0  0  0  0  0  0  0  0  0
   19.1229  -24.9131    4.1323 C   0  0  0  0  0  0  0  0  0  0  0  0
   18.3610  -25.3455    3.0610 C   0  0  0  0  0  0  0  0  0  0  0  0
   16.4046  -28.1151    2.3965 C   0  0  0  0  0  0  0  0  0  0  0  0
   15.3392  -27.4038    2.4857 O   0  0  0  0  0  0  0  0  0  0  0  0
   16.7000  -28.9702    3.4728 N   0  0  0  0  0  0  0  0  0  0  0  0
   15.8830  -28.9049    4.6983 C   0  0  1  0  0  0  0  0  0  0  0  0
   15.8138  -30.2685    5.2998 C   0  0  0  0  0  0  0  0  0  0  0  0
   15.1049  -31.3124    4.5537 C   0  0  0  0  0  0  0  0  0  0  0  0
   15.8206  -32.0436    3.5194 C   0  0  0  0  0  0  0  0  0  0  0  0
   16.8362  -32.7422    3.8415 O   0  0  0  0  0  0  0  0  0  0  0  0
   16.3715  -27.8146    5.5093 C   0  0  0  0  0  0  0  0  0  0  0  0
   17.7335  -27.5765    5.6646 O   0  0  0  0  0  0  0  0  0  0  0  0
   15.4820  -32.0522    2.1682 O   0  0  0  0  0  0  0  0  0  0  0  0
   15.6182  -27.0140    6.1336 O   0  0  0  0  0  0  0  0  0  0  0  0
  2  1  1  0
  3  2  2  0
  4  3  1  0
  5 11  1  0
  5  4  2  0
  6  5  1  0
  7  6  1  0
  7  8  1  6
  9  7  1  0
  9 10  2  0
 11 12  2  0
 12  2  1  0
 13  9  1  0
 14 13  1  0
 14 15  1  1
 16 15  1  0
 16 17  2  0
 18 17  1  0
 19 18  2  0
 20 21  2  0
 20 19  1  0
 21 16  1  0
 22 14  1  0
 23 22  2  0
 24 22  1  0
 25 24  1  0
 25 26  1  1
 26 27  1  0
 27 28  1  0
 28 32  1  0
 28 29  2  0
 30 31  1  0
 30 25  1  0
 33 30  2  0
M  END
$$$$
