YFE.pdb
     RDKit          3D

 33 34  0  0  1  0  0  0  0  0999 V2000
    8.1303  -12.5746    5.1751 O   0  0  0  0  0  0  0  0  0  0  0  0
    9.2732  -13.3337    5.4043 C   0  0  0  0  0  0  0  0  0  0  0  0
   10.4623  -12.7152    5.7493 C   0  0  0  0  0  0  0  0  0  0  0  0
   11.5614  -13.5007    5.9656 C   0  0  0  0  0  0  0  0  0  0  0  0
   11.5583  -14.8781    5.8607 C   0  0  0  0  0  0  0  0  0  0  0  0
   12.7520  -15.7038    6.0977 C   0  0  0  0  0  0  0  0  0  0  0  0
   13.6353  -15.6922    4.8682 C   0  0  2  0  0  0  0  0  0  0  0  0
   13.0134  -16.5783    3.8994 N   0  0  0  0  0  0  0  0  0  0  0  0
   14.9858  -16.2025    5.1437 C   0  0  0  0  0  0  0  0  0  0  0  0
   15.2284  -17.4188    4.9497 O   0  0  0  0  0  0  0  0  0  0  0  0
   10.3451  -15.4644    5.5121 C   0  0  0  0  0  0  0  0  0  0  0  0
    9.2092  -14.7070    5.2844 C   0  0  0  0  0  0  0  0  0  0  0  0
   16.0462  -15.3961    5.6211 N   0  0  0  0  0  0  0  0  0  0  0  0
   17.3521  -16.0064    5.9534 C   0  0  1  0  0  0  0  0  0  0  0  0
   18.2549  -14.8721    6.2363 C   0  0  0  0  0  0  0  0  0  0  0  0
   19.6046  -15.1234    6.6822 C   0  0  0  0  0  0  0  0  0  0  0  0
   20.0724  -16.4090    6.8210 C   0  0  0  0  0  0  0  0  0  0  0  0
   21.3782  -16.6658    7.2523 C   0  0  0  0  0  0  0  0  0  0  0  0
   22.2281  -15.6281    7.5490 C   0  0  0  0  0  0  0  0  0  0  0  0
   21.7707  -14.3337    7.4138 C   0  0  0  0  0  0  0  0  0  0  0  0
   20.4749  -14.1046    6.9854 C   0  0  0  0  0  0  0  0  0  0  0  0
   17.1118  -16.9483    7.0677 C   0  0  0  0  0  0  0  0  0  0  0  0
   16.3218  -16.5578    8.0017 O   0  0  0  0  0  0  0  0  0  0  0  0
   17.6682  -18.2336    7.1904 N   0  0  0  0  0  0  0  0  0  0  0  0
   17.3529  -19.0520    8.3755 C   0  0  1  0  0  0  0  0  0  0  0  0
   16.3655  -20.0998    7.9840 C   0  0  0  0  0  0  0  0  0  0  0  0
   15.9441  -21.0617    9.0067 C   0  0  0  0  0  0  0  0  0  0  0  0
   15.0367  -22.1343    8.6288 C   0  0  0  0  0  0  0  0  0  0  0  0
   14.6635  -22.2341    7.4147 O   0  0  0  0  0  0  0  0  0  0  0  0
   18.5960  -19.4649    8.9831 C   0  0  0  0  0  0  0  0  0  0  0  0
   18.6998  -19.6808   10.3537 O   0  0  0  0  0  0  0  0  0  0  0  0
   14.5275  -23.0937    9.5009 O   0  0  0  0  0  0  0  0  0  0  0  0
   19.6649  -19.6511    8.3342 O   0  0  0  0  0  0  0  0  0  0  0  0
  2  1  1  0
  3  2  2  0
  4  3  1  0
  5 11  1  0
  5  4  2  0
  6  5  1  0
  7  6  1  0
  7  8  1  6
  9  7  1  0
  9 10  2  0
 11 12  2  0
 12  2  1  0
 13  9  1  0
 14 13  1  0
 14 15  1  1
 16 15  1  0
 16 17  2  0
 18 17  1  0
 19 18  2  0
 20 21  2  0
 20 19  1  0
 21 16  1  0
 22 14  1  0
 23 22  2  0
 24 22  1  0
 25 24  1  0
 25 26  1  6
 26 27  1  0
 27 28  1  0
 28 32  1  0
 28 29  2  0
 30 31  1  0
 30 25  1  0
 33 30  2  0
M  END
$$$$
