YFE.pdb
     RDKit          3D

 33 34  0  0  1  0  0  0  0  0999 V2000
   21.3624   -9.1484  -26.1254 O   0  0  0  0  0  0  0  0  0  0  0  0
   21.0668   -8.8372  -24.8022 C   0  0  0  0  0  0  0  0  0  0  0  0
   21.9045   -9.2581  -23.7840 C   0  0  0  0  0  0  0  0  0  0  0  0
   21.5751   -8.9296  -22.4975 C   0  0  0  0  0  0  0  0  0  0  0  0
   20.4541   -8.2010  -22.1498 C   0  0  0  0  0  0  0  0  0  0  0  0
   20.1187   -7.8587  -20.7595 C   0  0  0  0  0  0  0  0  0  0  0  0
   19.6842   -9.1037  -20.0158 C   0  0  2  0  0  0  0  0  0  0  0  0
   18.3621   -9.4458  -20.5114 N   0  0  0  0  0  0  0  0  0  0  0  0
   19.5789   -8.8827  -18.5666 C   0  0  0  0  0  0  0  0  0  0  0  0
   18.4878   -8.4865  -18.0889 O   0  0  0  0  0  0  0  0  0  0  0  0
   19.6358   -7.7953  -23.2000 C   0  0  0  0  0  0  0  0  0  0  0  0
   19.9320   -8.1061  -24.5159 C   0  0  0  0  0  0  0  0  0  0  0  0
   20.6471   -9.0920  -17.6621 N   0  0  0  0  0  0  0  0  0  0  0  0
   20.4930   -8.7338  -16.2352 C   0  0  1  0  0  0  0  0  0  0  0  0
   21.0800   -9.8608  -15.4820 C   0  0  0  0  0  0  0  0  0  0  0  0
   21.4221   -9.6924  -14.0899 C   0  0  0  0  0  0  0  0  0  0  0  0
   20.4458   -9.4760  -13.1460 C   0  0  0  0  0  0  0  0  0  0  0  0
   20.7643   -9.3112  -11.7938 C   0  0  0  0  0  0  0  0  0  0  0  0
   22.0724   -9.3628  -11.3774 C   0  0  0  0  0  0  0  0  0  0  0  0
   23.0612   -9.5793  -12.3146 C   0  0  0  0  0  0  0  0  0  0  0  0
   22.7217   -9.7394  -13.6466 C   0  0  0  0  0  0  0  0  0  0  0  0
   21.1383   -7.4157  -16.0539 C   0  0  0  0  0  0  0  0  0  0  0  0
   22.1966   -7.1845  -16.7434 O   0  0  0  0  0  0  0  0  0  0  0  0
   20.6916   -6.3940  -15.1976 N   0  0  0  0  0  0  0  0  0  0  0  0
   21.4877   -5.1607  -15.0604 C   0  0  1  0  0  0  0  0  0  0  0  0
   20.7918   -4.0592  -15.7873 C   0  0  0  0  0  0  0  0  0  0  0  0
   19.4362   -3.7032  -15.3581 C   0  0  0  0  0  0  0  0  0  0  0  0
   18.7277   -2.6526  -16.0729 C   0  0  0  0  0  0  0  0  0  0  0  0
   19.3519   -1.9633  -16.9438 O   0  0  0  0  0  0  0  0  0  0  0  0
   21.8007   -4.9782  -13.6626 C   0  0  0  0  0  0  0  0  0  0  0  0
   21.2020   -5.7546  -12.6754 O   0  0  0  0  0  0  0  0  0  0  0  0
   17.3863   -2.3258  -15.8881 O   0  0  0  0  0  0  0  0  0  0  0  0
   22.6183   -4.1140  -13.2350 O   0  0  0  0  0  0  0  0  0  0  0  0
  2  1  1  0
  3  2  2  0
  4  3  1  0
  5 11  1  0
  5  4  2  0
  6  5  1  0
  7  6  1  0
  7  8  1  6
  9  7  1  0
  9 10  2  0
 11 12  2  0
 12  2  1  0
 13  9  1  0
 14 13  1  0
 14 15  1  1
 16 15  1  0
 16 17  2  0
 18 17  1  0
 19 18  2  0
 20 21  2  0
 20 19  1  0
 21 16  1  0
 22 14  1  0
 23 22  2  0
 24 22  1  0
 25 24  1  0
 25 26  1  1
 26 27  1  0
 27 28  1  0
 28 32  1  0
 28 29  2  0
 30 31  1  0
 30 25  1  0
 33 30  2  0
M  END
$$$$
