YFE.pdb
     RDKit          3D

 33 34  0  0  1  0  0  0  0  0999 V2000
   29.6887  -16.2590  -20.6330 O   0  0  0  0  0  0  0  0  0  0  0  0
   28.9317  -16.9401  -19.6853 C   0  0  0  0  0  0  0  0  0  0  0  0
   29.3056  -16.9239  -18.3529 C   0  0  0  0  0  0  0  0  0  0  0  0
   28.5320  -17.6075  -17.4552 C   0  0  0  0  0  0  0  0  0  0  0  0
   27.3962  -18.3157  -17.7971 C   0  0  0  0  0  0  0  0  0  0  0  0
   26.5786  -19.0440  -16.8154 C   0  0  0  0  0  0  0  0  0  0  0  0
   27.3877  -20.1716  -16.2105 C   0  0  2  0  0  0  0  0  0  0  0  0
   27.5146  -21.1916  -17.2371 N   0  0  0  0  0  0  0  0  0  0  0  0
   26.7210  -20.7801  -15.0506 C   0  0  0  0  0  0  0  0  0  0  0  0
   25.8146  -21.6267  -15.2444 O   0  0  0  0  0  0  0  0  0  0  0  0
   27.0516  -18.3092  -19.1456 C   0  0  0  0  0  0  0  0  0  0  0  0
   27.8064  -17.6307  -20.0867 C   0  0  0  0  0  0  0  0  0  0  0  0
   27.0419  -20.4667  -13.7084 N   0  0  0  0  0  0  0  0  0  0  0  0
   26.2193  -21.0047  -12.6029 C   0  0  1  0  0  0  0  0  0  0  0  0
   26.9332  -20.6315  -11.3648 C   0  0  0  0  0  0  0  0  0  0  0  0
   26.2363  -20.6522  -10.1009 C   0  0  0  0  0  0  0  0  0  0  0  0
   25.5853  -21.7858   -9.6743 C   0  0  0  0  0  0  0  0  0  0  0  0
   24.9063  -21.8187   -8.4516 C   0  0  0  0  0  0  0  0  0  0  0  0
   24.8759  -20.7077   -7.6443 C   0  0  0  0  0  0  0  0  0  0  0  0
   25.5251  -19.5642   -8.0610 C   0  0  0  0  0  0  0  0  0  0  0  0
   26.1902  -19.5556   -9.2745 C   0  0  0  0  0  0  0  0  0  0  0  0
   24.8604  -20.4465  -12.7712 C   0  0  0  0  0  0  0  0  0  0  0  0
   24.7708  -19.2768  -13.2934 O   0  0  0  0  0  0  0  0  0  0  0  0
   23.6603  -21.0862  -12.4145 N   0  0  0  0  0  0  0  0  0  0  0  0
   22.3785  -20.3812  -12.5979 C   0  0  1  0  0  0  0  0  0  0  0  0
   22.0096  -20.4281  -14.0428 C   0  0  0  0  0  0  0  0  0  0  0  0
   20.6767  -19.9537  -14.4263 C   0  0  0  0  0  0  0  0  0  0  0  0
   20.2745  -20.0453  -15.8214 C   0  0  0  0  0  0  0  0  0  0  0  0
   19.0877  -19.7176  -16.1492 O   0  0  0  0  0  0  0  0  0  0  0  0
   21.4395  -20.8913  -11.6268 C   0  0  0  0  0  0  0  0  0  0  0  0
   20.2644  -20.2107  -11.3235 O   0  0  0  0  0  0  0  0  0  0  0  0
   21.0969  -20.4679  -16.8633 O   0  0  0  0  0  0  0  0  0  0  0  0
   21.6103  -21.9671  -10.9852 O   0  0  0  0  0  0  0  0  0  0  0  0
  2  1  1  0
  3  2  2  0
  4  3  1  0
  5 11  1  0
  5  4  2  0
  6  5  1  0
  7  6  1  0
  7  8  1  6
  9  7  1  0
  9 10  2  0
 11 12  2  0
 12  2  1  0
 13  9  1  0
 14 13  1  0
 14 15  1  1
 16 15  1  0
 16 17  2  0
 18 17  1  0
 19 18  2  0
 20 21  2  0
 20 19  1  0
 21 16  1  0
 22 14  1  0
 23 22  2  0
 24 22  1  0
 25 24  1  0
 25 26  1  6
 26 27  1  0
 27 28  1  0
 28 32  1  0
 28 29  2  0
 30 31  1  0
 30 25  1  0
 33 30  2  0
M  END
$$$$
