YFE.pdb
     RDKit          3D

 33 34  0  0  1  0  0  0  0  0999 V2000
   12.5824  -24.2523    0.8570 O   0  0  0  0  0  0  0  0  0  0  0  0
   13.5057  -23.4785    1.5525 C   0  0  0  0  0  0  0  0  0  0  0  0
   14.8593  -23.7467    1.4466 C   0  0  0  0  0  0  0  0  0  0  0  0
   15.7318  -22.9603    2.1481 C   0  0  0  0  0  0  0  0  0  0  0  0
   15.3443  -21.9110    2.9588 C   0  0  0  0  0  0  0  0  0  0  0  0
   16.2995  -21.0779    3.7046 C   0  0  0  0  0  0  0  0  0  0  0  0
   16.3154  -19.6773    3.1298 C   0  0  2  0  0  0  0  0  0  0  0  0
   16.8147  -19.7899    1.7702 N   0  0  0  0  0  0  0  0  0  0  0  0
   17.2151  -18.7791    3.8673 C   0  0  0  0  0  0  0  0  0  0  0  0
   18.4397  -18.7835    3.5920 O   0  0  0  0  0  0  0  0  0  0  0  0
   13.9757  -21.6715    3.0406 C   0  0  0  0  0  0  0  0  0  0  0  0
   13.0589  -22.4428    2.3476 C   0  0  0  0  0  0  0  0  0  0  0  0
   16.7803  -17.8959    4.8841 N   0  0  0  0  0  0  0  0  0  0  0  0
   17.7302  -16.9394    5.4933 C   0  0  1  0  0  0  0  0  0  0  0  0
   17.1147  -15.6084    5.3164 C   0  0  0  0  0  0  0  0  0  0  0  0
   17.8258  -14.5792    4.5961 C   0  0  0  0  0  0  0  0  0  0  0  0
   18.1372  -14.7377    3.2661 C   0  0  0  0  0  0  0  0  0  0  0  0
   18.8260  -13.7479    2.5569 C   0  0  0  0  0  0  0  0  0  0  0  0
   19.2090  -12.5857    3.1813 C   0  0  0  0  0  0  0  0  0  0  0  0
   18.9025  -12.4147    4.5154 C   0  0  0  0  0  0  0  0  0  0  0  0
   18.2204  -13.4080    5.1960 C   0  0  0  0  0  0  0  0  0  0  0  0
   17.9473  -17.3827    6.8872 C   0  0  0  0  0  0  0  0  0  0  0  0
   16.9338  -17.8660    7.5102 O   0  0  0  0  0  0  0  0  0  0  0  0
   19.1658  -17.3255    7.5863 N   0  0  0  0  0  0  0  0  0  0  0  0
   19.2214  -17.7790    8.9880 C   0  0  1  0  0  0  0  0  0  0  0  0
   20.6243  -18.1739    9.3074 C   0  0  0  0  0  0  0  0  0  0  0  0
   20.9231  -18.5949   10.6793 C   0  0  0  0  0  0  0  0  0  0  0  0
   21.5156  -19.9057   10.8971 C   0  0  0  0  0  0  0  0  0  0  0  0
   20.8508  -20.9476   10.5876 O   0  0  0  0  0  0  0  0  0  0  0  0
   18.5786  -16.7820    9.8112 C   0  0  0  0  0  0  0  0  0  0  0  0
   18.5670  -15.4381    9.4512 O   0  0  0  0  0  0  0  0  0  0  0  0
   22.7846  -20.1304   11.4256 O   0  0  0  0  0  0  0  0  0  0  0  0
   17.9958  -17.0441   10.9021 O   0  0  0  0  0  0  0  0  0  0  0  0
  2  1  1  0
  3  2  2  0
  4  3  1  0
  5 11  1  0
  5  4  2  0
  6  5  1  0
  7  6  1  0
  7  8  1  6
  9  7  1  0
  9 10  2  0
 11 12  2  0
 12  2  1  0
 13  9  1  0
 14 13  1  0
 14 15  1  1
 16 15  1  0
 16 17  2  0
 18 17  1  0
 19 18  2  0
 20 21  2  0
 20 19  1  0
 21 16  1  0
 22 14  1  0
 23 22  2  0
 24 22  1  0
 25 24  1  0
 25 26  1  1
 26 27  1  0
 27 28  1  0
 28 32  1  0
 28 29  2  0
 30 31  1  0
 30 25  1  0
 33 30  2  0
M  END
$$$$
