YFE.pdb
     RDKit          3D

 33 34  0  0  1  0  0  0  0  0999 V2000
   27.8025  -24.6454  -17.1583 O   0  0  0  0  0  0  0  0  0  0  0  0
   26.7809  -24.1610  -16.3479 C   0  0  0  0  0  0  0  0  0  0  0  0
   25.9401  -25.0398  -15.6874 C   0  0  0  0  0  0  0  0  0  0  0  0
   24.9489  -24.5195  -14.9009 C   0  0  0  0  0  0  0  0  0  0  0  0
   24.7341  -23.1664  -14.7242 C   0  0  0  0  0  0  0  0  0  0  0  0
   23.6620  -22.6283  -13.8735 C   0  0  0  0  0  0  0  0  0  0  0  0
   22.3142  -22.9442  -14.4866 C   0  0  2  0  0  0  0  0  0  0  0  0
   22.2227  -22.1719  -15.7136 N   0  0  0  0  0  0  0  0  0  0  0  0
   21.1967  -22.5458  -13.6190 C   0  0  0  0  0  0  0  0  0  0  0  0
   20.8487  -21.3401  -13.5895 O   0  0  0  0  0  0  0  0  0  0  0  0
   25.5990  -22.3138  -15.4039 C   0  0  0  0  0  0  0  0  0  0  0  0
   26.6148  -22.7980  -16.2097 C   0  0  0  0  0  0  0  0  0  0  0  0
   20.4774  -23.4504  -12.8023 N   0  0  0  0  0  0  0  0  0  0  0  0
   19.2893  -22.9895  -12.0511 C   0  0  1  0  0  0  0  0  0  0  0  0
   18.2385  -22.7808  -13.0680 C   0  0  0  0  0  0  0  0  0  0  0  0
   17.8443  -23.8720  -13.9266 C   0  0  0  0  0  0  0  0  0  0  0  0
   17.9591  -23.7697  -15.2931 C   0  0  0  0  0  0  0  0  0  0  0  0
   17.5804  -24.8200  -16.1361 C   0  0  0  0  0  0  0  0  0  0  0  0
   17.0812  -25.9868  -15.6102 C   0  0  0  0  0  0  0  0  0  0  0  0
   16.9611  -26.1019  -14.2408 C   0  0  0  0  0  0  0  0  0  0  0  0
   17.3423  -25.0493  -13.4272 C   0  0  0  0  0  0  0  0  0  0  0  0
   19.0121  -24.0133  -11.0208 C   0  0  0  0  0  0  0  0  0  0  0  0
   19.5184  -25.1789  -11.2055 O   0  0  0  0  0  0  0  0  0  0  0  0
   18.2481  -23.8202   -9.8564 N   0  0  0  0  0  0  0  0  0  0  0  0
   18.0276  -24.9505   -8.9360 C   0  0  1  0  0  0  0  0  0  0  0  0
   17.7535  -24.4103   -7.5725 C   0  0  0  0  0  0  0  0  0  0  0  0
   17.6186  -25.3668   -6.4699 C   0  0  0  0  0  0  0  0  0  0  0  0
   17.1235  -24.8923   -5.1868 C   0  0  0  0  0  0  0  0  0  0  0  0
   16.7848  -23.6702   -5.0645 O   0  0  0  0  0  0  0  0  0  0  0  0
   17.0604  -25.8394   -9.5356 C   0  0  0  0  0  0  0  0  0  0  0  0
   17.1027  -27.2132   -9.3199 O   0  0  0  0  0  0  0  0  0  0  0  0
   16.9781  -25.6792   -4.0467 O   0  0  0  0  0  0  0  0  0  0  0  0
   16.1255  -25.4495  -10.2921 O   0  0  0  0  0  0  0  0  0  0  0  0
  2  1  1  0
  3  2  2  0
  4  3  1  0
  5 11  1  0
  5  4  2  0
  6  5  1  0
  7  6  1  0
  7  8  1  6
  9  7  1  0
  9 10  2  0
 11 12  2  0
 12  2  1  0
 13  9  1  0
 14 13  1  0
 14 15  1  6
 16 15  1  0
 16 17  2  0
 18 17  1  0
 19 18  2  0
 20 21  2  0
 20 19  1  0
 21 16  1  0
 22 14  1  0
 23 22  2  0
 24 22  1  0
 25 24  1  0
 25 26  1  1
 26 27  1  0
 27 28  1  0
 28 32  1  0
 28 29  2  0
 30 31  1  0
 30 25  1  0
 33 30  2  0
M  END
$$$$
