YFE.pdb
     RDKit          3D

 33 34  0  0  1  0  0  0  0  0999 V2000
   24.3361  -17.6841  -17.7095 O   0  0  0  0  0  0  0  0  0  0  0  0
   24.4199  -18.2747  -16.4528 C   0  0  0  0  0  0  0  0  0  0  0  0
   24.9526  -17.5708  -15.3868 C   0  0  0  0  0  0  0  0  0  0  0  0
   25.0156  -18.1906  -14.1688 C   0  0  0  0  0  0  0  0  0  0  0  0
   24.5789  -19.4803  -13.9356 C   0  0  0  0  0  0  0  0  0  0  0  0
   24.6561  -20.1278  -12.6174 C   0  0  0  0  0  0  0  0  0  0  0  0
   26.1056  -20.3238  -12.2269 C   0  0  2  0  0  0  0  0  0  0  0  0
   26.6157  -21.4088  -13.0474 N   0  0  0  0  0  0  0  0  0  0  0  0
   26.2586  -20.7139  -10.8182 C   0  0  0  0  0  0  0  0  0  0  0  0
   26.0717  -21.9122  -10.4945 O   0  0  0  0  0  0  0  0  0  0  0  0
   24.0496  -20.1565  -15.0308 C   0  0  0  0  0  0  0  0  0  0  0  0
   23.9673  -19.5669  -16.2804 C   0  0  0  0  0  0  0  0  0  0  0  0
   26.6089  -19.8091   -9.7879 N   0  0  0  0  0  0  0  0  0  0  0  0
   26.8217  -20.3000   -8.4088 C   0  0  1  0  0  0  0  0  0  0  0  0
   27.6568  -19.2742   -7.7514 C   0  0  0  0  0  0  0  0  0  0  0  0
   28.1282  -19.4884   -6.4041 C   0  0  0  0  0  0  0  0  0  0  0  0
   27.7991  -18.6136   -5.3955 C   0  0  0  0  0  0  0  0  0  0  0  0
   28.2497  -18.8101   -4.0857 C   0  0  0  0  0  0  0  0  0  0  0  0
   29.0382  -19.8920   -3.7776 C   0  0  0  0  0  0  0  0  0  0  0  0
   29.3753  -20.7769   -4.7807 C   0  0  0  0  0  0  0  0  0  0  0  0
   28.9176  -20.5617   -6.0688 C   0  0  0  0  0  0  0  0  0  0  0  0
   25.4822  -20.5288   -7.8258 C   0  0  0  0  0  0  0  0  0  0  0  0
   24.5214  -19.8003   -8.2675 O   0  0  0  0  0  0  0  0  0  0  0  0
   25.1690  -21.4764   -6.8355 N   0  0  0  0  0  0  0  0  0  0  0  0
   23.7945  -21.5486   -6.3073 C   0  0  1  0  0  0  0  0  0  0  0  0
   23.0714  -22.6512   -7.0054 C   0  0  0  0  0  0  0  0  0  0  0  0
   21.7551  -23.0416   -6.4917 C   0  0  0  0  0  0  0  0  0  0  0  0
   20.5952  -22.2424   -6.8556 C   0  0  0  0  0  0  0  0  0  0  0  0
   20.4132  -21.9313   -8.0777 O   0  0  0  0  0  0  0  0  0  0  0  0
   23.8652  -21.5714   -4.8653 C   0  0  0  0  0  0  0  0  0  0  0  0
   25.0560  -21.8442   -4.1993 O   0  0  0  0  0  0  0  0  0  0  0  0
   19.6343  -21.7764   -5.9613 O   0  0  0  0  0  0  0  0  0  0  0  0
   22.8728  -21.3579   -4.1119 O   0  0  0  0  0  0  0  0  0  0  0  0
  2  1  1  0
  3  2  2  0
  4  3  1  0
  5 11  1  0
  5  4  2  0
  6  5  1  0
  7  6  1  0
  7  8  1  6
  9  7  1  0
  9 10  2  0
 11 12  2  0
 12  2  1  0
 13  9  1  0
 14 13  1  0
 14 15  1  1
 16 15  1  0
 16 17  2  0
 18 17  1  0
 19 18  2  0
 20 21  2  0
 20 19  1  0
 21 16  1  0
 22 14  1  0
 23 22  2  0
 24 22  1  0
 25 24  1  0
 25 26  1  6
 26 27  1  0
 27 28  1  0
 28 32  1  0
 28 29  2  0
 30 31  1  0
 30 25  1  0
 33 30  2  0
M  END
$$$$
