YFE.pdb
     RDKit          3D

 33 34  0  0  1  0  0  0  0  0999 V2000
   11.7923  -23.7604    2.5805 O   0  0  0  0  0  0  0  0  0  0  0  0
   12.8499  -22.9263    2.9281 C   0  0  0  0  0  0  0  0  0  0  0  0
   12.6105  -21.7447    3.6078 C   0  0  0  0  0  0  0  0  0  0  0  0
   13.6803  -20.9549    3.9295 C   0  0  0  0  0  0  0  0  0  0  0  0
   14.9898  -21.2646    3.6172 C   0  0  0  0  0  0  0  0  0  0  0  0
   16.1256  -20.4008    3.9729 C   0  0  0  0  0  0  0  0  0  0  0  0
   16.1220  -19.1641    3.0995 C   0  0  2  0  0  0  0  0  0  0  0  0
   16.4618  -19.6010    1.7563 N   0  0  0  0  0  0  0  0  0  0  0  0
   17.1271  -18.1779    3.5204 C   0  0  0  0  0  0  0  0  0  0  0  0
   18.3160  -18.3217    3.1441 O   0  0  0  0  0  0  0  0  0  0  0  0
   15.1915  -22.4602    2.9339 C   0  0  0  0  0  0  0  0  0  0  0  0
   14.1376  -23.2885    2.5890 C   0  0  0  0  0  0  0  0  0  0  0  0
   16.8340  -17.0590    4.3358 N   0  0  0  0  0  0  0  0  0  0  0  0
   17.9134  -16.1325    4.7418 C   0  0  1  0  0  0  0  0  0  0  0  0
   17.3992  -14.7789    4.4499 C   0  0  0  0  0  0  0  0  0  0  0  0
   18.1662  -13.6204    4.8414 C   0  0  0  0  0  0  0  0  0  0  0  0
   17.9261  -12.9889    6.0391 C   0  0  0  0  0  0  0  0  0  0  0  0
   18.6623  -11.8653    6.4299 C   0  0  0  0  0  0  0  0  0  0  0  0
   19.6500  -11.3652    5.6166 C   0  0  0  0  0  0  0  0  0  0  0  0
   19.9004  -11.9897    4.4124 C   0  0  0  0  0  0  0  0  0  0  0  0
   19.1591  -13.0998    4.0474 C   0  0  0  0  0  0  0  0  0  0  0  0
   18.2191  -16.4278    6.1581 C   0  0  0  0  0  0  0  0  0  0  0  0
   17.2397  -16.7981    6.9014 O   0  0  0  0  0  0  0  0  0  0  0  0
   19.4874  -16.3432    6.7589 N   0  0  0  0  0  0  0  0  0  0  0  0
   19.6136  -16.5157    8.2176 C   0  0  1  0  0  0  0  0  0  0  0  0
   20.9732  -17.0507    8.5198 C   0  0  0  0  0  0  0  0  0  0  0  0
   21.2956  -17.3555    9.9170 C   0  0  0  0  0  0  0  0  0  0  0  0
   20.8123  -18.6014   10.4923 C   0  0  0  0  0  0  0  0  0  0  0  0
   20.1590  -18.5691   11.5856 O   0  0  0  0  0  0  0  0  0  0  0  0
   19.1946  -15.2899    8.8554 C   0  0  0  0  0  0  0  0  0  0  0  0
   18.2078  -15.2803    9.8362 O   0  0  0  0  0  0  0  0  0  0  0  0
   21.0019  -19.8642    9.9357 O   0  0  0  0  0  0  0  0  0  0  0  0
   19.6745  -14.1546    8.5744 O   0  0  0  0  0  0  0  0  0  0  0  0
  2  1  1  0
  3  2  2  0
  4  3  1  0
  5 11  1  0
  5  4  2  0
  6  5  1  0
  7  6  1  0
  7  8  1  6
  9  7  1  0
  9 10  2  0
 11 12  2  0
 12  2  1  0
 13  9  1  0
 14 13  1  0
 14 15  1  1
 16 15  1  0
 16 17  2  0
 18 17  1  0
 19 18  2  0
 20 21  2  0
 20 19  1  0
 21 16  1  0
 22 14  1  0
 23 22  2  0
 24 22  1  0
 25 24  1  0
 25 26  1  6
 26 27  1  0
 27 28  1  0
 28 32  1  0
 28 29  2  0
 30 31  1  0
 30 25  1  0
 33 30  2  0
M  END
$$$$
