YFE.pdb
     RDKit          3D

 33 34  0  0  1  0  0  0  0  0999 V2000
   19.7494   -9.0015  -19.3117 O   0  0  0  0  0  0  0  0  0  0  0  0
   20.1238  -10.3182  -19.0638 C   0  0  0  0  0  0  0  0  0  0  0  0
   20.4127  -11.1698  -20.1159 C   0  0  0  0  0  0  0  0  0  0  0  0
   20.7766  -12.4563  -19.8259 C   0  0  0  0  0  0  0  0  0  0  0  0
   20.8742  -12.9604  -18.5434 C   0  0  0  0  0  0  0  0  0  0  0  0
   21.2675  -14.3476  -18.2540 C   0  0  0  0  0  0  0  0  0  0  0  0
   22.7392  -14.4001  -17.9025 C   0  0  2  0  0  0  0  0  0  0  0  0
   23.4711  -14.1536  -19.1330 N   0  0  0  0  0  0  0  0  0  0  0  0
   23.1466  -15.7166  -17.3918 C   0  0  0  0  0  0  0  0  0  0  0  0
   23.4450  -16.6211  -18.2095 O   0  0  0  0  0  0  0  0  0  0  0  0
   20.5762  -12.0751  -17.5117 C   0  0  0  0  0  0  0  0  0  0  0  0
   20.2039  -10.7654  -17.7607 C   0  0  0  0  0  0  0  0  0  0  0  0
   23.2250  -16.0333  -16.0147 N   0  0  0  0  0  0  0  0  0  0  0  0
   23.7238  -17.3577  -15.5842 C   0  0  1  0  0  0  0  0  0  0  0  0
   24.9174  -17.0786  -14.7600 C   0  0  0  0  0  0  0  0  0  0  0  0
   26.1736  -16.7670  -15.3991 C   0  0  0  0  0  0  0  0  0  0  0  0
   26.6818  -15.4897  -15.3677 C   0  0  0  0  0  0  0  0  0  0  0  0
   27.8980  -15.1748  -15.9833 C   0  0  0  0  0  0  0  0  0  0  0  0
   28.6164  -16.1454  -16.6382 C   0  0  0  0  0  0  0  0  0  0  0  0
   28.1173  -17.4308  -16.6768 C   0  0  0  0  0  0  0  0  0  0  0  0
   26.9120  -17.7182  -16.0606 C   0  0  0  0  0  0  0  0  0  0  0  0
   22.6001  -18.0366  -14.9040 C   0  0  0  0  0  0  0  0  0  0  0  0
   22.1142  -17.4611  -13.8640 O   0  0  0  0  0  0  0  0  0  0  0  0
   22.0154  -19.2526  -15.2994 N   0  0  0  0  0  0  0  0  0  0  0  0
   20.8957  -19.8087  -14.5180 C   0  0  1  0  0  0  0  0  0  0  0  0
   19.8521  -20.3026  -15.4630 C   0  0  0  0  0  0  0  0  0  0  0  0
   18.6324  -20.8845  -14.8951 C   0  0  0  0  0  0  0  0  0  0  0  0
   17.6739  -21.5148  -15.7899 C   0  0  0  0  0  0  0  0  0  0  0  0
   17.9261  -21.5615  -17.0379 O   0  0  0  0  0  0  0  0  0  0  0  0
   21.4367  -20.7262  -13.5431 C   0  0  0  0  0  0  0  0  0  0  0  0
   20.8278  -20.9169  -12.3067 O   0  0  0  0  0  0  0  0  0  0  0  0
   16.4708  -22.0932  -15.3919 O   0  0  0  0  0  0  0  0  0  0  0  0
   22.4857  -21.4069  -13.7286 O   0  0  0  0  0  0  0  0  0  0  0  0
  2  1  1  0
  3  2  2  0
  4  3  1  0
  5 11  1  0
  5  4  2  0
  6  5  1  0
  7  6  1  0
  7  8  1  6
  9  7  1  0
  9 10  2  0
 11 12  2  0
 12  2  1  0
 13  9  1  0
 14 13  1  0
 14 15  1  1
 16 15  1  0
 16 17  2  0
 18 17  1  0
 19 18  2  0
 20 21  2  0
 20 19  1  0
 21 16  1  0
 22 14  1  0
 23 22  2  0
 24 22  1  0
 25 24  1  0
 25 26  1  6
 26 27  1  0
 27 28  1  0
 28 32  1  0
 28 29  2  0
 30 31  1  0
 30 25  1  0
 33 30  2  0
M  END
$$$$
