YFE.pdb
     RDKit          3D

 33 34  0  0  1  0  0  0  0  0999 V2000
   49.5835  -11.6177   -3.1053 O   0  0  0  0  0  0  0  0  0  0  0  0
   48.5630  -11.1411   -3.9216 C   0  0  0  0  0  0  0  0  0  0  0  0
   47.4216  -10.5938   -3.3618 C   0  0  0  0  0  0  0  0  0  0  0  0
   46.4434  -10.1375   -4.2022 C   0  0  0  0  0  0  0  0  0  0  0  0
   46.5240  -10.1892   -5.5804 C   0  0  0  0  0  0  0  0  0  0  0  0
   45.4599   -9.6926   -6.4658 C   0  0  0  0  0  0  0  0  0  0  0  0
   44.2764  -10.6358   -6.4234 C   0  0  2  0  0  0  0  0  0  0  0  0
   44.6691  -11.8308   -7.1502 N   0  0  0  0  0  0  0  0  0  0  0  0
   43.0895  -10.0756   -7.0850 C   0  0  0  0  0  0  0  0  0  0  0  0
   43.0127  -10.1200   -8.3372 O   0  0  0  0  0  0  0  0  0  0  0  0
   47.6859  -10.7459   -6.1067 C   0  0  0  0  0  0  0  0  0  0  0  0
   48.7000  -11.2195   -5.2925 C   0  0  0  0  0  0  0  0  0  0  0  0
   42.0113   -9.4803   -6.3880 N   0  0  0  0  0  0  0  0  0  0  0  0
   40.8627   -8.9214   -7.1340 C   0  0  1  0  0  0  0  0  0  0  0  0
   39.6685   -9.2787   -6.3416 C   0  0  0  0  0  0  0  0  0  0  0  0
   38.3962   -8.6692   -6.6469 C   0  0  0  0  0  0  0  0  0  0  0  0
   37.9739   -7.5465   -5.9745 C   0  0  0  0  0  0  0  0  0  0  0  0
   36.7431   -6.9464   -6.2609 C   0  0  0  0  0  0  0  0  0  0  0  0
   35.9231   -7.4720   -7.2297 C   0  0  0  0  0  0  0  0  0  0  0  0
   36.3354   -8.5982   -7.9114 C   0  0  0  0  0  0  0  0  0  0  0  0
   37.5572   -9.1742   -7.6105 C   0  0  0  0  0  0  0  0  0  0  0  0
   41.1282   -7.4770   -7.3068 C   0  0  0  0  0  0  0  0  0  0  0  0
   41.6701   -6.8611   -6.3189 O   0  0  0  0  0  0  0  0  0  0  0  0
   40.8439   -6.7222   -8.4585 N   0  0  0  0  0  0  0  0  0  0  0  0
   41.0111   -5.2577   -8.4273 C   0  0  1  0  0  0  0  0  0  0  0  0
   42.1206   -4.8835   -9.3519 C   0  0  0  0  0  0  0  0  0  0  0  0
   43.3858   -4.4381   -8.7604 C   0  0  0  0  0  0  0  0  0  0  0  0
   44.4245   -3.9181   -9.6363 C   0  0  0  0  0  0  0  0  0  0  0  0
   44.2113   -3.8668  -10.8914 O   0  0  0  0  0  0  0  0  0  0  0  0
   39.7151   -4.6509   -8.6200 C   0  0  0  0  0  0  0  0  0  0  0  0
   39.5000   -3.2992   -8.3699 O   0  0  0  0  0  0  0  0  0  0  0  0
   45.6673   -3.4531   -9.2125 O   0  0  0  0  0  0  0  0  0  0  0  0
   38.6959   -5.2863   -9.0145 O   0  0  0  0  0  0  0  0  0  0  0  0
  2  1  1  0
  3  2  2  0
  4  3  1  0
  5 11  1  0
  5  4  2  0
  6  5  1  0
  7  6  1  0
  7  8  1  6
  9  7  1  0
  9 10  2  0
 11 12  2  0
 12  2  1  0
 13  9  1  0
 14 13  1  0
 14 15  1  1
 16 15  1  0
 16 17  2  0
 18 17  1  0
 19 18  2  0
 20 21  2  0
 20 19  1  0
 21 16  1  0
 22 14  1  0
 23 22  2  0
 24 22  1  0
 25 24  1  0
 25 26  1  6
 26 27  1  0
 27 28  1  0
 28 32  1  0
 28 29  2  0
 30 31  1  0
 30 25  1  0
 33 30  2  0
M  END
$$$$
