YFE.pdb
     RDKit          3D

 33 34  0  0  1  0  0  0  0  0999 V2000
   17.1632  -25.9426   -9.6981 O   0  0  0  0  0  0  0  0  0  0  0  0
   17.8405  -24.9695  -10.4257 C   0  0  0  0  0  0  0  0  0  0  0  0
   19.1509  -25.1797  -10.8182 C   0  0  0  0  0  0  0  0  0  0  0  0
   19.7784  -24.1958  -11.5323 C   0  0  0  0  0  0  0  0  0  0  0  0
   19.1832  -23.0007  -11.8874 C   0  0  0  0  0  0  0  0  0  0  0  0
   19.8764  -21.9559  -12.6558 C   0  0  0  0  0  0  0  0  0  0  0  0
   20.9426  -21.3102  -11.7965 C   0  0  2  0  0  0  0  0  0  0  0  0
   20.2583  -20.3920  -10.9025 N   0  0  0  0  0  0  0  0  0  0  0  0
   21.9065  -20.5334  -12.5888 C   0  0  0  0  0  0  0  0  0  0  0  0
   21.6419  -19.3387  -12.8687 O   0  0  0  0  0  0  0  0  0  0  0  0
   17.8655  -22.8251  -11.4753 C   0  0  0  0  0  0  0  0  0  0  0  0
   17.1935  -23.7948  -10.7513 C   0  0  0  0  0  0  0  0  0  0  0  0
   23.1331  -21.0562  -13.0632 N   0  0  0  0  0  0  0  0  0  0  0  0
   24.0602  -20.1957  -13.8301 C   0  0  1  0  0  0  0  0  0  0  0  0
   25.4147  -20.6758  -13.4884 C   0  0  0  0  0  0  0  0  0  0  0  0
   26.5493  -20.2334  -14.2634 C   0  0  0  0  0  0  0  0  0  0  0  0
   27.2961  -21.1286  -14.9925 C   0  0  0  0  0  0  0  0  0  0  0  0
   28.3980  -20.7125  -15.7474 C   0  0  0  0  0  0  0  0  0  0  0  0
   28.7598  -19.3876  -15.7758 C   0  0  0  0  0  0  0  0  0  0  0  0
   28.0185  -18.4796  -15.0485 C   0  0  0  0  0  0  0  0  0  0  0  0
   26.9326  -18.9149  -14.3092 C   0  0  0  0  0  0  0  0  0  0  0  0
   23.6646  -20.3020  -15.2509 C   0  0  0  0  0  0  0  0  0  0  0  0
   23.2933  -21.4582  -15.6682 O   0  0  0  0  0  0  0  0  0  0  0  0
   23.6551  -19.2479  -16.1813 N   0  0  0  0  0  0  0  0  0  0  0  0
   23.2687  -19.5154  -17.5787 C   0  0  1  0  0  0  0  0  0  0  0  0
   22.4416  -18.3761  -18.0724 C   0  0  0  0  0  0  0  0  0  0  0  0
   21.9815  -18.4145  -19.4637 C   0  0  0  0  0  0  0  0  0  0  0  0
   21.1864  -17.3064  -19.9701 C   0  0  0  0  0  0  0  0  0  0  0  0
   20.9660  -16.3036  -19.2157 O   0  0  0  0  0  0  0  0  0  0  0  0
   24.4570  -19.8780  -18.3145 C   0  0  0  0  0  0  0  0  0  0  0  0
   25.5880  -19.0677  -18.3153 O   0  0  0  0  0  0  0  0  0  0  0  0
   20.6315  -17.2395  -21.2460 O   0  0  0  0  0  0  0  0  0  0  0  0
   24.5585  -20.9316  -19.0058 O   0  0  0  0  0  0  0  0  0  0  0  0
  2  1  1  0
  3  2  2  0
  4  3  1  0
  5 11  1  0
  5  4  2  0
  6  5  1  0
  7  6  1  0
  7  8  1  1
  9  7  1  0
  9 10  2  0
 11 12  2  0
 12  2  1  0
 13  9  1  0
 14 13  1  0
 14 15  1  6
 16 15  1  0
 16 17  2  0
 18 17  1  0
 19 18  2  0
 20 21  2  0
 20 19  1  0
 21 16  1  0
 22 14  1  0
 23 22  2  0
 24 22  1  0
 25 24  1  0
 25 26  1  6
 26 27  1  0
 27 28  1  0
 28 32  1  0
 28 29  2  0
 30 31  1  0
 30 25  1  0
 33 30  2  0
M  END
$$$$
