QTH.pdb
     RDKit          3D

 27 27  0  0  1  0  0  0  0  0999 V2000
   12.3354  -18.9911   21.7605 N   0  0  0  0  0  0  0  0  0  0  0  0
   12.9516  -18.6305   20.5375 C   0  0  0  0  0  0  0  0  0  0  0  0
   14.1440  -19.0075   20.3450 O   0  0  0  0  0  0  0  0  0  0  0  0
   12.2279  -17.8475   19.5382 C   0  0  0  0  0  0  0  0  0  0  0  0
   10.9338  -18.4466   19.1475 C   0  0  0  0  0  0  0  0  0  0  0  0
    9.9228  -17.4328   18.7312 C   0  0  2  0  0  0  0  0  0  0  0  0
   10.2943  -16.8675   17.4252 N   0  0  0  0  0  0  0  0  0  0  0  0
    9.7673  -16.3080   19.6715 C   0  0  0  0  0  0  0  0  0  0  0  0
   10.5301  -15.2985   19.6034 O   0  0  0  0  0  0  0  0  0  0  0  0
    6.7442  -14.2216   20.2176 C   0  0  0  0  0  0  0  0  0  0  0  0
    7.1083  -14.8111   21.5623 C   0  0  1  0  0  0  0  0  0  0  0  0
    6.3501  -15.9596   21.7577 O   0  0  0  0  0  0  0  0  0  0  0  0
    8.5743  -15.1839   21.5706 C   0  0  2  0  0  0  0  0  0  0  0  0
    8.7811  -16.3146   20.6632 N   0  0  0  0  0  0  0  0  0  0  0  0
    8.9871  -15.5983   22.9239 C   0  0  0  0  0  0  0  0  0  0  0  0
    9.2821  -16.8067   23.1887 O   0  0  0  0  0  0  0  0  0  0  0  0
    9.0763  -14.6721   23.9981 N   0  0  0  0  0  0  0  0  0  0  0  0
    9.3827  -15.0662   25.3693 C   0  0  1  0  0  0  0  0  0  0  0  0
    9.5362  -13.8641   26.2599 C   0  0  0  0  0  0  0  0  0  0  0  0
    9.8906  -14.2803   27.6130 C   0  0  0  0  0  0  0  0  0  0  0  0
   10.3002  -15.5108   28.0665 C   0  0  0  0  0  0  0  0  0  0  0  0
   10.5051  -15.4511   29.3774 N   0  0  0  0  0  0  0  0  0  0  0  0
   10.2376  -14.2018   29.7962 C   0  0  0  0  0  0  0  0  0  0  0  0
    9.8640  -13.4913   28.7214 N   0  0  0  0  0  0  0  0  0  0  0  0
    8.4619  -16.0948   25.8621 C   0  0  0  0  0  0  0  0  0  0  0  0
    7.2305  -16.1244   25.6372 O   0  0  0  0  0  0  0  0  0  0  0  0
    8.9390  -17.1596   26.6560 O   0  0  0  0  0  0  0  0  0  0  0  0
  2  1  1  0
  2  3  2  0
  4  2  1  0
  5  4  1  0
  5  6  1  0
  6  8  1  0
  6  7  1  6
  8  9  2  0
 11 13  1  0
 11 10  1  6
 12 11  1  0
 13 14  1  6
 14  8  1  0
 15 16  2  0
 15 13  1  0
 17 15  1  0
 18 25  1  0
 18 17  1  0
 18 19  1  1
 20 19  1  0
 20 24  1  0
 21 20  2  0
 22 21  1  0
 22 23  1  0
 23 24  2  0
 25 27  1  0
 26 25  2  0
M  END
$$$$
