QTH.pdb
     RDKit          3D

 27 27  0  0  1  0  0  0  0  0999 V2000
   15.6420  -16.3536   18.9940 N   0  0  0  0  0  0  0  0  0  0  0  0
   15.2774  -15.3035   18.1167 C   0  0  0  0  0  0  0  0  0  0  0  0
   16.1908  -14.5223   17.7213 O   0  0  0  0  0  0  0  0  0  0  0  0
   13.8903  -15.1342   17.6893 C   0  0  0  0  0  0  0  0  0  0  0  0
   12.9567  -14.8887   18.8095 C   0  0  0  0  0  0  0  0  0  0  0  0
   11.5419  -14.7298   18.3664 C   0  0  2  0  0  0  0  0  0  0  0  0
   11.4949  -13.9384   17.1275 N   0  0  0  0  0  0  0  0  0  0  0  0
   10.6683  -14.0637   19.3496 C   0  0  0  0  0  0  0  0  0  0  0  0
   10.5202  -12.8054   19.3346 O   0  0  0  0  0  0  0  0  0  0  0  0
    7.3670  -13.5720   19.6285 C   0  0  0  0  0  0  0  0  0  0  0  0
    7.6572  -14.3720   20.8791 C   0  0  1  0  0  0  0  0  0  0  0  0
    7.4764  -15.7195   20.5899 O   0  0  0  0  0  0  0  0  0  0  0  0
    9.0929  -14.1490   21.3001 C   0  0  2  0  0  0  0  0  0  0  0  0
    9.9778  -14.7901   20.3252 N   0  0  0  0  0  0  0  0  0  0  0  0
    9.3388  -14.7625   22.6180 C   0  0  0  0  0  0  0  0  0  0  0  0
    9.8622  -15.9164   22.7276 O   0  0  0  0  0  0  0  0  0  0  0  0
    9.0048  -14.0984   23.8292 N   0  0  0  0  0  0  0  0  0  0  0  0
    9.2503  -14.6716   25.1485 C   0  0  1  0  0  0  0  0  0  0  0  0
    9.1224  -13.6309   26.2267 C   0  0  0  0  0  0  0  0  0  0  0  0
    9.5014  -14.1936   27.5188 C   0  0  0  0  0  0  0  0  0  0  0  0
    9.9771  -15.4475   27.8168 C   0  0  0  0  0  0  0  0  0  0  0  0
   10.1813  -15.5414   29.1258 N   0  0  0  0  0  0  0  0  0  0  0  0
    9.8482  -14.3703   29.6963 C   0  0  0  0  0  0  0  0  0  0  0  0
    9.4349  -13.5519   28.7170 N   0  0  0  0  0  0  0  0  0  0  0  0
    8.4735  -15.8955   25.3667 C   0  0  0  0  0  0  0  0  0  0  0  0
    7.2853  -16.0656   25.0106 O   0  0  0  0  0  0  0  0  0  0  0  0
    9.0535  -17.0022   26.0229 O   0  0  0  0  0  0  0  0  0  0  0  0
  2  1  1  0
  2  3  2  0
  4  2  1  0
  5  4  1  0
  5  6  1  0
  6  8  1  0
  6  7  1  6
  8  9  2  0
 11 13  1  0
 11 10  1  6
 12 11  1  0
 13 14  1  6
 14  8  1  0
 15 16  2  0
 15 13  1  0
 17 15  1  0
 18 25  1  0
 18 17  1  0
 18 19  1  1
 20 19  1  0
 20 24  1  0
 21 20  2  0
 22 21  1  0
 22 23  1  0
 23 24  2  0
 25 27  1  0
 26 25  2  0
M  END
$$$$
