QTH.pdb
     RDKit          3D

 27 27  0  0  1  0  0  0  0  0999 V2000
   17.4024  -21.9361   12.7662 N   0  0  0  0  0  0  0  0  0  0  0  0
   17.0908  -20.7432   12.0696 C   0  0  0  0  0  0  0  0  0  0  0  0
   18.0075  -20.2056   11.3827 O   0  0  0  0  0  0  0  0  0  0  0  0
   15.7538  -20.1588   12.1488 C   0  0  0  0  0  0  0  0  0  0  0  0
   14.7976  -20.9831   12.9187 C   0  0  0  0  0  0  0  0  0  0  0  0
   13.4612  -20.3394   13.0695 C   0  0  2  0  0  0  0  0  0  0  0  0
   13.3933  -19.1324   12.2317 N   0  0  0  0  0  0  0  0  0  0  0  0
   13.1319  -19.9385   14.4495 C   0  0  0  0  0  0  0  0  0  0  0  0
   13.5926  -18.8638   14.9377 O   0  0  0  0  0  0  0  0  0  0  0  0
    9.5471  -20.3001   15.8055 C   0  0  0  0  0  0  0  0  0  0  0  0
   10.4936  -20.8189   16.8653 C   0  0  1  0  0  0  0  0  0  0  0  0
   10.5125  -22.2070   16.7952 O   0  0  0  0  0  0  0  0  0  0  0  0
   11.8874  -20.2951   16.5984 C   0  0  2  0  0  0  0  0  0  0  0  0
   12.3066  -20.7228   15.2620 N   0  0  0  0  0  0  0  0  0  0  0  0
   12.8374  -20.8518   17.5788 C   0  0  0  0  0  0  0  0  0  0  0  0
   13.7874  -21.6189   17.2233 O   0  0  0  0  0  0  0  0  0  0  0  0
   12.7408  -20.5607   18.9665 N   0  0  0  0  0  0  0  0  0  0  0  0
   13.8552  -20.7180   19.8952 C   0  0  1  0  0  0  0  0  0  0  0  0
   15.0754  -19.9844   19.4108 C   0  0  0  0  0  0  0  0  0  0  0  0
   16.1796  -20.1678   20.3472 C   0  0  0  0  0  0  0  0  0  0  0  0
   16.1442  -20.3969   21.7013 C   0  0  0  0  0  0  0  0  0  0  0  0
   17.3854  -20.4886   22.1650 N   0  0  0  0  0  0  0  0  0  0  0  0
   18.2390  -20.3237   21.1394 C   0  0  0  0  0  0  0  0  0  0  0  0
   17.5035  -20.1287   20.0345 N   0  0  0  0  0  0  0  0  0  0  0  0
   13.4610  -20.4296   21.2773 C   0  0  0  0  0  0  0  0  0  0  0  0
   13.8659  -21.0525   22.2851 O   0  0  0  0  0  0  0  0  0  0  0  0
   12.5586  -19.3816   21.5588 O   0  0  0  0  0  0  0  0  0  0  0  0
  2  1  1  0
  2  3  2  0
  4  2  1  0
  5  4  1  0
  5  6  1  0
  6  8  1  0
  6  7  1  6
  8  9  2  0
 11 13  1  0
 11 10  1  6
 12 11  1  0
 13 14  1  6
 14  8  1  0
 15 16  2  0
 15 13  1  0
 17 15  1  0
 18 25  1  0
 18 17  1  0
 18 19  1  6
 20 19  1  0
 20 24  1  0
 21 20  2  0
 22 21  1  0
 22 23  1  0
 23 24  2  0
 25 27  1  0
 26 25  2  0
M  END
$$$$
