QTH.pdb
     RDKit          3D

 27 27  0  0  1  0  0  0  0  0999 V2000
   12.2548  -14.0775   20.6920 N   0  0  0  0  0  0  0  0  0  0  0  0
   13.0158  -14.7442   19.7012 C   0  0  0  0  0  0  0  0  0  0  0  0
   14.1231  -15.2482   20.0489 O   0  0  0  0  0  0  0  0  0  0  0  0
   12.5318  -14.8401   18.3257 C   0  0  0  0  0  0  0  0  0  0  0  0
   11.0872  -14.5550   18.1905 C   0  0  0  0  0  0  0  0  0  0  0  0
   10.2755  -15.7732   17.9074 C   0  0  2  0  0  0  0  0  0  0  0  0
    9.5506  -15.6039   16.6389 N   0  0  0  0  0  0  0  0  0  0  0  0
    9.2797  -16.0949   18.9458 C   0  0  0  0  0  0  0  0  0  0  0  0
    8.0600  -16.2572   18.6434 O   0  0  0  0  0  0  0  0  0  0  0  0
    7.8421  -18.3106   19.5741 C   0  0  0  0  0  0  0  0  0  0  0  0
    8.4384  -18.2231   20.9616 C   0  0  1  0  0  0  0  0  0  0  0  0
    9.6310  -18.9369   20.9726 O   0  0  0  0  0  0  0  0  0  0  0  0
    8.7292  -16.7768   21.2965 C   0  0  2  0  0  0  0  0  0  0  0  0
    9.6423  -16.2315   20.2898 N   0  0  0  0  0  0  0  0  0  0  0  0
    9.3855  -16.6807   22.6132 C   0  0  0  0  0  0  0  0  0  0  0  0
   10.6520  -16.6530   22.7250 O   0  0  0  0  0  0  0  0  0  0  0  0
    8.6391  -16.6141   23.8208 N   0  0  0  0  0  0  0  0  0  0  0  0
    9.2489  -16.3736   25.1245 C   0  0  1  0  0  0  0  0  0  0  0  0
    8.2347  -15.8736   26.1161 C   0  0  0  0  0  0  0  0  0  0  0  0
    7.6492  -14.6205   25.6507 C   0  0  0  0  0  0  0  0  0  0  0  0
    8.2048  -13.6369   24.8689 C   0  0  0  0  0  0  0  0  0  0  0  0
    7.3223  -12.6592   24.6978 N   0  0  0  0  0  0  0  0  0  0  0  0
    6.1938  -12.9813   25.3539 C   0  0  0  0  0  0  0  0  0  0  0  0
    6.3947  -14.1747   25.9328 N   0  0  0  0  0  0  0  0  0  0  0  0
   10.0501  -17.5163   25.5732 C   0  0  0  0  0  0  0  0  0  0  0  0
    9.9610  -18.6794   25.1184 O   0  0  0  0  0  0  0  0  0  0  0  0
   11.0126  -17.3573   26.5931 O   0  0  0  0  0  0  0  0  0  0  0  0
  2  1  1  0
  2  3  2  0
  4  2  1  0
  5  4  1  0
  5  6  1  0
  6  8  1  0
  6  7  1  6
  8  9  2  0
 11 13  1  0
 11 10  1  6
 12 11  1  0
 13 14  1  6
 14  8  1  0
 15 16  2  0
 15 13  1  0
 17 15  1  0
 18 25  1  0
 18 17  1  0
 18 19  1  1
 20 19  1  0
 20 24  1  0
 21 20  2  0
 22 21  1  0
 22 23  1  0
 23 24  2  0
 25 27  1  0
 26 25  2  0
M  END
$$$$
