QTH.pdb
     RDKit          3D

 27 27  0  0  1  0  0  0  0  0999 V2000
   11.8966  -15.9098   12.1852 N   0  0  0  0  0  0  0  0  0  0  0  0
   11.1918  -17.0425   12.6602 C   0  0  0  0  0  0  0  0  0  0  0  0
   11.4950  -18.1710   12.1748 O   0  0  0  0  0  0  0  0  0  0  0  0
   10.1498  -16.9031   13.6751 C   0  0  0  0  0  0  0  0  0  0  0  0
    9.9156  -15.5025   14.0875 C   0  0  0  0  0  0  0  0  0  0  0  0
    8.8457  -15.3679   15.1172 C   0  0  2  0  0  0  0  0  0  0  0  0
    7.6481  -14.7637   14.5137 N   0  0  0  0  0  0  0  0  0  0  0  0
    9.2204  -14.5408   16.2786 C   0  0  0  0  0  0  0  0  0  0  0  0
    9.1256  -13.2782   16.2303 O   0  0  0  0  0  0  0  0  0  0  0  0
    7.8164  -13.2745   18.6958 C   0  0  0  0  0  0  0  0  0  0  0  0
    8.8260  -14.0840   19.4792 C   0  0  1  0  0  0  0  0  0  0  0  0
    8.2577  -15.3145   19.7874 O   0  0  0  0  0  0  0  0  0  0  0  0
   10.0584  -14.3113   18.6320 C   0  0  2  0  0  0  0  0  0  0  0  0
    9.6896  -15.1148   17.4646 N   0  0  0  0  0  0  0  0  0  0  0  0
   11.0746  -15.0541   19.3996 C   0  0  0  0  0  0  0  0  0  0  0  0
   11.1908  -16.3168   19.3017 O   0  0  0  0  0  0  0  0  0  0  0  0
   11.9732  -14.3998   20.2850 N   0  0  0  0  0  0  0  0  0  0  0  0
   12.9662  -15.1101   21.0843 C   0  0  1  0  0  0  0  0  0  0  0  0
   14.2230  -14.2985   21.2382 C   0  0  0  0  0  0  0  0  0  0  0  0
   14.9297  -14.2158   19.9641 C   0  0  0  0  0  0  0  0  0  0  0  0
   14.5565  -14.6876   18.7290 C   0  0  0  0  0  0  0  0  0  0  0  0
   15.5069  -14.4068   17.8447 N   0  0  0  0  0  0  0  0  0  0  0  0
   16.5008  -13.7577   18.4759 C   0  0  0  0  0  0  0  0  0  0  0  0
   16.1477  -13.6425   19.7650 N   0  0  0  0  0  0  0  0  0  0  0  0
   12.3975  -15.6235   22.3340 C   0  0  0  0  0  0  0  0  0  0  0  0
   11.2676  -15.3270   22.7846 O   0  0  0  0  0  0  0  0  0  0  0  0
   13.1308  -16.5245   23.1355 O   0  0  0  0  0  0  0  0  0  0  0  0
  2  1  1  0
  2  3  2  0
  4  2  1  0
  5  4  1  0
  5  6  1  0
  6  8  1  0
  6  7  1  6
  8  9  2  0
 11 13  1  0
 11 10  1  6
 12 11  1  0
 13 14  1  6
 14  8  1  0
 15 16  2  0
 15 13  1  0
 17 15  1  0
 18 25  1  0
 18 17  1  0
 18 19  1  1
 20 19  1  0
 20 24  1  0
 21 20  2  0
 22 21  1  0
 22 23  1  0
 23 24  2  0
 25 27  1  0
 26 25  2  0
M  END
$$$$
