QTH.pdb
     RDKit          3D

 27 27  0  0  1  0  0  0  0  0999 V2000
   16.9655  -16.2758   12.4828 N   0  0  0  0  0  0  0  0  0  0  0  0
   16.3352  -16.7387   11.3022 C   0  0  0  0  0  0  0  0  0  0  0  0
   16.9731  -16.6347   10.2143 O   0  0  0  0  0  0  0  0  0  0  0  0
   14.9926  -17.3137   11.3478 C   0  0  0  0  0  0  0  0  0  0  0  0
   14.4149  -17.3487   12.7085 C   0  0  0  0  0  0  0  0  0  0  0  0
   13.0243  -17.8858   12.7390 C   0  0  2  0  0  0  0  0  0  0  0  0
   12.1332  -17.0024   11.9715 N   0  0  0  0  0  0  0  0  0  0  0  0
   12.4544  -18.0208   14.0919 C   0  0  0  0  0  0  0  0  0  0  0  0
   11.8905  -17.0368   14.6569 O   0  0  0  0  0  0  0  0  0  0  0  0
   10.3910  -20.7385   17.4982 C   0  0  0  0  0  0  0  0  0  0  0  0
   10.9094  -20.4880   16.0993 C   0  0  1  0  0  0  0  0  0  0  0  0
    9.8452  -20.0810   15.3032 O   0  0  0  0  0  0  0  0  0  0  0  0
   11.9456  -19.3864   16.1339 C   0  0  2  0  0  0  0  0  0  0  0  0
   12.5150  -19.2290   14.7940 N   0  0  0  0  0  0  0  0  0  0  0  0
   13.0371  -19.7423   17.0590 C   0  0  0  0  0  0  0  0  0  0  0  0
   14.2390  -19.8530   16.6586 O   0  0  0  0  0  0  0  0  0  0  0  0
   12.8029  -19.9789   18.4406 N   0  0  0  0  0  0  0  0  0  0  0  0
   13.8743  -20.2060   19.4050 C   0  0  1  0  0  0  0  0  0  0  0  0
   14.9594  -19.1739   19.2664 C   0  0  0  0  0  0  0  0  0  0  0  0
   15.9873  -19.6432   18.3429 C   0  0  0  0  0  0  0  0  0  0  0  0
   16.0818  -20.8438   17.6818 C   0  0  0  0  0  0  0  0  0  0  0  0
   17.1900  -20.8575   16.9499 N   0  0  0  0  0  0  0  0  0  0  0  0
   17.8282  -19.6860   17.1172 C   0  0  0  0  0  0  0  0  0  0  0  0
   17.0950  -18.9488   17.9649 N   0  0  0  0  0  0  0  0  0  0  0  0
   13.3573  -20.3899   20.7643 C   0  0  0  0  0  0  0  0  0  0  0  0
   12.3093  -19.8704   21.2110 O   0  0  0  0  0  0  0  0  0  0  0  0
   14.0486  -21.2032   21.6876 O   0  0  0  0  0  0  0  0  0  0  0  0
  2  1  1  0
  2  3  2  0
  4  2  1  0
  5  4  1  0
  5  6  1  0
  6  8  1  0
  6  7  1  6
  8  9  2  0
 11 13  1  0
 11 10  1  1
 12 11  1  0
 13 14  1  6
 14  8  1  0
 15 16  2  0
 15 13  1  0
 17 15  1  0
 18 25  1  0
 18 17  1  0
 18 19  1  1
 20 19  1  0
 20 24  1  0
 21 20  2  0
 22 21  1  0
 22 23  1  0
 23 24  2  0
 25 27  1  0
 26 25  2  0
M  END
$$$$
