QTH.pdb
     RDKit          3D

 27 27  0  0  1  0  0  0  0  0999 V2000
    6.6458  -18.2784   15.6495 N   0  0  0  0  0  0  0  0  0  0  0  0
    7.6524  -18.5604   14.6941 C   0  0  0  0  0  0  0  0  0  0  0  0
    7.2901  -19.0418   13.5814 O   0  0  0  0  0  0  0  0  0  0  0  0
    9.0594  -18.3030   14.9926 C   0  0  0  0  0  0  0  0  0  0  0  0
    9.2800  -17.7424   16.3431 C   0  0  0  0  0  0  0  0  0  0  0  0
    8.9542  -16.2902   16.4329 C   0  0  2  0  0  0  0  0  0  0  0  0
    9.6024  -15.5661   15.3288 N   0  0  0  0  0  0  0  0  0  0  0  0
    9.3780  -15.6489   17.6909 C   0  0  0  0  0  0  0  0  0  0  0  0
   10.5547  -15.1973   17.8217 O   0  0  0  0  0  0  0  0  0  0  0  0
    7.6558  -12.8323   19.5801 C   0  0  0  0  0  0  0  0  0  0  0  0
    7.8070  -13.9999   20.5299 C   0  0  1  0  0  0  0  0  0  0  0  0
    6.6133  -14.7119   20.5436 O   0  0  0  0  0  0  0  0  0  0  0  0
    8.9143  -14.9080   20.0424 C   0  0  2  0  0  0  0  0  0  0  0  0
    8.5045  -15.5170   18.7752 N   0  0  0  0  0  0  0  0  0  0  0  0
    9.1530  -15.9887   21.0164 C   0  0  0  0  0  0  0  0  0  0  0  0
    8.9087  -17.2045   20.7345 O   0  0  0  0  0  0  0  0  0  0  0  0
    9.6667  -15.7283   22.3157 N   0  0  0  0  0  0  0  0  0  0  0  0
   10.5143  -16.6677   23.0427 C   0  0  1  0  0  0  0  0  0  0  0  0
   11.6463  -17.1578   22.1825 C   0  0  0  0  0  0  0  0  0  0  0  0
   11.4151  -18.5427   21.7847 C   0  0  0  0  0  0  0  0  0  0  0  0
   10.3441  -19.3594   22.0556 C   0  0  0  0  0  0  0  0  0  0  0  0
   10.5511  -20.5526   21.5104 N   0  0  0  0  0  0  0  0  0  0  0  0
   11.7409  -20.5367   20.8843 C   0  0  0  0  0  0  0  0  0  0  0  0
   12.2647  -19.3132   21.0524 N   0  0  0  0  0  0  0  0  0  0  0  0
   10.9076  -16.1472   24.3554 C   0  0  0  0  0  0  0  0  0  0  0  0
   11.0518  -16.8390   25.3890 O   0  0  0  0  0  0  0  0  0  0  0  0
   11.1569  -14.7694   24.5321 O   0  0  0  0  0  0  0  0  0  0  0  0
  2  1  1  0
  2  3  2  0
  4  2  1  0
  5  4  1  0
  5  6  1  0
  6  8  1  0
  6  7  1  6
  8  9  2  0
 11 13  1  0
 11 10  1  6
 12 11  1  0
 13 14  1  6
 14  8  1  0
 15 16  2  0
 15 13  1  0
 17 15  1  0
 18 25  1  0
 18 17  1  0
 18 19  1  6
 20 19  1  0
 20 24  1  0
 21 20  2  0
 22 21  1  0
 22 23  1  0
 23 24  2  0
 25 27  1  0
 26 25  2  0
M  END
$$$$
