QTH.pdb
     RDKit          3D

 27 27  0  0  1  0  0  0  0  0999 V2000
   16.2719  -13.7851   18.3088 N   0  0  0  0  0  0  0  0  0  0  0  0
   15.3583  -14.0650   17.2635 C   0  0  0  0  0  0  0  0  0  0  0  0
   15.8193  -14.1652   16.0894 O   0  0  0  0  0  0  0  0  0  0  0  0
   13.9330  -14.2289   17.5405 C   0  0  0  0  0  0  0  0  0  0  0  0
   13.4650  -15.6249   17.4033 C   0  0  0  0  0  0  0  0  0  0  0  0
   11.9984  -15.7738   17.6271 C   0  0  2  0  0  0  0  0  0  0  0  0
   11.2599  -15.0738   16.5651 N   0  0  0  0  0  0  0  0  0  0  0  0
   11.5237  -15.2441   18.9184 C   0  0  0  0  0  0  0  0  0  0  0  0
   12.3434  -14.9681   19.8444 O   0  0  0  0  0  0  0  0  0  0  0  0
    8.5591  -12.6474   19.2728 C   0  0  0  0  0  0  0  0  0  0  0  0
    8.3526  -13.8116   20.2163 C   0  0  1  0  0  0  0  0  0  0  0  0
    7.4625  -14.7017   19.6267 O   0  0  0  0  0  0  0  0  0  0  0  0
    9.6713  -14.5163   20.4457 C   0  0  2  0  0  0  0  0  0  0  0  0
   10.1640  -15.0288   19.1654 N   0  0  0  0  0  0  0  0  0  0  0  0
    9.4864  -15.6592   21.3584 C   0  0  0  0  0  0  0  0  0  0  0  0
    9.3773  -16.8487   20.9217 O   0  0  0  0  0  0  0  0  0  0  0  0
    9.4208  -15.4912   22.7681 N   0  0  0  0  0  0  0  0  0  0  0  0
    9.7375  -16.5553   23.7151 C   0  0  1  0  0  0  0  0  0  0  0  0
   11.1031  -17.1282   23.4536 C   0  0  0  0  0  0  0  0  0  0  0  0
   11.4320  -18.1299   24.4627 C   0  0  0  0  0  0  0  0  0  0  0  0
   11.6508  -17.9701   25.8095 C   0  0  0  0  0  0  0  0  0  0  0  0
   11.9364  -19.1482   26.3521 N   0  0  0  0  0  0  0  0  0  0  0  0
   11.9097  -20.0825   25.3857 C   0  0  0  0  0  0  0  0  0  0  0  0
   11.6027  -19.4610   24.2371 N   0  0  0  0  0  0  0  0  0  0  0  0
    9.4862  -16.1477   25.1006 C   0  0  0  0  0  0  0  0  0  0  0  0
    9.5102  -14.9676   25.5182 O   0  0  0  0  0  0  0  0  0  0  0  0
    9.1889  -17.1129   26.0864 O   0  0  0  0  0  0  0  0  0  0  0  0
  2  1  1  0
  2  3  2  0
  4  2  1  0
  5  4  1  0
  5  6  1  0
  6  8  1  0
  6  7  1  6
  8  9  2  0
 11 13  1  0
 11 10  1  6
 12 11  1  0
 13 14  1  6
 14  8  1  0
 15 16  2  0
 15 13  1  0
 17 15  1  0
 18 25  1  0
 18 17  1  0
 18 19  1  1
 20 19  1  0
 20 24  1  0
 21 20  2  0
 22 21  1  0
 22 23  1  0
 23 24  2  0
 25 27  1  0
 26 25  2  0
M  END
$$$$
