QTH.pdb
     RDKit          3D

 27 27  0  0  1  0  0  0  0  0999 V2000
    9.8516  -19.9069   15.5381 N   0  0  0  0  0  0  0  0  0  0  0  0
   10.9099  -18.9830   15.3598 C   0  0  0  0  0  0  0  0  0  0  0  0
   12.0902  -19.4380   15.3298 O   0  0  0  0  0  0  0  0  0  0  0  0
   10.6389  -17.5541   15.2184 C   0  0  0  0  0  0  0  0  0  0  0  0
    9.2073  -17.2113   15.3590 C   0  0  0  0  0  0  0  0  0  0  0  0
    8.9478  -15.7450   15.2843 C   0  0  2  0  0  0  0  0  0  0  0  0
    9.4570  -15.2143   14.0105 N   0  0  0  0  0  0  0  0  0  0  0  0
    9.5680  -14.9620   16.3686 C   0  0  0  0  0  0  0  0  0  0  0  0
   10.7018  -14.4200   16.2075 O   0  0  0  0  0  0  0  0  0  0  0  0
    7.5598  -12.5234   18.8001 C   0  0  0  0  0  0  0  0  0  0  0  0
    8.4241  -13.4885   19.5809 C   0  0  1  0  0  0  0  0  0  0  0  0
    7.6319  -14.5548   19.9901 O   0  0  0  0  0  0  0  0  0  0  0  0
    9.5291  -14.0119   18.6901 C   0  0  2  0  0  0  0  0  0  0  0  0
    8.9326  -14.7907   17.6029 N   0  0  0  0  0  0  0  0  0  0  0  0
   10.4232  -14.8998   19.4555 C   0  0  0  0  0  0  0  0  0  0  0  0
   10.3367  -16.1657   19.3697 O   0  0  0  0  0  0  0  0  0  0  0  0
   11.4241  -14.3885   20.3253 N   0  0  0  0  0  0  0  0  0  0  0  0
   12.3118  -15.2405   21.1098 C   0  0  1  0  0  0  0  0  0  0  0  0
   13.6846  -14.6370   21.2246 C   0  0  0  0  0  0  0  0  0  0  0  0
   14.3377  -14.6167   19.9197 C   0  0  0  0  0  0  0  0  0  0  0  0
   14.0778  -15.3747   18.8038 C   0  0  0  0  0  0  0  0  0  0  0  0
   14.9232  -15.0384   17.8363 N   0  0  0  0  0  0  0  0  0  0  0  0
   15.7366  -14.0712   18.2953 C   0  0  0  0  0  0  0  0  0  0  0  0
   15.3787  -13.8162   19.5629 N   0  0  0  0  0  0  0  0  0  0  0  0
   11.7003  -15.6469   22.3786 C   0  0  0  0  0  0  0  0  0  0  0  0
   10.6371  -15.1794   22.8462 O   0  0  0  0  0  0  0  0  0  0  0  0
   12.3087  -16.6364   23.1802 O   0  0  0  0  0  0  0  0  0  0  0  0
  2  1  1  0
  2  3  2  0
  4  2  1  0
  5  4  1  0
  5  6  1  0
  6  8  1  0
  6  7  1  6
  8  9  2  0
 11 13  1  0
 11 10  1  6
 12 11  1  0
 13 14  1  6
 14  8  1  0
 15 16  2  0
 15 13  1  0
 17 15  1  0
 18 25  1  0
 18 17  1  0
 18 19  1  1
 20 19  1  0
 20 24  1  0
 21 20  2  0
 22 21  1  0
 22 23  1  0
 23 24  2  0
 25 27  1  0
 26 25  2  0
M  END
$$$$
