QTH.pdb
     RDKit          3D

 27 27  0  0  1  0  0  0  0  0999 V2000
    6.0452  -18.3334   23.4383 N   0  0  0  0  0  0  0  0  0  0  0  0
    5.7596  -19.5639   22.7981 C   0  0  0  0  0  0  0  0  0  0  0  0
    5.9166  -20.6263   23.4673 O   0  0  0  0  0  0  0  0  0  0  0  0
    5.3016  -19.5962   21.4109 C   0  0  0  0  0  0  0  0  0  0  0  0
    5.1326  -18.2525   20.8170 C   0  0  0  0  0  0  0  0  0  0  0  0
    6.0703  -17.9910   19.6877 C   0  0  2  0  0  0  0  0  0  0  0  0
    6.5316  -19.2666   19.1190 N   0  0  0  0  0  0  0  0  0  0  0  0
    7.2671  -17.2141   20.0589 C   0  0  0  0  0  0  0  0  0  0  0  0
    8.4273  -17.6951   19.8915 O   0  0  0  0  0  0  0  0  0  0  0  0
    7.7975  -13.6191   19.0386 C   0  0  0  0  0  0  0  0  0  0  0  0
    8.0732  -13.6857   20.5244 C   0  0  1  0  0  0  0  0  0  0  0  0
    6.9464  -13.2328   21.2007 O   0  0  0  0  0  0  0  0  0  0  0  0
    8.3423  -15.1195   20.9248 C   0  0  2  0  0  0  0  0  0  0  0  0
    7.1656  -15.9301   20.6039 N   0  0  0  0  0  0  0  0  0  0  0  0
    8.5794  -15.2071   22.3773 C   0  0  0  0  0  0  0  0  0  0  0  0
    7.6233  -15.1370   23.2129 O   0  0  0  0  0  0  0  0  0  0  0  0
    9.8837  -15.3740   22.9163 N   0  0  0  0  0  0  0  0  0  0  0  0
   10.1660  -16.2042   24.0827 C   0  0  1  0  0  0  0  0  0  0  0  0
    9.5631  -17.5740   23.9347 C   0  0  0  0  0  0  0  0  0  0  0  0
    9.8410  -18.3785   25.1202 C   0  0  0  0  0  0  0  0  0  0  0  0
   10.5990  -18.0703   26.2237 C   0  0  0  0  0  0  0  0  0  0  0  0
   10.5954  -19.1004   27.0621 N   0  0  0  0  0  0  0  0  0  0  0  0
    9.8477  -20.0830   26.5300 C   0  0  0  0  0  0  0  0  0  0  0  0
    9.3897  -19.6418   25.3487 N   0  0  0  0  0  0  0  0  0  0  0  0
   11.5878  -16.1828   24.4387 C   0  0  0  0  0  0  0  0  0  0  0  0
   12.5337  -16.3029   23.6272 O   0  0  0  0  0  0  0  0  0  0  0  0
   11.9853  -16.0175   25.7827 O   0  0  0  0  0  0  0  0  0  0  0  0
  2  1  1  0
  2  3  2  0
  4  2  1  0
  5  4  1  0
  5  6  1  0
  6  8  1  0
  6  7  1  1
  8  9  2  0
 11 13  1  0
 11 10  1  6
 12 11  1  0
 13 14  1  1
 14  8  1  0
 15 16  2  0
 15 13  1  0
 17 15  1  0
 18 25  1  0
 18 17  1  0
 18 19  1  6
 20 19  1  0
 20 24  1  0
 21 20  2  0
 22 21  1  0
 22 23  1  0
 23 24  2  0
 25 27  1  0
 26 25  2  0
M  END
$$$$
