QTH.pdb
     RDKit          3D

 27 27  0  0  1  0  0  0  0  0999 V2000
   15.9438  -13.9876   17.9910 N   0  0  0  0  0  0  0  0  0  0  0  0
   14.5645  -14.2759   17.8498 C   0  0  0  0  0  0  0  0  0  0  0  0
   13.7763  -13.8314   18.7343 O   0  0  0  0  0  0  0  0  0  0  0  0
   14.0773  -15.0624   16.7188 C   0  0  0  0  0  0  0  0  0  0  0  0
   14.0184  -16.5139   16.9951 C   0  0  0  0  0  0  0  0  0  0  0  0
   12.7848  -17.1602   16.4626 C   0  0  2  0  0  0  0  0  0  0  0  0
   12.3161  -16.4327   15.2733 N   0  0  0  0  0  0  0  0  0  0  0  0
   11.6642  -17.2115   17.4193 C   0  0  0  0  0  0  0  0  0  0  0  0
   10.5175  -16.7807   17.0951 O   0  0  0  0  0  0  0  0  0  0  0  0
    9.7814  -19.5269   21.2941 C   0  0  0  0  0  0  0  0  0  0  0  0
   10.8525  -19.3329   20.2438 C   0  0  1  0  0  0  0  0  0  0  0  0
   10.6939  -20.3113   19.2693 O   0  0  0  0  0  0  0  0  0  0  0  0
   10.6917  -17.9720   19.6032 C   0  0  2  0  0  0  0  0  0  0  0  0
   11.8250  -17.7329   18.7071 N   0  0  0  0  0  0  0  0  0  0  0  0
   10.6915  -16.9196   20.6357 C   0  0  0  0  0  0  0  0  0  0  0  0
   11.7752  -16.4347   21.0918 O   0  0  0  0  0  0  0  0  0  0  0  0
    9.4848  -16.3948   21.1724 N   0  0  0  0  0  0  0  0  0  0  0  0
    9.4514  -15.3698   22.2106 C   0  0  1  0  0  0  0  0  0  0  0  0
    8.2969  -14.4274   22.0084 C   0  0  0  0  0  0  0  0  0  0  0  0
    8.3226  -13.8807   20.6555 C   0  0  0  0  0  0  0  0  0  0  0  0
    7.3072  -13.7864   19.7349 C   0  0  0  0  0  0  0  0  0  0  0  0
    7.7727  -13.2327   18.6211 N   0  0  0  0  0  0  0  0  0  0  0  0
    9.0782  -12.9602   18.7915 C   0  0  0  0  0  0  0  0  0  0  0  0
    9.4107  -13.3552   20.0297 N   0  0  0  0  0  0  0  0  0  0  0  0
    9.5582  -15.9473   23.5537 C   0  0  0  0  0  0  0  0  0  0  0  0
    9.6924  -15.2892   24.6104 O   0  0  0  0  0  0  0  0  0  0  0  0
    9.5132  -17.3462   23.7354 O   0  0  0  0  0  0  0  0  0  0  0  0
  2  1  1  0
  2  3  2  0
  4  2  1  0
  5  4  1  0
  5  6  1  0
  6  8  1  0
  6  7  1  6
  8  9  2  0
 11 13  1  0
 11 10  1  1
 12 11  1  0
 13 14  1  6
 14  8  1  0
 15 16  2  0
 15 13  1  0
 17 15  1  0
 18 25  1  0
 18 17  1  0
 18 19  1  1
 20 19  1  0
 20 24  1  0
 21 20  2  0
 22 21  1  0
 22 23  1  0
 23 24  2  0
 25 27  1  0
 26 25  2  0
M  END
$$$$
