QCW.pdb
     RDKit          3D

 30 31  0  0  1  0  0  0  0  0999 V2000
    8.1319  -12.8651   16.6357 N   0  0  0  0  0  0  0  0  0  0  0  0
    7.7909  -14.0015   15.8752 C   0  0  0  0  0  0  0  0  0  0  0  0
    6.7683  -13.9846   15.1545 O   0  0  0  0  0  0  0  0  0  0  0  0
    8.6564  -15.2015   15.9449 C   0  0  0  0  0  0  0  0  0  0  0  0
    9.8432  -14.9008   16.8489 C   0  0  0  0  0  0  0  0  0  0  0  0
    9.9695  -15.9351   17.9394 C   0  0  2  0  0  0  0  0  0  0  0  0
    9.0316  -17.0393   17.7242 N   0  0  0  0  0  0  0  0  0  0  0  0
    9.7771  -15.3448   19.2890 C   0  0  0  0  0  0  0  0  0  0  0  0
   10.3669  -14.2977   19.6494 O   0  0  0  0  0  0  0  0  0  0  0  0
    8.8984  -15.9893   20.1946 N   0  0  0  0  0  0  0  0  0  0  0  0
    8.6393  -15.5441   21.5471 C   0  0  1  0  0  0  0  0  0  0  0  0
    7.1511  -15.4106   21.7990 C   0  0  0  0  0  0  0  0  0  0  0  0
    6.7463  -15.1836   23.5314 S   0  0  0  0  0  0  0  0  0  0  0  0
    9.2797  -16.4972   22.4772 C   0  0  0  0  0  0  0  0  0  0  0  0
    9.1465  -17.7601   22.3159 O   0  0  0  0  0  0  0  0  0  0  0  0
   10.0693  -16.1219   23.5906 N   0  0  0  0  0  0  0  0  0  0  0  0
   10.6832  -17.1399   24.4665 C   0  0  1  0  0  0  0  0  0  0  0  0
   11.6464  -16.3606   25.3250 C   0  0  0  0  0  0  0  0  0  0  0  0
   11.1260  -16.1895   26.6907 C   0  0  0  0  0  0  0  0  0  0  0  0
   11.3710  -17.0451   27.7664 C   0  0  0  0  0  0  0  0  0  0  0  0
   10.8048  -16.6042   28.8840 N   0  0  0  0  0  0  0  0  0  0  0  0
   10.1825  -15.4482   28.5326 C   0  0  0  0  0  0  0  0  0  0  0  0
    9.4342  -14.6025   29.3432 C   0  0  0  0  0  0  0  0  0  0  0  0
    8.8792  -13.4871   28.7762 C   0  0  0  0  0  0  0  0  0  0  0  0
    9.0593  -13.2136   27.4382 C   0  0  0  0  0  0  0  0  0  0  0  0
    9.7940  -14.0357   26.6245 C   0  0  0  0  0  0  0  0  0  0  0  0
   10.3645  -15.1739   27.1943 C   0  0  0  0  0  0  0  0  0  0  0  0
    9.7001  -17.9396   25.1889 C   0  0  0  0  0  0  0  0  0  0  0  0
   10.0509  -19.2014   25.6425 O   0  0  0  0  0  0  0  0  0  0  0  0
    8.5301  -17.5439   25.4236 O   0  0  0  0  0  0  0  0  0  0  0  0
  2  3  2  0
  2  1  1  0
  4  2  1  0
  5  4  1  0
  6  5  1  0
  6  7  1  6
  8 10  1  0
  8  6  1  0
  9  8  2  0
 11 14  1  0
 11 10  1  0
 11 12  1  1
 13 12  1  0
 14 15  2  0
 16 17  1  0
 16 14  1  0
 17 28  1  0
 17 18  1  1
 19 18  1  0
 20 19  2  0
 21 22  1  0
 21 20  1  0
 22 27  2  0
 23 24  2  0
 23 22  1  0
 24 25  1  0
 25 26  2  0
 27 26  1  0
 27 19  1  0
 28 30  2  0
 28 29  1  0
M  END
$$$$
