QCW.pdb
     RDKit          3D

 30 31  0  0  1  0  0  0  0  0999 V2000
   11.7284  -17.8953   14.5301 N   0  0  0  0  0  0  0  0  0  0  0  0
   10.4287  -18.2469   14.9465 C   0  0  0  0  0  0  0  0  0  0  0  0
    9.4906  -18.2553   14.1187 O   0  0  0  0  0  0  0  0  0  0  0  0
   10.1982  -18.6021   16.3659 C   0  0  0  0  0  0  0  0  0  0  0  0
    9.2622  -17.5740   16.9850 C   0  0  0  0  0  0  0  0  0  0  0  0
    9.7976  -17.0797   18.3055 C   0  0  2  0  0  0  0  0  0  0  0  0
   10.9203  -17.9049   18.7567 N   0  0  0  0  0  0  0  0  0  0  0  0
    8.7402  -17.0254   19.3476 C   0  0  0  0  0  0  0  0  0  0  0  0
    7.5200  -16.9867   19.0585 O   0  0  0  0  0  0  0  0  0  0  0  0
    9.1279  -17.0170   20.7104 N   0  0  0  0  0  0  0  0  0  0  0  0
    8.2077  -16.9905   21.8272 C   0  0  1  0  0  0  0  0  0  0  0  0
    7.4000  -18.2707   21.8956 C   0  0  0  0  0  0  0  0  0  0  0  0
    6.3554  -18.3692   23.3502 S   0  0  0  0  0  0  0  0  0  0  0  0
    8.9862  -16.7551   23.0610 C   0  0  0  0  0  0  0  0  0  0  0  0
   10.0352  -16.0216   23.0440 O   0  0  0  0  0  0  0  0  0  0  0  0
    8.6612  -17.2954   24.3284 N   0  0  0  0  0  0  0  0  0  0  0  0
    9.4878  -17.0015   25.5162 C   0  0  1  0  0  0  0  0  0  0  0  0
    9.5525  -15.4963   25.5618 C   0  0  0  0  0  0  0  0  0  0  0  0
    8.2163  -14.9102   25.7519 C   0  0  0  0  0  0  0  0  0  0  0  0
    7.0271  -15.6280   25.8928 C   0  0  0  0  0  0  0  0  0  0  0  0
    5.9892  -14.8244   26.0963 N   0  0  0  0  0  0  0  0  0  0  0  0
    6.5077  -13.5682   26.0869 C   0  0  0  0  0  0  0  0  0  0  0  0
    5.8300  -12.3652   26.2470 C   0  0  0  0  0  0  0  0  0  0  0  0
    6.5519  -11.2036   26.1891 C   0  0  0  0  0  0  0  0  0  0  0  0
    7.9127  -11.2301   25.9774 C   0  0  0  0  0  0  0  0  0  0  0  0
    8.5970  -12.4066   25.8179 C   0  0  0  0  0  0  0  0  0  0  0  0
    7.8695  -13.5953   25.8770 C   0  0  0  0  0  0  0  0  0  0  0  0
    8.9966  -17.6483   26.7279 C   0  0  0  0  0  0  0  0  0  0  0  0
    9.7653  -17.6065   27.8805 O   0  0  0  0  0  0  0  0  0  0  0  0
    7.8978  -18.2564   26.7860 O   0  0  0  0  0  0  0  0  0  0  0  0
  2  3  2  0
  2  1  1  0
  4  2  1  0
  5  4  1  0
  6  5  1  0
  6  7  1  1
  8 10  1  0
  8  6  1  0
  9  8  2  0
 11 14  1  0
 11 10  1  0
 11 12  1  1
 13 12  1  0
 14 15  2  0
 16 17  1  0
 16 14  1  0
 17 28  1  0
 17 18  1  1
 19 18  1  0
 20 19  2  0
 21 22  1  0
 21 20  1  0
 22 27  2  0
 23 24  2  0
 23 22  1  0
 24 25  1  0
 25 26  2  0
 27 26  1  0
 27 19  1  0
 28 30  2  0
 28 29  1  0
M  END
$$$$
