QCW.pdb
     RDKit          3D

 30 31  0  0  1  0  0  0  0  0999 V2000
   11.6254  -19.9807   16.2593 N   0  0  0  0  0  0  0  0  0  0  0  0
   10.4520  -19.2007   16.2896 C   0  0  0  0  0  0  0  0  0  0  0  0
    9.9484  -18.7918   15.2197 O   0  0  0  0  0  0  0  0  0  0  0  0
    9.8344  -18.8785   17.5967 C   0  0  0  0  0  0  0  0  0  0  0  0
   10.7265  -19.4129   18.7080 C   0  0  0  0  0  0  0  0  0  0  0  0
   10.1050  -19.1780   20.0619 C   0  0  2  0  0  0  0  0  0  0  0  0
    8.6918  -19.5627   20.0628 N   0  0  0  0  0  0  0  0  0  0  0  0
   10.2608  -17.7692   20.5071 C   0  0  0  0  0  0  0  0  0  0  0  0
   11.3861  -17.2270   20.6237 O   0  0  0  0  0  0  0  0  0  0  0  0
    9.0976  -17.0184   20.8085 N   0  0  0  0  0  0  0  0  0  0  0  0
    9.1020  -15.6618   21.3129 C   0  0  1  0  0  0  0  0  0  0  0  0
    7.6982  -15.0929   21.3526 C   0  0  0  0  0  0  0  0  0  0  0  0
    6.6483  -15.8890   22.5694 S   0  0  0  0  0  0  0  0  0  0  0  0
    9.7401  -15.6673   22.6458 C   0  0  0  0  0  0  0  0  0  0  0  0
   10.7175  -14.8832   22.9076 O   0  0  0  0  0  0  0  0  0  0  0  0
    9.3488  -16.5052   23.7175 N   0  0  0  0  0  0  0  0  0  0  0  0
   10.0591  -16.4681   25.0117 C   0  0  1  0  0  0  0  0  0  0  0  0
    9.9040  -15.0441   25.4809 C   0  0  0  0  0  0  0  0  0  0  0  0
    8.4939  -14.7218   25.7513 C   0  0  0  0  0  0  0  0  0  0  0  0
    7.4457  -15.6426   25.8026 C   0  0  0  0  0  0  0  0  0  0  0  0
    6.2938  -15.0591   26.1133 N   0  0  0  0  0  0  0  0  0  0  0  0
    6.5942  -13.7425   26.2655 C   0  0  0  0  0  0  0  0  0  0  0  0
    5.7292  -12.7020   26.5838 C   0  0  0  0  0  0  0  0  0  0  0  0
    6.2447  -11.4372   26.6746 C   0  0  0  0  0  0  0  0  0  0  0  0
    7.5848  -11.2056   26.4555 C   0  0  0  0  0  0  0  0  0  0  0  0
    8.4519  -12.2192   26.1413 C   0  0  0  0  0  0  0  0  0  0  0  0
    7.9355  -13.5115   26.0481 C   0  0  0  0  0  0  0  0  0  0  0  0
    9.6012  -17.4923   25.9439 C   0  0  0  0  0  0  0  0  0  0  0  0
    8.5842  -18.3533   25.5626 O   0  0  0  0  0  0  0  0  0  0  0  0
   10.0823  -17.6382   27.0962 O   0  0  0  0  0  0  0  0  0  0  0  0
  2  3  2  0
  2  1  1  0
  4  2  1  0
  5  4  1  0
  6  5  1  0
  6  7  1  6
  8 10  1  0
  8  6  1  0
  9  8  2  0
 11 14  1  0
 11 10  1  0
 11 12  1  1
 13 12  1  0
 14 15  2  0
 16 17  1  0
 16 14  1  0
 17 28  1  0
 17 18  1  1
 19 18  1  0
 20 19  2  0
 21 22  1  0
 21 20  1  0
 22 27  2  0
 23 24  2  0
 23 22  1  0
 24 25  1  0
 25 26  2  0
 27 26  1  0
 27 19  1  0
 28 30  2  0
 28 29  1  0
M  END
$$$$
