QCW.pdb
     RDKit          3D

 30 31  0  0  1  0  0  0  0  0999 V2000
    8.2786  -12.2911   18.8564 N   0  0  0  0  0  0  0  0  0  0  0  0
    8.3163  -12.6333   17.4898 C   0  0  0  0  0  0  0  0  0  0  0  0
    8.2655  -11.7342   16.6212 O   0  0  0  0  0  0  0  0  0  0  0  0
    8.4159  -14.0606   17.1069 C   0  0  0  0  0  0  0  0  0  0  0  0
    8.3535  -14.9138   18.3656 C   0  0  0  0  0  0  0  0  0  0  0  0
    8.6382  -16.3617   18.0535 C   0  0  2  0  0  0  0  0  0  0  0  0
    7.7168  -16.8679   17.0337 N   0  0  0  0  0  0  0  0  0  0  0  0
    8.5857  -17.2123   19.2703 C   0  0  0  0  0  0  0  0  0  0  0  0
    7.8669  -18.2384   19.3365 O   0  0  0  0  0  0  0  0  0  0  0  0
    9.3747  -16.8481   20.3895 N   0  0  0  0  0  0  0  0  0  0  0  0
    9.4790  -17.6209   21.6087 C   0  0  1  0  0  0  0  0  0  0  0  0
    9.9058  -19.0447   21.3142 C   0  0  0  0  0  0  0  0  0  0  0  0
   10.1964  -20.0148   22.7944 S   0  0  0  0  0  0  0  0  0  0  0  0
   10.4225  -16.9310   22.5129 C   0  0  0  0  0  0  0  0  0  0  0  0
   11.3116  -16.1354   22.0490 O   0  0  0  0  0  0  0  0  0  0  0  0
   10.4345  -17.0772   23.9209 N   0  0  0  0  0  0  0  0  0  0  0  0
    9.7196  -16.1227   24.7917 C   0  0  1  0  0  0  0  0  0  0  0  0
    8.3816  -15.9383   24.1228 C   0  0  0  0  0  0  0  0  0  0  0  0
    7.4830  -15.1128   24.9453 C   0  0  0  0  0  0  0  0  0  0  0  0
    6.3691  -15.5772   25.6473 C   0  0  0  0  0  0  0  0  0  0  0  0
    5.7821  -14.6051   26.3363 N   0  0  0  0  0  0  0  0  0  0  0  0
    6.5214  -13.4939   26.0796 C   0  0  0  0  0  0  0  0  0  0  0  0
    6.3156  -12.2045   26.5561 C   0  0  0  0  0  0  0  0  0  0  0  0
    7.1811  -11.2218   26.1572 C   0  0  0  0  0  0  0  0  0  0  0  0
    8.2261  -11.5068   25.3062 C   0  0  0  0  0  0  0  0  0  0  0  0
    8.4441  -12.7720   24.8271 C   0  0  0  0  0  0  0  0  0  0  0  0
    7.5679  -13.7799   25.2297 C   0  0  0  0  0  0  0  0  0  0  0  0
    9.6738  -16.5463   26.1868 C   0  0  0  0  0  0  0  0  0  0  0  0
    9.4727  -17.8849   26.4848 O   0  0  0  0  0  0  0  0  0  0  0  0
    9.8043  -15.7510   27.1517 O   0  0  0  0  0  0  0  0  0  0  0  0
  2  3  2  0
  2  1  1  0
  4  2  1  0
  5  4  1  0
  6  5  1  0
  6  7  1  6
  8 10  1  0
  8  6  1  0
  9  8  2  0
 11 14  1  0
 11 10  1  0
 11 12  1  6
 13 12  1  0
 14 15  2  0
 16 17  1  0
 16 14  1  0
 17 28  1  0
 17 18  1  6
 19 18  1  0
 20 19  2  0
 21 22  1  0
 21 20  1  0
 22 27  2  0
 23 24  2  0
 23 22  1  0
 24 25  1  0
 25 26  2  0
 27 26  1  0
 27 19  1  0
 28 30  2  0
 28 29  1  0
M  END
$$$$
