QCW.pdb
     RDKit          3D

 30 31  0  0  1  0  0  0  0  0999 V2000
   13.3366  -19.1836   19.2896 N   0  0  0  0  0  0  0  0  0  0  0  0
   12.9974  -18.6355   18.0363 C   0  0  0  0  0  0  0  0  0  0  0  0
   13.8992  -18.3462   17.2187 O   0  0  0  0  0  0  0  0  0  0  0  0
   11.5701  -18.4115   17.7102 C   0  0  0  0  0  0  0  0  0  0  0  0
   10.7140  -18.9642   18.8407 C   0  0  0  0  0  0  0  0  0  0  0  0
    9.2502  -18.7012   18.5902 C   0  0  2  0  0  0  0  0  0  0  0  0
    9.0510  -18.0391   17.2990 N   0  0  0  0  0  0  0  0  0  0  0  0
    8.6345  -17.9054   19.6832 C   0  0  0  0  0  0  0  0  0  0  0  0
    8.2037  -16.7415   19.4999 O   0  0  0  0  0  0  0  0  0  0  0  0
    8.5332  -18.4845   20.9724 N   0  0  0  0  0  0  0  0  0  0  0  0
    7.8495  -17.8785   22.0949 C   0  0  1  0  0  0  0  0  0  0  0  0
    6.6696  -18.7228   22.5319 C   0  0  0  0  0  0  0  0  0  0  0  0
    6.0825  -18.3171   24.1774 S   0  0  0  0  0  0  0  0  0  0  0  0
    8.8307  -17.6848   23.1828 C   0  0  0  0  0  0  0  0  0  0  0  0
    9.6750  -18.6017   23.4747 O   0  0  0  0  0  0  0  0  0  0  0  0
    8.9278  -16.5156   23.9748 N   0  0  0  0  0  0  0  0  0  0  0  0
    9.9161  -16.4159   25.0675 C   0  0  1  0  0  0  0  0  0  0  0  0
    9.8211  -14.9832   25.5261 C   0  0  0  0  0  0  0  0  0  0  0  0
    8.4210  -14.5815   25.7355 C   0  0  0  0  0  0  0  0  0  0  0  0
    7.3542  -15.4497   25.9753 C   0  0  0  0  0  0  0  0  0  0  0  0
    6.2181  -14.7899   26.1707 N   0  0  0  0  0  0  0  0  0  0  0  0
    6.5479  -13.4765   26.0560 C   0  0  0  0  0  0  0  0  0  0  0  0
    5.7084  -12.3742   26.1661 C   0  0  0  0  0  0  0  0  0  0  0  0
    6.2514  -11.1286   26.0003 C   0  0  0  0  0  0  0  0  0  0  0  0
    7.5937  -10.9758   25.7314 C   0  0  0  0  0  0  0  0  0  0  0  0
    8.4359  -12.0510   25.6199 C   0  0  0  0  0  0  0  0  0  0  0  0
    7.8913  -13.3240   25.7889 C   0  0  0  0  0  0  0  0  0  0  0  0
    9.7243  -17.4236   26.1046 C   0  0  0  0  0  0  0  0  0  0  0  0
   10.7188  -17.6257   27.0486 O   0  0  0  0  0  0  0  0  0  0  0  0
    8.6915  -18.1354   26.1895 O   0  0  0  0  0  0  0  0  0  0  0  0
  2  3  2  0
  2  1  1  0
  4  2  1  0
  5  4  1  0
  6  5  1  0
  6  7  1  6
  8 10  1  0
  8  6  1  0
  9  8  2  0
 11 14  1  0
 11 10  1  0
 11 12  1  1
 13 12  1  0
 14 15  2  0
 16 17  1  0
 16 14  1  0
 17 28  1  0
 17 18  1  1
 19 18  1  0
 20 19  2  0
 21 22  1  0
 21 20  1  0
 22 27  2  0
 23 24  2  0
 23 22  1  0
 24 25  1  0
 25 26  2  0
 27 26  1  0
 27 19  1  0
 28 30  2  0
 28 29  1  0
M  END
$$$$
