QCW.pdb
     RDKit          3D

 30 31  0  0  1  0  0  0  0  0999 V2000
    7.5342  -12.3150   18.3535 N   0  0  0  0  0  0  0  0  0  0  0  0
    7.9017  -13.2628   17.3774 C   0  0  0  0  0  0  0  0  0  0  0  0
    7.6709  -13.0337   16.1692 O   0  0  0  0  0  0  0  0  0  0  0  0
    8.5584  -14.5197   17.8046 C   0  0  0  0  0  0  0  0  0  0  0  0
    8.7048  -14.5087   19.3195 C   0  0  0  0  0  0  0  0  0  0  0  0
    9.4575  -15.7241   19.8000 C   0  0  2  0  0  0  0  0  0  0  0  0
    9.5364  -16.7403   18.7482 N   0  0  0  0  0  0  0  0  0  0  0  0
    8.8578  -16.2968   21.0326 C   0  0  0  0  0  0  0  0  0  0  0  0
    7.6171  -16.3353   21.2151 O   0  0  0  0  0  0  0  0  0  0  0  0
    9.7193  -16.8146   22.0312 N   0  0  0  0  0  0  0  0  0  0  0  0
    9.2755  -17.3900   23.2828 C   0  0  1  0  0  0  0  0  0  0  0  0
    9.4867  -18.8904   23.2956 C   0  0  0  0  0  0  0  0  0  0  0  0
    9.0261  -19.6546   24.8515 S   0  0  0  0  0  0  0  0  0  0  0  0
    9.9965  -16.7154   24.3822 C   0  0  0  0  0  0  0  0  0  0  0  0
   11.2439  -16.4465   24.2798 O   0  0  0  0  0  0  0  0  0  0  0  0
    9.4028  -16.3179   25.6042 N   0  0  0  0  0  0  0  0  0  0  0  0
   10.2311  -15.8952   26.7513 C   0  0  1  0  0  0  0  0  0  0  0  0
    9.3357  -14.9716   27.5370 C   0  0  0  0  0  0  0  0  0  0  0  0
    8.1446  -14.5941   26.7597 C   0  0  0  0  0  0  0  0  0  0  0  0
    7.0567  -15.4250   26.4856 C   0  0  0  0  0  0  0  0  0  0  0  0
    6.1126  -14.7890   25.8013 N   0  0  0  0  0  0  0  0  0  0  0  0
    6.5911  -13.5290   25.6263 C   0  0  0  0  0  0  0  0  0  0  0  0
    5.9833  -12.4714   24.9599 C   0  0  0  0  0  0  0  0  0  0  0  0
    6.6539  -11.2800   24.8902 C   0  0  0  0  0  0  0  0  0  0  0  0
    7.8972  -11.1372   25.4657 C   0  0  0  0  0  0  0  0  0  0  0  0
    8.5110  -12.1688   26.1267 C   0  0  0  0  0  0  0  0  0  0  0  0
    7.8342  -13.3860   26.2040 C   0  0  0  0  0  0  0  0  0  0  0  0
   10.7889  -17.0177   27.4972 C   0  0  0  0  0  0  0  0  0  0  0  0
   10.4380  -18.3110   27.1433 O   0  0  0  0  0  0  0  0  0  0  0  0
   11.5808  -16.8760   28.4634 O   0  0  0  0  0  0  0  0  0  0  0  0
  2  3  2  0
  2  1  1  0
  4  2  1  0
  5  4  1  0
  6  5  1  0
  6  7  1  6
  8 10  1  0
  8  6  1  0
  9  8  2  0
 11 14  1  0
 11 10  1  0
 11 12  1  6
 13 12  1  0
 14 15  2  0
 16 17  1  0
 16 14  1  0
 17 28  1  0
 17 18  1  1
 19 18  1  0
 20 19  2  0
 21 22  1  0
 21 20  1  0
 22 27  2  0
 23 24  2  0
 23 22  1  0
 24 25  1  0
 25 26  2  0
 27 26  1  0
 27 19  1  0
 28 30  2  0
 28 29  1  0
M  END
$$$$
