QCW.pdb
     RDKit          3D

 30 31  0  0  1  0  0  0  0  0999 V2000
   11.1676  -19.5217   16.4453 N   0  0  0  0  0  0  0  0  0  0  0  0
   10.3073  -20.5067   16.9703 C   0  0  0  0  0  0  0  0  0  0  0  0
    9.9666  -21.4786   16.2598 O   0  0  0  0  0  0  0  0  0  0  0  0
    9.8204  -20.3705   18.3624 C   0  0  0  0  0  0  0  0  0  0  0  0
   10.3215  -19.0513   18.9325 C   0  0  0  0  0  0  0  0  0  0  0  0
    9.8380  -18.8540   20.3475 C   0  0  2  0  0  0  0  0  0  0  0  0
    8.4447  -19.2826   20.4888 N   0  0  0  0  0  0  0  0  0  0  0  0
    9.9977  -17.4472   20.7973 C   0  0  0  0  0  0  0  0  0  0  0  0
   11.1056  -16.8594   20.7689 O   0  0  0  0  0  0  0  0  0  0  0  0
    8.8586  -16.7516   21.2731 N   0  0  0  0  0  0  0  0  0  0  0  0
    8.8613  -15.3731   21.7139 C   0  0  1  0  0  0  0  0  0  0  0  0
    7.4788  -14.7637   21.5990 C   0  0  0  0  0  0  0  0  0  0  0  0
    6.2129  -15.7243   22.4306 S   0  0  0  0  0  0  0  0  0  0  0  0
    9.3760  -15.3325   23.0985 C   0  0  0  0  0  0  0  0  0  0  0  0
    9.8703  -14.2554   23.5825 O   0  0  0  0  0  0  0  0  0  0  0  0
    9.3728  -16.4347   23.9867 N   0  0  0  0  0  0  0  0  0  0  0  0
   10.0113  -16.3440   25.3152 C   0  0  1  0  0  0  0  0  0  0  0  0
    8.9110  -16.6989   26.2822 C   0  0  0  0  0  0  0  0  0  0  0  0
    7.7969  -15.7412   26.1981 C   0  0  0  0  0  0  0  0  0  0  0  0
    6.4722  -16.0609   25.8947 C   0  0  0  0  0  0  0  0  0  0  0  0
    5.6860  -14.9913   25.9390 N   0  0  0  0  0  0  0  0  0  0  0  0
    6.5079  -13.9622   26.2742 C   0  0  0  0  0  0  0  0  0  0  0  0
    6.1733  -12.6232   26.4394 C   0  0  0  0  0  0  0  0  0  0  0  0
    7.1693  -11.7435   26.7680 C   0  0  0  0  0  0  0  0  0  0  0  0
    8.4668  -12.1771   26.9293 C   0  0  0  0  0  0  0  0  0  0  0  0
    8.8145  -13.4932   26.7708 C   0  0  0  0  0  0  0  0  0  0  0  0
    7.8055  -14.3968   26.4375 C   0  0  0  0  0  0  0  0  0  0  0  0
   11.2259  -17.1447   25.4209 C   0  0  0  0  0  0  0  0  0  0  0  0
   11.6112  -17.9401   24.3531 O   0  0  0  0  0  0  0  0  0  0  0  0
   11.9540  -17.1580   26.4457 O   0  0  0  0  0  0  0  0  0  0  0  0
  2  3  2  0
  2  1  1  0
  4  2  1  0
  5  4  1  0
  6  5  1  0
  6  7  1  6
  8 10  1  0
  8  6  1  0
  9  8  2  0
 11 14  1  0
 11 10  1  0
 11 12  1  1
 13 12  1  0
 14 15  2  0
 16 17  1  0
 16 14  1  0
 17 28  1  0
 17 18  1  1
 19 18  1  0
 20 19  2  0
 21 22  1  0
 21 20  1  0
 22 27  2  0
 23 24  2  0
 23 22  1  0
 24 25  1  0
 25 26  2  0
 27 26  1  0
 27 19  1  0
 28 30  2  0
 28 29  1  0
M  END
$$$$
