QCW.pdb
     RDKit          3D

 30 31  0  0  1  0  0  0  0  0999 V2000
    9.6416  -19.0162   14.4263 N   0  0  0  0  0  0  0  0  0  0  0  0
    8.2362  -19.0600   14.5215 C   0  0  0  0  0  0  0  0  0  0  0  0
    7.5421  -19.0838   13.4808 O   0  0  0  0  0  0  0  0  0  0  0  0
    7.6049  -19.0771   15.8613 C   0  0  0  0  0  0  0  0  0  0  0  0
    7.3963  -17.6429   16.3258 C   0  0  0  0  0  0  0  0  0  0  0  0
    8.3743  -17.2783   17.4146 C   0  0  2  0  0  0  0  0  0  0  0  0
    9.5270  -18.1819   17.4064 N   0  0  0  0  0  0  0  0  0  0  0  0
    7.7332  -17.2650   18.7546 C   0  0  0  0  0  0  0  0  0  0  0  0
    6.6784  -16.6254   18.9832 O   0  0  0  0  0  0  0  0  0  0  0  0
    8.3368  -18.0000   19.8049 N   0  0  0  0  0  0  0  0  0  0  0  0
    7.8444  -18.0464   21.1650 C   0  0  1  0  0  0  0  0  0  0  0  0
    7.5363  -19.4701   21.5825 C   0  0  0  0  0  0  0  0  0  0  0  0
    7.2254  -19.6382   23.3409 S   0  0  0  0  0  0  0  0  0  0  0  0
    8.8511  -17.4130   22.0420 C   0  0  0  0  0  0  0  0  0  0  0  0
   10.1007  -17.5096   21.7815 O   0  0  0  0  0  0  0  0  0  0  0  0
    8.5442  -16.6694   23.2068 N   0  0  0  0  0  0  0  0  0  0  0  0
    9.6124  -16.0662   24.0287 C   0  0  1  0  0  0  0  0  0  0  0  0
    9.2674  -14.5995   24.0700 C   0  0  0  0  0  0  0  0  0  0  0  0
    8.0485  -14.3600   24.8589 C   0  0  0  0  0  0  0  0  0  0  0  0
    7.1465  -15.3399   25.2778 C   0  0  0  0  0  0  0  0  0  0  0  0
    6.1679  -14.8248   26.0134 N   0  0  0  0  0  0  0  0  0  0  0  0
    6.4345  -13.4936   26.0741 C   0  0  0  0  0  0  0  0  0  0  0  0
    5.7003  -12.5058   26.7201 C   0  0  0  0  0  0  0  0  0  0  0  0
    6.1453  -11.2137   26.6417 C   0  0  0  0  0  0  0  0  0  0  0  0
    7.2898  -10.9045   25.9404 C   0  0  0  0  0  0  0  0  0  0  0  0
    8.0261  -11.8653   25.2980 C   0  0  0  0  0  0  0  0  0  0  0  0
    7.5808  -13.1850   25.3739 C   0  0  0  0  0  0  0  0  0  0  0  0
    9.7689  -16.7137   25.3264 C   0  0  0  0  0  0  0  0  0  0  0  0
   10.9074  -16.4659   26.0771 O   0  0  0  0  0  0  0  0  0  0  0  0
    8.9164  -17.5015   25.8093 O   0  0  0  0  0  0  0  0  0  0  0  0
  2  3  2  0
  2  1  1  0
  4  2  1  0
  5  4  1  0
  6  5  1  0
  6  7  1  1
  8 10  1  0
  8  6  1  0
  9  8  2  0
 11 14  1  0
 11 10  1  0
 11 12  1  1
 13 12  1  0
 14 15  2  0
 16 17  1  0
 16 14  1  0
 17 28  1  0
 17 18  1  1
 19 18  1  0
 20 19  2  0
 21 22  1  0
 21 20  1  0
 22 27  2  0
 23 24  2  0
 23 22  1  0
 24 25  1  0
 25 26  2  0
 27 26  1  0
 27 19  1  0
 28 30  2  0
 28 29  1  0
M  END
$$$$
