QCW.pdb
     RDKit          3D

 30 31  0  0  1  0  0  0  0  0999 V2000
    9.4251  -13.7576   15.7871 N   0  0  0  0  0  0  0  0  0  0  0  0
    8.0435  -13.7223   16.0626 C   0  0  0  0  0  0  0  0  0  0  0  0
    7.2192  -13.8249   15.1270 O   0  0  0  0  0  0  0  0  0  0  0  0
    7.5920  -13.5634   17.4643 C   0  0  0  0  0  0  0  0  0  0  0  0
    8.8098  -13.3578   18.3536 C   0  0  0  0  0  0  0  0  0  0  0  0
    9.3436  -14.6764   18.8549 C   0  0  2  0  0  0  0  0  0  0  0  0
    9.6148  -15.5883   17.7413 N   0  0  0  0  0  0  0  0  0  0  0  0
    8.4244  -15.3107   19.8346 C   0  0  0  0  0  0  0  0  0  0  0  0
    7.3056  -15.7692   19.4998 O   0  0  0  0  0  0  0  0  0  0  0  0
    8.8293  -15.3979   21.1896 N   0  0  0  0  0  0  0  0  0  0  0  0
    8.7255  -16.5897   22.0041 C   0  0  1  0  0  0  0  0  0  0  0  0
    9.3568  -17.7789   21.3089 C   0  0  0  0  0  0  0  0  0  0  0  0
    9.1396  -19.3172   22.2051 S   0  0  0  0  0  0  0  0  0  0  0  0
    9.3527  -16.3104   23.3126 C   0  0  0  0  0  0  0  0  0  0  0  0
   10.3772  -15.5477   23.3988 O   0  0  0  0  0  0  0  0  0  0  0  0
    8.9005  -16.8374   24.5462 N   0  0  0  0  0  0  0  0  0  0  0  0
    9.5419  -16.4527   25.8195 C   0  0  1  0  0  0  0  0  0  0  0  0
    8.3934  -16.2986   26.7834 C   0  0  0  0  0  0  0  0  0  0  0  0
    7.4272  -15.2963   26.3065 C   0  0  0  0  0  0  0  0  0  0  0  0
    6.1849  -15.5742   25.7333 C   0  0  0  0  0  0  0  0  0  0  0  0
    5.5169  -14.4629   25.4453 N   0  0  0  0  0  0  0  0  0  0  0  0
    6.3336  -13.4487   25.8344 C   0  0  0  0  0  0  0  0  0  0  0  0
    6.1007  -12.0818   25.7377 C   0  0  0  0  0  0  0  0  0  0  0  0
    7.0731  -11.2270   26.1821 C   0  0  0  0  0  0  0  0  0  0  0  0
    8.2494  -11.7120   26.7099 C   0  0  0  0  0  0  0  0  0  0  0  0
    8.4957  -13.0561   26.8132 C   0  0  0  0  0  0  0  0  0  0  0  0
    7.5096  -13.9345   26.3641 C   0  0  0  0  0  0  0  0  0  0  0  0
   10.5916  -17.3775   26.2324 C   0  0  0  0  0  0  0  0  0  0  0  0
   11.4620  -17.0094   27.2463 O   0  0  0  0  0  0  0  0  0  0  0  0
   10.7574  -18.5082   25.7084 O   0  0  0  0  0  0  0  0  0  0  0  0
  2  3  2  0
  2  1  1  0
  4  2  1  0
  5  4  1  0
  6  5  1  0
  6  7  1  6
  8 10  1  0
  8  6  1  0
  9  8  2  0
 11 14  1  0
 11 10  1  0
 11 12  1  6
 13 12  1  0
 14 15  2  0
 16 17  1  0
 16 14  1  0
 17 28  1  0
 17 18  1  1
 19 18  1  0
 20 19  2  0
 21 22  1  0
 21 20  1  0
 22 27  2  0
 23 24  2  0
 23 22  1  0
 24 25  1  0
 25 26  2  0
 27 26  1  0
 27 19  1  0
 28 30  2  0
 28 29  1  0
M  END
$$$$
