QCW.pdb
     RDKit          3D

 30 31  0  0  1  0  0  0  0  0999 V2000
    8.5013  -12.4143   17.6134 N   0  0  0  0  0  0  0  0  0  0  0  0
    8.1227  -13.3466   16.6268 C   0  0  0  0  0  0  0  0  0  0  0  0
    7.7092  -12.9448   15.5163 O   0  0  0  0  0  0  0  0  0  0  0  0
    8.2225  -14.7937   16.9266 C   0  0  0  0  0  0  0  0  0  0  0  0
    8.7579  -14.9678   18.3406 C   0  0  0  0  0  0  0  0  0  0  0  0
    8.9160  -16.4279   18.6841 C   0  0  2  0  0  0  0  0  0  0  0  0
    8.4740  -17.2770   17.5755 N   0  0  0  0  0  0  0  0  0  0  0  0
    8.1948  -16.7854   19.9326 C   0  0  0  0  0  0  0  0  0  0  0  0
    6.9697  -16.5607   20.0831 O   0  0  0  0  0  0  0  0  0  0  0  0
    8.9187  -17.3996   20.9844 N   0  0  0  0  0  0  0  0  0  0  0  0
    8.3754  -17.6981   22.2922 C   0  0  1  0  0  0  0  0  0  0  0  0
    8.0505  -19.1725   22.4214 C   0  0  0  0  0  0  0  0  0  0  0  0
    7.9118  -19.7179   24.1243 S   0  0  0  0  0  0  0  0  0  0  0  0
    9.3488  -17.2498   23.3096 C   0  0  0  0  0  0  0  0  0  0  0  0
   10.5982  -17.4926   23.1730 O   0  0  0  0  0  0  0  0  0  0  0  0
    9.0083  -16.5383   24.4851 N   0  0  0  0  0  0  0  0  0  0  0  0
   10.0179  -16.2597   25.5260 C   0  0  1  0  0  0  0  0  0  0  0  0
    9.7456  -14.8355   25.9374 C   0  0  0  0  0  0  0  0  0  0  0  0
    8.3090  -14.5248   25.8661 C   0  0  0  0  0  0  0  0  0  0  0  0
    7.2754  -15.4630   25.8409 C   0  0  0  0  0  0  0  0  0  0  0  0
    6.0824  -14.8795   25.8219 N   0  0  0  0  0  0  0  0  0  0  0  0
    6.3412  -13.5454   25.8338 C   0  0  0  0  0  0  0  0  0  0  0  0
    5.4261  -12.4993   25.8119 C   0  0  0  0  0  0  0  0  0  0  0  0
    5.9082  -11.2182   25.8157 C   0  0  0  0  0  0  0  0  0  0  0  0
    7.2640  -10.9761   25.8401 C   0  0  0  0  0  0  0  0  0  0  0  0
    8.1802  -11.9949   25.8622 C   0  0  0  0  0  0  0  0  0  0  0  0
    7.6978  -13.3036   25.8601 C   0  0  0  0  0  0  0  0  0  0  0  0
   10.0102  -17.2402   26.6060 C   0  0  0  0  0  0  0  0  0  0  0  0
    9.0288  -18.2186   26.6293 O   0  0  0  0  0  0  0  0  0  0  0  0
   10.8559  -17.2455   27.5363 O   0  0  0  0  0  0  0  0  0  0  0  0
  2  3  2  0
  2  1  1  0
  4  2  1  0
  5  4  1  0
  6  5  1  0
  6  7  1  6
  8 10  1  0
  8  6  1  0
  9  8  2  0
 11 14  1  0
 11 10  1  0
 11 12  1  6
 13 12  1  0
 14 15  2  0
 16 17  1  0
 16 14  1  0
 17 28  1  0
 17 18  1  1
 19 18  1  0
 20 19  2  0
 21 22  1  0
 21 20  1  0
 22 27  2  0
 23 24  2  0
 23 22  1  0
 24 25  1  0
 25 26  2  0
 27 26  1  0
 27 19  1  0
 28 30  2  0
 28 29  1  0
M  END
$$$$
