QCW.pdb
     RDKit          3D

 30 31  0  0  1  0  0  0  0  0999 V2000
    7.9836  -12.5481   16.9746 N   0  0  0  0  0  0  0  0  0  0  0  0
    8.5754  -13.5437   16.1716 C   0  0  0  0  0  0  0  0  0  0  0  0
    8.9793  -13.2580   15.0224 O   0  0  0  0  0  0  0  0  0  0  0  0
    8.7080  -14.9178   16.7083 C   0  0  0  0  0  0  0  0  0  0  0  0
    8.0598  -14.9738   18.0841 C   0  0  0  0  0  0  0  0  0  0  0  0
    8.4888  -16.2094   18.8352 C   0  0  2  0  0  0  0  0  0  0  0  0
    8.3104  -17.4091   18.0143 N   0  0  0  0  0  0  0  0  0  0  0  0
    7.7690  -16.3513   20.1270 C   0  0  0  0  0  0  0  0  0  0  0  0
    6.5182  -16.2917   20.2039 O   0  0  0  0  0  0  0  0  0  0  0  0
    8.5245  -16.5602   21.3074 N   0  0  0  0  0  0  0  0  0  0  0  0
    7.9556  -16.7957   22.6172 C   0  0  1  0  0  0  0  0  0  0  0  0
    7.2729  -18.1471   22.6775 C   0  0  0  0  0  0  0  0  0  0  0  0
    6.7396  -18.5951   24.3303 S   0  0  0  0  0  0  0  0  0  0  0  0
    9.0352  -16.6705   23.6184 C   0  0  0  0  0  0  0  0  0  0  0  0
   10.1447  -17.2907   23.4668 O   0  0  0  0  0  0  0  0  0  0  0  0
    8.9506  -15.8857   24.7935 N   0  0  0  0  0  0  0  0  0  0  0  0
   10.0290  -15.9060   25.8021 C   0  0  1  0  0  0  0  0  0  0  0  0
    9.7466  -14.7090   26.6735 C   0  0  0  0  0  0  0  0  0  0  0  0
    8.3274  -14.3251   26.6094 C   0  0  0  0  0  0  0  0  0  0  0  0
    7.2441  -15.1835   26.8067 C   0  0  0  0  0  0  0  0  0  0  0  0
    6.0857  -14.5381   26.7319 N   0  0  0  0  0  0  0  0  0  0  0  0
    6.4176  -13.2441   26.4820 C   0  0  0  0  0  0  0  0  0  0  0  0
    5.5614  -12.1634   26.3053 C   0  0  0  0  0  0  0  0  0  0  0  0
    6.1124  -10.9372   26.0473 C   0  0  0  0  0  0  0  0  0  0  0  0
    7.4787  -10.7824   25.9653 C   0  0  0  0  0  0  0  0  0  0  0  0
    8.3375  -11.8363   26.1370 C   0  0  0  0  0  0  0  0  0  0  0  0
    7.7847  -13.0893   26.4019 C   0  0  0  0  0  0  0  0  0  0  0  0
   10.1344  -17.1827   26.4998 C   0  0  0  0  0  0  0  0  0  0  0  0
   11.2323  -17.4264   27.3098 O   0  0  0  0  0  0  0  0  0  0  0  0
    9.2724  -18.0928   26.4027 O   0  0  0  0  0  0  0  0  0  0  0  0
  2  3  2  0
  2  1  1  0
  4  2  1  0
  5  4  1  0
  6  5  1  0
  6  7  1  6
  8 10  1  0
  8  6  1  0
  9  8  2  0
 11 14  1  0
 11 10  1  0
 11 12  1  6
 13 12  1  0
 14 15  2  0
 16 17  1  0
 16 14  1  0
 17 28  1  0
 17 18  1  1
 19 18  1  0
 20 19  2  0
 21 22  1  0
 21 20  1  0
 22 27  2  0
 23 24  2  0
 23 22  1  0
 24 25  1  0
 25 26  2  0
 27 26  1  0
 27 19  1  0
 28 30  2  0
 28 29  1  0
M  END
$$$$
