IGK.pdb
     RDKit          3D

 22 21  0  0  1  0  0  0  0  0999 V2000
   24.7822  -19.0639  -17.9831 C   0  0  0  0  0  0  0  0  0  0  0  0
   24.3942  -19.1707  -16.5499 C   0  0  0  0  0  0  0  0  0  0  0  0
   22.9854  -19.5433  -16.2646 C   0  0  2  0  0  0  0  0  0  0  0  0
   22.1150  -18.5112  -17.0121 C   0  0  0  0  0  0  0  0  0  0  0  0
   22.5860  -19.5534  -14.8228 C   0  0  2  0  0  0  0  0  0  0  0  0
   23.5487  -20.2948  -14.0021 N   0  0  0  0  0  0  0  0  0  0  0  0
   21.2119  -20.0042  -14.5493 C   0  0  0  0  0  0  0  0  0  0  0  0
   20.2383  -19.2768  -14.8649 O   0  0  0  0  0  0  0  0  0  0  0  0
   20.9515  -21.2620  -13.9256 N   0  0  0  0  0  0  0  0  0  0  0  0
   20.2651  -21.2682  -12.6551 C   0  0  0  0  0  0  0  0  0  0  0  0
   19.2922  -22.4005  -12.5980 C   0  0  0  0  0  0  0  0  0  0  0  0
   18.4935  -22.6343  -13.5483 O   0  0  0  0  0  0  0  0  0  0  0  0
   19.2190  -23.2664  -11.4748 N   0  0  0  0  0  0  0  0  0  0  0  0
   18.2958  -24.3954  -11.3973 C   0  0  1  0  0  0  0  0  0  0  0  0
   18.6639  -25.1927  -10.1993 C   0  0  0  0  0  0  0  0  0  0  0  0
   17.9781  -24.8595   -8.9293 C   0  0  0  0  0  0  0  0  0  0  0  0
   18.4160  -25.6125   -7.7120 C   0  0  0  0  0  0  0  0  0  0  0  0
   17.5826  -25.2382   -6.4873 C   0  0  0  0  0  0  0  0  0  0  0  0
   18.1051  -26.0632   -5.3972 N   0  0  0  0  0  0  0  0  0  0  0  0
   16.9105  -23.9990  -11.5660 C   0  0  0  0  0  0  0  0  0  0  0  0
   16.3984  -22.9354  -11.1547 O   0  0  0  0  0  0  0  0  0  0  0  0
   16.0175  -24.8540  -12.2469 O   0  0  0  0  0  0  0  0  0  0  0  0
  2  1  1  0
  2  3  1  0
  3  4  1  6
  5  3  1  0
  5  7  1  0
  5  6  1  1
  7  9  1  0
  8  7  2  0
  9 10  1  0
 11 13  1  0
 11 10  1  0
 12 11  2  0
 14 13  1  0
 14 15  1  1
 15 16  1  0
 17 16  1  0
 17 18  1  0
 19 18  1  0
 20 14  1  0
 21 20  2  0
 22 20  1  0
M  END
$$$$
