IGK.pdb
     RDKit          3D

 22 21  0  0  1  0  0  0  0  0999 V2000
   28.8233  -13.5905  -16.6574 C   0  0  0  0  0  0  0  0  0  0  0  0
   27.3776  -13.9043  -16.4920 C   0  0  0  0  0  0  0  0  0  0  0  0
   26.5643  -12.9254  -15.7271 C   0  0  2  0  0  0  0  0  0  0  0  0
   27.0632  -13.0081  -14.2690 C   0  0  0  0  0  0  0  0  0  0  0  0
   25.0844  -13.1453  -15.7410 C   0  0  2  0  0  0  0  0  0  0  0  0
   24.5585  -13.1862  -17.1091 N   0  0  0  0  0  0  0  0  0  0  0  0
   24.2987  -12.2204  -14.9081 C   0  0  0  0  0  0  0  0  0  0  0  0
   24.4949  -12.1711  -13.6690 O   0  0  0  0  0  0  0  0  0  0  0  0
   23.3054  -11.3671  -15.4774 N   0  0  0  0  0  0  0  0  0  0  0  0
   22.6218  -10.4369  -14.6100 C   0  0  0  0  0  0  0  0  0  0  0  0
   22.4438   -9.1227  -15.2980 C   0  0  0  0  0  0  0  0  0  0  0  0
   23.3682   -8.2624  -15.3290 O   0  0  0  0  0  0  0  0  0  0  0  0
   21.2293   -8.7787  -15.9486 N   0  0  0  0  0  0  0  0  0  0  0  0
   21.0300   -7.5115  -16.6468 C   0  0  1  0  0  0  0  0  0  0  0  0
   20.0379   -7.7472  -17.7269 C   0  0  0  0  0  0  0  0  0  0  0  0
   19.6511   -6.5815  -18.5549 C   0  0  0  0  0  0  0  0  0  0  0  0
   18.6233   -6.8229  -19.6160 C   0  0  0  0  0  0  0  0  0  0  0  0
   18.3529   -5.5625  -20.4363 C   0  0  0  0  0  0  0  0  0  0  0  0
   17.2265   -5.9020  -21.3068 N   0  0  0  0  0  0  0  0  0  0  0  0
   20.8146   -6.3999  -15.7397 C   0  0  0  0  0  0  0  0  0  0  0  0
   21.0394   -5.1962  -15.9910 O   0  0  0  0  0  0  0  0  0  0  0  0
   20.3083   -6.6433  -14.4449 O   0  0  0  0  0  0  0  0  0  0  0  0
  2  1  1  0
  2  3  1  0
  3  4  1  1
  5  3  1  0
  5  7  1  0
  5  6  1  6
  7  9  1  0
  8  7  2  0
  9 10  1  0
 11 13  1  0
 11 10  1  0
 12 11  2  0
 14 13  1  0
 14 15  1  6
 15 16  1  0
 17 16  1  0
 17 18  1  0
 19 18  1  0
 20 14  1  0
 21 20  2  0
 22 20  1  0
M  END
$$$$
