IGK.pdb
     RDKit          3D

 22 21  0  0  1  0  0  0  0  0999 V2000
   28.0140  -19.2824  -17.7925 C   0  0  0  0  0  0  0  0  0  0  0  0
   27.8009  -20.2771  -16.7056 C   0  0  0  0  0  0  0  0  0  0  0  0
   26.7493  -19.9603  -15.7063 C   0  0  2  0  0  0  0  0  0  0  0  0
   27.2335  -18.6939  -14.9692 C   0  0  0  0  0  0  0  0  0  0  0  0
   26.4610  -21.0239  -14.6942 C   0  0  2  0  0  0  0  0  0  0  0  0
   26.2259  -22.3238  -15.3305 N   0  0  0  0  0  0  0  0  0  0  0  0
   25.3891  -20.7117  -13.7351 C   0  0  0  0  0  0  0  0  0  0  0  0
   25.6037  -19.9096  -12.7933 O   0  0  0  0  0  0  0  0  0  0  0  0
   24.0948  -21.3045  -13.8465 N   0  0  0  0  0  0  0  0  0  0  0  0
   23.0397  -20.8132  -12.9918 C   0  0  0  0  0  0  0  0  0  0  0  0
   21.7999  -21.6250  -13.1811 C   0  0  0  0  0  0  0  0  0  0  0  0
   21.7244  -22.5185  -14.0708 O   0  0  0  0  0  0  0  0  0  0  0  0
   20.6495  -21.4313  -12.3714 N   0  0  0  0  0  0  0  0  0  0  0  0
   19.4186  -22.1996  -12.5381 C   0  0  1  0  0  0  0  0  0  0  0  0
   18.5331  -21.8804  -11.3891 C   0  0  0  0  0  0  0  0  0  0  0  0
   17.8124  -23.0099  -10.7575 C   0  0  0  0  0  0  0  0  0  0  0  0
   18.5870  -23.8387   -9.7809 C   0  0  0  0  0  0  0  0  0  0  0  0
   17.7295  -24.9520   -9.1813 C   0  0  0  0  0  0  0  0  0  0  0  0
   18.6426  -25.7390   -8.3513 N   0  0  0  0  0  0  0  0  0  0  0  0
   18.8745  -22.1017  -13.8794 C   0  0  0  0  0  0  0  0  0  0  0  0
   18.8137  -21.0618  -14.5704 O   0  0  0  0  0  0  0  0  0  0  0  0
   18.3530  -23.2533  -14.5071 O   0  0  0  0  0  0  0  0  0  0  0  0
  2  1  1  0
  2  3  1  0
  3  4  1  1
  5  3  1  0
  5  7  1  0
  5  6  1  6
  7  9  1  0
  8  7  2  0
  9 10  1  0
 11 13  1  0
 11 10  1  0
 12 11  2  0
 14 13  1  0
 14 15  1  1
 15 16  1  0
 17 16  1  0
 17 18  1  0
 19 18  1  0
 20 14  1  0
 21 20  2  0
 22 20  1  0
M  END
$$$$
