IGK.pdb
     RDKit          3D

 22 21  0  0  1  0  0  0  0  0999 V2000
   28.3730  -20.4505  -14.8446 C   0  0  0  0  0  0  0  0  0  0  0  0
   27.4943  -20.8102  -13.6981 C   0  0  0  0  0  0  0  0  0  0  0  0
   26.0299  -20.7761  -13.9417 C   0  0  2  0  0  0  0  0  0  0  0  0
   25.6924  -19.3102  -14.2867 C   0  0  0  0  0  0  0  0  0  0  0  0
   25.1627  -21.2129  -12.8034 C   0  0  2  0  0  0  0  0  0  0  0  0
   25.6001  -22.5011  -12.2563 N   0  0  0  0  0  0  0  0  0  0  0  0
   23.7168  -21.2273  -13.0779 C   0  0  0  0  0  0  0  0  0  0  0  0
   23.2765  -21.8227  -14.0919 O   0  0  0  0  0  0  0  0  0  0  0  0
   22.7884  -20.5733  -12.2123 N   0  0  0  0  0  0  0  0  0  0  0  0
   21.3880  -20.5992  -12.5637 C   0  0  0  0  0  0  0  0  0  0  0  0
   20.7801  -21.9064  -12.1716 C   0  0  0  0  0  0  0  0  0  0  0  0
   21.4467  -22.9792  -12.1964 O   0  0  0  0  0  0  0  0  0  0  0  0
   19.4267  -22.0052  -11.7531 N   0  0  0  0  0  0  0  0  0  0  0  0
   18.7923  -23.2718  -11.3980 C   0  0  1  0  0  0  0  0  0  0  0  0
   18.3367  -23.1641   -9.9884 C   0  0  0  0  0  0  0  0  0  0  0  0
   18.6688  -24.2887   -9.0834 C   0  0  0  0  0  0  0  0  0  0  0  0
   18.0436  -24.2636   -7.7236 C   0  0  0  0  0  0  0  0  0  0  0  0
   18.2480  -25.5851   -6.9844 C   0  0  0  0  0  0  0  0  0  0  0  0
   17.7348  -25.3557   -5.6331 N   0  0  0  0  0  0  0  0  0  0  0  0
   17.8445  -23.7237  -12.3992 C   0  0  0  0  0  0  0  0  0  0  0  0
   17.0239  -23.0034  -13.0079 O   0  0  0  0  0  0  0  0  0  0  0  0
   17.8022  -25.0888  -12.7547 O   0  0  0  0  0  0  0  0  0  0  0  0
  2  1  1  0
  2  3  1  0
  3  4  1  1
  5  3  1  0
  5  7  1  0
  5  6  1  6
  7  9  1  0
  8  7  2  0
  9 10  1  0
 11 13  1  0
 11 10  1  0
 12 11  2  0
 14 13  1  0
 14 15  1  1
 15 16  1  0
 17 16  1  0
 17 18  1  0
 19 18  1  0
 20 14  1  0
 21 20  2  0
 22 20  1  0
M  END
$$$$
