IGK.pdb
     RDKit          3D

 22 21  0  0  1  0  0  0  0  0999 V2000
   30.2749  -22.1085  -10.5239 C   0  0  0  0  0  0  0  0  0  0  0  0
   28.9262  -21.5179  -10.3042 C   0  0  0  0  0  0  0  0  0  0  0  0
   28.1521  -21.1495  -11.5166 C   0  0  2  0  0  0  0  0  0  0  0  0
   29.0861  -20.2558  -12.3597 C   0  0  0  0  0  0  0  0  0  0  0  0
   26.8697  -20.4156  -11.2813 C   0  0  2  0  0  0  0  0  0  0  0  0
   25.8996  -21.2441  -10.5584 N   0  0  0  0  0  0  0  0  0  0  0  0
   26.2546  -19.8158  -12.4763 C   0  0  0  0  0  0  0  0  0  0  0  0
   26.8319  -18.8743  -13.0737 O   0  0  0  0  0  0  0  0  0  0  0  0
   25.0023  -20.2799  -12.9814 N   0  0  0  0  0  0  0  0  0  0  0  0
   24.5252  -19.7402  -14.2329 C   0  0  0  0  0  0  0  0  0  0  0  0
   23.0733  -20.0454  -14.4083 C   0  0  0  0  0  0  0  0  0  0  0  0
   22.4318  -20.7198  -13.5541 O   0  0  0  0  0  0  0  0  0  0  0  0
   22.3465  -19.5930  -15.5412 N   0  0  0  0  0  0  0  0  0  0  0  0
   20.9145  -19.8225  -15.7136 C   0  0  1  0  0  0  0  0  0  0  0  0
   20.2894  -18.5174  -16.0487 C   0  0  0  0  0  0  0  0  0  0  0  0
   18.8446  -18.3663  -15.7593 C   0  0  0  0  0  0  0  0  0  0  0  0
   18.2108  -17.0715  -16.1622 C   0  0  0  0  0  0  0  0  0  0  0  0
   16.7363  -17.0179  -15.7654 C   0  0  0  0  0  0  0  0  0  0  0  0
   16.2717  -15.6941  -16.1819 N   0  0  0  0  0  0  0  0  0  0  0  0
   20.6283  -20.9648  -16.5610 C   0  0  0  0  0  0  0  0  0  0  0  0
   21.3733  -21.9540  -16.7321 O   0  0  0  0  0  0  0  0  0  0  0  0
   19.4148  -21.0143  -17.2799 O   0  0  0  0  0  0  0  0  0  0  0  0
  2  1  1  0
  2  3  1  0
  3  4  1  6
  5  3  1  0
  5  7  1  0
  5  6  1  6
  7  9  1  0
  8  7  2  0
  9 10  1  0
 11 13  1  0
 11 10  1  0
 12 11  2  0
 14 13  1  0
 14 15  1  6
 15 16  1  0
 17 16  1  0
 17 18  1  0
 19 18  1  0
 20 14  1  0
 21 20  2  0
 22 20  1  0
M  END
$$$$
