IGK.pdb
     RDKit          3D

 22 21  0  0  1  0  0  0  0  0999 V2000
   24.1652  -10.7953  -15.1114 C   0  0  0  0  0  0  0  0  0  0  0  0
   23.2677   -9.6300  -15.3410 C   0  0  0  0  0  0  0  0  0  0  0  0
   21.9590   -9.6457  -14.6396 C   0  0  2  0  0  0  0  0  0  0  0  0
   21.1897  -10.8577  -15.2061 C   0  0  0  0  0  0  0  0  0  0  0  0
   21.1120   -8.4227  -14.7987 C   0  0  2  0  0  0  0  0  0  0  0  0
   21.7743   -7.2338  -14.2529 N   0  0  0  0  0  0  0  0  0  0  0  0
   19.7364   -8.5340  -14.2872 C   0  0  0  0  0  0  0  0  0  0  0  0
   18.9688   -9.4191  -14.7386 O   0  0  0  0  0  0  0  0  0  0  0  0
   19.2434   -7.6508  -13.2793 N   0  0  0  0  0  0  0  0  0  0  0  0
   17.8710   -7.7941  -12.8537 C   0  0  0  0  0  0  0  0  0  0  0  0
   17.5315   -6.7498  -11.8407 C   0  0  0  0  0  0  0  0  0  0  0  0
   18.2868   -5.7585  -11.6348 O   0  0  0  0  0  0  0  0  0  0  0  0
   16.3459   -6.8217  -11.0624 N   0  0  0  0  0  0  0  0  0  0  0  0
   15.9221   -5.7586  -10.1551 C   0  0  1  0  0  0  0  0  0  0  0  0
   14.5278   -6.0560   -9.7379 C   0  0  0  0  0  0  0  0  0  0  0  0
   13.8843   -5.1032   -8.8041 C   0  0  0  0  0  0  0  0  0  0  0  0
   12.4857   -5.4224   -8.3769 C   0  0  0  0  0  0  0  0  0  0  0  0
   11.9076   -4.3306   -7.4779 C   0  0  0  0  0  0  0  0  0  0  0  0
   10.5325   -4.7470   -7.1993 N   0  0  0  0  0  0  0  0  0  0  0  0
   16.9060   -5.4735   -9.1277 C   0  0  0  0  0  0  0  0  0  0  0  0
   17.6013   -6.3199   -8.5254 O   0  0  0  0  0  0  0  0  0  0  0  0
   17.1378   -4.1381   -8.7344 O   0  0  0  0  0  0  0  0  0  0  0  0
  2  1  1  0
  2  3  1  0
  3  4  1  6
  5  3  1  0
  5  7  1  0
  5  6  1  1
  7  9  1  0
  8  7  2  0
  9 10  1  0
 11 13  1  0
 11 10  1  0
 12 11  2  0
 14 13  1  0
 14 15  1  1
 15 16  1  0
 17 16  1  0
 17 18  1  0
 19 18  1  0
 20 14  1  0
 21 20  2  0
 22 20  1  0
M  END
$$$$
