IGK.pdb
     RDKit          3D

 22 21  0  0  1  0  0  0  0  0999 V2000
   13.8133  -13.9791  -16.2400 C   0  0  0  0  0  0  0  0  0  0  0  0
   13.7151  -13.1323  -15.0196 C   0  0  0  0  0  0  0  0  0  0  0  0
   14.6072  -11.9470  -14.9548 C   0  0  2  0  0  0  0  0  0  0  0  0
   16.0478  -12.4983  -15.0044 C   0  0  0  0  0  0  0  0  0  0  0  0
   14.4659  -11.0821  -13.7422 C   0  0  2  0  0  0  0  0  0  0  0  0
   13.2002  -10.3419  -13.7527 N   0  0  0  0  0  0  0  0  0  0  0  0
   15.5960  -10.1782  -13.4737 C   0  0  0  0  0  0  0  0  0  0  0  0
   16.6111  -10.6048  -12.8703 O   0  0  0  0  0  0  0  0  0  0  0  0
   15.5693   -8.8109  -13.8845 N   0  0  0  0  0  0  0  0  0  0  0  0
   16.7882   -8.0425  -13.7894 C   0  0  0  0  0  0  0  0  0  0  0  0
   16.5805   -6.6716  -14.3457 C   0  0  0  0  0  0  0  0  0  0  0  0
   16.7914   -6.4139  -15.5643 O   0  0  0  0  0  0  0  0  0  0  0  0
   16.1370   -5.5949  -13.5329 N   0  0  0  0  0  0  0  0  0  0  0  0
   15.7715   -4.2874  -14.0712 C   0  0  1  0  0  0  0  0  0  0  0  0
   14.7886   -3.6786  -13.1387 C   0  0  0  0  0  0  0  0  0  0  0  0
   13.4802   -4.3587  -12.9979 C   0  0  0  0  0  0  0  0  0  0  0  0
   12.4765   -3.7045  -12.1006 C   0  0  0  0  0  0  0  0  0  0  0  0
   11.2011   -4.5371  -11.9796 C   0  0  0  0  0  0  0  0  0  0  0  0
   10.3355   -3.7881  -11.0676 N   0  0  0  0  0  0  0  0  0  0  0  0
   16.9252   -3.5032  -14.4696 C   0  0  0  0  0  0  0  0  0  0  0  0
   16.8997   -2.4660  -15.1670 O   0  0  0  0  0  0  0  0  0  0  0  0
   18.2158   -3.9028  -14.0614 O   0  0  0  0  0  0  0  0  0  0  0  0
  2  1  1  0
  2  3  1  0
  3  4  1  1
  5  3  1  0
  5  7  1  0
  5  6  1  6
  7  9  1  0
  8  7  2  0
  9 10  1  0
 11 13  1  0
 11 10  1  0
 12 11  2  0
 14 13  1  0
 14 15  1  1
 15 16  1  0
 17 16  1  0
 17 18  1  0
 19 18  1  0
 20 14  1  0
 21 20  2  0
 22 20  1  0
M  END
$$$$
