IGK.pdb
     RDKit          3D

 22 21  0  0  1  0  0  0  0  0999 V2000
   22.2394  -19.5227  -15.2123 C   0  0  0  0  0  0  0  0  0  0  0  0
   21.1940  -19.4933  -14.1530 C   0  0  0  0  0  0  0  0  0  0  0  0
   21.2984  -20.5166  -13.0821 C   0  0  2  0  0  0  0  0  0  0  0  0
   21.1571  -21.8825  -13.7865 C   0  0  0  0  0  0  0  0  0  0  0  0
   20.2797  -20.4326  -11.9895 C   0  0  2  0  0  0  0  0  0  0  0  0
   20.3132  -19.1282  -11.3206 N   0  0  0  0  0  0  0  0  0  0  0  0
   20.3166  -21.5249  -11.0037 C   0  0  0  0  0  0  0  0  0  0  0  0
   20.2561  -22.7189  -11.3875 O   0  0  0  0  0  0  0  0  0  0  0  0
   20.4193  -21.2612   -9.6041 N   0  0  0  0  0  0  0  0  0  0  0  0
   20.5879  -22.3795   -8.7062 C   0  0  0  0  0  0  0  0  0  0  0  0
   19.2657  -23.0083   -8.4088 C   0  0  0  0  0  0  0  0  0  0  0  0
   18.1798  -22.4127   -8.6573 O   0  0  0  0  0  0  0  0  0  0  0  0
   19.1669  -24.3029   -7.8337 N   0  0  0  0  0  0  0  0  0  0  0  0
   17.8910  -24.9626   -7.5692 C   0  0  1  0  0  0  0  0  0  0  0  0
   18.1185  -26.4278   -7.6566 C   0  0  0  0  0  0  0  0  0  0  0  0
   16.9268  -27.3029   -7.5664 C   0  0  0  0  0  0  0  0  0  0  0  0
   17.1755  -28.7789   -7.5721 C   0  0  0  0  0  0  0  0  0  0  0  0
   15.8740  -29.5706   -7.4544 C   0  0  0  0  0  0  0  0  0  0  0  0
   16.2744  -30.9782   -7.4746 N   0  0  0  0  0  0  0  0  0  0  0  0
   17.2202  -24.4350   -6.3959 C   0  0  0  0  0  0  0  0  0  0  0  0
   17.7795  -23.9322   -5.3974 O   0  0  0  0  0  0  0  0  0  0  0  0
   15.8112  -24.4687   -6.3229 O   0  0  0  0  0  0  0  0  0  0  0  0
  2  1  1  0
  2  3  1  0
  3  4  1  6
  5  3  1  0
  5  7  1  0
  5  6  1  1
  7  9  1  0
  8  7  2  0
  9 10  1  0
 11 13  1  0
 11 10  1  0
 12 11  2  0
 14 13  1  0
 14 15  1  1
 15 16  1  0
 17 16  1  0
 17 18  1  0
 19 18  1  0
 20 14  1  0
 21 20  2  0
 22 20  1  0
M  END
$$$$
