IGK.pdb
     RDKit          3D

 22 21  0  0  1  0  0  0  0  0999 V2000
   20.5067  -30.1270  -10.3713 C   0  0  0  0  0  0  0  0  0  0  0  0
   19.4166  -29.1339  -10.5745 C   0  0  0  0  0  0  0  0  0  0  0  0
   19.5933  -28.1651  -11.6858 C   0  0  2  0  0  0  0  0  0  0  0  0
   20.4925  -28.8703  -12.7231 C   0  0  0  0  0  0  0  0  0  0  0  0
   20.2162  -26.8539  -11.3235 C   0  0  2  0  0  0  0  0  0  0  0  0
   19.5103  -26.2112  -10.2106 N   0  0  0  0  0  0  0  0  0  0  0  0
   20.4002  -25.9105  -12.4381 C   0  0  0  0  0  0  0  0  0  0  0  0
   21.0909  -26.2417  -13.4330 O   0  0  0  0  0  0  0  0  0  0  0  0
   19.8084  -24.6112  -12.4189 N   0  0  0  0  0  0  0  0  0  0  0  0
   20.0416  -23.7348  -13.5427 C   0  0  0  0  0  0  0  0  0  0  0  0
   18.7480  -23.1800  -14.0435 C   0  0  0  0  0  0  0  0  0  0  0  0
   17.6375  -23.6002  -13.6123 O   0  0  0  0  0  0  0  0  0  0  0  0
   18.7052  -22.1558  -15.0262 N   0  0  0  0  0  0  0  0  0  0  0  0
   17.4583  -21.5940  -15.5386 C   0  0  1  0  0  0  0  0  0  0  0  0
   16.5719  -22.7294  -15.9013 C   0  0  0  0  0  0  0  0  0  0  0  0
   16.2344  -22.8918  -17.3344 C   0  0  0  0  0  0  0  0  0  0  0  0
   15.3746  -24.0634  -17.6932 C   0  0  0  0  0  0  0  0  0  0  0  0
   15.1869  -24.1831  -19.2049 C   0  0  0  0  0  0  0  0  0  0  0  0
   14.4711  -25.4435  -19.4070 N   0  0  0  0  0  0  0  0  0  0  0  0
   16.9264  -20.5443  -14.6902 C   0  0  0  0  0  0  0  0  0  0  0  0
   16.8836  -20.5643  -13.4409 O   0  0  0  0  0  0  0  0  0  0  0  0
   16.3964  -19.3746  -15.2756 O   0  0  0  0  0  0  0  0  0  0  0  0
  2  1  1  0
  2  3  1  0
  3  4  1  6
  5  3  1  0
  5  7  1  0
  5  6  1  1
  7  9  1  0
  8  7  2  0
  9 10  1  0
 11 13  1  0
 11 10  1  0
 12 11  2  0
 14 13  1  0
 14 15  1  1
 15 16  1  0
 17 16  1  0
 17 18  1  0
 19 18  1  0
 20 14  1  0
 21 20  2  0
 22 20  1  0
M  END
$$$$
