IGK.pdb
     RDKit          3D

 22 21  0  0  1  0  0  0  0  0999 V2000
   24.6571  -14.0638  -15.9942 C   0  0  0  0  0  0  0  0  0  0  0  0
   24.4728  -12.6284  -16.3430 C   0  0  0  0  0  0  0  0  0  0  0  0
   23.2158  -11.9849  -15.8840 C   0  0  2  0  0  0  0  0  0  0  0  0
   22.0702  -12.7502  -16.5794 C   0  0  0  0  0  0  0  0  0  0  0  0
   23.0731  -10.5270  -16.1886 C   0  0  2  0  0  0  0  0  0  0  0  0
   24.1648   -9.7443  -15.6006 N   0  0  0  0  0  0  0  0  0  0  0  0
   21.7681   -9.9347  -15.8536 C   0  0  0  0  0  0  0  0  0  0  0  0
   20.7394  -10.2868  -16.4816 O   0  0  0  0  0  0  0  0  0  0  0  0
   21.6375   -8.9567  -14.8215 N   0  0  0  0  0  0  0  0  0  0  0  0
   20.3096   -8.5464  -14.4297 C   0  0  0  0  0  0  0  0  0  0  0  0
   19.8459   -7.4107  -15.2825 C   0  0  0  0  0  0  0  0  0  0  0  0
   20.4778   -7.0618  -16.3192 O   0  0  0  0  0  0  0  0  0  0  0  0
   18.6751   -6.6708  -14.9691 N   0  0  0  0  0  0  0  0  0  0  0  0
   18.2118   -5.5368  -15.7643 C   0  0  1  0  0  0  0  0  0  0  0  0
   16.7328   -5.4777  -15.6398 C   0  0  0  0  0  0  0  0  0  0  0  0
   15.9880   -6.7441  -15.8281 C   0  0  0  0  0  0  0  0  0  0  0  0
   14.5057   -6.6875  -15.6279 C   0  0  0  0  0  0  0  0  0  0  0  0
   13.8525   -8.0486  -15.8629 C   0  0  0  0  0  0  0  0  0  0  0  0
   12.4267   -7.8431  -15.6041 N   0  0  0  0  0  0  0  0  0  0  0  0
   18.9761   -4.3289  -15.5159 C   0  0  0  0  0  0  0  0  0  0  0  0
   19.6573   -4.0909  -14.4951 O   0  0  0  0  0  0  0  0  0  0  0  0
   18.9852   -3.2979  -16.4797 O   0  0  0  0  0  0  0  0  0  0  0  0
  2  1  1  0
  2  3  1  0
  3  4  1  6
  5  3  1  0
  5  7  1  0
  5  6  1  1
  7  9  1  0
  8  7  2  0
  9 10  1  0
 11 13  1  0
 11 10  1  0
 12 11  2  0
 14 13  1  0
 14 15  1  1
 15 16  1  0
 17 16  1  0
 17 18  1  0
 19 18  1  0
 20 14  1  0
 21 20  2  0
 22 20  1  0
M  END
$$$$
