IGK.pdb
     RDKit          3D

 22 21  0  0  1  0  0  0  0  0999 V2000
   24.2447  -17.3333  -16.7723 C   0  0  0  0  0  0  0  0  0  0  0  0
   23.5017  -18.6191  -16.6693 C   0  0  0  0  0  0  0  0  0  0  0  0
   22.8874  -18.9328  -15.3543 C   0  0  2  0  0  0  0  0  0  0  0  0
   24.0632  -19.1367  -14.3758 C   0  0  0  0  0  0  0  0  0  0  0  0
   22.0103  -20.1441  -15.3095 C   0  0  2  0  0  0  0  0  0  0  0  0
   20.9452  -20.0757  -16.3151 N   0  0  0  0  0  0  0  0  0  0  0  0
   21.4575  -20.4773  -13.9868 C   0  0  0  0  0  0  0  0  0  0  0  0
   22.2233  -20.5996  -12.9994 O   0  0  0  0  0  0  0  0  0  0  0  0
   20.0559  -20.6692  -13.7927 N   0  0  0  0  0  0  0  0  0  0  0  0
   19.5863  -21.0014  -12.4682 C   0  0  0  0  0  0  0  0  0  0  0  0
   18.3580  -21.8478  -12.5517 C   0  0  0  0  0  0  0  0  0  0  0  0
   17.8728  -22.2006  -13.6633 O   0  0  0  0  0  0  0  0  0  0  0  0
   17.6787  -22.2952  -11.3877 N   0  0  0  0  0  0  0  0  0  0  0  0
   16.5572  -23.2298  -11.4286 C   0  0  1  0  0  0  0  0  0  0  0  0
   16.2948  -23.6750  -10.0360 C   0  0  0  0  0  0  0  0  0  0  0  0
   17.3371  -24.5003   -9.3831 C   0  0  0  0  0  0  0  0  0  0  0  0
   17.5465  -24.2814   -7.9172 C   0  0  0  0  0  0  0  0  0  0  0  0
   18.7173  -25.1067   -7.3854 C   0  0  0  0  0  0  0  0  0  0  0  0
   18.9198  -24.6489   -6.0101 N   0  0  0  0  0  0  0  0  0  0  0  0
   15.4450  -22.7359  -12.2185 C   0  0  0  0  0  0  0  0  0  0  0  0
   14.7148  -23.4236  -12.9646 O   0  0  0  0  0  0  0  0  0  0  0  0
   15.1151  -21.3642  -12.1788 O   0  0  0  0  0  0  0  0  0  0  0  0
  2  1  1  0
  2  3  1  0
  3  4  1  1
  5  3  1  0
  5  7  1  0
  5  6  1  6
  7  9  1  0
  8  7  2  0
  9 10  1  0
 11 13  1  0
 11 10  1  0
 12 11  2  0
 14 13  1  0
 14 15  1  1
 15 16  1  0
 17 16  1  0
 17 18  1  0
 19 18  1  0
 20 14  1  0
 21 20  2  0
 22 20  1  0
M  END
$$$$
