IGK.pdb
     RDKit          3D

 22 21  0  0  1  0  0  0  0  0999 V2000
   24.9077  -18.1026  -17.4145 C   0  0  0  0  0  0  0  0  0  0  0  0
   24.1884  -19.3516  -17.0422 C   0  0  0  0  0  0  0  0  0  0  0  0
   23.3301  -19.2934  -15.8319 C   0  0  2  0  0  0  0  0  0  0  0  0
   24.2848  -19.0306  -14.6482 C   0  0  0  0  0  0  0  0  0  0  0  0
   22.5251  -20.5194  -15.5360 C   0  0  2  0  0  0  0  0  0  0  0  0
   21.6254  -20.8538  -16.6444 N   0  0  0  0  0  0  0  0  0  0  0  0
   21.7947  -20.5044  -14.2583 C   0  0  0  0  0  0  0  0  0  0  0  0
   22.4244  -20.4038  -13.1767 O   0  0  0  0  0  0  0  0  0  0  0  0
   20.3710  -20.6038  -14.2136 N   0  0  0  0  0  0  0  0  0  0  0  0
   19.7174  -20.5155  -12.9290 C   0  0  0  0  0  0  0  0  0  0  0  0
   19.2163  -21.8590  -12.5098 C   0  0  0  0  0  0  0  0  0  0  0  0
   19.0188  -22.7822  -13.3491 O   0  0  0  0  0  0  0  0  0  0  0  0
   18.9385  -22.1617  -11.1505 N   0  0  0  0  0  0  0  0  0  0  0  0
   18.3254  -23.4161  -10.7221 C   0  0  1  0  0  0  0  0  0  0  0  0
   18.5650  -23.5558   -9.2629 C   0  0  0  0  0  0  0  0  0  0  0  0
   18.0238  -24.7661   -8.6023 C   0  0  0  0  0  0  0  0  0  0  0  0
   18.2173  -24.8661   -7.1214 C   0  0  0  0  0  0  0  0  0  0  0  0
   17.5718  -26.1288   -6.5524 C   0  0  0  0  0  0  0  0  0  0  0  0
   17.7357  -26.0267   -5.1017 N   0  0  0  0  0  0  0  0  0  0  0  0
   16.9721  -23.5768  -11.2198 C   0  0  0  0  0  0  0  0  0  0  0  0
   16.1266  -22.6650  -11.3484 O   0  0  0  0  0  0  0  0  0  0  0  0
   16.5175  -24.8558  -11.6063 O   0  0  0  0  0  0  0  0  0  0  0  0
  2  1  1  0
  2  3  1  0
  3  4  1  1
  5  3  1  0
  5  7  1  0
  5  6  1  6
  7  9  1  0
  8  7  2  0
  9 10  1  0
 11 13  1  0
 11 10  1  0
 12 11  2  0
 14 13  1  0
 14 15  1  1
 15 16  1  0
 17 16  1  0
 17 18  1  0
 19 18  1  0
 20 14  1  0
 21 20  2  0
 22 20  1  0
M  END
$$$$
