IGK.pdb
     RDKit          3D

 22 21  0  0  1  0  0  0  0  0999 V2000
   18.9785  -25.0299  -16.9394 C   0  0  0  0  0  0  0  0  0  0  0  0
   19.6780  -24.2090  -15.9133 C   0  0  0  0  0  0  0  0  0  0  0  0
   18.8559  -23.7103  -14.7818 C   0  0  2  0  0  0  0  0  0  0  0  0
   17.7606  -22.8248  -15.4125 C   0  0  0  0  0  0  0  0  0  0  0  0
   19.5795  -22.9121  -13.7436 C   0  0  2  0  0  0  0  0  0  0  0  0
   20.9568  -23.3825  -13.5654 N   0  0  0  0  0  0  0  0  0  0  0  0
   18.8967  -22.7948  -12.4450 C   0  0  0  0  0  0  0  0  0  0  0  0
   17.7215  -22.3560  -12.3914 O   0  0  0  0  0  0  0  0  0  0  0  0
   19.5426  -23.1698  -11.2280 N   0  0  0  0  0  0  0  0  0  0  0  0
   18.7900  -23.0864   -9.9985 C   0  0  0  0  0  0  0  0  0  0  0  0
   18.7756  -24.4120   -9.3095 C   0  0  0  0  0  0  0  0  0  0  0  0
   19.3500  -25.4213   -9.8063 O   0  0  0  0  0  0  0  0  0  0  0  0
   18.1167  -24.6001   -8.0657 N   0  0  0  0  0  0  0  0  0  0  0  0
   18.0853  -25.8816   -7.3658 C   0  0  1  0  0  0  0  0  0  0  0  0
   17.9567  -25.5953   -5.9140 C   0  0  0  0  0  0  0  0  0  0  0  0
   18.1082  -26.7383   -4.9841 C   0  0  0  0  0  0  0  0  0  0  0  0
   18.0390  -26.4278   -3.5215 C   0  0  0  0  0  0  0  0  0  0  0  0
   18.0031  -27.7000   -2.6760 C   0  0  0  0  0  0  0  0  0  0  0  0
   18.1059  -27.2453   -1.2887 N   0  0  0  0  0  0  0  0  0  0  0  0
   17.1649  -26.8269   -7.9691 C   0  0  0  0  0  0  0  0  0  0  0  0
   16.0368  -26.5550   -8.4341 O   0  0  0  0  0  0  0  0  0  0  0  0
   17.5247  -28.1883   -8.0639 O   0  0  0  0  0  0  0  0  0  0  0  0
  2  1  1  0
  2  3  1  0
  3  4  1  6
  5  3  1  0
  5  7  1  0
  5  6  1  1
  7  9  1  0
  8  7  2  0
  9 10  1  0
 11 13  1  0
 11 10  1  0
 12 11  2  0
 14 13  1  0
 14 15  1  1
 15 16  1  0
 17 16  1  0
 17 18  1  0
 19 18  1  0
 20 14  1  0
 21 20  2  0
 22 20  1  0
M  END
$$$$
