QMR.pdb
     RDKit          3D

 29 28  0  0  1  0  0  0  0  0999 V2000
   18.4482  -21.5828   -9.6076 N   0  0  0  0  0  0  0  0  0  0  0  0
   17.6542  -22.5386  -10.2787 C   0  0  0  0  0  0  0  0  0  0  0  0
   16.9956  -22.1900  -11.2796 O   0  0  0  0  0  0  0  0  0  0  0  0
   17.5878  -23.9376   -9.8217 C   0  0  0  0  0  0  0  0  0  0  0  0
   18.4952  -24.2052   -8.6303 C   0  0  0  0  0  0  0  0  0  0  0  0
   18.4043  -25.6914   -8.3715 C   0  0  2  0  0  0  0  0  0  0  0  0
   17.8537  -26.4123   -9.4748 N   0  0  0  0  0  0  0  0  0  0  0  0
   17.5473  -25.9788   -7.1779 C   0  0  0  0  0  0  0  0  0  0  0  0
   16.2851  -25.9514   -7.2203 O   0  0  0  0  0  0  0  0  0  0  0  0
   18.5834  -27.4498    0.5803 C   0  0  0  0  0  0  0  0  0  0  0  0
   19.2643  -27.3605   -1.0988 S   0  0  0  0  0  0  0  0  0  0  0  0
   17.9183  -26.9323   -2.2668 C   0  0  0  0  0  0  0  0  0  0  0  0
   18.5254  -26.7653   -3.6325 C   0  0  0  0  0  0  0  0  0  0  0  0
   17.4903  -26.3814   -4.6699 C   0  0  2  0  0  0  0  0  0  0  0  0
   18.1662  -26.2958   -5.9417 N   0  0  0  0  0  0  0  0  0  0  0  0
   16.8199  -25.1021   -4.3127 C   0  0  0  0  0  0  0  0  0  0  0  0
   17.3696  -24.0305   -4.6456 O   0  0  0  0  0  0  0  0  0  0  0  0
   10.9673  -20.1698   -7.3548 N   0  0  0  0  0  0  0  0  0  0  0  0
   12.3189  -20.6128   -7.3108 C   0  0  0  0  0  0  0  0  0  0  0  0
   13.0921  -20.6326   -8.3638 N   0  0  0  0  0  0  0  0  0  0  0  0
   12.9268  -21.0691   -6.0967 N   0  0  0  0  0  0  0  0  0  0  0  0
   12.1925  -21.8725   -5.1370 C   0  0  0  0  0  0  0  0  0  0  0  0
   13.2177  -22.1849   -4.0129 C   0  0  0  0  0  0  0  0  0  0  0  0
   14.0113  -23.3931   -4.3619 C   0  0  0  0  0  0  0  0  0  0  0  0
   14.8570  -23.8758   -3.2446 C   0  0  2  0  0  0  0  0  0  0  0  0
   15.5951  -25.0865   -3.6165 N   0  0  0  0  0  0  0  0  0  0  0  0
   14.2146  -24.0003   -1.9229 C   0  0  0  0  0  0  0  0  0  0  0  0
   13.5852  -23.0272   -1.4501 O   0  0  0  0  0  0  0  0  0  0  0  0
   14.2664  -25.1365   -1.1619 O   0  0  0  0  0  0  0  0  0  0  0  0
  1  2  1  0
  2  3  2  0
  4  5  1  0
  4  2  1  0
  6  7  1  6
  6  5  1  0
  8  6  1  0
  9  8  2  0
 11 10  1  0
 11 12  1  0
 12 13  1  0
 14 13  1  1
 14 15  1  0
 15  8  1  0
 16 17  2  0
 16 14  1  0
 18 19  1  0
 19 21  1  0
 20 19  2  0
 21 22  1  0
 22 23  1  0
 23 24  1  0
 25 24  1  6
 25 26  1  0
 26 16  1  0
 27 25  1  0
 28 27  2  0
 29 27  1  0
M  END
$$$$
