QMR.pdb
     RDKit          3D

 29 28  0  0  1  0  0  0  0  0999 V2000
   27.0017  -26.7433  -15.9980 N   0  0  0  0  0  0  0  0  0  0  0  0
   27.9941  -27.1135  -16.9321 C   0  0  0  0  0  0  0  0  0  0  0  0
   28.2657  -28.3215  -17.0870 O   0  0  0  0  0  0  0  0  0  0  0  0
   28.7145  -26.1033  -17.7266 C   0  0  0  0  0  0  0  0  0  0  0  0
   28.0625  -24.7308  -17.6534 C   0  0  0  0  0  0  0  0  0  0  0  0
   29.1318  -23.7962  -17.1364 C   0  0  2  0  0  0  0  0  0  0  0  0
   30.2091  -24.4859  -16.5010 N   0  0  0  0  0  0  0  0  0  0  0  0
   28.5684  -22.8323  -16.1389 C   0  0  0  0  0  0  0  0  0  0  0  0
   28.5155  -23.0820  -14.9017 O   0  0  0  0  0  0  0  0  0  0  0  0
   27.0162  -15.0887  -15.7321 C   0  0  0  0  0  0  0  0  0  0  0  0
   27.6967  -16.5194  -16.6159 S   0  0  0  0  0  0  0  0  0  0  0  0
   27.2256  -18.0505  -15.7253 C   0  0  0  0  0  0  0  0  0  0  0  0
   27.8641  -19.2135  -16.4332 C   0  0  0  0  0  0  0  0  0  0  0  0
   27.5761  -20.5281  -15.7374 C   0  0  2  0  0  0  0  0  0  0  0  0
   28.0694  -21.5833  -16.5889 N   0  0  0  0  0  0  0  0  0  0  0  0
   26.1233  -20.6796  -15.4542 C   0  0  0  0  0  0  0  0  0  0  0  0
   25.3680  -21.0179  -16.3903 O   0  0  0  0  0  0  0  0  0  0  0  0
   21.9331  -22.2593   -8.1498 N   0  0  0  0  0  0  0  0  0  0  0  0
   20.8817  -21.8218   -9.0030 C   0  0  0  0  0  0  0  0  0  0  0  0
   19.6488  -22.2349   -8.8763 N   0  0  0  0  0  0  0  0  0  0  0  0
   21.1081  -20.8891  -10.0664 N   0  0  0  0  0  0  0  0  0  0  0  0
   22.4410  -20.4114  -10.3843 C   0  0  0  0  0  0  0  0  0  0  0  0
   22.5727  -20.5937  -11.9210 C   0  0  0  0  0  0  0  0  0  0  0  0
   23.9914  -20.4356  -12.3380 C   0  0  0  0  0  0  0  0  0  0  0  0
   24.1863  -20.5745  -13.8006 C   0  0  2  0  0  0  0  0  0  0  0  0
   25.6004  -20.4499  -14.1662 N   0  0  0  0  0  0  0  0  0  0  0  0
   23.3133  -19.7671  -14.6730 C   0  0  0  0  0  0  0  0  0  0  0  0
   23.6576  -18.6041  -14.9821 O   0  0  0  0  0  0  0  0  0  0  0  0
   22.1226  -20.2175  -15.1751 O   0  0  0  0  0  0  0  0  0  0  0  0
  1  2  1  0
  2  3  2  0
  4  5  1  0
  4  2  1  0
  6  7  1  1
  6  5  1  0
  8  6  1  0
  9  8  2  0
 11 10  1  0
 11 12  1  0
 12 13  1  0
 14 13  1  6
 14 15  1  0
 15  8  1  0
 16 17  2  0
 16 14  1  0
 18 19  1  0
 19 21  1  0
 20 19  2  0
 21 22  1  0
 22 23  1  0
 23 24  1  0
 25 24  1  1
 25 26  1  0
 26 16  1  0
 27 25  1  0
 28 27  2  0
 29 27  1  0
M  END
$$$$
