QMR.pdb
     RDKit          3D

 29 28  0  0  1  0  0  0  0  0999 V2000
   20.2454  -20.3232  -16.8514 N   0  0  0  0  0  0  0  0  0  0  0  0
   19.4116  -20.9705  -15.9132 C   0  0  0  0  0  0  0  0  0  0  0  0
   18.4590  -21.6656  -16.3211 O   0  0  0  0  0  0  0  0  0  0  0  0
   19.6435  -20.8418  -14.4639 C   0  0  0  0  0  0  0  0  0  0  0  0
   20.8907  -20.0321  -14.1429 C   0  0  0  0  0  0  0  0  0  0  0  0
   21.8747  -21.0133  -13.5485 C   0  0  2  0  0  0  0  0  0  0  0  0
   21.3597  -21.6842  -12.3975 N   0  0  0  0  0  0  0  0  0  0  0  0
   23.1388  -20.3254  -13.1361 C   0  0  0  0  0  0  0  0  0  0  0  0
   23.5286  -19.2423  -13.6565 O   0  0  0  0  0  0  0  0  0  0  0  0
   25.7611  -19.7462   -7.1681 C   0  0  0  0  0  0  0  0  0  0  0  0
   26.9350  -20.8328   -8.0238 S   0  0  0  0  0  0  0  0  0  0  0  0
   26.8620  -20.4913   -9.8231 C   0  0  0  0  0  0  0  0  0  0  0  0
   25.5012  -20.8982  -10.3172 C   0  0  0  0  0  0  0  0  0  0  0  0
   25.2619  -20.4570  -11.7467 C   0  0  2  0  0  0  0  0  0  0  0  0
   23.9418  -20.9038  -12.1201 N   0  0  0  0  0  0  0  0  0  0  0  0
   26.3069  -20.9967  -12.6580 C   0  0  0  0  0  0  0  0  0  0  0  0
   26.6124  -22.2044  -12.5619 O   0  0  0  0  0  0  0  0  0  0  0  0
   28.1777  -26.5290  -16.2235 N   0  0  0  0  0  0  0  0  0  0  0  0
   26.9044  -25.9055  -16.3444 C   0  0  0  0  0  0  0  0  0  0  0  0
   25.7839  -26.5773  -16.3409 N   0  0  0  0  0  0  0  0  0  0  0  0
   26.7662  -24.4859  -16.4777 N   0  0  0  0  0  0  0  0  0  0  0  0
   27.9218  -23.6247  -16.6470 C   0  0  0  0  0  0  0  0  0  0  0  0
   27.3350  -22.1922  -16.7724 C   0  0  0  0  0  0  0  0  0  0  0  0
   26.7842  -21.7458  -15.4652 C   0  0  0  0  0  0  0  0  0  0  0  0
   27.5728  -20.6555  -14.8440 C   0  0  2  0  0  0  0  0  0  0  0  0
   26.9434  -20.1759  -13.6100 N   0  0  0  0  0  0  0  0  0  0  0  0
   27.9914  -19.5468  -15.7218 C   0  0  0  0  0  0  0  0  0  0  0  0
   27.1860  -18.6221  -15.9725 O   0  0  0  0  0  0  0  0  0  0  0  0
   29.2313  -19.4641  -16.2950 O   0  0  0  0  0  0  0  0  0  0  0  0
  1  2  1  0
  2  3  2  0
  4  5  1  0
  4  2  1  0
  6  7  1  1
  6  5  1  0
  8  6  1  0
  9  8  2  0
 11 10  1  0
 11 12  1  0
 12 13  1  0
 14 13  1  1
 14 15  1  0
 15  8  1  0
 16 17  2  0
 16 14  1  0
 18 19  1  0
 19 21  1  0
 20 19  2  0
 21 22  1  0
 22 23  1  0
 23 24  1  0
 25 24  1  6
 25 26  1  0
 26 16  1  0
 27 25  1  0
 28 27  2  0
 29 27  1  0
M  END
$$$$
