QMR.pdb
     RDKit          3D

 29 28  0  0  1  0  0  0  0  0999 V2000
   28.5501  -22.4411  -19.5923 N   0  0  0  0  0  0  0  0  0  0  0  0
   29.6515  -21.7252  -19.0738 C   0  0  0  0  0  0  0  0  0  0  0  0
   30.7248  -22.3258  -18.8628 O   0  0  0  0  0  0  0  0  0  0  0  0
   29.5592  -20.2850  -18.7772 C   0  0  0  0  0  0  0  0  0  0  0  0
   29.9844  -19.9546  -17.3544 C   0  0  0  0  0  0  0  0  0  0  0  0
   28.7168  -19.5698  -16.6268 C   0  0  2  0  0  0  0  0  0  0  0  0
   28.8000  -18.2823  -16.0141 N   0  0  0  0  0  0  0  0  0  0  0  0
   28.3936  -20.5573  -15.5489 C   0  0  0  0  0  0  0  0  0  0  0  0
   28.1143  -21.7655  -15.7900 O   0  0  0  0  0  0  0  0  0  0  0  0
   32.7278  -22.5119  -10.9362 C   0  0  0  0  0  0  0  0  0  0  0  0
   31.2763  -21.4448  -10.7226 S   0  0  0  0  0  0  0  0  0  0  0  0
   30.1288  -21.7097  -12.1271 C   0  0  0  0  0  0  0  0  0  0  0  0
   28.9763  -20.7565  -11.9700 C   0  0  0  0  0  0  0  0  0  0  0  0
   27.9511  -20.9199  -13.0734 C   0  0  2  0  0  0  0  0  0  0  0  0
   28.3972  -20.1311  -14.1961 N   0  0  0  0  0  0  0  0  0  0  0  0
   26.5965  -20.5111  -12.6136 C   0  0  0  0  0  0  0  0  0  0  0  0
   26.3551  -19.2916  -12.4876 O   0  0  0  0  0  0  0  0  0  0  0  0
   18.6373  -21.0186  -11.9779 N   0  0  0  0  0  0  0  0  0  0  0  0
   18.9724  -21.0006  -13.3608 C   0  0  0  0  0  0  0  0  0  0  0  0
   18.2922  -20.3210  -14.2453 N   0  0  0  0  0  0  0  0  0  0  0  0
   20.0896  -21.7324  -13.8786 N   0  0  0  0  0  0  0  0  0  0  0  0
   20.8657  -22.6253  -13.0382 C   0  0  0  0  0  0  0  0  0  0  0  0
   21.8372  -21.6955  -12.2611 C   0  0  0  0  0  0  0  0  0  0  0  0
   23.2440  -21.9831  -12.6479 C   0  0  0  0  0  0  0  0  0  0  0  0
   24.2294  -21.1511  -11.9174 C   0  0  2  0  0  0  0  0  0  0  0  0
   25.6019  -21.4662  -12.3243 N   0  0  0  0  0  0  0  0  0  0  0  0
   24.0874  -21.0757  -10.4514 C   0  0  0  0  0  0  0  0  0  0  0  0
   24.7994  -21.8055   -9.7255 O   0  0  0  0  0  0  0  0  0  0  0  0
   23.2050  -20.2419   -9.8199 O   0  0  0  0  0  0  0  0  0  0  0  0
  1  2  1  0
  2  3  2  0
  4  5  1  0
  4  2  1  0
  6  7  1  1
  6  5  1  0
  8  6  1  0
  9  8  2  0
 11 10  1  0
 11 12  1  0
 12 13  1  0
 14 13  1  1
 14 15  1  0
 15  8  1  0
 16 17  2  0
 16 14  1  0
 18 19  1  0
 19 21  1  0
 20 19  2  0
 21 22  1  0
 22 23  1  0
 23 24  1  0
 25 24  1  1
 25 26  1  0
 26 16  1  0
 27 25  1  0
 28 27  2  0
 29 27  1  0
M  END
$$$$
