QMR.pdb
     RDKit          3D

 29 28  0  0  1  0  0  0  0  0999 V2000
   30.1277  -19.0834  -17.1353 N   0  0  0  0  0  0  0  0  0  0  0  0
   28.9970  -18.5428  -16.4846 C   0  0  0  0  0  0  0  0  0  0  0  0
   28.9726  -17.3246  -16.2151 O   0  0  0  0  0  0  0  0  0  0  0  0
   27.8465  -19.3869  -16.1178 C   0  0  0  0  0  0  0  0  0  0  0  0
   27.5427  -19.3425  -14.6278 C   0  0  0  0  0  0  0  0  0  0  0  0
   28.0068  -20.6704  -14.0752 C   0  0  2  0  0  0  0  0  0  0  0  0
   28.3432  -21.6082  -15.0986 N   0  0  0  0  0  0  0  0  0  0  0  0
   26.9479  -21.2992  -13.2238 C   0  0  0  0  0  0  0  0  0  0  0  0
   25.9691  -21.9342  -13.7082 O   0  0  0  0  0  0  0  0  0  0  0  0
   27.7828  -18.9394   -6.4024 C   0  0  0  0  0  0  0  0  0  0  0  0
   27.2409  -20.5108   -7.1292 S   0  0  0  0  0  0  0  0  0  0  0  0
   27.0092  -20.2855   -8.9334 C   0  0  0  0  0  0  0  0  0  0  0  0
   26.5717  -21.6026   -9.5125 C   0  0  0  0  0  0  0  0  0  0  0  0
   25.9580  -21.4412  -10.8882 C   0  0  2  0  0  0  0  0  0  0  0  0
   27.0352  -21.1839  -11.8129 N   0  0  0  0  0  0  0  0  0  0  0  0
   24.9459  -20.3507  -10.9008 C   0  0  0  0  0  0  0  0  0  0  0  0
   25.3198  -19.1971  -11.2019 O   0  0  0  0  0  0  0  0  0  0  0  0
   20.1267  -22.6431  -15.7324 N   0  0  0  0  0  0  0  0  0  0  0  0
   19.8220  -21.3153  -16.1436 C   0  0  0  0  0  0  0  0  0  0  0  0
   18.7160  -21.0028  -16.7649 N   0  0  0  0  0  0  0  0  0  0  0  0
   20.7161  -20.2231  -15.8994 N   0  0  0  0  0  0  0  0  0  0  0  0
   21.9529  -20.4065  -15.1629 C   0  0  0  0  0  0  0  0  0  0  0  0
   21.5065  -20.7531  -13.7162 C   0  0  0  0  0  0  0  0  0  0  0  0
   22.6925  -20.8766  -12.8277 C   0  0  0  0  0  0  0  0  0  0  0  0
   22.4614  -20.3284  -11.4702 C   0  0  2  0  0  0  0  0  0  0  0  0
   23.5962  -20.6004  -10.5830 N   0  0  0  0  0  0  0  0  0  0  0  0
   21.1692  -20.6411  -10.8319 C   0  0  0  0  0  0  0  0  0  0  0  0
   21.0377  -21.7144  -10.2014 O   0  0  0  0  0  0  0  0  0  0  0  0
   20.0794  -19.8155  -10.8886 O   0  0  0  0  0  0  0  0  0  0  0  0
  1  2  1  0
  2  3  2  0
  4  5  1  0
  4  2  1  0
  6  7  1  6
  6  5  1  0
  8  6  1  0
  9  8  2  0
 11 10  1  0
 11 12  1  0
 12 13  1  0
 14 13  1  1
 14 15  1  0
 15  8  1  0
 16 17  2  0
 16 14  1  0
 18 19  1  0
 19 21  1  0
 20 19  2  0
 21 22  1  0
 22 23  1  0
 23 24  1  0
 25 24  1  6
 25 26  1  0
 26 16  1  0
 27 25  1  0
 28 27  2  0
 29 27  1  0
M  END
$$$$
