QMR.pdb
     RDKit          3D

 29 28  0  0  1  0  0  0  0  0999 V2000
   27.9818  -22.1723  -18.1976 N   0  0  0  0  0  0  0  0  0  0  0  0
   28.9020  -21.1013  -18.1769 C   0  0  0  0  0  0  0  0  0  0  0  0
   29.3086  -20.6253  -19.2564 O   0  0  0  0  0  0  0  0  0  0  0  0
   29.3913  -20.5348  -16.9079 C   0  0  0  0  0  0  0  0  0  0  0  0
   28.8033  -21.2351  -15.6921 C   0  0  0  0  0  0  0  0  0  0  0  0
   27.6802  -20.3459  -15.2103 C   0  0  2  0  0  0  0  0  0  0  0  0
   28.1505  -19.1580  -14.5716 N   0  0  0  0  0  0  0  0  0  0  0  0
   26.8072  -21.0648  -14.2292 C   0  0  0  0  0  0  0  0  0  0  0  0
   26.2239  -22.1517  -14.5017 O   0  0  0  0  0  0  0  0  0  0  0  0
   27.4761  -21.1188   -7.4907 C   0  0  0  0  0  0  0  0  0  0  0  0
   25.9354  -20.2579   -7.9106 S   0  0  0  0  0  0  0  0  0  0  0  0
   25.2744  -20.9463   -9.4753 C   0  0  0  0  0  0  0  0  0  0  0  0
   26.1552  -20.4730  -10.5986 C   0  0  0  0  0  0  0  0  0  0  0  0
   25.7090  -21.0214  -11.9385 C   0  0  2  0  0  0  0  0  0  0  0  0
   26.6183  -20.5127  -12.9365 N   0  0  0  0  0  0  0  0  0  0  0  0
   24.2997  -20.6450  -12.2312 C   0  0  0  0  0  0  0  0  0  0  0  0
   23.9789  -19.4398  -12.1551 O   0  0  0  0  0  0  0  0  0  0  0  0
   23.8497  -24.8592  -16.3359 N   0  0  0  0  0  0  0  0  0  0  0  0
   23.0566  -25.4254  -15.2989 C   0  0  0  0  0  0  0  0  0  0  0  0
   23.4695  -26.4145  -14.5518 N   0  0  0  0  0  0  0  0  0  0  0  0
   21.7412  -24.9422  -15.0023 N   0  0  0  0  0  0  0  0  0  0  0  0
   21.1511  -23.8453  -15.7468 C   0  0  0  0  0  0  0  0  0  0  0  0
   21.7433  -22.5628  -15.1015 C   0  0  0  0  0  0  0  0  0  0  0  0
   21.3372  -22.4709  -13.6738 C   0  0  0  0  0  0  0  0  0  0  0  0
   21.9555  -21.3247  -12.9662 C   0  0  2  0  0  0  0  0  0  0  0  0
   23.3413  -21.6148  -12.5864 N   0  0  0  0  0  0  0  0  0  0  0  0
   21.1881  -20.7286  -11.8568 C   0  0  0  0  0  0  0  0  0  0  0  0
   20.5236  -19.6871  -12.0575 O   0  0  0  0  0  0  0  0  0  0  0  0
   21.1577  -21.2518  -10.5927 O   0  0  0  0  0  0  0  0  0  0  0  0
  1  2  1  0
  2  3  2  0
  4  5  1  0
  4  2  1  0
  6  7  1  1
  6  5  1  0
  8  6  1  0
  9  8  2  0
 11 10  1  0
 11 12  1  0
 12 13  1  0
 14 13  1  1
 14 15  1  0
 15  8  1  0
 16 17  2  0
 16 14  1  0
 18 19  1  0
 19 21  1  0
 20 19  2  0
 21 22  1  0
 22 23  1  0
 23 24  1  0
 25 24  1  1
 25 26  1  0
 26 16  1  0
 27 25  1  0
 28 27  2  0
 29 27  1  0
M  END
$$$$
