QMR.pdb
     RDKit          3D

 29 28  0  0  1  0  0  0  0  0999 V2000
   21.1953  -22.4885  -13.8523 N   0  0  0  0  0  0  0  0  0  0  0  0
   20.2608  -22.3860  -12.7984 C   0  0  0  0  0  0  0  0  0  0  0  0
   19.0749  -22.7177  -13.0003 O   0  0  0  0  0  0  0  0  0  0  0  0
   20.6572  -21.8960  -11.4667 C   0  0  0  0  0  0  0  0  0  0  0  0
   22.1260  -21.5050  -11.4031 C   0  0  0  0  0  0  0  0  0  0  0  0
   22.3660  -21.0427   -9.9843 C   0  0  2  0  0  0  0  0  0  0  0  0
   21.2844  -20.2680   -9.4647 N   0  0  0  0  0  0  0  0  0  0  0  0
   23.6015  -20.2020   -9.8935 C   0  0  0  0  0  0  0  0  0  0  0  0
   23.6125  -18.9706  -10.1750 O   0  0  0  0  0  0  0  0  0  0  0  0
   28.8943  -19.5373   -6.0225 C   0  0  0  0  0  0  0  0  0  0  0  0
   27.1140  -19.7293   -5.7311 S   0  0  0  0  0  0  0  0  0  0  0  0
   26.2189  -19.4627   -7.3082 C   0  0  0  0  0  0  0  0  0  0  0  0
   26.8678  -20.3195   -8.3600 C   0  0  0  0  0  0  0  0  0  0  0  0
   26.1331  -20.2470   -9.6829 C   0  0  2  0  0  0  0  0  0  0  0  0
   24.8172  -20.8013   -9.4757 N   0  0  0  0  0  0  0  0  0  0  0  0
   26.8757  -20.9693  -10.7507 C   0  0  0  0  0  0  0  0  0  0  0  0
   26.9812  -22.2114  -10.6644 O   0  0  0  0  0  0  0  0  0  0  0  0
   24.8273  -25.8998  -15.1203 N   0  0  0  0  0  0  0  0  0  0  0  0
   23.9053  -24.8186  -15.0437 C   0  0  0  0  0  0  0  0  0  0  0  0
   22.6121  -24.9940  -14.9825 N   0  0  0  0  0  0  0  0  0  0  0  0
   24.3390  -23.4535  -15.0271 N   0  0  0  0  0  0  0  0  0  0  0  0
   25.7450  -23.1042  -15.1100 C   0  0  0  0  0  0  0  0  0  0  0  0
   25.7794  -21.5579  -14.9690 C   0  0  0  0  0  0  0  0  0  0  0  0
   25.9597  -21.1753  -13.5433 C   0  0  0  0  0  0  0  0  0  0  0  0
   27.3227  -20.6766  -13.2431 C   0  0  2  0  0  0  0  0  0  0  0  0
   27.4502  -20.2808  -11.8375 N   0  0  0  0  0  0  0  0  0  0  0  0
   27.8834  -19.6654  -14.1585 C   0  0  0  0  0  0  0  0  0  0  0  0
   27.6868  -18.4507  -13.9291 O   0  0  0  0  0  0  0  0  0  0  0  0
   28.6190  -19.9774  -15.2695 O   0  0  0  0  0  0  0  0  0  0  0  0
  1  2  1  0
  2  3  2  0
  4  5  1  0
  4  2  1  0
  6  7  1  6
  6  5  1  0
  8  6  1  0
  9  8  2  0
 11 10  1  0
 11 12  1  0
 12 13  1  0
 14 13  1  1
 14 15  1  0
 15  8  1  0
 16 17  2  0
 16 14  1  0
 18 19  1  0
 19 21  1  0
 20 19  2  0
 21 22  1  0
 22 23  1  0
 23 24  1  0
 25 24  1  6
 25 26  1  0
 26 16  1  0
 27 25  1  0
 28 27  2  0
 29 27  1  0
M  END
$$$$
