QMR.pdb
     RDKit          3D

 29 28  0  0  1  0  0  0  0  0999 V2000
   30.4983  -18.6602  -16.8954 N   0  0  0  0  0  0  0  0  0  0  0  0
   29.4655  -17.7455  -17.1972 C   0  0  0  0  0  0  0  0  0  0  0  0
   29.4948  -17.1281  -18.2812 O   0  0  0  0  0  0  0  0  0  0  0  0
   28.3551  -17.5056  -16.2590 C   0  0  0  0  0  0  0  0  0  0  0  0
   27.2791  -18.5776  -16.3432 C   0  0  0  0  0  0  0  0  0  0  0  0
   26.1817  -18.1315  -15.4046 C   0  0  2  0  0  0  0  0  0  0  0  0
   26.5544  -17.0005  -14.6159 N   0  0  0  0  0  0  0  0  0  0  0  0
   25.8017  -19.2291  -14.4599 C   0  0  0  0  0  0  0  0  0  0  0  0
   25.5134  -20.3960  -14.8485 O   0  0  0  0  0  0  0  0  0  0  0  0
   26.6427  -21.2115   -6.8991 C   0  0  0  0  0  0  0  0  0  0  0  0
   26.9332  -20.0378   -8.2515 S   0  0  0  0  0  0  0  0  0  0  0  0
   25.7715  -20.4055   -9.6208 C   0  0  0  0  0  0  0  0  0  0  0  0
   26.1145  -19.5037  -10.7743 C   0  0  0  0  0  0  0  0  0  0  0  0
   25.4013  -19.9142  -12.0463 C   0  0  2  0  0  0  0  0  0  0  0  0
   25.7594  -18.9604  -13.0679 N   0  0  0  0  0  0  0  0  0  0  0  0
   23.9291  -19.9779  -11.8407 C   0  0  0  0  0  0  0  0  0  0  0  0
   23.2970  -18.9050  -11.7376 O   0  0  0  0  0  0  0  0  0  0  0  0
   18.6614  -25.0922  -15.8661 N   0  0  0  0  0  0  0  0  0  0  0  0
   18.3134  -24.3617  -14.6955 C   0  0  0  0  0  0  0  0  0  0  0  0
   17.1825  -24.5332  -14.0641 N   0  0  0  0  0  0  0  0  0  0  0  0
   19.1895  -23.3818  -14.1262 N   0  0  0  0  0  0  0  0  0  0  0  0
   20.4740  -23.0735  -14.7270 C   0  0  0  0  0  0  0  0  0  0  0  0
   21.0600  -21.9339  -13.8496 C   0  0  0  0  0  0  0  0  0  0  0  0
   21.2447  -22.4047  -12.4511 C   0  0  0  0  0  0  0  0  0  0  0  0
   21.8099  -21.3658  -11.5578 C   0  0  2  0  0  0  0  0  0  0  0  0
   23.2532  -21.2116  -11.7625 N   0  0  0  0  0  0  0  0  0  0  0  0
   21.4565  -21.4462  -10.1283 C   0  0  0  0  0  0  0  0  0  0  0  0
   22.3182  -21.8204   -9.3011 O   0  0  0  0  0  0  0  0  0  0  0  0
   20.2179  -21.1335   -9.6376 O   0  0  0  0  0  0  0  0  0  0  0  0
  1  2  1  0
  2  3  2  0
  4  5  1  0
  4  2  1  0
  6  7  1  1
  6  5  1  0
  8  6  1  0
  9  8  2  0
 11 10  1  0
 11 12  1  0
 12 13  1  0
 14 13  1  1
 14 15  1  0
 15  8  1  0
 16 17  2  0
 16 14  1  0
 18 19  1  0
 19 21  1  0
 20 19  2  0
 21 22  1  0
 22 23  1  0
 23 24  1  0
 25 24  1  6
 25 26  1  0
 26 16  1  0
 27 25  1  0
 28 27  2  0
 29 27  1  0
M  END
$$$$
