QMR.pdb
     RDKit          3D

 29 28  0  0  1  0  0  0  0  0999 V2000
   28.2510  -23.5654  -17.4823 N   0  0  0  0  0  0  0  0  0  0  0  0
   29.0411  -22.4056  -17.6400 C   0  0  0  0  0  0  0  0  0  0  0  0
   29.4320  -22.0842  -18.7807 O   0  0  0  0  0  0  0  0  0  0  0  0
   29.4130  -21.5681  -16.4864 C   0  0  0  0  0  0  0  0  0  0  0  0
   28.7866  -22.0536  -15.1878 C   0  0  0  0  0  0  0  0  0  0  0  0
   27.6396  -21.1101  -14.9082 C   0  0  2  0  0  0  0  0  0  0  0  0
   28.0772  -19.8032  -14.5334 N   0  0  0  0  0  0  0  0  0  0  0  0
   26.7753  -21.6265  -13.8001 C   0  0  0  0  0  0  0  0  0  0  0  0
   26.0859  -22.6798  -13.9053 O   0  0  0  0  0  0  0  0  0  0  0  0
   27.6797  -20.6767   -7.3587 C   0  0  0  0  0  0  0  0  0  0  0  0
   26.1159  -19.8062   -7.6554 S   0  0  0  0  0  0  0  0  0  0  0  0
   25.3096  -20.5168   -9.1400 C   0  0  0  0  0  0  0  0  0  0  0  0
   26.2989  -20.4708  -10.2716 C   0  0  0  0  0  0  0  0  0  0  0  0
   25.7661  -21.1468  -11.5183 C   0  0  2  0  0  0  0  0  0  0  0  0
   26.7188  -20.9122  -12.5761 N   0  0  0  0  0  0  0  0  0  0  0  0
   24.4131  -20.6376  -11.8695 C   0  0  0  0  0  0  0  0  0  0  0  0
   24.2457  -19.4018  -11.9483 O   0  0  0  0  0  0  0  0  0  0  0  0
   20.3745  -23.6413  -17.8149 N   0  0  0  0  0  0  0  0  0  0  0  0
   20.2712  -24.3156  -16.5661 C   0  0  0  0  0  0  0  0  0  0  0  0
   20.1991  -25.6164  -16.4677 N   0  0  0  0  0  0  0  0  0  0  0  0
   20.2407  -23.6054  -15.3225 N   0  0  0  0  0  0  0  0  0  0  0  0
   19.6702  -22.2748  -15.2236 C   0  0  0  0  0  0  0  0  0  0  0  0
   19.9669  -21.8222  -13.7679 C   0  0  0  0  0  0  0  0  0  0  0  0
   21.3742  -22.1400  -13.4072 C   0  0  0  0  0  0  0  0  0  0  0  0
   22.0015  -21.1078  -12.5483 C   0  0  2  0  0  0  0  0  0  0  0  0
   23.3390  -21.5172  -12.1098 N   0  0  0  0  0  0  0  0  0  0  0  0
   21.1903  -20.5769  -11.4369 C   0  0  0  0  0  0  0  0  0  0  0  0
   21.3143  -21.0707  -10.2935 O   0  0  0  0  0  0  0  0  0  0  0  0
   20.2882  -19.5579  -11.5799 O   0  0  0  0  0  0  0  0  0  0  0  0
  1  2  1  0
  2  3  2  0
  4  5  1  0
  4  2  1  0
  6  7  1  1
  6  5  1  0
  8  6  1  0
  9  8  2  0
 11 10  1  0
 11 12  1  0
 12 13  1  0
 14 13  1  1
 14 15  1  0
 15  8  1  0
 16 17  2  0
 16 14  1  0
 18 19  1  0
 19 21  1  0
 20 19  2  0
 21 22  1  0
 22 23  1  0
 23 24  1  0
 25 24  1  1
 25 26  1  0
 26 16  1  0
 27 25  1  0
 28 27  2  0
 29 27  1  0
M  END
$$$$
