HKR.pdb
     RDKit          3D

 31 31  0  0  1  0  0  0  0  0999 V2000
    4.1519  -19.4681   21.6778 N   0  0  0  0  0  0  0  0  0  0  0  0
    5.3336  -19.8334   22.3885 C   0  0  1  0  0  0  0  0  0  0  0  0
    5.8086  -21.1729   21.9461 C   0  0  0  0  0  0  0  0  0  0  0  0
    4.7163  -22.1032   21.5695 C   0  0  0  0  0  0  0  0  0  0  0  0
    3.3438  -21.8544   21.5403 C   0  0  0  0  0  0  0  0  0  0  0  0
    2.6966  -22.9662   21.1431 N   0  0  0  0  0  0  0  0  0  0  0  0
    3.6153  -23.9064   20.9215 C   0  0  0  0  0  0  0  0  0  0  0  0
    4.8501  -23.3831   21.1808 N   0  0  0  0  0  0  0  0  0  0  0  0
    6.3734  -18.7704   22.2837 C   0  0  0  0  0  0  0  0  0  0  0  0
    7.5573  -19.1374   22.4346 O   0  0  0  0  0  0  0  0  0  0  0  0
    6.0852  -17.4312   22.0325 N   0  0  0  0  0  0  0  0  0  0  0  0
    6.9365  -16.3079   21.9996 C   0  0  1  0  0  0  0  0  0  0  0  0
    6.3767  -14.9921   21.5586 C   0  0  0  0  0  0  0  0  0  0  0  0
    7.3165  -13.9201   21.1991 C   0  0  0  0  0  0  0  0  0  0  0  0
    7.5940  -13.8382   19.7039 C   0  0  0  0  0  0  0  0  0  0  0  0
    8.6406  -12.7447   19.4543 C   0  0  0  0  0  0  0  0  0  0  0  0
    8.8717  -12.5307   18.0552 N   0  0  0  0  0  0  0  0  0  0  0  0
    7.7948  -16.1037   23.1758 C   0  0  0  0  0  0  0  0  0  0  0  0
    7.2642  -16.0287   24.3035 O   0  0  0  0  0  0  0  0  0  0  0  0
   12.5613  -21.1968   27.6153 N   0  0  0  0  0  0  0  0  0  0  0  0
   11.7114  -20.2720   28.2937 C   0  0  0  0  0  0  0  0  0  0  0  0
   11.2242  -20.5742   29.4398 N   0  0  0  0  0  0  0  0  0  0  0  0
   11.3890  -19.0109   27.7185 N   0  0  0  0  0  0  0  0  0  0  0  0
   11.7455  -18.6382   26.3764 C   0  0  0  0  0  0  0  0  0  0  0  0
   11.3102  -17.2831   25.9364 C   0  0  0  0  0  0  0  0  0  0  0  0
   10.4362  -17.3282   24.7368 C   0  0  0  0  0  0  0  0  0  0  0  0
   10.0674  -15.9135   24.2593 C   0  0  2  0  0  0  0  0  0  0  0  0
    9.2114  -15.9840   23.1081 N   0  0  0  0  0  0  0  0  0  0  0  0
   11.3100  -15.1505   23.9971 C   0  0  0  0  0  0  0  0  0  0  0  0
   12.0067  -14.6202   25.0665 O   0  0  0  0  0  0  0  0  0  0  0  0
   11.7566  -14.9656   22.8417 O   0  0  0  0  0  0  0  0  0  0  0  0
  2  1  1  6
  2  3  1  0
  3  4  1  0
  4  8  1  0
  4  5  2  0
  5  6  1  0
  7  6  1  0
  8  7  2  0
  9  2  1  0
  9 11  1  0
 10  9  2  0
 11 12  1  0
 13 14  1  0
 12 13  1  1
 14 15  1  0
 15 16  1  0
 17 16  1  0
 18 12  1  0
 19 18  2  0
 20 21  1  0
 21 22  2  0
 23 21  1  0
 23 24  1  0
 24 25  1  0
 26 25  1  0
 27 26  1  6
 27 28  1  0
 27 29  1  0
 28 18  1  0
 29 30  1  0
 31 29  2  0
M  END
$$$$
