HKR.pdb
     RDKit          3D

 31 31  0  0  1  0  0  0  0  0999 V2000
    9.2025  -16.4451   18.5842 N   0  0  0  0  0  0  0  0  0  0  0  0
    8.5387  -15.5340   19.4583 C   0  0  1  0  0  0  0  0  0  0  0  0
    7.4405  -14.8342   18.7373 C   0  0  0  0  0  0  0  0  0  0  0  0
    7.8461  -14.2714   17.4261 C   0  0  0  0  0  0  0  0  0  0  0  0
    8.2039  -12.9568   17.1258 C   0  0  0  0  0  0  0  0  0  0  0  0
    8.5028  -12.8631   15.8164 N   0  0  0  0  0  0  0  0  0  0  0  0
    8.3450  -14.0743   15.2824 C   0  0  0  0  0  0  0  0  0  0  0  0
    7.9440  -14.9371   16.2625 N   0  0  0  0  0  0  0  0  0  0  0  0
    8.0898  -16.2167   20.7052 C   0  0  0  0  0  0  0  0  0  0  0  0
    7.5914  -15.4867   21.5872 O   0  0  0  0  0  0  0  0  0  0  0  0
    8.2005  -17.5887   20.9163 N   0  0  0  0  0  0  0  0  0  0  0  0
    8.0144  -18.3467   22.0903 C   0  0  1  0  0  0  0  0  0  0  0  0
    7.8737  -19.8319   21.9746 C   0  0  0  0  0  0  0  0  0  0  0  0
    7.7322  -20.6170   23.2097 C   0  0  0  0  0  0  0  0  0  0  0  0
    7.5394  -22.1066   22.9580 C   0  0  0  0  0  0  0  0  0  0  0  0
    7.3747  -22.8187   24.3069 C   0  0  0  0  0  0  0  0  0  0  0  0
    7.3386  -24.2449   24.1612 N   0  0  0  0  0  0  0  0  0  0  0  0
    8.8973  -18.0267   23.2218 C   0  0  0  0  0  0  0  0  0  0  0  0
   10.1049  -18.3353   23.1500 O   0  0  0  0  0  0  0  0  0  0  0  0
    9.6780  -15.7661   30.5500 N   0  0  0  0  0  0  0  0  0  0  0  0
   10.2162  -14.4632   30.3249 C   0  0  0  0  0  0  0  0  0  0  0  0
   11.0567  -13.9670   31.1552 N   0  0  0  0  0  0  0  0  0  0  0  0
    9.8345  -13.6958   29.1889 N   0  0  0  0  0  0  0  0  0  0  0  0
    9.0177  -14.2105   28.1235 C   0  0  0  0  0  0  0  0  0  0  0  0
    9.5584  -15.3940   27.3980 C   0  0  0  0  0  0  0  0  0  0  0  0
    8.6987  -15.8042   26.2589 C   0  0  0  0  0  0  0  0  0  0  0  0
    9.3290  -16.9655   25.4717 C   0  0  2  0  0  0  0  0  0  0  0  0
    8.4551  -17.3791   24.4095 N   0  0  0  0  0  0  0  0  0  0  0  0
    9.6479  -18.0693   26.4071 C   0  0  0  0  0  0  0  0  0  0  0  0
    8.7097  -19.0631   26.6126 O   0  0  0  0  0  0  0  0  0  0  0  0
   10.7370  -18.1389   27.0216 O   0  0  0  0  0  0  0  0  0  0  0  0
  2  1  1  6
  2  3  1  0
  3  4  1  0
  4  8  1  0
  4  5  2  0
  5  6  1  0
  7  6  1  0
  8  7  2  0
  9  2  1  0
  9 11  1  0
 10  9  2  0
 11 12  1  0
 13 14  1  0
 12 13  1  6
 14 15  1  0
 15 16  1  0
 17 16  1  0
 18 12  1  0
 19 18  2  0
 20 21  1  0
 21 22  2  0
 23 21  1  0
 23 24  1  0
 24 25  1  0
 26 25  1  0
 27 26  1  1
 27 28  1  0
 27 29  1  0
 28 18  1  0
 29 30  1  0
 31 29  2  0
M  END
$$$$
