HKR.pdb
     RDKit          3D

 31 31  0  0  1  0  0  0  0  0999 V2000
    5.9799  -14.4656   22.0713 N   0  0  0  0  0  0  0  0  0  0  0  0
    7.0887  -15.3551   21.9527 C   0  0  1  0  0  0  0  0  0  0  0  0
    8.3452  -14.5876   21.7346 C   0  0  0  0  0  0  0  0  0  0  0  0
    8.3886  -13.8615   20.4417 C   0  0  0  0  0  0  0  0  0  0  0  0
    8.0982  -12.5190   20.1969 C   0  0  0  0  0  0  0  0  0  0  0  0
    8.2588  -12.2592   18.8856 N   0  0  0  0  0  0  0  0  0  0  0  0
    8.6402  -13.3927   18.2969 C   0  0  0  0  0  0  0  0  0  0  0  0
    8.7207  -14.3737   19.2441 N   0  0  0  0  0  0  0  0  0  0  0  0
    7.1562  -16.2868   23.1145 C   0  0  0  0  0  0  0  0  0  0  0  0
    6.9107  -15.7931   24.2348 O   0  0  0  0  0  0  0  0  0  0  0  0
    7.4711  -17.6387   23.0022 N   0  0  0  0  0  0  0  0  0  0  0  0
    7.5275  -18.6448   23.9881 C   0  0  1  0  0  0  0  0  0  0  0  0
    6.7462  -19.9037   23.7786 C   0  0  0  0  0  0  0  0  0  0  0  0
    6.7246  -20.8989   24.8608 C   0  0  0  0  0  0  0  0  0  0  0  0
    5.8268  -22.0927   24.5637 C   0  0  0  0  0  0  0  0  0  0  0  0
    5.7536  -22.9795   25.8134 C   0  0  0  0  0  0  0  0  0  0  0  0
    4.8086  -24.0472   25.6607 N   0  0  0  0  0  0  0  0  0  0  0  0
    8.8628  -18.9793   24.5050 C   0  0  0  0  0  0  0  0  0  0  0  0
    9.7725  -19.2504   23.6940 O   0  0  0  0  0  0  0  0  0  0  0  0
   12.2363  -21.2253   32.9301 N   0  0  0  0  0  0  0  0  0  0  0  0
   13.1352  -20.7516   31.9274 C   0  0  0  0  0  0  0  0  0  0  0  0
   14.2483  -20.2161   32.2687 N   0  0  0  0  0  0  0  0  0  0  0  0
   12.8181  -20.8606   30.5444 N   0  0  0  0  0  0  0  0  0  0  0  0
   11.6787  -20.2245   29.9406 C   0  0  0  0  0  0  0  0  0  0  0  0
   11.5575  -20.3662   28.4625 C   0  0  0  0  0  0  0  0  0  0  0  0
   10.3337  -19.7173   27.9276 C   0  0  0  0  0  0  0  0  0  0  0  0
   10.4391  -19.4880   26.4105 C   0  0  2  0  0  0  0  0  0  0  0  0
    9.1870  -19.0142   25.8903 N   0  0  0  0  0  0  0  0  0  0  0  0
   10.8863  -20.7419   25.7600 C   0  0  0  0  0  0  0  0  0  0  0  0
   12.2156  -20.8736   25.4056 O   0  0  0  0  0  0  0  0  0  0  0  0
   10.1059  -21.6909   25.5174 O   0  0  0  0  0  0  0  0  0  0  0  0
  2  1  1  1
  2  3  1  0
  3  4  1  0
  4  8  1  0
  4  5  2  0
  5  6  1  0
  7  6  1  0
  8  7  2  0
  9  2  1  0
  9 11  1  0
 10  9  2  0
 11 12  1  0
 13 14  1  0
 12 13  1  6
 14 15  1  0
 15 16  1  0
 17 16  1  0
 18 12  1  0
 19 18  2  0
 20 21  1  0
 21 22  2  0
 23 21  1  0
 23 24  1  0
 24 25  1  0
 26 25  1  0
 27 26  1  1
 27 28  1  0
 27 29  1  0
 28 18  1  0
 29 30  1  0
 31 29  2  0
M  END
$$$$
