HKR.pdb
     RDKit          3D

 31 31  0  0  1  0  0  0  0  0999 V2000
   10.6447  -14.1776   19.7304 N   0  0  0  0  0  0  0  0  0  0  0  0
    9.3090  -14.3661   20.1942 C   0  0  1  0  0  0  0  0  0  0  0  0
    8.6720  -15.5081   19.4831 C   0  0  0  0  0  0  0  0  0  0  0  0
    8.3509  -15.2269   18.0624 C   0  0  0  0  0  0  0  0  0  0  0  0
    8.6630  -14.0897   17.3169 C   0  0  0  0  0  0  0  0  0  0  0  0
    8.1889  -14.2324   16.0648 N   0  0  0  0  0  0  0  0  0  0  0  0
    7.5888  -15.4208   15.9972 C   0  0  0  0  0  0  0  0  0  0  0  0
    7.6857  -16.0313   17.2153 N   0  0  0  0  0  0  0  0  0  0  0  0
    9.2693  -14.4948   21.6789 C   0  0  0  0  0  0  0  0  0  0  0  0
   10.1218  -15.2492   22.1920 O   0  0  0  0  0  0  0  0  0  0  0  0
    8.3509  -13.8291   22.4868 N   0  0  0  0  0  0  0  0  0  0  0  0
    8.1618  -13.8807   23.8829 C   0  0  1  0  0  0  0  0  0  0  0  0
    7.0129  -13.1328   24.4828 C   0  0  0  0  0  0  0  0  0  0  0  0
    6.8892  -13.1030   25.9476 C   0  0  0  0  0  0  0  0  0  0  0  0
    5.6889  -12.3023   26.4347 C   0  0  0  0  0  0  0  0  0  0  0  0
    5.7454  -12.2081   27.9650 C   0  0  0  0  0  0  0  0  0  0  0  0
    6.2365  -10.9356   28.4077 N   0  0  0  0  0  0  0  0  0  0  0  0
    8.2591  -15.2085   24.5070 C   0  0  0  0  0  0  0  0  0  0  0  0
    7.2696  -15.9687   24.4640 O   0  0  0  0  0  0  0  0  0  0  0  0
    9.7027  -18.2780   21.6177 N   0  0  0  0  0  0  0  0  0  0  0  0
   10.8451  -19.0308   21.2103 C   0  0  0  0  0  0  0  0  0  0  0  0
   10.9692  -19.3921   19.9871 N   0  0  0  0  0  0  0  0  0  0  0  0
   11.8575  -19.3937   22.1422 N   0  0  0  0  0  0  0  0  0  0  0  0
   11.8880  -18.9248   23.5011 C   0  0  0  0  0  0  0  0  0  0  0  0
   10.6315  -18.3047   24.0073 C   0  0  0  0  0  0  0  0  0  0  0  0
   10.7988  -17.6975   25.3520 C   0  0  0  0  0  0  0  0  0  0  0  0
    9.5194  -16.9720   25.8017 C   0  0  2  0  0  0  0  0  0  0  0  0
    9.4260  -15.6873   25.1662 N   0  0  0  0  0  0  0  0  0  0  0  0
    9.5100  -16.8762   27.2802 C   0  0  0  0  0  0  0  0  0  0  0  0
    9.4383  -18.0384   28.0247 O   0  0  0  0  0  0  0  0  0  0  0  0
    9.5645  -15.7810   27.8852 O   0  0  0  0  0  0  0  0  0  0  0  0
  2  1  1  6
  2  3  1  0
  3  4  1  0
  4  8  1  0
  4  5  2  0
  5  6  1  0
  7  6  1  0
  8  7  2  0
  9  2  1  0
  9 11  1  0
 10  9  2  0
 11 12  1  0
 13 14  1  0
 12 13  1  6
 14 15  1  0
 15 16  1  0
 17 16  1  0
 18 12  1  0
 19 18  2  0
 20 21  1  0
 21 22  2  0
 23 21  1  0
 23 24  1  0
 24 25  1  0
 26 25  1  0
 27 26  1  1
 27 28  1  0
 27 29  1  0
 28 18  1  0
 29 30  1  0
 31 29  2  0
M  END
$$$$
