HKR.pdb
     RDKit          3D

 31 31  0  0  1  0  0  0  0  0999 V2000
   14.3036  -18.8699   16.2233 N   0  0  0  0  0  0  0  0  0  0  0  0
   13.9043  -19.5605   17.4059 C   0  0  1  0  0  0  0  0  0  0  0  0
   14.6882  -20.8165   17.5597 C   0  0  0  0  0  0  0  0  0  0  0  0
   14.3126  -21.8805   16.5968 C   0  0  0  0  0  0  0  0  0  0  0  0
   13.1117  -22.0301   15.9027 C   0  0  0  0  0  0  0  0  0  0  0  0
   13.1767  -23.1305   15.1295 N   0  0  0  0  0  0  0  0  0  0  0  0
   14.3778  -23.6785   15.3137 C   0  0  0  0  0  0  0  0  0  0  0  0
   15.0745  -22.9178   16.2092 N   0  0  0  0  0  0  0  0  0  0  0  0
   13.9731  -18.6680   18.5979 C   0  0  0  0  0  0  0  0  0  0  0  0
   15.0502  -18.0613   18.7737 O   0  0  0  0  0  0  0  0  0  0  0  0
   12.9194  -18.4908   19.4910 N   0  0  0  0  0  0  0  0  0  0  0  0
   12.9111  -17.9496   20.7928 C   0  0  1  0  0  0  0  0  0  0  0  0
   11.6537  -18.0326   21.5999 C   0  0  0  0  0  0  0  0  0  0  0  0
   11.6555  -17.4598   22.9540 C   0  0  0  0  0  0  0  0  0  0  0  0
   10.3782  -16.7012   23.2891 C   0  0  0  0  0  0  0  0  0  0  0  0
   10.5241  -16.0788   24.6837 C   0  0  0  0  0  0  0  0  0  0  0  0
    9.3731  -15.3062   25.0509 N   0  0  0  0  0  0  0  0  0  0  0  0
   14.0616  -18.2815   21.6460 C   0  0  0  0  0  0  0  0  0  0  0  0
   14.4025  -19.4772   21.7599 O   0  0  0  0  0  0  0  0  0  0  0  0
   21.1896  -17.0140   19.2264 N   0  0  0  0  0  0  0  0  0  0  0  0
   20.8901  -15.8305   19.9662 C   0  0  0  0  0  0  0  0  0  0  0  0
   21.6764  -14.8207   19.9019 N   0  0  0  0  0  0  0  0  0  0  0  0
   19.7274  -15.7478   20.7826 N   0  0  0  0  0  0  0  0  0  0  0  0
   18.8274  -16.8492   20.9929 C   0  0  0  0  0  0  0  0  0  0  0  0
   18.0933  -16.8556   22.2893 C   0  0  0  0  0  0  0  0  0  0  0  0
   17.1610  -18.0051   22.4090 C   0  0  0  0  0  0  0  0  0  0  0  0
   15.9161  -17.6328   23.2319 C   0  0  2  0  0  0  0  0  0  0  0  0
   14.8206  -17.3121   22.3600 N   0  0  0  0  0  0  0  0  0  0  0  0
   16.2558  -16.5204   24.1497 C   0  0  0  0  0  0  0  0  0  0  0  0
   17.2025  -16.7318   25.1341 O   0  0  0  0  0  0  0  0  0  0  0  0
   15.7181  -15.3921   24.0696 O   0  0  0  0  0  0  0  0  0  0  0  0
  2  1  1  6
  2  3  1  0
  3  4  1  0
  4  8  1  0
  4  5  2  0
  5  6  1  0
  7  6  1  0
  8  7  2  0
  9  2  1  0
  9 11  1  0
 10  9  2  0
 11 12  1  0
 13 14  1  0
 12 13  1  1
 14 15  1  0
 15 16  1  0
 17 16  1  0
 18 12  1  0
 19 18  2  0
 20 21  1  0
 21 22  2  0
 23 21  1  0
 23 24  1  0
 24 25  1  0
 26 25  1  0
 27 26  1  6
 27 28  1  0
 27 29  1  0
 28 18  1  0
 29 30  1  0
 31 29  2  0
M  END
$$$$
