HKR.pdb
     RDKit          3D

 31 31  0  0  1  0  0  0  0  0999 V2000
    9.1990  -16.2329   19.1588 N   0  0  0  0  0  0  0  0  0  0  0  0
    8.1200  -15.4890   19.7221 C   0  0  1  0  0  0  0  0  0  0  0  0
    7.0755  -15.2347   18.6926 C   0  0  0  0  0  0  0  0  0  0  0  0
    7.5647  -14.4764   17.5153 C   0  0  0  0  0  0  0  0  0  0  0  0
    8.8732  -14.0924   17.2203 C   0  0  0  0  0  0  0  0  0  0  0  0
    8.8887  -13.4171   16.0555 N   0  0  0  0  0  0  0  0  0  0  0  0
    7.6343  -13.3629   15.6077 C   0  0  0  0  0  0  0  0  0  0  0  0
    6.8227  -14.0089   16.4966 N   0  0  0  0  0  0  0  0  0  0  0  0
    7.5946  -16.1514   20.9499 C   0  0  0  0  0  0  0  0  0  0  0  0
    6.6694  -15.5603   21.5448 O   0  0  0  0  0  0  0  0  0  0  0  0
    8.0786  -17.3613   21.4411 N   0  0  0  0  0  0  0  0  0  0  0  0
    7.8244  -18.0135   22.6649 C   0  0  1  0  0  0  0  0  0  0  0  0
    7.8925  -19.5075   22.7131 C   0  0  0  0  0  0  0  0  0  0  0  0
    7.6355  -20.1760   23.9972 C   0  0  0  0  0  0  0  0  0  0  0  0
    7.6458  -21.6957   23.8981 C   0  0  0  0  0  0  0  0  0  0  0  0
    7.3675  -22.2837   25.2874 C   0  0  0  0  0  0  0  0  0  0  0  0
    7.4711  -23.7139   25.2968 N   0  0  0  0  0  0  0  0  0  0  0  0
    8.4876  -17.4560   23.8528 C   0  0  0  0  0  0  0  0  0  0  0  0
    9.7310  -17.5293   23.9390 O   0  0  0  0  0  0  0  0  0  0  0  0
    6.3788   -9.4118   26.8424 N   0  0  0  0  0  0  0  0  0  0  0  0
    5.7475  -10.5131   26.1895 C   0  0  0  0  0  0  0  0  0  0  0  0
    4.4798  -10.5036   26.0025 N   0  0  0  0  0  0  0  0  0  0  0  0
    6.5023  -11.6324   25.7393 N   0  0  0  0  0  0  0  0  0  0  0  0
    6.6221  -12.8574   26.4825 C   0  0  0  0  0  0  0  0  0  0  0  0
    7.4301  -13.9337   25.8436 C   0  0  0  0  0  0  0  0  0  0  0  0
    7.5101  -15.1575   26.6807 C   0  0  0  0  0  0  0  0  0  0  0  0
    8.4369  -16.2091   26.0477 C   0  0  2  0  0  0  0  0  0  0  0  0
    7.7915  -16.8302   24.9249 N   0  0  0  0  0  0  0  0  0  0  0  0
    8.8394  -17.1881   27.0843 C   0  0  0  0  0  0  0  0  0  0  0  0
   10.0180  -16.9822   27.7762 O   0  0  0  0  0  0  0  0  0  0  0  0
    8.1528  -18.1986   27.3602 O   0  0  0  0  0  0  0  0  0  0  0  0
  2  1  1  6
  2  3  1  0
  3  4  1  0
  4  8  1  0
  4  5  2  0
  5  6  1  0
  7  6  1  0
  8  7  2  0
  9  2  1  0
  9 11  1  0
 10  9  2  0
 11 12  1  0
 13 14  1  0
 12 13  1  6
 14 15  1  0
 15 16  1  0
 17 16  1  0
 18 12  1  0
 19 18  2  0
 20 21  1  0
 21 22  2  0
 23 21  1  0
 23 24  1  0
 24 25  1  0
 26 25  1  0
 27 26  1  1
 27 28  1  0
 27 29  1  0
 28 18  1  0
 29 30  1  0
 31 29  2  0
M  END
$$$$
