HKR.pdb
     RDKit          3D

 31 31  0  0  1  0  0  0  0  0999 V2000
   10.2888  -13.9171   19.4920 N   0  0  0  0  0  0  0  0  0  0  0  0
    8.9498  -14.0103   19.9749 C   0  0  1  0  0  0  0  0  0  0  0  0
    8.1882  -15.0221   19.1927 C   0  0  0  0  0  0  0  0  0  0  0  0
    8.1329  -14.7389   17.7376 C   0  0  0  0  0  0  0  0  0  0  0  0
    7.5922  -13.6240   17.0964 C   0  0  0  0  0  0  0  0  0  0  0  0
    7.7444  -13.7568   15.7652 N   0  0  0  0  0  0  0  0  0  0  0  0
    8.3624  -14.9176   15.5470 C   0  0  0  0  0  0  0  0  0  0  0  0
    8.6014  -15.5203   16.7493 N   0  0  0  0  0  0  0  0  0  0  0  0
    8.9253  -14.2553   21.4452 C   0  0  0  0  0  0  0  0  0  0  0  0
    9.7110  -15.1256   21.8745 O   0  0  0  0  0  0  0  0  0  0  0  0
    8.0895  -13.5745   22.3270 N   0  0  0  0  0  0  0  0  0  0  0  0
    7.9980  -13.6454   23.7321 C   0  0  1  0  0  0  0  0  0  0  0  0
    6.9711  -12.8106   24.4304 C   0  0  0  0  0  0  0  0  0  0  0  0
    6.9237  -12.8483   25.8994 C   0  0  0  0  0  0  0  0  0  0  0  0
    5.8516  -11.9429   26.4912 C   0  0  0  0  0  0  0  0  0  0  0  0
    5.8776  -12.0788   28.0191 C   0  0  0  0  0  0  0  0  0  0  0  0
    4.8188  -11.3398   28.6429 N   0  0  0  0  0  0  0  0  0  0  0  0
    8.0147  -14.9925   24.3211 C   0  0  0  0  0  0  0  0  0  0  0  0
    7.1623  -15.8245   23.9471 O   0  0  0  0  0  0  0  0  0  0  0  0
   13.8132  -20.0916   21.6525 N   0  0  0  0  0  0  0  0  0  0  0  0
   13.2991  -20.8618   22.7389 C   0  0  0  0  0  0  0  0  0  0  0  0
   13.6351  -22.0919   22.8654 N   0  0  0  0  0  0  0  0  0  0  0  0
   12.4119  -20.2881   23.6923 N   0  0  0  0  0  0  0  0  0  0  0  0
   11.9505  -18.9279   23.6267 C   0  0  0  0  0  0  0  0  0  0  0  0
   10.9264  -18.5352   24.6350 C   0  0  0  0  0  0  0  0  0  0  0  0
   10.4368  -17.1474   24.4372 C   0  0  0  0  0  0  0  0  0  0  0  0
    9.3737  -16.7743   25.4841 C   0  0  2  0  0  0  0  0  0  0  0  0
    8.9542  -15.4125   25.3042 N   0  0  0  0  0  0  0  0  0  0  0  0
    9.9174  -17.0268   26.8391 C   0  0  0  0  0  0  0  0  0  0  0  0
    9.9883  -15.9783   27.7366 O   0  0  0  0  0  0  0  0  0  0  0  0
   10.3168  -18.1558   27.2056 O   0  0  0  0  0  0  0  0  0  0  0  0
  2  1  1  6
  2  3  1  0
  3  4  1  0
  4  8  1  0
  4  5  2  0
  5  6  1  0
  7  6  1  0
  8  7  2  0
  9  2  1  0
  9 11  1  0
 10  9  2  0
 11 12  1  0
 13 14  1  0
 12 13  1  6
 14 15  1  0
 15 16  1  0
 17 16  1  0
 18 12  1  0
 19 18  2  0
 20 21  1  0
 21 22  2  0
 23 21  1  0
 23 24  1  0
 24 25  1  0
 26 25  1  0
 27 26  1  6
 27 28  1  0
 27 29  1  0
 28 18  1  0
 29 30  1  0
 31 29  2  0
M  END
$$$$
