HKR.pdb
     RDKit          3D

 31 31  0  0  1  0  0  0  0  0999 V2000
   13.8076  -14.3480   18.0697 N   0  0  0  0  0  0  0  0  0  0  0  0
   12.6423  -15.1685   18.1300 C   0  0  1  0  0  0  0  0  0  0  0  0
   13.0067  -16.5980   17.9313 C   0  0  0  0  0  0  0  0  0  0  0  0
   13.6015  -16.8870   16.6035 C   0  0  0  0  0  0  0  0  0  0  0  0
   14.8917  -17.3329   16.3155 C   0  0  0  0  0  0  0  0  0  0  0  0
   15.0300  -17.4702   14.9833 N   0  0  0  0  0  0  0  0  0  0  0  0
   13.8704  -17.1256   14.4231 C   0  0  0  0  0  0  0  0  0  0  0  0
   12.9954  -16.7689   15.4095 N   0  0  0  0  0  0  0  0  0  0  0  0
   11.8751  -14.9202   19.3838 C   0  0  0  0  0  0  0  0  0  0  0  0
   12.5401  -14.8747   20.4397 O   0  0  0  0  0  0  0  0  0  0  0  0
   10.4944  -14.7429   19.4213 N   0  0  0  0  0  0  0  0  0  0  0  0
    9.6324  -14.5398   20.5183 C   0  0  1  0  0  0  0  0  0  0  0  0
    8.2277  -14.0945   20.2583 C   0  0  0  0  0  0  0  0  0  0  0  0
    7.9853  -13.1685   19.1422 C   0  0  0  0  0  0  0  0  0  0  0  0
    7.8634  -13.8677   17.7948 C   0  0  0  0  0  0  0  0  0  0  0  0
    7.5563  -12.8180   16.7189 C   0  0  0  0  0  0  0  0  0  0  0  0
    7.2985  -13.4165   15.4416 N   0  0  0  0  0  0  0  0  0  0  0  0
    9.6293  -15.5876   21.5498 C   0  0  0  0  0  0  0  0  0  0  0  0
    9.4927  -16.7781   21.1994 O   0  0  0  0  0  0  0  0  0  0  0  0
   16.5436  -17.1623   22.9360 N   0  0  0  0  0  0  0  0  0  0  0  0
   16.0940  -15.8184   22.7638 C   0  0  0  0  0  0  0  0  0  0  0  0
   16.9139  -14.9158   22.3699 N   0  0  0  0  0  0  0  0  0  0  0  0
   14.7428  -15.4558   23.0244 N   0  0  0  0  0  0  0  0  0  0  0  0
   13.7327  -16.3980   23.4235 C   0  0  0  0  0  0  0  0  0  0  0  0
   12.3452  -15.8653   23.5262 C   0  0  0  0  0  0  0  0  0  0  0  0
   11.3612  -16.9112   23.9039 C   0  0  0  0  0  0  0  0  0  0  0  0
    9.9306  -16.3474   23.9387 C   0  0  2  0  0  0  0  0  0  0  0  0
    9.7738  -15.3258   22.9413 N   0  0  0  0  0  0  0  0  0  0  0  0
    9.6353  -15.8570   25.3052 C   0  0  0  0  0  0  0  0  0  0  0  0
    9.6635  -16.7529   26.3572 O   0  0  0  0  0  0  0  0  0  0  0  0
    9.3600  -14.6594   25.5469 O   0  0  0  0  0  0  0  0  0  0  0  0
  2  1  1  1
  2  3  1  0
  3  4  1  0
  4  8  1  0
  4  5  2  0
  5  6  1  0
  7  6  1  0
  8  7  2  0
  9  2  1  0
  9 11  1  0
 10  9  2  0
 11 12  1  0
 13 14  1  0
 12 13  1  6
 14 15  1  0
 15 16  1  0
 17 16  1  0
 18 12  1  0
 19 18  2  0
 20 21  1  0
 21 22  2  0
 23 21  1  0
 23 24  1  0
 24 25  1  0
 26 25  1  0
 27 26  1  1
 27 28  1  0
 27 29  1  0
 28 18  1  0
 29 30  1  0
 31 29  2  0
M  END
$$$$
