HKR.pdb
     RDKit          3D

 31 31  0  0  1  0  0  0  0  0999 V2000
   12.0436  -16.4429   14.8960 N   0  0  0  0  0  0  0  0  0  0  0  0
   11.1802  -17.0062   15.8818 C   0  0  1  0  0  0  0  0  0  0  0  0
   11.3188  -18.4881   15.9032 C   0  0  0  0  0  0  0  0  0  0  0  0
   10.8872  -19.1497   14.6476 C   0  0  0  0  0  0  0  0  0  0  0  0
    9.6997  -19.8391   14.4006 C   0  0  0  0  0  0  0  0  0  0  0  0
    9.6996  -20.2883   13.1313 N   0  0  0  0  0  0  0  0  0  0  0  0
   10.8470  -19.9050   12.5712 C   0  0  0  0  0  0  0  0  0  0  0  0
   11.5750  -19.2093   13.4942 N   0  0  0  0  0  0  0  0  0  0  0  0
   11.3978  -16.3704   17.2125 C   0  0  0  0  0  0  0  0  0  0  0  0
   12.5824  -16.2853   17.5982 O   0  0  0  0  0  0  0  0  0  0  0  0
   10.3673  -15.8847   18.0134 N   0  0  0  0  0  0  0  0  0  0  0  0
   10.4058  -15.3300   19.3089 C   0  0  1  0  0  0  0  0  0  0  0  0
    9.1680  -14.6925   19.8571 C   0  0  0  0  0  0  0  0  0  0  0  0
    8.5437  -13.6065   19.0871 C   0  0  0  0  0  0  0  0  0  0  0  0
    7.8078  -14.0937   17.8460 C   0  0  0  0  0  0  0  0  0  0  0  0
    7.3114  -12.8762   17.0556 C   0  0  0  0  0  0  0  0  0  0  0  0
    6.5675  -13.2580   15.8906 N   0  0  0  0  0  0  0  0  0  0  0  0
   11.0352  -16.1516   20.3533 C   0  0  0  0  0  0  0  0  0  0  0  0
   10.6253  -17.3174   20.5318 O   0  0  0  0  0  0  0  0  0  0  0  0
   19.2385  -16.6581   22.2779 N   0  0  0  0  0  0  0  0  0  0  0  0
   18.3546  -15.8963   23.1001 C   0  0  0  0  0  0  0  0  0  0  0  0
   18.5363  -14.6350   23.2361 N   0  0  0  0  0  0  0  0  0  0  0  0
   17.2671  -16.5131   23.7799 N   0  0  0  0  0  0  0  0  0  0  0  0
   16.1779  -17.1647   23.1042 C   0  0  0  0  0  0  0  0  0  0  0  0
   14.8088  -16.7747   23.5433 C   0  0  0  0  0  0  0  0  0  0  0  0
   14.1109  -15.9271   22.5436 C   0  0  0  0  0  0  0  0  0  0  0  0
   12.7242  -16.4956   22.1982 C   0  0  2  0  0  0  0  0  0  0  0  0
   12.0962  -15.6948   21.1847 N   0  0  0  0  0  0  0  0  0  0  0  0
   11.9139  -16.5837   23.4355 C   0  0  0  0  0  0  0  0  0  0  0  0
   12.0577  -17.6902   24.2510 O   0  0  0  0  0  0  0  0  0  0  0  0
   11.1008  -15.6932   23.7738 O   0  0  0  0  0  0  0  0  0  0  0  0
  2  1  1  6
  2  3  1  0
  3  4  1  0
  4  8  1  0
  4  5  2  0
  5  6  1  0
  7  6  1  0
  8  7  2  0
  9  2  1  0
  9 11  1  0
 10  9  2  0
 11 12  1  0
 13 14  1  0
 12 13  1  1
 14 15  1  0
 15 16  1  0
 17 16  1  0
 18 12  1  0
 19 18  2  0
 20 21  1  0
 21 22  2  0
 23 21  1  0
 23 24  1  0
 24 25  1  0
 26 25  1  0
 27 26  1  1
 27 28  1  0
 27 29  1  0
 28 18  1  0
 29 30  1  0
 31 29  2  0
M  END
$$$$
