HKR.pdb
     RDKit          3D

 31 31  0  0  1  0  0  0  0  0999 V2000
   10.6505  -13.9269   19.0881 N   0  0  0  0  0  0  0  0  0  0  0  0
    9.3284  -13.9380   19.6234 C   0  0  1  0  0  0  0  0  0  0  0  0
    8.4962  -14.9537   18.9222 C   0  0  0  0  0  0  0  0  0  0  0  0
    8.4840  -14.8048   17.4464 C   0  0  0  0  0  0  0  0  0  0  0  0
    8.1594  -13.6739   16.6967 C   0  0  0  0  0  0  0  0  0  0  0  0
    8.2731  -13.9591   15.3858 N   0  0  0  0  0  0  0  0  0  0  0  0
    8.6579  -15.2314   15.2851 C   0  0  0  0  0  0  0  0  0  0  0  0
    8.7879  -15.7513   16.5416 N   0  0  0  0  0  0  0  0  0  0  0  0
    9.3501  -14.1081   21.1042 C   0  0  0  0  0  0  0  0  0  0  0  0
   10.2629  -14.8244   21.5657 O   0  0  0  0  0  0  0  0  0  0  0  0
    8.4246  -13.5194   21.9622 N   0  0  0  0  0  0  0  0  0  0  0  0
    8.1925  -13.7340   23.3361 C   0  0  1  0  0  0  0  0  0  0  0  0
    7.0216  -13.0631   23.9827 C   0  0  0  0  0  0  0  0  0  0  0  0
    6.9548  -13.0403   25.4513 C   0  0  0  0  0  0  0  0  0  0  0  0
    5.7486  -12.2811   25.9879 C   0  0  0  0  0  0  0  0  0  0  0  0
    5.7885  -12.3095   27.5213 C   0  0  0  0  0  0  0  0  0  0  0  0
    4.6284  -11.6974   28.1009 N   0  0  0  0  0  0  0  0  0  0  0  0
    8.2773  -15.1254   23.8038 C   0  0  0  0  0  0  0  0  0  0  0  0
    7.5556  -15.9884   23.2623 O   0  0  0  0  0  0  0  0  0  0  0  0
   15.0393  -15.9560   22.7762 N   0  0  0  0  0  0  0  0  0  0  0  0
   14.3997  -15.7525   21.5164 C   0  0  0  0  0  0  0  0  0  0  0  0
   14.9620  -15.0242   20.6245 N   0  0  0  0  0  0  0  0  0  0  0  0
   13.1385  -16.3451   21.2276 N   0  0  0  0  0  0  0  0  0  0  0  0
   12.5802  -17.4298   21.9886 C   0  0  0  0  0  0  0  0  0  0  0  0
   12.2286  -17.1232   23.4034 C   0  0  0  0  0  0  0  0  0  0  0  0
   11.0883  -16.1786   23.5140 C   0  0  0  0  0  0  0  0  0  0  0  0
   10.1656  -16.5498   24.6872 C   0  0  2  0  0  0  0  0  0  0  0  0
    9.1419  -15.5554   24.8494 N   0  0  0  0  0  0  0  0  0  0  0  0
   10.9830  -16.7280   25.9099 C   0  0  0  0  0  0  0  0  0  0  0  0
   11.8979  -17.7629   25.9572 O   0  0  0  0  0  0  0  0  0  0  0  0
   10.8784  -15.9764   26.9063 O   0  0  0  0  0  0  0  0  0  0  0  0
  2  1  1  6
  2  3  1  0
  3  4  1  0
  4  8  1  0
  4  5  2  0
  5  6  1  0
  7  6  1  0
  8  7  2  0
  9  2  1  0
  9 11  1  0
 10  9  2  0
 11 12  1  0
 13 14  1  0
 12 13  1  6
 14 15  1  0
 15 16  1  0
 17 16  1  0
 18 12  1  0
 19 18  2  0
 20 21  1  0
 21 22  2  0
 23 21  1  0
 23 24  1  0
 24 25  1  0
 26 25  1  0
 27 26  1  6
 27 28  1  0
 27 29  1  0
 28 18  1  0
 29 30  1  0
 31 29  2  0
M  END
$$$$
