HKR.pdb
     RDKit          3D

 31 31  0  0  1  0  0  0  0  0999 V2000
    6.3747  -14.0301   21.2452 N   0  0  0  0  0  0  0  0  0  0  0  0
    6.6688  -15.4082   21.0239 C   0  0  1  0  0  0  0  0  0  0  0  0
    7.8862  -15.5470   20.1787 C   0  0  0  0  0  0  0  0  0  0  0  0
    7.8910  -14.6677   18.9839 C   0  0  0  0  0  0  0  0  0  0  0  0
    7.1777  -13.4862   18.7803 C   0  0  0  0  0  0  0  0  0  0  0  0
    7.4638  -12.9964   17.5592 N   0  0  0  0  0  0  0  0  0  0  0  0
    8.3330  -13.8298   16.9874 C   0  0  0  0  0  0  0  0  0  0  0  0
    8.5964  -14.8519   17.8546 N   0  0  0  0  0  0  0  0  0  0  0  0
    6.7529  -16.1529   22.3126 C   0  0  0  0  0  0  0  0  0  0  0  0
    7.2478  -15.5345   23.2779 O   0  0  0  0  0  0  0  0  0  0  0  0
    6.3158  -17.4651   22.4754 N   0  0  0  0  0  0  0  0  0  0  0  0
    6.6904  -18.4379   23.4246 C   0  0  1  0  0  0  0  0  0  0  0  0
    6.0942  -19.8069   23.3273 C   0  0  0  0  0  0  0  0  0  0  0  0
    6.4300  -20.7890   24.3687 C   0  0  0  0  0  0  0  0  0  0  0  0
    5.8582  -22.1742   24.0974 C   0  0  0  0  0  0  0  0  0  0  0  0
    6.2009  -23.0907   25.2790 C   0  0  0  0  0  0  0  0  0  0  0  0
    5.7519  -24.4356   25.0644 N   0  0  0  0  0  0  0  0  0  0  0  0
    8.1279  -18.5507   23.7124 C   0  0  0  0  0  0  0  0  0  0  0  0
    8.9322  -18.5922   22.7584 O   0  0  0  0  0  0  0  0  0  0  0  0
   10.4488  -13.2430   21.2596 N   0  0  0  0  0  0  0  0  0  0  0  0
   11.4098  -14.2473   20.9346 C   0  0  0  0  0  0  0  0  0  0  0  0
   11.8941  -14.3087   19.7498 N   0  0  0  0  0  0  0  0  0  0  0  0
   11.8443  -15.1917   21.9065 N   0  0  0  0  0  0  0  0  0  0  0  0
   11.2170  -15.3526   23.1902 C   0  0  0  0  0  0  0  0  0  0  0  0
   10.9778  -16.7557   23.6301 C   0  0  0  0  0  0  0  0  0  0  0  0
   10.3294  -16.8307   24.9639 C   0  0  0  0  0  0  0  0  0  0  0  0
   10.0250  -18.2861   25.3573 C   0  0  2  0  0  0  0  0  0  0  0  0
    8.6667  -18.6170   25.0280 N   0  0  0  0  0  0  0  0  0  0  0  0
   10.3219  -18.4719   26.7969 C   0  0  0  0  0  0  0  0  0  0  0  0
    9.2833  -18.7622   27.6613 O   0  0  0  0  0  0  0  0  0  0  0  0
   11.4799  -18.3763   27.2643 O   0  0  0  0  0  0  0  0  0  0  0  0
  2  1  1  1
  2  3  1  0
  3  4  1  0
  4  8  1  0
  4  5  2  0
  5  6  1  0
  7  6  1  0
  8  7  2  0
  9  2  1  0
  9 11  1  0
 10  9  2  0
 11 12  1  0
 13 14  1  0
 12 13  1  6
 14 15  1  0
 15 16  1  0
 17 16  1  0
 18 12  1  0
 19 18  2  0
 20 21  1  0
 21 22  2  0
 23 21  1  0
 23 24  1  0
 24 25  1  0
 26 25  1  0
 27 26  1  1
 27 28  1  0
 27 29  1  0
 28 18  1  0
 29 30  1  0
 31 29  2  0
M  END
$$$$
