HKR.pdb
     RDKit          3D

 31 31  0  0  1  0  0  0  0  0999 V2000
    8.2449  -16.2419   18.8567 N   0  0  0  0  0  0  0  0  0  0  0  0
    8.0553  -15.0890   19.6749 C   0  0  1  0  0  0  0  0  0  0  0  0
    7.1147  -14.1397   19.0193 C   0  0  0  0  0  0  0  0  0  0  0  0
    7.4311  -13.8678   17.5958 C   0  0  0  0  0  0  0  0  0  0  0  0
    8.2494  -12.8673   17.0706 C   0  0  0  0  0  0  0  0  0  0  0  0
    8.2695  -12.9656   15.7279 N   0  0  0  0  0  0  0  0  0  0  0  0
    7.4914  -13.9941   15.3904 C   0  0  0  0  0  0  0  0  0  0  0  0
    6.9776  -14.5476   16.5286 N   0  0  0  0  0  0  0  0  0  0  0  0
    7.6452  -15.4724   21.0560 C   0  0  0  0  0  0  0  0  0  0  0  0
    7.6200  -14.5534   21.9010 O   0  0  0  0  0  0  0  0  0  0  0  0
    7.3010  -16.7699   21.4265 N   0  0  0  0  0  0  0  0  0  0  0  0
    6.8846  -17.2802   22.6730 C   0  0  1  0  0  0  0  0  0  0  0  0
    6.0973  -18.5523   22.7044 C   0  0  0  0  0  0  0  0  0  0  0  0
    4.8650  -18.6293   21.9061 C   0  0  0  0  0  0  0  0  0  0  0  0
    4.1885  -19.9921   21.9720 C   0  0  0  0  0  0  0  0  0  0  0  0
    2.9563  -19.9773   21.0582 C   0  0  0  0  0  0  0  0  0  0  0  0
    2.2173  -21.2040   21.1318 N   0  0  0  0  0  0  0  0  0  0  0  0
    7.8962  -17.3056   23.7398 C   0  0  0  0  0  0  0  0  0  0  0  0
    8.8782  -18.0675   23.6212 O   0  0  0  0  0  0  0  0  0  0  0  0
    9.2937  -15.8875   31.3390 N   0  0  0  0  0  0  0  0  0  0  0  0
   10.3302  -14.9218   31.1632 C   0  0  0  0  0  0  0  0  0  0  0  0
   11.2458  -14.7983   32.0513 N   0  0  0  0  0  0  0  0  0  0  0  0
   10.3678  -14.0841   30.0134 N   0  0  0  0  0  0  0  0  0  0  0  0
    9.4199  -14.1748   28.9361 C   0  0  0  0  0  0  0  0  0  0  0  0
    9.5813  -15.3377   28.0190 C   0  0  0  0  0  0  0  0  0  0  0  0
    8.6114  -15.3142   26.8949 C   0  0  0  0  0  0  0  0  0  0  0  0
    8.8181  -16.5116   25.9521 C   0  0  2  0  0  0  0  0  0  0  0  0
    7.8246  -16.5058   24.9148 N   0  0  0  0  0  0  0  0  0  0  0  0
    8.8030  -17.7626   26.7459 C   0  0  0  0  0  0  0  0  0  0  0  0
    9.9809  -18.2058   27.3169 O   0  0  0  0  0  0  0  0  0  0  0  0
    7.7625  -18.4373   26.9211 O   0  0  0  0  0  0  0  0  0  0  0  0
  2  1  1  6
  2  3  1  0
  3  4  1  0
  4  8  1  0
  4  5  2  0
  5  6  1  0
  7  6  1  0
  8  7  2  0
  9  2  1  0
  9 11  1  0
 10  9  2  0
 11 12  1  0
 13 14  1  0
 12 13  1  6
 14 15  1  0
 15 16  1  0
 17 16  1  0
 18 12  1  0
 19 18  2  0
 20 21  1  0
 21 22  2  0
 23 21  1  0
 23 24  1  0
 24 25  1  0
 26 25  1  0
 27 26  1  1
 27 28  1  0
 27 29  1  0
 28 18  1  0
 29 30  1  0
 31 29  2  0
M  END
$$$$
