HKR.pdb
     RDKit          3D

 31 31  0  0  1  0  0  0  0  0999 V2000
    9.2232  -15.5472   16.2568 N   0  0  0  0  0  0  0  0  0  0  0  0
    8.8829  -14.5934   17.2614 C   0  0  1  0  0  0  0  0  0  0  0  0
    7.6644  -13.8368   16.8633 C   0  0  0  0  0  0  0  0  0  0  0  0
    7.4401  -13.7880   15.3978 C   0  0  0  0  0  0  0  0  0  0  0  0
    8.2231  -14.3459   14.3868 C   0  0  0  0  0  0  0  0  0  0  0  0
    7.6701  -14.0710   13.1903 N   0  0  0  0  0  0  0  0  0  0  0  0
    6.5657  -13.3588   13.4141 C   0  0  0  0  0  0  0  0  0  0  0  0
    6.4218  -13.1839   14.7612 N   0  0  0  0  0  0  0  0  0  0  0  0
    8.7691  -15.2405   18.5996 C   0  0  0  0  0  0  0  0  0  0  0  0
    8.4477  -14.4958   19.5489 O   0  0  0  0  0  0  0  0  0  0  0  0
    8.9990  -16.5956   18.8234 N   0  0  0  0  0  0  0  0  0  0  0  0
    8.8933  -17.3531   20.0078 C   0  0  1  0  0  0  0  0  0  0  0  0
    8.9136  -18.8463   19.9125 C   0  0  0  0  0  0  0  0  0  0  0  0
    8.7268  -19.6259   21.1450 C   0  0  0  0  0  0  0  0  0  0  0  0
    8.8094  -21.1306   20.9245 C   0  0  0  0  0  0  0  0  0  0  0  0
    8.5195  -21.8416   22.2527 C   0  0  0  0  0  0  0  0  0  0  0  0
    8.5588  -23.2688   22.1185 N   0  0  0  0  0  0  0  0  0  0  0  0
    9.7343  -16.9243   21.1350 C   0  0  0  0  0  0  0  0  0  0  0  0
   10.9677  -16.8305   20.9654 O   0  0  0  0  0  0  0  0  0  0  0  0
   10.1214  -16.2871   28.9663 N   0  0  0  0  0  0  0  0  0  0  0  0
   10.2566  -14.8694   29.0636 C   0  0  0  0  0  0  0  0  0  0  0  0
   10.7822  -14.3480   30.1096 N   0  0  0  0  0  0  0  0  0  0  0  0
    9.8144  -14.0146   28.0153 N   0  0  0  0  0  0  0  0  0  0  0  0
    9.1081  -14.4850   26.8546 C   0  0  0  0  0  0  0  0  0  0  0  0
    9.9443  -15.0942   25.7825 C   0  0  0  0  0  0  0  0  0  0  0  0
    9.1458  -15.4912   24.5952 C   0  0  0  0  0  0  0  0  0  0  0  0
   10.0313  -16.1342   23.5146 C   0  0  2  0  0  0  0  0  0  0  0  0
    9.2234  -16.6059   22.4247 N   0  0  0  0  0  0  0  0  0  0  0  0
   10.8413  -17.2120   24.1290 C   0  0  0  0  0  0  0  0  0  0  0  0
   12.0733  -16.8962   24.6700 O   0  0  0  0  0  0  0  0  0  0  0  0
   10.4539  -18.4019   24.1782 O   0  0  0  0  0  0  0  0  0  0  0  0
  2  1  1  6
  2  3  1  0
  3  4  1  0
  4  8  1  0
  4  5  2  0
  5  6  1  0
  7  6  1  0
  8  7  2  0
  9  2  1  0
  9 11  1  0
 10  9  2  0
 11 12  1  0
 13 14  1  0
 12 13  1  6
 14 15  1  0
 15 16  1  0
 17 16  1  0
 18 12  1  0
 19 18  2  0
 20 21  1  0
 21 22  2  0
 23 21  1  0
 23 24  1  0
 24 25  1  0
 26 25  1  0
 27 26  1  1
 27 28  1  0
 27 29  1  0
 28 18  1  0
 29 30  1  0
 31 29  2  0
M  END
$$$$
