ERT.pdb
     RDKit          3D

 28 27  0  0  1  0  0  0  0  0999 V2000
   19.7702  -27.6034   -2.0921 N   0  0  0  0  0  0  0  0  0  0  0  0
   18.6724  -27.7789   -3.0126 C   0  0  1  0  0  0  0  0  0  0  0  0
   17.5806  -28.5402   -2.3444 C   0  0  0  0  0  0  0  0  0  0  0  0
   17.6058  -29.9764   -2.7818 C   0  0  0  0  0  0  0  0  0  0  0  0
   18.0102  -30.9430   -1.7587 C   0  0  0  0  0  0  0  0  0  0  0  0
   18.1552  -30.6002   -0.5600 O   0  0  0  0  0  0  0  0  0  0  0  0
   18.2329  -26.4319   -3.4720 C   0  0  0  0  0  0  0  0  0  0  0  0
   18.3803  -25.4090   -2.7597 O   0  0  0  0  0  0  0  0  0  0  0  0
   18.2453  -32.2692   -2.0862 O   0  0  0  0  0  0  0  0  0  0  0  0
   19.3023  -24.7252  -11.6594 N   0  0  0  0  0  0  0  0  0  0  0  0
   19.0736  -26.0645  -11.1962 C   0  0  0  0  0  0  0  0  0  0  0  0
   19.2734  -27.0468  -11.9765 N   0  0  0  0  0  0  0  0  0  0  0  0
   18.6186  -26.2909   -9.8479 N   0  0  0  0  0  0  0  0  0  0  0  0
   18.6248  -25.2234   -8.8690 C   0  0  0  0  0  0  0  0  0  0  0  0
   17.9740  -25.7272   -7.5986 C   0  0  0  0  0  0  0  0  0  0  0  0
   17.9322  -24.6584   -6.5462 C   0  0  0  0  0  0  0  0  0  0  0  0
   17.2453  -25.0238   -5.2951 C   0  0  2  0  0  0  0  0  0  0  0  0
   17.6334  -26.3037   -4.7457 N   0  0  0  0  0  0  0  0  0  0  0  0
   15.7702  -24.7867   -5.2665 C   0  0  0  0  0  0  0  0  0  0  0  0
   14.9255  -25.5651   -5.7665 O   0  0  0  0  0  0  0  0  0  0  0  0
   19.0496  -28.0151  -11.6700 C   0  0  0  0  0  0  0  0  0  0  0  0
   13.6141  -24.0126   -2.1579 C   0  0  2  0  0  0  0  0  0  0  0  0
   13.4925  -22.9092   -3.1820 O   0  0  0  0  0  0  0  0  0  0  0  0
   14.3648  -21.8683   -2.8463 C   0  0  2  0  0  0  0  0  0  0  0  0
   13.7681  -23.4056   -4.5958 N   0  0  0  0  0  0  0  0  0  0  0  0
   15.2206  -23.6266   -4.6496 C   0  0  0  0  0  0  0  0  0  0  0  0
   13.3025  -22.4584   -5.6050 O   0  0  0  0  0  0  0  0  0  0  0  0
   11.9269  -22.2616   -5.7035 O   0  0  0  0  0  0  0  0  0  0  0  0
  2  1  1  1
  2  7  1  0
  2  3  1  0
  4  3  1  0
  4  5  1  0
  5  6  2  0
  7  8  2  0
  9  5  1  0
 11 12  2  0
 11 10  1  0
 13 11  1  0
 14 15  1  0
 14 13  1  0
 16 15  1  0
 17 16  1  6
 18 17  1  0
 18  7  1  0
 19 20  2  0
 19 17  1  0
 22 21  1  1
 22 23  1  0
 24 22  1  0
 24 25  1  6
 25 19  1  0
 26 27  1  0
 26 24  1  0
 28 26  2  0
M  END
$$$$
