ERT.pdb
     RDKit          3D

 28 27  0  0  1  0  0  0  0  0999 V2000
   25.4293  -25.9330  -16.2761 N   0  0  0  0  0  0  0  0  0  0  0  0
   25.6117  -24.5108  -16.4415 C   0  0  1  0  0  0  0  0  0  0  0  0
   25.5880  -24.1724  -17.8917 C   0  0  0  0  0  0  0  0  0  0  0  0
   24.2494  -24.5103  -18.4821 C   0  0  0  0  0  0  0  0  0  0  0  0
   23.5808  -23.4226  -19.1994 C   0  0  0  0  0  0  0  0  0  0  0  0
   23.9930  -23.0301  -20.3181 O   0  0  0  0  0  0  0  0  0  0  0  0
   24.5426  -23.8140  -15.6734 C   0  0  0  0  0  0  0  0  0  0  0  0
   23.4787  -24.3933  -15.3450 O   0  0  0  0  0  0  0  0  0  0  0  0
   22.4693  -22.7930  -18.6612 O   0  0  0  0  0  0  0  0  0  0  0  0
   25.0125  -20.6748   -9.5648 N   0  0  0  0  0  0  0  0  0  0  0  0
   26.3926  -20.5440   -9.9372 C   0  0  0  0  0  0  0  0  0  0  0  0
   27.2941  -21.0889   -9.2273 N   0  0  0  0  0  0  0  0  0  0  0  0
   26.7514  -19.7955  -11.1150 N   0  0  0  0  0  0  0  0  0  0  0  0
   25.7667  -19.4851  -12.1308 C   0  0  0  0  0  0  0  0  0  0  0  0
   25.2443  -20.7818  -12.7114 C   0  0  0  0  0  0  0  0  0  0  0  0
   24.3024  -20.5285  -13.8517 C   0  0  0  0  0  0  0  0  0  0  0  0
   23.7681  -21.7306  -14.5149 C   0  0  2  0  0  0  0  0  0  0  0  0
   24.7330  -22.4626  -15.3048 N   0  0  0  0  0  0  0  0  0  0  0  0
   22.4450  -21.5706  -15.1905 C   0  0  0  0  0  0  0  0  0  0  0  0
   22.2895  -21.0223  -16.3061 O   0  0  0  0  0  0  0  0  0  0  0  0
   28.2903  -21.0521   -9.5239 C   0  0  0  0  0  0  0  0  0  0  0  0
   17.7361  -22.8505  -15.6194 C   0  0  2  0  0  0  0  0  0  0  0  0
   19.1940  -23.0361  -15.2713 O   0  0  0  0  0  0  0  0  0  0  0  0
   19.8025  -23.8396  -16.2414 C   0  0  1  0  0  0  0  0  0  0  0  0
   19.9261  -21.7065  -15.1392 N   0  0  0  0  0  0  0  0  0  0  0  0
   21.2457  -22.0471  -14.5878 C   0  0  0  0  0  0  0  0  0  0  0  0
   19.1907  -20.7616  -14.3033 O   0  0  0  0  0  0  0  0  0  0  0  0
   19.4517  -20.7884  -12.9352 O   0  0  0  0  0  0  0  0  0  0  0  0
  2  1  1  6
  2  7  1  0
  2  3  1  0
  4  3  1  0
  4  5  1  0
  5  6  2  0
  7  8  2  0
  9  5  1  0
 11 12  2  0
 11 10  1  0
 13 11  1  0
 14 15  1  0
 14 13  1  0
 16 15  1  0
 17 16  1  6
 18 17  1  0
 18  7  1  0
 19 20  2  0
 19 17  1  0
 22 21  1  1
 22 23  1  0
 24 22  1  0
 24 25  1  1
 25 19  1  0
 26 27  1  0
 26 24  1  0
 28 26  2  0
M  END
$$$$
