ERT.pdb
     RDKit          3D

 28 27  0  0  1  0  0  0  0  0999 V2000
   15.9668  -11.3126  -16.0440 N   0  0  0  0  0  0  0  0  0  0  0  0
   17.0723  -10.9799  -15.1778 C   0  0  1  0  0  0  0  0  0  0  0  0
   18.3044  -10.7948  -15.9938 C   0  0  0  0  0  0  0  0  0  0  0  0
   18.9227  -12.1260  -16.3104 C   0  0  0  0  0  0  0  0  0  0  0  0
   18.1991  -12.9444  -17.2856 C   0  0  0  0  0  0  0  0  0  0  0  0
   18.0662  -12.5725  -18.4770 O   0  0  0  0  0  0  0  0  0  0  0  0
   16.7067   -9.7583  -14.4079 C   0  0  0  0  0  0  0  0  0  0  0  0
   16.0437   -8.8252  -14.9227 O   0  0  0  0  0  0  0  0  0  0  0  0
   17.6381  -14.1580  -16.9194 O   0  0  0  0  0  0  0  0  0  0  0  0
   13.1607   -7.7832   -6.8009 N   0  0  0  0  0  0  0  0  0  0  0  0
   13.7657   -6.5523   -7.2244 C   0  0  0  0  0  0  0  0  0  0  0  0
   13.4899   -5.4703   -6.6187 N   0  0  0  0  0  0  0  0  0  0  0  0
   14.6841   -6.5475   -8.3347 N   0  0  0  0  0  0  0  0  0  0  0  0
   15.0916   -7.7829   -8.9715 C   0  0  0  0  0  0  0  0  0  0  0  0
   15.9357   -7.4481  -10.1826 C   0  0  0  0  0  0  0  0  0  0  0  0
   16.2927   -8.6830  -10.9568 C   0  0  0  0  0  0  0  0  0  0  0  0
   16.9023   -8.4517  -12.2780 C   0  0  2  0  0  0  0  0  0  0  0  0
   17.1185   -9.6484  -13.0601 N   0  0  0  0  0  0  0  0  0  0  0  0
   18.0579   -7.5048  -12.3076 C   0  0  0  0  0  0  0  0  0  0  0  0
   18.1014   -6.4318  -11.6624 O   0  0  0  0  0  0  0  0  0  0  0  0
   13.9361   -4.5770   -6.9095 C   0  0  0  0  0  0  0  0  0  0  0  0
   21.6939   -8.9522  -12.3266 C   0  0  2  0  0  0  0  0  0  0  0  0
   21.5795   -7.8284  -13.3290 O   0  0  0  0  0  0  0  0  0  0  0  0
   21.4712   -8.3657  -14.6160 C   0  0  2  0  0  0  0  0  0  0  0  0
   20.4011   -6.9102  -13.0297 N   0  0  0  0  0  0  0  0  0  0  0  0
   19.2137   -7.7747  -13.0948 C   0  0  0  0  0  0  0  0  0  0  0  0
   20.3356   -5.7883  -13.9621 O   0  0  0  0  0  0  0  0  0  0  0  0
   19.2337   -5.7338  -14.8127 O   0  0  0  0  0  0  0  0  0  0  0  0
  2  1  1  6
  2  7  1  0
  2  3  1  0
  4  3  1  0
  4  5  1  0
  5  6  2  0
  7  8  2  0
  9  5  1  0
 11 12  2  0
 11 10  1  0
 13 11  1  0
 14 15  1  0
 14 13  1  0
 16 15  1  0
 17 16  1  1
 18 17  1  0
 18  7  1  0
 19 20  2  0
 19 17  1  0
 22 21  1  6
 22 23  1  0
 24 22  1  0
 24 25  1  1
 25 19  1  0
 26 27  1  0
 26 24  1  0
 28 26  2  0
M  END
$$$$
