ERT.pdb
     RDKit          3D

 28 27  0  0  1  0  0  0  0  0999 V2000
   24.9498  -13.0496  -17.5044 N   0  0  0  0  0  0  0  0  0  0  0  0
   25.2541  -13.6052  -16.2075 C   0  0  1  0  0  0  0  0  0  0  0  0
   24.5057  -12.8576  -15.1589 C   0  0  0  0  0  0  0  0  0  0  0  0
   23.4469  -11.9993  -15.7887 C   0  0  0  0  0  0  0  0  0  0  0  0
   22.0674  -12.3193  -15.4156 C   0  0  0  0  0  0  0  0  0  0  0  0
   21.8024  -13.3052  -14.6854 O   0  0  0  0  0  0  0  0  0  0  0  0
   24.9114  -15.0545  -16.2320 C   0  0  0  0  0  0  0  0  0  0  0  0
   24.0217  -15.5115  -16.9903 O   0  0  0  0  0  0  0  0  0  0  0  0
   21.0110  -11.5396  -15.8599 O   0  0  0  0  0  0  0  0  0  0  0  0
   26.7063  -21.0394  -11.0028 N   0  0  0  0  0  0  0  0  0  0  0  0
   26.3257  -21.9128  -12.0766 C   0  0  0  0  0  0  0  0  0  0  0  0
   25.5830  -22.9165  -11.8430 N   0  0  0  0  0  0  0  0  0  0  0  0
   26.7866  -21.6483  -13.4159 N   0  0  0  0  0  0  0  0  0  0  0  0
   27.2243  -20.3241  -13.8068 C   0  0  0  0  0  0  0  0  0  0  0  0
   26.0253  -19.5441  -14.3020 C   0  0  0  0  0  0  0  0  0  0  0  0
   26.4229  -18.1789  -14.7815 C   0  0  0  0  0  0  0  0  0  0  0  0
   25.3336  -17.3575  -15.3375 C   0  0  2  0  0  0  0  0  0  0  0  0
   25.6083  -15.9384  -15.3769 N   0  0  0  0  0  0  0  0  0  0  0  0
   23.9576  -17.6839  -14.8551 C   0  0  0  0  0  0  0  0  0  0  0  0
   23.5331  -17.4085  -13.7090 O   0  0  0  0  0  0  0  0  0  0  0  0
   25.2389  -23.5089  -12.6255 C   0  0  0  0  0  0  0  0  0  0  0  0
   19.2927  -18.4365  -16.1279 C   0  0  2  0  0  0  0  0  0  0  0  0
   20.7604  -18.2587  -16.4363 O   0  0  0  0  0  0  0  0  0  0  0  0
   20.9903  -16.9417  -16.8482 C   0  0  1  0  0  0  0  0  0  0  0  0
   21.6437  -18.6107  -15.2458 N   0  0  0  0  0  0  0  0  0  0  0  0
   23.0184  -18.3472  -15.6956 C   0  0  0  0  0  0  0  0  0  0  0  0
   21.4456  -19.9906  -14.8111 O   0  0  0  0  0  0  0  0  0  0  0  0
   20.4967  -20.2121  -13.8156 O   0  0  0  0  0  0  0  0  0  0  0  0
  2  1  1  6
  2  7  1  0
  2  3  1  0
  4  3  1  0
  4  5  1  0
  5  6  2  0
  7  8  2  0
  9  5  1  0
 11 12  2  0
 11 10  1  0
 13 11  1  0
 14 15  1  0
 14 13  1  0
 16 15  1  0
 17 16  1  1
 18 17  1  0
 18  7  1  0
 19 20  2  0
 19 17  1  0
 22 21  1  6
 22 23  1  0
 24 22  1  0
 24 25  1  6
 25 19  1  0
 26 27  1  0
 26 24  1  0
 28 26  2  0
M  END
$$$$
