ERT.pdb
     RDKit          3D

 28 27  0  0  1  0  0  0  0  0999 V2000
   15.1896  -21.7881    1.2033 N   0  0  0  0  0  0  0  0  0  0  0  0
   14.8465  -21.0407    2.3894 C   0  0  1  0  0  0  0  0  0  0  0  0
   14.2530  -21.9589    3.4009 C   0  0  0  0  0  0  0  0  0  0  0  0
   12.9974  -22.5823    2.8631 C   0  0  0  0  0  0  0  0  0  0  0  0
   12.3625  -23.5770    3.7303 C   0  0  0  0  0  0  0  0  0  0  0  0
   12.8400  -23.8586    4.8565 O   0  0  0  0  0  0  0  0  0  0  0  0
   16.0780  -20.3640    2.8833 C   0  0  0  0  0  0  0  0  0  0  0  0
   16.8875  -19.8090    2.1009 O   0  0  0  0  0  0  0  0  0  0  0  0
   11.2117  -24.2384    3.3308 O   0  0  0  0  0  0  0  0  0  0  0  0
   16.8558  -12.6706    4.0136 N   0  0  0  0  0  0  0  0  0  0  0  0
   17.9756  -13.1013    4.8018 C   0  0  0  0  0  0  0  0  0  0  0  0
   18.8061  -12.2466    5.2415 N   0  0  0  0  0  0  0  0  0  0  0  0
   18.1541  -14.5013    5.0921 N   0  0  0  0  0  0  0  0  0  0  0  0
   17.3367  -15.5076    4.4463 C   0  0  0  0  0  0  0  0  0  0  0  0
   17.6444  -16.8533    5.0672 C   0  0  0  0  0  0  0  0  0  0  0  0
   16.8385  -17.9460    4.4282 C   0  0  0  0  0  0  0  0  0  0  0  0
   17.1302  -19.3109    4.8998 C   0  0  2  0  0  0  0  0  0  0  0  0
   16.3411  -20.3473    4.2721 N   0  0  0  0  0  0  0  0  0  0  0  0
   17.2616  -19.4769    6.3790 C   0  0  0  0  0  0  0  0  0  0  0  0
   16.3953  -19.1080    7.2053 O   0  0  0  0  0  0  0  0  0  0  0  0
   19.6099  -12.5488    5.8283 C   0  0  0  0  0  0  0  0  0  0  0  0
   17.3964  -22.4936    8.2181 C   0  0  2  0  0  0  0  0  0  0  0  0
   18.6562  -21.7637    8.6197 O   0  0  0  0  0  0  0  0  0  0  0  0
   19.7393  -22.2801    7.9005 C   0  0  2  0  0  0  0  0  0  0  0  0
   18.5399  -20.2594    8.4087 N   0  0  0  0  0  0  0  0  0  0  0  0
   18.4146  -20.0835    6.9544 C   0  0  0  0  0  0  0  0  0  0  0  0
   19.6818  -19.5419    8.9688 O   0  0  0  0  0  0  0  0  0  0  0  0
   19.7748  -19.4830   10.3575 O   0  0  0  0  0  0  0  0  0  0  0  0
  2  1  1  6
  2  7  1  0
  2  3  1  0
  4  3  1  0
  4  5  1  0
  5  6  2  0
  7  8  2  0
  9  5  1  0
 11 12  2  0
 11 10  1  0
 13 11  1  0
 14 15  1  0
 14 13  1  0
 16 15  1  0
 17 16  1  1
 18 17  1  0
 18  7  1  0
 19 20  2  0
 19 17  1  0
 22 21  1  1
 22 23  1  0
 24 22  1  0
 24 25  1  1
 25 19  1  0
 26 27  1  0
 26 24  1  0
 28 26  2  0
M  END
$$$$
