ERT.pdb
     RDKit          3D

 28 27  0  0  1  0  0  0  0  0999 V2000
   24.5195  -12.8130  -19.3085 N   0  0  0  0  0  0  0  0  0  0  0  0
   24.8794  -11.6800  -18.4900 C   0  0  1  0  0  0  0  0  0  0  0  0
   25.9051  -10.8629  -19.1960 C   0  0  0  0  0  0  0  0  0  0  0  0
   25.4428  -10.5378  -20.5871 C   0  0  0  0  0  0  0  0  0  0  0  0
   26.3610   -9.7226  -21.3852 C   0  0  0  0  0  0  0  0  0  0  0  0
   26.0121   -8.6066  -21.8417 O   0  0  0  0  0  0  0  0  0  0  0  0
   23.6393  -10.9102  -18.1931 C   0  0  0  0  0  0  0  0  0  0  0  0
   22.7217  -10.7810  -19.0396 O   0  0  0  0  0  0  0  0  0  0  0  0
   27.6466  -10.1618  -21.6605 O   0  0  0  0  0  0  0  0  0  0  0  0
   16.4928  -11.8674  -14.1136 N   0  0  0  0  0  0  0  0  0  0  0  0
   16.4598  -10.4823  -14.4891 C   0  0  0  0  0  0  0  0  0  0  0  0
   15.3775   -9.8249  -14.3883 N   0  0  0  0  0  0  0  0  0  0  0  0
   17.6539   -9.8417  -14.9789 N   0  0  0  0  0  0  0  0  0  0  0  0
   18.8763  -10.5929  -15.1768 C   0  0  0  0  0  0  0  0  0  0  0  0
   19.9424   -9.6543  -15.6999 C   0  0  0  0  0  0  0  0  0  0  0  0
   21.2104  -10.3915  -16.0169 C   0  0  0  0  0  0  0  0  0  0  0  0
   22.3106   -9.5669  -16.5461 C   0  0  2  0  0  0  0  0  0  0  0  0
   23.4933  -10.3089  -16.9221 N   0  0  0  0  0  0  0  0  0  0  0  0
   22.6101   -8.3136  -15.7896 C   0  0  0  0  0  0  0  0  0  0  0  0
   23.3292   -8.2686  -14.7647 O   0  0  0  0  0  0  0  0  0  0  0  0
   15.3398   -8.8271  -14.6793 C   0  0  0  0  0  0  0  0  0  0  0  0
   23.0888   -4.7211  -17.5681 C   0  0  2  0  0  0  0  0  0  0  0  0
   22.1088   -4.6898  -16.4195 O   0  0  0  0  0  0  0  0  0  0  0  0
   20.8043   -4.7309  -16.9231 C   0  0  2  0  0  0  0  0  0  0  0  0
   22.3406   -5.8300  -15.4360 N   0  0  0  0  0  0  0  0  0  0  0  0
   22.0800   -7.0576  -16.2018 C   0  0  0  0  0  0  0  0  0  0  0  0
   21.4913   -5.7098  -14.2542 O   0  0  0  0  0  0  0  0  0  0  0  0
   21.7768   -4.6711  -13.3708 O   0  0  0  0  0  0  0  0  0  0  0  0
  2  1  1  6
  2  7  1  0
  2  3  1  0
  4  3  1  0
  4  5  1  0
  5  6  2  0
  7  8  2  0
  9  5  1  0
 11 12  2  0
 11 10  1  0
 13 11  1  0
 14 15  1  0
 14 13  1  0
 16 15  1  0
 17 16  1  1
 18 17  1  0
 18  7  1  0
 19 20  2  0
 19 17  1  0
 22 21  1  6
 22 23  1  0
 24 22  1  0
 24 25  1  1
 25 19  1  0
 26 27  1  0
 26 24  1  0
 28 26  2  0
M  END
$$$$
