ERT.pdb
     RDKit          3D

 28 27  0  0  1  0  0  0  0  0999 V2000
   26.5239  -21.6252  -13.6818 N   0  0  0  0  0  0  0  0  0  0  0  0
   25.5347  -20.9200  -12.9023 C   0  0  1  0  0  0  0  0  0  0  0  0
   26.2029  -20.2125  -11.7748 C   0  0  0  0  0  0  0  0  0  0  0  0
   25.9358  -20.9273  -10.4817 C   0  0  0  0  0  0  0  0  0  0  0  0
   24.5421  -20.9235  -10.0320 C   0  0  0  0  0  0  0  0  0  0  0  0
   24.2428  -20.6618   -8.8415 O   0  0  0  0  0  0  0  0  0  0  0  0
   24.8057  -19.9907  -13.8097 C   0  0  0  0  0  0  0  0  0  0  0  0
   23.8339  -19.3034  -13.4116 O   0  0  0  0  0  0  0  0  0  0  0  0
   23.5098  -21.2096  -10.9117 O   0  0  0  0  0  0  0  0  0  0  0  0
   23.8286  -18.3017  -20.3168 N   0  0  0  0  0  0  0  0  0  0  0  0
   24.9153  -17.5798  -20.9157 C   0  0  0  0  0  0  0  0  0  0  0  0
   25.3037  -17.8783  -22.0877 N   0  0  0  0  0  0  0  0  0  0  0  0
   25.5618  -16.5186  -20.1863 N   0  0  0  0  0  0  0  0  0  0  0  0
   26.1276  -16.7522  -18.8736 C   0  0  0  0  0  0  0  0  0  0  0  0
   25.0495  -17.3197  -17.9754 C   0  0  0  0  0  0  0  0  0  0  0  0
   25.6025  -18.3671  -17.0540 C   0  0  0  0  0  0  0  0  0  0  0  0
   24.6540  -18.9110  -16.0666 C   0  0  2  0  0  0  0  0  0  0  0  0
   25.2211  -19.8809  -15.1564 N   0  0  0  0  0  0  0  0  0  0  0  0
   23.3136  -19.3052  -16.5964 C   0  0  0  0  0  0  0  0  0  0  0  0
   23.1311  -20.2259  -17.4261 O   0  0  0  0  0  0  0  0  0  0  0  0
   26.1297  -17.4032  -22.5044 C   0  0  0  0  0  0  0  0  0  0  0  0
   20.5424  -20.5853  -14.7615 C   0  0  2  0  0  0  0  0  0  0  0  0
   19.9787  -19.3873  -15.4882 O   0  0  0  0  0  0  0  0  0  0  0  0
   19.8906  -18.3082  -14.6022 C   0  0  2  0  0  0  0  0  0  0  0  0
   20.8101  -19.0130  -16.7088 N   0  0  0  0  0  0  0  0  0  0  0  0
   22.1279  -18.6373  -16.1762 C   0  0  0  0  0  0  0  0  0  0  0  0
   20.1873  -17.9431  -17.4835 O   0  0  0  0  0  0  0  0  0  0  0  0
   18.9881  -18.2410  -18.1267 O   0  0  0  0  0  0  0  0  0  0  0  0
  2  1  1  6
  2  7  1  0
  2  3  1  0
  4  3  1  0
  4  5  1  0
  5  6  2  0
  7  8  2  0
  9  5  1  0
 11 12  2  0
 11 10  1  0
 13 11  1  0
 14 15  1  0
 14 13  1  0
 16 15  1  0
 17 16  1  6
 18 17  1  0
 18  7  1  0
 19 20  2  0
 19 17  1  0
 22 21  1  1
 22 23  1  0
 24 22  1  0
 24 25  1  6
 25 19  1  0
 26 27  1  0
 26 24  1  0
 28 26  2  0
M  END
$$$$
