ERT.pdb
     RDKit          3D

 28 27  0  0  1  0  0  0  0  0999 V2000
   18.3245  -10.9906  -17.4590 N   0  0  0  0  0  0  0  0  0  0  0  0
   18.1209  -10.3877  -16.1635 C   0  0  1  0  0  0  0  0  0  0  0  0
   17.8530  -11.4522  -15.1568 C   0  0  0  0  0  0  0  0  0  0  0  0
   16.7897  -12.3861  -15.6587 C   0  0  0  0  0  0  0  0  0  0  0  0
   16.5539  -13.5764  -14.8389 C   0  0  0  0  0  0  0  0  0  0  0  0
   17.4912  -14.1378  -14.2211 O   0  0  0  0  0  0  0  0  0  0  0  0
   19.3273   -9.5787  -15.8339 C   0  0  0  0  0  0  0  0  0  0  0  0
   19.3952   -8.8871  -14.7887 O   0  0  0  0  0  0  0  0  0  0  0  0
   15.2838  -14.1191  -14.7213 O   0  0  0  0  0  0  0  0  0  0  0  0
   25.6436   -6.5030  -20.3242 N   0  0  0  0  0  0  0  0  0  0  0  0
   26.4171   -6.6133  -19.1201 C   0  0  0  0  0  0  0  0  0  0  0  0
   27.3800   -5.8116  -18.9107 N   0  0  0  0  0  0  0  0  0  0  0  0
   26.0992   -7.6324  -18.1523 N   0  0  0  0  0  0  0  0  0  0  0  0
   24.9654   -8.5136  -18.3415 C   0  0  0  0  0  0  0  0  0  0  0  0
   23.9427   -8.2255  -17.2634 C   0  0  0  0  0  0  0  0  0  0  0  0
   22.7332   -9.1013  -17.4108 C   0  0  0  0  0  0  0  0  0  0  0  0
   21.6158   -8.8021  -16.4986 C   0  0  2  0  0  0  0  0  0  0  0  0
   20.4254   -9.5912  -16.7240 N   0  0  0  0  0  0  0  0  0  0  0  0
   21.3336   -7.3535  -16.2643 C   0  0  0  0  0  0  0  0  0  0  0  0
   21.1230   -6.5237  -17.1788 O   0  0  0  0  0  0  0  0  0  0  0  0
   27.9340   -5.8738  -18.0328 C   0  0  0  0  0  0  0  0  0  0  0  0
   19.4773   -3.7608  -13.7745 C   0  0  2  0  0  0  0  0  0  0  0  0
   19.7086   -5.1349  -14.3570 O   0  0  0  0  0  0  0  0  0  0  0  0
   18.8909   -5.3052  -15.4792 C   0  0  1  0  0  0  0  0  0  0  0  0
   21.1706   -5.3665  -14.7179 N   0  0  0  0  0  0  0  0  0  0  0  0
   21.2855   -6.8142  -14.9469 C   0  0  0  0  0  0  0  0  0  0  0  0
   22.0711   -4.8859  -13.6736 O   0  0  0  0  0  0  0  0  0  0  0  0
   22.3683   -5.7678  -12.6370 O   0  0  0  0  0  0  0  0  0  0  0  0
  2  1  1  6
  2  7  1  0
  2  3  1  0
  4  3  1  0
  4  5  1  0
  5  6  2  0
  7  8  2  0
  9  5  1  0
 11 12  2  0
 11 10  1  0
 13 11  1  0
 14 15  1  0
 14 13  1  0
 16 15  1  0
 17 16  1  6
 18 17  1  0
 18  7  1  0
 19 20  2  0
 19 17  1  0
 22 21  1  1
 22 23  1  0
 24 22  1  0
 24 25  1  1
 25 19  1  0
 26 27  1  0
 26 24  1  0
 28 26  2  0
M  END
$$$$
