ERT.pdb
     RDKit          3D

 28 27  0  0  1  0  0  0  0  0999 V2000
   20.4756   -8.2375  -11.8649 N   0  0  0  0  0  0  0  0  0  0  0  0
   19.8981   -7.1366  -12.5982 C   0  0  1  0  0  0  0  0  0  0  0  0
   19.9724   -7.4192  -14.0586 C   0  0  0  0  0  0  0  0  0  0  0  0
   19.1819   -8.6519  -14.3901 C   0  0  0  0  0  0  0  0  0  0  0  0
   19.9672   -9.8691  -14.6051 C   0  0  0  0  0  0  0  0  0  0  0  0
   20.0574  -10.7513  -13.7167 O   0  0  0  0  0  0  0  0  0  0  0  0
   18.4996   -6.9456  -12.1225 C   0  0  0  0  0  0  0  0  0  0  0  0
   17.7562   -6.0512  -12.5944 O   0  0  0  0  0  0  0  0  0  0  0  0
   20.6358  -10.0827  -15.8004 O   0  0  0  0  0  0  0  0  0  0  0  0
   12.0475  -12.3703   -9.4027 N   0  0  0  0  0  0  0  0  0  0  0  0
   11.6030  -11.0392   -9.1006 C   0  0  0  0  0  0  0  0  0  0  0  0
   10.4221  -10.8480   -8.6735 N   0  0  0  0  0  0  0  0  0  0  0  0
   12.4974   -9.9243   -9.2823 N   0  0  0  0  0  0  0  0  0  0  0  0
   13.8302  -10.1158   -9.8160 C   0  0  0  0  0  0  0  0  0  0  0  0
   14.5172   -8.7695   -9.8986 C   0  0  0  0  0  0  0  0  0  0  0  0
   15.9338   -8.9082  -10.3738 C   0  0  0  0  0  0  0  0  0  0  0  0
   16.6691   -7.6452  -10.5597 C   0  0  2  0  0  0  0  0  0  0  0  0
   17.9971   -7.7962  -11.1114 N   0  0  0  0  0  0  0  0  0  0  0  0
   16.6037   -6.6776   -9.4229 C   0  0  0  0  0  0  0  0  0  0  0  0
   17.2653   -6.7932   -8.3654 O   0  0  0  0  0  0  0  0  0  0  0  0
   10.0803   -9.8834   -8.4880 C   0  0  0  0  0  0  0  0  0  0  0  0
   14.8407   -2.8495   -9.9379 C   0  0  2  0  0  0  0  0  0  0  0  0
   15.8822   -3.2249   -8.9106 O   0  0  0  0  0  0  0  0  0  0  0  0
   15.8962   -2.2643   -7.8937 C   0  0  1  0  0  0  0  0  0  0  0  0
   15.6438   -4.6145   -8.3331 N   0  0  0  0  0  0  0  0  0  0  0  0
   15.7600   -5.5314   -9.4764 C   0  0  0  0  0  0  0  0  0  0  0  0
   14.3507   -4.7095   -7.6612 O   0  0  0  0  0  0  0  0  0  0  0  0
   14.1973   -3.9931   -6.4764 O   0  0  0  0  0  0  0  0  0  0  0  0
  2  1  1  1
  2  7  1  0
  2  3  1  0
  4  3  1  0
  4  5  1  0
  5  6  2  0
  7  8  2  0
  9  5  1  0
 11 12  2  0
 11 10  1  0
 13 11  1  0
 14 15  1  0
 14 13  1  0
 16 15  1  0
 17 16  1  1
 18 17  1  0
 18  7  1  0
 19 20  2  0
 19 17  1  0
 22 21  1  6
 22 23  1  0
 24 22  1  0
 24 25  1  6
 25 19  1  0
 26 27  1  0
 26 24  1  0
 28 26  2  0
M  END
$$$$
