ERT.pdb
     RDKit          3D

 28 27  0  0  1  0  0  0  0  0999 V2000
   23.7371  -18.2644  -16.9584 N   0  0  0  0  0  0  0  0  0  0  0  0
   22.6185  -18.8770  -17.6343 C   0  0  1  0  0  0  0  0  0  0  0  0
   23.1199  -19.7650  -18.7199 C   0  0  0  0  0  0  0  0  0  0  0  0
   23.9725  -18.9838  -19.6778 C   0  0  0  0  0  0  0  0  0  0  0  0
   24.2593  -19.6436  -20.9533 C   0  0  0  0  0  0  0  0  0  0  0  0
   23.8919  -19.1413  -22.0433 O   0  0  0  0  0  0  0  0  0  0  0  0
   21.8105  -19.6115  -16.6213 C   0  0  0  0  0  0  0  0  0  0  0  0
   21.2786  -20.7195  -16.8757 O   0  0  0  0  0  0  0  0  0  0  0  0
   24.9474  -20.8462  -20.9934 O   0  0  0  0  0  0  0  0  0  0  0  0
   25.5147  -22.1096  -11.6853 N   0  0  0  0  0  0  0  0  0  0  0  0
   24.9677  -21.3668  -10.5854 C   0  0  0  0  0  0  0  0  0  0  0  0
   25.6919  -21.1072   -9.5746 N   0  0  0  0  0  0  0  0  0  0  0  0
   23.5995  -20.9174  -10.6312 N   0  0  0  0  0  0  0  0  0  0  0  0
   22.7134  -21.3313  -11.6996 C   0  0  0  0  0  0  0  0  0  0  0  0
   22.7545  -20.2873  -12.7949 C   0  0  0  0  0  0  0  0  0  0  0  0
   21.4228  -19.6153  -12.9583 C   0  0  0  0  0  0  0  0  0  0  0  0
   20.8415  -19.6751  -14.3107 C   0  0  2  0  0  0  0  0  0  0  0  0
   21.6389  -19.0436  -15.3383 N   0  0  0  0  0  0  0  0  0  0  0  0
   19.3844  -19.3591  -14.4101 C   0  0  0  0  0  0  0  0  0  0  0  0
   18.8658  -18.3019  -13.9824 O   0  0  0  0  0  0  0  0  0  0  0  0
   25.2839  -20.6329   -8.7438 C   0  0  0  0  0  0  0  0  0  0  0  0
   17.1585  -20.0996  -17.6008 C   0  0  2  0  0  0  0  0  0  0  0  0
   16.5445  -20.6784  -16.3483 O   0  0  0  0  0  0  0  0  0  0  0  0
   16.8257  -22.0474  -16.2853 C   0  0  2  0  0  0  0  0  0  0  0  0
   17.0332  -19.9716  -15.0902 N   0  0  0  0  0  0  0  0  0  0  0  0
   18.4712  -20.2687  -15.0159 C   0  0  0  0  0  0  0  0  0  0  0  0
   16.3035  -20.4084  -13.9030 O   0  0  0  0  0  0  0  0  0  0  0  0
   16.9749  -21.2511  -13.0200 O   0  0  0  0  0  0  0  0  0  0  0  0
  2  1  1  1
  2  7  1  0
  2  3  1  0
  4  3  1  0
  4  5  1  0
  5  6  2  0
  7  8  2  0
  9  5  1  0
 11 12  2  0
 11 10  1  0
 13 11  1  0
 14 15  1  0
 14 13  1  0
 16 15  1  0
 17 16  1  1
 18 17  1  0
 18  7  1  0
 19 20  2  0
 19 17  1  0
 22 21  1  6
 22 23  1  0
 24 22  1  0
 24 25  1  1
 25 19  1  0
 26 27  1  0
 26 24  1  0
 28 26  2  0
M  END
$$$$
