ERT.pdb
     RDKit          3D

 28 27  0  0  1  0  0  0  0  0999 V2000
   26.6108  -20.4160  -17.4461 N   0  0  0  0  0  0  0  0  0  0  0  0
   25.9340  -21.6838  -17.5794 C   0  0  1  0  0  0  0  0  0  0  0  0
   26.8876  -22.7893  -17.2844 C   0  0  0  0  0  0  0  0  0  0  0  0
   28.2933  -22.2637  -17.2360 C   0  0  0  0  0  0  0  0  0  0  0  0
   29.3371  -23.2666  -17.0142 C   0  0  0  0  0  0  0  0  0  0  0  0
   30.5513  -22.9489  -16.9927 O   0  0  0  0  0  0  0  0  0  0  0  0
   24.7598  -21.6810  -16.6630 C   0  0  0  0  0  0  0  0  0  0  0  0
   23.9704  -22.6545  -16.5956 O   0  0  0  0  0  0  0  0  0  0  0  0
   29.0129  -24.6003  -16.8210 O   0  0  0  0  0  0  0  0  0  0  0  0
   24.0652  -20.6685   -8.7224 N   0  0  0  0  0  0  0  0  0  0  0  0
   25.4289  -20.8707   -9.1224 C   0  0  0  0  0  0  0  0  0  0  0  0
   26.2994  -21.2018   -8.2586 N   0  0  0  0  0  0  0  0  0  0  0  0
   25.8063  -20.6981  -10.5023 N   0  0  0  0  0  0  0  0  0  0  0  0
   25.0286  -19.8575  -11.3892 C   0  0  0  0  0  0  0  0  0  0  0  0
   24.6617  -20.6598  -12.6191 C   0  0  0  0  0  0  0  0  0  0  0  0
   23.8681  -19.8365  -13.5908 C   0  0  0  0  0  0  0  0  0  0  0  0
   23.4908  -20.5169  -14.8419 C   0  0  2  0  0  0  0  0  0  0  0  0
   24.5293  -20.5497  -15.8473 N   0  0  0  0  0  0  0  0  0  0  0  0
   22.1429  -20.1765  -15.3898 C   0  0  0  0  0  0  0  0  0  0  0  0
   21.8438  -19.0593  -15.8713 O   0  0  0  0  0  0  0  0  0  0  0  0
   27.3063  -21.2420   -8.5162 C   0  0  0  0  0  0  0  0  0  0  0  0
   20.0205  -22.1869  -17.9026 C   0  0  2  0  0  0  0  0  0  0  0  0
   19.2358  -21.9757  -16.6297 O   0  0  0  0  0  0  0  0  0  0  0  0
   19.3005  -23.1345  -15.8486 C   0  0  2  0  0  0  0  0  0  0  0  0
   19.7327  -20.7695  -15.8427 N   0  0  0  0  0  0  0  0  0  0  0  0
   21.0863  -21.1315  -15.3977 C   0  0  0  0  0  0  0  0  0  0  0  0
   18.8421  -20.4396  -14.7334 O   0  0  0  0  0  0  0  0  0  0  0  0
   17.5996  -19.8990  -15.0566 O   0  0  0  0  0  0  0  0  0  0  0  0
  2  1  1  1
  2  7  1  0
  2  3  1  0
  4  3  1  0
  4  5  1  0
  5  6  2  0
  7  8  2  0
  9  5  1  0
 11 12  2  0
 11 10  1  0
 13 11  1  0
 14 15  1  0
 14 13  1  0
 16 15  1  0
 17 16  1  1
 18 17  1  0
 18  7  1  0
 19 20  2  0
 19 17  1  0
 22 21  1  6
 22 23  1  0
 24 22  1  0
 24 25  1  1
 25 19  1  0
 26 27  1  0
 26 24  1  0
 28 26  2  0
M  END
$$$$
