CTR.pdb
     RDKit          3D

 25 24  0  0  1  0  0  0  0  0999 V2000
   10.5796  -16.0093   16.7684 N   0  0  0  0  0  0  0  0  0  0  0  0
    9.9430  -16.6634   17.8721 C   0  0  1  0  0  0  0  0  0  0  0  0
   10.7759  -17.8328   18.3773 C   0  0  0  0  0  0  0  0  0  0  0  0
   10.8073  -19.1971   17.1886 S   0  0  0  0  0  0  0  0  0  0  0  0
    9.7214  -15.7481   19.0211 C   0  0  0  0  0  0  0  0  0  0  0  0
   10.6489  -14.9851   19.3566 O   0  0  0  0  0  0  0  0  0  0  0  0
    7.1974  -13.1061   19.2302 C   0  0  0  0  0  0  0  0  0  0  0  0
    7.0478  -13.9795   20.4254 C   0  0  1  0  0  0  0  0  0  0  0  0
    6.0823  -14.9617   20.0973 O   0  0  0  0  0  0  0  0  0  0  0  0
    8.2728  -14.7353   20.8410 C   0  0  2  0  0  0  0  0  0  0  0  0
    8.5094  -15.7032   19.7500 N   0  0  0  0  0  0  0  0  0  0  0  0
    8.1525  -15.4968   22.0856 C   0  0  0  0  0  0  0  0  0  0  0  0
    7.9123  -16.7495   22.0901 O   0  0  0  0  0  0  0  0  0  0  0  0
   11.1854  -16.1650   30.8911 N   0  0  0  0  0  0  0  0  0  0  0  0
   11.0426  -15.2951   29.7843 C   0  0  0  0  0  0  0  0  0  0  0  0
   10.7176  -14.0647   29.9789 N   0  0  0  0  0  0  0  0  0  0  0  0
   11.2447  -15.7153   28.4410 N   0  0  0  0  0  0  0  0  0  0  0  0
   10.7166  -15.0129   27.2930 C   0  0  0  0  0  0  0  0  0  0  0  0
    9.6627  -15.7998   26.5748 C   0  0  0  0  0  0  0  0  0  0  0  0
    8.7001  -15.0136   25.7699 C   0  0  0  0  0  0  0  0  0  0  0  0
    8.0744  -15.6673   24.5978 C   0  0  2  0  0  0  0  0  0  0  0  0
    8.2932  -14.9039   23.3659 N   0  0  0  0  0  0  0  0  0  0  0  0
    6.6570  -16.0488   24.7598 C   0  0  0  0  0  0  0  0  0  0  0  0
    5.7234  -15.4075   24.2236 O   0  0  0  0  0  0  0  0  0  0  0  0
    6.3191  -17.1516   25.5296 O   0  0  0  0  0  0  0  0  0  0  0  0
  2  1  1  6
  3  2  1  0
  3  4  1  0
  5  6  2  0
  5  2  1  0
  8  7  1  6
  8 10  1  0
  9  8  1  0
 10 12  1  0
 10 11  1  6
 11  5  1  0
 12 22  1  0
 13 12  2  0
 15 17  1  0
 15 14  1  0
 16 15  2  0
 18 17  1  0
 19 18  1  0
 20 19  1  0
 21 20  1  1
 22 21  1  0
 23 21  1  0
 23 25  1  0
 24 23  2  0
M  END
$$$$
