CTR.pdb
     RDKit          3D

 25 24  0  0  1  0  0  0  0  0999 V2000
   12.8263  -18.9488   14.4130 N   0  0  0  0  0  0  0  0  0  0  0  0
   13.4789  -18.7774   15.6763 C   0  0  1  0  0  0  0  0  0  0  0  0
   14.1505  -17.4149   15.7716 C   0  0  0  0  0  0  0  0  0  0  0  0
   15.2447  -17.1063   14.3635 S   0  0  0  0  0  0  0  0  0  0  0  0
   12.5367  -18.8880   16.8196 C   0  0  0  0  0  0  0  0  0  0  0  0
   11.3315  -18.6385   16.6187 O   0  0  0  0  0  0  0  0  0  0  0  0
   12.7338  -22.0239   19.0033 C   0  0  0  0  0  0  0  0  0  0  0  0
   12.5722  -20.8162   19.8571 C   0  0  1  0  0  0  0  0  0  0  0  0
   13.8701  -20.4277   20.2681 O   0  0  0  0  0  0  0  0  0  0  0  0
   11.9806  -19.6146   19.1858 C   0  0  2  0  0  0  0  0  0  0  0  0
   12.9437  -19.2621   18.1221 N   0  0  0  0  0  0  0  0  0  0  0  0
   11.8139  -18.4347   20.0363 C   0  0  0  0  0  0  0  0  0  0  0  0
   12.7308  -17.5566   20.1601 O   0  0  0  0  0  0  0  0  0  0  0  0
    7.7030  -13.3037   17.7052 N   0  0  0  0  0  0  0  0  0  0  0  0
    7.7577  -13.0974   19.1040 C   0  0  0  0  0  0  0  0  0  0  0  0
    7.2798  -12.0130   19.6071 N   0  0  0  0  0  0  0  0  0  0  0  0
    8.3222  -14.0439   20.0024 N   0  0  0  0  0  0  0  0  0  0  0  0
    8.2722  -13.9126   21.4414 C   0  0  0  0  0  0  0  0  0  0  0  0
    8.9104  -15.0715   22.1450 C   0  0  0  0  0  0  0  0  0  0  0  0
    9.2543  -16.2365   21.2983 C   0  0  0  0  0  0  0  0  0  0  0  0
   10.4880  -16.9905   21.6183 C   0  0  2  0  0  0  0  0  0  0  0  0
   10.6320  -18.1828   20.7781 N   0  0  0  0  0  0  0  0  0  0  0  0
   10.6950  -17.3007   23.0471 C   0  0  0  0  0  0  0  0  0  0  0  0
   10.7389  -18.4759   23.4797 O   0  0  0  0  0  0  0  0  0  0  0  0
   10.8476  -16.2725   23.9651 O   0  0  0  0  0  0  0  0  0  0  0  0
  2  1  1  6
  3  2  1  0
  3  4  1  0
  5  6  2  0
  5  2  1  0
  8  7  1  6
  8 10  1  0
  9  8  1  0
 10 12  1  0
 10 11  1  6
 11  5  1  0
 12 22  1  0
 13 12  2  0
 15 17  1  0
 15 14  1  0
 16 15  2  0
 18 17  1  0
 19 18  1  0
 20 19  1  0
 21 20  1  1
 22 21  1  0
 23 21  1  0
 23 25  1  0
 24 23  2  0
M  END
$$$$
