CTR.pdb
     RDKit          3D

 25 24  0  0  1  0  0  0  0  0999 V2000
    8.3449  -14.7097   13.8049 N   0  0  0  0  0  0  0  0  0  0  0  0
    8.2237  -15.4168   15.0445 C   0  0  1  0  0  0  0  0  0  0  0  0
    8.9105  -16.7734   14.9769 C   0  0  0  0  0  0  0  0  0  0  0  0
   10.6883  -16.6113   14.6795 S   0  0  0  0  0  0  0  0  0  0  0  0
    8.8238  -14.6724   16.1815 C   0  0  0  0  0  0  0  0  0  0  0  0
    9.7749  -13.9008   15.9468 O   0  0  0  0  0  0  0  0  0  0  0  0
    6.7620  -13.0273   19.1553 C   0  0  0  0  0  0  0  0  0  0  0  0
    7.8952  -13.8669   19.6293 C   0  0  1  0  0  0  0  0  0  0  0  0
    7.3660  -15.1497   19.9098 O   0  0  0  0  0  0  0  0  0  0  0  0
    9.0017  -14.0891   18.6441 C   0  0  2  0  0  0  0  0  0  0  0  0
    8.3668  -14.7992   17.5146 N   0  0  0  0  0  0  0  0  0  0  0  0
   10.1109  -14.9193   19.1174 C   0  0  0  0  0  0  0  0  0  0  0  0
   10.2404  -16.1382   18.7642 O   0  0  0  0  0  0  0  0  0  0  0  0
   16.9369  -13.0080   17.9209 N   0  0  0  0  0  0  0  0  0  0  0  0
   16.8614  -14.4015   17.6869 C   0  0  0  0  0  0  0  0  0  0  0  0
   17.1105  -14.8645   16.5117 N   0  0  0  0  0  0  0  0  0  0  0  0
   16.5197  -15.3373   18.7015 N   0  0  0  0  0  0  0  0  0  0  0  0
   16.0463  -14.9595   20.0144 C   0  0  0  0  0  0  0  0  0  0  0  0
   14.7244  -15.5816   20.3476 C   0  0  0  0  0  0  0  0  0  0  0  0
   13.5326  -14.7298   20.1320 C   0  0  0  0  0  0  0  0  0  0  0  0
   12.2044  -15.2917   20.4682 C   0  0  2  0  0  0  0  0  0  0  0  0
   11.1137  -14.4347   19.9948 N   0  0  0  0  0  0  0  0  0  0  0  0
   12.0160  -15.6869   21.8786 C   0  0  0  0  0  0  0  0  0  0  0  0
   12.7725  -16.5034   22.4540 O   0  0  0  0  0  0  0  0  0  0  0  0
   10.9705  -15.1509   22.6153 O   0  0  0  0  0  0  0  0  0  0  0  0
  2  1  1  6
  3  2  1  0
  3  4  1  0
  5  6  2  0
  5  2  1  0
  8  7  1  6
  8 10  1  0
  9  8  1  0
 10 12  1  0
 10 11  1  6
 11  5  1  0
 12 22  1  0
 13 12  2  0
 15 17  1  0
 15 14  1  0
 16 15  2  0
 18 17  1  0
 19 18  1  0
 20 19  1  0
 21 20  1  1
 22 21  1  0
 23 21  1  0
 23 25  1  0
 24 23  2  0
M  END
$$$$
