CTR.pdb
     RDKit          3D

 25 24  0  0  1  0  0  0  0  0999 V2000
    9.9630  -18.1364   15.2171 N   0  0  0  0  0  0  0  0  0  0  0  0
   10.5530  -17.2909   16.2111 C   0  0  1  0  0  0  0  0  0  0  0  0
    9.7872  -15.9830   16.3502 C   0  0  0  0  0  0  0  0  0  0  0  0
    9.7075  -15.0822   14.7826 S   0  0  0  0  0  0  0  0  0  0  0  0
   10.5849  -17.9305   17.5516 C   0  0  0  0  0  0  0  0  0  0  0  0
    9.5360  -18.4471   17.9852 O   0  0  0  0  0  0  0  0  0  0  0  0
   12.8164  -20.6849   18.3858 C   0  0  0  0  0  0  0  0  0  0  0  0
   12.9527  -19.6745   19.4695 C   0  0  1  0  0  0  0  0  0  0  0  0
   14.0712  -18.8705   19.1423 O   0  0  0  0  0  0  0  0  0  0  0  0
   11.8030  -18.7274   19.6294 C   0  0  2  0  0  0  0  0  0  0  0  0
   11.7478  -17.9797   18.3563 N   0  0  0  0  0  0  0  0  0  0  0  0
   11.9379  -17.7477   20.7090 C   0  0  0  0  0  0  0  0  0  0  0  0
   12.7336  -16.7543   20.6236 O   0  0  0  0  0  0  0  0  0  0  0  0
    6.0495  -13.4802   20.4623 N   0  0  0  0  0  0  0  0  0  0  0  0
    7.3108  -13.2444   19.8659 C   0  0  0  0  0  0  0  0  0  0  0  0
    7.3904  -12.5040   18.8157 N   0  0  0  0  0  0  0  0  0  0  0  0
    8.5203  -13.7913   20.3759 N   0  0  0  0  0  0  0  0  0  0  0  0
    8.5813  -14.6788   21.5156 C   0  0  0  0  0  0  0  0  0  0  0  0
    9.9851  -14.9139   21.9842 C   0  0  0  0  0  0  0  0  0  0  0  0
   10.1542  -15.9341   23.0439 C   0  0  0  0  0  0  0  0  0  0  0  0
   11.3370  -16.8223   22.9737 C   0  0  2  0  0  0  0  0  0  0  0  0
   11.2011  -17.8295   21.9176 N   0  0  0  0  0  0  0  0  0  0  0  0
   11.7599  -17.4259   24.2533 C   0  0  0  0  0  0  0  0  0  0  0  0
   11.7432  -18.6633   24.4502 O   0  0  0  0  0  0  0  0  0  0  0  0
   12.1942  -16.6163   25.2921 O   0  0  0  0  0  0  0  0  0  0  0  0
  2  1  1  6
  3  2  1  0
  3  4  1  0
  5  6  2  0
  5  2  1  0
  8  7  1  6
  8 10  1  0
  9  8  1  0
 10 12  1  0
 10 11  1  6
 11  5  1  0
 12 22  1  0
 13 12  2  0
 15 17  1  0
 15 14  1  0
 16 15  2  0
 18 17  1  0
 19 18  1  0
 20 19  1  0
 21 20  1  1
 22 21  1  0
 23 21  1  0
 23 25  1  0
 24 23  2  0
M  END
$$$$
