CTR.pdb
     RDKit          3D

 25 24  0  0  1  0  0  0  0  0999 V2000
    7.3975  -12.8688   17.0646 N   0  0  0  0  0  0  0  0  0  0  0  0
    8.0818  -14.1032   17.3082 C   0  0  1  0  0  0  0  0  0  0  0  0
    9.4587  -14.1096   16.6598 C   0  0  0  0  0  0  0  0  0  0  0  0
    9.3608  -14.4221   14.8799 S   0  0  0  0  0  0  0  0  0  0  0  0
    8.2732  -14.3678   18.7574 C   0  0  0  0  0  0  0  0  0  0  0  0
    8.4892  -13.3986   19.5119 O   0  0  0  0  0  0  0  0  0  0  0  0
    7.1394  -18.0925   20.4029 C   0  0  0  0  0  0  0  0  0  0  0  0
    7.2164  -16.7958   21.1286 C   0  0  1  0  0  0  0  0  0  0  0  0
    7.3805  -17.1029   22.5009 O   0  0  0  0  0  0  0  0  0  0  0  0
    8.3710  -15.9118   20.7680 C   0  0  2  0  0  0  0  0  0  0  0  0
    8.2219  -15.6656   19.3188 N   0  0  0  0  0  0  0  0  0  0  0  0
    9.6991  -16.4899   20.9813 C   0  0  0  0  0  0  0  0  0  0  0  0
   10.2135  -17.3205   20.1611 O   0  0  0  0  0  0  0  0  0  0  0  0
   15.5316  -13.4256   18.1880 N   0  0  0  0  0  0  0  0  0  0  0  0
   15.7414  -14.7569   18.6191 C   0  0  0  0  0  0  0  0  0  0  0  0
   15.7369  -15.7136   17.7576 N   0  0  0  0  0  0  0  0  0  0  0  0
   15.9633  -15.1016   19.9807 N   0  0  0  0  0  0  0  0  0  0  0  0
   15.1145  -14.6655   21.0668 C   0  0  0  0  0  0  0  0  0  0  0  0
   14.2590  -15.7719   21.6052 C   0  0  0  0  0  0  0  0  0  0  0  0
   12.8121  -15.4785   21.7179 C   0  0  0  0  0  0  0  0  0  0  0  0
   11.9149  -16.5632   22.1775 C   0  0  2  0  0  0  0  0  0  0  0  0
   10.5043  -16.1723   22.1043 N   0  0  0  0  0  0  0  0  0  0  0  0
   12.2499  -17.1580   23.4870 C   0  0  0  0  0  0  0  0  0  0  0  0
   13.3714  -17.6619   23.7286 O   0  0  0  0  0  0  0  0  0  0  0  0
   11.3064  -17.1741   24.5032 O   0  0  0  0  0  0  0  0  0  0  0  0
  2  1  1  1
  3  2  1  0
  3  4  1  0
  5  6  2  0
  5  2  1  0
  8  7  1  6
  8 10  1  0
  9  8  1  0
 10 12  1  0
 10 11  1  6
 11  5  1  0
 12 22  1  0
 13 12  2  0
 15 17  1  0
 15 14  1  0
 16 15  2  0
 18 17  1  0
 19 18  1  0
 20 19  1  0
 21 20  1  1
 22 21  1  0
 23 21  1  0
 23 25  1  0
 24 23  2  0
M  END
$$$$
