CTR.pdb
     RDKit          3D

 25 24  0  0  1  0  0  0  0  0999 V2000
    8.4753  -16.2764   15.6445 N   0  0  0  0  0  0  0  0  0  0  0  0
    7.8654  -16.5984   16.8996 C   0  0  1  0  0  0  0  0  0  0  0  0
    7.7307  -18.1038   17.0791 C   0  0  0  0  0  0  0  0  0  0  0  0
    7.0620  -18.5283   18.7064 S   0  0  0  0  0  0  0  0  0  0  0  0
    8.6428  -16.0822   18.0555 C   0  0  0  0  0  0  0  0  0  0  0  0
    9.8809  -16.2313   18.0493 O   0  0  0  0  0  0  0  0  0  0  0  0
    7.5643  -12.6285   19.7389 C   0  0  0  0  0  0  0  0  0  0  0  0
    7.9481  -13.6717   20.7279 C   0  0  1  0  0  0  0  0  0  0  0  0
    6.7516  -14.3074   21.1387 O   0  0  0  0  0  0  0  0  0  0  0  0
    8.8349  -14.7648   20.2152 C   0  0  2  0  0  0  0  0  0  0  0  0
    8.0440  -15.4312   19.1600 N   0  0  0  0  0  0  0  0  0  0  0  0
    9.2088  -15.7861   21.1952 C   0  0  0  0  0  0  0  0  0  0  0  0
    8.4862  -16.8159   21.4063 O   0  0  0  0  0  0  0  0  0  0  0  0
   13.6370  -20.8062   19.0618 N   0  0  0  0  0  0  0  0  0  0  0  0
   14.4569  -19.7034   19.3992 C   0  0  0  0  0  0  0  0  0  0  0  0
   15.2793  -19.2312   18.5285 N   0  0  0  0  0  0  0  0  0  0  0  0
   14.4191  -19.0747   20.6741 N   0  0  0  0  0  0  0  0  0  0  0  0
   13.2304  -18.9929   21.4930 C   0  0  0  0  0  0  0  0  0  0  0  0
   12.6531  -17.6105   21.5284 C   0  0  0  0  0  0  0  0  0  0  0  0
   12.1598  -17.1458   22.8448 C   0  0  0  0  0  0  0  0  0  0  0  0
   10.7396  -16.7408   22.9535 C   0  0  2  0  0  0  0  0  0  0  0  0
   10.3906  -15.7072   21.9747 N   0  0  0  0  0  0  0  0  0  0  0  0
   10.2781  -16.3863   24.3107 C   0  0  0  0  0  0  0  0  0  0  0  0
    9.7853  -15.2664   24.5813 O   0  0  0  0  0  0  0  0  0  0  0  0
   10.3841  -17.3072   25.3420 O   0  0  0  0  0  0  0  0  0  0  0  0
  2  1  1  6
  3  2  1  0
  3  4  1  0
  5  6  2  0
  5  2  1  0
  8  7  1  6
  8 10  1  0
  9  8  1  0
 10 12  1  0
 10 11  1  6
 11  5  1  0
 12 22  1  0
 13 12  2  0
 15 17  1  0
 15 14  1  0
 16 15  2  0
 18 17  1  0
 19 18  1  0
 20 19  1  0
 21 20  1  1
 22 21  1  0
 23 21  1  0
 23 25  1  0
 24 23  2  0
M  END
$$$$
