CTR.pdb
     RDKit          3D

 25 24  0  0  1  0  0  0  0  0999 V2000
    7.7982  -14.9616   16.7183 N   0  0  0  0  0  0  0  0  0  0  0  0
    8.7247  -14.5714   17.7383 C   0  0  1  0  0  0  0  0  0  0  0  0
    8.1798  -13.4181   18.5687 C   0  0  0  0  0  0  0  0  0  0  0  0
    7.9916  -11.9120   17.5831 S   0  0  0  0  0  0  0  0  0  0  0  0
    9.0373  -15.6822   18.6739 C   0  0  0  0  0  0  0  0  0  0  0  0
    8.1258  -16.4803   18.9697 O   0  0  0  0  0  0  0  0  0  0  0  0
   10.9005  -18.3987   18.1325 C   0  0  0  0  0  0  0  0  0  0  0  0
   11.4583  -17.9313   19.4302 C   0  0  1  0  0  0  0  0  0  0  0  0
   12.6581  -17.2396   19.1357 O   0  0  0  0  0  0  0  0  0  0  0  0
   10.6088  -16.9649   20.1975 C   0  0  2  0  0  0  0  0  0  0  0  0
   10.3183  -15.8749   19.2433 N   0  0  0  0  0  0  0  0  0  0  0  0
   11.2417  -16.3631   21.3726 C   0  0  0  0  0  0  0  0  0  0  0  0
   11.7589  -15.1976   21.3383 O   0  0  0  0  0  0  0  0  0  0  0  0
    6.0234  -13.8167   27.0403 N   0  0  0  0  0  0  0  0  0  0  0  0
    6.6636  -12.8218   26.2641 C   0  0  0  0  0  0  0  0  0  0  0  0
    6.5334  -11.5818   26.5849 N   0  0  0  0  0  0  0  0  0  0  0  0
    7.4609  -13.1245   25.1263 N   0  0  0  0  0  0  0  0  0  0  0  0
    7.5407  -14.4391   24.5298 C   0  0  0  0  0  0  0  0  0  0  0  0
    8.8507  -15.1136   24.8028 C   0  0  0  0  0  0  0  0  0  0  0  0
    9.5107  -15.7468   23.6384 C   0  0  0  0  0  0  0  0  0  0  0  0
   10.8142  -16.4153   23.8547 C   0  0  2  0  0  0  0  0  0  0  0  0
   11.3257  -17.0248   22.6238 N   0  0  0  0  0  0  0  0  0  0  0  0
   10.8699  -17.3540   24.9933 C   0  0  0  0  0  0  0  0  0  0  0  0
   10.4304  -18.5252   24.9203 O   0  0  0  0  0  0  0  0  0  0  0  0
   11.4222  -16.9495   26.1993 O   0  0  0  0  0  0  0  0  0  0  0  0
  2  1  1  6
  3  2  1  0
  3  4  1  0
  5  6  2  0
  5  2  1  0
  8  7  1  6
  8 10  1  0
  9  8  1  0
 10 12  1  0
 10 11  1  6
 11  5  1  0
 12 22  1  0
 13 12  2  0
 15 17  1  0
 15 14  1  0
 16 15  2  0
 18 17  1  0
 19 18  1  0
 20 19  1  0
 21 20  1  6
 22 21  1  0
 23 21  1  0
 23 25  1  0
 24 23  2  0
M  END
$$$$
