CTR.pdb
     RDKit          3D

 25 24  0  0  1  0  0  0  0  0999 V2000
    7.8406  -13.3151   17.9839 N   0  0  0  0  0  0  0  0  0  0  0  0
    9.0256  -13.4356   18.7791 C   0  0  1  0  0  0  0  0  0  0  0  0
    9.0228  -12.4400   19.9303 C   0  0  0  0  0  0  0  0  0  0  0  0
    7.5025  -12.5470   20.9061 S   0  0  0  0  0  0  0  0  0  0  0  0
    9.1775  -14.7918   19.3664 C   0  0  0  0  0  0  0  0  0  0  0  0
    8.1540  -15.4875   19.5200 O   0  0  0  0  0  0  0  0  0  0  0  0
   11.4402  -17.3417   18.0322 C   0  0  0  0  0  0  0  0  0  0  0  0
   11.6540  -17.3263   19.5045 C   0  0  1  0  0  0  0  0  0  0  0  0
   12.8167  -16.5541   19.7421 O   0  0  0  0  0  0  0  0  0  0  0  0
   10.5685  -16.6886   20.3167 C   0  0  2  0  0  0  0  0  0  0  0  0
   10.4268  -15.3280   19.7585 N   0  0  0  0  0  0  0  0  0  0  0  0
   10.8491  -16.5499   21.7469 C   0  0  0  0  0  0  0  0  0  0  0  0
   11.5989  -15.6232   22.2010 O   0  0  0  0  0  0  0  0  0  0  0  0
    7.7151  -13.9216   23.9677 N   0  0  0  0  0  0  0  0  0  0  0  0
    6.9601  -13.8955   25.1642 C   0  0  0  0  0  0  0  0  0  0  0  0
    6.0285  -13.0190   25.3105 N   0  0  0  0  0  0  0  0  0  0  0  0
    7.1786  -14.8052   26.2350 N   0  0  0  0  0  0  0  0  0  0  0  0
    7.4719  -16.2085   26.0478 C   0  0  0  0  0  0  0  0  0  0  0  0
    8.3091  -16.4615   24.8310 C   0  0  0  0  0  0  0  0  0  0  0  0
    9.4107  -17.4378   24.9916 C   0  0  0  0  0  0  0  0  0  0  0  0
   10.6172  -17.2718   24.1492 C   0  0  2  0  0  0  0  0  0  0  0  0
   10.3130  -17.4266   22.7239 N   0  0  0  0  0  0  0  0  0  0  0  0
   11.7905  -18.0751   24.5479 C   0  0  0  0  0  0  0  0  0  0  0  0
   12.2240  -19.0223   23.8514 O   0  0  0  0  0  0  0  0  0  0  0  0
   12.4540  -17.7931   25.7325 O   0  0  0  0  0  0  0  0  0  0  0  0
  2  1  1  1
  3  2  1  0
  3  4  1  0
  5  6  2  0
  5  2  1  0
  8  7  1  6
  8 10  1  0
  9  8  1  0
 10 12  1  0
 10 11  1  6
 11  5  1  0
 12 22  1  0
 13 12  2  0
 15 17  1  0
 15 14  1  0
 16 15  2  0
 18 17  1  0
 19 18  1  0
 20 19  1  0
 21 20  1  1
 22 21  1  0
 23 21  1  0
 23 25  1  0
 24 23  2  0
M  END
$$$$
