CTR.pdb
     RDKit          3D

 25 24  0  0  1  0  0  0  0  0999 V2000
    6.4128  -20.5455   11.0241 N   0  0  0  0  0  0  0  0  0  0  0  0
    6.9931  -20.0432   12.2333 C   0  0  1  0  0  0  0  0  0  0  0  0
    6.0254  -19.1316   12.9742 C   0  0  0  0  0  0  0  0  0  0  0  0
    5.3955  -17.8127   11.9069 S   0  0  0  0  0  0  0  0  0  0  0  0
    7.3821  -21.1300   13.1684 C   0  0  0  0  0  0  0  0  0  0  0  0
    6.7716  -22.2153   13.1003 O   0  0  0  0  0  0  0  0  0  0  0  0
   10.7105  -22.6207   13.2959 C   0  0  0  0  0  0  0  0  0  0  0  0
   10.3440  -22.2233   14.6821 C   0  0  1  0  0  0  0  0  0  0  0  0
   10.8724  -20.9264   14.8902 O   0  0  0  0  0  0  0  0  0  0  0  0
    8.8769  -22.1158   14.9657 C   0  0  2  0  0  0  0  0  0  0  0  0
    8.4106  -20.9900   14.1300 N   0  0  0  0  0  0  0  0  0  0  0  0
    8.5230  -21.8094   16.3529 C   0  0  0  0  0  0  0  0  0  0  0  0
    8.2294  -20.6265   16.7292 O   0  0  0  0  0  0  0  0  0  0  0  0
    5.0883  -25.0893   23.5519 N   0  0  0  0  0  0  0  0  0  0  0  0
    6.1410  -25.6013   22.7570 C   0  0  0  0  0  0  0  0  0  0  0  0
    7.0477  -26.3378   23.2982 N   0  0  0  0  0  0  0  0  0  0  0  0
    6.2524  -25.3421   21.3633 N   0  0  0  0  0  0  0  0  0  0  0  0
    5.3849  -24.4362   20.6443 C   0  0  0  0  0  0  0  0  0  0  0  0
    6.1253  -23.2638   20.0761 C   0  0  0  0  0  0  0  0  0  0  0  0
    7.4239  -23.5655   19.4317 C   0  0  0  0  0  0  0  0  0  0  0  0
    8.1404  -22.4595   18.7565 C   0  0  2  0  0  0  0  0  0  0  0  0
    8.4807  -22.7953   17.3710 N   0  0  0  0  0  0  0  0  0  0  0  0
    9.3006  -21.9098   19.4863 C   0  0  0  0  0  0  0  0  0  0  0  0
   10.4662  -22.3361   19.3132 O   0  0  0  0  0  0  0  0  0  0  0  0
    9.1211  -20.8853   20.4034 O   0  0  0  0  0  0  0  0  0  0  0  0
  2  1  1  6
  3  2  1  0
  3  4  1  0
  5  6  2  0
  5  2  1  0
  8  7  1  6
  8 10  1  0
  9  8  1  0
 10 12  1  0
 10 11  1  6
 11  5  1  0
 12 22  1  0
 13 12  2  0
 15 17  1  0
 15 14  1  0
 16 15  2  0
 18 17  1  0
 19 18  1  0
 20 19  1  0
 21 20  1  1
 22 21  1  0
 23 21  1  0
 23 25  1  0
 24 23  2  0
M  END
$$$$
