CTR.pdb
     RDKit          3D

 25 24  0  0  1  0  0  0  0  0999 V2000
    5.1451  -13.2517   26.0442 N   0  0  0  0  0  0  0  0  0  0  0  0
    6.3371  -12.9283   25.3193 C   0  0  1  0  0  0  0  0  0  0  0  0
    7.4112  -12.3697   26.2418 C   0  0  0  0  0  0  0  0  0  0  0  0
    6.9190  -10.7838   26.9615 S   0  0  0  0  0  0  0  0  0  0  0  0
    6.9168  -14.1085   24.6279 C   0  0  0  0  0  0  0  0  0  0  0  0
    6.9065  -15.2053   25.2211 O   0  0  0  0  0  0  0  0  0  0  0  0
    6.5826  -14.3505   20.7613 C   0  0  0  0  0  0  0  0  0  0  0  0
    7.8875  -14.9281   21.1823 C   0  0  1  0  0  0  0  0  0  0  0  0
    8.8777  -13.9583   20.8930 O   0  0  0  0  0  0  0  0  0  0  0  0
    8.0283  -15.2310   22.6427 C   0  0  2  0  0  0  0  0  0  0  0  0
    7.4786  -14.0446   23.3307 N   0  0  0  0  0  0  0  0  0  0  0  0
    9.3999  -15.4189   23.1189 C   0  0  0  0  0  0  0  0  0  0  0  0
   10.0099  -14.5228   23.7912 O   0  0  0  0  0  0  0  0  0  0  0  0
   10.8845  -17.1657   30.2697 N   0  0  0  0  0  0  0  0  0  0  0  0
   11.1442  -16.0973   29.3791 C   0  0  0  0  0  0  0  0  0  0  0  0
   11.0289  -14.8828   29.7904 N   0  0  0  0  0  0  0  0  0  0  0  0
   11.5355  -16.2972   28.0267 N   0  0  0  0  0  0  0  0  0  0  0  0
   11.7858  -17.5984   27.4484 C   0  0  0  0  0  0  0  0  0  0  0  0
   12.1272  -17.5216   25.9913 C   0  0  0  0  0  0  0  0  0  0  0  0
   11.0346  -17.0909   25.0896 C   0  0  0  0  0  0  0  0  0  0  0  0
   11.3403  -16.9355   23.6491 C   0  0  2  0  0  0  0  0  0  0  0  0
   10.1446  -16.5997   22.8707 N   0  0  0  0  0  0  0  0  0  0  0  0
   12.0996  -18.0426   23.0338 C   0  0  0  0  0  0  0  0  0  0  0  0
   11.6242  -18.7571   22.1208 O   0  0  0  0  0  0  0  0  0  0  0  0
   13.3873  -18.3241   23.4647 O   0  0  0  0  0  0  0  0  0  0  0  0
  2  1  1  1
  3  2  1  0
  3  4  1  0
  5  6  2  0
  5  2  1  0
  8  7  1  1
  8 10  1  0
  9  8  1  0
 10 12  1  0
 10 11  1  1
 11  5  1  0
 12 22  1  0
 13 12  2  0
 15 17  1  0
 15 14  1  0
 16 15  2  0
 18 17  1  0
 19 18  1  0
 20 19  1  0
 21 20  1  1
 22 21  1  0
 23 21  1  0
 23 25  1  0
 24 23  2  0
M  END
$$$$
