CTR.pdb
     RDKit          3D

 25 24  0  0  1  0  0  0  0  0999 V2000
    7.9178  -13.6884   16.5825 N   0  0  0  0  0  0  0  0  0  0  0  0
    8.9478  -14.0201   17.5207 C   0  0  1  0  0  0  0  0  0  0  0  0
    9.6100  -12.7693   18.0805 C   0  0  0  0  0  0  0  0  0  0  0  0
   11.0314  -13.1730   19.1254 S   0  0  0  0  0  0  0  0  0  0  0  0
    8.4325  -14.8025   18.6737 C   0  0  0  0  0  0  0  0  0  0  0  0
    7.4142  -14.3875   19.2619 O   0  0  0  0  0  0  0  0  0  0  0  0
    7.3933  -18.3153   18.6736 C   0  0  0  0  0  0  0  0  0  0  0  0
    8.3521  -18.1482   19.7989 C   0  0  1  0  0  0  0  0  0  0  0  0
    9.6206  -18.5571   19.3212 O   0  0  0  0  0  0  0  0  0  0  0  0
    8.5370  -16.7480   20.2986 C   0  0  2  0  0  0  0  0  0  0  0  0
    9.0430  -15.9933   19.1335 N   0  0  0  0  0  0  0  0  0  0  0  0
    9.5088  -16.5876   21.3818 C   0  0  0  0  0  0  0  0  0  0  0  0
   10.7458  -16.3765   21.1532 O   0  0  0  0  0  0  0  0  0  0  0  0
   10.0244  -13.3654   29.9913 N   0  0  0  0  0  0  0  0  0  0  0  0
   10.4431  -14.7090   29.8441 C   0  0  0  0  0  0  0  0  0  0  0  0
   10.5376  -15.4641   30.8825 N   0  0  0  0  0  0  0  0  0  0  0  0
   10.7701  -15.2822   28.5845 N   0  0  0  0  0  0  0  0  0  0  0  0
    9.8493  -15.3521   27.4720 C   0  0  0  0  0  0  0  0  0  0  0  0
   10.5127  -15.8049   26.2069 C   0  0  0  0  0  0  0  0  0  0  0  0
    9.6509  -15.8573   25.0040 C   0  0  0  0  0  0  0  0  0  0  0  0
   10.1553  -16.5843   23.8166 C   0  0  2  0  0  0  0  0  0  0  0  0
    9.1503  -16.6540   22.7520 N   0  0  0  0  0  0  0  0  0  0  0  0
   10.7598  -17.9047   24.0847 C   0  0  0  0  0  0  0  0  0  0  0  0
   10.1190  -18.9743   23.9609 O   0  0  0  0  0  0  0  0  0  0  0  0
   12.0827  -17.9921   24.4913 O   0  0  0  0  0  0  0  0  0  0  0  0
  2  1  1  6
  3  2  1  0
  3  4  1  0
  5  6  2  0
  5  2  1  0
  8  7  1  6
  8 10  1  0
  9  8  1  0
 10 12  1  0
 10 11  1  6
 11  5  1  0
 12 22  1  0
 13 12  2  0
 15 17  1  0
 15 14  1  0
 16 15  2  0
 18 17  1  0
 19 18  1  0
 20 19  1  0
 21 20  1  1
 22 21  1  0
 23 21  1  0
 23 25  1  0
 24 23  2  0
M  END
$$$$
