CTR.pdb
     RDKit          3D

 25 24  0  0  1  0  0  0  0  0999 V2000
    8.9534  -14.4540   14.6322 N   0  0  0  0  0  0  0  0  0  0  0  0
    8.5186  -15.2039   15.7723 C   0  0  1  0  0  0  0  0  0  0  0  0
    8.9041  -16.6711   15.6493 C   0  0  0  0  0  0  0  0  0  0  0  0
   10.6973  -16.9025   15.7287 S   0  0  0  0  0  0  0  0  0  0  0  0
    9.1038  -14.6966   17.0401 C   0  0  0  0  0  0  0  0  0  0  0  0
   10.2057  -14.1148   16.9913 O   0  0  0  0  0  0  0  0  0  0  0  0
    7.0845  -12.5863   19.5112 C   0  0  0  0  0  0  0  0  0  0  0  0
    7.8055  -13.6702   20.2317 C   0  0  1  0  0  0  0  0  0  0  0  0
    6.8962  -14.7466   20.3694 O   0  0  0  0  0  0  0  0  0  0  0  0
    9.0038  -14.2359   19.5328 C   0  0  2  0  0  0  0  0  0  0  0  0
    8.4698  -14.8437   18.2965 N   0  0  0  0  0  0  0  0  0  0  0  0
    9.7238  -15.2820   20.2613 C   0  0  0  0  0  0  0  0  0  0  0  0
    9.5147  -16.5216   20.0448 O   0  0  0  0  0  0  0  0  0  0  0  0
   14.1783  -15.8566   18.1517 N   0  0  0  0  0  0  0  0  0  0  0  0
   15.0677  -14.8004   18.4607 C   0  0  0  0  0  0  0  0  0  0  0  0
   15.5194  -14.0511   17.5163 N   0  0  0  0  0  0  0  0  0  0  0  0
   15.4969  -14.5153   19.7860 N   0  0  0  0  0  0  0  0  0  0  0  0
   14.9422  -15.1474   20.9621 C   0  0  0  0  0  0  0  0  0  0  0  0
   13.4551  -15.3113   20.8769 C   0  0  0  0  0  0  0  0  0  0  0  0
   12.8029  -15.9428   22.0466 C   0  0  0  0  0  0  0  0  0  0  0  0
   11.3267  -16.0593   22.0426 C   0  0  2  0  0  0  0  0  0  0  0  0
   10.6977  -14.9976   21.2518 N   0  0  0  0  0  0  0  0  0  0  0  0
   10.6931  -16.2011   23.3689 C   0  0  0  0  0  0  0  0  0  0  0  0
    9.8737  -15.3643   23.8147 O   0  0  0  0  0  0  0  0  0  0  0  0
   10.9998  -17.2897   24.1713 O   0  0  0  0  0  0  0  0  0  0  0  0
  2  1  1  6
  3  2  1  0
  3  4  1  0
  5  6  2  0
  5  2  1  0
  8  7  1  6
  8 10  1  0
  9  8  1  0
 10 12  1  0
 10 11  1  6
 11  5  1  0
 12 22  1  0
 13 12  2  0
 15 17  1  0
 15 14  1  0
 16 15  2  0
 18 17  1  0
 19 18  1  0
 20 19  1  0
 21 20  1  1
 22 21  1  0
 23 21  1  0
 23 25  1  0
 24 23  2  0
M  END
$$$$
