CTR.pdb
     RDKit          3D

 25 24  0  0  1  0  0  0  0  0999 V2000
    5.5290  -12.9273   26.3708 N   0  0  0  0  0  0  0  0  0  0  0  0
    6.8278  -12.8756   25.7694 C   0  0  1  0  0  0  0  0  0  0  0  0
    7.8971  -12.5190   26.7921 C   0  0  0  0  0  0  0  0  0  0  0  0
    7.5863  -10.9069   27.5535 S   0  0  0  0  0  0  0  0  0  0  0  0
    7.2180  -14.1698   25.1532 C   0  0  0  0  0  0  0  0  0  0  0  0
    6.8846  -15.2237   25.7303 O   0  0  0  0  0  0  0  0  0  0  0  0
    6.7514  -14.8021   21.4429 C   0  0  0  0  0  0  0  0  0  0  0  0
    8.0846  -15.3261   21.8450 C   0  0  1  0  0  0  0  0  0  0  0  0
    9.0386  -14.3478   21.4746 O   0  0  0  0  0  0  0  0  0  0  0  0
    8.2828  -15.5534   23.3125 C   0  0  2  0  0  0  0  0  0  0  0  0
    7.9489  -14.2605   23.9449 N   0  0  0  0  0  0  0  0  0  0  0  0
    9.6455  -15.9023   23.7187 C   0  0  0  0  0  0  0  0  0  0  0  0
   10.5005  -15.0142   24.0464 O   0  0  0  0  0  0  0  0  0  0  0  0
   11.8024  -20.9744   29.8890 N   0  0  0  0  0  0  0  0  0  0  0  0
   11.4188  -19.6169   29.7790 C   0  0  0  0  0  0  0  0  0  0  0  0
   11.8774  -18.7553   30.6186 N   0  0  0  0  0  0  0  0  0  0  0  0
   10.5371  -19.1431   28.7690 N   0  0  0  0  0  0  0  0  0  0  0  0
   10.6583  -19.4913   27.3710 C   0  0  0  0  0  0  0  0  0  0  0  0
   11.3443  -18.4249   26.5723 C   0  0  0  0  0  0  0  0  0  0  0  0
   11.5196  -18.7053   25.1291 C   0  0  0  0  0  0  0  0  0  0  0  0
   11.4807  -17.5630   24.1875 C   0  0  2  0  0  0  0  0  0  0  0  0
   10.1111  -17.2402   23.7776 N   0  0  0  0  0  0  0  0  0  0  0  0
   12.3899  -17.6595   23.0278 C   0  0  0  0  0  0  0  0  0  0  0  0
   12.0002  -18.0381   21.8987 O   0  0  0  0  0  0  0  0  0  0  0  0
   13.7288  -17.3264   23.1666 O   0  0  0  0  0  0  0  0  0  0  0  0
  2  1  1  1
  3  2  1  0
  3  4  1  0
  5  6  2  0
  5  2  1  0
  8  7  1  1
  8 10  1  0
  9  8  1  0
 10 12  1  0
 10 11  1  1
 11  5  1  0
 12 22  1  0
 13 12  2  0
 15 17  1  0
 15 14  1  0
 16 15  2  0
 18 17  1  0
 19 18  1  0
 20 19  1  0
 21 20  1  6
 22 21  1  0
 23 21  1  0
 23 25  1  0
 24 23  2  0
M  END
$$$$
