CQY.pdb
     RDKit          3D

 28 28  0  0  1  0  0  0  0  0999 V2000
   17.3088   -1.7946  -19.6939 N   0  0  0  0  0  0  0  0  0  0  0  0
   18.0888   -2.5986  -18.7745 C   0  0  1  0  0  0  0  0  0  0  0  0
   19.5288   -2.1045  -18.7304 C   0  0  0  0  0  0  0  0  0  0  0  0
   19.5564   -0.3133  -18.4902 S   0  0  0  0  0  0  0  0  0  0  0  0
   17.5022   -2.5032  -17.4231 C   0  0  0  0  0  0  0  0  0  0  0  0
   16.4481   -1.8466  -17.2689 O   0  0  0  0  0  0  0  0  0  0  0  0
   14.0816   -6.9911  -14.8536 N   0  0  0  0  0  0  0  0  0  0  0  0
   14.3427   -5.6043  -14.6814 C   0  0  0  0  0  0  0  0  0  0  0  0
   13.4432   -4.7804  -14.9403 O   0  0  0  0  0  0  0  0  0  0  0  0
   15.6877   -5.1123  -14.1916 C   0  0  0  0  0  0  0  0  0  0  0  0
   16.4112   -4.5632  -15.3699 C   0  0  0  0  0  0  0  0  0  0  0  0
   17.3965   -3.4624  -15.0972 C   0  0  2  0  0  0  0  0  0  0  0  0
   18.1233   -3.1412  -16.3364 N   0  0  0  0  0  0  0  0  0  0  0  0
   18.4151   -3.7435  -14.0938 C   0  0  0  0  0  0  0  0  0  0  0  0
   18.1147   -4.1439  -12.9462 O   0  0  0  0  0  0  0  0  0  0  0  0
   23.7437  -10.2936  -14.3005 O   0  0  0  0  0  0  0  0  0  0  0  0
   22.9266   -9.1832  -14.4724 C   0  0  0  0  0  0  0  0  0  0  0  0
   22.0597   -8.8700  -13.4590 C   0  0  0  0  0  0  0  0  0  0  0  0
   21.2329   -7.7670  -13.6049 C   0  0  0  0  0  0  0  0  0  0  0  0
   21.2500   -6.9762  -14.7272 C   0  0  0  0  0  0  0  0  0  0  0  0
   20.3506   -5.8280  -14.8239 C   0  0  0  0  0  0  0  0  0  0  0  0
   20.7759   -4.6096  -14.0551 C   0  0  2  0  0  0  0  0  0  0  0  0
   19.7864   -3.5748  -14.3929 N   0  0  0  0  0  0  0  0  0  0  0  0
   22.1293   -4.1958  -14.4375 C   0  0  0  0  0  0  0  0  0  0  0  0
   22.2881   -3.3258  -15.3116 O   0  0  0  0  0  0  0  0  0  0  0  0
   22.1238   -7.3013  -15.7356 C   0  0  0  0  0  0  0  0  0  0  0  0
   22.9670   -8.4105  -15.6085 C   0  0  0  0  0  0  0  0  0  0  0  0
   23.2380   -4.7589  -13.8390 O   0  0  0  0  0  0  0  0  0  0  0  0
  2  1  1  6
  2  5  1  0
  3  2  1  0
  4  3  1  0
  5  6  2  0
  8  7  1  0
  8 10  1  0
  9  8  2  0
 11 10  1  0
 12 11  1  6
 12 14  1  0
 13  5  1  0
 13 12  1  0
 14 15  2  0
 16 17  1  0
 17 18  2  0
 18 19  1  0
 20 21  1  0
 20 19  2  0
 22 21  1  6
 22 24  1  0
 23 22  1  0
 23 14  1  0
 24 25  2  0
 24 28  1  0
 26 20  1  0
 27 26  2  0
 27 17  1  0
M  END
$$$$
