CQY.pdb
     RDKit          3D

 28 28  0  0  1  0  0  0  0  0999 V2000
   31.5730  -26.1753  -17.4916 N   0  0  0  0  0  0  0  0  0  0  0  0
   30.3565  -25.9384  -16.7403 C   0  0  1  0  0  0  0  0  0  0  0  0
   30.1732  -24.4477  -16.4872 C   0  0  0  0  0  0  0  0  0  0  0  0
   31.4409  -23.8590  -15.3412 S   0  0  0  0  0  0  0  0  0  0  0  0
   29.2017  -26.4451  -17.5077 C   0  0  0  0  0  0  0  0  0  0  0  0
   29.2161  -26.3441  -18.7550 O   0  0  0  0  0  0  0  0  0  0  0  0
   25.5981  -30.6936  -15.3532 N   0  0  0  0  0  0  0  0  0  0  0  0
   25.0565  -30.6624  -16.6672 C   0  0  0  0  0  0  0  0  0  0  0  0
   24.0674  -31.3738  -16.9332 O   0  0  0  0  0  0  0  0  0  0  0  0
   25.6565  -29.7846  -17.7444 C   0  0  0  0  0  0  0  0  0  0  0  0
   26.7888  -29.0426  -17.1274 C   0  0  0  0  0  0  0  0  0  0  0  0
   26.9741  -27.6179  -17.5666 C   0  0  2  0  0  0  0  0  0  0  0  0
   28.1113  -27.0285  -16.8411 N   0  0  0  0  0  0  0  0  0  0  0  0
   25.8460  -26.7231  -17.3432 C   0  0  0  0  0  0  0  0  0  0  0  0
   25.6466  -26.1809  -16.2324 O   0  0  0  0  0  0  0  0  0  0  0  0
   18.9208  -21.6131  -19.5823 O   0  0  0  0  0  0  0  0  0  0  0  0
   20.0534  -22.4172  -19.5511 C   0  0  0  0  0  0  0  0  0  0  0  0
   19.8945  -23.7488  -19.8304 C   0  0  0  0  0  0  0  0  0  0  0  0
   21.0084  -24.5735  -19.8062 C   0  0  0  0  0  0  0  0  0  0  0  0
   22.2656  -24.1059  -19.5126 C   0  0  0  0  0  0  0  0  0  0  0  0
   23.4010  -25.0263  -19.4989 C   0  0  0  0  0  0  0  0  0  0  0  0
   23.7443  -25.6064  -18.1563 C   0  0  2  0  0  0  0  0  0  0  0  0
   24.9376  -26.4351  -18.3874 N   0  0  0  0  0  0  0  0  0  0  0  0
   22.6337  -26.4078  -17.6333 C   0  0  0  0  0  0  0  0  0  0  0  0
   21.9245  -25.9604  -16.7152 O   0  0  0  0  0  0  0  0  0  0  0  0
   22.4109  -22.7689  -19.2345 C   0  0  0  0  0  0  0  0  0  0  0  0
   21.2996  -21.9191  -19.2536 C   0  0  0  0  0  0  0  0  0  0  0  0
   22.3597  -27.6590  -18.1469 O   0  0  0  0  0  0  0  0  0  0  0  0
  2  1  1  6
  2  5  1  0
  3  2  1  0
  4  3  1  0
  5  6  2  0
  8  7  1  0
  8 10  1  0
  9  8  2  0
 11 10  1  0
 12 11  1  1
 12 14  1  0
 13  5  1  0
 13 12  1  0
 14 15  2  0
 16 17  1  0
 17 18  2  0
 18 19  1  0
 20 21  1  0
 20 19  2  0
 22 21  1  6
 22 24  1  0
 23 22  1  0
 23 14  1  0
 24 25  2  0
 24 28  1  0
 26 20  1  0
 27 26  2  0
 27 17  1  0
M  END
$$$$
