CQY.pdb
     RDKit          3D

 28 28  0  0  1  0  0  0  0  0999 V2000
   27.4494  -18.7126  -16.4848 N   0  0  0  0  0  0  0  0  0  0  0  0
   26.3767  -17.9278  -15.9072 C   0  0  1  0  0  0  0  0  0  0  0  0
   26.6337  -16.4419  -16.1220 C   0  0  0  0  0  0  0  0  0  0  0  0
   28.0232  -15.9048  -15.0983 S   0  0  0  0  0  0  0  0  0  0  0  0
   25.1002  -18.2966  -16.5505 C   0  0  0  0  0  0  0  0  0  0  0  0
   25.1187  -18.7142  -17.7301 O   0  0  0  0  0  0  0  0  0  0  0  0
   20.6435  -21.6495  -14.4868 N   0  0  0  0  0  0  0  0  0  0  0  0
   21.7561  -21.0989  -13.7942 C   0  0  0  0  0  0  0  0  0  0  0  0
   22.0593  -21.5540  -12.6734 O   0  0  0  0  0  0  0  0  0  0  0  0
   22.5758  -19.9748  -14.3904 C   0  0  0  0  0  0  0  0  0  0  0  0
   21.9231  -19.5847  -15.6692 C   0  0  0  0  0  0  0  0  0  0  0  0
   22.5916  -18.4935  -16.4564 C   0  0  2  0  0  0  0  0  0  0  0  0
   23.8921  -18.1774  -15.8434 N   0  0  0  0  0  0  0  0  0  0  0  0
   21.8708  -17.2303  -16.5467 C   0  0  0  0  0  0  0  0  0  0  0  0
   21.9545  -16.3599  -15.6506 O   0  0  0  0  0  0  0  0  0  0  0  0
   18.4758  -10.0697  -20.3205 O   0  0  0  0  0  0  0  0  0  0  0  0
   19.0091  -11.3159  -20.0163 C   0  0  0  0  0  0  0  0  0  0  0  0
   20.2679  -11.3533  -19.4772 C   0  0  0  0  0  0  0  0  0  0  0  0
   20.8238  -12.5840  -19.1644 C   0  0  0  0  0  0  0  0  0  0  0  0
   20.1601  -13.7675  -19.3745 C   0  0  0  0  0  0  0  0  0  0  0  0
   20.8011  -15.0345  -19.0275 C   0  0  0  0  0  0  0  0  0  0  0  0
   20.3076  -15.6820  -17.7650 C   0  0  2  0  0  0  0  0  0  0  0  0
   21.0516  -16.9470  -17.6634 N   0  0  0  0  0  0  0  0  0  0  0  0
   18.8624  -15.9191  -17.8291 C   0  0  0  0  0  0  0  0  0  0  0  0
   18.4251  -16.9349  -18.3977 O   0  0  0  0  0  0  0  0  0  0  0  0
   18.8989  -13.7158  -19.9154 C   0  0  0  0  0  0  0  0  0  0  0  0
   18.3193  -12.4840  -20.2384 C   0  0  0  0  0  0  0  0  0  0  0  0
   17.9725  -15.0281  -17.2646 O   0  0  0  0  0  0  0  0  0  0  0  0
  2  1  1  6
  2  5  1  0
  3  2  1  0
  4  3  1  0
  5  6  2  0
  8  7  1  0
  8 10  1  0
  9  8  2  0
 11 10  1  0
 12 11  1  1
 12 14  1  0
 13  5  1  0
 13 12  1  0
 14 15  2  0
 16 17  1  0
 17 18  2  0
 18 19  1  0
 20 21  1  0
 20 19  2  0
 22 21  1  6
 22 24  1  0
 23 22  1  0
 23 14  1  0
 24 25  2  0
 24 28  1  0
 26 20  1  0
 27 26  2  0
 27 17  1  0
M  END
$$$$
