CQY.pdb
     RDKit          3D

 28 28  0  0  1  0  0  0  0  0999 V2000
   19.1325  -14.2413  -17.2249 N   0  0  0  0  0  0  0  0  0  0  0  0
   18.5100  -12.9840  -17.5882 C   0  0  1  0  0  0  0  0  0  0  0  0
   17.2595  -12.7514  -16.7504 C   0  0  0  0  0  0  0  0  0  0  0  0
   17.6746  -12.8284  -14.9929 S   0  0  0  0  0  0  0  0  0  0  0  0
   19.4627  -11.8811  -17.3531 C   0  0  0  0  0  0  0  0  0  0  0  0
   20.3757  -12.0426  -16.5126 O   0  0  0  0  0  0  0  0  0  0  0  0
   22.9206   -9.3558  -19.8852 N   0  0  0  0  0  0  0  0  0  0  0  0
   22.6124   -7.9914  -19.6316 C   0  0  0  0  0  0  0  0  0  0  0  0
   23.4930   -7.1267  -19.8106 O   0  0  0  0  0  0  0  0  0  0  0  0
   21.2403   -7.5715  -19.1502 C   0  0  0  0  0  0  0  0  0  0  0  0
   20.3767   -8.7828  -19.1715 C   0  0  0  0  0  0  0  0  0  0  0  0
   20.2857   -9.5628  -17.8907 C   0  0  2  0  0  0  0  0  0  0  0  0
   19.3385  -10.6761  -18.0646 N   0  0  0  0  0  0  0  0  0  0  0  0
   19.8308   -8.8259  -16.7188 C   0  0  0  0  0  0  0  0  0  0  0  0
   18.6149   -8.7207  -16.4392 O   0  0  0  0  0  0  0  0  0  0  0  0
   20.1754   -5.2445   -8.6558 O   0  0  0  0  0  0  0  0  0  0  0  0
   20.4719   -5.8023   -9.8932 C   0  0  0  0  0  0  0  0  0  0  0  0
   20.0709   -7.0923  -10.1206 C   0  0  0  0  0  0  0  0  0  0  0  0
   20.3541   -7.6730  -11.3469 C   0  0  0  0  0  0  0  0  0  0  0  0
   21.0218   -7.0038  -12.3429 C   0  0  0  0  0  0  0  0  0  0  0  0
   21.2946   -7.6718  -13.6140 C   0  0  0  0  0  0  0  0  0  0  0  0
   20.3164   -7.3829  -14.7169 C   0  0  2  0  0  0  0  0  0  0  0  0
   20.7603   -8.2062  -15.8524 N   0  0  0  0  0  0  0  0  0  0  0  0
   20.3209   -5.9576  -15.0601 C   0  0  0  0  0  0  0  0  0  0  0  0
   21.1242   -5.5258  -15.9055 O   0  0  0  0  0  0  0  0  0  0  0  0
   21.4180   -5.7112  -12.1019 C   0  0  0  0  0  0  0  0  0  0  0  0
   21.1422   -5.1062  -10.8709 C   0  0  0  0  0  0  0  0  0  0  0  0
   19.4422   -5.0809  -14.4571 O   0  0  0  0  0  0  0  0  0  0  0  0
  2  1  1  1
  2  5  1  0
  3  2  1  0
  4  3  1  0
  5  6  2  0
  8  7  1  0
  8 10  1  0
  9  8  2  0
 11 10  1  0
 12 11  1  6
 12 14  1  0
 13  5  1  0
 13 12  1  0
 14 15  2  0
 16 17  1  0
 17 18  2  0
 18 19  1  0
 20 21  1  0
 20 19  2  0
 22 21  1  1
 22 24  1  0
 23 22  1  0
 23 14  1  0
 24 25  2  0
 24 28  1  0
 26 20  1  0
 27 26  2  0
 27 17  1  0
M  END
$$$$
