CQY.pdb
     RDKit          3D

 28 28  0  0  1  0  0  0  0  0999 V2000
   28.7697  -10.6627  -17.0576 N   0  0  0  0  0  0  0  0  0  0  0  0
   27.4002  -10.6569  -17.5315 C   0  0  1  0  0  0  0  0  0  0  0  0
   26.6457  -11.8610  -16.9830 C   0  0  0  0  0  0  0  0  0  0  0  0
   27.4753  -13.3863  -17.4852 S   0  0  0  0  0  0  0  0  0  0  0  0
   26.7322   -9.4201  -17.0807 C   0  0  0  0  0  0  0  0  0  0  0  0
   27.0261   -8.9516  -15.9580 O   0  0  0  0  0  0  0  0  0  0  0  0
   26.0195   -4.6961  -20.5656 N   0  0  0  0  0  0  0  0  0  0  0  0
   24.9713   -5.6093  -20.8628 C   0  0  0  0  0  0  0  0  0  0  0  0
   24.3832   -5.5225  -21.9590 O   0  0  0  0  0  0  0  0  0  0  0  0
   24.5582   -6.6804  -19.8764 C   0  0  0  0  0  0  0  0  0  0  0  0
   25.4078   -6.5155  -18.6663 C   0  0  0  0  0  0  0  0  0  0  0  0
   25.1793   -7.4940  -17.5494 C   0  0  2  0  0  0  0  0  0  0  0  0
   25.7853   -8.7879  -17.9038 N   0  0  0  0  0  0  0  0  0  0  0  0
   23.7894   -7.7777  -17.2160 C   0  0  0  0  0  0  0  0  0  0  0  0
   23.1352   -8.6588  -17.8187 O   0  0  0  0  0  0  0  0  0  0  0  0
   16.7530  -10.3805  -13.1800 O   0  0  0  0  0  0  0  0  0  0  0  0
   17.9996   -9.9058  -13.5681 C   0  0  0  0  0  0  0  0  0  0  0  0
   18.3852  -10.1205  -14.8649 C   0  0  0  0  0  0  0  0  0  0  0  0
   19.6244   -9.6571  -15.2783 C   0  0  0  0  0  0  0  0  0  0  0  0
   20.4806   -8.9908  -14.4366 C   0  0  0  0  0  0  0  0  0  0  0  0
   21.7768   -8.5298  -14.9307 C   0  0  0  0  0  0  0  0  0  0  0  0
   21.7321   -7.3342  -15.8391 C   0  0  2  0  0  0  0  0  0  0  0  0
   23.1350   -7.0615  -16.1878 N   0  0  0  0  0  0  0  0  0  0  0  0
   21.1197   -6.1864  -15.1633 C   0  0  0  0  0  0  0  0  0  0  0  0
   21.8363   -5.3609  -14.5705 O   0  0  0  0  0  0  0  0  0  0  0  0
   20.0818   -8.7822  -13.1392 C   0  0  0  0  0  0  0  0  0  0  0  0
   18.8349   -9.2417  -12.7015 C   0  0  0  0  0  0  0  0  0  0  0  0
   19.7517   -6.0048  -15.1745 O   0  0  0  0  0  0  0  0  0  0  0  0
  2  1  1  1
  2  5  1  0
  3  2  1  0
  4  3  1  0
  5  6  2  0
  8  7  1  0
  8 10  1  0
  9  8  2  0
 11 10  1  0
 12 11  1  6
 12 14  1  0
 13  5  1  0
 13 12  1  0
 14 15  2  0
 16 17  1  0
 17 18  2  0
 18 19  1  0
 20 21  1  0
 20 19  2  0
 22 21  1  1
 22 24  1  0
 23 22  1  0
 23 14  1  0
 24 25  2  0
 24 28  1  0
 26 20  1  0
 27 26  2  0
 27 17  1  0
M  END
$$$$
