CQY.pdb
     RDKit          3D

 28 28  0  0  1  0  0  0  0  0999 V2000
   25.8385  -17.3806  -16.2452 N   0  0  0  0  0  0  0  0  0  0  0  0
   26.7605  -17.9529  -15.2847 C   0  0  1  0  0  0  0  0  0  0  0  0
   27.5495  -16.8519  -14.5882 C   0  0  0  0  0  0  0  0  0  0  0  0
   28.7513  -16.1384  -15.7343 S   0  0  0  0  0  0  0  0  0  0  0  0
   26.0023  -18.7183  -14.2756 C   0  0  0  0  0  0  0  0  0  0  0  0
   25.0409  -18.1645  -13.6966 O   0  0  0  0  0  0  0  0  0  0  0  0
   25.1809  -24.6487  -14.8039 N   0  0  0  0  0  0  0  0  0  0  0  0
   24.4584  -24.4666  -13.5933 C   0  0  0  0  0  0  0  0  0  0  0  0
   23.7508  -25.3987  -13.1625 O   0  0  0  0  0  0  0  0  0  0  0  0
   24.5325  -23.1669  -12.8211 C   0  0  0  0  0  0  0  0  0  0  0  0
   25.3488  -22.2210  -13.6289 C   0  0  0  0  0  0  0  0  0  0  0  0
   25.5957  -20.8669  -13.0269 C   0  0  2  0  0  0  0  0  0  0  0  0
   26.3610  -20.0435  -13.9773 N   0  0  0  0  0  0  0  0  0  0  0  0
   26.3467  -20.8444  -11.7783 C   0  0  0  0  0  0  0  0  0  0  0  0
   27.5164  -21.2852  -11.7065 O   0  0  0  0  0  0  0  0  0  0  0  0
   29.1263  -19.8370   -3.5703 O   0  0  0  0  0  0  0  0  0  0  0  0
   28.6676  -19.8077   -4.8813 C   0  0  0  0  0  0  0  0  0  0  0  0
   27.7814  -18.8201   -5.2219 C   0  0  0  0  0  0  0  0  0  0  0  0
   27.3079  -18.7680   -6.5236 C   0  0  0  0  0  0  0  0  0  0  0  0
   27.6937  -19.6693   -7.4850 C   0  0  0  0  0  0  0  0  0  0  0  0
   27.1560  -19.5646   -8.8402 C   0  0  0  0  0  0  0  0  0  0  0  0
   26.2648  -20.6954   -9.2691 C   0  0  2  0  0  0  0  0  0  0  0  0
   25.7709  -20.3139  -10.6013 N   0  0  0  0  0  0  0  0  0  0  0  0
   25.1588  -20.8770   -8.3242 C   0  0  0  0  0  0  0  0  0  0  0  0
   25.3735  -21.3795   -7.2072 O   0  0  0  0  0  0  0  0  0  0  0  0
   28.5825  -20.6542   -7.1303 C   0  0  0  0  0  0  0  0  0  0  0  0
   29.0727  -20.7247   -5.8218 C   0  0  0  0  0  0  0  0  0  0  0  0
   23.8743  -20.4966   -8.6555 O   0  0  0  0  0  0  0  0  0  0  0  0
  2  1  1  6
  2  5  1  0
  3  2  1  0
  4  3  1  0
  5  6  2  0
  8  7  1  0
  8 10  1  0
  9  8  2  0
 11 10  1  0
 12 11  1  6
 12 14  1  0
 13  5  1  0
 13 12  1  0
 14 15  2  0
 16 17  1  0
 17 18  2  0
 18 19  1  0
 20 21  1  0
 20 19  2  0
 22 21  1  1
 22 24  1  0
 23 22  1  0
 23 14  1  0
 24 25  2  0
 24 28  1  0
 26 20  1  0
 27 26  2  0
 27 17  1  0
M  END
$$$$
