CQY.pdb
     RDKit          3D

 28 28  0  0  1  0  0  0  0  0999 V2000
   26.3648  -14.3041  -15.6035 N   0  0  0  0  0  0  0  0  0  0  0  0
   26.0764  -13.5022  -16.7757 C   0  0  1  0  0  0  0  0  0  0  0  0
   24.8073  -13.9981  -17.4565 C   0  0  0  0  0  0  0  0  0  0  0  0
   24.9310  -15.7744  -17.7669 S   0  0  0  0  0  0  0  0  0  0  0  0
   25.8909  -12.0946  -16.3713 C   0  0  0  0  0  0  0  0  0  0  0  0
   25.4591  -11.8497  -15.2225 O   0  0  0  0  0  0  0  0  0  0  0  0
   29.0353  -10.2632  -19.1388 N   0  0  0  0  0  0  0  0  0  0  0  0
   29.5496   -9.9269  -17.8569 C   0  0  0  0  0  0  0  0  0  0  0  0
   30.7264  -10.2295  -17.5764 O   0  0  0  0  0  0  0  0  0  0  0  0
   28.6978   -9.2110  -16.8308 C   0  0  0  0  0  0  0  0  0  0  0  0
   27.3774   -8.9455  -17.4630 C   0  0  0  0  0  0  0  0  0  0  0  0
   26.1926   -9.6422  -16.8566 C   0  0  2  0  0  0  0  0  0  0  0  0
   26.1963  -11.0559  -17.2666 N   0  0  0  0  0  0  0  0  0  0  0  0
   24.8820   -9.1200  -17.2216 C   0  0  0  0  0  0  0  0  0  0  0  0
   24.4663   -9.1536  -18.4021 O   0  0  0  0  0  0  0  0  0  0  0  0
   16.3535   -8.1461  -17.5347 O   0  0  0  0  0  0  0  0  0  0  0  0
   17.6831   -8.4173  -17.2368 C   0  0  0  0  0  0  0  0  0  0  0  0
   18.5720   -8.4556  -18.2784 C   0  0  0  0  0  0  0  0  0  0  0  0
   19.9048   -8.7241  -18.0090 C   0  0  0  0  0  0  0  0  0  0  0  0
   20.3681   -8.9535  -16.7369 C   0  0  0  0  0  0  0  0  0  0  0  0
   21.7853   -9.2356  -16.5168 C   0  0  0  0  0  0  0  0  0  0  0  0
   22.6982   -8.0447  -16.5890 C   0  0  2  0  0  0  0  0  0  0  0  0
   24.0320   -8.5589  -16.2413 N   0  0  0  0  0  0  0  0  0  0  0  0
   22.2707   -7.0003  -15.6533 C   0  0  0  0  0  0  0  0  0  0  0  0
   21.4764   -6.1198  -16.0274 O   0  0  0  0  0  0  0  0  0  0  0  0
   19.4665   -8.9121  -15.7018 C   0  0  0  0  0  0  0  0  0  0  0  0
   18.1166   -8.6427  -15.9520 C   0  0  0  0  0  0  0  0  0  0  0  0
   22.7376   -6.9781  -14.3549 O   0  0  0  0  0  0  0  0  0  0  0  0
  2  1  1  1
  2  5  1  0
  3  2  1  0
  4  3  1  0
  5  6  2  0
  8  7  1  0
  8 10  1  0
  9  8  2  0
 11 10  1  0
 12 11  1  6
 12 14  1  0
 13  5  1  0
 13 12  1  0
 14 15  2  0
 16 17  1  0
 17 18  2  0
 18 19  1  0
 20 21  1  0
 20 19  2  0
 22 21  1  1
 22 24  1  0
 23 22  1  0
 23 14  1  0
 24 25  2  0
 24 28  1  0
 26 20  1  0
 27 26  2  0
 27 17  1  0
M  END
$$$$
