CQY.pdb
     RDKit          3D

 28 28  0  0  1  0  0  0  0  0999 V2000
   23.4583  -10.6045  -15.5507 N   0  0  0  0  0  0  0  0  0  0  0  0
   22.4241  -10.0233  -16.3830 C   0  0  1  0  0  0  0  0  0  0  0  0
   21.3441  -11.0549  -16.6820 C   0  0  0  0  0  0  0  0  0  0  0  0
   22.0246  -12.3758  -17.7112 S   0  0  0  0  0  0  0  0  0  0  0  0
   21.8171   -8.8765  -15.6791 C   0  0  0  0  0  0  0  0  0  0  0  0
   21.7214   -8.9173  -14.4319 O   0  0  0  0  0  0  0  0  0  0  0  0
   22.6867   -4.6951  -13.6845 N   0  0  0  0  0  0  0  0  0  0  0  0
   21.7230   -3.7974  -14.2196 C   0  0  0  0  0  0  0  0  0  0  0  0
   21.4479   -2.7564  -13.5905 O   0  0  0  0  0  0  0  0  0  0  0  0
   21.0277   -4.0817  -15.5336 C   0  0  0  0  0  0  0  0  0  0  0  0
   21.5614   -5.3735  -16.0434 C   0  0  0  0  0  0  0  0  0  0  0  0
   20.7448   -6.5991  -15.7465 C   0  0  2  0  0  0  0  0  0  0  0  0
   21.3582   -7.7643  -16.4044 N   0  0  0  0  0  0  0  0  0  0  0  0
   19.3567   -6.5709  -16.1887 C   0  0  0  0  0  0  0  0  0  0  0  0
   19.0543   -6.4847  -17.4007 O   0  0  0  0  0  0  0  0  0  0  0  0
   16.1532  -12.6558  -17.4149 O   0  0  0  0  0  0  0  0  0  0  0  0
   16.1161  -11.3977  -16.8267 C   0  0  0  0  0  0  0  0  0  0  0  0
   17.1176  -11.0777  -15.9486 C   0  0  0  0  0  0  0  0  0  0  0  0
   17.1045   -9.8287  -15.3476 C   0  0  0  0  0  0  0  0  0  0  0  0
   16.1252   -8.8997  -15.5992 C   0  0  0  0  0  0  0  0  0  0  0  0
   16.1638   -7.6003  -14.9309 C   0  0  0  0  0  0  0  0  0  0  0  0
   16.8963   -6.5169  -15.6701 C   0  0  2  0  0  0  0  0  0  0  0  0
   18.3008   -6.6457  -15.2518 N   0  0  0  0  0  0  0  0  0  0  0  0
   16.3592   -5.1961  -15.3295 C   0  0  0  0  0  0  0  0  0  0  0  0
   16.9724   -4.4637  -14.5333 O   0  0  0  0  0  0  0  0  0  0  0  0
   15.1271   -9.2333  -16.4816 C   0  0  0  0  0  0  0  0  0  0  0  0
   15.1216  -10.4887  -17.0992 C   0  0  0  0  0  0  0  0  0  0  0  0
   15.1767   -4.7481  -15.8822 O   0  0  0  0  0  0  0  0  0  0  0  0
  2  1  1  1
  2  5  1  0
  3  2  1  0
  4  3  1  0
  5  6  2  0
  8  7  1  0
  8 10  1  0
  9  8  2  0
 11 10  1  0
 12 11  1  6
 12 14  1  0
 13  5  1  0
 13 12  1  0
 14 15  2  0
 16 17  1  0
 17 18  2  0
 18 19  1  0
 20 21  1  0
 20 19  2  0
 22 21  1  1
 22 24  1  0
 23 22  1  0
 23 14  1  0
 24 25  2  0
 24 28  1  0
 26 20  1  0
 27 26  2  0
 27 17  1  0
M  END
$$$$
