CQY.pdb
     RDKit          3D

 28 28  0  0  1  0  0  0  0  0999 V2000
   26.3568  -13.0609  -17.5010 N   0  0  0  0  0  0  0  0  0  0  0  0
   26.1315  -12.2502  -16.3210 C   0  0  1  0  0  0  0  0  0  0  0  0
   27.3532  -11.3883  -16.0304 C   0  0  0  0  0  0  0  0  0  0  0  0
   28.7764  -12.4423  -15.6689 S   0  0  0  0  0  0  0  0  0  0  0  0
   24.9636  -11.3756  -16.5446 C   0  0  0  0  0  0  0  0  0  0  0  0
   24.7965  -10.8717  -17.6779 O   0  0  0  0  0  0  0  0  0  0  0  0
   19.1006  -10.5591  -15.3411 N   0  0  0  0  0  0  0  0  0  0  0  0
   19.6671  -11.8421  -15.5734 C   0  0  0  0  0  0  0  0  0  0  0  0
   18.9384  -12.7590  -16.0014 O   0  0  0  0  0  0  0  0  0  0  0  0
   21.1329  -12.1137  -15.3114 C   0  0  0  0  0  0  0  0  0  0  0  0
   21.7411  -10.8372  -14.8486 C   0  0  0  0  0  0  0  0  0  0  0  0
   22.8617  -10.2876  -15.6848 C   0  0  2  0  0  0  0  0  0  0  0  0
   24.0618  -11.1194  -15.4982 N   0  0  0  0  0  0  0  0  0  0  0  0
   23.2705   -8.9193  -15.3949 C   0  0  0  0  0  0  0  0  0  0  0  0
   24.2121   -8.6668  -14.6092 O   0  0  0  0  0  0  0  0  0  0  0  0
   25.4880   -0.7439  -17.4783 O   0  0  0  0  0  0  0  0  0  0  0  0
   25.0857   -2.0690  -17.3674 C   0  0  0  0  0  0  0  0  0  0  0  0
   25.8111   -2.8857  -16.5407 C   0  0  0  0  0  0  0  0  0  0  0  0
   25.4311   -4.2124  -16.4119 C   0  0  0  0  0  0  0  0  0  0  0  0
   24.3547   -4.7394  -17.0820 C   0  0  0  0  0  0  0  0  0  0  0  0
   24.0060   -6.1482  -16.9080 C   0  0  0  0  0  0  0  0  0  0  0  0
   23.0585   -6.4430  -15.7801 C   0  0  2  0  0  0  0  0  0  0  0  0
   22.6113   -7.8267  -16.0031 N   0  0  0  0  0  0  0  0  0  0  0  0
   21.9272   -5.5107  -15.7900 C   0  0  0  0  0  0  0  0  0  0  0  0
   22.0036   -4.4362  -15.1688 O   0  0  0  0  0  0  0  0  0  0  0  0
   23.6361   -3.9099  -17.9075 C   0  0  0  0  0  0  0  0  0  0  0  0
   24.0026   -2.5674  -18.0517 C   0  0  0  0  0  0  0  0  0  0  0  0
   20.7710   -5.8070  -16.4826 O   0  0  0  0  0  0  0  0  0  0  0  0
  2  1  1  6
  2  5  1  0
  3  2  1  0
  4  3  1  0
  5  6  2  0
  8  7  1  0
  8 10  1  0
  9  8  2  0
 11 10  1  0
 12 11  1  1
 12 14  1  0
 13  5  1  0
 13 12  1  0
 14 15  2  0
 16 17  1  0
 17 18  2  0
 18 19  1  0
 20 21  1  0
 20 19  2  0
 22 21  1  6
 22 24  1  0
 23 22  1  0
 23 14  1  0
 24 25  2  0
 24 28  1  0
 26 20  1  0
 27 26  2  0
 27 17  1  0
M  END
$$$$
