CQY.pdb
     RDKit          3D

 28 28  0  0  1  0  0  0  0  0999 V2000
   23.4455  -25.2507  -16.4733 N   0  0  0  0  0  0  0  0  0  0  0  0
   22.0330  -25.3692  -16.1715 C   0  0  1  0  0  0  0  0  0  0  0  0
   21.6693  -26.8241  -15.9053 C   0  0  0  0  0  0  0  0  0  0  0  0
   21.9699  -27.8133  -17.3879 S   0  0  0  0  0  0  0  0  0  0  0  0
   21.7199  -24.5646  -14.9741 C   0  0  0  0  0  0  0  0  0  0  0  0
   22.5793  -24.4716  -14.0692 O   0  0  0  0  0  0  0  0  0  0  0  0
   21.5905  -20.2487  -13.2397 N   0  0  0  0  0  0  0  0  0  0  0  0
   20.2842  -20.0377  -12.7199 C   0  0  0  0  0  0  0  0  0  0  0  0
   20.1302  -19.2481  -11.7672 O   0  0  0  0  0  0  0  0  0  0  0  0
   19.0823  -20.7516  -13.3001 C   0  0  0  0  0  0  0  0  0  0  0  0
   19.5914  -21.7317  -14.2969 C   0  0  0  0  0  0  0  0  0  0  0  0
   20.1667  -23.0067  -13.7488 C   0  0  2  0  0  0  0  0  0  0  0  0
   20.4772  -23.9189  -14.8615 N   0  0  0  0  0  0  0  0  0  0  0  0
   19.3140  -23.7584  -12.8371 C   0  0  0  0  0  0  0  0  0  0  0  0
   18.2890  -24.3557  -13.2373 O   0  0  0  0  0  0  0  0  0  0  0  0
   16.8309  -26.9153   -4.8484 O   0  0  0  0  0  0  0  0  0  0  0  0
   17.4916  -26.3774   -5.9458 C   0  0  0  0  0  0  0  0  0  0  0  0
   17.7586  -25.0339   -5.9303 C   0  0  0  0  0  0  0  0  0  0  0  0
   18.4167  -24.4716   -7.0129 C   0  0  0  0  0  0  0  0  0  0  0  0
   18.8113  -25.2107   -8.1008 C   0  0  0  0  0  0  0  0  0  0  0  0
   19.4986  -24.5593   -9.2143 C   0  0  0  0  0  0  0  0  0  0  0  0
   18.7550  -24.5598  -10.5196 C   0  0  2  0  0  0  0  0  0  0  0  0
   19.6264  -23.8393  -11.4607 N   0  0  0  0  0  0  0  0  0  0  0  0
   17.4561  -23.8942  -10.3820 C   0  0  0  0  0  0  0  0  0  0  0  0
   17.3747  -22.6602  -10.5115 O   0  0  0  0  0  0  0  0  0  0  0  0
   18.5376  -26.5564   -8.1036 C   0  0  0  0  0  0  0  0  0  0  0  0
   17.8742  -27.1440   -7.0208 C   0  0  0  0  0  0  0  0  0  0  0  0
   16.3139  -24.6193  -10.1098 O   0  0  0  0  0  0  0  0  0  0  0  0
  2  1  1  1
  2  5  1  0
  3  2  1  0
  4  3  1  0
  5  6  2  0
  8  7  1  0
  8 10  1  0
  9  8  2  0
 11 10  1  0
 12 11  1  6
 12 14  1  0
 13  5  1  0
 13 12  1  0
 14 15  2  0
 16 17  1  0
 17 18  2  0
 18 19  1  0
 20 21  1  0
 20 19  2  0
 22 21  1  1
 22 24  1  0
 23 22  1  0
 23 14  1  0
 24 25  2  0
 24 28  1  0
 26 20  1  0
 27 26  2  0
 27 17  1  0
M  END
$$$$
