CQY.pdb
     RDKit          3D

 28 28  0  0  1  0  0  0  0  0999 V2000
   27.7620  -21.1338  -18.3734 N   0  0  0  0  0  0  0  0  0  0  0  0
   27.4806  -22.0266  -17.2671 C   0  0  1  0  0  0  0  0  0  0  0  0
   28.7726  -22.6326  -16.7348 C   0  0  0  0  0  0  0  0  0  0  0  0
   29.4794  -23.7511  -17.9663 S   0  0  0  0  0  0  0  0  0  0  0  0
   26.8182  -21.2711  -16.1856 C   0  0  0  0  0  0  0  0  0  0  0  0
   27.1236  -20.0694  -16.0158 O   0  0  0  0  0  0  0  0  0  0  0  0
   21.0695  -22.1679  -14.9075 N   0  0  0  0  0  0  0  0  0  0  0  0
   21.3151  -21.1913  -13.9041 C   0  0  0  0  0  0  0  0  0  0  0  0
   20.3576  -20.7528  -13.2364 O   0  0  0  0  0  0  0  0  0  0  0  0
   22.7124  -20.6765  -13.6332 C   0  0  0  0  0  0  0  0  0  0  0  0
   23.6363  -21.4153  -14.5354 C   0  0  0  0  0  0  0  0  0  0  0  0
   25.1046  -21.1615  -14.3438 C   0  0  2  0  0  0  0  0  0  0  0  0
   25.8639  -21.8983  -15.3673 N   0  0  0  0  0  0  0  0  0  0  0  0
   25.6653  -21.5619  -13.0597 C   0  0  0  0  0  0  0  0  0  0  0  0
   25.7346  -22.7646  -12.7188 O   0  0  0  0  0  0  0  0  0  0  0  0
   28.7861  -20.0301   -4.8259 O   0  0  0  0  0  0  0  0  0  0  0  0
   28.4238  -19.9998   -6.1668 C   0  0  0  0  0  0  0  0  0  0  0  0
   29.3452  -20.4329   -7.0833 C   0  0  0  0  0  0  0  0  0  0  0  0
   29.0094  -20.4131   -8.4280 C   0  0  0  0  0  0  0  0  0  0  0  0
   27.7875  -19.9756   -8.8763 C   0  0  0  0  0  0  0  0  0  0  0  0
   27.4938  -19.9750  -10.3082 C   0  0  0  0  0  0  0  0  0  0  0  0
   26.4148  -20.9244  -10.7452 C   0  0  2  0  0  0  0  0  0  0  0  0
   26.1565  -20.5931  -12.1550 N   0  0  0  0  0  0  0  0  0  0  0  0
   25.2081  -20.7560   -9.9299 C   0  0  0  0  0  0  0  0  0  0  0  0
   24.3410  -19.9314  -10.2684 O   0  0  0  0  0  0  0  0  0  0  0  0
   26.8730  -19.5442   -7.9471 C   0  0  0  0  0  0  0  0  0  0  0  0
   27.1918  -19.5559   -6.5848 C   0  0  0  0  0  0  0  0  0  0  0  0
   25.0164  -21.5028   -8.7854 O   0  0  0  0  0  0  0  0  0  0  0  0
  2  1  1  6
  2  5  1  0
  3  2  1  0
  4  3  1  0
  5  6  2  0
  8  7  1  0
  8 10  1  0
  9  8  2  0
 11 10  1  0
 12 11  1  1
 12 14  1  0
 13  5  1  0
 13 12  1  0
 14 15  2  0
 16 17  1  0
 17 18  2  0
 18 19  1  0
 20 21  1  0
 20 19  2  0
 22 21  1  1
 22 24  1  0
 23 22  1  0
 23 14  1  0
 24 25  2  0
 24 28  1  0
 26 20  1  0
 27 26  2  0
 27 17  1  0
M  END
$$$$
