CQY.pdb
     RDKit          3D

 28 28  0  0  1  0  0  0  0  0999 V2000
   26.6829  -12.8556  -17.5115 N   0  0  0  0  0  0  0  0  0  0  0  0
   26.2603  -11.9509  -16.4611 C   0  0  1  0  0  0  0  0  0  0  0  0
   27.3290  -10.8949  -16.2111 C   0  0  0  0  0  0  0  0  0  0  0  0
   28.8059  -11.6691  -15.5135 S   0  0  0  0  0  0  0  0  0  0  0  0
   25.0063  -11.2850  -16.8649 C   0  0  0  0  0  0  0  0  0  0  0  0
   24.8240  -11.0271  -18.0759 O   0  0  0  0  0  0  0  0  0  0  0  0
   19.8525  -13.2510  -15.2265 N   0  0  0  0  0  0  0  0  0  0  0  0
   19.3328  -11.9866  -15.6165 C   0  0  0  0  0  0  0  0  0  0  0  0
   18.0973  -11.8183  -15.6373 O   0  0  0  0  0  0  0  0  0  0  0  0
   20.2486  -10.8459  -16.0053 C   0  0  0  0  0  0  0  0  0  0  0  0
   21.6461  -11.3384  -15.8716 C   0  0  0  0  0  0  0  0  0  0  0  0
   22.7341  -10.3802  -16.2651 C   0  0  2  0  0  0  0  0  0  0  0  0
   24.0412  -10.9507  -15.9003 N   0  0  0  0  0  0  0  0  0  0  0  0
   22.6842   -9.0606  -15.6490 C   0  0  0  0  0  0  0  0  0  0  0  0
   23.1463   -8.8514  -14.5044 O   0  0  0  0  0  0  0  0  0  0  0  0
   21.2734   -0.2756  -15.3469 O   0  0  0  0  0  0  0  0  0  0  0  0
   21.4124   -1.6055  -15.7239 C   0  0  0  0  0  0  0  0  0  0  0  0
   22.6496   -2.1779  -15.5883 C   0  0  0  0  0  0  0  0  0  0  0  0
   22.8157   -3.5037  -15.9571 C   0  0  0  0  0  0  0  0  0  0  0  0
   21.7867   -4.2652  -16.4537 C   0  0  0  0  0  0  0  0  0  0  0  0
   22.0255   -5.6576  -16.8292 C   0  0  0  0  0  0  0  0  0  0  0  0
   21.9801   -6.6466  -15.6994 C   0  0  2  0  0  0  0  0  0  0  0  0
   22.1104   -7.9664  -16.3361 N   0  0  0  0  0  0  0  0  0  0  0  0
   20.7203   -6.5363  -14.9579 C   0  0  0  0  0  0  0  0  0  0  0  0
   20.6837   -5.9034  -13.8881 O   0  0  0  0  0  0  0  0  0  0  0  0
   20.5517   -3.6792  -16.5845 C   0  0  0  0  0  0  0  0  0  0  0  0
   20.3624   -2.3423  -16.2180 C   0  0  0  0  0  0  0  0  0  0  0  0
   19.5660   -7.1266  -15.4306 O   0  0  0  0  0  0  0  0  0  0  0  0
  2  1  1  6
  2  5  1  0
  3  2  1  0
  4  3  1  0
  5  6  2  0
  8  7  1  0
  8 10  1  0
  9  8  2  0
 11 10  1  0
 12 11  1  1
 12 14  1  0
 13  5  1  0
 13 12  1  0
 14 15  2  0
 16 17  1  0
 17 18  2  0
 18 19  1  0
 20 21  1  0
 20 19  2  0
 22 21  1  6
 22 24  1  0
 23 22  1  0
 23 14  1  0
 24 25  2  0
 24 28  1  0
 26 20  1  0
 27 26  2  0
 27 17  1  0
M  END
$$$$
