CQY.pdb
     RDKit          3D

 28 28  0  0  1  0  0  0  0  0999 V2000
   26.5577  -17.6463  -16.4615 N   0  0  0  0  0  0  0  0  0  0  0  0
   27.1334  -18.5979  -15.5325 C   0  0  1  0  0  0  0  0  0  0  0  0
   28.4366  -18.0559  -14.9600 C   0  0  0  0  0  0  0  0  0  0  0  0
   29.5854  -17.6744  -16.3024 S   0  0  0  0  0  0  0  0  0  0  0  0
   26.1831  -18.8400  -14.4291 C   0  0  0  0  0  0  0  0  0  0  0  0
   25.5790  -17.8644  -13.9295 O   0  0  0  0  0  0  0  0  0  0  0  0
   21.8733  -19.8566  -13.3211 N   0  0  0  0  0  0  0  0  0  0  0  0
   21.8929  -20.8998  -12.3555 C   0  0  0  0  0  0  0  0  0  0  0  0
   20.9519  -20.9923  -11.5425 O   0  0  0  0  0  0  0  0  0  0  0  0
   23.0311  -21.8958  -12.2970 C   0  0  0  0  0  0  0  0  0  0  0  0
   24.0419  -21.4685  -13.3015 C   0  0  0  0  0  0  0  0  0  0  0  0
   25.0350  -20.4340  -12.8537 C   0  0  2  0  0  0  0  0  0  0  0  0
   25.9675  -20.1449  -13.9554 N   0  0  0  0  0  0  0  0  0  0  0  0
   25.8624  -20.7888  -11.7079 C   0  0  0  0  0  0  0  0  0  0  0  0
   26.6521  -21.7598  -11.7426 O   0  0  0  0  0  0  0  0  0  0  0  0
   29.5919  -20.0511   -3.7024 O   0  0  0  0  0  0  0  0  0  0  0  0
   29.0686  -19.9295   -4.9836 C   0  0  0  0  0  0  0  0  0  0  0  0
   28.0298  -19.0551   -5.1648 C   0  0  0  0  0  0  0  0  0  0  0  0
   27.4891  -18.9146   -6.4333 C   0  0  0  0  0  0  0  0  0  0  0  0
   27.9554  -19.6192   -7.5157 C   0  0  0  0  0  0  0  0  0  0  0  0
   27.3407  -19.4305   -8.8284 C   0  0  0  0  0  0  0  0  0  0  0  0
   26.4097  -20.5246   -9.2674 C   0  0  2  0  0  0  0  0  0  0  0  0
   25.7993  -20.0355  -10.5134 N   0  0  0  0  0  0  0  0  0  0  0  0
   25.3926  -20.7876   -8.2449 C   0  0  0  0  0  0  0  0  0  0  0  0
   25.7226  -21.2919   -7.1572 O   0  0  0  0  0  0  0  0  0  0  0  0
   28.9972  -20.4924   -7.3203 C   0  0  0  0  0  0  0  0  0  0  0  0
   29.5575  -20.6492   -6.0479 C   0  0  0  0  0  0  0  0  0  0  0  0
   24.0658  -20.4822   -8.4703 O   0  0  0  0  0  0  0  0  0  0  0  0
  2  1  1  6
  2  5  1  0
  3  2  1  0
  4  3  1  0
  5  6  2  0
  8  7  1  0
  8 10  1  0
  9  8  2  0
 11 10  1  0
 12 11  1  6
 12 14  1  0
 13  5  1  0
 13 12  1  0
 14 15  2  0
 16 17  1  0
 17 18  2  0
 18 19  1  0
 20 21  1  0
 20 19  2  0
 22 21  1  1
 22 24  1  0
 23 22  1  0
 23 14  1  0
 24 25  2  0
 24 28  1  0
 26 20  1  0
 27 26  2  0
 27 17  1  0
M  END
$$$$
