FLN.pdb
     RDKit          3D

 28 28  0  0  1  0  0  0  0  0999 V2000
   18.4066   -9.3622  -12.8323 N   0  0  0  0  0  0  0  0  0  0  0  0
   18.6806   -8.5652  -11.6540 C   0  0  1  0  0  0  0  0  0  0  0  0
   19.7543   -7.5130  -11.9526 C   0  0  0  0  0  0  0  0  0  0  0  0
   20.9992   -8.2491  -12.2214 C   0  0  0  0  0  0  0  0  0  0  0  0
   21.3689   -8.4293  -13.5540 C   0  0  0  0  0  0  0  0  0  0  0  0
   22.5288   -9.1148  -13.8165 C   0  0  0  0  0  0  0  0  0  0  0  0
   23.2909   -9.6020  -12.7879 C   0  0  0  0  0  0  0  0  0  0  0  0
   22.9096   -9.4147  -11.4615 C   0  0  0  0  0  0  0  0  0  0  0  0
   21.7386   -8.7234  -11.1736 C   0  0  0  0  0  0  0  0  0  0  0  0
   17.4778   -7.8159  -11.2087 C   0  0  0  0  0  0  0  0  0  0  0  0
   16.7379   -7.2886  -12.0609 O   0  0  0  0  0  0  0  0  0  0  0  0
   13.2907   -8.2718  -10.1362 C   0  0  0  0  0  0  0  0  0  0  0  0
   14.2756   -8.9148   -9.1708 C   0  0  2  0  0  0  0  0  0  0  0  0
   13.5146   -9.7820   -8.2145 C   0  0  0  0  0  0  0  0  0  0  0  0
   15.1346   -7.8783   -8.4984 C   0  0  0  0  0  0  0  0  0  0  0  0
   15.9299   -7.0327   -9.4060 C   0  0  2  0  0  0  0  0  0  0  0  0
   17.1615   -7.6932   -9.8419 N   0  0  0  0  0  0  0  0  0  0  0  0
   16.3479   -5.7094   -8.8978 C   0  0  0  0  0  0  0  0  0  0  0  0
   17.3416   -5.6833   -8.1275 O   0  0  0  0  0  0  0  0  0  0  0  0
   17.1484   -0.7804   -7.8218 N   0  0  0  0  0  0  0  0  0  0  0  0
   17.4352   -1.1816   -9.1775 C   0  0  0  0  0  0  0  0  0  0  0  0
   18.0689   -0.3566   -9.8671 O   0  0  0  0  0  0  0  0  0  0  0  0
   16.9966   -2.4834   -9.6847 C   0  0  0  0  0  0  0  0  0  0  0  0
   16.2742   -3.2576   -8.6279 C   0  0  2  0  0  0  0  0  0  0  0  0
   15.7231   -4.5010   -9.2107 N   0  0  0  0  0  0  0  0  0  0  0  0
   15.0490   -2.4828   -8.2344 C   0  0  0  0  0  0  0  0  0  0  0  0
   13.9393   -2.7583   -8.7139 O   0  0  0  0  0  0  0  0  0  0  0  0
   15.1402   -1.4320   -7.3156 O   0  0  0  0  0  0  0  0  0  0  0  0
  2  1  1  6
  3  4  1  0
  3  2  1  0
  4  9  2  0
  5  4  1  0
  5  6  2  0
  6  7  1  0
  7  8  2  0
  9  8  1  0
 10  2  1  0
 11 10  2  0
 13 12  1  6
 14 13  1  0
 15 13  1  0
 16 17  1  0
 16 15  1  1
 17 10  1  0
 18 16  1  0
 19 18  2  0
 20 21  1  0
 21 22  2  0
 23 21  1  0
 24 23  1  6
 24 25  1  0
 25 18  1  0
 26 24  1  0
 26 28  1  0
 27 26  2  0
M  END
$$$$
