FLN.pdb
     RDKit          3D

 28 28  0  0  1  0  0  0  0  0999 V2000
   26.2931  -21.5030  -14.2021 N   0  0  0  0  0  0  0  0  0  0  0  0
   25.4451  -20.5985  -13.4528 C   0  0  1  0  0  0  0  0  0  0  0  0
   24.0068  -20.6466  -13.9804 C   0  0  0  0  0  0  0  0  0  0  0  0
   24.0333  -20.0493  -15.3245 C   0  0  0  0  0  0  0  0  0  0  0  0
   23.9892  -20.9144  -16.4175 C   0  0  0  0  0  0  0  0  0  0  0  0
   24.0133  -20.3679  -17.6764 C   0  0  0  0  0  0  0  0  0  0  0  0
   24.0789  -19.0094  -17.8384 C   0  0  0  0  0  0  0  0  0  0  0  0
   24.1225  -18.1571  -16.7377 C   0  0  0  0  0  0  0  0  0  0  0  0
   24.0991  -18.6897  -15.4541 C   0  0  0  0  0  0  0  0  0  0  0  0
   25.3738  -20.9776  -12.0184 C   0  0  0  0  0  0  0  0  0  0  0  0
   25.0088  -22.1278  -11.7093 O   0  0  0  0  0  0  0  0  0  0  0  0
   26.9947  -18.7049   -6.4736 C   0  0  0  0  0  0  0  0  0  0  0  0
   26.4236  -19.8693   -7.2696 C   0  0  2  0  0  0  0  0  0  0  0  0
   27.0916  -21.1328   -6.8192 C   0  0  0  0  0  0  0  0  0  0  0  0
   26.5295  -19.6210   -8.7500 C   0  0  0  0  0  0  0  0  0  0  0  0
   25.6282  -20.4281   -9.5910 C   0  0  2  0  0  0  0  0  0  0  0  0
   25.7120  -20.0597  -11.0054 N   0  0  0  0  0  0  0  0  0  0  0  0
   24.1888  -20.3953   -9.2573 C   0  0  0  0  0  0  0  0  0  0  0  0
   23.4565  -19.6591   -9.9668 O   0  0  0  0  0  0  0  0  0  0  0  0
   19.2939  -21.1797   -9.0137 N   0  0  0  0  0  0  0  0  0  0  0  0
   20.2557  -22.0918   -9.5832 C   0  0  0  0  0  0  0  0  0  0  0  0
   19.7887  -23.1431  -10.0675 O   0  0  0  0  0  0  0  0  0  0  0  0
   21.6855  -21.7758   -9.5785 C   0  0  0  0  0  0  0  0  0  0  0  0
   22.1228  -21.2786   -8.2370 C   0  0  2  0  0  0  0  0  0  0  0  0
   23.5936  -21.1168   -8.2212 N   0  0  0  0  0  0  0  0  0  0  0  0
   21.8799  -22.3677   -7.2316 C   0  0  0  0  0  0  0  0  0  0  0  0
   20.7550  -22.8716   -7.0968 O   0  0  0  0  0  0  0  0  0  0  0  0
   22.9243  -22.8342   -6.4264 O   0  0  0  0  0  0  0  0  0  0  0  0
  2  1  1  6
  3  4  1  0
  3  2  1  0
  4  9  2  0
  5  4  1  0
  5  6  2  0
  6  7  1  0
  7  8  2  0
  9  8  1  0
 10  2  1  0
 11 10  2  0
 13 12  1  1
 14 13  1  0
 15 13  1  0
 16 17  1  0
 16 15  1  1
 17 10  1  0
 18 16  1  0
 19 18  2  0
 20 21  1  0
 21 22  2  0
 23 21  1  0
 24 23  1  6
 24 25  1  0
 25 18  1  0
 26 24  1  0
 26 28  1  0
 27 26  2  0
M  END
$$$$
