FLN.pdb
     RDKit          3D

 28 28  0  0  1  0  0  0  0  0999 V2000
   28.2559  -20.8514   -8.5931 N   0  0  0  0  0  0  0  0  0  0  0  0
   26.8289  -20.6174   -8.5074 C   0  0  1  0  0  0  0  0  0  0  0  0
   26.5282  -19.4695   -7.5374 C   0  0  0  0  0  0  0  0  0  0  0  0
   27.4456  -19.6315   -6.3989 C   0  0  0  0  0  0  0  0  0  0  0  0
   28.5153  -18.7424   -6.2989 C   0  0  0  0  0  0  0  0  0  0  0  0
   29.3777  -18.8845   -5.2404 C   0  0  0  0  0  0  0  0  0  0  0  0
   29.1799  -19.8764   -4.3167 C   0  0  0  0  0  0  0  0  0  0  0  0
   28.1071  -20.7575   -4.4290 C   0  0  0  0  0  0  0  0  0  0  0  0
   27.2219  -20.6313   -5.4932 C   0  0  0  0  0  0  0  0  0  0  0  0
   26.2613  -20.2120   -9.8188 C   0  0  0  0  0  0  0  0  0  0  0  0
   26.0563  -19.0047  -10.0473 O   0  0  0  0  0  0  0  0  0  0  0  0
   27.3392  -18.9394  -13.8407 C   0  0  0  0  0  0  0  0  0  0  0  0
   27.7843  -20.3115  -13.3560 C   0  0  2  0  0  0  0  0  0  0  0  0
   28.8101  -20.8478  -14.3078 C   0  0  0  0  0  0  0  0  0  0  0  0
   26.6066  -21.2262  -13.1540 C   0  0  0  0  0  0  0  0  0  0  0  0
   25.6111  -20.7651  -12.1705 C   0  0  2  0  0  0  0  0  0  0  0  0
   25.9528  -21.1684  -10.8053 N   0  0  0  0  0  0  0  0  0  0  0  0
   24.2135  -21.2000  -12.3745 C   0  0  0  0  0  0  0  0  0  0  0  0
   23.8987  -22.3325  -11.9274 O   0  0  0  0  0  0  0  0  0  0  0  0
   18.8747  -21.5649  -11.8939 N   0  0  0  0  0  0  0  0  0  0  0  0
   19.5220  -20.5163  -12.6441 C   0  0  0  0  0  0  0  0  0  0  0  0
   18.8282  -19.9696  -13.5258 O   0  0  0  0  0  0  0  0  0  0  0  0
   20.9090  -20.1390  -12.3649 C   0  0  0  0  0  0  0  0  0  0  0  0
   21.8659  -21.0135  -13.1118 C   0  0  2  0  0  0  0  0  0  0  0  0
   23.2307  -20.4490  -13.0215 N   0  0  0  0  0  0  0  0  0  0  0  0
   21.5438  -20.9172  -14.5757 C   0  0  0  0  0  0  0  0  0  0  0  0
   22.0203  -20.0110  -15.2751 O   0  0  0  0  0  0  0  0  0  0  0  0
   20.6963  -21.8534  -15.1776 O   0  0  0  0  0  0  0  0  0  0  0  0
  2  1  1  6
  3  4  1  0
  3  2  1  0
  4  9  2  0
  5  4  1  0
  5  6  2  0
  6  7  1  0
  7  8  2  0
  9  8  1  0
 10  2  1  0
 11 10  2  0
 13 12  1  6
 14 13  1  0
 15 13  1  0
 16 17  1  0
 16 15  1  6
 17 10  1  0
 18 16  1  0
 19 18  2  0
 20 21  1  0
 21 22  2  0
 23 21  1  0
 24 23  1  1
 24 25  1  0
 25 18  1  0
 26 24  1  0
 26 28  1  0
 27 26  2  0
M  END
$$$$
