FLN.pdb
     RDKit          3D

 28 28  0  0  1  0  0  0  0  0999 V2000
   27.1533  -21.9739  -16.4191 N   0  0  0  0  0  0  0  0  0  0  0  0
   26.7921  -20.8420  -15.5903 C   0  0  1  0  0  0  0  0  0  0  0  0
   25.9115  -19.8608  -16.3719 C   0  0  0  0  0  0  0  0  0  0  0  0
   26.8135  -18.8426  -16.9320 C   0  0  0  0  0  0  0  0  0  0  0  0
   27.1985  -17.7918  -16.0998 C   0  0  0  0  0  0  0  0  0  0  0  0
   28.0401  -16.8360  -16.6121 C   0  0  0  0  0  0  0  0  0  0  0  0
   28.4806  -16.9255  -17.9059 C   0  0  0  0  0  0  0  0  0  0  0  0
   28.0879  -17.9806  -18.7260 C   0  0  0  0  0  0  0  0  0  0  0  0
   27.2362  -18.9592  -18.2271 C   0  0  0  0  0  0  0  0  0  0  0  0
   25.9974  -21.2615  -14.4077 C   0  0  0  0  0  0  0  0  0  0  0  0
   25.0661  -22.0753  -14.5565 O   0  0  0  0  0  0  0  0  0  0  0  0
   25.5902  -19.9003   -8.3221 C   0  0  0  0  0  0  0  0  0  0  0  0
   24.9791  -20.5524   -9.5537 C   0  0  2  0  0  0  0  0  0  0  0  0
   24.5514  -21.9440   -9.1984 C   0  0  0  0  0  0  0  0  0  0  0  0
   25.9187  -20.4872  -10.7273 C   0  0  0  0  0  0  0  0  0  0  0  0
   25.3778  -21.0014  -11.9978 C   0  0  2  0  0  0  0  0  0  0  0  0
   26.2798  -20.7552  -13.1242 N   0  0  0  0  0  0  0  0  0  0  0  0
   24.0602  -20.4859  -12.4247 C   0  0  0  0  0  0  0  0  0  0  0  0
   24.0468  -19.3729  -13.0102 O   0  0  0  0  0  0  0  0  0  0  0  0
   19.5961  -20.5065  -15.8180 N   0  0  0  0  0  0  0  0  0  0  0  0
   20.2802  -19.9570  -14.6729 C   0  0  0  0  0  0  0  0  0  0  0  0
   19.7458  -18.9598  -14.1460 O   0  0  0  0  0  0  0  0  0  0  0  0
   21.5237  -20.5548  -14.1822 C   0  0  0  0  0  0  0  0  0  0  0  0
   21.6069  -20.4769  -12.6906 C   0  0  2  0  0  0  0  0  0  0  0  0
   22.8443  -21.1418  -12.2255 N   0  0  0  0  0  0  0  0  0  0  0  0
   20.5135  -21.3309  -12.1150 C   0  0  0  0  0  0  0  0  0  0  0  0
   20.7781  -22.3559  -11.4695 O   0  0  0  0  0  0  0  0  0  0  0  0
   19.1713  -20.9821  -12.2988 O   0  0  0  0  0  0  0  0  0  0  0  0
  2  1  1  6
  3  4  1  0
  3  2  1  0
  4  9  2  0
  5  4  1  0
  5  6  2  0
  6  7  1  0
  7  8  2  0
  9  8  1  0
 10  2  1  0
 11 10  2  0
 13 12  1  1
 14 13  1  0
 15 13  1  0
 16 17  1  0
 16 15  1  1
 17 10  1  0
 18 16  1  0
 19 18  2  0
 20 21  1  0
 21 22  2  0
 23 21  1  0
 24 23  1  6
 24 25  1  0
 25 18  1  0
 26 24  1  0
 26 28  1  0
 27 26  2  0
M  END
$$$$
