FLN.pdb
     RDKit          3D

 28 28  0  0  1  0  0  0  0  0999 V2000
   19.8175  -11.6202  -19.7795 N   0  0  0  0  0  0  0  0  0  0  0  0
   20.8007  -10.5618  -19.8878 C   0  0  1  0  0  0  0  0  0  0  0  0
   20.1667   -9.2947  -20.4723 C   0  0  0  0  0  0  0  0  0  0  0  0
   19.9542   -9.5547  -21.9045 C   0  0  0  0  0  0  0  0  0  0  0  0
   18.6827   -9.9639  -22.3057 C   0  0  0  0  0  0  0  0  0  0  0  0
   18.4731  -10.2093  -23.6399 C   0  0  0  0  0  0  0  0  0  0  0  0
   19.4940  -10.0523  -24.5396 C   0  0  0  0  0  0  0  0  0  0  0  0
   20.7590   -9.6430  -24.1249 C   0  0  0  0  0  0  0  0  0  0  0  0
   20.9927   -9.3892  -22.7785 C   0  0  0  0  0  0  0  0  0  0  0  0
   21.3418  -10.1798  -18.5583 C   0  0  0  0  0  0  0  0  0  0  0  0
   20.5689  -10.1044  -17.5843 O   0  0  0  0  0  0  0  0  0  0  0  0
   26.8112  -10.0654  -15.6474 C   0  0  0  0  0  0  0  0  0  0  0  0
   25.3408   -9.6737  -15.6375 C   0  0  2  0  0  0  0  0  0  0  0  0
   24.6858  -10.2959  -14.4419 C   0  0  0  0  0  0  0  0  0  0  0  0
   24.6763  -10.0195  -16.9425 C   0  0  0  0  0  0  0  0  0  0  0  0
   23.2623   -9.6209  -17.0555 C   0  0  2  0  0  0  0  0  0  0  0  0
   22.7113   -9.9026  -18.3822 N   0  0  0  0  0  0  0  0  0  0  0  0
   22.9398   -8.2042  -16.7848 C   0  0  0  0  0  0  0  0  0  0  0  0
   23.2175   -7.3745  -17.6882 O   0  0  0  0  0  0  0  0  0  0  0  0
   19.4105   -3.9167  -16.3218 N   0  0  0  0  0  0  0  0  0  0  0  0
   20.2569   -4.6468  -15.4097 C   0  0  0  0  0  0  0  0  0  0  0  0
   20.6663   -4.0092  -14.4179 O   0  0  0  0  0  0  0  0  0  0  0  0
   20.5972   -6.0490  -15.6593 C   0  0  0  0  0  0  0  0  0  0  0  0
   22.0671   -6.2819  -15.5071 C   0  0  2  0  0  0  0  0  0  0  0  0
   22.3551   -7.7297  -15.6095 N   0  0  0  0  0  0  0  0  0  0  0  0
   22.4505   -5.9482  -14.0936 C   0  0  0  0  0  0  0  0  0  0  0  0
   22.2245   -6.7412  -13.1677 O   0  0  0  0  0  0  0  0  0  0  0  0
   23.0722   -4.7307  -13.7969 O   0  0  0  0  0  0  0  0  0  0  0  0
  2  1  1  1
  3  4  1  0
  3  2  1  0
  4  9  2  0
  5  4  1  0
  5  6  2  0
  6  7  1  0
  7  8  2  0
  9  8  1  0
 10  2  1  0
 11 10  2  0
 13 12  1  6
 14 13  1  0
 15 13  1  0
 16 17  1  0
 16 15  1  6
 17 10  1  0
 18 16  1  0
 19 18  2  0
 20 21  1  0
 21 22  2  0
 23 21  1  0
 24 23  1  1
 24 25  1  0
 25 18  1  0
 26 24  1  0
 26 28  1  0
 27 26  2  0
M  END
$$$$
