FLN.pdb
     RDKit          3D

 28 28  0  0  1  0  0  0  0  0999 V2000
   26.1295  -21.5258  -14.0878 N   0  0  0  0  0  0  0  0  0  0  0  0
   25.5914  -20.5144  -13.2012 C   0  0  1  0  0  0  0  0  0  0  0  0
   24.0824  -20.3554  -13.4177 C   0  0  0  0  0  0  0  0  0  0  0  0
   23.9106  -19.7650  -14.7541 C   0  0  0  0  0  0  0  0  0  0  0  0
   23.5715  -20.6220  -15.8008 C   0  0  0  0  0  0  0  0  0  0  0  0
   23.4086  -20.0819  -17.0522 C   0  0  0  0  0  0  0  0  0  0  0  0
   23.5779  -18.7373  -17.2513 C   0  0  0  0  0  0  0  0  0  0  0  0
   23.9167  -17.8930  -16.1967 C   0  0  0  0  0  0  0  0  0  0  0  0
   24.0864  -18.4194  -14.9216 C   0  0  0  0  0  0  0  0  0  0  0  0
   25.7689  -20.8872  -11.7744 C   0  0  0  0  0  0  0  0  0  0  0  0
   25.6528  -22.0808  -11.4372 O   0  0  0  0  0  0  0  0  0  0  0  0
   27.4657  -18.4191   -6.3612 C   0  0  0  0  0  0  0  0  0  0  0  0
   27.1327  -19.6767   -7.1507 C   0  0  2  0  0  0  0  0  0  0  0  0
   28.1380  -20.7357   -6.8140 C   0  0  0  0  0  0  0  0  0  0  0  0
   27.0293  -19.3840   -8.6231 C   0  0  0  0  0  0  0  0  0  0  0  0
   26.1151  -20.2593   -9.3776 C   0  0  2  0  0  0  0  0  0  0  0  0
   26.0660  -19.9152  -10.7997 N   0  0  0  0  0  0  0  0  0  0  0  0
   24.7068  -20.3039   -8.9315 C   0  0  0  0  0  0  0  0  0  0  0  0
   23.9047  -19.5189   -9.4989 O   0  0  0  0  0  0  0  0  0  0  0  0
   21.1722  -20.3537  -10.7548 N   0  0  0  0  0  0  0  0  0  0  0  0
   21.0523  -21.1612   -9.5653 C   0  0  0  0  0  0  0  0  0  0  0  0
   19.9302  -21.1628   -9.0190 O   0  0  0  0  0  0  0  0  0  0  0  0
   22.1951  -21.9211   -9.0546 C   0  0  0  0  0  0  0  0  0  0  0  0
   22.7449  -21.2968   -7.8113 C   0  0  2  0  0  0  0  0  0  0  0  0
   24.2118  -21.1477   -7.9358 N   0  0  0  0  0  0  0  0  0  0  0  0
   22.5875  -22.2781   -6.6851 C   0  0  0  0  0  0  0  0  0  0  0  0
   21.4653  -22.6748   -6.3374 O   0  0  0  0  0  0  0  0  0  0  0  0
   23.7102  -22.7633   -6.0061 O   0  0  0  0  0  0  0  0  0  0  0  0
  2  1  1  6
  3  4  1  0
  3  2  1  0
  4  9  2  0
  5  4  1  0
  5  6  2  0
  6  7  1  0
  7  8  2  0
  9  8  1  0
 10  2  1  0
 11 10  2  0
 13 12  1  1
 14 13  1  0
 15 13  1  0
 16 17  1  0
 16 15  1  1
 17 10  1  0
 18 16  1  0
 19 18  2  0
 20 21  1  0
 21 22  2  0
 23 21  1  0
 24 23  1  6
 24 25  1  0
 25 18  1  0
 26 24  1  0
 26 28  1  0
 27 26  2  0
M  END
$$$$
