FLN.pdb
     RDKit          3D

 28 28  0  0  1  0  0  0  0  0999 V2000
   21.8223  -26.2352  -12.5174 N   0  0  0  0  0  0  0  0  0  0  0  0
   21.7993  -25.4145  -13.7109 C   0  0  1  0  0  0  0  0  0  0  0  0
   20.8895  -26.0370  -14.7757 C   0  0  0  0  0  0  0  0  0  0  0  0
   21.6519  -27.1362  -15.3878 C   0  0  0  0  0  0  0  0  0  0  0  0
   21.3583  -28.4354  -14.9744 C   0  0  0  0  0  0  0  0  0  0  0  0
   22.0636  -29.4688  -15.5391 C   0  0  0  0  0  0  0  0  0  0  0  0
   23.0256  -29.2151  -16.4806 C   0  0  0  0  0  0  0  0  0  0  0  0
   23.3086  -27.9124  -16.8840 C   0  0  0  0  0  0  0  0  0  0  0  0
   22.6060  -26.8514  -16.3249 C   0  0  0  0  0  0  0  0  0  0  0  0
   21.2498  -24.0625  -13.4344 C   0  0  0  0  0  0  0  0  0  0  0  0
   20.5651  -23.8806  -12.4098 O   0  0  0  0  0  0  0  0  0  0  0  0
   20.2087  -18.8597  -14.6316 C   0  0  0  0  0  0  0  0  0  0  0  0
   21.6553  -19.1806  -14.2849 C   0  0  2  0  0  0  0  0  0  0  0  0
   22.5454  -18.1920  -14.9748 C   0  0  0  0  0  0  0  0  0  0  0  0
   21.9848  -20.6153  -14.5972 C   0  0  0  0  0  0  0  0  0  0  0  0
   21.1226  -21.6168  -13.9455 C   0  0  2  0  0  0  0  0  0  0  0  0
   21.4905  -22.9861  -14.3099 N   0  0  0  0  0  0  0  0  0  0  0  0
   19.6694  -21.5167  -14.1951 C   0  0  0  0  0  0  0  0  0  0  0  0
   19.2711  -21.7896  -15.3564 O   0  0  0  0  0  0  0  0  0  0  0  0
   16.6391  -23.0294  -10.5794 N   0  0  0  0  0  0  0  0  0  0  0  0
   16.4305  -22.7045  -11.9694 C   0  0  0  0  0  0  0  0  0  0  0  0
   16.2506  -23.6742  -12.7343 O   0  0  0  0  0  0  0  0  0  0  0  0
   16.4349  -21.3127  -12.4247 C   0  0  0  0  0  0  0  0  0  0  0  0
   17.2943  -21.1456  -13.6378 C   0  0  2  0  0  0  0  0  0  0  0  0
   18.7200  -21.1449  -13.2418 N   0  0  0  0  0  0  0  0  0  0  0  0
   17.0802  -19.7598  -14.1763 C   0  0  0  0  0  0  0  0  0  0  0  0
   17.7165  -18.7955  -13.7259 O   0  0  0  0  0  0  0  0  0  0  0  0
   16.1545  -19.5329  -15.2003 O   0  0  0  0  0  0  0  0  0  0  0  0
  2  1  1  1
  3  4  1  0
  3  2  1  0
  4  9  2  0
  5  4  1  0
  5  6  2  0
  6  7  1  0
  7  8  2  0
  9  8  1  0
 10  2  1  0
 11 10  2  0
 13 12  1  6
 14 13  1  0
 15 13  1  0
 16 17  1  0
 16 15  1  6
 17 10  1  0
 18 16  1  0
 19 18  2  0
 20 21  1  0
 21 22  2  0
 23 21  1  0
 24 23  1  1
 24 25  1  0
 25 18  1  0
 26 24  1  0
 26 28  1  0
 27 26  2  0
M  END
$$$$
