FLN.pdb
     RDKit          3D

 28 28  0  0  1  0  0  0  0  0999 V2000
   21.1985  -13.8879  -16.8404 N   0  0  0  0  0  0  0  0  0  0  0  0
   21.9805  -12.9777  -17.6520 C   0  0  1  0  0  0  0  0  0  0  0  0
   21.1807  -12.5271  -18.8794 C   0  0  0  0  0  0  0  0  0  0  0  0
   21.0882  -13.6937  -19.7708 C   0  0  0  0  0  0  0  0  0  0  0  0
   19.9064  -14.4337  -19.7467 C   0  0  0  0  0  0  0  0  0  0  0  0
   19.8092  -15.5244  -20.5746 C   0  0  0  0  0  0  0  0  0  0  0  0
   20.8521  -15.8636  -21.3953 C   0  0  0  0  0  0  0  0  0  0  0  0
   22.0267  -15.1154  -21.4089 C   0  0  0  0  0  0  0  0  0  0  0  0
   22.1460  -14.0072  -20.5785 C   0  0  0  0  0  0  0  0  0  0  0  0
   22.3282  -11.7411  -16.9063 C   0  0  0  0  0  0  0  0  0  0  0  0
   21.5565  -11.3256  -16.0211 O   0  0  0  0  0  0  0  0  0  0  0  0
   25.4954  -10.7980  -13.8955 C   0  0  0  0  0  0  0  0  0  0  0  0
   25.9738  -10.9037  -15.3362 C   0  0  2  0  0  0  0  0  0  0  0  0
   27.4722  -10.9264  -15.3446 C   0  0  0  0  0  0  0  0  0  0  0  0
   25.3784   -9.8162  -16.1890 C   0  0  0  0  0  0  0  0  0  0  0  0
   23.9177   -9.8850  -16.3701 C   0  0  2  0  0  0  0  0  0  0  0  0
   23.5136  -11.0331  -17.1835 N   0  0  0  0  0  0  0  0  0  0  0  0
   23.2609   -8.7125  -16.9848 C   0  0  0  0  0  0  0  0  0  0  0  0
   23.3347   -8.6096  -18.2361 O   0  0  0  0  0  0  0  0  0  0  0  0
   20.7223   -4.4682  -18.2324 N   0  0  0  0  0  0  0  0  0  0  0  0
   19.9359   -5.3041  -17.3582 C   0  0  0  0  0  0  0  0  0  0  0  0
   18.7359   -4.9846  -17.2334 O   0  0  0  0  0  0  0  0  0  0  0  0
   20.5371   -6.4502  -16.6732 C   0  0  0  0  0  0  0  0  0  0  0  0
   21.9776   -6.6057  -17.0461 C   0  0  2  0  0  0  0  0  0  0  0  0
   22.5722   -7.7236  -16.2805 N   0  0  0  0  0  0  0  0  0  0  0  0
   22.7238   -5.4024  -16.5446 C   0  0  0  0  0  0  0  0  0  0  0  0
   22.9944   -5.2760  -15.3412 O   0  0  0  0  0  0  0  0  0  0  0  0
   23.1280   -4.3991  -17.4317 O   0  0  0  0  0  0  0  0  0  0  0  0
  2  1  1  1
  3  4  1  0
  3  2  1  0
  4  9  2  0
  5  4  1  0
  5  6  2  0
  6  7  1  0
  7  8  2  0
  9  8  1  0
 10  2  1  0
 11 10  2  0
 13 12  1  1
 14 13  1  0
 15 13  1  0
 16 17  1  0
 16 15  1  6
 17 10  1  0
 18 16  1  0
 19 18  2  0
 20 21  1  0
 21 22  2  0
 23 21  1  0
 24 23  1  1
 24 25  1  0
 25 18  1  0
 26 24  1  0
 26 28  1  0
 27 26  2  0
M  END
$$$$
