FLN.pdb
     RDKit          3D

 28 28  0  0  1  0  0  0  0  0999 V2000
   27.2034  -19.1031  -16.3136 N   0  0  0  0  0  0  0  0  0  0  0  0
   26.4344  -18.4956  -15.2467 C   0  0  1  0  0  0  0  0  0  0  0  0
   25.4996  -17.4160  -15.8031 C   0  0  0  0  0  0  0  0  0  0  0  0
   26.3308  -16.2271  -16.0473 C   0  0  0  0  0  0  0  0  0  0  0  0
   26.8125  -16.0296  -17.3411 C   0  0  0  0  0  0  0  0  0  0  0  0
   27.5892  -14.9233  -17.5803 C   0  0  0  0  0  0  0  0  0  0  0  0
   27.8743  -14.0474  -16.5665 C   0  0  0  0  0  0  0  0  0  0  0  0
   27.3865  -14.2571  -15.2790 C   0  0  0  0  0  0  0  0  0  0  0  0
   26.5982  -15.3711  -15.0151 C   0  0  0  0  0  0  0  0  0  0  0  0
   25.5635  -19.4883  -14.5666 C   0  0  0  0  0  0  0  0  0  0  0  0
   25.1426  -20.4702  -15.2073 O   0  0  0  0  0  0  0  0  0  0  0  0
   26.4066  -22.0841  -11.0967 C   0  0  0  0  0  0  0  0  0  0  0  0
   26.0143  -20.6901  -10.6291 C   0  0  2  0  0  0  0  0  0  0  0  0
   26.2203  -20.6046   -9.1473 C   0  0  0  0  0  0  0  0  0  0  0  0
   24.6184  -20.3408  -11.0692 C   0  0  0  0  0  0  0  0  0  0  0  0
   24.3967  -20.3444  -12.5259 C   0  0  2  0  0  0  0  0  0  0  0  0
   25.2077  -19.3374  -13.2124 N   0  0  0  0  0  0  0  0  0  0  0  0
   23.0125  -20.1262  -12.9954 C   0  0  0  0  0  0  0  0  0  0  0  0
   22.6808  -18.9422  -13.2595 O   0  0  0  0  0  0  0  0  0  0  0  0
   18.9843  -19.5491  -16.4314 N   0  0  0  0  0  0  0  0  0  0  0  0
   19.3535  -20.7390  -15.7039 C   0  0  0  0  0  0  0  0  0  0  0  0
   18.4540  -21.5928  -15.5640 O   0  0  0  0  0  0  0  0  0  0  0  0
   20.7085  -20.9059  -15.1744 C   0  0  0  0  0  0  0  0  0  0  0  0
   20.7279  -20.7531  -13.6863 C   0  0  2  0  0  0  0  0  0  0  0  0
   22.0595  -21.1321  -13.1642 N   0  0  0  0  0  0  0  0  0  0  0  0
   19.8134  -21.7888  -13.0970 C   0  0  0  0  0  0  0  0  0  0  0  0
   18.6661  -21.4925  -12.7319 O   0  0  0  0  0  0  0  0  0  0  0  0
   20.2433  -23.1117  -12.9494 O   0  0  0  0  0  0  0  0  0  0  0  0
  2  1  1  6
  3  4  1  0
  3  2  1  0
  4  9  2  0
  5  4  1  0
  5  6  2  0
  6  7  1  0
  7  8  2  0
  9  8  1  0
 10  2  1  0
 11 10  2  0
 13 12  1  1
 14 13  1  0
 15 13  1  0
 16 17  1  0
 16 15  1  1
 17 10  1  0
 18 16  1  0
 19 18  2  0
 20 21  1  0
 21 22  2  0
 23 21  1  0
 24 23  1  6
 24 25  1  0
 25 18  1  0
 26 24  1  0
 26 28  1  0
 27 26  2  0
M  END
$$$$
