FLN.pdb
     RDKit          3D

 28 28  0  0  1  0  0  0  0  0999 V2000
   28.0122  -21.6642  -16.1630 N   0  0  0  0  0  0  0  0  0  0  0  0
   26.7611  -20.9378  -16.2391 C   0  0  1  0  0  0  0  0  0  0  0  0
   26.1075  -21.1323  -17.6117 C   0  0  0  0  0  0  0  0  0  0  0  0
   24.9223  -20.2612  -17.6388 C   0  0  0  0  0  0  0  0  0  0  0  0
   23.6779  -20.8562  -17.4333 C   0  0  0  0  0  0  0  0  0  0  0  0
   22.5651  -20.0527  -17.4565 C   0  0  0  0  0  0  0  0  0  0  0  0
   22.6897  -18.7065  -17.6763 C   0  0  0  0  0  0  0  0  0  0  0  0
   23.9391  -18.1257  -17.8801 C   0  0  0  0  0  0  0  0  0  0  0  0
   25.0788  -18.9211  -17.8607 C   0  0  0  0  0  0  0  0  0  0  0  0
   25.7804  -21.4315  -15.2388 C   0  0  0  0  0  0  0  0  0  0  0  0
   25.5111  -22.6471  -15.1974 O   0  0  0  0  0  0  0  0  0  0  0  0
   25.5783  -22.5165  -10.9119 C   0  0  0  0  0  0  0  0  0  0  0  0
   25.8583  -21.0509  -11.2106 C   0  0  2  0  0  0  0  0  0  0  0  0
   26.2146  -20.3591   -9.9299 C   0  0  0  0  0  0  0  0  0  0  0  0
   24.7085  -20.4153  -11.9443 C   0  0  0  0  0  0  0  0  0  0  0  0
   24.3476  -21.0514  -13.2234 C   0  0  2  0  0  0  0  0  0  0  0  0
   25.1522  -20.5493  -14.3386 N   0  0  0  0  0  0  0  0  0  0  0  0
   22.9416  -20.9283  -13.6619 C   0  0  0  0  0  0  0  0  0  0  0  0
   22.5775  -19.8065  -14.0985 O   0  0  0  0  0  0  0  0  0  0  0  0
   18.0992  -22.9329  -16.1272 N   0  0  0  0  0  0  0  0  0  0  0  0
   18.5245  -22.7171  -14.7656 C   0  0  0  0  0  0  0  0  0  0  0  0
   17.6436  -22.3173  -13.9769 O   0  0  0  0  0  0  0  0  0  0  0  0
   19.9113  -22.9610  -14.3639 C   0  0  0  0  0  0  0  0  0  0  0  0
   20.6328  -21.6752  -14.1105 C   0  0  2  0  0  0  0  0  0  0  0  0
   22.0015  -21.9595  -13.6253 N   0  0  0  0  0  0  0  0  0  0  0  0
   19.9812  -20.9950  -12.9405 C   0  0  0  0  0  0  0  0  0  0  0  0
   20.2934  -21.2893  -11.7771 O   0  0  0  0  0  0  0  0  0  0  0  0
   19.0062  -20.0129  -13.1450 O   0  0  0  0  0  0  0  0  0  0  0  0
  2  1  1  6
  3  4  1  0
  3  2  1  0
  4  9  2  0
  5  4  1  0
  5  6  2  0
  6  7  1  0
  7  8  2  0
  9  8  1  0
 10  2  1  0
 11 10  2  0
 13 12  1  1
 14 13  1  0
 15 13  1  0
 16 17  1  0
 16 15  1  1
 17 10  1  0
 18 16  1  0
 19 18  2  0
 20 21  1  0
 21 22  2  0
 23 21  1  0
 24 23  1  1
 24 25  1  0
 25 18  1  0
 26 24  1  0
 26 28  1  0
 27 26  2  0
M  END
$$$$
