FLN.pdb
     RDKit          3D

 28 28  0  0  1  0  0  0  0  0999 V2000
   27.7292  -19.6987  -10.6929 N   0  0  0  0  0  0  0  0  0  0  0  0
   26.7834  -20.7948  -10.7432 C   0  0  1  0  0  0  0  0  0  0  0  0
   25.9890  -20.8818   -9.4353 C   0  0  0  0  0  0  0  0  0  0  0  0
   26.9501  -20.6535   -8.3452 C   0  0  0  0  0  0  0  0  0  0  0  0
   28.0777  -21.4725   -8.2953 C   0  0  0  0  0  0  0  0  0  0  0  0
   28.9812  -21.2682   -7.2822 C   0  0  0  0  0  0  0  0  0  0  0  0
   28.7673  -20.2837   -6.3542 C   0  0  0  0  0  0  0  0  0  0  0  0
   27.6365  -19.4730   -6.4162 C   0  0  0  0  0  0  0  0  0  0  0  0
   26.7090  -19.6630   -7.4338 C   0  0  0  0  0  0  0  0  0  0  0  0
   25.7829  -20.6048  -11.8245 C   0  0  0  0  0  0  0  0  0  0  0  0
   25.0636  -19.5878  -11.8177 O   0  0  0  0  0  0  0  0  0  0  0  0
   26.0633  -19.3811  -16.1342 C   0  0  0  0  0  0  0  0  0  0  0  0
   26.6047  -20.7471  -15.7387 C   0  0  2  0  0  0  0  0  0  0  0  0
   27.4124  -21.2919  -16.8773 C   0  0  0  0  0  0  0  0  0  0  0  0
   25.4983  -21.6616  -15.2871 C   0  0  0  0  0  0  0  0  0  0  0  0
   24.8235  -21.2664  -14.0383 C   0  0  2  0  0  0  0  0  0  0  0  0
   25.6355  -21.5537  -12.8546 N   0  0  0  0  0  0  0  0  0  0  0  0
   23.5018  -21.8702  -13.7686 C   0  0  0  0  0  0  0  0  0  0  0  0
   23.4708  -22.8369  -12.9647 O   0  0  0  0  0  0  0  0  0  0  0  0
   18.6352  -21.5621  -11.2581 N   0  0  0  0  0  0  0  0  0  0  0  0
   19.5712  -22.3977  -11.9702 C   0  0  0  0  0  0  0  0  0  0  0  0
   19.2102  -23.5766  -12.1646 O   0  0  0  0  0  0  0  0  0  0  0  0
   20.8580  -21.8667  -12.4244 C   0  0  0  0  0  0  0  0  0  0  0  0
   21.0474  -22.0947  -13.8908 C   0  0  2  0  0  0  0  0  0  0  0  0
   22.2999  -21.4460  -14.3378 N   0  0  0  0  0  0  0  0  0  0  0  0
   19.9791  -21.3355  -14.6248 C   0  0  0  0  0  0  0  0  0  0  0  0
   20.2415  -20.2791  -15.2186 O   0  0  0  0  0  0  0  0  0  0  0  0
   18.6635  -21.8103  -14.6508 O   0  0  0  0  0  0  0  0  0  0  0  0
  2  1  1  1
  3  4  1  0
  3  2  1  0
  4  9  2  0
  5  4  1  0
  5  6  2  0
  6  7  1  0
  7  8  2  0
  9  8  1  0
 10  2  1  0
 11 10  2  0
 13 12  1  6
 14 13  1  0
 15 13  1  0
 16 17  1  0
 16 15  1  6
 17 10  1  0
 18 16  1  0
 19 18  2  0
 20 21  1  0
 21 22  2  0
 23 21  1  0
 24 23  1  1
 24 25  1  0
 25 18  1  0
 26 24  1  0
 26 28  1  0
 27 26  2  0
M  END
$$$$
