FLN.pdb
     RDKit          3D

 28 28  0  0  1  0  0  0  0  0999 V2000
   24.9540  -20.1097  -19.9604 N   0  0  0  0  0  0  0  0  0  0  0  0
   24.4602  -19.2767  -18.8829 C   0  0  1  0  0  0  0  0  0  0  0  0
   23.0251  -18.8206  -19.1686 C   0  0  0  0  0  0  0  0  0  0  0  0
   23.1188  -17.7390  -20.1612 C   0  0  0  0  0  0  0  0  0  0  0  0
   23.4031  -16.4559  -19.6946 C   0  0  0  0  0  0  0  0  0  0  0  0
   23.4929  -15.4389  -20.6122 C   0  0  0  0  0  0  0  0  0  0  0  0
   23.3060  -15.6931  -21.9451 C   0  0  0  0  0  0  0  0  0  0  0  0
   23.0226  -16.9795  -22.3972 C   0  0  0  0  0  0  0  0  0  0  0  0
   22.9272  -18.0238  -21.4848 C   0  0  0  0  0  0  0  0  0  0  0  0
   24.4118  -20.0180  -17.5967 C   0  0  0  0  0  0  0  0  0  0  0  0
   24.1313  -21.2317  -17.6027 O   0  0  0  0  0  0  0  0  0  0  0  0
   27.4679  -21.3937  -14.5089 C   0  0  0  0  0  0  0  0  0  0  0  0
   27.2131  -19.8944  -14.5617 C   0  0  2  0  0  0  0  0  0  0  0  0
   28.2202  -19.2050  -13.6922 C   0  0  0  0  0  0  0  0  0  0  0  0
   25.7859  -19.5718  -14.2107 C   0  0  0  0  0  0  0  0  0  0  0  0
   24.7709  -20.1270  -15.1232 C   0  0  2  0  0  0  0  0  0  0  0  0
   24.6777  -19.3719  -16.3739 N   0  0  0  0  0  0  0  0  0  0  0  0
   23.3873  -20.2204  -14.6123 C   0  0  0  0  0  0  0  0  0  0  0  0
   22.6752  -19.1879  -14.7050 O   0  0  0  0  0  0  0  0  0  0  0  0
   18.4882  -22.9791  -13.2832 N   0  0  0  0  0  0  0  0  0  0  0  0
   19.6356  -22.5707  -12.5099 C   0  0  0  0  0  0  0  0  0  0  0  0
   19.3978  -22.1738  -11.3507 O   0  0  0  0  0  0  0  0  0  0  0  0
   20.9841  -22.6298  -13.0776 C   0  0  0  0  0  0  0  0  0  0  0  0
   21.4329  -21.2801  -13.5413 C   0  0  2  0  0  0  0  0  0  0  0  0
   22.8232  -21.3623  -14.0410 N   0  0  0  0  0  0  0  0  0  0  0  0
   21.5454  -20.3855  -12.3400 C   0  0  0  0  0  0  0  0  0  0  0  0
   22.5835  -20.3555  -11.6625 O   0  0  0  0  0  0  0  0  0  0  0  0
   20.4752  -19.5671  -11.9635 O   0  0  0  0  0  0  0  0  0  0  0  0
  2  1  1  6
  3  4  1  0
  3  2  1  0
  4  9  2  0
  5  4  1  0
  5  6  2  0
  6  7  1  0
  7  8  2  0
  9  8  1  0
 10  2  1  0
 11 10  2  0
 13 12  1  1
 14 13  1  0
 15 13  1  0
 16 17  1  0
 16 15  1  1
 17 10  1  0
 18 16  1  0
 19 18  2  0
 20 21  1  0
 21 22  2  0
 23 21  1  0
 24 23  1  1
 24 25  1  0
 25 18  1  0
 26 24  1  0
 26 28  1  0
 27 26  2  0
M  END
$$$$
