III.pdb
     RDKit          3D

 25 24  0  0  1  0  0  0  0  0999 V2000
    8.0318  -19.5622   20.3408 C   0  0  0  0  0  0  0  0  0  0  0  0
    7.8178  -18.0515   20.4272 C   0  0  0  0  0  0  0  0  0  0  0  0
    8.3137  -17.5005   21.7190 C   0  0  2  0  0  0  0  0  0  0  0  0
    7.9539  -18.3224   22.9119 C   0  0  0  0  0  0  0  0  0  0  0  0
    7.9176  -16.0408   21.8287 C   0  0  2  0  0  0  0  0  0  0  0  0
    8.4530  -15.4341   20.6073 N   0  0  0  0  0  0  0  0  0  0  0  0
    8.4738  -15.3664   23.0255 C   0  0  0  0  0  0  0  0  0  0  0  0
    9.7265  -15.0977   23.1041 O   0  0  0  0  0  0  0  0  0  0  0  0
    5.8185  -11.6837   25.9393 C   0  0  0  0  0  0  0  0  0  0  0  0
    6.9090  -12.4122   25.1745 C   0  0  0  0  0  0  0  0  0  0  0  0
    7.4015  -13.5260   26.0824 C   0  0  2  0  0  0  0  0  0  0  0  0
    8.0107  -12.9635   27.3520 C   0  0  0  0  0  0  0  0  0  0  0  0
    8.3795  -14.4397   25.3642 C   0  0  2  0  0  0  0  0  0  0  0  0
    7.7230  -14.9618   24.1559 N   0  0  0  0  0  0  0  0  0  0  0  0
    8.7149  -15.5467   26.2911 C   0  0  0  0  0  0  0  0  0  0  0  0
    7.8242  -16.4028   26.5745 O   0  0  0  0  0  0  0  0  0  0  0  0
   12.9367  -19.6541   26.4819 C   0  0  0  0  0  0  0  0  0  0  0  0
   11.9280  -18.9152   27.3587 C   0  0  0  0  0  0  0  0  0  0  0  0
   11.5151  -17.6135   26.7286 C   0  0  2  0  0  0  0  0  0  0  0  0
   12.6929  -16.7168   26.4502 C   0  0  0  0  0  0  0  0  0  0  0  0
   10.4164  -16.9948   27.5015 C   0  0  2  0  0  0  0  0  0  0  0  0
    9.9772  -15.7224   26.8940 N   0  0  0  0  0  0  0  0  0  0  0  0
   10.7766  -16.6738   28.8811 C   0  0  0  0  0  0  0  0  0  0  0  0
   10.9567  -17.6784   29.8115 O   0  0  0  0  0  0  0  0  0  0  0  0
   10.9334  -15.5039   29.2700 O   0  0  0  0  0  0  0  0  0  0  0  0
  2  1  1  0
  3  2  1  0
  3  4  1  1
  5  7  1  0
  5  3  1  0
  5  6  1  6
  7  8  2  0
 10  9  1  0
 11 10  1  0
 11 13  1  0
 11 12  1  1
 13 14  1  6
 14  7  1  0
 15 16  2  0
 15 13  1  0
 17 18  1  0
 18 19  1  0
 19 21  1  0
 19 20  1  1
 21 22  1  6
 21 23  1  0
 22 15  1  0
 23 24  1  0
 25 23  2  0
M  END
$$$$
