III.pdb
     RDKit          3D

 25 24  0  0  1  0  0  0  0  0999 V2000
   11.2671  -19.7462   19.4447 C   0  0  0  0  0  0  0  0  0  0  0  0
   10.3951  -18.4916   19.4759 C   0  0  0  0  0  0  0  0  0  0  0  0
   10.5379  -17.7565   20.7634 C   0  0  2  0  0  0  0  0  0  0  0  0
   10.5334  -18.6336   21.9711 C   0  0  0  0  0  0  0  0  0  0  0  0
    9.5271  -16.6271   20.8128 C   0  0  2  0  0  0  0  0  0  0  0  0
    9.8405  -15.8173   19.6328 N   0  0  0  0  0  0  0  0  0  0  0  0
    9.6208  -15.8044   22.0420 C   0  0  0  0  0  0  0  0  0  0  0  0
   10.6489  -15.0679   22.2614 O   0  0  0  0  0  0  0  0  0  0  0  0
    5.8110  -12.6840   23.9358 C   0  0  0  0  0  0  0  0  0  0  0  0
    7.1682  -13.2398   23.5436 C   0  0  0  0  0  0  0  0  0  0  0  0
    7.5527  -14.2385   24.6217 C   0  0  2  0  0  0  0  0  0  0  0  0
    7.6384  -13.5678   25.9790 C   0  0  0  0  0  0  0  0  0  0  0  0
    8.8485  -14.9547   24.2822 C   0  0  2  0  0  0  0  0  0  0  0  0
    8.6356  -15.7405   23.0571 N   0  0  0  0  0  0  0  0  0  0  0  0
    9.1734  -15.8470   25.4203 C   0  0  0  0  0  0  0  0  0  0  0  0
    9.2347  -17.0976   25.2233 O   0  0  0  0  0  0  0  0  0  0  0  0
   11.9009  -14.9224   30.9394 C   0  0  0  0  0  0  0  0  0  0  0  0
   11.7949  -15.7210   29.6421 C   0  0  0  0  0  0  0  0  0  0  0  0
   10.8833  -15.0382   28.6598 C   0  0  2  0  0  0  0  0  0  0  0  0
    9.7668  -14.2925   29.3424 C   0  0  0  0  0  0  0  0  0  0  0  0
   10.4607  -15.9867   27.6068 C   0  0  2  0  0  0  0  0  0  0  0  0
    9.4248  -15.3993   26.7334 N   0  0  0  0  0  0  0  0  0  0  0  0
    9.8864  -17.2257   28.1278 C   0  0  0  0  0  0  0  0  0  0  0  0
    8.5355  -17.4818   27.9986 O   0  0  0  0  0  0  0  0  0  0  0  0
   10.5764  -18.0869   28.6995 O   0  0  0  0  0  0  0  0  0  0  0  0
  2  1  1  0
  3  2  1  0
  3  4  1  1
  5  7  1  0
  5  3  1  0
  5  6  1  6
  7  8  2  0
 10  9  1  0
 11 10  1  0
 11 13  1  0
 11 12  1  1
 13 14  1  6
 14  7  1  0
 15 16  2  0
 15 13  1  0
 17 18  1  0
 18 19  1  0
 19 21  1  0
 19 20  1  1
 21 22  1  6
 21 23  1  0
 22 15  1  0
 23 24  1  0
 25 23  2  0
M  END
$$$$
