III.pdb
     RDKit          3D

 25 24  0  0  1  0  0  0  0  0999 V2000
    6.2429  -10.2650   27.5659 C   0  0  0  0  0  0  0  0  0  0  0  0
    5.5646  -11.4046   26.8064 C   0  0  0  0  0  0  0  0  0  0  0  0
    6.5471  -12.4382   26.3766 C   0  0  2  0  0  0  0  0  0  0  0  0
    7.7857  -11.8828   25.7561 C   0  0  0  0  0  0  0  0  0  0  0  0
    5.8427  -13.4809   25.5302 C   0  0  2  0  0  0  0  0  0  0  0  0
    4.8481  -14.0616   26.4358 N   0  0  0  0  0  0  0  0  0  0  0  0
    6.7492  -14.5349   25.0165 C   0  0  0  0  0  0  0  0  0  0  0  0
    6.9989  -15.5826   25.7147 O   0  0  0  0  0  0  0  0  0  0  0  0
    8.1415  -14.5251   19.7128 C   0  0  0  0  0  0  0  0  0  0  0  0
    7.5780  -15.0158   21.0343 C   0  0  0  0  0  0  0  0  0  0  0  0
    8.7703  -15.3113   21.9279 C   0  0  2  0  0  0  0  0  0  0  0  0
    9.5825  -16.4712   21.3854 C   0  0  0  0  0  0  0  0  0  0  0  0
    8.3423  -15.5666   23.3628 C   0  0  2  0  0  0  0  0  0  0  0  0
    7.4045  -14.5058   23.7616 N   0  0  0  0  0  0  0  0  0  0  0  0
    9.5620  -15.5229   24.2039 C   0  0  0  0  0  0  0  0  0  0  0  0
   10.4014  -14.5908   24.0222 O   0  0  0  0  0  0  0  0  0  0  0  0
    9.6211  -14.0295   28.7687 C   0  0  0  0  0  0  0  0  0  0  0  0
   10.0808  -14.4977   27.3897 C   0  0  0  0  0  0  0  0  0  0  0  0
   10.6518  -15.8877   27.4532 C   0  0  2  0  0  0  0  0  0  0  0  0
   11.7190  -16.0171   28.5082 C   0  0  0  0  0  0  0  0  0  0  0  0
   11.0386  -16.3459   26.1013 C   0  0  2  0  0  0  0  0  0  0  0  0
    9.8648  -16.4606   25.2124 N   0  0  0  0  0  0  0  0  0  0  0  0
   11.6788  -17.6597   26.0867 C   0  0  0  0  0  0  0  0  0  0  0  0
   13.0528  -17.7720   26.1691 O   0  0  0  0  0  0  0  0  0  0  0  0
   11.0262  -18.7139   26.0010 O   0  0  0  0  0  0  0  0  0  0  0  0
  2  1  1  0
  3  2  1  0
  3  4  1  6
  5  7  1  0
  5  3  1  0
  5  6  1  1
  7  8  2  0
 10  9  1  0
 11 10  1  0
 11 13  1  0
 11 12  1  6
 13 14  1  1
 14  7  1  0
 15 16  2  0
 15 13  1  0
 17 18  1  0
 18 19  1  0
 19 21  1  0
 19 20  1  1
 21 22  1  6
 21 23  1  0
 22 15  1  0
 23 24  1  0
 25 23  2  0
M  END
$$$$
