III.pdb
     RDKit          3D

 25 24  0  0  1  0  0  0  0  0999 V2000
    7.1026  -22.0686   25.5865 C   0  0  0  0  0  0  0  0  0  0  0  0
    6.1918  -20.9107   25.1800 C   0  0  0  0  0  0  0  0  0  0  0  0
    6.9657  -19.6589   24.9506 C   0  0  2  0  0  0  0  0  0  0  0  0
    7.9625  -19.3528   26.0186 C   0  0  0  0  0  0  0  0  0  0  0  0
    6.0072  -18.5223   24.6521 C   0  0  2  0  0  0  0  0  0  0  0  0
    5.2170  -19.0115   23.5194 N   0  0  0  0  0  0  0  0  0  0  0  0
    6.6873  -17.2545   24.2964 C   0  0  0  0  0  0  0  0  0  0  0  0
    7.3535  -17.1516   23.2040 O   0  0  0  0  0  0  0  0  0  0  0  0
    5.0286  -12.4567   26.2752 C   0  0  0  0  0  0  0  0  0  0  0  0
    5.4918  -13.4498   25.2245 C   0  0  0  0  0  0  0  0  0  0  0  0
    6.9653  -13.7042   25.4921 C   0  0  2  0  0  0  0  0  0  0  0  0
    7.7922  -12.4664   25.2032 C   0  0  0  0  0  0  0  0  0  0  0  0
    7.4766  -14.8996   24.7068 C   0  0  2  0  0  0  0  0  0  0  0  0
    6.6758  -16.0755   25.0806 N   0  0  0  0  0  0  0  0  0  0  0  0
    8.8972  -15.1003   25.0794 C   0  0  0  0  0  0  0  0  0  0  0  0
    9.7834  -14.3724   24.5397 O   0  0  0  0  0  0  0  0  0  0  0  0
    9.6798  -14.0447   29.7722 C   0  0  0  0  0  0  0  0  0  0  0  0
    9.9982  -14.3074   28.3020 C   0  0  0  0  0  0  0  0  0  0  0  0
   10.5440  -15.6953   28.1066 C   0  0  2  0  0  0  0  0  0  0  0  0
   11.7834  -15.9404   28.9267 C   0  0  0  0  0  0  0  0  0  0  0  0
   10.6678  -15.9997   26.6647 C   0  0  2  0  0  0  0  0  0  0  0  0
    9.3460  -16.0607   26.0090 N   0  0  0  0  0  0  0  0  0  0  0  0
   11.3089  -17.2838   26.3881 C   0  0  0  0  0  0  0  0  0  0  0  0
   12.6721  -17.4366   26.5480 O   0  0  0  0  0  0  0  0  0  0  0  0
   10.6667  -18.2759   26.0037 O   0  0  0  0  0  0  0  0  0  0  0  0
  2  1  1  0
  3  2  1  0
  3  4  1  1
  5  7  1  0
  5  3  1  0
  5  6  1  6
  7  8  2  0
 10  9  1  0
 11 10  1  0
 11 13  1  0
 11 12  1  6
 13 14  1  1
 14  7  1  0
 15 16  2  0
 15 13  1  0
 17 18  1  0
 18 19  1  0
 19 21  1  0
 19 20  1  1
 21 22  1  1
 21 23  1  0
 22 15  1  0
 23 24  1  0
 25 23  2  0
M  END
$$$$
