III.pdb
     RDKit          3D

 25 24  0  0  1  0  0  0  0  0999 V2000
   10.0478  -19.7106   19.4186 C   0  0  0  0  0  0  0  0  0  0  0  0
    9.5798  -18.2584   19.5047 C   0  0  0  0  0  0  0  0  0  0  0  0
    9.7814  -17.6974   20.8697 C   0  0  2  0  0  0  0  0  0  0  0  0
    9.4906  -18.6585   21.9740 C   0  0  0  0  0  0  0  0  0  0  0  0
    9.0438  -16.3775   20.9853 C   0  0  2  0  0  0  0  0  0  0  0  0
    9.5661  -15.5794   19.8731 N   0  0  0  0  0  0  0  0  0  0  0  0
    9.2771  -15.6816   22.2728 C   0  0  0  0  0  0  0  0  0  0  0  0
   10.4330  -15.2028   22.5595 O   0  0  0  0  0  0  0  0  0  0  0  0
    5.5237  -12.5774   24.7069 C   0  0  0  0  0  0  0  0  0  0  0  0
    6.8341  -13.0686   24.1186 C   0  0  0  0  0  0  0  0  0  0  0  0
    7.3575  -14.1362   25.0640 C   0  0  2  0  0  0  0  0  0  0  0  0
    7.5736  -13.5724   26.4550 C   0  0  0  0  0  0  0  0  0  0  0  0
    8.6259  -14.7799   24.5311 C   0  0  2  0  0  0  0  0  0  0  0  0
    8.3000  -15.4756   23.2768 N   0  0  0  0  0  0  0  0  0  0  0  0
    9.0958  -15.7459   25.5525 C   0  0  0  0  0  0  0  0  0  0  0  0
    9.0684  -16.9848   25.2860 O   0  0  0  0  0  0  0  0  0  0  0  0
   11.0704  -13.3640   29.9503 C   0  0  0  0  0  0  0  0  0  0  0  0
   11.2443  -14.2283   28.7034 C   0  0  0  0  0  0  0  0  0  0  0  0
   10.7646  -15.6327   28.9479 C   0  0  2  0  0  0  0  0  0  0  0  0
   11.7140  -16.4156   29.8166 C   0  0  0  0  0  0  0  0  0  0  0  0
   10.3960  -16.2789   27.6697 C   0  0  2  0  0  0  0  0  0  0  0  0
    9.5814  -15.3822   26.8252 N   0  0  0  0  0  0  0  0  0  0  0  0
    9.6061  -17.4977   27.8337 C   0  0  0  0  0  0  0  0  0  0  0  0
   10.2088  -18.7386   27.7707 O   0  0  0  0  0  0  0  0  0  0  0  0
    8.3796  -17.4706   28.0330 O   0  0  0  0  0  0  0  0  0  0  0  0
  2  1  1  0
  3  2  1  0
  3  4  1  1
  5  7  1  0
  5  3  1  0
  5  6  1  6
  7  8  2  0
 10  9  1  0
 11 10  1  0
 11 13  1  0
 11 12  1  1
 13 14  1  6
 14  7  1  0
 15 16  2  0
 15 13  1  0
 17 18  1  0
 18 19  1  0
 19 21  1  0
 19 20  1  6
 21 22  1  6
 21 23  1  0
 22 15  1  0
 23 24  1  0
 25 23  2  0
M  END
$$$$
