III.pdb
     RDKit          3D

 25 24  0  0  1  0  0  0  0  0999 V2000
    6.3848  -17.9449   18.9062 C   0  0  0  0  0  0  0  0  0  0  0  0
    6.4989  -16.4777   19.3182 C   0  0  0  0  0  0  0  0  0  0  0  0
    7.2157  -16.3266   20.6150 C   0  0  2  0  0  0  0  0  0  0  0  0
    6.8080  -17.3146   21.6569 C   0  0  0  0  0  0  0  0  0  0  0  0
    7.1392  -14.8810   21.0669 C   0  0  2  0  0  0  0  0  0  0  0  0
    7.7362  -14.1301   19.9594 N   0  0  0  0  0  0  0  0  0  0  0  0
    7.8759  -14.6160   22.3252 C   0  0  0  0  0  0  0  0  0  0  0  0
    9.1573  -14.5419   22.3319 O   0  0  0  0  0  0  0  0  0  0  0  0
    5.8365  -11.5779   26.3410 C   0  0  0  0  0  0  0  0  0  0  0  0
    6.7928  -12.1391   25.3042 C   0  0  0  0  0  0  0  0  0  0  0  0
    7.2565  -13.4865   25.8304 C   0  0  2  0  0  0  0  0  0  0  0  0
    8.0082  -13.3303   27.1381 C   0  0  0  0  0  0  0  0  0  0  0  0
    8.0938  -14.2286   24.8030 C   0  0  2  0  0  0  0  0  0  0  0  0
    7.2783  -14.4221   23.5942 N   0  0  0  0  0  0  0  0  0  0  0  0
    8.4636  -15.5368   25.3936 C   0  0  0  0  0  0  0  0  0  0  0  0
    7.5458  -16.3586   25.6917 O   0  0  0  0  0  0  0  0  0  0  0  0
   12.3423  -18.1744   23.0757 C   0  0  0  0  0  0  0  0  0  0  0  0
   11.0946  -17.7561   23.8506 C   0  0  0  0  0  0  0  0  0  0  0  0
   11.3375  -17.8058   25.3341 C   0  0  2  0  0  0  0  0  0  0  0  0
   11.8632  -19.1449   25.7804 C   0  0  0  0  0  0  0  0  0  0  0  0
   10.1492  -17.3159   26.0654 C   0  0  2  0  0  0  0  0  0  0  0  0
    9.7880  -15.9443   25.6540 N   0  0  0  0  0  0  0  0  0  0  0  0
   10.3319  -17.2617   27.5145 C   0  0  0  0  0  0  0  0  0  0  0  0
   10.0325  -18.3566   28.3012 O   0  0  0  0  0  0  0  0  0  0  0  0
   10.7567  -16.2461   28.0914 O   0  0  0  0  0  0  0  0  0  0  0  0
  2  1  1  0
  3  2  1  0
  3  4  1  1
  5  7  1  0
  5  3  1  0
  5  6  1  6
  7  8  2  0
 10  9  1  0
 11 10  1  0
 11 13  1  0
 11 12  1  1
 13 14  1  6
 14  7  1  0
 15 16  2  0
 15 13  1  0
 17 18  1  0
 18 19  1  0
 19 21  1  0
 19 20  1  1
 21 22  1  6
 21 23  1  0
 22 15  1  0
 23 24  1  0
 25 23  2  0
M  END
$$$$
