III.pdb
     RDKit          3D

 25 24  0  0  1  0  0  0  0  0999 V2000
   14.0506  -20.7075   20.8211 C   0  0  0  0  0  0  0  0  0  0  0  0
   13.3361  -19.5522   20.1209 C   0  0  0  0  0  0  0  0  0  0  0  0
   12.7777  -18.5789   21.1003 C   0  0  2  0  0  0  0  0  0  0  0  0
   12.1764  -19.2090   22.3124 C   0  0  0  0  0  0  0  0  0  0  0  0
   11.8558  -17.6135   20.3806 C   0  0  2  0  0  0  0  0  0  0  0  0
   12.7149  -16.9847   19.3740 N   0  0  0  0  0  0  0  0  0  0  0  0
   11.2670  -16.5850   21.2704 C   0  0  0  0  0  0  0  0  0  0  0  0
   12.0134  -15.7245   21.8621 O   0  0  0  0  0  0  0  0  0  0  0  0
    6.5390  -14.1699   20.3550 C   0  0  0  0  0  0  0  0  0  0  0  0
    7.9953  -14.3954   20.7196 C   0  0  0  0  0  0  0  0  0  0  0  0
    8.0010  -15.0227   22.1031 C   0  0  2  0  0  0  0  0  0  0  0  0
    7.3882  -14.0871   23.1270 C   0  0  0  0  0  0  0  0  0  0  0  0
    9.3993  -15.4474   22.5173 C   0  0  2  0  0  0  0  0  0  0  0  0
    9.8861  -16.4428   21.5499 N   0  0  0  0  0  0  0  0  0  0  0  0
    9.2988  -16.0453   23.8699 C   0  0  0  0  0  0  0  0  0  0  0  0
    9.1026  -17.2929   23.9779 O   0  0  0  0  0  0  0  0  0  0  0  0
   10.6782  -12.6616   27.9687 C   0  0  0  0  0  0  0  0  0  0  0  0
   10.7630  -13.8779   27.0492 C   0  0  0  0  0  0  0  0  0  0  0  0
    9.7721  -14.9335   27.4563 C   0  0  2  0  0  0  0  0  0  0  0  0
   10.0560  -15.4814   28.8303 C   0  0  0  0  0  0  0  0  0  0  0  0
    9.6321  -15.9456   26.3871 C   0  0  2  0  0  0  0  0  0  0  0  0
    9.4075  -15.3147   25.0708 N   0  0  0  0  0  0  0  0  0  0  0  0
    8.5096  -16.8602   26.5868 C   0  0  0  0  0  0  0  0  0  0  0  0
    8.6984  -18.0770   27.2121 O   0  0  0  0  0  0  0  0  0  0  0  0
    7.3574  -16.5876   26.2092 O   0  0  0  0  0  0  0  0  0  0  0  0
  2  1  1  0
  3  2  1  0
  3  4  1  1
  5  7  1  0
  5  3  1  0
  5  6  1  6
  7  8  2  0
 10  9  1  0
 11 10  1  0
 11 13  1  0
 11 12  1  1
 13 14  1  6
 14  7  1  0
 15 16  2  0
 15 13  1  0
 17 18  1  0
 18 19  1  0
 19 21  1  0
 19 20  1  1
 21 22  1  6
 21 23  1  0
 22 15  1  0
 23 24  1  0
 25 23  2  0
M  END
$$$$
