III.pdb
     RDKit          3D

 25 24  0  0  1  0  0  0  0  0999 V2000
    7.0754  -21.8325   25.8250 C   0  0  0  0  0  0  0  0  0  0  0  0
    6.2213  -20.7211   25.2160 C   0  0  0  0  0  0  0  0  0  0  0  0
    7.0092  -19.4739   25.0110 C   0  0  2  0  0  0  0  0  0  0  0  0
    7.8985  -19.1182   26.1558 C   0  0  0  0  0  0  0  0  0  0  0  0
    6.0797  -18.3571   24.5768 C   0  0  2  0  0  0  0  0  0  0  0  0
    5.4441  -18.8750   23.3626 N   0  0  0  0  0  0  0  0  0  0  0  0
    6.7812  -17.0839   24.2882 C   0  0  0  0  0  0  0  0  0  0  0  0
    7.4454  -16.9331   23.2002 O   0  0  0  0  0  0  0  0  0  0  0  0
    5.0852  -12.3210   26.2379 C   0  0  0  0  0  0  0  0  0  0  0  0
    5.6242  -13.2914   25.2022 C   0  0  0  0  0  0  0  0  0  0  0  0
    7.0624  -13.5844   25.5936 C   0  0  2  0  0  0  0  0  0  0  0  0
    7.9362  -12.3586   25.4116 C   0  0  0  0  0  0  0  0  0  0  0  0
    7.6184  -14.7717   24.8267 C   0  0  2  0  0  0  0  0  0  0  0  0
    6.7933  -15.9496   25.1357 N   0  0  0  0  0  0  0  0  0  0  0  0
    9.0128  -14.9814   25.2837 C   0  0  0  0  0  0  0  0  0  0  0  0
    9.9246  -14.2166   24.8475 O   0  0  0  0  0  0  0  0  0  0  0  0
   10.0015  -14.1025   29.9147 C   0  0  0  0  0  0  0  0  0  0  0  0
   10.3192  -14.3468   28.4411 C   0  0  0  0  0  0  0  0  0  0  0  0
   10.7587  -15.7666   28.2109 C   0  0  2  0  0  0  0  0  0  0  0  0
   12.0313  -16.0951   28.9464 C   0  0  0  0  0  0  0  0  0  0  0  0
   10.7657  -16.0736   26.7642 C   0  0  2  0  0  0  0  0  0  0  0  0
    9.4092  -15.9892   26.1865 N   0  0  0  0  0  0  0  0  0  0  0  0
   11.2490  -17.4169   26.4507 C   0  0  0  0  0  0  0  0  0  0  0  0
   12.5901  -17.7252   26.5670 O   0  0  0  0  0  0  0  0  0  0  0  0
   10.4877  -18.3235   26.0725 O   0  0  0  0  0  0  0  0  0  0  0  0
  2  1  1  0
  3  2  1  0
  3  4  1  1
  5  7  1  0
  5  3  1  0
  5  6  1  6
  7  8  2  0
 10  9  1  0
 11 10  1  0
 11 13  1  0
 11 12  1  6
 13 14  1  1
 14  7  1  0
 15 16  2  0
 15 13  1  0
 17 18  1  0
 18 19  1  0
 19 21  1  0
 19 20  1  6
 21 22  1  1
 21 23  1  0
 22 15  1  0
 23 24  1  0
 25 23  2  0
M  END
$$$$
