III.pdb
     RDKit          3D

 25 24  0  0  1  0  0  0  0  0999 V2000
    4.9461  -21.1470   23.4477 C   0  0  0  0  0  0  0  0  0  0  0  0
    4.6520  -19.6854   23.1117 C   0  0  0  0  0  0  0  0  0  0  0  0
    5.7899  -18.7983   23.4812 C   0  0  2  0  0  0  0  0  0  0  0  0
    6.3433  -19.0505   24.8443 C   0  0  0  0  0  0  0  0  0  0  0  0
    5.4057  -17.3538   23.2249 C   0  0  2  0  0  0  0  0  0  0  0  0
    5.0947  -17.3170   21.7936 N   0  0  0  0  0  0  0  0  0  0  0  0
    6.4861  -16.3903   23.5423 C   0  0  0  0  0  0  0  0  0  0  0  0
    7.4468  -16.1865   22.7159 O   0  0  0  0  0  0  0  0  0  0  0  0
    6.0252  -12.0807   26.9904 C   0  0  0  0  0  0  0  0  0  0  0  0
    6.4562  -12.8209   25.7370 C   0  0  0  0  0  0  0  0  0  0  0  0
    7.4391  -13.8893   26.1842 C   0  0  2  0  0  0  0  0  0  0  0  0
    8.6930  -13.2657   26.7658 C   0  0  0  0  0  0  0  0  0  0  0  0
    7.7772  -14.8449   25.0529 C   0  0  2  0  0  0  0  0  0  0  0  0
    6.5723  -15.6246   24.7304 N   0  0  0  0  0  0  0  0  0  0  0  0
    8.8585  -15.7372   25.5342 C   0  0  0  0  0  0  0  0  0  0  0  0
    8.6122  -16.5498   26.4753 O   0  0  0  0  0  0  0  0  0  0  0  0
   11.9583  -17.1642   21.3919 C   0  0  0  0  0  0  0  0  0  0  0  0
   11.0918  -17.2068   22.6487 C   0  0  0  0  0  0  0  0  0  0  0  0
   11.9253  -17.0204   23.8867 C   0  0  2  0  0  0  0  0  0  0  0  0
   13.0424  -18.0266   23.9779 C   0  0  0  0  0  0  0  0  0  0  0  0
   11.0574  -16.9273   25.0805 C   0  0  2  0  0  0  0  0  0  0  0  0
   10.1682  -15.7500   25.0126 N   0  0  0  0  0  0  0  0  0  0  0  0
   11.7956  -16.7967   26.3351 C   0  0  0  0  0  0  0  0  0  0  0  0
   12.0856  -15.5494   26.8523 O   0  0  0  0  0  0  0  0  0  0  0  0
   12.1876  -17.7846   26.9793 O   0  0  0  0  0  0  0  0  0  0  0  0
  2  1  1  0
  3  2  1  0
  3  4  1  1
  5  7  1  0
  5  3  1  0
  5  6  1  6
  7  8  2  0
 10  9  1  0
 11 10  1  0
 11 13  1  0
 11 12  1  6
 13 14  1  1
 14  7  1  0
 15 16  2  0
 15 13  1  0
 17 18  1  0
 18 19  1  0
 19 21  1  0
 19 20  1  1
 21 22  1  6
 21 23  1  0
 22 15  1  0
 23 24  1  0
 25 23  2  0
M  END
$$$$
