III.pdb
     RDKit          3D

 25 24  0  0  1  0  0  0  0  0999 V2000
    6.6584  -18.0001   18.8799 C   0  0  0  0  0  0  0  0  0  0  0  0
    6.7106  -16.5409   19.3309 C   0  0  0  0  0  0  0  0  0  0  0  0
    7.3895  -16.3984   20.6489 C   0  0  2  0  0  0  0  0  0  0  0  0
    6.9606  -17.4008   21.6683 C   0  0  0  0  0  0  0  0  0  0  0  0
    7.2888  -14.9584   21.1138 C   0  0  2  0  0  0  0  0  0  0  0  0
    7.8938  -14.1894   20.0233 N   0  0  0  0  0  0  0  0  0  0  0  0
    8.0027  -14.6975   22.3861 C   0  0  0  0  0  0  0  0  0  0  0  0
    9.2855  -14.6932   22.4293 O   0  0  0  0  0  0  0  0  0  0  0  0
    5.9209  -11.6451   26.4485 C   0  0  0  0  0  0  0  0  0  0  0  0
    6.8998  -12.1807   25.4191 C   0  0  0  0  0  0  0  0  0  0  0  0
    7.3081  -13.5652   25.8924 C   0  0  2  0  0  0  0  0  0  0  0  0
    8.0082  -13.4963   27.2357 C   0  0  0  0  0  0  0  0  0  0  0  0
    8.1692  -14.2754   24.8622 C   0  0  2  0  0  0  0  0  0  0  0  0
    7.3807  -14.4345   23.6306 N   0  0  0  0  0  0  0  0  0  0  0  0
    8.5288  -15.6000   25.4220 C   0  0  0  0  0  0  0  0  0  0  0  0
    7.6077  -16.4371   25.6616 O   0  0  0  0  0  0  0  0  0  0  0  0
   12.5032  -18.1916   23.2260 C   0  0  0  0  0  0  0  0  0  0  0  0
   11.2181  -17.8122   23.9586 C   0  0  0  0  0  0  0  0  0  0  0  0
   11.4097  -17.8660   25.4495 C   0  0  2  0  0  0  0  0  0  0  0  0
   11.9184  -19.2068   25.9102 C   0  0  0  0  0  0  0  0  0  0  0  0
   10.1973  -17.3768   26.1407 C   0  0  2  0  0  0  0  0  0  0  0  0
    9.8467  -16.0071   25.7140 N   0  0  0  0  0  0  0  0  0  0  0  0
   10.3329  -17.3182   27.5948 C   0  0  0  0  0  0  0  0  0  0  0  0
   10.0418  -18.4221   28.3719 O   0  0  0  0  0  0  0  0  0  0  0  0
   10.7092  -16.2909   28.1844 O   0  0  0  0  0  0  0  0  0  0  0  0
  2  1  1  0
  3  2  1  0
  3  4  1  1
  5  7  1  0
  5  3  1  0
  5  6  1  6
  7  8  2  0
 10  9  1  0
 11 10  1  0
 11 13  1  0
 11 12  1  1
 13 14  1  6
 14  7  1  0
 15 16  2  0
 15 13  1  0
 17 18  1  0
 18 19  1  0
 19 21  1  0
 19 20  1  1
 21 22  1  6
 21 23  1  0
 22 15  1  0
 23 24  1  0
 25 23  2  0
M  END
$$$$
