III.pdb
     RDKit          3D

 25 24  0  0  1  0  0  0  0  0999 V2000
    7.2043  -12.7810   18.4343 C   0  0  0  0  0  0  0  0  0  0  0  0
    7.1739  -13.9852   19.3746 C   0  0  0  0  0  0  0  0  0  0  0  0
    7.9595  -13.7327   20.6145 C   0  0  2  0  0  0  0  0  0  0  0  0
    9.3320  -13.1994   20.3698 C   0  0  0  0  0  0  0  0  0  0  0  0
    7.9211  -14.9670   21.4948 C   0  0  2  0  0  0  0  0  0  0  0  0
    6.4973  -15.3036   21.5734 N   0  0  0  0  0  0  0  0  0  0  0  0
    8.4730  -14.7418   22.8517 C   0  0  0  0  0  0  0  0  0  0  0  0
    9.7330  -14.5712   23.0272 O   0  0  0  0  0  0  0  0  0  0  0  0
    6.1054  -11.6607   26.4250 C   0  0  0  0  0  0  0  0  0  0  0  0
    7.1368  -12.3508   25.5506 C   0  0  0  0  0  0  0  0  0  0  0  0
    7.4633  -13.6702   26.2291 C   0  0  2  0  0  0  0  0  0  0  0  0
    8.0881  -13.4412   27.5916 C   0  0  0  0  0  0  0  0  0  0  0  0
    8.3531  -14.5402   25.3581 C   0  0  2  0  0  0  0  0  0  0  0  0
    7.7102  -14.6894   24.0435 N   0  0  0  0  0  0  0  0  0  0  0  0
    8.4771  -15.8571   26.0268 C   0  0  0  0  0  0  0  0  0  0  0  0
    7.4313  -16.5425   26.2343 O   0  0  0  0  0  0  0  0  0  0  0  0
   11.7345  -20.7418   25.2092 C   0  0  0  0  0  0  0  0  0  0  0  0
   10.9943  -19.9499   26.2849 C   0  0  0  0  0  0  0  0  0  0  0  0
   10.7384  -18.5373   25.8365 C   0  0  2  0  0  0  0  0  0  0  0  0
   12.0109  -17.8119   25.4857 C   0  0  0  0  0  0  0  0  0  0  0  0
    9.8592  -17.8435   26.8024 C   0  0  2  0  0  0  0  0  0  0  0  0
    9.6972  -16.4165   26.4584 N   0  0  0  0  0  0  0  0  0  0  0  0
   10.3598  -17.8677   28.1753 C   0  0  0  0  0  0  0  0  0  0  0  0
   10.8101  -16.7100   28.7788 O   0  0  0  0  0  0  0  0  0  0  0  0
   10.4015  -18.9125   28.8472 O   0  0  0  0  0  0  0  0  0  0  0  0
  2  1  1  0
  3  2  1  0
  3  4  1  6
  5  7  1  0
  5  3  1  0
  5  6  1  1
  7  8  2  0
 10  9  1  0
 11 10  1  0
 11 13  1  0
 11 12  1  1
 13 14  1  6
 14  7  1  0
 15 16  2  0
 15 13  1  0
 17 18  1  0
 18 19  1  0
 19 21  1  0
 19 20  1  1
 21 22  1  6
 21 23  1  0
 22 15  1  0
 23 24  1  0
 25 23  2  0
M  END
$$$$
