KDM.pdb
     RDKit          3D

 26 25  0  0  1  0  0  0  0  0999 V2000
   27.4974  -21.3524  -11.1422 N   0  0  0  0  0  0  0  0  0  0  0  0
   26.0482  -21.2759  -11.0865 C   0  0  1  0  0  0  0  0  0  0  0  0
   25.5940  -20.0297  -10.3736 C   0  0  0  0  0  0  0  0  0  0  0  0
   25.2437  -20.2657   -8.9353 C   0  0  0  0  0  0  0  0  0  0  0  0
   23.9308  -20.9180   -8.7149 C   0  0  0  0  0  0  0  0  0  0  0  0
   23.6216  -21.1452   -7.2454 C   0  0  0  0  0  0  0  0  0  0  0  0
   22.2931  -21.7473   -7.1463 N   0  0  0  0  0  0  0  0  0  0  0  0
   25.5634  -21.1708  -12.4884 C   0  0  0  0  0  0  0  0  0  0  0  0
   26.1495  -20.3767  -13.2533 O   0  0  0  0  0  0  0  0  0  0  0  0
   24.4522  -21.9522  -12.9718 N   0  0  0  0  0  0  0  0  0  0  0  0
   24.0767  -21.8996  -14.3448 C   0  0  1  0  0  0  0  0  0  0  0  0
   23.7579  -23.2674  -14.8675 C   0  0  0  0  0  0  0  0  0  0  0  0
   24.9513  -24.1130  -15.0111 C   0  0  0  0  0  0  0  0  0  0  0  0
   24.9051  -25.2967  -14.5802 O   0  0  0  0  0  0  0  0  0  0  0  0
   22.9627  -20.9444  -14.5907 C   0  0  0  0  0  0  0  0  0  0  0  0
   22.0657  -20.8093  -13.7229 O   0  0  0  0  0  0  0  0  0  0  0  0
   26.0896  -23.6281  -15.5992 O   0  0  0  0  0  0  0  0  0  0  0  0
   20.0802  -15.0985  -19.2249 C   0  0  0  0  0  0  0  0  0  0  0  0
   21.4696  -16.2147  -18.8407 S   0  0  0  0  0  0  0  0  0  0  0  0
   21.0525  -17.3747  -17.5514 C   0  0  0  0  0  0  0  0  0  0  0  0
   22.0884  -18.3252  -17.1177 C   0  0  0  0  0  0  0  0  0  0  0  0
   21.7230  -19.2639  -16.0355 C   0  0  2  0  0  0  0  0  0  0  0  0
   22.8706  -20.1756  -15.7714 N   0  0  0  0  0  0  0  0  0  0  0  0
   20.5001  -20.0450  -16.1613 C   0  0  0  0  0  0  0  0  0  0  0  0
   20.5231  -21.3580  -16.7174 O   0  0  0  0  0  0  0  0  0  0  0  0
   19.3586  -19.6771  -15.8171 O   0  0  0  0  0  0  0  0  0  0  0  0
  2  1  1  6
  3  2  1  0
  4  3  1  0
  5  4  1  0
  6  5  1  0
  7  6  1  0
  8  9  2  0
  8  2  1  0
 10  8  1  0
 11 10  1  0
 11 12  1  1
 13 12  1  0
 14 13  2  0
 15 11  1  0
 16 15  2  0
 17 13  1  0
 19 18  1  0
 20 19  1  0
 21 20  1  0
 22 21  1  6
 22 23  1  0
 23 15  1  0
 24 25  1  0
 24 22  1  0
 26 24  2  0
M  END
$$$$
