KDM.pdb
     RDKit          3D

 26 25  0  0  1  0  0  0  0  0999 V2000
   17.0239   -9.9934  -17.1227 N   0  0  0  0  0  0  0  0  0  0  0  0
   16.8353   -9.8833  -15.6869 C   0  0  1  0  0  0  0  0  0  0  0  0
   16.5939  -11.2323  -15.0627 C   0  0  0  0  0  0  0  0  0  0  0  0
   15.4017  -11.9417  -15.6307 C   0  0  0  0  0  0  0  0  0  0  0  0
   14.2084  -11.9527  -14.7512 C   0  0  0  0  0  0  0  0  0  0  0  0
   12.9946  -12.5873  -15.4076 C   0  0  0  0  0  0  0  0  0  0  0  0
   11.8678  -12.4821  -14.4821 N   0  0  0  0  0  0  0  0  0  0  0  0
   18.1091   -9.3678  -15.1185 C   0  0  0  0  0  0  0  0  0  0  0  0
   18.5074   -9.8517  -14.0385 O   0  0  0  0  0  0  0  0  0  0  0  0
   18.8779   -8.3411  -15.7772 N   0  0  0  0  0  0  0  0  0  0  0  0
   20.1173   -7.9040  -15.2280 C   0  0  1  0  0  0  0  0  0  0  0  0
   21.2523   -8.7471  -15.7245 C   0  0  0  0  0  0  0  0  0  0  0  0
   22.3177   -8.9109  -14.7255 C   0  0  0  0  0  0  0  0  0  0  0  0
   23.1327   -9.8623  -14.8656 O   0  0  0  0  0  0  0  0  0  0  0  0
   20.3632   -6.4562  -15.4672 C   0  0  0  0  0  0  0  0  0  0  0  0
   20.4070   -6.0265  -16.6459 O   0  0  0  0  0  0  0  0  0  0  0  0
   22.4247   -8.0507  -13.6647 O   0  0  0  0  0  0  0  0  0  0  0  0
   16.2346   -3.1587  -15.3181 C   0  0  0  0  0  0  0  0  0  0  0  0
   17.4743   -1.8285  -15.4513 S   0  0  0  0  0  0  0  0  0  0  0  0
   19.1344   -2.4746  -15.5428 C   0  0  0  0  0  0  0  0  0  0  0  0
   19.6128   -3.3069  -14.4278 C   0  0  0  0  0  0  0  0  0  0  0  0
   20.8410   -4.0957  -14.6619 C   0  0  2  0  0  0  0  0  0  0  0  0
   20.5517   -5.5354  -14.4135 N   0  0  0  0  0  0  0  0  0  0  0  0
   22.0652   -3.7189  -13.9684 C   0  0  0  0  0  0  0  0  0  0  0  0
   22.6042   -2.4047  -14.0949 O   0  0  0  0  0  0  0  0  0  0  0  0
   22.7434   -4.4590  -13.2274 O   0  0  0  0  0  0  0  0  0  0  0  0
  2  1  1  6
  3  2  1  0
  4  3  1  0
  5  4  1  0
  6  5  1  0
  7  6  1  0
  8  9  2  0
  8  2  1  0
 10  8  1  0
 11 10  1  0
 11 12  1  6
 13 12  1  0
 14 13  2  0
 15 11  1  0
 16 15  2  0
 17 13  1  0
 19 18  1  0
 20 19  1  0
 21 20  1  0
 22 21  1  1
 22 23  1  0
 23 15  1  0
 24 25  1  0
 24 22  1  0
 26 24  2  0
M  END
$$$$
