KDM.pdb
     RDKit          3D

 26 25  0  0  1  0  0  0  0  0999 V2000
   24.8319  -21.6186  -15.1370 N   0  0  0  0  0  0  0  0  0  0  0  0
   25.1078  -20.8345  -13.9461 C   0  0  1  0  0  0  0  0  0  0  0  0
   25.7842  -19.5344  -14.2927 C   0  0  0  0  0  0  0  0  0  0  0  0
   27.0831  -19.7188  -15.0179 C   0  0  0  0  0  0  0  0  0  0  0  0
   27.2019  -20.9939  -15.7648 C   0  0  0  0  0  0  0  0  0  0  0  0
   28.5319  -21.1375  -16.4838 C   0  0  0  0  0  0  0  0  0  0  0  0
   28.5315  -22.4157  -17.1934 N   0  0  0  0  0  0  0  0  0  0  0  0
   23.7954  -20.4883  -13.3387 C   0  0  0  0  0  0  0  0  0  0  0  0
   23.7923  -19.7540  -12.3287 O   0  0  0  0  0  0  0  0  0  0  0  0
   22.5514  -20.9741  -13.8825 N   0  0  0  0  0  0  0  0  0  0  0  0
   21.3191  -20.6956  -13.2246 C   0  0  1  0  0  0  0  0  0  0  0  0
   20.4089  -19.8944  -14.1051 C   0  0  0  0  0  0  0  0  0  0  0  0
   20.4644  -20.3153  -15.5121 C   0  0  0  0  0  0  0  0  0  0  0  0
   21.3051  -19.7637  -16.2723 O   0  0  0  0  0  0  0  0  0  0  0  0
   20.6536  -21.9285  -12.7239 C   0  0  0  0  0  0  0  0  0  0  0  0
   20.8559  -23.0187  -13.3124 O   0  0  0  0  0  0  0  0  0  0  0  0
   19.6222  -21.2847  -15.9894 O   0  0  0  0  0  0  0  0  0  0  0  0
   17.4911  -26.0304   -6.7740 C   0  0  0  0  0  0  0  0  0  0  0  0
   18.4830  -24.6112   -7.3450 S   0  0  0  0  0  0  0  0  0  0  0  0
   18.3785  -24.3962   -9.1126 C   0  0  0  0  0  0  0  0  0  0  0  0
   19.1123  -23.2722   -9.7151 C   0  0  0  0  0  0  0  0  0  0  0  0
   19.0323  -23.1331  -11.1848 C   0  0  2  0  0  0  0  0  0  0  0  0
   19.7948  -21.9241  -11.6032 N   0  0  0  0  0  0  0  0  0  0  0  0
   17.7232  -23.1278  -11.8234 C   0  0  0  0  0  0  0  0  0  0  0  0
   17.0701  -24.3483  -12.1661 O   0  0  0  0  0  0  0  0  0  0  0  0
   17.0613  -22.1144  -12.1262 O   0  0  0  0  0  0  0  0  0  0  0  0
  2  1  1  6
  3  2  1  0
  4  3  1  0
  5  4  1  0
  6  5  1  0
  7  6  1  0
  8  9  2  0
  8  2  1  0
 10  8  1  0
 11 10  1  0
 11 12  1  6
 13 12  1  0
 14 13  2  0
 15 11  1  0
 16 15  2  0
 17 13  1  0
 19 18  1  0
 20 19  1  0
 21 20  1  0
 22 21  1  1
 22 23  1  0
 23 15  1  0
 24 25  1  0
 24 22  1  0
 26 24  2  0
M  END
$$$$
