KDM.pdb
     RDKit          3D

 26 25  0  0  1  0  0  0  0  0999 V2000
   20.5083  -12.7689  -15.9404 N   0  0  0  0  0  0  0  0  0  0  0  0
   19.2162  -12.3644  -16.4658 C   0  0  1  0  0  0  0  0  0  0  0  0
   18.1686  -13.4150  -16.2078 C   0  0  0  0  0  0  0  0  0  0  0  0
   18.3995  -14.6814  -16.9760 C   0  0  0  0  0  0  0  0  0  0  0  0
   18.0894  -14.5952  -18.4231 C   0  0  0  0  0  0  0  0  0  0  0  0
   18.3164  -15.9056  -19.1566 C   0  0  0  0  0  0  0  0  0  0  0  0
   17.2540  -16.8336  -18.7728 N   0  0  0  0  0  0  0  0  0  0  0  0
   18.8016  -11.1496  -15.7151 C   0  0  0  0  0  0  0  0  0  0  0  0
   18.9201  -11.1598  -14.4721 O   0  0  0  0  0  0  0  0  0  0  0  0
   18.2761   -9.9837  -16.3811 N   0  0  0  0  0  0  0  0  0  0  0  0
   17.8388   -8.8577  -15.6263 C   0  0  1  0  0  0  0  0  0  0  0  0
   18.4804   -7.5970  -16.1212 C   0  0  0  0  0  0  0  0  0  0  0  0
   18.0999   -6.4179  -15.3308 C   0  0  0  0  0  0  0  0  0  0  0  0
   18.1123   -6.5070  -14.0735 O   0  0  0  0  0  0  0  0  0  0  0  0
   16.3559   -8.7416  -15.5904 C   0  0  0  0  0  0  0  0  0  0  0  0
   15.7052   -8.8422  -16.6592 O   0  0  0  0  0  0  0  0  0  0  0  0
   17.7392   -5.2472  -15.9441 O   0  0  0  0  0  0  0  0  0  0  0  0
    9.5380  -10.3807  -12.2287 C   0  0  0  0  0  0  0  0  0  0  0  0
   11.3183  -10.6862  -12.4760 S   0  0  0  0  0  0  0  0  0  0  0  0
   12.1485   -9.2610  -13.1553 C   0  0  0  0  0  0  0  0  0  0  0  0
   13.5849   -9.3763  -13.4522 C   0  0  0  0  0  0  0  0  0  0  0  0
   14.1605   -8.3698  -14.3694 C   0  0  2  0  0  0  0  0  0  0  0  0
   15.6421   -8.5206  -14.3924 N   0  0  0  0  0  0  0  0  0  0  0  0
   13.8172   -6.9666  -14.1835 C   0  0  0  0  0  0  0  0  0  0  0  0
   14.8109   -6.0112  -13.8185 O   0  0  0  0  0  0  0  0  0  0  0  0
   12.6809   -6.4682  -14.3145 O   0  0  0  0  0  0  0  0  0  0  0  0
  2  1  1  1
  3  2  1  0
  4  3  1  0
  5  4  1  0
  6  5  1  0
  7  6  1  0
  8  9  2  0
  8  2  1  0
 10  8  1  0
 11 10  1  0
 11 12  1  6
 13 12  1  0
 14 13  2  0
 15 11  1  0
 16 15  2  0
 17 13  1  0
 19 18  1  0
 20 19  1  0
 21 20  1  0
 22 21  1  1
 22 23  1  0
 23 15  1  0
 24 25  1  0
 24 22  1  0
 26 24  2  0
M  END
$$$$
