KDM.pdb
     RDKit          3D

 26 25  0  0  1  0  0  0  0  0999 V2000
   26.9302  -19.6921  -16.6098 N   0  0  0  0  0  0  0  0  0  0  0  0
   27.6222  -18.9518  -15.5695 C   0  0  1  0  0  0  0  0  0  0  0  0
   27.8173  -17.5112  -15.9620 C   0  0  0  0  0  0  0  0  0  0  0  0
   28.6276  -17.3435  -17.2119 C   0  0  0  0  0  0  0  0  0  0  0  0
   29.4357  -18.5269  -17.5916 C   0  0  0  0  0  0  0  0  0  0  0  0
   30.2936  -18.2884  -18.8220 C   0  0  0  0  0  0  0  0  0  0  0  0
   31.0254  -19.5199  -19.1140 N   0  0  0  0  0  0  0  0  0  0  0  0
   26.7406  -18.9561  -14.3719 C   0  0  0  0  0  0  0  0  0  0  0  0
   27.0742  -18.2523  -13.3960 O   0  0  0  0  0  0  0  0  0  0  0  0
   25.5325  -19.7413  -14.3171 N   0  0  0  0  0  0  0  0  0  0  0  0
   24.6684  -19.6572  -13.1878 C   0  0  1  0  0  0  0  0  0  0  0  0
   23.2602  -20.0080  -13.5613 C   0  0  0  0  0  0  0  0  0  0  0  0
   22.7073  -19.1181  -14.5919 C   0  0  0  0  0  0  0  0  0  0  0  0
   22.3931  -19.6125  -15.7081 O   0  0  0  0  0  0  0  0  0  0  0  0
   25.1526  -20.4743  -12.0425 C   0  0  0  0  0  0  0  0  0  0  0  0
   25.2370  -21.7205  -12.1686 O   0  0  0  0  0  0  0  0  0  0  0  0
   22.5367  -17.7809  -14.3479 O   0  0  0  0  0  0  0  0  0  0  0  0
   29.1209  -18.5742   -7.1414 C   0  0  0  0  0  0  0  0  0  0  0  0
   28.0478  -19.7562   -6.2608 S   0  0  0  0  0  0  0  0  0  0  0  0
   26.9453  -20.6089   -7.3739 C   0  0  0  0  0  0  0  0  0  0  0  0
   26.6886  -20.0020   -8.6894 C   0  0  0  0  0  0  0  0  0  0  0  0
   25.7707  -20.7282   -9.5926 C   0  0  2  0  0  0  0  0  0  0  0  0
   25.5247  -19.9015  -10.8068 N   0  0  0  0  0  0  0  0  0  0  0  0
   24.5010  -21.2127   -9.0686 C   0  0  0  0  0  0  0  0  0  0  0  0
   24.4549  -22.3068   -8.1551 O   0  0  0  0  0  0  0  0  0  0  0  0
   23.3737  -20.7534   -9.3425 O   0  0  0  0  0  0  0  0  0  0  0  0
  2  1  1  6
  3  2  1  0
  4  3  1  0
  5  4  1  0
  6  5  1  0
  7  6  1  0
  8  9  2  0
  8  2  1  0
 10  8  1  0
 11 10  1  0
 11 12  1  6
 13 12  1  0
 14 13  2  0
 15 11  1  0
 16 15  2  0
 17 13  1  0
 19 18  1  0
 20 19  1  0
 21 20  1  0
 22 21  1  1
 22 23  1  0
 23 15  1  0
 24 25  1  0
 24 22  1  0
 26 24  2  0
M  END
$$$$
