KDM.pdb
     RDKit          3D

 26 25  0  0  1  0  0  0  0  0999 V2000
   16.7156  -12.0079  -18.3154 N   0  0  0  0  0  0  0  0  0  0  0  0
   16.7817  -11.6428  -16.9112 C   0  0  1  0  0  0  0  0  0  0  0  0
   17.5611  -12.6590  -16.1189 C   0  0  0  0  0  0  0  0  0  0  0  0
   16.8399  -13.9634  -15.9588 C   0  0  0  0  0  0  0  0  0  0  0  0
   17.5536  -14.9709  -15.1382 C   0  0  0  0  0  0  0  0  0  0  0  0
   16.7943  -16.2805  -15.0156 C   0  0  0  0  0  0  0  0  0  0  0  0
   17.5549  -17.1688  -14.1383 N   0  0  0  0  0  0  0  0  0  0  0  0
   17.5347  -10.3632  -16.8288 C   0  0  0  0  0  0  0  0  0  0  0  0
   18.5379  -10.2253  -17.5594 O   0  0  0  0  0  0  0  0  0  0  0  0
   17.1369   -9.3000  -15.9397 N   0  0  0  0  0  0  0  0  0  0  0  0
   17.8342   -8.0580  -15.9434 C   0  0  1  0  0  0  0  0  0  0  0  0
   16.9300   -6.9329  -15.5402 C   0  0  0  0  0  0  0  0  0  0  0  0
   17.5992   -5.6250  -15.5777 C   0  0  0  0  0  0  0  0  0  0  0  0
   18.7856   -5.5441  -15.1594 O   0  0  0  0  0  0  0  0  0  0  0  0
   19.0661   -8.0980  -15.1101 C   0  0  0  0  0  0  0  0  0  0  0  0
   18.9955   -8.5140  -13.9278 O   0  0  0  0  0  0  0  0  0  0  0  0
   16.9506   -4.5171  -16.0557 O   0  0  0  0  0  0  0  0  0  0  0  0
   26.4970  -10.0851  -14.3276 C   0  0  0  0  0  0  0  0  0  0  0  0
   24.9230  -10.0928  -15.2476 S   0  0  0  0  0  0  0  0  0  0  0  0
   23.8230   -8.8030  -14.6926 C   0  0  0  0  0  0  0  0  0  0  0  0
   22.5070   -8.6928  -15.3410 C   0  0  0  0  0  0  0  0  0  0  0  0
   21.5532   -7.7258  -14.7571 C   0  0  2  0  0  0  0  0  0  0  0  0
   20.3245   -7.6832  -15.5978 N   0  0  0  0  0  0  0  0  0  0  0  0
   22.0029   -6.3677  -14.4836 C   0  0  0  0  0  0  0  0  0  0  0  0
   22.0249   -5.3817  -15.5136 O   0  0  0  0  0  0  0  0  0  0  0  0
   22.3974   -5.9360  -13.3815 O   0  0  0  0  0  0  0  0  0  0  0  0
  2  1  1  6
  3  2  1  0
  4  3  1  0
  5  4  1  0
  6  5  1  0
  7  6  1  0
  8  9  2  0
  8  2  1  0
 10  8  1  0
 11 10  1  0
 11 12  1  1
 13 12  1  0
 14 13  2  0
 15 11  1  0
 16 15  2  0
 17 13  1  0
 19 18  1  0
 20 19  1  0
 21 20  1  0
 22 21  1  6
 22 23  1  0
 23 15  1  0
 24 25  1  0
 24 22  1  0
 26 24  2  0
M  END
$$$$
