KDM.pdb
     RDKit          3D

 26 25  0  0  1  0  0  0  0  0999 V2000
   22.5930  -19.4569  -17.9061 N   0  0  0  0  0  0  0  0  0  0  0  0
   23.0956  -18.6257  -16.8264 C   0  0  1  0  0  0  0  0  0  0  0  0
   21.9687  -17.9800  -16.0643 C   0  0  0  0  0  0  0  0  0  0  0  0
   21.1509  -17.0420  -16.9001 C   0  0  0  0  0  0  0  0  0  0  0  0
   20.0684  -16.3415  -16.1685 C   0  0  0  0  0  0  0  0  0  0  0  0
   19.2993  -15.3651  -17.0412 C   0  0  0  0  0  0  0  0  0  0  0  0
   18.1578  -14.8688  -16.2744 N   0  0  0  0  0  0  0  0  0  0  0  0
   23.7986  -19.5262  -15.8745 C   0  0  0  0  0  0  0  0  0  0  0  0
   23.1052  -20.2764  -15.1563 O   0  0  0  0  0  0  0  0  0  0  0  0
   25.2363  -19.5496  -15.7669 N   0  0  0  0  0  0  0  0  0  0  0  0
   25.8756  -20.4154  -14.8338 C   0  0  1  0  0  0  0  0  0  0  0  0
   27.3410  -20.5313  -15.1251 C   0  0  0  0  0  0  0  0  0  0  0  0
   27.6251  -21.4094  -16.2689 C   0  0  0  0  0  0  0  0  0  0  0  0
   26.7131  -22.1767  -16.6793 O   0  0  0  0  0  0  0  0  0  0  0  0
   25.6264  -20.0111  -13.4238 C   0  0  0  0  0  0  0  0  0  0  0  0
   25.4209  -18.8015  -13.1581 O   0  0  0  0  0  0  0  0  0  0  0  0
   28.8527  -21.3967  -16.8768 O   0  0  0  0  0  0  0  0  0  0  0  0
   20.4726  -20.5874  -10.8695 C   0  0  0  0  0  0  0  0  0  0  0  0
   21.3737  -19.4963   -9.7200 S   0  0  0  0  0  0  0  0  0  0  0  0
   23.1279  -19.8191   -9.7354 C   0  0  0  0  0  0  0  0  0  0  0  0
   23.7557  -20.1562  -11.0226 C   0  0  0  0  0  0  0  0  0  0  0  0
   25.1761  -20.5645  -10.9867 C   0  0  2  0  0  0  0  0  0  0  0  0
   25.6113  -20.9400  -12.3606 N   0  0  0  0  0  0  0  0  0  0  0  0
   25.5907  -21.5963  -10.0460 C   0  0  0  0  0  0  0  0  0  0  0  0
   26.0780  -21.2537   -8.7503 O   0  0  0  0  0  0  0  0  0  0  0  0
   25.5686  -22.8265  -10.2532 O   0  0  0  0  0  0  0  0  0  0  0  0
  2  1  1  6
  3  2  1  0
  4  3  1  0
  5  4  1  0
  6  5  1  0
  7  6  1  0
  8  9  2  0
  8  2  1  0
 10  8  1  0
 11 10  1  0
 11 12  1  6
 13 12  1  0
 14 13  2  0
 15 11  1  0
 16 15  2  0
 17 13  1  0
 19 18  1  0
 20 19  1  0
 21 20  1  0
 22 21  1  6
 22 23  1  0
 23 15  1  0
 24 25  1  0
 24 22  1  0
 26 24  2  0
M  END
$$$$
