KDM.pdb
     RDKit          3D

 26 25  0  0  1  0  0  0  0  0999 V2000
   27.2760  -19.4166  -16.2207 N   0  0  0  0  0  0  0  0  0  0  0  0
   27.0759  -20.5730  -15.3651 C   0  0  1  0  0  0  0  0  0  0  0  0
   28.3825  -21.0720  -14.8070 C   0  0  0  0  0  0  0  0  0  0  0  0
   29.2719  -21.6878  -15.8446 C   0  0  0  0  0  0  0  0  0  0  0  0
   28.8006  -22.9904  -16.3727 C   0  0  0  0  0  0  0  0  0  0  0  0
   29.7819  -23.6268  -17.3416 C   0  0  0  0  0  0  0  0  0  0  0  0
   29.2397  -24.9192  -17.7575 N   0  0  0  0  0  0  0  0  0  0  0  0
   26.2576  -20.1224  -14.2081 C   0  0  0  0  0  0  0  0  0  0  0  0
   26.5357  -19.0226  -13.6864 O   0  0  0  0  0  0  0  0  0  0  0  0
   25.1712  -20.9148  -13.6876 N   0  0  0  0  0  0  0  0  0  0  0  0
   24.4046  -20.4492  -12.5811 C   0  0  1  0  0  0  0  0  0  0  0  0
   22.9485  -20.7473  -12.7726 C   0  0  0  0  0  0  0  0  0  0  0  0
   22.1066  -20.1697  -11.7155 C   0  0  0  0  0  0  0  0  0  0  0  0
   22.6505  -19.4352  -10.8474 O   0  0  0  0  0  0  0  0  0  0  0  0
   24.9068  -20.9755  -11.2832 C   0  0  0  0  0  0  0  0  0  0  0  0
   24.7795  -22.1973  -11.0245 O   0  0  0  0  0  0  0  0  0  0  0  0
   20.7610  -20.4225  -11.6720 O   0  0  0  0  0  0  0  0  0  0  0  0
   29.0731  -19.5434   -4.6183 C   0  0  0  0  0  0  0  0  0  0  0  0
   28.4624  -18.8986   -6.2105 S   0  0  0  0  0  0  0  0  0  0  0  0
   27.3260  -20.0293   -6.9928 C   0  0  0  0  0  0  0  0  0  0  0  0
   26.8616  -19.7100   -8.3519 C   0  0  0  0  0  0  0  0  0  0  0  0
   25.9092  -20.6555   -8.9720 C   0  0  2  0  0  0  0  0  0  0  0  0
   25.5266  -20.1502  -10.3197 N   0  0  0  0  0  0  0  0  0  0  0  0
   24.7106  -21.0348   -8.2365 C   0  0  0  0  0  0  0  0  0  0  0  0
   24.7864  -21.9102   -7.1132 O   0  0  0  0  0  0  0  0  0  0  0  0
   23.5479  -20.6596   -8.4894 O   0  0  0  0  0  0  0  0  0  0  0  0
  2  1  1  6
  3  2  1  0
  4  3  1  0
  5  4  1  0
  6  5  1  0
  7  6  1  0
  8  9  2  0
  8  2  1  0
 10  8  1  0
 11 10  1  0
 11 12  1  6
 13 12  1  0
 14 13  2  0
 15 11  1  0
 16 15  2  0
 17 13  1  0
 19 18  1  0
 20 19  1  0
 21 20  1  0
 22 21  1  1
 22 23  1  0
 23 15  1  0
 24 25  1  0
 24 22  1  0
 26 24  2  0
M  END
$$$$
