KDM.pdb
     RDKit          3D

 26 25  0  0  1  0  0  0  0  0999 V2000
   26.5073  -20.1661  -15.1924 N   0  0  0  0  0  0  0  0  0  0  0  0
   27.1760  -19.1976  -14.3413 C   0  0  1  0  0  0  0  0  0  0  0  0
   27.0094  -17.7979  -14.8712 C   0  0  0  0  0  0  0  0  0  0  0  0
   27.4243  -17.6551  -16.3045 C   0  0  0  0  0  0  0  0  0  0  0  0
   28.7854  -18.1568  -16.6100 C   0  0  0  0  0  0  0  0  0  0  0  0
   29.1696  -17.9767  -18.0683 C   0  0  0  0  0  0  0  0  0  0  0  0
   30.5196  -18.5064  -18.2535 N   0  0  0  0  0  0  0  0  0  0  0  0
   26.4995  -19.2403  -13.0178 C   0  0  0  0  0  0  0  0  0  0  0  0
   26.5888  -18.2360  -12.2811 O   0  0  0  0  0  0  0  0  0  0  0  0
   25.7572  -20.3953  -12.5775 N   0  0  0  0  0  0  0  0  0  0  0  0
   25.0615  -20.3748  -11.3347 C   0  0  1  0  0  0  0  0  0  0  0  0
   23.7311  -21.0545  -11.4522 C   0  0  0  0  0  0  0  0  0  0  0  0
   22.6684  -20.1480  -11.9090 C   0  0  0  0  0  0  0  0  0  0  0  0
   22.9326  -18.9207  -12.0230 O   0  0  0  0  0  0  0  0  0  0  0  0
   25.8717  -20.9421  -10.2231 C   0  0  0  0  0  0  0  0  0  0  0  0
   26.2704  -22.1302  -10.2971 O   0  0  0  0  0  0  0  0  0  0  0  0
   21.4180  -20.6233  -12.2044 O   0  0  0  0  0  0  0  0  0  0  0  0
   28.4951  -17.3606   -5.2132 C   0  0  0  0  0  0  0  0  0  0  0  0
   28.9848  -19.0720   -4.8189 S   0  0  0  0  0  0  0  0  0  0  0  0
   28.0673  -20.2631   -5.7787 C   0  0  0  0  0  0  0  0  0  0  0  0
   27.5294  -19.8335   -7.0790 C   0  0  0  0  0  0  0  0  0  0  0  0
   26.7539  -20.8327   -7.8444 C   0  0  2  0  0  0  0  0  0  0  0  0
   26.2144  -20.1930   -9.0764 N   0  0  0  0  0  0  0  0  0  0  0  0
   25.6909  -21.5674   -7.1723 C   0  0  0  0  0  0  0  0  0  0  0  0
   25.9925  -22.5898   -6.2250 O   0  0  0  0  0  0  0  0  0  0  0  0
   24.4662  -21.3969   -7.3382 O   0  0  0  0  0  0  0  0  0  0  0  0
  2  1  1  6
  3  2  1  0
  4  3  1  0
  5  4  1  0
  6  5  1  0
  7  6  1  0
  8  9  2  0
  8  2  1  0
 10  8  1  0
 11 10  1  0
 11 12  1  6
 13 12  1  0
 14 13  2  0
 15 11  1  0
 16 15  2  0
 17 13  1  0
 19 18  1  0
 20 19  1  0
 21 20  1  0
 22 21  1  1
 22 23  1  0
 23 15  1  0
 24 25  1  0
 24 22  1  0
 26 24  2  0
M  END
$$$$
