KDM.pdb
     RDKit          3D

 26 25  0  0  1  0  0  0  0  0999 V2000
   30.3330  -27.3690  -17.2024 N   0  0  0  0  0  0  0  0  0  0  0  0
   28.8879  -27.4863  -17.1177 C   0  0  1  0  0  0  0  0  0  0  0  0
   28.2227  -26.9473  -18.3566 C   0  0  0  0  0  0  0  0  0  0  0  0
   28.4459  -25.4784  -18.5559 C   0  0  0  0  0  0  0  0  0  0  0  0
   27.9022  -24.9340  -19.8232 C   0  0  0  0  0  0  0  0  0  0  0  0
   28.1995  -23.4562  -20.0088 C   0  0  0  0  0  0  0  0  0  0  0  0
   27.6185  -23.0300  -21.2808 N   0  0  0  0  0  0  0  0  0  0  0  0
   28.5714  -28.9380  -17.0562 C   0  0  0  0  0  0  0  0  0  0  0  0
   28.9909  -29.6689  -17.9776 O   0  0  0  0  0  0  0  0  0  0  0  0
   27.8052  -29.5064  -15.9751 N   0  0  0  0  0  0  0  0  0  0  0  0
   27.6114  -30.9151  -15.8914 C   0  0  1  0  0  0  0  0  0  0  0  0
   27.5974  -31.3717  -14.4641 C   0  0  0  0  0  0  0  0  0  0  0  0
   27.5713  -32.8356  -14.3363 C   0  0  0  0  0  0  0  0  0  0  0  0
   27.5975  -33.3391  -13.1809 O   0  0  0  0  0  0  0  0  0  0  0  0
   26.3962  -31.3638  -16.6234 C   0  0  0  0  0  0  0  0  0  0  0  0
   25.3181  -30.7405  -16.4653 O   0  0  0  0  0  0  0  0  0  0  0  0
   27.5200  -33.6372  -15.4460 O   0  0  0  0  0  0  0  0  0  0  0  0
   26.3293  -34.6328  -22.5641 C   0  0  0  0  0  0  0  0  0  0  0  0
   24.9520  -35.3314  -21.5950 S   0  0  0  0  0  0  0  0  0  0  0  0
   24.5039  -34.2806  -20.2250 C   0  0  0  0  0  0  0  0  0  0  0  0
   25.5840  -33.7658  -19.3689 C   0  0  0  0  0  0  0  0  0  0  0  0
   25.1843  -32.9140  -18.2286 C   0  0  2  0  0  0  0  0  0  0  0  0
   26.4044  -32.4727  -17.4972 N   0  0  0  0  0  0  0  0  0  0  0  0
   24.2040  -33.4208  -17.2780 C   0  0  0  0  0  0  0  0  0  0  0  0
   22.8237  -33.0835  -17.3990 O   0  0  0  0  0  0  0  0  0  0  0  0
   24.4447  -34.1646  -16.3057 O   0  0  0  0  0  0  0  0  0  0  0  0
  2  1  1  6
  3  2  1  0
  4  3  1  0
  5  4  1  0
  6  5  1  0
  7  6  1  0
  8  9  2  0
  8  2  1  0
 10  8  1  0
 11 10  1  0
 11 12  1  1
 13 12  1  0
 14 13  2  0
 15 11  1  0
 16 15  2  0
 17 13  1  0
 19 18  1  0
 20 19  1  0
 21 20  1  0
 22 21  1  6
 22 23  1  0
 23 15  1  0
 24 25  1  0
 24 22  1  0
 26 24  2  0
M  END
$$$$
