KDM.pdb
     RDKit          3D

 26 25  0  0  1  0  0  0  0  0999 V2000
   28.4655  -30.5700  -15.5503 N   0  0  0  0  0  0  0  0  0  0  0  0
   29.3950  -30.2608  -16.6225 C   0  0  1  0  0  0  0  0  0  0  0  0
   28.7353  -30.3868  -17.9704 C   0  0  0  0  0  0  0  0  0  0  0  0
   27.6171  -31.3849  -17.9904 C   0  0  0  0  0  0  0  0  0  0  0  0
   26.9535  -31.5478  -19.3060 C   0  0  0  0  0  0  0  0  0  0  0  0
   25.7888  -32.5216  -19.2654 C   0  0  0  0  0  0  0  0  0  0  0  0
   25.1692  -32.5477  -20.5893 N   0  0  0  0  0  0  0  0  0  0  0  0
   29.7829  -28.8339  -16.4648 C   0  0  0  0  0  0  0  0  0  0  0  0
   29.0629  -28.1063  -15.7497 O   0  0  0  0  0  0  0  0  0  0  0  0
   30.9508  -28.2854  -17.1085 N   0  0  0  0  0  0  0  0  0  0  0  0
   31.4147  -26.9816  -16.7712 C   0  0  1  0  0  0  0  0  0  0  0  0
   32.8389  -26.7912  -17.1966 C   0  0  0  0  0  0  0  0  0  0  0  0
   33.4547  -25.5968  -16.6015 C   0  0  0  0  0  0  0  0  0  0  0  0
   34.6942  -25.4219  -16.7496 O   0  0  0  0  0  0  0  0  0  0  0  0
   30.5331  -25.9104  -17.3090 C   0  0  0  0  0  0  0  0  0  0  0  0
   29.9919  -26.0651  -18.4310 O   0  0  0  0  0  0  0  0  0  0  0  0
   32.7010  -24.6926  -15.9008 O   0  0  0  0  0  0  0  0  0  0  0  0
   25.9685  -19.6450  -15.5025 C   0  0  0  0  0  0  0  0  0  0  0  0
   27.2179  -20.8480  -14.9407 S   0  0  0  0  0  0  0  0  0  0  0  0
   27.8549  -21.8236  -16.2913 C   0  0  0  0  0  0  0  0  0  0  0  0
   28.8137  -22.8942  -15.9763 C   0  0  0  0  0  0  0  0  0  0  0  0
   29.3369  -23.6789  -17.1149 C   0  0  2  0  0  0  0  0  0  0  0  0
   30.2770  -24.7146  -16.6034 N   0  0  0  0  0  0  0  0  0  0  0  0
   29.9491  -22.9766  -18.2345 C   0  0  0  0  0  0  0  0  0  0  0  0
   29.1471  -22.3362  -19.2246 O   0  0  0  0  0  0  0  0  0  0  0  0
   31.1736  -22.8612  -18.4440 O   0  0  0  0  0  0  0  0  0  0  0  0
  2  1  1  1
  3  2  1  0
  4  3  1  0
  5  4  1  0
  6  5  1  0
  7  6  1  0
  8  9  2  0
  8  2  1  0
 10  8  1  0
 11 10  1  0
 11 12  1  6
 13 12  1  0
 14 13  2  0
 15 11  1  0
 16 15  2  0
 17 13  1  0
 19 18  1  0
 20 19  1  0
 21 20  1  0
 22 21  1  1
 22 23  1  0
 23 15  1  0
 24 25  1  0
 24 22  1  0
 26 24  2  0
M  END
$$$$
