KDM.pdb
     RDKit          3D

 26 25  0  0  1  0  0  0  0  0999 V2000
   24.3689  -19.4480  -15.6689 N   0  0  0  0  0  0  0  0  0  0  0  0
   23.0875  -19.8177  -16.2439 C   0  0  1  0  0  0  0  0  0  0  0  0
   23.2409  -20.9249  -17.2531 C   0  0  0  0  0  0  0  0  0  0  0  0
   23.9707  -20.4992  -18.4913 C   0  0  0  0  0  0  0  0  0  0  0  0
   23.5723  -19.1736  -19.0222 C   0  0  0  0  0  0  0  0  0  0  0  0
   24.3434  -18.7791  -20.2698 C   0  0  0  0  0  0  0  0  0  0  0  0
   23.8282  -17.4933  -20.7373 N   0  0  0  0  0  0  0  0  0  0  0  0
   22.2528  -20.3564  -15.1374 C   0  0  0  0  0  0  0  0  0  0  0  0
   21.6103  -21.4067  -15.3457 O   0  0  0  0  0  0  0  0  0  0  0  0
   22.1725  -19.7028  -13.8547 N   0  0  0  0  0  0  0  0  0  0  0  0
   21.3470  -20.2364  -12.8238 C   0  0  1  0  0  0  0  0  0  0  0  0
   21.6220  -19.5640  -11.5131 C   0  0  0  0  0  0  0  0  0  0  0  0
   20.9321  -20.2099  -10.3876 C   0  0  0  0  0  0  0  0  0  0  0  0
   20.9346  -19.6304   -9.2681 O   0  0  0  0  0  0  0  0  0  0  0  0
   19.9017  -20.1872  -13.1737 C   0  0  0  0  0  0  0  0  0  0  0  0
   19.4649  -19.2230  -13.8486 O   0  0  0  0  0  0  0  0  0  0  0  0
   20.3003  -21.4147  -10.5485 O   0  0  0  0  0  0  0  0  0  0  0  0
   15.1078  -20.8006  -18.1559 C   0  0  0  0  0  0  0  0  0  0  0  0
   16.4586  -21.6160  -17.2425 S   0  0  0  0  0  0  0  0  0  0  0  0
   16.5261  -21.0835  -15.5415 C   0  0  0  0  0  0  0  0  0  0  0  0
   17.5793  -21.6484  -14.6834 C   0  0  0  0  0  0  0  0  0  0  0  0
   17.5859  -21.2250  -13.2670 C   0  0  2  0  0  0  0  0  0  0  0  0
   18.9909  -21.1894  -12.7742 N   0  0  0  0  0  0  0  0  0  0  0  0
   16.7533  -21.9428  -12.3114 C   0  0  0  0  0  0  0  0  0  0  0  0
   15.4030  -21.5494  -12.0755 O   0  0  0  0  0  0  0  0  0  0  0  0
   17.1049  -22.9266  -11.6294 O   0  0  0  0  0  0  0  0  0  0  0  0
  2  1  1  1
  3  2  1  0
  4  3  1  0
  5  4  1  0
  6  5  1  0
  7  6  1  0
  8  9  2  0
  8  2  1  0
 10  8  1  0
 11 10  1  0
 11 12  1  1
 13 12  1  0
 14 13  2  0
 15 11  1  0
 16 15  2  0
 17 13  1  0
 19 18  1  0
 20 19  1  0
 21 20  1  0
 22 21  1  6
 22 23  1  0
 23 15  1  0
 24 25  1  0
 24 22  1  0
 26 24  2  0
M  END
$$$$
