AYA.pdb
     RDKit          3D

 23 23  0  0  1  0  0  0  0  0999 V2000
    9.8979  -19.1568   21.8534 C   0  0  0  0  0  0  0  0  0  0  0  0
   10.0377  -17.7492   21.3228 C   0  0  2  0  0  0  0  0  0  0  0  0
   11.3390  -17.6078   20.7446 N   0  0  0  0  0  0  0  0  0  0  0  0
    9.8300  -16.7272   22.3550 C   0  0  0  0  0  0  0  0  0  0  0  0
   10.8742  -16.2838   22.9351 O   0  0  0  0  0  0  0  0  0  0  0  0
    5.8922  -10.6657   27.7028 O   0  0  0  0  0  0  0  0  0  0  0  0
    6.2148  -11.6124   26.7212 C   0  0  0  0  0  0  0  0  0  0  0  0
    5.6640  -12.8753   26.7251 C   0  0  0  0  0  0  0  0  0  0  0  0
    5.9867  -13.8017   25.7550 C   0  0  0  0  0  0  0  0  0  0  0  0
    6.8675  -13.5327   24.7321 C   0  0  0  0  0  0  0  0  0  0  0  0
    7.2330  -14.4937   23.6801 C   0  0  0  0  0  0  0  0  0  0  0  0
    8.4835  -15.2678   23.8566 C   0  0  2  0  0  0  0  0  0  0  0  0
    8.5545  -16.2261   22.7243 N   0  0  0  0  0  0  0  0  0  0  0  0
    8.5014  -16.1122   25.0617 C   0  0  0  0  0  0  0  0  0  0  0  0
    8.8263  -15.6168   26.1999 O   0  0  0  0  0  0  0  0  0  0  0  0
    7.4209  -12.2435   24.7402 C   0  0  0  0  0  0  0  0  0  0  0  0
    7.1003  -11.3169   25.7075 C   0  0  0  0  0  0  0  0  0  0  0  0
    7.2123  -19.3893   26.3356 C   0  0  0  0  0  0  0  0  0  0  0  0
    8.1687  -18.1981   26.3766 C   0  0  2  0  0  0  0  0  0  0  0  0
    8.1714  -17.5019   25.1098 N   0  0  0  0  0  0  0  0  0  0  0  0
    9.4938  -18.7584   26.7078 C   0  0  0  0  0  0  0  0  0  0  0  0
    9.8163  -19.3991   27.8919 O   0  0  0  0  0  0  0  0  0  0  0  0
   10.4600  -18.6756   25.8759 O   0  0  0  0  0  0  0  0  0  0  0  0
  2  1  1  1
  2  4  1  0
  2  3  1  0
  4  5  2  0
  7  6  1  0
  7 17  2  0
  8  7  1  0
  9  8  2  0
  9 10  1  0
 10 16  2  0
 11 10  1  0
 12 11  1  6
 13 12  1  0
 13  4  1  0
 14 12  1  0
 15 14  2  0
 16 17  1  0
 19 18  1  6
 19 20  1  0
 20 14  1  0
 21 22  1  0
 21 19  1  0
 23 21  2  0
M  END
$$$$
