AYA.pdb
     RDKit          3D

 23 23  0  0  1  0  0  0  0  0999 V2000
    6.9333  -14.8552   19.7833 C   0  0  0  0  0  0  0  0  0  0  0  0
    7.2423  -13.5707   20.5161 C   0  0  2  0  0  0  0  0  0  0  0  0
    7.8666  -12.6639   19.6020 N   0  0  0  0  0  0  0  0  0  0  0  0
    8.0996  -13.7753   21.6891 C   0  0  0  0  0  0  0  0  0  0  0  0
    9.3467  -13.5724   21.5250 O   0  0  0  0  0  0  0  0  0  0  0  0
   10.5670  -15.0088   30.2552 O   0  0  0  0  0  0  0  0  0  0  0  0
    9.8987  -14.7654   29.0477 C   0  0  0  0  0  0  0  0  0  0  0  0
    9.7385  -13.4892   28.5539 C   0  0  0  0  0  0  0  0  0  0  0  0
    9.0792  -13.2578   27.3642 C   0  0  0  0  0  0  0  0  0  0  0  0
    8.5443  -14.2700   26.6003 C   0  0  0  0  0  0  0  0  0  0  0  0
    7.8380  -14.0615   25.3269 C   0  0  0  0  0  0  0  0  0  0  0  0
    8.5912  -14.2970   24.0733 C   0  0  2  0  0  0  0  0  0  0  0  0
    7.6145  -14.1775   22.9610 N   0  0  0  0  0  0  0  0  0  0  0  0
    9.1355  -15.6584   23.9472 C   0  0  0  0  0  0  0  0  0  0  0  0
    8.3526  -16.6596   23.7708 O   0  0  0  0  0  0  0  0  0  0  0  0
    8.7145  -15.5642   27.1147 C   0  0  0  0  0  0  0  0  0  0  0  0
    9.3722  -15.7977   28.3021 C   0  0  0  0  0  0  0  0  0  0  0  0
   12.0358  -17.4531   22.7290 C   0  0  0  0  0  0  0  0  0  0  0  0
   10.9236  -17.3799   23.7745 C   0  0  2  0  0  0  0  0  0  0  0  0
   10.5200  -16.0096   23.9953 N   0  0  0  0  0  0  0  0  0  0  0  0
   11.4773  -18.0014   24.9938 C   0  0  0  0  0  0  0  0  0  0  0  0
   11.8816  -19.3208   25.1041 O   0  0  0  0  0  0  0  0  0  0  0  0
   11.6180  -17.3182   26.0642 O   0  0  0  0  0  0  0  0  0  0  0  0
  2  1  1  6
  2  4  1  0
  2  3  1  0
  4  5  2  0
  7  6  1  0
  7 17  2  0
  8  7  1  0
  9  8  2  0
  9 10  1  0
 10 16  2  0
 11 10  1  0
 12 11  1  1
 13 12  1  0
 13  4  1  0
 14 12  1  0
 15 14  2  0
 16 17  1  0
 19 18  1  6
 19 20  1  0
 20 14  1  0
 21 22  1  0
 21 19  1  0
 23 21  2  0
M  END
$$$$
