AYA.pdb
     RDKit          3D

 23 23  0  0  1  0  0  0  0  0999 V2000
    8.3818  -17.1382   20.5150 C   0  0  0  0  0  0  0  0  0  0  0  0
    8.0873  -15.7725   21.0898 C   0  0  2  0  0  0  0  0  0  0  0  0
    8.6988  -14.7852   20.2536 N   0  0  0  0  0  0  0  0  0  0  0  0
    8.5547  -15.6227   22.4725 C   0  0  0  0  0  0  0  0  0  0  0  0
    9.6676  -15.0242   22.6355 O   0  0  0  0  0  0  0  0  0  0  0  0
    6.5437   -9.9208   26.9606 O   0  0  0  0  0  0  0  0  0  0  0  0
    6.7105  -11.2836   26.6801 C   0  0  0  0  0  0  0  0  0  0  0  0
    5.6583  -12.0715   26.2676 C   0  0  0  0  0  0  0  0  0  0  0  0
    5.8307  -13.4126   25.9933 C   0  0  0  0  0  0  0  0  0  0  0  0
    7.0469  -14.0463   26.1108 C   0  0  0  0  0  0  0  0  0  0  0  0
    7.2686  -15.4721   25.8247 C   0  0  0  0  0  0  0  0  0  0  0  0
    8.4081  -15.8312   24.9490 C   0  0  2  0  0  0  0  0  0  0  0  0
    7.8420  -16.1012   23.6029 N   0  0  0  0  0  0  0  0  0  0  0  0
    9.0842  -17.0824   25.3272 C   0  0  0  0  0  0  0  0  0  0  0  0
    9.5432  -17.2420   26.5148 O   0  0  0  0  0  0  0  0  0  0  0  0
    8.1094  -13.2324   26.5316 C   0  0  0  0  0  0  0  0  0  0  0  0
    7.9398  -11.8935   26.8060 C   0  0  0  0  0  0  0  0  0  0  0  0
   10.0675  -20.4564   23.8977 C   0  0  0  0  0  0  0  0  0  0  0  0
   10.0279  -19.3545   24.9558 C   0  0  2  0  0  0  0  0  0  0  0  0
    9.2931  -18.2078   24.4714 N   0  0  0  0  0  0  0  0  0  0  0  0
   11.4376  -19.0296   25.2501 C   0  0  0  0  0  0  0  0  0  0  0  0
   12.2757  -19.7747   26.0619 O   0  0  0  0  0  0  0  0  0  0  0  0
   11.9835  -17.9907   24.7451 O   0  0  0  0  0  0  0  0  0  0  0  0
  2  1  1  6
  2  4  1  0
  2  3  1  0
  4  5  2  0
  7  6  1  0
  7 17  2  0
  8  7  1  0
  9  8  2  0
  9 10  1  0
 10 16  2  0
 11 10  1  0
 12 11  1  1
 13 12  1  0
 13  4  1  0
 14 12  1  0
 15 14  2  0
 16 17  1  0
 19 18  1  6
 19 20  1  0
 20 14  1  0
 21 22  1  0
 21 19  1  0
 23 21  2  0
M  END
$$$$
