AYA.pdb
     RDKit          3D

 23 23  0  0  1  0  0  0  0  0999 V2000
   10.1280  -18.6202   20.3481 C   0  0  0  0  0  0  0  0  0  0  0  0
   10.0595  -17.1358   20.0758 C   0  0  2  0  0  0  0  0  0  0  0  0
   11.2223  -16.7549   19.3337 N   0  0  0  0  0  0  0  0  0  0  0  0
    9.9578  -16.3351   21.3011 C   0  0  0  0  0  0  0  0  0  0  0  0
   11.0512  -15.8975   21.7875 O   0  0  0  0  0  0  0  0  0  0  0  0
    6.4373  -10.9503   27.5741 O   0  0  0  0  0  0  0  0  0  0  0  0
    6.6700  -11.8366   26.5137 C   0  0  0  0  0  0  0  0  0  0  0  0
    6.2027  -13.1324   26.5380 C   0  0  0  0  0  0  0  0  0  0  0  0
    6.4360  -13.9989   25.4900 C   0  0  0  0  0  0  0  0  0  0  0  0
    7.1406  -13.6344   24.3652 C   0  0  0  0  0  0  0  0  0  0  0  0
    7.4062  -14.5294   23.2285 C   0  0  0  0  0  0  0  0  0  0  0  0
    8.7638  -15.1102   23.1099 C   0  0  2  0  0  0  0  0  0  0  0  0
    8.7309  -16.0357   21.9489 N   0  0  0  0  0  0  0  0  0  0  0  0
    9.1566  -15.9547   24.2492 C   0  0  0  0  0  0  0  0  0  0  0  0
    9.3608  -15.4361   25.4050 O   0  0  0  0  0  0  0  0  0  0  0  0
    7.6106  -12.3125   24.3537 C   0  0  0  0  0  0  0  0  0  0  0  0
    7.3790  -11.4457   25.3987 C   0  0  0  0  0  0  0  0  0  0  0  0
    9.3848  -19.5463   25.3308 C   0  0  0  0  0  0  0  0  0  0  0  0
    9.7826  -18.0722   25.3958 C   0  0  2  0  0  0  0  0  0  0  0  0
    9.3404  -17.3715   24.2114 N   0  0  0  0  0  0  0  0  0  0  0  0
   11.2523  -18.0589   25.5354 C   0  0  0  0  0  0  0  0  0  0  0  0
   12.1338  -17.4762   24.6409 O   0  0  0  0  0  0  0  0  0  0  0  0
   11.8141  -18.6134   26.5400 O   0  0  0  0  0  0  0  0  0  0  0  0
  2  1  1  1
  2  4  1  0
  2  3  1  0
  4  5  2  0
  7  6  1  0
  7 17  2  0
  8  7  1  0
  9  8  2  0
  9 10  1  0
 10 16  2  0
 11 10  1  0
 12 11  1  1
 13 12  1  0
 13  4  1  0
 14 12  1  0
 15 14  2  0
 16 17  1  0
 19 18  1  6
 19 20  1  0
 20 14  1  0
 21 22  1  0
 21 19  1  0
 23 21  2  0
M  END
$$$$
