AYA.pdb
     RDKit          3D

 23 23  0  0  1  0  0  0  0  0999 V2000
    9.6868  -18.8153   20.0117 C   0  0  0  0  0  0  0  0  0  0  0  0
    9.5163  -17.3401   19.7338 C   0  0  2  0  0  0  0  0  0  0  0  0
   10.5335  -16.9294   18.8150 N   0  0  0  0  0  0  0  0  0  0  0  0
    9.5731  -16.5204   20.9494 C   0  0  0  0  0  0  0  0  0  0  0  0
   10.7022  -16.0038   21.2353 O   0  0  0  0  0  0  0  0  0  0  0  0
    6.5469  -11.1716   27.5402 O   0  0  0  0  0  0  0  0  0  0  0  0
    6.7171  -12.0473   26.4594 C   0  0  0  0  0  0  0  0  0  0  0  0
    7.2788  -11.6308   25.2723 C   0  0  0  0  0  0  0  0  0  0  0  0
    7.4430  -12.4991   24.2128 C   0  0  0  0  0  0  0  0  0  0  0  0
    7.0631  -13.8209   24.2675 C   0  0  0  0  0  0  0  0  0  0  0  0
    7.2250  -14.7754   23.1601 C   0  0  0  0  0  0  0  0  0  0  0  0
    8.5935  -15.2539   22.8558 C   0  0  2  0  0  0  0  0  0  0  0  0
    8.4581  -16.2849   21.7956 N   0  0  0  0  0  0  0  0  0  0  0  0
    9.2473  -15.9523   23.9740 C   0  0  0  0  0  0  0  0  0  0  0  0
    9.6188  -15.3059   25.0183 O   0  0  0  0  0  0  0  0  0  0  0  0
    6.4927  -14.2315   25.4818 C   0  0  0  0  0  0  0  0  0  0  0  0
    6.3277  -13.3666   26.5409 C   0  0  0  0  0  0  0  0  0  0  0  0
    9.8434  -19.4420   25.2657 C   0  0  0  0  0  0  0  0  0  0  0  0
   10.0644  -17.9300   25.2435 C   0  0  2  0  0  0  0  0  0  0  0  0
    9.5249  -17.3531   24.0330 N   0  0  0  0  0  0  0  0  0  0  0  0
   11.5240  -17.7361   25.3511 C   0  0  0  0  0  0  0  0  0  0  0  0
   12.2891  -18.0364   26.4651 O   0  0  0  0  0  0  0  0  0  0  0  0
   12.1891  -17.2562   24.3715 O   0  0  0  0  0  0  0  0  0  0  0  0
  2  1  1  1
  2  4  1  0
  2  3  1  0
  4  5  2  0
  7  6  1  0
  7 17  2  0
  8  7  1  0
  9  8  2  0
  9 10  1  0
 10 16  2  0
 11 10  1  0
 12 11  1  1
 13 12  1  0
 13  4  1  0
 14 12  1  0
 15 14  2  0
 16 17  1  0
 19 18  1  6
 19 20  1  0
 20 14  1  0
 21 22  1  0
 21 19  1  0
 23 21  2  0
M  END
$$$$
