AYA.pdb
     RDKit          3D

 23 23  0  0  1  0  0  0  0  0999 V2000
    8.9991  -17.5239   24.1614 C   0  0  0  0  0  0  0  0  0  0  0  0
   10.4185  -17.8073   23.7286 C   0  0  2  0  0  0  0  0  0  0  0  0
   10.8700  -18.9904   24.3950 N   0  0  0  0  0  0  0  0  0  0  0  0
   11.3322  -16.6928   24.0039 C   0  0  0  0  0  0  0  0  0  0  0  0
   11.1477  -15.6262   23.3318 O   0  0  0  0  0  0  0  0  0  0  0  0
    9.1576  -14.8876   30.1835 O   0  0  0  0  0  0  0  0  0  0  0  0
   10.2297  -15.0099   29.2893 C   0  0  0  0  0  0  0  0  0  0  0  0
   10.5002  -14.0416   28.3472 C   0  0  0  0  0  0  0  0  0  0  0  0
   11.5577  -14.1695   27.4704 C   0  0  0  0  0  0  0  0  0  0  0  0
   12.4025  -15.2560   27.4760 C   0  0  0  0  0  0  0  0  0  0  0  0
   13.5403  -15.4248   26.5592 C   0  0  0  0  0  0  0  0  0  0  0  0
   13.2480  -15.5533   25.1127 C   0  0  2  0  0  0  0  0  0  0  0  0
   12.3815  -16.7494   24.9581 N   0  0  0  0  0  0  0  0  0  0  0  0
   14.4304  -15.8397   24.2848 C   0  0  0  0  0  0  0  0  0  0  0  0
   15.4062  -15.0082   24.2323 O   0  0  0  0  0  0  0  0  0  0  0  0
   12.1157  -16.2341   28.4401 C   0  0  0  0  0  0  0  0  0  0  0  0
   11.0606  -16.1088   29.3165 C   0  0  0  0  0  0  0  0  0  0  0  0
   16.1805  -18.6743   22.5913 C   0  0  0  0  0  0  0  0  0  0  0  0
   15.8634  -17.1893   22.7630 C   0  0  2  0  0  0  0  0  0  0  0  0
   14.6276  -17.0121   23.4916 N   0  0  0  0  0  0  0  0  0  0  0  0
   15.7898  -16.6340   21.3970 C   0  0  0  0  0  0  0  0  0  0  0  0
   14.6438  -16.1419   20.7961 O   0  0  0  0  0  0  0  0  0  0  0  0
   16.8334  -16.5770   20.6623 O   0  0  0  0  0  0  0  0  0  0  0  0
  2  1  1  1
  2  4  1  0
  2  3  1  0
  4  5  2  0
  7  6  1  0
  7 17  2  0
  8  7  1  0
  9  8  2  0
  9 10  1  0
 10 16  2  0
 11 10  1  0
 12 11  1  1
 13 12  1  0
 13  4  1  0
 14 12  1  0
 15 14  2  0
 16 17  1  0
 19 18  1  6
 19 20  1  0
 20 14  1  0
 21 22  1  0
 21 19  1  0
 23 21  2  0
M  END
$$$$
