AYA.pdb
     RDKit          3D

 23 23  0  0  1  0  0  0  0  0999 V2000
   11.4975  -19.2180   22.5527 C   0  0  0  0  0  0  0  0  0  0  0  0
   10.7936  -18.1381   21.7648 C   0  0  2  0  0  0  0  0  0  0  0  0
   11.6046  -17.7957   20.6366 N   0  0  0  0  0  0  0  0  0  0  0  0
   10.5103  -16.9412   22.5648 C   0  0  0  0  0  0  0  0  0  0  0  0
   11.3814  -16.0122   22.5273 O   0  0  0  0  0  0  0  0  0  0  0  0
    5.6780  -10.7580   26.9659 O   0  0  0  0  0  0  0  0  0  0  0  0
    6.1822  -11.8259   26.2114 C   0  0  0  0  0  0  0  0  0  0  0  0
    7.0817  -11.6269   25.1870 C   0  0  0  0  0  0  0  0  0  0  0  0
    7.5735  -12.6836   24.4488 C   0  0  0  0  0  0  0  0  0  0  0  0
    7.2055  -13.9894   24.6810 C   0  0  0  0  0  0  0  0  0  0  0  0
    7.7106  -15.1404   23.9170 C   0  0  0  0  0  0  0  0  0  0  0  0
    9.1465  -15.4798   24.0488 C   0  0  2  0  0  0  0  0  0  0  0  0
    9.3426  -16.7781   23.3550 N   0  0  0  0  0  0  0  0  0  0  0  0
    9.5798  -15.7274   25.4332 C   0  0  0  0  0  0  0  0  0  0  0  0
    8.9376  -16.5500   26.1799 O   0  0  0  0  0  0  0  0  0  0  0  0
    6.2892  -14.1776   25.7267 C   0  0  0  0  0  0  0  0  0  0  0  0
    5.7968  -13.1243   26.4650 C   0  0  0  0  0  0  0  0  0  0  0  0
    9.6148  -14.0872   28.0031 C   0  0  0  0  0  0  0  0  0  0  0  0
   10.7356  -15.0039   27.5144 C   0  0  2  0  0  0  0  0  0  0  0  0
   10.7056  -15.1238   26.0742 N   0  0  0  0  0  0  0  0  0  0  0  0
   10.5159  -16.2999   28.1865 C   0  0  0  0  0  0  0  0  0  0  0  0
   10.1888  -17.4844   27.5488 O   0  0  0  0  0  0  0  0  0  0  0  0
   10.6214  -16.3990   29.4558 O   0  0  0  0  0  0  0  0  0  0  0  0
  2  1  1  1
  2  4  1  0
  2  3  1  0
  4  5  2  0
  7  6  1  0
  7 17  2  0
  8  7  1  0
  9  8  2  0
  9 10  1  0
 10 16  2  0
 11 10  1  0
 12 11  1  1
 13 12  1  0
 13  4  1  0
 14 12  1  0
 15 14  2  0
 16 17  1  0
 19 18  1  1
 19 20  1  0
 20 14  1  0
 21 22  1  0
 21 19  1  0
 23 21  2  0
M  END
$$$$
