AYA.pdb
     RDKit          3D

 23 23  0  0  1  0  0  0  0  0999 V2000
    3.7943  -21.6167   23.1392 C   0  0  0  0  0  0  0  0  0  0  0  0
    5.2293  -21.1773   22.9653 C   0  0  2  0  0  0  0  0  0  0  0  0
    6.0613  -22.0049   23.7842 N   0  0  0  0  0  0  0  0  0  0  0  0
    5.4376  -19.7639   23.2996 C   0  0  0  0  0  0  0  0  0  0  0  0
    4.7168  -18.9191   22.6749 O   0  0  0  0  0  0  0  0  0  0  0  0
   10.2173  -20.0780   29.3829 O   0  0  0  0  0  0  0  0  0  0  0  0
    9.2483  -19.4993   28.5523 C   0  0  0  0  0  0  0  0  0  0  0  0
    8.0499  -20.1273   28.2921 C   0  0  0  0  0  0  0  0  0  0  0  0
    7.1009  -19.5509   27.4731 C   0  0  0  0  0  0  0  0  0  0  0  0
    7.2827  -18.3278   26.8688 C   0  0  0  0  0  0  0  0  0  0  0  0
    6.2933  -17.6819   25.9927 C   0  0  0  0  0  0  0  0  0  0  0  0
    6.4518  -17.8518   24.5297 C   0  0  2  0  0  0  0  0  0  0  0  0
    6.3790  -19.3104   24.2601 N   0  0  0  0  0  0  0  0  0  0  0  0
    7.7694  -17.4430   24.0175 C   0  0  0  0  0  0  0  0  0  0  0  0
    8.7322  -18.2883   23.9470 O   0  0  0  0  0  0  0  0  0  0  0  0
    8.5071  -17.6995   27.1422 C   0  0  0  0  0  0  0  0  0  0  0  0
    9.4560  -18.2729   27.9594 C   0  0  0  0  0  0  0  0  0  0  0  0
    9.4331  -14.5639   22.2232 C   0  0  0  0  0  0  0  0  0  0  0  0
    9.4134  -15.8981   22.9683 C   0  0  2  0  0  0  0  0  0  0  0  0
    8.1146  -16.1349   23.5569 N   0  0  0  0  0  0  0  0  0  0  0  0
   10.4784  -15.8050   23.9864 C   0  0  0  0  0  0  0  0  0  0  0  0
   10.2766  -15.8177   25.3560 O   0  0  0  0  0  0  0  0  0  0  0  0
   11.7031  -15.7021   23.6374 O   0  0  0  0  0  0  0  0  0  0  0  0
  2  1  1  1
  2  4  1  0
  2  3  1  0
  4  5  2  0
  7  6  1  0
  7 17  2  0
  8  7  1  0
  9  8  2  0
  9 10  1  0
 10 16  2  0
 11 10  1  0
 12 11  1  1
 13 12  1  0
 13  4  1  0
 14 12  1  0
 15 14  2  0
 16 17  1  0
 19 18  1  1
 19 20  1  0
 20 14  1  0
 21 22  1  0
 21 19  1  0
 23 21  2  0
M  END
$$$$
