AYA.pdb
     RDKit          3D

 23 23  0  0  1  0  0  0  0  0999 V2000
    9.9377  -20.5469   19.8847 C   0  0  0  0  0  0  0  0  0  0  0  0
    9.6316  -19.1784   19.3227 C   0  0  2  0  0  0  0  0  0  0  0  0
   10.0430  -19.1465   17.9525 N   0  0  0  0  0  0  0  0  0  0  0  0
   10.2816  -18.0962   20.0705 C   0  0  0  0  0  0  0  0  0  0  0  0
   11.4012  -17.6864   19.6210 O   0  0  0  0  0  0  0  0  0  0  0  0
    7.1688  -12.1194   18.2662 O   0  0  0  0  0  0  0  0  0  0  0  0
    7.7302  -12.9271   19.2644 C   0  0  0  0  0  0  0  0  0  0  0  0
    6.9518  -13.7345   20.0646 C   0  0  0  0  0  0  0  0  0  0  0  0
    7.5122  -14.5269   21.0452 C   0  0  0  0  0  0  0  0  0  0  0  0
    8.8664  -14.5651   21.2882 C   0  0  0  0  0  0  0  0  0  0  0  0
    9.4989  -15.3986   22.3221 C   0  0  0  0  0  0  0  0  0  0  0  0
   10.4947  -16.4041   21.8841 C   0  0  2  0  0  0  0  0  0  0  0  0
    9.7337  -17.5036   21.2381 N   0  0  0  0  0  0  0  0  0  0  0  0
   11.2196  -17.0513   22.9893 C   0  0  0  0  0  0  0  0  0  0  0  0
   10.5831  -17.7016   23.8939 O   0  0  0  0  0  0  0  0  0  0  0  0
    9.6470  -13.7382   20.4663 C   0  0  0  0  0  0  0  0  0  0  0  0
    9.0899  -12.9463   19.4868 C   0  0  0  0  0  0  0  0  0  0  0  0
   14.0507  -18.8979   23.9086 C   0  0  0  0  0  0  0  0  0  0  0  0
   13.2166  -17.6886   24.3297 C   0  0  2  0  0  0  0  0  0  0  0  0
   12.6367  -17.0414   23.1746 N   0  0  0  0  0  0  0  0  0  0  0  0
   14.1399  -16.7995   25.0621 C   0  0  0  0  0  0  0  0  0  0  0  0
   14.6056  -17.0168   26.3476 O   0  0  0  0  0  0  0  0  0  0  0  0
   14.5780  -15.7292   24.5191 O   0  0  0  0  0  0  0  0  0  0  0  0
  2  1  1  1
  2  4  1  0
  2  3  1  0
  4  5  2  0
  7  6  1  0
  7 17  2  0
  8  7  1  0
  9  8  2  0
  9 10  1  0
 10 16  2  0
 11 10  1  0
 12 11  1  1
 13 12  1  0
 13  4  1  0
 14 12  1  0
 15 14  2  0
 16 17  1  0
 19 18  1  6
 19 20  1  0
 20 14  1  0
 21 22  1  0
 21 19  1  0
 23 21  2  0
M  END
$$$$
