AYA.pdb
     RDKit          3D

 23 23  0  0  1  0  0  0  0  0999 V2000
   10.5149  -19.0080   21.1813 C   0  0  0  0  0  0  0  0  0  0  0  0
   10.2651  -17.6241   20.6291 C   0  0  2  0  0  0  0  0  0  0  0  0
   11.3608  -17.2679   19.7805 N   0  0  0  0  0  0  0  0  0  0  0  0
   10.0904  -16.6140   21.6790 C   0  0  0  0  0  0  0  0  0  0  0  0
   11.1303  -15.9613   22.0195 O   0  0  0  0  0  0  0  0  0  0  0  0
    5.9921  -11.0809   27.4991 O   0  0  0  0  0  0  0  0  0  0  0  0
    6.3524  -11.9683   26.4760 C   0  0  0  0  0  0  0  0  0  0  0  0
    7.1983  -11.5915   25.4560 C   0  0  0  0  0  0  0  0  0  0  0  0
    7.5482  -12.4712   24.4524 C   0  0  0  0  0  0  0  0  0  0  0  0
    7.0838  -13.7658   24.4015 C   0  0  0  0  0  0  0  0  0  0  0  0
    7.4371  -14.7315   23.3497 C   0  0  0  0  0  0  0  0  0  0  0  0
    8.8157  -15.2736   23.3452 C   0  0  2  0  0  0  0  0  0  0  0  0
    8.8502  -16.3406   22.3129 N   0  0  0  0  0  0  0  0  0  0  0  0
    9.1982  -15.9506   24.5945 C   0  0  0  0  0  0  0  0  0  0  0  0
    9.3480  -15.2813   25.6791 O   0  0  0  0  0  0  0  0  0  0  0  0
    6.2234  -14.1361   25.4461 C   0  0  0  0  0  0  0  0  0  0  0  0
    5.8726  -13.2598   26.4491 C   0  0  0  0  0  0  0  0  0  0  0  0
    8.9833  -19.0956   26.4035 C   0  0  0  0  0  0  0  0  0  0  0  0
    9.8338  -17.8828   26.0275 C   0  0  2  0  0  0  0  0  0  0  0  0
    9.4285  -17.3530   24.7451 N   0  0  0  0  0  0  0  0  0  0  0  0
   11.2309  -18.3597   26.0173 C   0  0  0  0  0  0  0  0  0  0  0  0
   11.9451  -18.7620   27.1330 O   0  0  0  0  0  0  0  0  0  0  0  0
   11.8855  -18.4285   24.9223 O   0  0  0  0  0  0  0  0  0  0  0  0
  2  1  1  1
  2  4  1  0
  2  3  1  0
  4  5  2  0
  7  6  1  0
  7 17  2  0
  8  7  1  0
  9  8  2  0
  9 10  1  0
 10 16  2  0
 11 10  1  0
 12 11  1  1
 13 12  1  0
 13  4  1  0
 14 12  1  0
 15 14  2  0
 16 17  1  0
 19 18  1  6
 19 20  1  0
 20 14  1  0
 21 22  1  0
 21 19  1  0
 23 21  2  0
M  END
$$$$
