AYA.pdb
     RDKit          3D

 23 23  0  0  1  0  0  0  0  0999 V2000
    9.0462  -18.8945   19.4282 C   0  0  0  0  0  0  0  0  0  0  0  0
    9.0633  -17.3965   19.2328 C   0  0  2  0  0  0  0  0  0  0  0  0
   10.1452  -17.0640   18.3572 N   0  0  0  0  0  0  0  0  0  0  0  0
    9.1894  -16.6581   20.4943 C   0  0  0  0  0  0  0  0  0  0  0  0
   10.3739  -16.4385   20.9094 O   0  0  0  0  0  0  0  0  0  0  0  0
    6.8204  -11.7475   27.6756 O   0  0  0  0  0  0  0  0  0  0  0  0
    6.8936  -12.4446   26.4621 C   0  0  0  0  0  0  0  0  0  0  0  0
    7.4466  -11.8782   25.3345 C   0  0  0  0  0  0  0  0  0  0  0  0
    7.5149  -12.5712   24.1434 C   0  0  0  0  0  0  0  0  0  0  0  0
    7.0428  -13.8562   24.0015 C   0  0  0  0  0  0  0  0  0  0  0  0
    7.1011  -14.6261   22.7494 C   0  0  0  0  0  0  0  0  0  0  0  0
    8.3573  -15.3481   22.4410 C   0  0  2  0  0  0  0  0  0  0  0  0
    8.0822  -16.1915   21.2500 N   0  0  0  0  0  0  0  0  0  0  0  0
    8.7739  -16.2995   23.4836 C   0  0  0  0  0  0  0  0  0  0  0  0
    8.1245  -17.3909   23.6672 O   0  0  0  0  0  0  0  0  0  0  0  0
    6.4824  -14.4207   25.1572 C   0  0  0  0  0  0  0  0  0  0  0  0
    6.4130  -13.7309   26.3473 C   0  0  0  0  0  0  0  0  0  0  0  0
   11.6910  -17.6621   25.0063 C   0  0  0  0  0  0  0  0  0  0  0  0
   10.2564  -17.2037   25.2655 C   0  0  2  0  0  0  0  0  0  0  0  0
    9.8901  -16.1371   24.3613 N   0  0  0  0  0  0  0  0  0  0  0  0
   10.2211  -16.7743   26.6776 C   0  0  0  0  0  0  0  0  0  0  0  0
   10.4022  -17.6059   27.7695 O   0  0  0  0  0  0  0  0  0  0  0  0
   10.0103  -15.5508   26.9790 O   0  0  0  0  0  0  0  0  0  0  0  0
  2  1  1  1
  2  4  1  0
  2  3  1  0
  4  5  2  0
  7  6  1  0
  7 17  2  0
  8  7  1  0
  9  8  2  0
  9 10  1  0
 10 16  2  0
 11 10  1  0
 12 11  1  1
 13 12  1  0
 13  4  1  0
 14 12  1  0
 15 14  2  0
 16 17  1  0
 19 18  1  6
 19 20  1  0
 20 14  1  0
 21 22  1  0
 21 19  1  0
 23 21  2  0
M  END
$$$$
