DTQ.pdb
     RDKit          3D

 25 24  0  0  1  0  0  0  0  0999 V2000
   23.2717  -18.1088  -19.1828 N   0  0  0  0  0  0  0  0  0  0  0  0
   23.7094  -17.5672  -17.8603 C   0  0  1  0  0  0  0  0  0  0  0  0
   22.4890  -17.2950  -17.0429 C   0  0  0  0  0  0  0  0  0  0  0  0
   21.7038  -16.1920  -17.6102 C   0  0  0  0  0  0  0  0  0  0  0  0
   22.1936  -15.5521  -18.5991 O   0  0  0  0  0  0  0  0  0  0  0  0
   24.5005  -18.6407  -17.2026 C   0  0  0  0  0  0  0  0  0  0  0  0
   24.2546  -19.8420  -17.4350 O   0  0  0  0  0  0  0  0  0  0  0  0
   20.4758  -15.7818  -17.1641 O   0  0  0  0  0  0  0  0  0  0  0  0
   27.9386  -19.2854  -17.4786 C   0  0  0  0  0  0  0  0  0  0  0  0
   27.7681  -19.1128  -15.9904 C   0  0  1  0  0  0  0  0  0  0  0  0
   28.1573  -17.8547  -15.5378 O   0  0  0  0  0  0  0  0  0  0  0  0
   26.3002  -19.3182  -15.6008 C   0  0  2  0  0  0  0  0  0  0  0  0
   25.5425  -18.2872  -16.3042 N   0  0  0  0  0  0  0  0  0  0  0  0
   26.1539  -19.2252  -14.1475 C   0  0  0  0  0  0  0  0  0  0  0  0
   25.7373  -18.1776  -13.6166 O   0  0  0  0  0  0  0  0  0  0  0  0
   22.0018  -20.3343  -11.3181 N   0  0  0  0  0  0  0  0  0  0  0  0
   22.7874  -20.1960  -10.1281 C   0  0  0  0  0  0  0  0  0  0  0  0
   22.1733  -20.0968   -9.0566 O   0  0  0  0  0  0  0  0  0  0  0  0
   24.2494  -20.1840  -10.3097 C   0  0  0  0  0  0  0  0  0  0  0  0
   24.6791  -20.1776  -11.7318 C   0  0  0  0  0  0  0  0  0  0  0  0
   26.1747  -20.3144  -11.8960 C   0  0  2  0  0  0  0  0  0  0  0  0
   26.4928  -20.3439  -13.3401 N   0  0  0  0  0  0  0  0  0  0  0  0
   26.6899  -21.5438  -11.2763 C   0  0  0  0  0  0  0  0  0  0  0  0
   27.1615  -21.6534   -9.9964 O   0  0  0  0  0  0  0  0  0  0  0  0
   26.7146  -22.6245  -11.9666 O   0  0  0  0  0  0  0  0  0  0  0  0
  2  3  1  0
  2  1  1  6
  3  4  1  0
  4  8  1  0
  4  5  2  0
  6  2  1  0
  7  6  2  0
 10  9  1  6
 10 12  1  0
 11 10  1  0
 12 13  1  6
 13  6  1  0
 14 12  1  0
 14 15  2  0
 16 17  1  0
 17 18  2  0
 19 17  1  0
 19 20  1  0
 21 20  1  6
 21 22  1  0
 22 14  1  0
 23 21  1  0
 24 23  1  0
 25 23  2  0
M  END
$$$$
