DTQ.pdb
     RDKit          3D

 25 24  0  0  1  0  0  0  0  0999 V2000
   19.7222  -13.6214  -15.6263 N   0  0  0  0  0  0  0  0  0  0  0  0
   19.0371  -12.3973  -16.1424 C   0  0  1  0  0  0  0  0  0  0  0  0
   17.6027  -12.4588  -15.7295 C   0  0  0  0  0  0  0  0  0  0  0  0
   16.9058  -13.5687  -16.3909 C   0  0  0  0  0  0  0  0  0  0  0  0
   17.5832  -14.3339  -17.1544 O   0  0  0  0  0  0  0  0  0  0  0  0
   19.6818  -11.2362  -15.4737 C   0  0  0  0  0  0  0  0  0  0  0  0
   19.5247  -11.0415  -14.2511 O   0  0  0  0  0  0  0  0  0  0  0  0
   15.5737  -13.8580  -16.2609 O   0  0  0  0  0  0  0  0  0  0  0  0
   23.2616  -10.3872  -15.3485 C   0  0  0  0  0  0  0  0  0  0  0  0
   22.5800   -9.2170  -16.0114 C   0  0  1  0  0  0  0  0  0  0  0  0
   22.6520   -9.2581  -17.4015 O   0  0  0  0  0  0  0  0  0  0  0  0
   21.0990   -9.1785  -15.6193 C   0  0  2  0  0  0  0  0  0  0  0  0
   20.4812  -10.3467  -16.2402 N   0  0  0  0  0  0  0  0  0  0  0  0
   20.4977   -7.9226  -16.0705 C   0  0  0  0  0  0  0  0  0  0  0  0
   19.5697   -7.9253  -16.9022 O   0  0  0  0  0  0  0  0  0  0  0  0
   16.3008   -5.9342  -16.0497 N   0  0  0  0  0  0  0  0  0  0  0  0
   16.6728   -4.5580  -15.9082 C   0  0  0  0  0  0  0  0  0  0  0  0
   15.7970   -3.7118  -16.1363 O   0  0  0  0  0  0  0  0  0  0  0  0
   18.0662   -4.2972  -15.5067 C   0  0  0  0  0  0  0  0  0  0  0  0
   18.8672   -5.5276  -15.2798 C   0  0  0  0  0  0  0  0  0  0  0  0
   20.2575   -5.4415  -15.8647 C   0  0  2  0  0  0  0  0  0  0  0  0
   20.9823   -6.6922  -15.5516 N   0  0  0  0  0  0  0  0  0  0  0  0
   21.0188   -4.3083  -15.3195 C   0  0  0  0  0  0  0  0  0  0  0  0
   21.7659   -4.3285  -14.1732 O   0  0  0  0  0  0  0  0  0  0  0  0
   21.0025   -3.1896  -15.9464 O   0  0  0  0  0  0  0  0  0  0  0  0
  2  3  1  0
  2  1  1  1
  3  4  1  0
  4  8  1  0
  4  5  2  0
  6  2  1  0
  7  6  2  0
 10  9  1  1
 10 12  1  0
 11 10  1  0
 12 13  1  6
 13  6  1  0
 14 12  1  0
 14 15  2  0
 16 17  1  0
 17 18  2  0
 19 17  1  0
 19 20  1  0
 21 20  1  1
 21 22  1  0
 22 14  1  0
 23 21  1  0
 24 23  1  0
 25 23  2  0
M  END
$$$$
