DTQ.pdb
     RDKit          3D

 25 24  0  0  1  0  0  0  0  0999 V2000
   29.2875  -20.4282  -17.8843 N   0  0  0  0  0  0  0  0  0  0  0  0
   28.0573  -21.2178  -17.5728 C   0  0  1  0  0  0  0  0  0  0  0  0
   28.4238  -22.2796  -16.5878 C   0  0  0  0  0  0  0  0  0  0  0  0
   29.3132  -23.2801  -17.1904 C   0  0  0  0  0  0  0  0  0  0  0  0
   29.6231  -23.1456  -18.4205 O   0  0  0  0  0  0  0  0  0  0  0  0
   27.0995  -20.2772  -16.9335 C   0  0  0  0  0  0  0  0  0  0  0  0
   27.5137  -19.3022  -16.2737 O   0  0  0  0  0  0  0  0  0  0  0  0
   29.8451  -24.3616  -16.5404 O   0  0  0  0  0  0  0  0  0  0  0  0
   24.4707  -18.2013  -18.3357 C   0  0  0  0  0  0  0  0  0  0  0  0
   23.7586  -19.1366  -17.3914 C   0  0  1  0  0  0  0  0  0  0  0  0
   23.1756  -20.2248  -18.0358 O   0  0  0  0  0  0  0  0  0  0  0  0
   24.7406  -19.6803  -16.3479 C   0  0  2  0  0  0  0  0  0  0  0  0
   25.7038  -20.4976  -17.0799 N   0  0  0  0  0  0  0  0  0  0  0  0
   24.0147  -20.4463  -15.3337 C   0  0  0  0  0  0  0  0  0  0  0  0
   24.3391  -21.6206  -15.0716 O   0  0  0  0  0  0  0  0  0  0  0  0
   25.8251  -21.3910  -11.1056 N   0  0  0  0  0  0  0  0  0  0  0  0
   24.6318  -21.2316  -10.3291 C   0  0  0  0  0  0  0  0  0  0  0  0
   24.6378  -21.7054   -9.1842 O   0  0  0  0  0  0  0  0  0  0  0  0
   23.5194  -20.5193  -10.9816 C   0  0  0  0  0  0  0  0  0  0  0  0
   23.7896  -20.1471  -12.3942 C   0  0  0  0  0  0  0  0  0  0  0  0
   22.5824  -20.3103  -13.2877 C   0  0  2  0  0  0  0  0  0  0  0  0
   22.9301  -19.8391  -14.6459 N   0  0  0  0  0  0  0  0  0  0  0  0
   21.4274  -19.5400  -12.8047 C   0  0  0  0  0  0  0  0  0  0  0  0
   21.0284  -18.3202  -13.2796 O   0  0  0  0  0  0  0  0  0  0  0  0
   20.7107  -20.0229  -11.8569 O   0  0  0  0  0  0  0  0  0  0  0  0
  2  3  1  0
  2  1  1  1
  3  4  1  0
  4  8  1  0
  4  5  2  0
  6  2  1  0
  7  6  2  0
 10  9  1  6
 10 12  1  0
 11 10  1  0
 12 13  1  6
 13  6  1  0
 14 12  1  0
 14 15  2  0
 16 17  1  0
 17 18  2  0
 19 17  1  0
 19 20  1  0
 21 20  1  1
 21 22  1  0
 22 14  1  0
 23 21  1  0
 24 23  1  0
 25 23  2  0
M  END
$$$$
