DTQ.pdb
     RDKit          3D

 25 24  0  0  1  0  0  0  0  0999 V2000
   17.4039  -11.2620  -18.1422 N   0  0  0  0  0  0  0  0  0  0  0  0
   18.3768  -10.1567  -18.3986 C   0  0  1  0  0  0  0  0  0  0  0  0
   17.6287   -9.0077  -18.9919 C   0  0  0  0  0  0  0  0  0  0  0  0
   17.2456   -9.2832  -20.3820 C   0  0  0  0  0  0  0  0  0  0  0  0
   18.1736   -9.5102  -21.2274 O   0  0  0  0  0  0  0  0  0  0  0  0
   18.9148   -9.7489  -17.0738 C   0  0  0  0  0  0  0  0  0  0  0  0
   18.1656   -9.6857  -16.0777 O   0  0  0  0  0  0  0  0  0  0  0  0
   15.9624   -9.3162  -20.8589 O   0  0  0  0  0  0  0  0  0  0  0  0
   22.7842   -9.3392  -14.1696 C   0  0  0  0  0  0  0  0  0  0  0  0
   22.0218   -9.8773  -15.3540 C   0  0  1  0  0  0  0  0  0  0  0  0
   21.5227  -11.1605  -15.1458 O   0  0  0  0  0  0  0  0  0  0  0  0
   20.8376   -8.9604  -15.6792 C   0  0  2  0  0  0  0  0  0  0  0  0
   20.2936   -9.4305  -16.9500 N   0  0  0  0  0  0  0  0  0  0  0  0
   21.2890   -7.5697  -15.7453 C   0  0  0  0  0  0  0  0  0  0  0  0
   22.1055   -7.2073  -16.6141 O   0  0  0  0  0  0  0  0  0  0  0  0
   17.5102   -4.2350  -15.0346 N   0  0  0  0  0  0  0  0  0  0  0  0
   18.1566   -4.2821  -16.3122 C   0  0  0  0  0  0  0  0  0  0  0  0
   17.4257   -4.3339  -17.3113 O   0  0  0  0  0  0  0  0  0  0  0  0
   19.6298   -4.2665  -16.2985 C   0  0  0  0  0  0  0  0  0  0  0  0
   20.2189   -4.2705  -14.9347 C   0  0  0  0  0  0  0  0  0  0  0  0
   21.3497   -5.2611  -14.7844 C   0  0  2  0  0  0  0  0  0  0  0  0
   20.7880   -6.6292  -14.8058 N   0  0  0  0  0  0  0  0  0  0  0  0
   22.0856   -5.0751  -13.5257 C   0  0  0  0  0  0  0  0  0  0  0  0
   22.0938   -5.9474  -12.4714 O   0  0  0  0  0  0  0  0  0  0  0  0
   22.7899   -4.0148  -13.3684 O   0  0  0  0  0  0  0  0  0  0  0  0
  2  3  1  0
  2  1  1  1
  3  4  1  0
  4  8  1  0
  4  5  2  0
  6  2  1  0
  7  6  2  0
 10  9  1  1
 10 12  1  0
 11 10  1  0
 12 13  1  6
 13  6  1  0
 14 12  1  0
 14 15  2  0
 16 17  1  0
 17 18  2  0
 19 17  1  0
 19 20  1  0
 21 20  1  1
 21 22  1  0
 22 14  1  0
 23 21  1  0
 24 23  1  0
 25 23  2  0
M  END
$$$$
