DTQ.pdb
     RDKit          3D

 25 24  0  0  1  0  0  0  0  0999 V2000
   16.8778  -11.6547  -15.5109 N   0  0  0  0  0  0  0  0  0  0  0  0
   18.2495  -12.0570  -15.9475 C   0  0  1  0  0  0  0  0  0  0  0  0
   18.1312  -13.3065  -16.7579 C   0  0  0  0  0  0  0  0  0  0  0  0
   17.8601  -14.4701  -15.9051 C   0  0  0  0  0  0  0  0  0  0  0  0
   16.7861  -14.4735  -15.2167 O   0  0  0  0  0  0  0  0  0  0  0  0
   18.7555  -10.9635  -16.8188 C   0  0  0  0  0  0  0  0  0  0  0  0
   19.8768  -11.0514  -17.3594 O   0  0  0  0  0  0  0  0  0  0  0  0
   18.6706  -15.5667  -15.7793 O   0  0  0  0  0  0  0  0  0  0  0  0
   17.1187   -9.5106  -19.7967 C   0  0  0  0  0  0  0  0  0  0  0  0
   17.3173   -8.3679  -18.8332 C   0  0  1  0  0  0  0  0  0  0  0  0
   16.1738   -8.0683  -18.0972 O   0  0  0  0  0  0  0  0  0  0  0  0
   18.4384   -8.7021  -17.8431 C   0  0  2  0  0  0  0  0  0  0  0  0
   17.9495   -9.8133  -17.0320 N   0  0  0  0  0  0  0  0  0  0  0  0
   18.7593   -7.5222  -17.0387 C   0  0  0  0  0  0  0  0  0  0  0  0
   18.2509   -7.3639  -15.9121 O   0  0  0  0  0  0  0  0  0  0  0  0
   22.3131   -6.9822  -13.4184 N   0  0  0  0  0  0  0  0  0  0  0  0
   22.1995   -5.5552  -13.4727 C   0  0  0  0  0  0  0  0  0  0  0  0
   22.7630   -4.9111  -12.5767 O   0  0  0  0  0  0  0  0  0  0  0  0
   21.4177   -5.0054  -14.5940 C   0  0  0  0  0  0  0  0  0  0  0  0
   20.8877   -6.0381  -15.5213 C   0  0  0  0  0  0  0  0  0  0  0  0
   20.1126   -5.4500  -16.6770 C   0  0  2  0  0  0  0  0  0  0  0  0
   19.6596   -6.5515  -17.5539 N   0  0  0  0  0  0  0  0  0  0  0  0
   20.9258   -4.5197  -17.4733 C   0  0  0  0  0  0  0  0  0  0  0  0
   21.1869   -3.2152  -17.1531 O   0  0  0  0  0  0  0  0  0  0  0  0
   21.4501   -4.9334  -18.5683 O   0  0  0  0  0  0  0  0  0  0  0  0
  2  3  1  0
  2  1  1  6
  3  4  1  0
  4  8  1  0
  4  5  2  0
  6  2  1  0
  7  6  2  0
 10  9  1  6
 10 12  1  0
 11 10  1  0
 12 13  1  1
 13  6  1  0
 14 12  1  0
 14 15  2  0
 16 17  1  0
 17 18  2  0
 19 17  1  0
 19 20  1  0
 21 20  1  1
 21 22  1  0
 22 14  1  0
 23 21  1  0
 24 23  1  0
 25 23  2  0
M  END
$$$$
