DTQ.pdb
     RDKit          3D

 25 24  0  0  1  0  0  0  0  0999 V2000
   20.9122  -10.5409  -16.8318 N   0  0  0  0  0  0  0  0  0  0  0  0
   19.5005  -10.0501  -16.8451 C   0  0  1  0  0  0  0  0  0  0  0  0
   18.6177  -11.1623  -16.3811 C   0  0  0  0  0  0  0  0  0  0  0  0
   18.5504  -12.2389  -17.3768 C   0  0  0  0  0  0  0  0  0  0  0  0
   18.5408  -11.9163  -18.6110 O   0  0  0  0  0  0  0  0  0  0  0  0
   19.4290   -8.9361  -15.8628 C   0  0  0  0  0  0  0  0  0  0  0  0
   18.3501   -8.3455  -15.6519 O   0  0  0  0  0  0  0  0  0  0  0  0
   18.4937  -13.5775  -17.0941 O   0  0  0  0  0  0  0  0  0  0  0  0
   20.1522   -8.8925  -12.2958 C   0  0  0  0  0  0  0  0  0  0  0  0
   21.1258   -7.9204  -12.9126 C   0  0  1  0  0  0  0  0  0  0  0  0
   22.3804   -8.4776  -13.1468 O   0  0  0  0  0  0  0  0  0  0  0  0
   20.5827   -7.4081  -14.2510 C   0  0  2  0  0  0  0  0  0  0  0  0
   20.6029   -8.5478  -15.1634 N   0  0  0  0  0  0  0  0  0  0  0  0
   21.4054   -6.2957  -14.7284 C   0  0  0  0  0  0  0  0  0  0  0  0
   22.2221   -6.4614  -15.6549 O   0  0  0  0  0  0  0  0  0  0  0  0
   21.3554   -3.0840  -18.6931 N   0  0  0  0  0  0  0  0  0  0  0  0
   20.3764   -2.5798  -17.7769 C   0  0  0  0  0  0  0  0  0  0  0  0
   19.4176   -1.9622  -18.2611 O   0  0  0  0  0  0  0  0  0  0  0  0
   20.6193   -2.8500  -16.3490 C   0  0  0  0  0  0  0  0  0  0  0  0
   21.8108   -3.6992  -16.0917 C   0  0  0  0  0  0  0  0  0  0  0  0
   22.0896   -3.8923  -14.6194 C   0  0  2  0  0  0  0  0  0  0  0  0
   21.2669   -5.0174  -14.1244 N   0  0  0  0  0  0  0  0  0  0  0  0
   21.7678   -2.6932  -13.8326 C   0  0  0  0  0  0  0  0  0  0  0  0
   22.5128   -1.5462  -13.7878 O   0  0  0  0  0  0  0  0  0  0  0  0
   20.7051   -2.6878  -13.1144 O   0  0  0  0  0  0  0  0  0  0  0  0
  2  3  1  0
  2  1  1  1
  3  4  1  0
  4  8  1  0
  4  5  2  0
  6  2  1  0
  7  6  2  0
 10  9  1  6
 10 12  1  0
 11 10  1  0
 12 13  1  6
 13  6  1  0
 14 12  1  0
 14 15  2  0
 16 17  1  0
 17 18  2  0
 19 17  1  0
 19 20  1  0
 21 20  1  6
 21 22  1  0
 22 14  1  0
 23 21  1  0
 24 23  1  0
 25 23  2  0
M  END
$$$$
