DTQ.pdb
     RDKit          3D

 25 24  0  0  1  0  0  0  0  0999 V2000
   26.9012  -21.9335  -17.7647 N   0  0  0  0  0  0  0  0  0  0  0  0
   27.1378  -22.1413  -16.3036 C   0  0  1  0  0  0  0  0  0  0  0  0
   28.5855  -21.8964  -16.0280 C   0  0  0  0  0  0  0  0  0  0  0  0
   29.4341  -22.8475  -16.7561 C   0  0  0  0  0  0  0  0  0  0  0  0
   28.8645  -23.7167  -17.4960 O   0  0  0  0  0  0  0  0  0  0  0  0
   26.3313  -21.1143  -15.5926 C   0  0  0  0  0  0  0  0  0  0  0  0
   26.3494  -21.0452  -14.3467 O   0  0  0  0  0  0  0  0  0  0  0  0
   30.8021  -22.8865  -16.7090 O   0  0  0  0  0  0  0  0  0  0  0  0
   26.4391  -17.5781  -15.4410 C   0  0  0  0  0  0  0  0  0  0  0  0
   25.0982  -17.8715  -16.0651 C   0  0  1  0  0  0  0  0  0  0  0  0
   25.1143  -17.7972  -17.4556 O   0  0  0  0  0  0  0  0  0  0  0  0
   24.6321  -19.2786  -15.6758 C   0  0  2  0  0  0  0  0  0  0  0  0
   25.5368  -20.2086  -16.3453 N   0  0  0  0  0  0  0  0  0  0  0  0
   23.2376  -19.4693  -16.0771 C   0  0  0  0  0  0  0  0  0  0  0  0
   22.9294  -20.3473  -16.9059 O   0  0  0  0  0  0  0  0  0  0  0  0
   19.4196  -22.6693  -14.5890 N   0  0  0  0  0  0  0  0  0  0  0  0
   19.6333  -21.7135  -13.5436 C   0  0  0  0  0  0  0  0  0  0  0  0
   19.3700  -22.0748  -12.3880 O   0  0  0  0  0  0  0  0  0  0  0  0
   20.1438  -20.3955  -13.9594 C   0  0  0  0  0  0  0  0  0  0  0  0
   20.4612  -20.3029  -15.4078 C   0  0  0  0  0  0  0  0  0  0  0  0
   20.8130  -18.9002  -15.8452 C   0  0  2  0  0  0  0  0  0  0  0  0
   22.2307  -18.6411  -15.5128 N   0  0  0  0  0  0  0  0  0  0  0  0
   19.9816  -17.8873  -15.1793 C   0  0  0  0  0  0  0  0  0  0  0  0
   20.4208  -16.9780  -14.2558 O   0  0  0  0  0  0  0  0  0  0  0  0
   18.7327  -17.8230  -15.4645 O   0  0  0  0  0  0  0  0  0  0  0  0
  2  3  1  0
  2  1  1  6
  3  4  1  0
  4  8  1  0
  4  5  2  0
  6  2  1  0
  7  6  2  0
 10  9  1  6
 10 12  1  0
 11 10  1  0
 12 13  1  6
 13  6  1  0
 14 12  1  0
 14 15  2  0
 16 17  1  0
 17 18  2  0
 19 17  1  0
 19 20  1  0
 21 20  1  1
 21 22  1  0
 22 14  1  0
 23 21  1  0
 24 23  1  0
 25 23  2  0
M  END
$$$$
