DTQ.pdb
     RDKit          3D

 25 24  0  0  1  0  0  0  0  0999 V2000
   16.3656  -14.5098  -15.5497 N   0  0  0  0  0  0  0  0  0  0  0  0
   17.7766  -14.7165  -15.1019 C   0  0  1  0  0  0  0  0  0  0  0  0
   18.2753  -15.9869  -15.7095 C   0  0  0  0  0  0  0  0  0  0  0  0
   17.8826  -17.1510  -14.9061 C   0  0  0  0  0  0  0  0  0  0  0  0
   16.9695  -16.9954  -14.0289 O   0  0  0  0  0  0  0  0  0  0  0  0
   18.5656  -13.5797  -15.6460 C   0  0  0  0  0  0  0  0  0  0  0  0
   19.8103  -13.6444  -15.7078 O   0  0  0  0  0  0  0  0  0  0  0  0
   18.4188  -18.4063  -15.0146 O   0  0  0  0  0  0  0  0  0  0  0  0
   18.0962  -11.8647  -18.9573 C   0  0  0  0  0  0  0  0  0  0  0  0
   17.9294  -10.8203  -17.8826 C   0  0  1  0  0  0  0  0  0  0  0  0
   16.5966  -10.5679  -17.5678 O   0  0  0  0  0  0  0  0  0  0  0  0
   18.6382  -11.2667  -16.5993 C   0  0  2  0  0  0  0  0  0  0  0  0
   17.8890  -12.4148  -16.0968 N   0  0  0  0  0  0  0  0  0  0  0  0
   18.6748  -10.1610  -15.6411 C   0  0  0  0  0  0  0  0  0  0  0  0
   17.9298  -10.1608  -14.6422 O   0  0  0  0  0  0  0  0  0  0  0  0
   23.3717   -6.0457  -15.0350 N   0  0  0  0  0  0  0  0  0  0  0  0
   22.4810   -5.5846  -14.0121 C   0  0  0  0  0  0  0  0  0  0  0  0
   22.8908   -4.6756  -13.2767 O   0  0  0  0  0  0  0  0  0  0  0  0
   21.1672   -6.2479  -13.9440 C   0  0  0  0  0  0  0  0  0  0  0  0
   20.9811   -7.3197  -14.9557 C   0  0  0  0  0  0  0  0  0  0  0  0
   19.6234   -7.9772  -14.8744 C   0  0  2  0  0  0  0  0  0  0  0  0
   19.5705   -9.0799  -15.8587 N   0  0  0  0  0  0  0  0  0  0  0  0
   18.5332   -7.0351  -15.1654 C   0  0  0  0  0  0  0  0  0  0  0  0
   17.9543   -6.1837  -14.2639 O   0  0  0  0  0  0  0  0  0  0  0  0
   18.0597   -6.9811  -16.3561 O   0  0  0  0  0  0  0  0  0  0  0  0
  2  3  1  0
  2  1  1  6
  3  4  1  0
  4  8  1  0
  4  5  2  0
  6  2  1  0
  7  6  2  0
 10  9  1  6
 10 12  1  0
 11 10  1  0
 12 13  1  1
 13  6  1  0
 14 12  1  0
 14 15  2  0
 16 17  1  0
 17 18  2  0
 19 17  1  0
 19 20  1  0
 21 20  1  6
 21 22  1  0
 22 14  1  0
 23 21  1  0
 24 23  1  0
 25 23  2  0
M  END
$$$$
