DTQ.pdb
     RDKit          3D

 25 24  0  0  1  0  0  0  0  0999 V2000
   28.2962  -12.2193  -19.7193 N   0  0  0  0  0  0  0  0  0  0  0  0
   28.3067  -10.9652  -18.9061 C   0  0  1  0  0  0  0  0  0  0  0  0
   28.3275   -9.8031  -19.8447 C   0  0  0  0  0  0  0  0  0  0  0  0
   29.5895   -9.7457  -20.5924 C   0  0  0  0  0  0  0  0  0  0  0  0
   30.4519  -10.6631  -20.3873 O   0  0  0  0  0  0  0  0  0  0  0  0
   27.0317  -10.9444  -18.1414 C   0  0  0  0  0  0  0  0  0  0  0  0
   26.0322  -11.5641  -18.5589 O   0  0  0  0  0  0  0  0  0  0  0  0
   29.9288   -8.7797  -21.5017 O   0  0  0  0  0  0  0  0  0  0  0  0
   24.8565  -10.0507  -13.8385 C   0  0  0  0  0  0  0  0  0  0  0  0
   26.0925  -10.1530  -14.6960 C   0  0  1  0  0  0  0  0  0  0  0  0
   26.8251  -11.3141  -14.4631 O   0  0  0  0  0  0  0  0  0  0  0  0
   25.7082  -10.1303  -16.1794 C   0  0  2  0  0  0  0  0  0  0  0  0
   26.9597  -10.2107  -16.9272 N   0  0  0  0  0  0  0  0  0  0  0  0
   24.9555   -8.9115  -16.4796 C   0  0  0  0  0  0  0  0  0  0  0  0
   25.5482   -7.8470  -16.7415 O   0  0  0  0  0  0  0  0  0  0  0  0
   20.2491   -8.4163  -20.1092 N   0  0  0  0  0  0  0  0  0  0  0  0
   20.2149   -7.0892  -19.5708 C   0  0  0  0  0  0  0  0  0  0  0  0
   19.4676   -6.2740  -20.1295 O   0  0  0  0  0  0  0  0  0  0  0  0
   21.0798   -6.8360  -18.4052 C   0  0  0  0  0  0  0  0  0  0  0  0
   21.8997   -8.0063  -17.9988 C   0  0  0  0  0  0  0  0  0  0  0  0
   22.7784   -7.7232  -16.8029 C   0  0  2  0  0  0  0  0  0  0  0  0
   23.5354   -8.9493  -16.4695 N   0  0  0  0  0  0  0  0  0  0  0  0
   21.9977   -7.3183  -15.6251 C   0  0  0  0  0  0  0  0  0  0  0  0
   21.6114   -6.0400  -15.3265 O   0  0  0  0  0  0  0  0  0  0  0  0
   21.6313   -8.2148  -14.7842 O   0  0  0  0  0  0  0  0  0  0  0  0
  2  3  1  0
  2  1  1  6
  3  4  1  0
  4  8  1  0
  4  5  2  0
  6  2  1  0
  7  6  2  0
 10  9  1  1
 10 12  1  0
 11 10  1  0
 12 13  1  6
 13  6  1  0
 14 12  1  0
 14 15  2  0
 16 17  1  0
 17 18  2  0
 19 17  1  0
 19 20  1  0
 21 20  1  6
 21 22  1  0
 22 14  1  0
 23 21  1  0
 24 23  1  0
 25 23  2  0
M  END
$$$$
