DTQ.pdb
     RDKit          3D

 25 24  0  0  1  0  0  0  0  0999 V2000
   18.4279  -11.6895  -15.6528 N   0  0  0  0  0  0  0  0  0  0  0  0
   17.6417  -10.4510  -15.3664 C   0  0  1  0  0  0  0  0  0  0  0  0
   16.1904  -10.8041  -15.4001 C   0  0  0  0  0  0  0  0  0  0  0  0
   15.7639  -11.1725  -16.7556 C   0  0  0  0  0  0  0  0  0  0  0  0
   16.2409  -10.5108  -17.7364 O   0  0  0  0  0  0  0  0  0  0  0  0
   18.0029  -10.0283  -13.9874 C   0  0  0  0  0  0  0  0  0  0  0  0
   18.1986  -10.8782  -13.0948 O   0  0  0  0  0  0  0  0  0  0  0  0
   14.8851  -12.1761  -17.0647 O   0  0  0  0  0  0  0  0  0  0  0  0
   20.8510   -8.1505  -12.8988 C   0  0  0  0  0  0  0  0  0  0  0  0
   19.6781   -7.3216  -12.4397 C   0  0  1  0  0  0  0  0  0  0  0  0
   19.3894   -6.2616  -13.2955 O   0  0  0  0  0  0  0  0  0  0  0  0
   18.4236   -8.1956  -12.3356 C   0  0  2  0  0  0  0  0  0  0  0  0
   18.1240   -8.6440  -13.6924 N   0  0  0  0  0  0  0  0  0  0  0  0
   17.3275   -7.4242  -11.7475 C   0  0  0  0  0  0  0  0  0  0  0  0
   16.5487   -6.7738  -12.4708 O   0  0  0  0  0  0  0  0  0  0  0  0
   13.0693   -8.9616   -8.0509 N   0  0  0  0  0  0  0  0  0  0  0  0
   12.9195   -7.5492   -7.8637 C   0  0  0  0  0  0  0  0  0  0  0  0
   11.9327   -7.1685   -7.2183 O   0  0  0  0  0  0  0  0  0  0  0  0
   13.9604   -6.6977   -8.4653 C   0  0  0  0  0  0  0  0  0  0  0  0
   15.0921   -7.4575   -9.0560 C   0  0  0  0  0  0  0  0  0  0  0  0
   16.1048   -6.5692   -9.7400 C   0  0  2  0  0  0  0  0  0  0  0  0
   17.1563   -7.4208  -10.3372 N   0  0  0  0  0  0  0  0  0  0  0  0
   16.7375   -5.6280   -8.8047 C   0  0  0  0  0  0  0  0  0  0  0  0
   16.2050   -4.4374   -8.3908 O   0  0  0  0  0  0  0  0  0  0  0  0
   17.8879   -5.9161   -8.3164 O   0  0  0  0  0  0  0  0  0  0  0  0
  2  3  1  0
  2  1  1  1
  3  4  1  0
  4  8  1  0
  4  5  2  0
  6  2  1  0
  7  6  2  0
 10  9  1  6
 10 12  1  0
 11 10  1  0
 12 13  1  6
 13  6  1  0
 14 12  1  0
 14 15  2  0
 16 17  1  0
 17 18  2  0
 19 17  1  0
 19 20  1  0
 21 20  1  1
 21 22  1  0
 22 14  1  0
 23 21  1  0
 24 23  1  0
 25 23  2  0
M  END
$$$$
