ADD.pdb
     RDKit          3D

 22 21  0  0  1  0  0  0  0  0999 V2000
   22.6332  -10.1627  -20.3949 C   0  0  0  0  0  0  0  0  0  0  0  0
   22.9193  -10.6000  -18.9666 C   0  0  2  0  0  0  0  0  0  0  0  0
   23.0301  -12.0421  -18.9080 N   0  0  0  0  0  0  0  0  0  0  0  0
   21.8757  -10.1085  -18.0543 C   0  0  0  0  0  0  0  0  0  0  0  0
   20.6945  -10.5195  -18.1845 O   0  0  0  0  0  0  0  0  0  0  0  0
   22.1709   -9.1823  -17.0317 N   0  0  0  0  0  0  0  0  0  0  0  0
   21.1083   -8.6670  -16.1628 C   0  0  1  0  0  0  0  0  0  0  0  0
   21.3969   -9.0891  -14.7677 C   0  0  0  0  0  0  0  0  0  0  0  0
   20.4120   -8.6140  -13.7973 C   0  0  0  0  0  0  0  0  0  0  0  0
   19.2093   -8.9389  -13.7195 O   0  0  0  0  0  0  0  0  0  0  0  0
   21.1273   -7.1711  -16.3094 C   0  0  0  0  0  0  0  0  0  0  0  0
   22.1821   -6.5175  -16.2435 O   0  0  0  0  0  0  0  0  0  0  0  0
   20.8630   -7.6858  -12.8401 O   0  0  0  0  0  0  0  0  0  0  0  0
   19.9064   -6.4345  -16.5343 N   0  0  0  0  0  0  0  0  0  0  0  0
   19.9226   -4.9633  -16.6001 C   0  0  1  0  0  0  0  0  0  0  0  0
   19.3887   -4.5090  -17.9180 C   0  0  0  0  0  0  0  0  0  0  0  0
   19.3012   -3.0687  -18.1229 C   0  0  0  0  0  0  0  0  0  0  0  0
   19.6757   -2.3372  -17.1498 O   0  0  0  0  0  0  0  0  0  0  0  0
   19.0445   -4.4739  -15.5145 C   0  0  0  0  0  0  0  0  0  0  0  0
   18.9357   -3.2270  -15.3448 O   0  0  0  0  0  0  0  0  0  0  0  0
   18.8614   -2.4243  -19.2407 O   0  0  0  0  0  0  0  0  0  0  0  0
   18.3274   -5.2938  -14.6647 O   0  0  0  0  0  0  0  0  0  0  0  0
  2  1  1  6
  2  4  1  0
  3  2  1  0
  4  6  1  0
  5  4  2  0
  6  7  1  0
  7  8  1  1
  7 11  1  0
  9  8  1  0
 10  9  2  0
 11 12  2  0
 11 14  1  0
 13  9  1  0
 14 15  1  0
 15 19  1  0
 15 16  1  6
 16 17  1  0
 17 18  2  0
 19 22  1  0
 20 19  2  0
 21 17  1  0
M  END
$$$$
