ADD.pdb
     RDKit          3D

 22 21  0  0  1  0  0  0  0  0999 V2000
   23.0436  -11.3500  -17.8815 C   0  0  0  0  0  0  0  0  0  0  0  0
   21.6440  -11.8924  -17.6369 C   0  0  2  0  0  0  0  0  0  0  0  0
   21.1523  -12.5390  -18.8350 N   0  0  0  0  0  0  0  0  0  0  0  0
   20.7392  -10.8174  -17.2023 C   0  0  0  0  0  0  0  0  0  0  0  0
   20.5995   -9.7958  -17.9218 O   0  0  0  0  0  0  0  0  0  0  0  0
   20.0211  -10.9069  -15.9910 N   0  0  0  0  0  0  0  0  0  0  0  0
   19.0291   -9.8875  -15.6354 C   0  0  1  0  0  0  0  0  0  0  0  0
   17.9892  -10.5215  -14.7841 C   0  0  0  0  0  0  0  0  0  0  0  0
   17.0876  -11.4046  -15.5221 C   0  0  0  0  0  0  0  0  0  0  0  0
   17.2260  -12.6284  -15.7248 O   0  0  0  0  0  0  0  0  0  0  0  0
   19.7732   -8.8090  -14.8988 C   0  0  0  0  0  0  0  0  0  0  0  0
   20.7336   -9.0647  -14.1530 O   0  0  0  0  0  0  0  0  0  0  0  0
   15.9316  -10.8159  -16.0682 O   0  0  0  0  0  0  0  0  0  0  0  0
   19.3926   -7.4231  -15.0344 N   0  0  0  0  0  0  0  0  0  0  0  0
   20.1737   -6.3654  -14.3711 C   0  0  1  0  0  0  0  0  0  0  0  0
   21.5825   -6.3908  -14.8640 C   0  0  0  0  0  0  0  0  0  0  0  0
   22.4437   -5.2986  -14.4291 C   0  0  0  0  0  0  0  0  0  0  0  0
   22.1720   -4.7834  -13.2964 O   0  0  0  0  0  0  0  0  0  0  0  0
   19.5456   -5.0753  -14.7325 C   0  0  0  0  0  0  0  0  0  0  0  0
   18.7542   -5.0464  -15.7165 O   0  0  0  0  0  0  0  0  0  0  0  0
   23.5040   -4.7712  -15.1042 O   0  0  0  0  0  0  0  0  0  0  0  0
   19.7660   -3.8879  -14.0618 O   0  0  0  0  0  0  0  0  0  0  0  0
  2  1  1  6
  2  4  1  0
  3  2  1  0
  4  6  1  0
  5  4  2  0
  6  7  1  0
  7  8  1  1
  7 11  1  0
  9  8  1  0
 10  9  2  0
 11 12  2  0
 11 14  1  0
 13  9  1  0
 14 15  1  0
 15 19  1  0
 15 16  1  6
 16 17  1  0
 17 18  2  0
 19 22  1  0
 20 19  2  0
 21 17  1  0
M  END
$$$$
