ADD.pdb
     RDKit          3D

 22 21  0  0  1  0  0  0  0  0999 V2000
   20.7049  -12.2029  -16.3220 C   0  0  0  0  0  0  0  0  0  0  0  0
   19.2707  -12.0234  -15.8491 C   0  0  2  0  0  0  0  0  0  0  0  0
   18.4220  -13.0197  -16.4674 N   0  0  0  0  0  0  0  0  0  0  0  0
   18.7943  -10.6628  -16.1407 C   0  0  0  0  0  0  0  0  0  0  0  0
   19.0002  -10.1640  -17.2764 O   0  0  0  0  0  0  0  0  0  0  0  0
   18.1085   -9.9012  -15.1709 N   0  0  0  0  0  0  0  0  0  0  0  0
   17.6578   -8.5394  -15.4743 C   0  0  1  0  0  0  0  0  0  0  0  0
   16.1930   -8.4658  -15.2362 C   0  0  0  0  0  0  0  0  0  0  0  0
   15.6207   -7.1494  -15.5137 C   0  0  0  0  0  0  0  0  0  0  0  0
   16.1102   -6.2462  -16.2226 O   0  0  0  0  0  0  0  0  0  0  0  0
   18.4200   -7.6251  -14.5563 C   0  0  0  0  0  0  0  0  0  0  0  0
   18.5515   -7.8700  -13.3452 O   0  0  0  0  0  0  0  0  0  0  0  0
   14.3785   -6.8608  -14.9181 O   0  0  0  0  0  0  0  0  0  0  0  0
   19.0320   -6.4171  -15.0566 N   0  0  0  0  0  0  0  0  0  0  0  0
   19.7951   -5.5375  -14.1550 C   0  0  1  0  0  0  0  0  0  0  0  0
   21.2417   -5.9038  -14.1940 C   0  0  0  0  0  0  0  0  0  0  0  0
   22.1523   -5.0372  -13.4567 C   0  0  0  0  0  0  0  0  0  0  0  0
   22.7684   -5.5699  -12.4774 O   0  0  0  0  0  0  0  0  0  0  0  0
   19.6206   -4.1551  -14.6527 C   0  0  0  0  0  0  0  0  0  0  0  0
   19.3753   -3.9840  -15.8800 O   0  0  0  0  0  0  0  0  0  0  0  0
   22.4123   -3.7218  -13.7023 O   0  0  0  0  0  0  0  0  0  0  0  0
   19.7075   -3.0264  -13.8609 O   0  0  0  0  0  0  0  0  0  0  0  0
  2  1  1  6
  2  4  1  0
  3  2  1  0
  4  6  1  0
  5  4  2  0
  6  7  1  0
  7  8  1  1
  7 11  1  0
  9  8  1  0
 10  9  2  0
 11 12  2  0
 11 14  1  0
 13  9  1  0
 14 15  1  0
 15 19  1  0
 15 16  1  6
 16 17  1  0
 17 18  2  0
 19 22  1  0
 20 19  2  0
 21 17  1  0
M  END
$$$$
