ADD.pdb
     RDKit          3D

 22 21  0  0  1  0  0  0  0  0999 V2000
   25.7262  -12.6418  -15.2855 C   0  0  0  0  0  0  0  0  0  0  0  0
   24.4118  -13.3487  -15.5782 C   0  0  2  0  0  0  0  0  0  0  0  0
   24.6278  -14.4064  -16.5425 N   0  0  0  0  0  0  0  0  0  0  0  0
   23.4024  -12.3913  -16.0550 C   0  0  0  0  0  0  0  0  0  0  0  0
   23.3746  -12.0740  -17.2714 O   0  0  0  0  0  0  0  0  0  0  0  0
   22.4602  -11.8182  -15.1748 N   0  0  0  0  0  0  0  0  0  0  0  0
   21.4437  -10.8869  -15.6740 C   0  0  1  0  0  0  0  0  0  0  0  0
   20.1375  -11.2469  -15.0642 C   0  0  0  0  0  0  0  0  0  0  0  0
   19.6137  -12.5333  -15.5204 C   0  0  0  0  0  0  0  0  0  0  0  0
   19.3186  -13.5218  -14.8177 O   0  0  0  0  0  0  0  0  0  0  0  0
   21.8908   -9.5110  -15.2658 C   0  0  0  0  0  0  0  0  0  0  0  0
   22.5329   -9.3114  -14.2208 O   0  0  0  0  0  0  0  0  0  0  0  0
   19.4174  -12.6813  -16.9063 O   0  0  0  0  0  0  0  0  0  0  0  0
   21.5857   -8.3612  -16.0837 N   0  0  0  0  0  0  0  0  0  0  0  0
   22.0721   -7.0240  -15.7041 C   0  0  1  0  0  0  0  0  0  0  0  0
   21.8680   -6.0707  -16.8345 C   0  0  0  0  0  0  0  0  0  0  0  0
   22.1768   -4.6714  -16.5693 C   0  0  0  0  0  0  0  0  0  0  0  0
   23.4090   -4.3841  -16.4227 O   0  0  0  0  0  0  0  0  0  0  0  0
   21.2710   -6.5891  -14.5386 C   0  0  0  0  0  0  0  0  0  0  0  0
   20.1073   -7.0603  -14.3990 O   0  0  0  0  0  0  0  0  0  0  0  0
   21.2899   -3.6419  -16.4604 O   0  0  0  0  0  0  0  0  0  0  0  0
   21.7112   -5.6949  -13.5821 O   0  0  0  0  0  0  0  0  0  0  0  0
  2  1  1  6
  2  4  1  0
  3  2  1  0
  4  6  1  0
  5  4  2  0
  6  7  1  0
  7  8  1  1
  7 11  1  0
  9  8  1  0
 10  9  2  0
 11 12  2  0
 11 14  1  0
 13  9  1  0
 14 15  1  0
 15 19  1  0
 15 16  1  6
 16 17  1  0
 17 18  2  0
 19 22  1  0
 20 19  2  0
 21 17  1  0
M  END
$$$$
