ADD.pdb
     RDKit          3D

 22 21  0  0  1  0  0  0  0  0999 V2000
   13.2121  -11.7250  -11.5804 C   0  0  0  0  0  0  0  0  0  0  0  0
   14.6425  -11.7655  -12.0955 C   0  0  2  0  0  0  0  0  0  0  0  0
   15.1519  -13.1185  -12.0226 N   0  0  0  0  0  0  0  0  0  0  0  0
   15.4933  -10.8346  -11.3389 C   0  0  0  0  0  0  0  0  0  0  0  0
   15.9231  -11.1690  -10.2056 O   0  0  0  0  0  0  0  0  0  0  0  0
   15.8399   -9.5692  -11.8581 N   0  0  0  0  0  0  0  0  0  0  0  0
   16.6536   -8.6377  -11.0708 C   0  0  1  0  0  0  0  0  0  0  0  0
   17.6658   -8.0240  -11.9690 C   0  0  0  0  0  0  0  0  0  0  0  0
   18.7144   -8.9521  -12.3891 C   0  0  0  0  0  0  0  0  0  0  0  0
   19.5724   -9.5007  -11.6673 O   0  0  0  0  0  0  0  0  0  0  0  0
   15.7063   -7.6125  -10.5132 C   0  0  0  0  0  0  0  0  0  0  0  0
   14.7648   -7.1546  -11.1826 O   0  0  0  0  0  0  0  0  0  0  0  0
   18.7690   -9.2672  -13.7598 O   0  0  0  0  0  0  0  0  0  0  0  0
   15.8601   -7.1190   -9.1653 N   0  0  0  0  0  0  0  0  0  0  0  0
   14.9337   -6.1072   -8.6297 C   0  0  1  0  0  0  0  0  0  0  0  0
   14.8603   -6.2235   -7.1433 C   0  0  0  0  0  0  0  0  0  0  0  0
   13.9672   -5.2954   -6.4615 C   0  0  0  0  0  0  0  0  0  0  0  0
   13.2520   -4.5507   -7.2073 O   0  0  0  0  0  0  0  0  0  0  0  0
   15.4830   -4.7832   -8.9966 C   0  0  0  0  0  0  0  0  0  0  0  0
   16.7363   -4.6264   -8.9802 O   0  0  0  0  0  0  0  0  0  0  0  0
   13.8180   -5.1396   -5.1155 O   0  0  0  0  0  0  0  0  0  0  0  0
   14.7132   -3.6952   -9.3600 O   0  0  0  0  0  0  0  0  0  0  0  0
  2  1  1  1
  2  4  1  0
  3  2  1  0
  4  6  1  0
  5  4  2  0
  6  7  1  0
  7  8  1  6
  7 11  1  0
  9  8  1  0
 10  9  2  0
 11 12  2  0
 11 14  1  0
 13  9  1  0
 14 15  1  0
 15 19  1  0
 15 16  1  1
 16 17  1  0
 17 18  2  0
 19 22  1  0
 20 19  2  0
 21 17  1  0
M  END
$$$$
