ADD.pdb
     RDKit          3D

 22 21  0  0  1  0  0  0  0  0999 V2000
   26.1545  -18.1712  -16.3293 C   0  0  0  0  0  0  0  0  0  0  0  0
   24.6914  -18.4512  -16.6357 C   0  0  2  0  0  0  0  0  0  0  0  0
   24.5349  -18.7591  -18.0414 N   0  0  0  0  0  0  0  0  0  0  0  0
   23.8513  -17.3094  -16.2439 C   0  0  0  0  0  0  0  0  0  0  0  0
   23.8330  -16.9361  -15.0434 O   0  0  0  0  0  0  0  0  0  0  0  0
   23.0618  -16.6201  -17.1887 N   0  0  0  0  0  0  0  0  0  0  0  0
   22.2983  -15.4314  -16.7969 C   0  0  1  0  0  0  0  0  0  0  0  0
   22.4061  -14.4248  -17.8846 C   0  0  0  0  0  0  0  0  0  0  0  0
   23.2356  -13.2727  -17.5352 C   0  0  0  0  0  0  0  0  0  0  0  0
   23.7065  -12.9921  -16.4138 O   0  0  0  0  0  0  0  0  0  0  0  0
   20.8797  -15.8852  -16.5940 C   0  0  0  0  0  0  0  0  0  0  0  0
   20.3927  -16.8288  -17.2394 O   0  0  0  0  0  0  0  0  0  0  0  0
   23.5417  -12.3745  -18.5748 O   0  0  0  0  0  0  0  0  0  0  0  0
   20.0248  -15.2323  -15.6313 N   0  0  0  0  0  0  0  0  0  0  0  0
   18.6685  -15.7426  -15.3690 C   0  0  1  0  0  0  0  0  0  0  0  0
   18.6407  -16.4584  -14.0594 C   0  0  0  0  0  0  0  0  0  0  0  0
   17.3535  -16.9981  -13.6402 C   0  0  0  0  0  0  0  0  0  0  0  0
   16.4007  -16.8996  -14.4798 O   0  0  0  0  0  0  0  0  0  0  0  0
   17.7703  -14.5683  -15.3110 C   0  0  0  0  0  0  0  0  0  0  0  0
   18.2791  -13.4316  -15.0994 O   0  0  0  0  0  0  0  0  0  0  0  0
   17.0621  -17.5934  -12.4491 O   0  0  0  0  0  0  0  0  0  0  0  0
   16.3998  -14.6283  -15.4741 O   0  0  0  0  0  0  0  0  0  0  0  0
  2  1  1  6
  2  4  1  0
  3  2  1  0
  4  6  1  0
  5  4  2  0
  6  7  1  0
  7  8  1  6
  7 11  1  0
  9  8  1  0
 10  9  2  0
 11 12  2  0
 11 14  1  0
 13  9  1  0
 14 15  1  0
 15 19  1  0
 15 16  1  1
 16 17  1  0
 17 18  2  0
 19 22  1  0
 20 19  2  0
 21 17  1  0
M  END
$$$$
