ADD.pdb
     RDKit          3D

 22 21  0  0  1  0  0  0  0  0999 V2000
   13.7380  -12.2857  -11.1045 C   0  0  0  0  0  0  0  0  0  0  0  0
   13.3726  -11.4201   -9.9086 C   0  0  2  0  0  0  0  0  0  0  0  0
   11.9536  -11.5247   -9.6428 N   0  0  0  0  0  0  0  0  0  0  0  0
   13.7698  -10.0228  -10.1384 C   0  0  0  0  0  0  0  0  0  0  0  0
   13.0242   -9.2695  -10.8148 O   0  0  0  0  0  0  0  0  0  0  0  0
   14.9739   -9.5061   -9.6148 N   0  0  0  0  0  0  0  0  0  0  0  0
   15.4041   -8.1428   -9.9404 C   0  0  1  0  0  0  0  0  0  0  0  0
   15.7521   -7.4456   -8.6753 C   0  0  0  0  0  0  0  0  0  0  0  0
   16.2474   -6.0846   -8.8746 C   0  0  0  0  0  0  0  0  0  0  0  0
   16.3957   -5.4850   -9.9593 O   0  0  0  0  0  0  0  0  0  0  0  0
   16.5937   -8.2783  -10.8494 C   0  0  0  0  0  0  0  0  0  0  0  0
   17.5281   -9.0577  -10.5975 O   0  0  0  0  0  0  0  0  0  0  0  0
   16.5985   -5.3630   -7.7182 O   0  0  0  0  0  0  0  0  0  0  0  0
   16.6922   -7.4980  -12.0599 N   0  0  0  0  0  0  0  0  0  0  0  0
   17.7992   -7.7216  -13.0050 C   0  0  1  0  0  0  0  0  0  0  0  0
   17.8118   -9.1487  -13.4425 C   0  0  0  0  0  0  0  0  0  0  0  0
   18.7758   -9.5038  -14.4763 C   0  0  0  0  0  0  0  0  0  0  0  0
   18.4384  -10.4486  -15.2610 O   0  0  0  0  0  0  0  0  0  0  0  0
   17.5516   -6.8475  -14.1729 C   0  0  0  0  0  0  0  0  0  0  0  0
   16.4370   -6.2594  -14.2585 O   0  0  0  0  0  0  0  0  0  0  0  0
   19.9959   -8.9349  -14.6905 O   0  0  0  0  0  0  0  0  0  0  0  0
   18.4637   -6.6269  -15.1868 O   0  0  0  0  0  0  0  0  0  0  0  0
  2  1  1  6
  2  4  1  0
  3  2  1  0
  4  6  1  0
  5  4  2  0
  6  7  1  0
  7  8  1  1
  7 11  1  0
  9  8  1  0
 10  9  2  0
 11 12  2  0
 11 14  1  0
 13  9  1  0
 14 15  1  0
 15 19  1  0
 15 16  1  6
 16 17  1  0
 17 18  2  0
 19 22  1  0
 20 19  2  0
 21 17  1  0
M  END
$$$$
