ADD.pdb
     RDKit          3D

 22 21  0  0  1  0  0  0  0  0999 V2000
   13.4829  -11.0289  -13.9672 C   0  0  0  0  0  0  0  0  0  0  0  0
   14.6548  -11.6830  -14.6827 C   0  0  2  0  0  0  0  0  0  0  0  0
   14.8145  -13.0448  -14.2190 N   0  0  0  0  0  0  0  0  0  0  0  0
   15.8860  -10.9041  -14.4817 C   0  0  0  0  0  0  0  0  0  0  0  0
   16.4532  -10.9195  -13.3596 O   0  0  0  0  0  0  0  0  0  0  0  0
   16.4478  -10.1365  -15.5238 N   0  0  0  0  0  0  0  0  0  0  0  0
   17.6314   -9.3054  -15.2831 C   0  0  1  0  0  0  0  0  0  0  0  0
   18.7081   -9.7426  -16.2090 C   0  0  0  0  0  0  0  0  0  0  0  0
   19.4302  -10.9274  -15.7485 C   0  0  0  0  0  0  0  0  0  0  0  0
   20.0914  -11.0488  -14.6968 O   0  0  0  0  0  0  0  0  0  0  0  0
   17.2134   -7.8851  -15.5429 C   0  0  0  0  0  0  0  0  0  0  0  0
   16.5041   -7.5759  -16.5151 O   0  0  0  0  0  0  0  0  0  0  0  0
   19.3787  -12.0627  -16.5790 O   0  0  0  0  0  0  0  0  0  0  0  0
   17.6272   -6.8193  -14.6614 N   0  0  0  0  0  0  0  0  0  0  0  0
   17.2864   -5.4201  -14.9694 C   0  0  1  0  0  0  0  0  0  0  0  0
   16.5768   -4.8041  -13.8094 C   0  0  0  0  0  0  0  0  0  0  0  0
   16.3132   -3.3733  -13.8934 C   0  0  0  0  0  0  0  0  0  0  0  0
   16.4506   -2.7106  -12.8144 O   0  0  0  0  0  0  0  0  0  0  0  0
   18.5618   -4.7080  -15.2049 C   0  0  0  0  0  0  0  0  0  0  0  0
   19.6357   -5.2580  -14.8309 O   0  0  0  0  0  0  0  0  0  0  0  0
   15.9352   -2.6723  -14.9997 O   0  0  0  0  0  0  0  0  0  0  0  0
   18.6616   -3.4711  -15.8120 O   0  0  0  0  0  0  0  0  0  0  0  0
  2  1  1  1
  2  4  1  0
  3  2  1  0
  4  6  1  0
  5  4  2  0
  6  7  1  0
  7  8  1  6
  7 11  1  0
  9  8  1  0
 10  9  2  0
 11 12  2  0
 11 14  1  0
 13  9  1  0
 14 15  1  0
 15 19  1  0
 15 16  1  1
 16 17  1  0
 17 18  2  0
 19 22  1  0
 20 19  2  0
 21 17  1  0
M  END
$$$$
