ADD.pdb
     RDKit          3D

 22 21  0  0  1  0  0  0  0  0999 V2000
   12.1416  -10.7745  -12.8214 C   0  0  0  0  0  0  0  0  0  0  0  0
   13.0596  -11.9269  -13.1984 C   0  0  2  0  0  0  0  0  0  0  0  0
   12.9014  -13.0101  -12.2513 N   0  0  0  0  0  0  0  0  0  0  0  0
   14.4581  -11.4766  -13.2638 C   0  0  0  0  0  0  0  0  0  0  0  0
   15.1170  -11.3437  -12.2011 O   0  0  0  0  0  0  0  0  0  0  0  0
   15.0802  -11.1891  -14.4972 N   0  0  0  0  0  0  0  0  0  0  0  0
   16.4890  -10.7862  -14.5457 C   0  0  1  0  0  0  0  0  0  0  0  0
   17.1876  -11.6406  -15.5405 C   0  0  0  0  0  0  0  0  0  0  0  0
   17.5006  -12.9797  -15.0442 C   0  0  0  0  0  0  0  0  0  0  0  0
   17.7751  -13.3064  -13.8712 O   0  0  0  0  0  0  0  0  0  0  0  0
   16.5031   -9.3372  -14.9455 C   0  0  0  0  0  0  0  0  0  0  0  0
   15.5862   -8.8308  -15.6139 O   0  0  0  0  0  0  0  0  0  0  0  0
   17.4936  -14.0228  -15.9892 O   0  0  0  0  0  0  0  0  0  0  0  0
   17.5955   -8.4748  -14.5622 N   0  0  0  0  0  0  0  0  0  0  0  0
   17.5795   -7.0457  -14.9177 C   0  0  1  0  0  0  0  0  0  0  0  0
   16.5154   -6.3424  -14.1423 C   0  0  0  0  0  0  0  0  0  0  0  0
   16.4913   -4.8886  -14.2417 C   0  0  0  0  0  0  0  0  0  0  0  0
   16.1801   -4.2562  -13.1808 O   0  0  0  0  0  0  0  0  0  0  0  0
   18.9039   -6.4963  -14.5524 C   0  0  0  0  0  0  0  0  0  0  0  0
   19.7139   -7.2411  -13.9323 O   0  0  0  0  0  0  0  0  0  0  0  0
   16.7640   -4.1372  -15.3459 O   0  0  0  0  0  0  0  0  0  0  0  0
   19.3211   -5.2123  -14.8456 O   0  0  0  0  0  0  0  0  0  0  0  0
  2  1  1  1
  2  4  1  0
  3  2  1  0
  4  6  1  0
  5  4  2  0
  6  7  1  0
  7  8  1  6
  7 11  1  0
  9  8  1  0
 10  9  2  0
 11 12  2  0
 11 14  1  0
 13  9  1  0
 14 15  1  0
 15 19  1  0
 15 16  1  1
 16 17  1  0
 17 18  2  0
 19 22  1  0
 20 19  2  0
 21 17  1  0
M  END
$$$$
