ADD.pdb
     RDKit          3D

 22 21  0  0  1  0  0  0  0  0999 V2000
   19.7136  -13.1583  -17.5818 C   0  0  0  0  0  0  0  0  0  0  0  0
   19.8517  -12.3804  -16.2823 C   0  0  2  0  0  0  0  0  0  0  0  0
   19.2507  -13.1270  -15.1975 N   0  0  0  0  0  0  0  0  0  0  0  0
   19.2471  -11.0458  -16.4094 C   0  0  0  0  0  0  0  0  0  0  0  0
   19.6936  -10.2419  -17.2670 O   0  0  0  0  0  0  0  0  0  0  0  0
   18.1726  -10.6450  -15.5873 N   0  0  0  0  0  0  0  0  0  0  0  0
   17.6108   -9.2955  -15.6998 C   0  0  1  0  0  0  0  0  0  0  0  0
   16.1945   -9.3379  -15.2526 C   0  0  0  0  0  0  0  0  0  0  0  0
   15.3162  -10.0741  -16.1604 C   0  0  0  0  0  0  0  0  0  0  0  0
   15.0352   -9.7842  -17.3415 O   0  0  0  0  0  0  0  0  0  0  0  0
   18.4488   -8.4115  -14.8190 C   0  0  0  0  0  0  0  0  0  0  0  0
   18.7528   -8.7374  -13.6591 O   0  0  0  0  0  0  0  0  0  0  0  0
   14.7166  -11.2420  -15.6527 O   0  0  0  0  0  0  0  0  0  0  0  0
   18.9344   -7.1385  -15.2964 N   0  0  0  0  0  0  0  0  0  0  0  0
   19.7797   -6.2916  -14.4380 C   0  0  1  0  0  0  0  0  0  0  0  0
   21.2203   -6.5725  -14.7099 C   0  0  0  0  0  0  0  0  0  0  0  0
   22.1896   -5.7685  -13.9764 C   0  0  0  0  0  0  0  0  0  0  0  0
   22.9794   -5.0580  -14.6790 O   0  0  0  0  0  0  0  0  0  0  0  0
   19.4747   -4.8861  -14.7855 C   0  0  0  0  0  0  0  0  0  0  0  0
   19.0105   -4.6375  -15.9337 O   0  0  0  0  0  0  0  0  0  0  0  0
   22.3405   -5.6977  -12.6235 O   0  0  0  0  0  0  0  0  0  0  0  0
   19.6636   -3.8154  -13.9332 O   0  0  0  0  0  0  0  0  0  0  0  0
  2  1  1  6
  2  4  1  0
  3  2  1  0
  4  6  1  0
  5  4  2  0
  6  7  1  0
  7  8  1  1
  7 11  1  0
  9  8  1  0
 10  9  2  0
 11 12  2  0
 11 14  1  0
 13  9  1  0
 14 15  1  0
 15 19  1  0
 15 16  1  6
 16 17  1  0
 17 18  2  0
 19 22  1  0
 20 19  2  0
 21 17  1  0
M  END
$$$$
