ADD.pdb
     RDKit          3D

 22 21  0  0  1  0  0  0  0  0999 V2000
   19.3598  -11.8219  -18.1119 C   0  0  0  0  0  0  0  0  0  0  0  0
   20.5109  -11.6155  -17.1396 C   0  0  2  0  0  0  0  0  0  0  0  0
   20.7586  -12.8386  -16.4060 N   0  0  0  0  0  0  0  0  0  0  0  0
   20.2267  -10.4964  -16.2286 C   0  0  0  0  0  0  0  0  0  0  0  0
   19.1997  -10.5321  -15.5041 O   0  0  0  0  0  0  0  0  0  0  0  0
   21.0841   -9.3786  -16.1487 N   0  0  0  0  0  0  0  0  0  0  0  0
   20.7905   -8.2783  -15.2253 C   0  0  1  0  0  0  0  0  0  0  0  0
   22.0771   -7.6807  -14.7833 C   0  0  0  0  0  0  0  0  0  0  0  0
   21.9132   -6.5034  -13.9320 C   0  0  0  0  0  0  0  0  0  0  0  0
   22.5991   -5.4605  -13.9434 O   0  0  0  0  0  0  0  0  0  0  0  0
   19.9506   -7.2940  -15.9903 C   0  0  0  0  0  0  0  0  0  0  0  0
   20.1261   -7.0821  -17.2020 O   0  0  0  0  0  0  0  0  0  0  0  0
   20.8667   -6.5428  -12.9916 O   0  0  0  0  0  0  0  0  0  0  0  0
   18.8993   -6.5526  -15.3352 N   0  0  0  0  0  0  0  0  0  0  0  0
   18.0527   -5.6219  -16.1007 C   0  0  1  0  0  0  0  0  0  0  0  0
   16.7079   -6.2292  -16.3270 C   0  0  0  0  0  0  0  0  0  0  0  0
   15.7135   -5.3844  -16.9760 C   0  0  0  0  0  0  0  0  0  0  0  0
   14.7058   -5.0557  -16.2697 O   0  0  0  0  0  0  0  0  0  0  0  0
   17.9117   -4.3966  -15.2835 C   0  0  0  0  0  0  0  0  0  0  0  0
   18.1101   -4.4776  -14.0386 O   0  0  0  0  0  0  0  0  0  0  0  0
   15.7468   -4.9119  -18.2542 O   0  0  0  0  0  0  0  0  0  0  0  0
   17.5751   -3.1569  -15.7919 O   0  0  0  0  0  0  0  0  0  0  0  0
  2  1  1  6
  2  4  1  0
  3  2  1  0
  4  6  1  0
  5  4  2  0
  6  7  1  0
  7  8  1  6
  7 11  1  0
  9  8  1  0
 10  9  2  0
 11 12  2  0
 11 14  1  0
 13  9  1  0
 14 15  1  0
 15 19  1  0
 15 16  1  1
 16 17  1  0
 17 18  2  0
 19 22  1  0
 20 19  2  0
 21 17  1  0
M  END
$$$$
