ADD.pdb
     RDKit          3D

 22 21  0  0  1  0  0  0  0  0999 V2000
   19.0122  -11.3702  -15.8840 C   0  0  0  0  0  0  0  0  0  0  0  0
   18.3923   -9.9944  -15.6945 C   0  0  2  0  0  0  0  0  0  0  0  0
   18.6254   -9.1851  -16.8717 N   0  0  0  0  0  0  0  0  0  0  0  0
   18.9273   -9.3458  -14.4878 C   0  0  0  0  0  0  0  0  0  0  0  0
   18.7845   -9.9024  -13.3695 O   0  0  0  0  0  0  0  0  0  0  0  0
   19.6002   -8.1075  -14.5568 N   0  0  0  0  0  0  0  0  0  0  0  0
   20.1459   -7.4870  -13.3457 C   0  0  1  0  0  0  0  0  0  0  0  0
   21.4154   -6.8013  -13.7007 C   0  0  0  0  0  0  0  0  0  0  0  0
   22.0056   -6.0526  -12.5924 C   0  0  0  0  0  0  0  0  0  0  0  0
   21.9651   -6.3409  -11.3786 O   0  0  0  0  0  0  0  0  0  0  0  0
   19.1048   -6.5183  -12.8584 C   0  0  0  0  0  0  0  0  0  0  0  0
   18.5919   -5.6716  -13.6094 O   0  0  0  0  0  0  0  0  0  0  0  0
   22.6990   -4.8732  -12.9232 O   0  0  0  0  0  0  0  0  0  0  0  0
   18.6606   -6.5389  -11.4850 N   0  0  0  0  0  0  0  0  0  0  0  0
   17.6752   -5.5560  -11.0035 C   0  0  1  0  0  0  0  0  0  0  0  0
   16.3405   -5.8378  -11.6096 C   0  0  0  0  0  0  0  0  0  0  0  0
   15.2436   -4.9703  -11.1996 C   0  0  0  0  0  0  0  0  0  0  0  0
   15.5698   -3.8916  -10.6060 O   0  0  0  0  0  0  0  0  0  0  0  0
   17.5948   -5.7110   -9.5343 C   0  0  0  0  0  0  0  0  0  0  0  0
   18.2681   -6.6301   -8.9886 O   0  0  0  0  0  0  0  0  0  0  0  0
   13.9109   -5.1910  -11.3821 O   0  0  0  0  0  0  0  0  0  0  0  0
   16.8274   -4.9124   -8.7086 O   0  0  0  0  0  0  0  0  0  0  0  0
  2  1  1  6
  2  4  1  0
  3  2  1  0
  4  6  1  0
  5  4  2  0
  6  7  1  0
  7  8  1  6
  7 11  1  0
  9  8  1  0
 10  9  2  0
 11 12  2  0
 11 14  1  0
 13  9  1  0
 14 15  1  0
 15 19  1  0
 15 16  1  6
 16 17  1  0
 17 18  2  0
 19 22  1  0
 20 19  2  0
 21 17  1  0
M  END
$$$$
