ADD.pdb
     RDKit          3D

 22 21  0  0  1  0  0  0  0  0999 V2000
   19.4923  -11.2012  -18.3533 C   0  0  0  0  0  0  0  0  0  0  0  0
   19.3835  -11.4987  -16.8658 C   0  0  2  0  0  0  0  0  0  0  0  0
   18.5619  -12.6724  -16.6592 N   0  0  0  0  0  0  0  0  0  0  0  0
   18.8447  -10.3373  -16.1421 C   0  0  0  0  0  0  0  0  0  0  0  0
   18.4009   -9.3548  -16.7892 O   0  0  0  0  0  0  0  0  0  0  0  0
   18.8142  -10.3002  -14.7319 N   0  0  0  0  0  0  0  0  0  0  0  0
   18.3281   -9.1097  -14.0277 C   0  0  1  0  0  0  0  0  0  0  0  0
   17.7560   -9.5362  -12.7244 C   0  0  0  0  0  0  0  0  0  0  0  0
   17.1578   -8.4415  -11.9620 C   0  0  0  0  0  0  0  0  0  0  0  0
   16.9852   -7.2639  -12.3380 O   0  0  0  0  0  0  0  0  0  0  0  0
   19.5168   -8.2074  -13.8478 C   0  0  0  0  0  0  0  0  0  0  0  0
   20.5953   -8.6238  -13.3923 O   0  0  0  0  0  0  0  0  0  0  0  0
   16.7256   -8.7415  -10.6565 O   0  0  0  0  0  0  0  0  0  0  0  0
   19.4448   -6.8098  -14.2021 N   0  0  0  0  0  0  0  0  0  0  0  0
   20.6471   -5.9613  -14.1441 C   0  0  1  0  0  0  0  0  0  0  0  0
   21.5368   -6.2630  -15.3041 C   0  0  0  0  0  0  0  0  0  0  0  0
   22.6984   -5.3996  -15.4750 C   0  0  0  0  0  0  0  0  0  0  0  0
   23.1352   -4.8279  -14.4239 O   0  0  0  0  0  0  0  0  0  0  0  0
   20.1876   -4.5571  -14.2242 C   0  0  0  0  0  0  0  0  0  0  0  0
   18.9743   -4.3359  -14.4972 O   0  0  0  0  0  0  0  0  0  0  0  0
   23.3632   -5.1390  -16.6361 O   0  0  0  0  0  0  0  0  0  0  0  0
   21.0009   -3.4595  -14.0189 O   0  0  0  0  0  0  0  0  0  0  0  0
  2  1  1  6
  2  4  1  0
  3  2  1  0
  4  6  1  0
  5  4  2  0
  6  7  1  0
  7  8  1  1
  7 11  1  0
  9  8  1  0
 10  9  2  0
 11 12  2  0
 11 14  1  0
 13  9  1  0
 14 15  1  0
 15 19  1  0
 15 16  1  6
 16 17  1  0
 17 18  2  0
 19 22  1  0
 20 19  2  0
 21 17  1  0
M  END
$$$$
