ADD.pdb
     RDKit          3D

 22 21  0  0  1  0  0  0  0  0999 V2000
   12.4543  -11.4274  -13.2061 C   0  0  0  0  0  0  0  0  0  0  0  0
   13.3261  -12.4260  -13.9515 C   0  0  2  0  0  0  0  0  0  0  0  0
   13.1902  -13.7375  -13.3541 N   0  0  0  0  0  0  0  0  0  0  0  0
   14.7296  -11.9866  -13.9579 C   0  0  0  0  0  0  0  0  0  0  0  0
   15.3626  -11.9174  -12.8737 O   0  0  0  0  0  0  0  0  0  0  0  0
   15.3850  -11.6393  -15.1582 N   0  0  0  0  0  0  0  0  0  0  0  0
   16.7775  -11.1811  -15.1418 C   0  0  1  0  0  0  0  0  0  0  0  0
   17.5517  -11.9971  -16.1127 C   0  0  0  0  0  0  0  0  0  0  0  0
   18.9761  -11.6696  -16.1473 C   0  0  0  0  0  0  0  0  0  0  0  0
   19.5796  -10.8429  -15.4330 O   0  0  0  0  0  0  0  0  0  0  0  0
   16.7516   -9.7286  -15.5280 C   0  0  0  0  0  0  0  0  0  0  0  0
   16.0113   -9.3013  -16.4300 O   0  0  0  0  0  0  0  0  0  0  0  0
   19.7616  -12.3600  -17.0893 O   0  0  0  0  0  0  0  0  0  0  0  0
   17.5959   -8.7695  -14.8564 N   0  0  0  0  0  0  0  0  0  0  0  0
   17.5506   -7.3450  -15.2274 C   0  0  1  0  0  0  0  0  0  0  0  0
   17.9088   -6.5025  -14.0484 C   0  0  0  0  0  0  0  0  0  0  0  0
   17.9595   -5.0628  -14.2690 C   0  0  0  0  0  0  0  0  0  0  0  0
   19.0733   -4.4944  -14.0268 O   0  0  0  0  0  0  0  0  0  0  0  0
   18.5506   -7.1473  -16.2998 C   0  0  0  0  0  0  0  0  0  0  0  0
   18.6604   -5.9995  -16.8157 O   0  0  0  0  0  0  0  0  0  0  0  0
   16.9448   -4.2633  -14.7039 O   0  0  0  0  0  0  0  0  0  0  0  0
   19.3818   -8.1402  -16.7811 O   0  0  0  0  0  0  0  0  0  0  0  0
  2  1  1  1
  2  4  1  0
  3  2  1  0
  4  6  1  0
  5  4  2  0
  6  7  1  0
  7  8  1  6
  7 11  1  0
  9  8  1  0
 10  9  2  0
 11 12  2  0
 11 14  1  0
 13  9  1  0
 14 15  1  0
 15 19  1  0
 15 16  1  1
 16 17  1  0
 17 18  2  0
 19 22  1  0
 20 19  2  0
 21 17  1  0
M  END
$$$$
