EYK.pdb
     RDKit          3D

 31 31  0  0  1  0  0  0  0  0999 V2000
    9.8660  -16.6650   18.4533 N   0  0  0  0  0  0  0  0  0  0  0  0
    8.8468  -16.9159   19.4517 C   0  0  1  0  0  0  0  0  0  0  0  0
    8.6732  -18.3929   19.7130 C   0  0  0  0  0  0  0  0  0  0  0  0
    8.2211  -19.1270   18.4726 C   0  0  0  0  0  0  0  0  0  0  0  0
    9.4016  -19.4618   17.6337 C   0  0  0  0  0  0  0  0  0  0  0  0
    9.5532  -18.9394   16.4946 O   0  0  0  0  0  0  0  0  0  0  0  0
    9.1413  -16.1966   20.7351 C   0  0  0  0  0  0  0  0  0  0  0  0
   10.2608  -16.3367   21.2678 O   0  0  0  0  0  0  0  0  0  0  0  0
   10.3707  -20.3535   18.0707 O   0  0  0  0  0  0  0  0  0  0  0  0
    7.1533  -11.9823   28.2866 O   0  0  0  0  0  0  0  0  0  0  0  0
    7.2031  -12.4053   26.9669 C   0  0  0  0  0  0  0  0  0  0  0  0
    8.0953  -11.8953   26.0469 C   0  0  0  0  0  0  0  0  0  0  0  0
    8.1405  -12.3179   24.7406 C   0  0  0  0  0  0  0  0  0  0  0  0
    7.2556  -13.2918   24.3382 C   0  0  0  0  0  0  0  0  0  0  0  0
    7.2042  -13.8297   22.9600 C   0  0  0  0  0  0  0  0  0  0  0  0
    8.2489  -14.8375   22.6702 C   0  0  2  0  0  0  0  0  0  0  0  0
    8.1673  -15.3725   21.3336 N   0  0  0  0  0  0  0  0  0  0  0  0
    8.3843  -15.9130   23.6908 C   0  0  0  0  0  0  0  0  0  0  0  0
    7.4681  -16.7236   23.9507 O   0  0  0  0  0  0  0  0  0  0  0  0
    6.3367  -13.8327   25.2424 C   0  0  0  0  0  0  0  0  0  0  0  0
    6.3114  -13.3914   26.5487 C   0  0  0  0  0  0  0  0  0  0  0  0
    9.6060  -16.0695   24.4398 N   0  0  0  0  0  0  0  0  0  0  0  0
    9.7331  -17.0425   25.5145 C   0  0  1  0  0  0  0  0  0  0  0  0
   10.9132  -17.9298   25.1835 C   0  0  0  0  0  0  0  0  0  0  0  0
   10.6148  -18.7336   23.9434 C   0  0  0  0  0  0  0  0  0  0  0  0
   11.8153  -19.5384   23.4942 C   0  0  0  0  0  0  0  0  0  0  0  0
   11.5873  -20.2031   22.1676 C   0  0  0  0  0  0  0  0  0  0  0  0
   12.7657  -20.8888   21.6961 N   0  0  0  0  0  0  0  0  0  0  0  0
    9.8116  -16.4262   26.8409 C   0  0  0  0  0  0  0  0  0  0  0  0
    9.8163  -17.1864   27.8419 O   0  0  0  0  0  0  0  0  0  0  0  0
    9.8824  -15.0629   27.0913 O   0  0  0  0  0  0  0  0  0  0  0  0
  2  1  1  6
  2  3  1  0
  3  4  1  0
  4  5  1  0
  5  6  2  0
  5  9  1  0
  7  2  1  0
  8  7  2  0
 10 11  1  0
 11 12  2  0
 11 21  1  0
 12 13  1  0
 13 14  2  0
 14 15  1  0
 16 15  1  1
 16 17  1  0
 17  7  1  0
 18 22  1  0
 18 16  1  0
 19 18  2  0
 20 14  1  0
 21 20  2  0
 23 29  1  0
 23 24  1  6
 23 22  1  0
 25 24  1  0
 26 25  1  0
 27 26  1  0
 27 28  1  0
 29 31  1  0
 30 29  2  0
M  END
$$$$
