EYK.pdb
     RDKit          3D

 31 31  0  0  1  0  0  0  0  0999 V2000
    9.9170  -16.9134   18.3609 N   0  0  0  0  0  0  0  0  0  0  0  0
    8.7150  -16.8435   19.1664 C   0  0  1  0  0  0  0  0  0  0  0  0
    8.0590  -18.1961   19.3085 C   0  0  0  0  0  0  0  0  0  0  0  0
    9.0787  -19.3106   19.3090 C   0  0  0  0  0  0  0  0  0  0  0  0
    8.3879  -20.6178   19.4626 C   0  0  0  0  0  0  0  0  0  0  0  0
    7.8944  -20.9608   20.5726 O   0  0  0  0  0  0  0  0  0  0  0  0
    8.9902  -16.2594   20.5207 C   0  0  0  0  0  0  0  0  0  0  0  0
   10.1430  -16.3333   20.9920 O   0  0  0  0  0  0  0  0  0  0  0  0
    8.2625  -21.4997   18.3986 O   0  0  0  0  0  0  0  0  0  0  0  0
    7.4135  -12.0358   28.1552 O   0  0  0  0  0  0  0  0  0  0  0  0
    7.3353  -12.5332   26.8631 C   0  0  0  0  0  0  0  0  0  0  0  0
    7.9655  -11.9396   25.7894 C   0  0  0  0  0  0  0  0  0  0  0  0
    7.8847  -12.4365   24.5112 C   0  0  0  0  0  0  0  0  0  0  0  0
    7.1421  -13.5752   24.2989 C   0  0  0  0  0  0  0  0  0  0  0  0
    6.9775  -14.2071   22.9703 C   0  0  0  0  0  0  0  0  0  0  0  0
    8.1155  -15.0643   22.5688 C   0  0  2  0  0  0  0  0  0  0  0  0
    7.9613  -15.6344   21.2533 N   0  0  0  0  0  0  0  0  0  0  0  0
    8.5159  -16.0877   23.5733 C   0  0  0  0  0  0  0  0  0  0  0  0
    7.7955  -17.0650   23.8732 O   0  0  0  0  0  0  0  0  0  0  0  0
    6.4890  -14.2048   25.3626 C   0  0  0  0  0  0  0  0  0  0  0  0
    6.5857  -13.6862   26.6368 C   0  0  0  0  0  0  0  0  0  0  0  0
    9.7806  -15.9935   24.2586 N   0  0  0  0  0  0  0  0  0  0  0  0
   10.1819  -16.9557   25.2738 C   0  0  1  0  0  0  0  0  0  0  0  0
   11.5859  -17.4085   24.9375 C   0  0  0  0  0  0  0  0  0  0  0  0
   11.6167  -17.9809   23.5431 C   0  0  0  0  0  0  0  0  0  0  0  0
   13.0201  -18.3631   23.1244 C   0  0  0  0  0  0  0  0  0  0  0  0
   13.0846  -18.7959   21.6884 C   0  0  0  0  0  0  0  0  0  0  0  0
   14.4422  -19.0021   21.2457 N   0  0  0  0  0  0  0  0  0  0  0  0
   10.0377  -16.4443   26.6388 C   0  0  0  0  0  0  0  0  0  0  0  0
   10.2285  -17.2451   27.5887 O   0  0  0  0  0  0  0  0  0  0  0  0
    9.7059  -15.1401   26.9781 O   0  0  0  0  0  0  0  0  0  0  0  0
  2  1  1  1
  2  3  1  0
  3  4  1  0
  4  5  1  0
  5  6  2  0
  5  9  1  0
  7  2  1  0
  8  7  2  0
 10 11  1  0
 11 12  2  0
 11 21  1  0
 12 13  1  0
 13 14  2  0
 14 15  1  0
 16 15  1  1
 16 17  1  0
 17  7  1  0
 18 22  1  0
 18 16  1  0
 19 18  2  0
 20 14  1  0
 21 20  2  0
 23 29  1  0
 23 24  1  6
 23 22  1  0
 25 24  1  0
 26 25  1  0
 27 26  1  0
 27 28  1  0
 29 31  1  0
 30 29  2  0
M  END
$$$$
