EYK.pdb
     RDKit          3D

 31 31  0  0  1  0  0  0  0  0999 V2000
    8.1403  -17.7491   19.4358 N   0  0  0  0  0  0  0  0  0  0  0  0
    9.4264  -17.1736   19.7725 C   0  0  1  0  0  0  0  0  0  0  0  0
   10.1027  -16.5729   18.5635 C   0  0  0  0  0  0  0  0  0  0  0  0
    9.1044  -16.2218   17.4857 C   0  0  0  0  0  0  0  0  0  0  0  0
    9.8029  -16.1032   16.1790 C   0  0  0  0  0  0  0  0  0  0  0  0
    9.4288  -16.7821   15.1828 O   0  0  0  0  0  0  0  0  0  0  0  0
    9.3048  -16.1459   20.8588 C   0  0  0  0  0  0  0  0  0  0  0  0
    9.3239  -14.9357   20.5559 O   0  0  0  0  0  0  0  0  0  0  0  0
   10.8826  -15.2480   16.0105 O   0  0  0  0  0  0  0  0  0  0  0  0
    6.4885  -11.5368   27.5397 O   0  0  0  0  0  0  0  0  0  0  0  0
    6.8549  -12.2748   26.4242 C   0  0  0  0  0  0  0  0  0  0  0  0
    7.8120  -11.8533   25.5248 C   0  0  0  0  0  0  0  0  0  0  0  0
    8.1713  -12.5882   24.4213 C   0  0  0  0  0  0  0  0  0  0  0  0
    7.5464  -13.7956   24.2089 C   0  0  0  0  0  0  0  0  0  0  0  0
    7.8441  -14.6782   23.0583 C   0  0  0  0  0  0  0  0  0  0  0  0
    8.9414  -15.6396   23.3083 C   0  0  2  0  0  0  0  0  0  0  0  0
    9.1706  -16.5398   22.2052 N   0  0  0  0  0  0  0  0  0  0  0  0
    8.8587  -16.3634   24.6067 C   0  0  0  0  0  0  0  0  0  0  0  0
    7.8766  -17.0657   24.9328 O   0  0  0  0  0  0  0  0  0  0  0  0
    6.5713  -14.2559   25.0987 C   0  0  0  0  0  0  0  0  0  0  0  0
    6.2284  -13.4992   26.1996 C   0  0  0  0  0  0  0  0  0  0  0  0
    9.9323  -16.2838   25.5653 N   0  0  0  0  0  0  0  0  0  0  0  0
   10.1478  -17.3142   26.5701 C   0  0  1  0  0  0  0  0  0  0  0  0
   11.2944  -18.1783   26.0926 C   0  0  0  0  0  0  0  0  0  0  0  0
   11.4745  -19.3481   27.0263 C   0  0  0  0  0  0  0  0  0  0  0  0
   12.6680  -20.1953   26.6405 C   0  0  0  0  0  0  0  0  0  0  0  0
   12.8480  -21.3707   27.5568 C   0  0  0  0  0  0  0  0  0  0  0  0
   13.8645  -22.2773   27.0809 N   0  0  0  0  0  0  0  0  0  0  0  0
   10.3387  -16.7717   27.9173 C   0  0  0  0  0  0  0  0  0  0  0  0
   10.6308  -15.5538   28.0235 O   0  0  0  0  0  0  0  0  0  0  0  0
   10.2237  -17.4920   29.0980 O   0  0  0  0  0  0  0  0  0  0  0  0
  2  1  1  6
  2  3  1  0
  3  4  1  0
  4  5  1  0
  5  6  2  0
  5  9  1  0
  7  2  1  0
  8  7  2  0
 10 11  1  0
 11 12  2  0
 11 21  1  0
 12 13  1  0
 13 14  2  0
 14 15  1  0
 16 15  1  6
 16 17  1  0
 17  7  1  0
 18 22  1  0
 18 16  1  0
 19 18  2  0
 20 14  1  0
 21 20  2  0
 23 29  1  0
 23 24  1  6
 23 22  1  0
 25 24  1  0
 26 25  1  0
 27 26  1  0
 27 28  1  0
 29 31  1  0
 30 29  2  0
M  END
$$$$
