EYK.pdb
     RDKit          3D

 31 31  0  0  1  0  0  0  0  0999 V2000
    8.7320  -14.5137   20.5278 N   0  0  0  0  0  0  0  0  0  0  0  0
    8.7642  -15.7580   21.2689 C   0  0  1  0  0  0  0  0  0  0  0  0
    9.7812  -16.7192   20.7018 C   0  0  0  0  0  0  0  0  0  0  0  0
    9.4806  -17.0600   19.2612 C   0  0  0  0  0  0  0  0  0  0  0  0
   10.5031  -18.0102   18.7501 C   0  0  0  0  0  0  0  0  0  0  0  0
   10.5610  -19.1930   19.1871 O   0  0  0  0  0  0  0  0  0  0  0  0
    9.0310  -15.5263   22.7270 C   0  0  0  0  0  0  0  0  0  0  0  0
    9.9550  -14.7574   23.0615 O   0  0  0  0  0  0  0  0  0  0  0  0
   11.4225  -17.6324   17.7820 O   0  0  0  0  0  0  0  0  0  0  0  0
    6.3236  -10.2019   26.5043 O   0  0  0  0  0  0  0  0  0  0  0  0
    6.4998  -11.5644   26.3156 C   0  0  0  0  0  0  0  0  0  0  0  0
    5.6996  -12.3178   25.4822 C   0  0  0  0  0  0  0  0  0  0  0  0
    5.8785  -13.6675   25.2989 C   0  0  0  0  0  0  0  0  0  0  0  0
    6.9010  -14.2890   25.9782 C   0  0  0  0  0  0  0  0  0  0  0  0
    7.1953  -15.7355   25.8662 C   0  0  0  0  0  0  0  0  0  0  0  0
    8.4442  -16.0382   25.1315 C   0  0  2  0  0  0  0  0  0  0  0  0
    8.2494  -16.1677   23.7086 N   0  0  0  0  0  0  0  0  0  0  0  0
    9.2420  -17.1659   25.6870 C   0  0  0  0  0  0  0  0  0  0  0  0
    9.0490  -17.6383   26.8288 O   0  0  0  0  0  0  0  0  0  0  0  0
    7.7326  -13.5583   26.8319 C   0  0  0  0  0  0  0  0  0  0  0  0
    7.5324  -12.2040   26.9988 C   0  0  0  0  0  0  0  0  0  0  0  0
   10.2950  -17.7755   24.9141 N   0  0  0  0  0  0  0  0  0  0  0  0
   11.1330  -18.8362   25.4530 C   0  0  1  0  0  0  0  0  0  0  0  0
   11.9187  -19.4214   24.2999 C   0  0  0  0  0  0  0  0  0  0  0  0
   12.7554  -20.5769   24.7872 C   0  0  0  0  0  0  0  0  0  0  0  0
   13.6405  -21.1303   23.6912 C   0  0  0  0  0  0  0  0  0  0  0  0
   14.5134  -22.2498   24.1792 C   0  0  0  0  0  0  0  0  0  0  0  0
   15.3838  -22.7490   23.1425 N   0  0  0  0  0  0  0  0  0  0  0  0
   11.9680  -18.3955   26.5728 C   0  0  0  0  0  0  0  0  0  0  0  0
   12.5407  -17.2809   26.4747 O   0  0  0  0  0  0  0  0  0  0  0  0
   12.1839  -19.1080   27.7442 O   0  0  0  0  0  0  0  0  0  0  0  0
  2  1  1  6
  2  3  1  0
  3  4  1  0
  4  5  1  0
  5  6  2  0
  5  9  1  0
  7  2  1  0
  8  7  2  0
 10 11  1  0
 11 12  2  0
 11 21  1  0
 12 13  1  0
 13 14  2  0
 14 15  1  0
 16 15  1  1
 16 17  1  0
 17  7  1  0
 18 22  1  0
 18 16  1  0
 19 18  2  0
 20 14  1  0
 21 20  2  0
 23 29  1  0
 23 24  1  6
 23 22  1  0
 25 24  1  0
 26 25  1  0
 27 26  1  0
 27 28  1  0
 29 31  1  0
 30 29  2  0
M  END
$$$$
