EYK.pdb
     RDKit          3D

 31 31  0  0  1  0  0  0  0  0999 V2000
    7.5939  -14.7019   20.5723 N   0  0  0  0  0  0  0  0  0  0  0  0
    7.4681  -15.8938   21.3861 C   0  0  1  0  0  0  0  0  0  0  0  0
    7.9920  -17.1159   20.6707 C   0  0  0  0  0  0  0  0  0  0  0  0
    7.4217  -17.2307   19.2766 C   0  0  0  0  0  0  0  0  0  0  0  0
    7.9548  -18.4526   18.6192 C   0  0  0  0  0  0  0  0  0  0  0  0
    7.6504  -18.7287   17.4257 O   0  0  0  0  0  0  0  0  0  0  0  0
    8.1584  -15.7354   22.7088 C   0  0  0  0  0  0  0  0  0  0  0  0
    9.2286  -15.0963   22.7636 O   0  0  0  0  0  0  0  0  0  0  0  0
    8.7995  -19.3254   19.2900 O   0  0  0  0  0  0  0  0  0  0  0  0
    6.8467   -9.9857   25.9694 O   0  0  0  0  0  0  0  0  0  0  0  0
    6.9957  -11.3625   26.0433 C   0  0  0  0  0  0  0  0  0  0  0  0
    8.1320  -11.9707   26.5346 C   0  0  0  0  0  0  0  0  0  0  0  0
    8.2745  -13.3351   26.6056 C   0  0  0  0  0  0  0  0  0  0  0  0
    7.2361  -14.1239   26.1663 C   0  0  0  0  0  0  0  0  0  0  0  0
    7.2680  -15.6038   26.1898 C   0  0  0  0  0  0  0  0  0  0  0  0
    8.1859  -16.1997   25.1931 C   0  0  2  0  0  0  0  0  0  0  0  0
    7.6071  -16.3004   23.8762 N   0  0  0  0  0  0  0  0  0  0  0  0
    8.8294  -17.4743   25.6152 C   0  0  0  0  0  0  0  0  0  0  0  0
    8.1870  -18.5302   25.8061 O   0  0  0  0  0  0  0  0  0  0  0  0
    6.0687  -13.5436   25.6617 C   0  0  0  0  0  0  0  0  0  0  0  0
    5.9501  -12.1709   25.6010 C   0  0  0  0  0  0  0  0  0  0  0  0
   10.2536  -17.5471   25.8260 N   0  0  0  0  0  0  0  0  0  0  0  0
   10.9074  -18.7716   26.2628 C   0  0  1  0  0  0  0  0  0  0  0  0
   12.3380  -18.7196   25.7726 C   0  0  0  0  0  0  0  0  0  0  0  0
   13.0498  -19.9966   26.1405 C   0  0  0  0  0  0  0  0  0  0  0  0
   14.4971  -19.9798   25.6977 C   0  0  0  0  0  0  0  0  0  0  0  0
   15.2117  -21.2523   26.0492 C   0  0  0  0  0  0  0  0  0  0  0  0
   16.5798  -21.2490   25.5914 N   0  0  0  0  0  0  0  0  0  0  0  0
   10.7852  -19.0056   27.7035 C   0  0  0  0  0  0  0  0  0  0  0  0
   10.6939  -18.0023   28.4552 O   0  0  0  0  0  0  0  0  0  0  0  0
   10.7609  -20.2503   28.3169 O   0  0  0  0  0  0  0  0  0  0  0  0
  2  1  1  6
  2  3  1  0
  3  4  1  0
  4  5  1  0
  5  6  2  0
  5  9  1  0
  7  2  1  0
  8  7  2  0
 10 11  1  0
 11 12  2  0
 11 21  1  0
 12 13  1  0
 13 14  2  0
 14 15  1  0
 16 15  1  1
 16 17  1  0
 17  7  1  0
 18 22  1  0
 18 16  1  0
 19 18  2  0
 20 14  1  0
 21 20  2  0
 23 29  1  0
 23 24  1  1
 23 22  1  0
 25 24  1  0
 26 25  1  0
 27 26  1  0
 27 28  1  0
 29 31  1  0
 30 29  2  0
M  END
$$$$
