EYK.pdb
     RDKit          3D

 31 31  0  0  1  0  0  0  0  0999 V2000
    8.7279  -16.5807   18.8960 N   0  0  0  0  0  0  0  0  0  0  0  0
    9.7595  -17.0518   19.7974 C   0  0  1  0  0  0  0  0  0  0  0  0
   11.1183  -17.0524   19.1390 C   0  0  0  0  0  0  0  0  0  0  0  0
   11.6200  -18.4573   18.9016 C   0  0  0  0  0  0  0  0  0  0  0  0
   12.3999  -18.5008   17.6369 C   0  0  0  0  0  0  0  0  0  0  0  0
   12.9218  -19.5783   17.2370 O   0  0  0  0  0  0  0  0  0  0  0  0
    9.7996  -16.2449   21.0616 C   0  0  0  0  0  0  0  0  0  0  0  0
   10.9028  -15.8753   21.5124 O   0  0  0  0  0  0  0  0  0  0  0  0
   12.5795  -17.3667   16.8580 O   0  0  0  0  0  0  0  0  0  0  0  0
    6.7416  -12.0159   28.2256 O   0  0  0  0  0  0  0  0  0  0  0  0
    6.9141  -12.5583   26.9610 C   0  0  0  0  0  0  0  0  0  0  0  0
    7.6560  -11.9437   25.9739 C   0  0  0  0  0  0  0  0  0  0  0  0
    7.8237  -12.4853   24.7227 C   0  0  0  0  0  0  0  0  0  0  0  0
    7.2237  -13.6927   24.4479 C   0  0  0  0  0  0  0  0  0  0  0  0
    7.3285  -14.3779   23.1398 C   0  0  0  0  0  0  0  0  0  0  0  0
    8.5417  -15.2137   22.9961 C   0  0  2  0  0  0  0  0  0  0  0  0
    8.6078  -15.9072   21.7336 N   0  0  0  0  0  0  0  0  0  0  0  0
    8.8180  -16.1220   24.1430 C   0  0  0  0  0  0  0  0  0  0  0  0
    8.0930  -17.1012   24.4255 O   0  0  0  0  0  0  0  0  0  0  0  0
    6.4640  -14.3455   25.4231 C   0  0  0  0  0  0  0  0  0  0  0  0
    6.3108  -13.7809   26.6719 C   0  0  0  0  0  0  0  0  0  0  0  0
    9.9598  -15.9065   24.9962 N   0  0  0  0  0  0  0  0  0  0  0  0
   10.2562  -16.7777   26.1235 C   0  0  1  0  0  0  0  0  0  0  0  0
   11.4614  -17.6109   25.7461 C   0  0  0  0  0  0  0  0  0  0  0  0
   11.3166  -19.0017   26.3096 C   0  0  0  0  0  0  0  0  0  0  0  0
   12.5015  -19.8755   25.9586 C   0  0  0  0  0  0  0  0  0  0  0  0
   12.4322  -21.2185   26.6258 C   0  0  0  0  0  0  0  0  0  0  0  0
   13.5254  -22.0746   26.2340 N   0  0  0  0  0  0  0  0  0  0  0  0
   10.4128  -16.0508   27.3855 C   0  0  0  0  0  0  0  0  0  0  0  0
   10.6362  -14.8152   27.3271 O   0  0  0  0  0  0  0  0  0  0  0  0
   10.3350  -16.6125   28.6522 O   0  0  0  0  0  0  0  0  0  0  0  0
  2  1  1  6
  2  3  1  0
  3  4  1  0
  4  5  1  0
  5  6  2  0
  5  9  1  0
  7  2  1  0
  8  7  2  0
 10 11  1  0
 11 12  2  0
 11 21  1  0
 12 13  1  0
 13 14  2  0
 14 15  1  0
 16 15  1  1
 16 17  1  0
 17  7  1  0
 18 22  1  0
 18 16  1  0
 19 18  2  0
 20 14  1  0
 21 20  2  0
 23 29  1  0
 23 24  1  6
 23 22  1  0
 25 24  1  0
 26 25  1  0
 27 26  1  0
 27 28  1  0
 29 31  1  0
 30 29  2  0
M  END
$$$$
