EYK.pdb
     RDKit          3D

 31 31  0  0  1  0  0  0  0  0999 V2000
    8.9843  -18.5957   20.6914 N   0  0  0  0  0  0  0  0  0  0  0  0
   10.1935  -17.8682   21.0184 C   0  0  1  0  0  0  0  0  0  0  0  0
   10.8133  -17.2371   19.7947 C   0  0  0  0  0  0  0  0  0  0  0  0
   10.9970  -18.2435   18.6833 C   0  0  0  0  0  0  0  0  0  0  0  0
   11.5473  -17.5637   17.4814 C   0  0  0  0  0  0  0  0  0  0  0  0
   11.2735  -17.9805   16.3218 O   0  0  0  0  0  0  0  0  0  0  0  0
    9.9441  -16.8240   22.0665 C   0  0  0  0  0  0  0  0  0  0  0  0
   10.9145  -16.2179   22.5641 O   0  0  0  0  0  0  0  0  0  0  0  0
   12.3749  -16.4555   17.5920 O   0  0  0  0  0  0  0  0  0  0  0  0
    7.8062  -12.9406   17.6352 O   0  0  0  0  0  0  0  0  0  0  0  0
    7.6882  -13.3115   18.9663 C   0  0  0  0  0  0  0  0  0  0  0  0
    8.2671  -12.6030   19.9985 C   0  0  0  0  0  0  0  0  0  0  0  0
    8.1472  -12.9749   21.3155 C   0  0  0  0  0  0  0  0  0  0  0  0
    7.4173  -14.1032   21.6117 C   0  0  0  0  0  0  0  0  0  0  0  0
    7.2155  -14.6072   22.9889 C   0  0  0  0  0  0  0  0  0  0  0  0
    8.2824  -15.5210   23.4554 C   0  0  2  0  0  0  0  0  0  0  0  0
    8.6312  -16.5295   22.4855 N   0  0  0  0  0  0  0  0  0  0  0  0
    8.0628  -16.1044   24.8075 C   0  0  0  0  0  0  0  0  0  0  0  0
    7.7337  -15.4177   25.7996 O   0  0  0  0  0  0  0  0  0  0  0  0
    6.8160  -14.8470   20.5921 C   0  0  0  0  0  0  0  0  0  0  0  0
    6.9512  -14.4527   19.2775 C   0  0  0  0  0  0  0  0  0  0  0  0
    8.2235  -17.5186   25.0357 N   0  0  0  0  0  0  0  0  0  0  0  0
    8.1012  -18.1053   26.3618 C   0  0  1  0  0  0  0  0  0  0  0  0
    7.7580  -19.5675   26.1792 C   0  0  0  0  0  0  0  0  0  0  0  0
    7.5939  -20.2249   27.5259 C   0  0  0  0  0  0  0  0  0  0  0  0
    7.3470  -21.7127   27.3977 C   0  0  0  0  0  0  0  0  0  0  0  0
    7.1454  -22.3704   28.7320 C   0  0  0  0  0  0  0  0  0  0  0  0
    6.8233  -23.7706   28.6022 N   0  0  0  0  0  0  0  0  0  0  0  0
    9.2787  -17.8758   27.2022 C   0  0  0  0  0  0  0  0  0  0  0  0
    9.0893  -17.5435   28.3996 O   0  0  0  0  0  0  0  0  0  0  0  0
   10.5980  -17.9947   26.7879 O   0  0  0  0  0  0  0  0  0  0  0  0
  2  1  1  6
  2  3  1  0
  3  4  1  0
  4  5  1  0
  5  6  2  0
  5  9  1  0
  7  2  1  0
  8  7  2  0
 10 11  1  0
 11 12  2  0
 11 21  1  0
 12 13  1  0
 13 14  2  0
 14 15  1  0
 16 15  1  6
 16 17  1  0
 17  7  1  0
 18 22  1  0
 18 16  1  0
 19 18  2  0
 20 14  1  0
 21 20  2  0
 23 29  1  0
 23 24  1  6
 23 22  1  0
 25 24  1  0
 26 25  1  0
 27 26  1  0
 27 28  1  0
 29 31  1  0
 30 29  2  0
M  END
$$$$
