EYK.pdb
     RDKit          3D

 31 31  0  0  1  0  0  0  0  0999 V2000
   10.5148  -16.5470   18.6253 N   0  0  0  0  0  0  0  0  0  0  0  0
    9.4435  -16.9046   19.5326 C   0  0  1  0  0  0  0  0  0  0  0  0
    9.3756  -18.3964   19.7557 C   0  0  0  0  0  0  0  0  0  0  0  0
    9.4118  -19.1555   18.4502 C   0  0  0  0  0  0  0  0  0  0  0  0
    8.7395  -20.4704   18.6197 C   0  0  0  0  0  0  0  0  0  0  0  0
    8.0153  -20.7001   19.6277 O   0  0  0  0  0  0  0  0  0  0  0  0
    9.5711  -16.1921   20.8468 C   0  0  0  0  0  0  0  0  0  0  0  0
   10.6443  -16.2692   21.4786 O   0  0  0  0  0  0  0  0  0  0  0  0
    8.8838  -21.4832   17.6822 O   0  0  0  0  0  0  0  0  0  0  0  0
    7.0150  -11.8623   28.1223 O   0  0  0  0  0  0  0  0  0  0  0  0
    7.0472  -12.4283   26.8566 C   0  0  0  0  0  0  0  0  0  0  0  0
    6.3518  -13.5729   26.5268 C   0  0  0  0  0  0  0  0  0  0  0  0
    6.3872  -14.1295   25.2714 C   0  0  0  0  0  0  0  0  0  0  0  0
    7.1505  -13.5146   24.3056 C   0  0  0  0  0  0  0  0  0  0  0  0
    7.2710  -14.0160   22.9180 C   0  0  0  0  0  0  0  0  0  0  0  0
    8.4227  -14.9213   22.7054 C   0  0  2  0  0  0  0  0  0  0  0  0
    8.4940  -15.4446   21.3635 N   0  0  0  0  0  0  0  0  0  0  0  0
    8.5761  -15.9929   23.7275 C   0  0  0  0  0  0  0  0  0  0  0  0
    7.8642  -17.0210   23.7477 O   0  0  0  0  0  0  0  0  0  0  0  0
    7.8693  -12.3529   24.6026 C   0  0  0  0  0  0  0  0  0  0  0  0
    7.8172  -11.8136   25.8709 C   0  0  0  0  0  0  0  0  0  0  0  0
    9.5755  -15.8888   24.7611 N   0  0  0  0  0  0  0  0  0  0  0  0
    9.8085  -16.9584   25.7199 C   0  0  1  0  0  0  0  0  0  0  0  0
   11.0425  -17.7088   25.2688 C   0  0  0  0  0  0  0  0  0  0  0  0
   11.3571  -18.8094   26.2498 C   0  0  0  0  0  0  0  0  0  0  0  0
   12.5778  -19.6011   25.8324 C   0  0  0  0  0  0  0  0  0  0  0  0
   12.8835  -20.7169   26.7890 C   0  0  0  0  0  0  0  0  0  0  0  0
   14.0400  -21.4772   26.3820 N   0  0  0  0  0  0  0  0  0  0  0  0
    9.8793  -16.4838   27.1039 C   0  0  0  0  0  0  0  0  0  0  0  0
   10.2993  -15.3160   27.3030 O   0  0  0  0  0  0  0  0  0  0  0  0
    9.5192  -17.2180   28.2252 O   0  0  0  0  0  0  0  0  0  0  0  0
  2  1  1  6
  2  3  1  0
  3  4  1  0
  4  5  1  0
  5  6  2  0
  5  9  1  0
  7  2  1  0
  8  7  2  0
 10 11  1  0
 11 12  2  0
 11 21  1  0
 12 13  1  0
 13 14  2  0
 14 15  1  0
 16 15  1  1
 16 17  1  0
 17  7  1  0
 18 22  1  0
 18 16  1  0
 19 18  2  0
 20 14  1  0
 21 20  2  0
 23 29  1  0
 23 24  1  6
 23 22  1  0
 25 24  1  0
 26 25  1  0
 27 26  1  0
 27 28  1  0
 29 31  1  0
 30 29  2  0
M  END
$$$$
