EYK.pdb
     RDKit          3D

 31 31  0  0  1  0  0  0  0  0999 V2000
   10.4266  -16.7022   18.7782 N   0  0  0  0  0  0  0  0  0  0  0  0
    9.1832  -16.6175   19.5167 C   0  0  1  0  0  0  0  0  0  0  0  0
    8.5037  -17.9619   19.6216 C   0  0  0  0  0  0  0  0  0  0  0  0
    8.4228  -18.6496   18.2791 C   0  0  0  0  0  0  0  0  0  0  0  0
    7.6277  -19.8991   18.4065 C   0  0  0  0  0  0  0  0  0  0  0  0
    8.1919  -21.0281   18.3877 O   0  0  0  0  0  0  0  0  0  0  0  0
    9.3910  -16.0370   20.8845 C   0  0  0  0  0  0  0  0  0  0  0  0
   10.3670  -16.4148   21.5637 O   0  0  0  0  0  0  0  0  0  0  0  0
    6.2479  -19.8676   18.5497 O   0  0  0  0  0  0  0  0  0  0  0  0
    6.9993  -11.9810   28.4049 O   0  0  0  0  0  0  0  0  0  0  0  0
    7.1512  -12.3462   27.0757 C   0  0  0  0  0  0  0  0  0  0  0  0
    8.1766  -11.8795   26.2800 C   0  0  0  0  0  0  0  0  0  0  0  0
    8.3225  -12.2445   24.9637 C   0  0  0  0  0  0  0  0  0  0  0  0
    7.4035  -13.1131   24.4211 C   0  0  0  0  0  0  0  0  0  0  0  0
    7.4512  -13.5805   23.0173 C   0  0  0  0  0  0  0  0  0  0  0  0
    8.4601  -14.6351   22.7704 C   0  0  2  0  0  0  0  0  0  0  0  0
    8.4965  -15.0767   21.3981 N   0  0  0  0  0  0  0  0  0  0  0  0
    8.4168  -15.7805   23.7206 C   0  0  0  0  0  0  0  0  0  0  0  0
    7.4967  -16.6276   23.7237 O   0  0  0  0  0  0  0  0  0  0  0  0
    6.3506  -13.6072   25.1966 C   0  0  0  0  0  0  0  0  0  0  0  0
    6.2261  -13.2256   26.5160 C   0  0  0  0  0  0  0  0  0  0  0  0
    9.4582  -15.9663   24.6999 N   0  0  0  0  0  0  0  0  0  0  0  0
    9.4871  -17.1200   25.5864 C   0  0  1  0  0  0  0  0  0  0  0  0
   10.2281  -18.2250   24.8658 C   0  0  0  0  0  0  0  0  0  0  0  0
   10.3728  -19.4189   25.7749 C   0  0  0  0  0  0  0  0  0  0  0  0
   11.1729  -20.5264   25.1236 C   0  0  0  0  0  0  0  0  0  0  0  0
   11.3688  -21.6984   26.0409 C   0  0  0  0  0  0  0  0  0  0  0  0
   12.5253  -21.5356   26.8879 N   0  0  0  0  0  0  0  0  0  0  0  0
   10.0292  -16.8124   26.9118 C   0  0  0  0  0  0  0  0  0  0  0  0
   10.7787  -15.8092   27.0210 O   0  0  0  0  0  0  0  0  0  0  0  0
    9.7849  -17.5387   28.0690 O   0  0  0  0  0  0  0  0  0  0  0  0
  2  1  1  1
  2  3  1  0
  3  4  1  0
  4  5  1  0
  5  6  2  0
  5  9  1  0
  7  2  1  0
  8  7  2  0
 10 11  1  0
 11 12  2  0
 11 21  1  0
 12 13  1  0
 13 14  2  0
 14 15  1  0
 16 15  1  6
 16 17  1  0
 17  7  1  0
 18 22  1  0
 18 16  1  0
 19 18  2  0
 20 14  1  0
 21 20  2  0
 23 29  1  0
 23 24  1  6
 23 22  1  0
 25 24  1  0
 26 25  1  0
 27 26  1  0
 27 28  1  0
 29 31  1  0
 30 29  2  0
M  END
$$$$
