EYK.pdb
     RDKit          3D

 31 31  0  0  1  0  0  0  0  0999 V2000
    9.6849  -18.6281   20.8168 N   0  0  0  0  0  0  0  0  0  0  0  0
   10.8459  -17.7667   20.9105 C   0  0  1  0  0  0  0  0  0  0  0  0
   11.2221  -17.1890   19.5672 C   0  0  0  0  0  0  0  0  0  0  0  0
   11.1240  -18.2233   18.4705 C   0  0  0  0  0  0  0  0  0  0  0  0
   12.3235  -18.1385   17.5968 C   0  0  0  0  0  0  0  0  0  0  0  0
   12.4579  -18.9112   16.6079 O   0  0  0  0  0  0  0  0  0  0  0  0
   10.6368  -16.6635   21.9057 C   0  0  0  0  0  0  0  0  0  0  0  0
   11.5723  -15.8727   22.1424 O   0  0  0  0  0  0  0  0  0  0  0  0
   13.3296  -17.2134   17.8365 O   0  0  0  0  0  0  0  0  0  0  0  0
    6.4939  -11.3317   27.5839 O   0  0  0  0  0  0  0  0  0  0  0  0
    6.7631  -12.3098   26.6383 C   0  0  0  0  0  0  0  0  0  0  0  0
    6.4675  -13.6432   26.8305 C   0  0  0  0  0  0  0  0  0  0  0  0
    6.7363  -14.6082   25.8905 C   0  0  0  0  0  0  0  0  0  0  0  0
    7.3257  -14.2222   24.7085 C   0  0  0  0  0  0  0  0  0  0  0  0
    7.6656  -15.1653   23.6192 C   0  0  0  0  0  0  0  0  0  0  0  0
    9.1039  -15.5082   23.5500 C   0  0  2  0  0  0  0  0  0  0  0  0
    9.4002  -16.5201   22.5662 N   0  0  0  0  0  0  0  0  0  0  0  0
    9.7423  -15.8061   24.8616 C   0  0  0  0  0  0  0  0  0  0  0  0
    9.8005  -14.9751   25.7944 O   0  0  0  0  0  0  0  0  0  0  0  0
    7.6400  -12.8797   24.4777 C   0  0  0  0  0  0  0  0  0  0  0  0
    7.3599  -11.9299   25.4376 C   0  0  0  0  0  0  0  0  0  0  0  0
   10.3338  -17.0954   25.1182 N   0  0  0  0  0  0  0  0  0  0  0  0
   11.0257  -17.3931   26.3633 C   0  0  1  0  0  0  0  0  0  0  0  0
   10.1743  -18.3832   27.1278 C   0  0  0  0  0  0  0  0  0  0  0  0
   10.8538  -18.7462   28.4236 C   0  0  0  0  0  0  0  0  0  0  0  0
   10.0391  -19.7381   29.2257 C   0  0  0  0  0  0  0  0  0  0  0  0
   10.6724  -20.0516   30.5502 C   0  0  0  0  0  0  0  0  0  0  0  0
    9.8661  -20.9538   31.3358 N   0  0  0  0  0  0  0  0  0  0  0  0
   12.4073  -17.8353   26.1612 C   0  0  0  0  0  0  0  0  0  0  0  0
   12.6373  -18.6268   25.2122 O   0  0  0  0  0  0  0  0  0  0  0  0
   13.4953  -17.4525   26.9332 O   0  0  0  0  0  0  0  0  0  0  0  0
  2  1  1  6
  2  3  1  0
  3  4  1  0
  4  5  1  0
  5  6  2  0
  5  9  1  0
  7  2  1  0
  8  7  2  0
 10 11  1  0
 11 12  2  0
 11 21  1  0
 12 13  1  0
 13 14  2  0
 14 15  1  0
 16 15  1  1
 16 17  1  0
 17  7  1  0
 18 22  1  0
 18 16  1  0
 19 18  2  0
 20 14  1  0
 21 20  2  0
 23 29  1  0
 23 24  1  6
 23 22  1  0
 25 24  1  0
 26 25  1  0
 27 26  1  0
 27 28  1  0
 29 31  1  0
 30 29  2  0
M  END
$$$$
