EYK.pdb
     RDKit          3D

 31 31  0  0  1  0  0  0  0  0999 V2000
    8.7358  -17.7516   19.4279 N   0  0  0  0  0  0  0  0  0  0  0  0
    9.7545  -18.2449   20.3321 C   0  0  1  0  0  0  0  0  0  0  0  0
   11.0573  -18.5072   19.6153 C   0  0  0  0  0  0  0  0  0  0  0  0
   11.1588  -19.9425   19.1551 C   0  0  0  0  0  0  0  0  0  0  0  0
   11.7267  -19.9865   17.7822 C   0  0  0  0  0  0  0  0  0  0  0  0
   12.8357  -19.4414   17.5244 O   0  0  0  0  0  0  0  0  0  0  0  0
    9.9778  -17.3041   21.4793 C   0  0  0  0  0  0  0  0  0  0  0  0
   11.1414  -16.9504   21.7580 O   0  0  0  0  0  0  0  0  0  0  0  0
   11.0622  -20.6238   16.7441 O   0  0  0  0  0  0  0  0  0  0  0  0
    7.4771  -12.2050   18.3174 O   0  0  0  0  0  0  0  0  0  0  0  0
    7.5544  -12.8855   19.5233 C   0  0  0  0  0  0  0  0  0  0  0  0
    6.7893  -13.9968   19.8099 C   0  0  0  0  0  0  0  0  0  0  0  0
    6.8697  -14.6672   21.0062 C   0  0  0  0  0  0  0  0  0  0  0  0
    7.7529  -14.2060   21.9553 C   0  0  0  0  0  0  0  0  0  0  0  0
    7.9313  -14.8396   23.2813 C   0  0  0  0  0  0  0  0  0  0  0  0
    8.9896  -15.8741   23.3141 C   0  0  2  0  0  0  0  0  0  0  0  0
    8.8888  -16.8245   22.2343 N   0  0  0  0  0  0  0  0  0  0  0  0
    9.1697  -16.5467   24.6301 C   0  0  0  0  0  0  0  0  0  0  0  0
    8.2666  -17.2114   25.1838 O   0  0  0  0  0  0  0  0  0  0  0  0
    8.5449  -13.0826   21.7008 C   0  0  0  0  0  0  0  0  0  0  0  0
    8.4456  -12.4269   20.4916 C   0  0  0  0  0  0  0  0  0  0  0  0
   10.4223  -16.4587   25.3382 N   0  0  0  0  0  0  0  0  0  0  0  0
   10.6341  -17.1201   26.6170 C   0  0  1  0  0  0  0  0  0  0  0  0
   11.7868  -18.0844   26.4415 C   0  0  0  0  0  0  0  0  0  0  0  0
   11.3489  -19.2545   25.5977 C   0  0  0  0  0  0  0  0  0  0  0  0
   12.4931  -20.2057   25.3204 C   0  0  0  0  0  0  0  0  0  0  0  0
   12.0499  -21.4152   24.5496 C   0  0  0  0  0  0  0  0  0  0  0  0
   13.1614  -22.2548   24.1738 N   0  0  0  0  0  0  0  0  0  0  0  0
   10.8137  -16.1810   27.7265 C   0  0  0  0  0  0  0  0  0  0  0  0
   11.2078  -15.0190   27.4539 O   0  0  0  0  0  0  0  0  0  0  0  0
   10.5842  -16.4649   29.0656 O   0  0  0  0  0  0  0  0  0  0  0  0
  2  1  1  6
  2  3  1  0
  3  4  1  0
  4  5  1  0
  5  6  2  0
  5  9  1  0
  7  2  1  0
  8  7  2  0
 10 11  1  0
 11 12  2  0
 11 21  1  0
 12 13  1  0
 13 14  2  0
 14 15  1  0
 16 15  1  1
 16 17  1  0
 17  7  1  0
 18 22  1  0
 18 16  1  0
 19 18  2  0
 20 14  1  0
 21 20  2  0
 23 29  1  0
 23 24  1  6
 23 22  1  0
 25 24  1  0
 26 25  1  0
 27 26  1  0
 27 28  1  0
 29 31  1  0
 30 29  2  0
M  END
$$$$
