EYK.pdb
     RDKit          3D

 31 31  0  0  1  0  0  0  0  0999 V2000
   10.2503  -17.0483   18.6927 N   0  0  0  0  0  0  0  0  0  0  0  0
    9.0909  -17.0813   19.5607 C   0  0  1  0  0  0  0  0  0  0  0  0
    8.6890  -18.4962   19.9016 C   0  0  0  0  0  0  0  0  0  0  0  0
    8.2360  -19.2554   18.6767 C   0  0  0  0  0  0  0  0  0  0  0  0
    6.7566  -19.3981   18.6977 C   0  0  0  0  0  0  0  0  0  0  0  0
    6.1391  -19.5611   19.7865 O   0  0  0  0  0  0  0  0  0  0  0  0
    9.3184  -16.2932   20.8170 C   0  0  0  0  0  0  0  0  0  0  0  0
   10.4526  -16.2914   21.3368 O   0  0  0  0  0  0  0  0  0  0  0  0
    6.0088  -19.3571   17.5296 O   0  0  0  0  0  0  0  0  0  0  0  0
    7.2360  -11.8941   28.1973 O   0  0  0  0  0  0  0  0  0  0  0  0
    7.1824  -12.4753   26.9393 C   0  0  0  0  0  0  0  0  0  0  0  0
    6.4376  -13.6029   26.6630 C   0  0  0  0  0  0  0  0  0  0  0  0
    6.3880  -14.1747   25.4150 C   0  0  0  0  0  0  0  0  0  0  0  0
    7.1144  -13.5936   24.4010 C   0  0  0  0  0  0  0  0  0  0  0  0
    7.1440  -14.1142   23.0155 C   0  0  0  0  0  0  0  0  0  0  0  0
    8.2908  -15.0071   22.7348 C   0  0  2  0  0  0  0  0  0  0  0  0
    8.2658  -15.5633   21.4046 N   0  0  0  0  0  0  0  0  0  0  0  0
    8.5422  -16.0498   23.7674 C   0  0  0  0  0  0  0  0  0  0  0  0
    7.7872  -17.0317   23.9408 O   0  0  0  0  0  0  0  0  0  0  0  0
    7.8811  -12.4500   24.6430 C   0  0  0  0  0  0  0  0  0  0  0  0
    7.9142  -11.8948   25.9050 C   0  0  0  0  0  0  0  0  0  0  0  0
    9.6938  -15.9704   24.6309 N   0  0  0  0  0  0  0  0  0  0  0  0
    9.9454  -16.9532   25.6741 C   0  0  1  0  0  0  0  0  0  0  0  0
   11.2405  -17.6559   25.3300 C   0  0  0  0  0  0  0  0  0  0  0  0
   11.0532  -18.4914   24.0892 C   0  0  0  0  0  0  0  0  0  0  0  0
   12.3430  -19.1584   23.6619 C   0  0  0  0  0  0  0  0  0  0  0  0
   12.1993  -19.8850   22.3562 C   0  0  0  0  0  0  0  0  0  0  0  0
   13.4668  -20.3646   21.8613 N   0  0  0  0  0  0  0  0  0  0  0  0
    9.9254  -16.3787   27.0214 C   0  0  0  0  0  0  0  0  0  0  0  0
    9.9939  -15.1281   27.1271 O   0  0  0  0  0  0  0  0  0  0  0  0
    9.8362  -17.1017   28.2027 O   0  0  0  0  0  0  0  0  0  0  0  0
  2  1  1  6
  2  3  1  0
  3  4  1  0
  4  5  1  0
  5  6  2  0
  5  9  1  0
  7  2  1  0
  8  7  2  0
 10 11  1  0
 11 12  2  0
 11 21  1  0
 12 13  1  0
 13 14  2  0
 14 15  1  0
 16 15  1  1
 16 17  1  0
 17  7  1  0
 18 22  1  0
 18 16  1  0
 19 18  2  0
 20 14  1  0
 21 20  2  0
 23 29  1  0
 23 24  1  6
 23 22  1  0
 25 24  1  0
 26 25  1  0
 27 26  1  0
 27 28  1  0
 29 31  1  0
 30 29  2  0
M  END
$$$$
