EYK.pdb
     RDKit          3D

 31 31  0  0  1  0  0  0  0  0999 V2000
    7.9219  -14.3284   20.0218 N   0  0  0  0  0  0  0  0  0  0  0  0
    7.8137  -15.5521   20.7897 C   0  0  1  0  0  0  0  0  0  0  0  0
    8.4787  -16.7119   20.0880 C   0  0  0  0  0  0  0  0  0  0  0  0
    7.8759  -16.9558   18.7245 C   0  0  0  0  0  0  0  0  0  0  0  0
    8.3837  -18.2415   18.1779 C   0  0  0  0  0  0  0  0  0  0  0  0
    9.2127  -18.9368   18.8279 O   0  0  0  0  0  0  0  0  0  0  0  0
    8.3806  -15.3909   22.1694 C   0  0  0  0  0  0  0  0  0  0  0  0
    9.4791  -14.8166   22.3123 O   0  0  0  0  0  0  0  0  0  0  0  0
    7.9666  -18.7181   16.9433 O   0  0  0  0  0  0  0  0  0  0  0  0
    6.5828   -9.9200   26.2932 O   0  0  0  0  0  0  0  0  0  0  0  0
    6.6892  -11.2891   26.0996 C   0  0  0  0  0  0  0  0  0  0  0  0
    5.8946  -11.9874   25.2145 C   0  0  0  0  0  0  0  0  0  0  0  0
    6.0041  -13.3438   25.0265 C   0  0  0  0  0  0  0  0  0  0  0  0
    6.9486  -14.0299   25.7549 C   0  0  0  0  0  0  0  0  0  0  0  0
    7.1635  -15.4904   25.6434 C   0  0  0  0  0  0  0  0  0  0  0  0
    8.1861  -15.8713   24.6432 C   0  0  2  0  0  0  0  0  0  0  0  0
    7.6832  -15.8809   23.2917 N   0  0  0  0  0  0  0  0  0  0  0  0
    8.9443  -17.1124   24.9617 C   0  0  0  0  0  0  0  0  0  0  0  0
    8.5488  -18.2536   24.6370 O   0  0  0  0  0  0  0  0  0  0  0  0
    7.7722  -13.3563   26.6616 C   0  0  0  0  0  0  0  0  0  0  0  0
    7.6426  -11.9939   26.8321 C   0  0  0  0  0  0  0  0  0  0  0  0
   10.1959  -17.0499   25.6741 N   0  0  0  0  0  0  0  0  0  0  0  0
   10.9341  -18.2481   26.0441 C   0  0  1  0  0  0  0  0  0  0  0  0
   12.3048  -18.1480   25.4111 C   0  0  0  0  0  0  0  0  0  0  0  0
   13.1258  -19.3577   25.7787 C   0  0  0  0  0  0  0  0  0  0  0  0
   14.4746  -19.3503   25.0918 C   0  0  0  0  0  0  0  0  0  0  0  0
   15.2735  -20.5835   25.3992 C   0  0  0  0  0  0  0  0  0  0  0  0
   16.4782  -20.6589   24.6090 N   0  0  0  0  0  0  0  0  0  0  0  0
   10.9671  -18.4787   27.4902 C   0  0  0  0  0  0  0  0  0  0  0  0
   10.6208  -17.5337   28.2432 O   0  0  0  0  0  0  0  0  0  0  0  0
   11.3508  -19.6611   28.1075 O   0  0  0  0  0  0  0  0  0  0  0  0
  2  1  1  6
  2  3  1  0
  3  4  1  0
  4  5  1  0
  5  6  2  0
  5  9  1  0
  7  2  1  0
  8  7  2  0
 10 11  1  0
 11 12  2  0
 11 21  1  0
 12 13  1  0
 13 14  2  0
 14 15  1  0
 16 15  1  1
 16 17  1  0
 17  7  1  0
 18 22  1  0
 18 16  1  0
 19 18  2  0
 20 14  1  0
 21 20  2  0
 23 29  1  0
 23 24  1  1
 23 22  1  0
 25 24  1  0
 26 25  1  0
 27 26  1  0
 27 28  1  0
 29 31  1  0
 30 29  2  0
M  END
$$$$
