VPV.pdb
     RDKit          3D

 22 22  0  0  1  0  0  0  0  0999 V2000
   10.7963  -19.7118   19.8241 C   0  0  0  0  0  0  0  0  0  0  0  0
   10.6865  -18.7127   20.9532 C   0  0  2  0  0  0  0  0  0  0  0  0
    9.5978  -19.2074   21.8808 C   0  0  0  0  0  0  0  0  0  0  0  0
   10.3585  -17.3309   20.4160 C   0  0  2  0  0  0  0  0  0  0  0  0
   11.2298  -16.9523   19.3391 N   0  0  0  0  0  0  0  0  0  0  0  0
   10.2030  -16.3412   21.4848 C   0  0  0  0  0  0  0  0  0  0  0  0
   11.2655  -15.7149   21.8341 O   0  0  0  0  0  0  0  0  0  0  0  0
    9.0073  -16.0069   22.1684 N   0  0  0  0  0  0  0  0  0  0  0  0
    7.6635  -16.5274   22.0724 C   0  0  0  0  0  0  0  0  0  0  0  0
    6.8409  -15.2294   22.0242 C   0  0  0  0  0  0  0  0  0  0  0  0
    7.5339  -14.3454   23.0090 C   0  0  0  0  0  0  0  0  0  0  0  0
    8.8701  -14.9677   23.2113 C   0  0  1  0  0  0  0  0  0  0  0  0
    9.1188  -15.5106   24.5450 C   0  0  0  0  0  0  0  0  0  0  0  0
    9.1557  -16.7607   24.6757 O   0  0  0  0  0  0  0  0  0  0  0  0
   10.8753  -14.5676   29.1628 C   0  0  0  0  0  0  0  0  0  0  0  0
   10.1987  -14.0698   27.9109 C   0  0  2  0  0  0  0  0  0  0  0  0
    8.8417  -13.5139   28.2865 C   0  0  0  0  0  0  0  0  0  0  0  0
   10.0397  -15.1498   26.8708 C   0  0  2  0  0  0  0  0  0  0  0  0
    9.3234  -14.7291   25.7131 N   0  0  0  0  0  0  0  0  0  0  0  0
    9.4772  -16.3478   27.5178 C   0  0  0  0  0  0  0  0  0  0  0  0
   10.2066  -17.1720   28.3573 O   0  0  0  0  0  0  0  0  0  0  0  0
    8.2766  -16.6492   27.3063 O   0  0  0  0  0  0  0  0  0  0  0  0
  2  1  1  6
  2  4  1  0
  2  3  1  0
  4  6  1  0
  4  5  1  6
  6  8  1  0
  6  7  2  0
  8 12  1  0
  9 10  1  0
  9  8  1  0
 10 11  1  0
 11 12  1  0
 12 13  1  1
 13 14  2  0
 16 18  1  0
 16 15  1  1
 17 16  1  0
 18 20  1  0
 19 13  1  0
 18 19  1  6
 20 21  1  0
 22 20  2  0
M  END
$$$$
