VPV.pdb
     RDKit          3D

 22 22  0  0  1  0  0  0  0  0999 V2000
    8.8498  -20.3929   21.0104 C   0  0  0  0  0  0  0  0  0  0  0  0
    8.8323  -19.0388   21.6821 C   0  0  2  0  0  0  0  0  0  0  0  0
    7.3833  -18.6926   21.9478 C   0  0  0  0  0  0  0  0  0  0  0  0
    9.4890  -17.9936   20.7978 C   0  0  2  0  0  0  0  0  0  0  0  0
   10.7797  -18.4177   20.3324 N   0  0  0  0  0  0  0  0  0  0  0  0
    9.4354  -16.6534   21.3871 C   0  0  0  0  0  0  0  0  0  0  0  0
   10.4814  -16.2734   22.0231 O   0  0  0  0  0  0  0  0  0  0  0  0
    8.3536  -15.7397   21.3275 N   0  0  0  0  0  0  0  0  0  0  0  0
    7.0768  -15.7990   20.6549 C   0  0  0  0  0  0  0  0  0  0  0  0
    7.0105  -14.4041   20.0118 C   0  0  0  0  0  0  0  0  0  0  0  0
    7.5772  -13.5110   21.0666 C   0  0  0  0  0  0  0  0  0  0  0  0
    8.2978  -14.4221   21.9962 C   0  0  1  0  0  0  0  0  0  0  0  0
    7.7351  -14.5269   23.3408 C   0  0  0  0  0  0  0  0  0  0  0  0
    7.2631  -15.6364   23.6981 O   0  0  0  0  0  0  0  0  0  0  0  0
    7.4783  -12.6014   27.9636 C   0  0  0  0  0  0  0  0  0  0  0  0
    7.2886  -12.4362   26.4771 C   0  0  2  0  0  0  0  0  0  0  0  0
    5.8104  -12.2691   26.1968 C   0  0  0  0  0  0  0  0  0  0  0  0
    7.8301  -13.6037   25.6916 C   0  0  2  0  0  0  0  0  0  0  0  0
    7.6799  -13.4643   24.2815 N   0  0  0  0  0  0  0  0  0  0  0  0
    7.2511  -14.8452   26.2334 C   0  0  0  0  0  0  0  0  0  0  0  0
    6.2873  -15.5867   25.5720 O   0  0  0  0  0  0  0  0  0  0  0  0
    7.6419  -15.2645   27.3507 O   0  0  0  0  0  0  0  0  0  0  0  0
  2  1  1  6
  2  4  1  0
  2  3  1  0
  4  6  1  0
  4  5  1  1
  6  8  1  0
  6  7  2  0
  8 12  1  0
  9 10  1  0
  9  8  1  0
 10 11  1  0
 11 12  1  0
 12 13  1  1
 13 14  2  0
 16 18  1  0
 16 15  1  1
 17 16  1  0
 18 20  1  0
 19 13  1  0
 18 19  1  6
 20 21  1  0
 22 20  2  0
M  END
$$$$
