VPV.pdb
     RDKit          3D

 22 22  0  0  1  0  0  0  0  0999 V2000
    8.4307  -16.0543   21.4402 C   0  0  0  0  0  0  0  0  0  0  0  0
    7.2077  -15.1666   21.4010 C   0  0  2  0  0  0  0  0  0  0  0  0
    6.5325  -15.3979   20.0664 C   0  0  0  0  0  0  0  0  0  0  0  0
    7.5982  -13.7088   21.5686 C   0  0  2  0  0  0  0  0  0  0  0  0
    8.3777  -13.2306   20.4614 N   0  0  0  0  0  0  0  0  0  0  0  0
    8.1458  -13.4292   22.8984 C   0  0  0  0  0  0  0  0  0  0  0  0
    9.3912  -13.1293   22.9451 O   0  0  0  0  0  0  0  0  0  0  0  0
    7.4458  -13.4560   24.1304 N   0  0  0  0  0  0  0  0  0  0  0  0
    6.0777  -13.7860   24.4556 C   0  0  0  0  0  0  0  0  0  0  0  0
    5.7027  -12.6254   25.3916 C   0  0  0  0  0  0  0  0  0  0  0  0
    6.9367  -12.4306   26.2107 C   0  0  0  0  0  0  0  0  0  0  0  0
    8.0142  -13.1239   25.4544 C   0  0  1  0  0  0  0  0  0  0  0  0
    8.5842  -14.3024   26.1039 C   0  0  0  0  0  0  0  0  0  0  0  0
    8.3549  -15.4275   25.5912 O   0  0  0  0  0  0  0  0  0  0  0  0
   11.9574  -16.0783   29.3842 C   0  0  0  0  0  0  0  0  0  0  0  0
   11.1393  -14.9223   28.8672 C   0  0  2  0  0  0  0  0  0  0  0  0
   10.2734  -14.4037   29.9953 C   0  0  0  0  0  0  0  0  0  0  0  0
   10.2750  -15.3049   27.6924 C   0  0  2  0  0  0  0  0  0  0  0  0
    9.3828  -14.2741   27.2780 N   0  0  0  0  0  0  0  0  0  0  0  0
    9.6098  -16.5843   27.9938 C   0  0  0  0  0  0  0  0  0  0  0  0
   10.2777  -17.7958   28.0420 O   0  0  0  0  0  0  0  0  0  0  0  0
    8.3747  -16.5918   28.2207 O   0  0  0  0  0  0  0  0  0  0  0  0
  2  1  1  6
  2  4  1  0
  2  3  1  0
  4  6  1  0
  4  5  1  6
  6  8  1  0
  6  7  2  0
  8 12  1  0
  9 10  1  0
  9  8  1  0
 10 11  1  0
 11 12  1  0
 12 13  1  1
 13 14  2  0
 16 18  1  0
 16 15  1  1
 17 16  1  0
 18 20  1  0
 19 13  1  0
 18 19  1  1
 20 21  1  0
 22 20  2  0
M  END
$$$$
