VPV.pdb
     RDKit          3D

 22 22  0  0  1  0  0  0  0  0999 V2000
    5.0025  -17.5939   23.1582 C   0  0  0  0  0  0  0  0  0  0  0  0
    4.6723  -17.1284   21.7584 C   0  0  2  0  0  0  0  0  0  0  0  0
    3.4694  -17.9228   21.2974 C   0  0  0  0  0  0  0  0  0  0  0  0
    5.8546  -17.3418   20.8299 C   0  0  2  0  0  0  0  0  0  0  0  0
    6.1186  -18.7358   20.6078 N   0  0  0  0  0  0  0  0  0  0  0  0
    7.0130  -16.5287   21.2086 C   0  0  0  0  0  0  0  0  0  0  0  0
    7.9895  -17.1553   21.7534 O   0  0  0  0  0  0  0  0  0  0  0  0
    7.1645  -15.1301   21.0363 N   0  0  0  0  0  0  0  0  0  0  0  0
    6.3221  -14.1386   20.4092 C   0  0  0  0  0  0  0  0  0  0  0  0
    7.3469  -13.3637   19.5649 C   0  0  0  0  0  0  0  0  0  0  0  0
    8.5401  -13.2825   20.4601 C   0  0  0  0  0  0  0  0  0  0  0  0
    8.3127  -14.3220   21.4999 C   0  0  1  0  0  0  0  0  0  0  0  0
    8.1034  -13.8227   22.8572 C   0  0  0  0  0  0  0  0  0  0  0  0
    7.3786  -12.8060   23.0068 O   0  0  0  0  0  0  0  0  0  0  0  0
    6.8654  -13.1295   27.1040 C   0  0  0  0  0  0  0  0  0  0  0  0
    7.0434  -13.8560   25.7951 C   0  0  2  0  0  0  0  0  0  0  0  0
    6.4999  -15.2606   25.9472 C   0  0  0  0  0  0  0  0  0  0  0  0
    8.4843  -13.9093   25.3543 C   0  0  2  0  0  0  0  0  0  0  0  0
    8.6599  -14.4016   24.0287 N   0  0  0  0  0  0  0  0  0  0  0  0
    9.2610  -14.6407   26.3702 C   0  0  0  0  0  0  0  0  0  0  0  0
    9.5686  -14.1176   27.6143 O   0  0  0  0  0  0  0  0  0  0  0  0
    9.6715  -15.7983   26.1085 O   0  0  0  0  0  0  0  0  0  0  0  0
  2  1  1  1
  2  4  1  0
  2  3  1  0
  4  6  1  0
  4  5  1  1
  6  8  1  0
  6  7  2  0
  8 12  1  0
  9 10  1  0
  9  8  1  0
 10 11  1  0
 11 12  1  0
 12 13  1  1
 13 14  2  0
 16 18  1  0
 16 15  1  1
 17 16  1  0
 18 20  1  0
 19 13  1  0
 18 19  1  6
 20 21  1  0
 22 20  2  0
M  END
$$$$
