VPV.pdb
     RDKit          3D

 22 22  0  0  1  0  0  0  0  0999 V2000
    7.3632  -18.9963   19.1278 C   0  0  0  0  0  0  0  0  0  0  0  0
    6.5931  -17.9110   18.4106 C   0  0  2  0  0  0  0  0  0  0  0  0
    5.6278  -18.5983   17.4694 C   0  0  0  0  0  0  0  0  0  0  0  0
    7.5377  -16.9969   17.6505 C   0  0  2  0  0  0  0  0  0  0  0  0
    8.1708  -17.6717   16.5523 N   0  0  0  0  0  0  0  0  0  0  0  0
    8.4338  -16.2571   18.5428 C   0  0  0  0  0  0  0  0  0  0  0  0
    9.6670  -16.6060   18.5216 O   0  0  0  0  0  0  0  0  0  0  0  0
    8.0804  -15.2026   19.4213 N   0  0  0  0  0  0  0  0  0  0  0  0
    6.8280  -14.5235   19.6588 C   0  0  0  0  0  0  0  0  0  0  0  0
    7.2768  -13.0531   19.6503 C   0  0  0  0  0  0  0  0  0  0  0  0
    8.5824  -13.0870   20.3755 C   0  0  0  0  0  0  0  0  0  0  0  0
    8.9949  -14.5164   20.3590 C   0  0  1  0  0  0  0  0  0  0  0  0
    9.0251  -15.1802   21.6605 C   0  0  0  0  0  0  0  0  0  0  0  0
    7.9340  -15.5692   22.1500 O   0  0  0  0  0  0  0  0  0  0  0  0
   11.3003  -18.5141   24.3094 C   0  0  0  0  0  0  0  0  0  0  0  0
   11.2127  -17.5290   23.1716 C   0  0  2  0  0  0  0  0  0  0  0  0
   12.6081  -17.0346   22.8554 C   0  0  0  0  0  0  0  0  0  0  0  0
   10.3143  -16.3598   23.4865 C   0  0  2  0  0  0  0  0  0  0  0  0
   10.2006  -15.4214   22.4204 N   0  0  0  0  0  0  0  0  0  0  0  0
   10.7466  -15.7637   24.7625 C   0  0  0  0  0  0  0  0  0  0  0  0
   11.4053  -14.5494   24.8499 O   0  0  0  0  0  0  0  0  0  0  0  0
   10.5126  -16.3767   25.8332 O   0  0  0  0  0  0  0  0  0  0  0  0
  2  1  1  6
  2  4  1  0
  2  3  1  0
  4  6  1  0
  4  5  1  6
  6  8  1  0
  6  7  2  0
  8 12  1  0
  9 10  1  0
  9  8  1  0
 10 11  1  0
 11 12  1  0
 12 13  1  1
 13 14  2  0
 16 18  1  0
 16 15  1  1
 17 16  1  0
 18 20  1  0
 19 13  1  0
 18 19  1  6
 20 21  1  0
 22 20  2  0
M  END
$$$$
