VPV.pdb
     RDKit          3D

 22 22  0  0  1  0  0  0  0  0999 V2000
    6.5213  -15.2701   20.3849 C   0  0  0  0  0  0  0  0  0  0  0  0
    7.2859  -15.2410   21.6887 C   0  0  2  0  0  0  0  0  0  0  0  0
    6.4214  -15.9231   22.7268 C   0  0  0  0  0  0  0  0  0  0  0  0
    7.5991  -13.8117   22.0943 C   0  0  2  0  0  0  0  0  0  0  0  0
    8.2217  -13.0754   21.0300 N   0  0  0  0  0  0  0  0  0  0  0  0
    8.2693  -13.7368   23.3949 C   0  0  0  0  0  0  0  0  0  0  0  0
    9.5463  -13.8473   23.3799 O   0  0  0  0  0  0  0  0  0  0  0  0
    7.6558  -13.5565   24.6597 N   0  0  0  0  0  0  0  0  0  0  0  0
    6.2699  -13.4579   25.0544 C   0  0  0  0  0  0  0  0  0  0  0  0
    6.3109  -12.2430   25.9957 C   0  0  0  0  0  0  0  0  0  0  0  0
    7.5848  -12.4356   26.7518 C   0  0  0  0  0  0  0  0  0  0  0  0
    8.3628  -13.4190   25.9511 C   0  0  1  0  0  0  0  0  0  0  0  0
    8.5803  -14.7181   26.5840 C   0  0  0  0  0  0  0  0  0  0  0  0
    7.6294  -15.5409   26.5843 O   0  0  0  0  0  0  0  0  0  0  0  0
   12.5458  -16.3651   27.2496 C   0  0  0  0  0  0  0  0  0  0  0  0
   11.2500  -17.0897   26.9876 C   0  0  2  0  0  0  0  0  0  0  0  0
   11.0150  -17.1290   25.4927 C   0  0  0  0  0  0  0  0  0  0  0  0
   10.0750  -16.4402   27.6739 C   0  0  2  0  0  0  0  0  0  0  0  0
    9.7919  -15.1254   27.2032 N   0  0  0  0  0  0  0  0  0  0  0  0
   10.2765  -16.5217   29.1310 C   0  0  0  0  0  0  0  0  0  0  0  0
   10.3638  -17.7186   29.8208 O   0  0  0  0  0  0  0  0  0  0  0  0
   10.3758  -15.4599   29.7941 O   0  0  0  0  0  0  0  0  0  0  0  0
  2  1  1  6
  2  4  1  0
  2  3  1  0
  4  6  1  0
  4  5  1  6
  6  8  1  0
  6  7  2  0
  8 12  1  0
  9 10  1  0
  9  8  1  0
 10 11  1  0
 11 12  1  0
 12 13  1  1
 13 14  2  0
 16 18  1  0
 16 15  1  6
 17 16  1  0
 18 20  1  0
 19 13  1  0
 18 19  1  6
 20 21  1  0
 22 20  2  0
M  END
$$$$
