VPV.pdb
     RDKit          3D

 22 22  0  0  1  0  0  0  0  0999 V2000
    6.2774  -18.6363   16.9951 C   0  0  0  0  0  0  0  0  0  0  0  0
    7.1277  -18.0613   18.1048 C   0  0  2  0  0  0  0  0  0  0  0  0
    6.1996  -17.7425   19.2569 C   0  0  0  0  0  0  0  0  0  0  0  0
    7.8561  -16.8160   17.6313 C   0  0  2  0  0  0  0  0  0  0  0  0
    8.5566  -17.0397   16.3978 N   0  0  0  0  0  0  0  0  0  0  0  0
    8.6370  -16.1882   18.7001 C   0  0  0  0  0  0  0  0  0  0  0  0
    9.8620  -16.5537   18.7945 O   0  0  0  0  0  0  0  0  0  0  0  0
    8.1812  -15.2252   19.6346 N   0  0  0  0  0  0  0  0  0  0  0  0
    6.8709  -14.6736   19.8901 C   0  0  0  0  0  0  0  0  0  0  0  0
    7.1888  -13.1721   19.9793 C   0  0  0  0  0  0  0  0  0  0  0  0
    8.4829  -13.1374   20.7247 C   0  0  0  0  0  0  0  0  0  0  0  0
    9.0197  -14.5217   20.6288 C   0  0  1  0  0  0  0  0  0  0  0  0
    9.0915  -15.2600   21.8878 C   0  0  0  0  0  0  0  0  0  0  0  0
    8.0167  -15.6792   22.3882 O   0  0  0  0  0  0  0  0  0  0  0  0
   12.8518  -16.8694   23.3969 C   0  0  0  0  0  0  0  0  0  0  0  0
   11.4774  -17.4711   23.5445 C   0  0  2  0  0  0  0  0  0  0  0  0
   11.1902  -18.3189   22.3236 C   0  0  0  0  0  0  0  0  0  0  0  0
   10.4027  -16.4261   23.7068 C   0  0  2  0  0  0  0  0  0  0  0  0
   10.2906  -15.5424   22.5947 N   0  0  0  0  0  0  0  0  0  0  0  0
   10.6026  -15.7409   24.9955 C   0  0  0  0  0  0  0  0  0  0  0  0
   10.4369  -16.3627   26.2210 O   0  0  0  0  0  0  0  0  0  0  0  0
   10.9406  -14.5315   24.9981 O   0  0  0  0  0  0  0  0  0  0  0  0
  2  1  1  6
  2  4  1  0
  2  3  1  0
  4  6  1  0
  4  5  1  6
  6  8  1  0
  6  7  2  0
  8 12  1  0
  9 10  1  0
  9  8  1  0
 10 11  1  0
 11 12  1  0
 12 13  1  1
 13 14  2  0
 16 18  1  0
 16 15  1  6
 17 16  1  0
 18 20  1  0
 19 13  1  0
 18 19  1  6
 20 21  1  0
 22 20  2  0
M  END
$$$$
