VPV.pdb
     RDKit          3D

 22 22  0  0  1  0  0  0  0  0999 V2000
    5.5229  -11.1808   26.2041 C   0  0  0  0  0  0  0  0  0  0  0  0
    6.4645  -12.3581   26.0916 C   0  0  2  0  0  0  0  0  0  0  0  0
    7.6764  -11.8862   25.3176 C   0  0  0  0  0  0  0  0  0  0  0  0
    5.7871  -13.5205   25.3877 C   0  0  2  0  0  0  0  0  0  0  0  0
    4.5955  -13.9411   26.0700 N   0  0  0  0  0  0  0  0  0  0  0  0
    6.7302  -14.5867   25.0412 C   0  0  0  0  0  0  0  0  0  0  0  0
    6.6118  -15.6813   25.6975 O   0  0  0  0  0  0  0  0  0  0  0  0
    7.7534  -14.5333   24.0620 N   0  0  0  0  0  0  0  0  0  0  0  0
    8.2691  -13.4455   23.2639 C   0  0  0  0  0  0  0  0  0  0  0  0
    8.3228  -14.0937   21.8708 C   0  0  0  0  0  0  0  0  0  0  0  0
    8.8029  -15.4796   22.1538 C   0  0  0  0  0  0  0  0  0  0  0  0
    8.5786  -15.6746   23.6116 C   0  0  1  0  0  0  0  0  0  0  0  0
    9.7855  -15.8166   24.4231 C   0  0  0  0  0  0  0  0  0  0  0  0
   10.8948  -15.5917   23.8752 O   0  0  0  0  0  0  0  0  0  0  0  0
   11.3047  -14.2056   28.6457 C   0  0  0  0  0  0  0  0  0  0  0  0
   10.2589  -14.6665   27.6624 C   0  0  2  0  0  0  0  0  0  0  0  0
    9.0531  -15.1545   28.4367 C   0  0  0  0  0  0  0  0  0  0  0  0
   10.7611  -15.7600   26.7539 C   0  0  2  0  0  0  0  0  0  0  0  0
    9.8019  -16.1918   25.7929 N   0  0  0  0  0  0  0  0  0  0  0  0
   11.3061  -16.8486   27.5836 C   0  0  0  0  0  0  0  0  0  0  0  0
   12.4684  -16.7300   28.3259 O   0  0  0  0  0  0  0  0  0  0  0  0
   10.6962  -17.9454   27.6295 O   0  0  0  0  0  0  0  0  0  0  0  0
  2  1  1  6
  2  4  1  0
  2  3  1  0
  4  6  1  0
  4  5  1  1
  6  8  1  0
  6  7  2  0
  8 12  1  0
  9 10  1  0
  9  8  1  0
 10 11  1  0
 11 12  1  0
 12 13  1  1
 13 14  2  0
 16 18  1  0
 16 15  1  1
 17 16  1  0
 18 20  1  0
 19 13  1  0
 18 19  1  1
 20 21  1  0
 22 20  2  0
M  END
$$$$
