IKH.pdb
     RDKit          3D

 28 28  0  0  1  0  0  0  0  0999 V2000
   28.4438  -20.2665   -5.6916 C   0  0  0  0  0  0  0  0  0  0  0  0
   27.5935  -19.5405   -6.6774 C   0  0  0  0  0  0  0  0  0  0  0  0
   27.1675  -20.4360   -7.8519 C   0  0  2  0  0  0  0  0  0  0  0  0
   28.4565  -20.8474   -8.5236 C   0  0  0  0  0  0  0  0  0  0  0  0
   26.4169  -19.5160   -8.7946 C   0  0  2  0  0  0  0  0  0  0  0  0
   25.2077  -19.1058   -8.0591 N   0  0  0  0  0  0  0  0  0  0  0  0
   25.9489  -20.1840  -10.0236 C   0  0  0  0  0  0  0  0  0  0  0  0
   26.7832  -20.6308  -10.8841 O   0  0  0  0  0  0  0  0  0  0  0  0
   24.5975  -20.4014  -10.3814 N   0  0  0  0  0  0  0  0  0  0  0  0
   24.1701  -20.9528  -11.6457 C   0  0  1  0  0  0  0  0  0  0  0  0
   22.7604  -21.5418  -11.5291 C   0  0  0  0  0  0  0  0  0  0  0  0
   22.2900  -22.1148  -12.8167 C   0  0  0  0  0  0  0  0  0  0  0  0
   20.8769  -22.6105  -12.7282 C   0  0  0  0  0  0  0  0  0  0  0  0
   20.4499  -23.1657  -14.0634 C   0  0  0  0  0  0  0  0  0  0  0  0
   19.1296  -23.7828  -13.9797 N   0  0  0  0  0  0  0  0  0  0  0  0
   24.2777  -20.0048  -12.7564 C   0  0  0  0  0  0  0  0  0  0  0  0
   23.8274  -18.8315  -12.6409 O   0  0  0  0  0  0  0  0  0  0  0  0
   24.8765  -20.3262  -14.0032 N   0  0  0  0  0  0  0  0  0  0  0  0
   24.9527  -19.3726  -15.1018 C   0  0  1  0  0  0  0  0  0  0  0  0
   26.0839  -19.6751  -16.0260 C   0  0  0  0  0  0  0  0  0  0  0  0
   26.0813  -18.7231  -17.1566 C   0  0  0  0  0  0  0  0  0  0  0  0
   25.2285  -17.6567  -17.3530 C   0  0  0  0  0  0  0  0  0  0  0  0
   25.5888  -17.0925  -18.5149 N   0  0  0  0  0  0  0  0  0  0  0  0
   26.6385  -17.7853  -19.0333 C   0  0  0  0  0  0  0  0  0  0  0  0
   26.9460  -18.7873  -18.2050 N   0  0  0  0  0  0  0  0  0  0  0  0
   23.6439  -19.2041  -15.7660 C   0  0  0  0  0  0  0  0  0  0  0  0
   23.2988  -17.8943  -16.1614 O   0  0  0  0  0  0  0  0  0  0  0  0
   22.8145  -20.0844  -16.0153 O   0  0  0  0  0  0  0  0  0  0  0  0
  2  1  1  0
  3  2  1  0
  3  5  1  0
  3  4  1  6
  5  6  1  1
  7  8  2  0
  7  5  1  0
  9  7  1  0
 10  9  1  0
 11 12  1  0
 10 11  1  1
 12 13  1  0
 13 14  1  0
 14 15  1  0
 16 17  2  0
 16 10  1  0
 18 16  1  0
 19 20  1  6
 19 18  1  0
 20 21  1  0
 21 25  1  0
 21 22  2  0
 22 23  1  0
 24 23  1  0
 25 24  2  0
 26 19  1  0
 27 26  1  0
 28 26  2  0
M  END
$$$$
