IKH.pdb
     RDKit          3D

 28 28  0  0  1  0  0  0  0  0999 V2000
   26.7051  -15.8422  -17.7805 C   0  0  0  0  0  0  0  0  0  0  0  0
   26.2027  -14.8234  -16.8152 C   0  0  0  0  0  0  0  0  0  0  0  0
   24.8929  -14.1703  -17.2851 C   0  0  2  0  0  0  0  0  0  0  0  0
   25.2091  -13.5786  -18.6386 C   0  0  0  0  0  0  0  0  0  0  0  0
   24.6536  -13.0294  -16.3157 C   0  0  2  0  0  0  0  0  0  0  0  0
   24.4595  -13.6680  -15.0019 N   0  0  0  0  0  0  0  0  0  0  0  0
   23.4216  -12.2674  -16.5931 C   0  0  0  0  0  0  0  0  0  0  0  0
   23.3897  -11.3910  -17.5242 O   0  0  0  0  0  0  0  0  0  0  0  0
   22.1935  -12.4044  -15.9042 N   0  0  0  0  0  0  0  0  0  0  0  0
   21.0189  -11.6079  -16.1705 C   0  0  1  0  0  0  0  0  0  0  0  0
   19.7496  -12.3665  -15.7693 C   0  0  0  0  0  0  0  0  0  0  0  0
   19.4603  -13.4927  -16.6942 C   0  0  0  0  0  0  0  0  0  0  0  0
   18.2957  -14.3165  -16.2297 C   0  0  0  0  0  0  0  0  0  0  0  0
   18.0115  -15.4042  -17.2344 C   0  0  0  0  0  0  0  0  0  0  0  0
   17.0444  -16.3647  -16.7115 N   0  0  0  0  0  0  0  0  0  0  0  0
   21.0744  -10.2750  -15.5670 C   0  0  0  0  0  0  0  0  0  0  0  0
   21.3221  -10.1404  -14.3368 O   0  0  0  0  0  0  0  0  0  0  0  0
   20.8605   -9.0764  -16.2978 N   0  0  0  0  0  0  0  0  0  0  0  0
   20.7221   -7.7798  -15.6482 C   0  0  1  0  0  0  0  0  0  0  0  0
   22.0007   -7.0116  -15.6573 C   0  0  0  0  0  0  0  0  0  0  0  0
   21.8138   -5.7111  -14.9804 C   0  0  0  0  0  0  0  0  0  0  0  0
   21.9736   -5.4334  -13.6387 C   0  0  0  0  0  0  0  0  0  0  0  0
   21.6812   -4.1341  -13.4833 N   0  0  0  0  0  0  0  0  0  0  0  0
   21.3473   -3.6106  -14.6937 C   0  0  0  0  0  0  0  0  0  0  0  0
   21.4265   -4.5728  -15.6170 N   0  0  0  0  0  0  0  0  0  0  0  0
   19.5541   -7.0364  -16.1638 C   0  0  0  0  0  0  0  0  0  0  0  0
   19.1027   -5.9488  -15.3864 O   0  0  0  0  0  0  0  0  0  0  0  0
   18.9260   -7.2607  -17.2030 O   0  0  0  0  0  0  0  0  0  0  0  0
  2  1  1  0
  3  2  1  0
  3  5  1  0
  3  4  1  6
  5  6  1  1
  7  8  2  0
  7  5  1  0
  9  7  1  0
 10  9  1  0
 11 12  1  0
 10 11  1  1
 12 13  1  0
 13 14  1  0
 14 15  1  0
 16 17  2  0
 16 10  1  0
 18 16  1  0
 19 20  1  6
 19 18  1  0
 20 21  1  0
 21 25  1  0
 21 22  2  0
 22 23  1  0
 24 23  1  0
 25 24  2  0
 26 19  1  0
 27 26  1  0
 28 26  2  0
M  END
$$$$
