IKH.pdb
     RDKit          3D

 28 28  0  0  1  0  0  0  0  0999 V2000
   25.4648  -13.8505  -16.0972 C   0  0  0  0  0  0  0  0  0  0  0  0
   24.0328  -14.1473  -16.3861 C   0  0  0  0  0  0  0  0  0  0  0  0
   23.1764  -12.8730  -16.4612 C   0  0  2  0  0  0  0  0  0  0  0  0
   23.1471  -12.3321  -15.0510 C   0  0  0  0  0  0  0  0  0  0  0  0
   21.7826  -13.3570  -16.8099 C   0  0  2  0  0  0  0  0  0  0  0  0
   21.8985  -13.9424  -18.1572 N   0  0  0  0  0  0  0  0  0  0  0  0
   20.7891  -12.2717  -16.9127 C   0  0  0  0  0  0  0  0  0  0  0  0
   20.8341  -11.4321  -17.8766 O   0  0  0  0  0  0  0  0  0  0  0  0
   19.7243  -12.0392  -16.0106 N   0  0  0  0  0  0  0  0  0  0  0  0
   18.7920  -10.9418  -16.1192 C   0  0  1  0  0  0  0  0  0  0  0  0
   17.4045  -11.3608  -15.6223 C   0  0  0  0  0  0  0  0  0  0  0  0
   16.4231  -10.2491  -15.7139 C   0  0  0  0  0  0  0  0  0  0  0  0
   15.0756  -10.6440  -15.1856 C   0  0  0  0  0  0  0  0  0  0  0  0
   14.0946   -9.5211  -15.4090 C   0  0  0  0  0  0  0  0  0  0  0  0
   12.8293   -9.7840  -14.7301 N   0  0  0  0  0  0  0  0  0  0  0  0
   19.2609   -9.7175  -15.4671 C   0  0  0  0  0  0  0  0  0  0  0  0
   19.7194   -9.7548  -14.2919 O   0  0  0  0  0  0  0  0  0  0  0  0
   19.2344   -8.4413  -16.0892 N   0  0  0  0  0  0  0  0  0  0  0  0
   19.6722   -7.2308  -15.4070 C   0  0  1  0  0  0  0  0  0  0  0  0
   20.8173   -6.5790  -16.1064 C   0  0  0  0  0  0  0  0  0  0  0  0
   21.2543   -5.3837  -15.3549 C   0  0  0  0  0  0  0  0  0  0  0  0
   20.7282   -4.8948  -14.1772 C   0  0  0  0  0  0  0  0  0  0  0  0
   21.4265   -3.7893  -13.8804 N   0  0  0  0  0  0  0  0  0  0  0  0
   22.3649   -3.5897  -14.8448 C   0  0  0  0  0  0  0  0  0  0  0  0
   22.2649   -4.5644  -15.7529 N   0  0  0  0  0  0  0  0  0  0  0  0
   18.5370   -6.3314  -15.1154 C   0  0  0  0  0  0  0  0  0  0  0  0
   18.4794   -5.7861  -13.8152 O   0  0  0  0  0  0  0  0  0  0  0  0
   17.6292   -6.0017  -15.8848 O   0  0  0  0  0  0  0  0  0  0  0  0
  2  1  1  0
  3  2  1  0
  3  5  1  0
  3  4  1  1
  5  6  1  6
  7  8  2  0
  7  5  1  0
  9  7  1  0
 10  9  1  0
 11 12  1  0
 10 11  1  1
 12 13  1  0
 13 14  1  0
 14 15  1  0
 16 17  2  0
 16 10  1  0
 18 16  1  0
 19 20  1  6
 19 18  1  0
 20 21  1  0
 21 25  1  0
 21 22  2  0
 22 23  1  0
 24 23  1  0
 25 24  2  0
 26 19  1  0
 27 26  1  0
 28 26  2  0
M  END
$$$$
