IKH.pdb
     RDKit          3D

 28 28  0  0  1  0  0  0  0  0999 V2000
   23.0773  -13.5513  -20.6022 C   0  0  0  0  0  0  0  0  0  0  0  0
   24.2521  -14.3415  -20.1360 C   0  0  0  0  0  0  0  0  0  0  0  0
   23.8781  -15.7900  -19.7829 C   0  0  2  0  0  0  0  0  0  0  0  0
   23.1023  -15.6946  -18.4901 C   0  0  0  0  0  0  0  0  0  0  0  0
   25.1983  -16.4762  -19.4913 C   0  0  2  0  0  0  0  0  0  0  0  0
   25.9227  -16.4898  -20.7744 N   0  0  0  0  0  0  0  0  0  0  0  0
   25.0534  -17.8856  -19.0811 C   0  0  0  0  0  0  0  0  0  0  0  0
   24.2173  -18.6554  -19.6679 O   0  0  0  0  0  0  0  0  0  0  0  0
   25.7801  -18.5236  -18.0485 N   0  0  0  0  0  0  0  0  0  0  0  0
   25.5549  -19.8829  -17.6162 C   0  0  1  0  0  0  0  0  0  0  0  0
   26.8782  -20.5549  -17.2359 C   0  0  0  0  0  0  0  0  0  0  0  0
   26.7061  -22.0055  -16.9643 C   0  0  0  0  0  0  0  0  0  0  0  0
   28.0110  -22.6778  -16.6544 C   0  0  0  0  0  0  0  0  0  0  0  0
   27.7869  -24.1569  -16.4664 C   0  0  0  0  0  0  0  0  0  0  0  0
   29.0547  -24.8775  -16.3992 N   0  0  0  0  0  0  0  0  0  0  0  0
   24.5579  -19.9932  -16.5496 C   0  0  0  0  0  0  0  0  0  0  0  0
   24.7067  -19.3603  -15.4678 O   0  0  0  0  0  0  0  0  0  0  0  0
   23.3897  -20.7942  -16.6513 N   0  0  0  0  0  0  0  0  0  0  0  0
   22.4017  -20.8732  -15.5836 C   0  0  1  0  0  0  0  0  0  0  0  0
   21.4508  -19.7245  -15.6170 C   0  0  0  0  0  0  0  0  0  0  0  0
   20.2821  -20.0107  -14.7587 C   0  0  0  0  0  0  0  0  0  0  0  0
   20.0283  -21.1634  -14.0446 C   0  0  0  0  0  0  0  0  0  0  0  0
   18.8501  -20.9777  -13.4318 N   0  0  0  0  0  0  0  0  0  0  0  0
   18.3775  -19.7429  -13.7522 C   0  0  0  0  0  0  0  0  0  0  0  0
   19.2512  -19.1440  -14.5662 N   0  0  0  0  0  0  0  0  0  0  0  0
   21.7591  -22.2027  -15.5362 C   0  0  0  0  0  0  0  0  0  0  0  0
   21.4798  -22.7253  -14.2557 O   0  0  0  0  0  0  0  0  0  0  0  0
   21.4374  -22.9108  -16.4953 O   0  0  0  0  0  0  0  0  0  0  0  0
  2  1  1  0
  3  2  1  0
  3  5  1  0
  3  4  1  1
  5  6  1  6
  7  8  2  0
  7  5  1  0
  9  7  1  0
 10  9  1  0
 11 12  1  0
 10 11  1  1
 12 13  1  0
 13 14  1  0
 14 15  1  0
 16 17  2  0
 16 10  1  0
 18 16  1  0
 19 20  1  6
 19 18  1  0
 20 21  1  0
 21 25  1  0
 21 22  2  0
 22 23  1  0
 24 23  1  0
 25 24  2  0
 26 19  1  0
 27 26  1  0
 28 26  2  0
M  END
$$$$
