IKH.pdb
     RDKit          3D

 28 28  0  0  1  0  0  0  0  0999 V2000
   17.4484  -30.9467  -11.6529 C   0  0  0  0  0  0  0  0  0  0  0  0
   18.7836  -31.0460  -12.3083 C   0  0  0  0  0  0  0  0  0  0  0  0
   19.6427  -32.1740  -11.7147 C   0  0  2  0  0  0  0  0  0  0  0  0
   19.9429  -31.7398  -10.2992 C   0  0  0  0  0  0  0  0  0  0  0  0
   20.9369  -32.1382  -12.5036 C   0  0  2  0  0  0  0  0  0  0  0  0
   20.5713  -32.5466  -13.8715 N   0  0  0  0  0  0  0  0  0  0  0  0
   21.9417  -33.1107  -12.0343 C   0  0  0  0  0  0  0  0  0  0  0  0
   21.8044  -34.3600  -12.2718 O   0  0  0  0  0  0  0  0  0  0  0  0
   23.1143  -32.7997  -11.3064 N   0  0  0  0  0  0  0  0  0  0  0  0
   24.0366  -33.7844  -10.7917 C   0  0  1  0  0  0  0  0  0  0  0  0
   25.4299  -33.5883  -11.3980 C   0  0  0  0  0  0  0  0  0  0  0  0
   25.4518  -33.8988  -12.8509 C   0  0  0  0  0  0  0  0  0  0  0  0
   26.8321  -33.7889  -13.4283 C   0  0  0  0  0  0  0  0  0  0  0  0
   26.7926  -34.1112  -14.9007 C   0  0  0  0  0  0  0  0  0  0  0  0
   28.1135  -33.9710  -15.5062 N   0  0  0  0  0  0  0  0  0  0  0  0
   24.0771  -33.8303   -9.3288 C   0  0  0  0  0  0  0  0  0  0  0  0
   23.8266  -32.7963   -8.6498 O   0  0  0  0  0  0  0  0  0  0  0  0
   24.3911  -35.0029   -8.5919 N   0  0  0  0  0  0  0  0  0  0  0  0
   25.1819  -34.9682   -7.3689 C   0  0  1  0  0  0  0  0  0  0  0  0
   26.4702  -34.2404   -7.5577 C   0  0  0  0  0  0  0  0  0  0  0  0
   27.2598  -34.2781   -6.3089 C   0  0  0  0  0  0  0  0  0  0  0  0
   27.6829  -35.3944   -5.6176 C   0  0  0  0  0  0  0  0  0  0  0  0
   28.3471  -34.9453   -4.5429 N   0  0  0  0  0  0  0  0  0  0  0  0
   28.3413  -33.5850   -4.5590 C   0  0  0  0  0  0  0  0  0  0  0  0
   27.6758  -33.1689   -5.6400 N   0  0  0  0  0  0  0  0  0  0  0  0
   24.3794  -34.5095   -6.2165 C   0  0  0  0  0  0  0  0  0  0  0  0
   25.0454  -34.4240   -4.9755 O   0  0  0  0  0  0  0  0  0  0  0  0
   23.1863  -34.1911   -6.2172 O   0  0  0  0  0  0  0  0  0  0  0  0
  2  1  1  0
  3  2  1  0
  3  5  1  0
  3  4  1  1
  5  6  1  6
  7  8  2  0
  7  5  1  0
  9  7  1  0
 10  9  1  0
 11 12  1  0
 10 11  1  1
 12 13  1  0
 13 14  1  0
 14 15  1  0
 16 17  2  0
 16 10  1  0
 18 16  1  0
 19 20  1  6
 19 18  1  0
 20 21  1  0
 21 25  1  0
 21 22  2  0
 22 23  1  0
 24 23  1  0
 25 24  2  0
 26 19  1  0
 27 26  1  0
 28 26  2  0
M  END
$$$$
