IKH.pdb
     RDKit          3D

 28 28  0  0  1  0  0  0  0  0999 V2000
   12.6654  -13.4282  -21.7412 C   0  0  0  0  0  0  0  0  0  0  0  0
   13.8075  -14.1935  -21.1651 C   0  0  0  0  0  0  0  0  0  0  0  0
   14.7282  -13.3106  -20.3074 C   0  0  2  0  0  0  0  0  0  0  0  0
   15.4323  -12.4028  -21.2884 C   0  0  0  0  0  0  0  0  0  0  0  0
   15.7544  -14.2628  -19.7254 C   0  0  2  0  0  0  0  0  0  0  0  0
   14.9982  -15.1448  -18.8189 N   0  0  0  0  0  0  0  0  0  0  0  0
   16.7771  -13.5954  -18.8982 C   0  0  0  0  0  0  0  0  0  0  0  0
   16.4863  -13.1402  -17.7388 O   0  0  0  0  0  0  0  0  0  0  0  0
   18.1283  -13.3892  -19.2634 N   0  0  0  0  0  0  0  0  0  0  0  0
   19.0704  -12.6158  -18.4893 C   0  0  1  0  0  0  0  0  0  0  0  0
   20.4936  -13.1505  -18.6798 C   0  0  0  0  0  0  0  0  0  0  0  0
   20.6017  -14.5852  -18.3090 C   0  0  0  0  0  0  0  0  0  0  0  0
   22.0181  -15.0759  -18.3692 C   0  0  0  0  0  0  0  0  0  0  0  0
   22.0475  -16.5674  -18.1503 C   0  0  0  0  0  0  0  0  0  0  0  0
   23.4132  -17.0805  -18.2007 N   0  0  0  0  0  0  0  0  0  0  0  0
   18.9869  -11.1766  -18.7460 C   0  0  0  0  0  0  0  0  0  0  0  0
   18.7679  -10.7474  -19.9125 O   0  0  0  0  0  0  0  0  0  0  0  0
   19.1412  -10.1919  -17.7346 N   0  0  0  0  0  0  0  0  0  0  0  0
   19.0349   -8.7655  -18.0108 C   0  0  1  0  0  0  0  0  0  0  0  0
   17.7803   -8.4311  -18.7451 C   0  0  0  0  0  0  0  0  0  0  0  0
   17.7223   -6.9785  -19.0113 C   0  0  0  0  0  0  0  0  0  0  0  0
   16.9871   -6.0299  -18.3311 C   0  0  0  0  0  0  0  0  0  0  0  0
   17.2325   -4.8571  -18.9329 N   0  0  0  0  0  0  0  0  0  0  0  0
   18.0977   -5.0636  -19.9622 C   0  0  0  0  0  0  0  0  0  0  0  0
   18.4025   -6.3632  -20.0161 N   0  0  0  0  0  0  0  0  0  0  0  0
   19.2702   -7.9585  -16.7959 C   0  0  0  0  0  0  0  0  0  0  0  0
   19.6723   -8.6588  -15.6389 O   0  0  0  0  0  0  0  0  0  0  0  0
   19.1543   -6.7346  -16.6788 O   0  0  0  0  0  0  0  0  0  0  0  0
  2  1  1  0
  3  2  1  0
  3  5  1  0
  3  4  1  6
  5  6  1  1
  7  8  2  0
  7  5  1  0
  9  7  1  0
 10  9  1  0
 11 12  1  0
 10 11  1  6
 12 13  1  0
 13 14  1  0
 14 15  1  0
 16 17  2  0
 16 10  1  0
 18 16  1  0
 19 20  1  1
 19 18  1  0
 20 21  1  0
 21 25  1  0
 21 22  2  0
 22 23  1  0
 24 23  1  0
 25 24  2  0
 26 19  1  0
 27 26  1  0
 28 26  2  0
M  END
$$$$
