IKH.pdb
     RDKit          3D

 28 28  0  0  1  0  0  0  0  0999 V2000
   21.3259  -33.7742  -14.8197 C   0  0  0  0  0  0  0  0  0  0  0  0
   22.6474  -33.3942  -15.3953 C   0  0  0  0  0  0  0  0  0  0  0  0
   22.7908  -31.8743  -15.5741 C   0  0  2  0  0  0  0  0  0  0  0  0
   21.7976  -31.5072  -16.6517 C   0  0  0  0  0  0  0  0  0  0  0  0
   24.1866  -31.6746  -16.1313 C   0  0  2  0  0  0  0  0  0  0  0  0
   25.1004  -32.0889  -15.0520 N   0  0  0  0  0  0  0  0  0  0  0  0
   24.5076  -30.2662  -16.4295 C   0  0  0  0  0  0  0  0  0  0  0  0
   24.1946  -29.3357  -15.6096 O   0  0  0  0  0  0  0  0  0  0  0  0
   25.1644  -29.7976  -17.5916 N   0  0  0  0  0  0  0  0  0  0  0  0
   25.3536  -28.4022  -17.9115 C   0  0  1  0  0  0  0  0  0  0  0  0
   26.4515  -28.2342  -18.9669 C   0  0  0  0  0  0  0  0  0  0  0  0
   27.7772  -28.6790  -18.4645 C   0  0  0  0  0  0  0  0  0  0  0  0
   28.8524  -28.5197  -19.4985 C   0  0  0  0  0  0  0  0  0  0  0  0
   30.1512  -29.0721  -18.9684 C   0  0  0  0  0  0  0  0  0  0  0  0
   31.2209  -28.9400  -19.9530 N   0  0  0  0  0  0  0  0  0  0  0  0
   24.1146  -27.7237  -18.2969 C   0  0  0  0  0  0  0  0  0  0  0  0
   23.0906  -28.3921  -18.6091 O   0  0  0  0  0  0  0  0  0  0  0  0
   23.9797  -26.3110  -18.3459 N   0  0  0  0  0  0  0  0  0  0  0  0
   22.6813  -25.6511  -18.3765 C   0  0  1  0  0  0  0  0  0  0  0  0
   21.8317  -26.0367  -17.2127 C   0  0  0  0  0  0  0  0  0  0  0  0
   20.4823  -25.4509  -17.3559 C   0  0  0  0  0  0  0  0  0  0  0  0
   19.8707  -25.0278  -18.5177 C   0  0  0  0  0  0  0  0  0  0  0  0
   18.6674  -24.5551  -18.1620 N   0  0  0  0  0  0  0  0  0  0  0  0
   18.5274  -24.6780  -16.8145 C   0  0  0  0  0  0  0  0  0  0  0  0
   19.6375  -25.2270  -16.3133 N   0  0  0  0  0  0  0  0  0  0  0  0
   22.8175  -24.1946  -18.5830 C   0  0  0  0  0  0  0  0  0  0  0  0
   22.1726  -23.6529  -19.7151 O   0  0  0  0  0  0  0  0  0  0  0  0
   23.4348  -23.3946  -17.8733 O   0  0  0  0  0  0  0  0  0  0  0  0
  2  1  1  0
  3  2  1  0
  3  5  1  0
  3  4  1  6
  5  6  1  1
  7  8  2  0
  7  5  1  0
  9  7  1  0
 10  9  1  0
 11 12  1  0
 10 11  1  6
 12 13  1  0
 13 14  1  0
 14 15  1  0
 16 17  2  0
 16 10  1  0
 18 16  1  0
 19 20  1  1
 19 18  1  0
 20 21  1  0
 21 25  1  0
 21 22  2  0
 22 23  1  0
 24 23  1  0
 25 24  2  0
 26 19  1  0
 27 26  1  0
 28 26  2  0
M  END
$$$$
