IKH.pdb
     RDKit          3D

 28 28  0  0  1  0  0  0  0  0999 V2000
   22.5871  -21.2603  -18.2997 C   0  0  0  0  0  0  0  0  0  0  0  0
   23.2712  -19.9938  -17.9122 C   0  0  0  0  0  0  0  0  0  0  0  0
   22.2920  -18.9488  -17.3539 C   0  0  2  0  0  0  0  0  0  0  0  0
   21.2699  -18.7405  -18.4466 C   0  0  0  0  0  0  0  0  0  0  0  0
   23.1076  -17.6776  -17.2223 C   0  0  2  0  0  0  0  0  0  0  0  0
   24.1208  -17.9690  -16.1927 N   0  0  0  0  0  0  0  0  0  0  0  0
   22.3307  -16.5260  -16.7263 C   0  0  0  0  0  0  0  0  0  0  0  0
   21.9927  -16.4458  -15.4954 O   0  0  0  0  0  0  0  0  0  0  0  0
   21.8899  -15.4306  -17.5056 N   0  0  0  0  0  0  0  0  0  0  0  0
   21.1665  -14.2973  -16.9789 C   0  0  1  0  0  0  0  0  0  0  0  0
   21.3064  -13.0877  -17.9089 C   0  0  0  0  0  0  0  0  0  0  0  0
   22.6906  -12.5479  -17.9131 C   0  0  0  0  0  0  0  0  0  0  0  0
   22.8908  -11.5230  -18.9902 C   0  0  0  0  0  0  0  0  0  0  0  0
   24.3433  -11.1221  -19.0448 C   0  0  0  0  0  0  0  0  0  0  0  0
   24.5969  -10.2106  -20.1564 N   0  0  0  0  0  0  0  0  0  0  0  0
   19.7657  -14.5955  -16.6746 C   0  0  0  0  0  0  0  0  0  0  0  0
   19.0649  -15.2653  -17.4827 O   0  0  0  0  0  0  0  0  0  0  0  0
   19.1152  -14.1666  -15.4874 N   0  0  0  0  0  0  0  0  0  0  0  0
   17.7022  -14.4175  -15.2369 C   0  0  1  0  0  0  0  0  0  0  0  0
   17.4951  -15.3372  -14.0809 C   0  0  0  0  0  0  0  0  0  0  0  0
   16.0497  -15.5094  -13.8247 C   0  0  0  0  0  0  0  0  0  0  0  0
   15.0015  -14.9375  -14.5156 C   0  0  0  0  0  0  0  0  0  0  0  0
   13.8781  -15.3633  -13.9201 N   0  0  0  0  0  0  0  0  0  0  0  0
   14.2116  -16.1797  -12.8843 C   0  0  0  0  0  0  0  0  0  0  0  0
   15.5427  -16.2739  -12.8200 N   0  0  0  0  0  0  0  0  0  0  0  0
   16.9315  -13.1591  -15.1676 C   0  0  0  0  0  0  0  0  0  0  0  0
   15.5503  -13.2469  -15.4424 O   0  0  0  0  0  0  0  0  0  0  0  0
   17.3619  -12.0343  -14.8948 O   0  0  0  0  0  0  0  0  0  0  0  0
  2  1  1  0
  3  2  1  0
  3  5  1  0
  3  4  1  6
  5  6  1  1
  7  8  2  0
  7  5  1  0
  9  7  1  0
 10  9  1  0
 11 12  1  0
 10 11  1  6
 12 13  1  0
 13 14  1  0
 14 15  1  0
 16 17  2  0
 16 10  1  0
 18 16  1  0
 19 20  1  1
 19 18  1  0
 20 21  1  0
 21 25  1  0
 21 22  2  0
 22 23  1  0
 24 23  1  0
 25 24  2  0
 26 19  1  0
 27 26  1  0
 28 26  2  0
M  END
$$$$
