IKH.pdb
     RDKit          3D

 28 28  0  0  1  0  0  0  0  0999 V2000
   21.3821  -14.5890  -21.2137 C   0  0  0  0  0  0  0  0  0  0  0  0
   22.2885  -14.1803  -20.1031 C   0  0  0  0  0  0  0  0  0  0  0  0
   21.6314  -13.1612  -19.1585 C   0  0  2  0  0  0  0  0  0  0  0  0
   20.1847  -13.5855  -19.0631 C   0  0  0  0  0  0  0  0  0  0  0  0
   21.6880  -11.8421  -19.9038 C   0  0  2  0  0  0  0  0  0  0  0  0
   23.1220  -11.5291  -20.0345 N   0  0  0  0  0  0  0  0  0  0  0  0
   21.0835  -10.7189  -19.1631 C   0  0  0  0  0  0  0  0  0  0  0  0
   21.6131  -10.2874  -18.0817 O   0  0  0  0  0  0  0  0  0  0  0  0
   19.9116  -10.0196  -19.5362 N   0  0  0  0  0  0  0  0  0  0  0  0
   19.2510   -9.0397  -18.7065 C   0  0  1  0  0  0  0  0  0  0  0  0
   18.3934   -8.0995  -19.5598 C   0  0  0  0  0  0  0  0  0  0  0  0
   19.2243   -7.1580  -20.3540 C   0  0  0  0  0  0  0  0  0  0  0  0
   18.3860   -6.1785  -21.1211 C   0  0  0  0  0  0  0  0  0  0  0  0
   19.2803   -5.2368  -21.8871 C   0  0  0  0  0  0  0  0  0  0  0  0
   18.5071   -4.1687  -22.5137 N   0  0  0  0  0  0  0  0  0  0  0  0
   18.4862   -9.6329  -17.6077 C   0  0  0  0  0  0  0  0  0  0  0  0
   18.1614  -10.8521  -17.6405 O   0  0  0  0  0  0  0  0  0  0  0  0
   18.0681   -8.9036  -16.4633 N   0  0  0  0  0  0  0  0  0  0  0  0
   17.3903   -9.5356  -15.3393 C   0  0  1  0  0  0  0  0  0  0  0  0
   18.1385  -10.7221  -14.8318 C   0  0  0  0  0  0  0  0  0  0  0  0
   17.4312  -11.9643  -15.2077 C   0  0  0  0  0  0  0  0  0  0  0  0
   16.2554  -12.0770  -15.9202 C   0  0  0  0  0  0  0  0  0  0  0  0
   15.9872  -13.3882  -16.0037 N   0  0  0  0  0  0  0  0  0  0  0  0
   16.9674  -14.0793  -15.3617 C   0  0  0  0  0  0  0  0  0  0  0  0
   17.8568  -13.2117  -14.8707 N   0  0  0  0  0  0  0  0  0  0  0  0
   17.0244   -8.5493  -14.3020 C   0  0  0  0  0  0  0  0  0  0  0  0
   15.8660   -8.8265  -13.5456 O   0  0  0  0  0  0  0  0  0  0  0  0
   17.6211   -7.5052  -14.0212 O   0  0  0  0  0  0  0  0  0  0  0  0
  2  1  1  0
  3  2  1  0
  3  5  1  0
  3  4  1  6
  5  6  1  1
  7  8  2  0
  7  5  1  0
  9  7  1  0
 10  9  1  0
 11 12  1  0
 10 11  1  6
 12 13  1  0
 13 14  1  0
 14 15  1  0
 16 17  2  0
 16 10  1  0
 18 16  1  0
 19 20  1  1
 19 18  1  0
 20 21  1  0
 21 25  1  0
 21 22  2  0
 22 23  1  0
 24 23  1  0
 25 24  2  0
 26 19  1  0
 27 26  1  0
 28 26  2  0
M  END
$$$$
