IKH.pdb
     RDKit          3D

 28 28  0  0  1  0  0  0  0  0999 V2000
   27.6840  -34.4551  -15.5300 C   0  0  0  0  0  0  0  0  0  0  0  0
   27.3134  -33.0137  -15.4446 C   0  0  0  0  0  0  0  0  0  0  0  0
   28.0637  -32.1562  -16.4764 C   0  0  2  0  0  0  0  0  0  0  0  0
   29.4977  -32.1303  -16.0018 C   0  0  0  0  0  0  0  0  0  0  0  0
   27.4896  -30.7618  -16.3194 C   0  0  2  0  0  0  0  0  0  0  0  0
   26.1288  -30.8347  -16.8799 N   0  0  0  0  0  0  0  0  0  0  0  0
   28.2064  -29.7366  -17.1010 C   0  0  0  0  0  0  0  0  0  0  0  0
   28.0925  -29.6857  -18.3740 O   0  0  0  0  0  0  0  0  0  0  0  0
   29.0583  -28.7397  -16.5699 N   0  0  0  0  0  0  0  0  0  0  0  0
   29.8234  -27.8133  -17.3709 C   0  0  1  0  0  0  0  0  0  0  0  0
   29.6118  -26.3760  -16.8842 C   0  0  0  0  0  0  0  0  0  0  0  0
   30.2526  -25.3845  -17.7863 C   0  0  0  0  0  0  0  0  0  0  0  0
   30.1060  -23.9819  -17.2745 C   0  0  0  0  0  0  0  0  0  0  0  0
   30.6002  -23.0086  -18.3145 C   0  0  0  0  0  0  0  0  0  0  0  0
   30.6269  -21.6463  -17.7906 N   0  0  0  0  0  0  0  0  0  0  0  0
   31.2435  -28.1591  -17.4575 C   0  0  0  0  0  0  0  0  0  0  0  0
   31.7852  -28.8646  -16.5621 O   0  0  0  0  0  0  0  0  0  0  0  0
   32.0869  -27.7392  -18.5200 N   0  0  0  0  0  0  0  0  0  0  0  0
   33.1857  -28.5577  -19.0149 C   0  0  1  0  0  0  0  0  0  0  0  0
   32.7538  -29.9558  -19.3046 C   0  0  0  0  0  0  0  0  0  0  0  0
   33.9209  -30.7751  -19.6935 C   0  0  0  0  0  0  0  0  0  0  0  0
   35.0260  -31.0781  -18.9255 C   0  0  0  0  0  0  0  0  0  0  0  0
   35.8281  -31.8280  -19.6952 N   0  0  0  0  0  0  0  0  0  0  0  0
   35.2428  -31.9913  -20.9123 C   0  0  0  0  0  0  0  0  0  0  0  0
   34.0721  -31.3477  -20.9183 N   0  0  0  0  0  0  0  0  0  0  0  0
   33.9013  -27.8929  -20.1232 C   0  0  0  0  0  0  0  0  0  0  0  0
   33.4686  -26.5948  -20.4676 O   0  0  0  0  0  0  0  0  0  0  0  0
   34.8397  -28.3473  -20.7849 O   0  0  0  0  0  0  0  0  0  0  0  0
  2  1  1  0
  3  2  1  0
  3  5  1  0
  3  4  1  1
  5  6  1  6
  7  8  2  0
  7  5  1  0
  9  7  1  0
 10  9  1  0
 11 12  1  0
 10 11  1  1
 12 13  1  0
 13 14  1  0
 14 15  1  0
 16 17  2  0
 16 10  1  0
 18 16  1  0
 19 20  1  6
 19 18  1  0
 20 21  1  0
 21 25  1  0
 21 22  2  0
 22 23  1  0
 24 23  1  0
 25 24  2  0
 26 19  1  0
 27 26  1  0
 28 26  2  0
M  END
$$$$
