IKH.pdb
     RDKit          3D

 28 28  0  0  1  0  0  0  0  0999 V2000
   20.3978  -11.0487    5.8708 C   0  0  0  0  0  0  0  0  0  0  0  0
   19.2354  -11.6735    5.1776 C   0  0  0  0  0  0  0  0  0  0  0  0
   18.8383  -13.0205    5.8025 C   0  0  2  0  0  0  0  0  0  0  0  0
   20.0129  -13.9361    5.5488 C   0  0  0  0  0  0  0  0  0  0  0  0
   17.6699  -13.5102    4.9696 C   0  0  2  0  0  0  0  0  0  0  0  0
   16.5710  -12.5685    5.2473 N   0  0  0  0  0  0  0  0  0  0  0  0
   17.1823  -14.8453    5.3637 C   0  0  0  0  0  0  0  0  0  0  0  0
   16.6155  -15.0274    6.4958 O   0  0  0  0  0  0  0  0  0  0  0  0
   17.2748  -16.0215    4.5828 N   0  0  0  0  0  0  0  0  0  0  0  0
   17.1702  -17.3601    5.1140 C   0  0  1  0  0  0  0  0  0  0  0  0
   16.5127  -18.2959    4.0944 C   0  0  0  0  0  0  0  0  0  0  0  0
   15.0652  -18.0051    3.9269 C   0  0  0  0  0  0  0  0  0  0  0  0
   14.4003  -18.9785    2.9990 C   0  0  0  0  0  0  0  0  0  0  0  0
   12.9282  -18.6658    2.9064 C   0  0  0  0  0  0  0  0  0  0  0  0
   12.2434  -19.6094    2.0280 N   0  0  0  0  0  0  0  0  0  0  0  0
   18.4448  -17.8903    5.6021 C   0  0  0  0  0  0  0  0  0  0  0  0
   19.5328  -17.5177    5.0822 O   0  0  0  0  0  0  0  0  0  0  0  0
   18.5460  -18.8313    6.6607 N   0  0  0  0  0  0  0  0  0  0  0  0
   19.6914  -18.8750    7.5598 C   0  0  1  0  0  0  0  0  0  0  0  0
   20.0501  -17.5211    8.0730 C   0  0  0  0  0  0  0  0  0  0  0  0
   21.2314  -17.6121    8.9566 C   0  0  0  0  0  0  0  0  0  0  0  0
   22.3857  -18.3361    8.7416 C   0  0  0  0  0  0  0  0  0  0  0  0
   23.1659  -18.1321    9.8129 N   0  0  0  0  0  0  0  0  0  0  0  0
   22.5196  -17.3030   10.6762 C   0  0  0  0  0  0  0  0  0  0  0  0
   21.3317  -16.9800   10.1572 N   0  0  0  0  0  0  0  0  0  0  0  0
   19.5212  -19.9042    8.6060 C   0  0  0  0  0  0  0  0  0  0  0  0
   18.4438  -19.7262    9.4995 O   0  0  0  0  0  0  0  0  0  0  0  0
   20.2188  -20.9069    8.7871 O   0  0  0  0  0  0  0  0  0  0  0  0
  2  1  1  0
  3  2  1  0
  3  5  1  0
  3  4  1  6
  5  6  1  1
  7  8  2  0
  7  5  1  0
  9  7  1  0
 10  9  1  0
 11 12  1  0
 10 11  1  6
 12 13  1  0
 13 14  1  0
 14 15  1  0
 16 17  2  0
 16 10  1  0
 18 16  1  0
 19 20  1  1
 19 18  1  0
 20 21  1  0
 21 25  1  0
 21 22  2  0
 22 23  1  0
 24 23  1  0
 25 24  2  0
 26 19  1  0
 27 26  1  0
 28 26  2  0
M  END
$$$$
