IKH.pdb
     RDKit          3D

 28 28  0  0  1  0  0  0  0  0999 V2000
   24.2250  -16.4967  -18.2050 C   0  0  0  0  0  0  0  0  0  0  0  0
   24.4911  -17.3833  -17.0365 C   0  0  0  0  0  0  0  0  0  0  0  0
   23.2742  -18.2487  -16.6716 C   0  0  2  0  0  0  0  0  0  0  0  0
   22.2225  -17.2731  -16.1981 C   0  0  0  0  0  0  0  0  0  0  0  0
   23.7224  -19.0738  -15.4813 C   0  0  2  0  0  0  0  0  0  0  0  0
   24.8835  -19.8464  -15.9571 N   0  0  0  0  0  0  0  0  0  0  0  0
   22.7209  -20.0610  -15.0363 C   0  0  0  0  0  0  0  0  0  0  0  0
   22.4920  -21.1161  -15.7222 O   0  0  0  0  0  0  0  0  0  0  0  0
   21.9357  -19.9688  -13.8630 N   0  0  0  0  0  0  0  0  0  0  0  0
   20.8517  -20.8657  -13.5379 C   0  0  1  0  0  0  0  0  0  0  0  0
   20.9555  -21.3329  -12.0823 C   0  0  0  0  0  0  0  0  0  0  0  0
   19.8979  -22.3184  -11.7390 C   0  0  0  0  0  0  0  0  0  0  0  0
   19.9163  -22.6779  -10.2826 C   0  0  0  0  0  0  0  0  0  0  0  0
   18.8936  -23.7524  -10.0128 C   0  0  0  0  0  0  0  0  0  0  0  0
   18.7016  -23.9490   -8.5791 N   0  0  0  0  0  0  0  0  0  0  0  0
   19.5311  -20.3118  -13.8427 C   0  0  0  0  0  0  0  0  0  0  0  0
   19.1077  -19.2940  -13.2282 O   0  0  0  0  0  0  0  0  0  0  0  0
   18.6593  -20.8616  -14.8196 N   0  0  0  0  0  0  0  0  0  0  0  0
   17.3667  -20.2684  -15.1351 C   0  0  1  0  0  0  0  0  0  0  0  0
   16.9072  -20.6292  -16.5077 C   0  0  0  0  0  0  0  0  0  0  0  0
   17.7589  -19.9651  -17.5167 C   0  0  0  0  0  0  0  0  0  0  0  0
   18.6631  -18.9440  -17.3099 C   0  0  0  0  0  0  0  0  0  0  0  0
   19.1863  -18.6526  -18.5096 N   0  0  0  0  0  0  0  0  0  0  0  0
   18.6263  -19.4679  -19.4435 C   0  0  0  0  0  0  0  0  0  0  0  0
   17.7494  -20.2760  -18.8411 N   0  0  0  0  0  0  0  0  0  0  0  0
   16.3773  -20.5239  -14.0682 C   0  0  0  0  0  0  0  0  0  0  0  0
   15.6707  -19.4048  -13.5792 O   0  0  0  0  0  0  0  0  0  0  0  0
   16.0980  -21.6114  -13.5541 O   0  0  0  0  0  0  0  0  0  0  0  0
  2  1  1  0
  3  2  1  0
  3  5  1  0
  3  4  1  1
  5  6  1  6
  7  8  2  0
  7  5  1  0
  9  7  1  0
 10  9  1  0
 11 12  1  0
 10 11  1  1
 12 13  1  0
 13 14  1  0
 14 15  1  0
 16 17  2  0
 16 10  1  0
 18 16  1  0
 19 20  1  6
 19 18  1  0
 20 21  1  0
 21 25  1  0
 21 22  2  0
 22 23  1  0
 24 23  1  0
 25 24  2  0
 26 19  1  0
 27 26  1  0
 28 26  2  0
M  END
$$$$
