IKH.pdb
     RDKit          3D

 28 28  0  0  1  0  0  0  0  0999 V2000
   28.3361  -19.8276   -5.3716 C   0  0  0  0  0  0  0  0  0  0  0  0
   27.0164  -19.9527   -6.0535 C   0  0  0  0  0  0  0  0  0  0  0  0
   27.1183  -19.7186   -7.5693 C   0  0  2  0  0  0  0  0  0  0  0  0
   27.5509  -18.2789   -7.7192 C   0  0  0  0  0  0  0  0  0  0  0  0
   25.6965  -19.8397   -8.0814 C   0  0  2  0  0  0  0  0  0  0  0  0
   25.2707  -21.2063   -7.7311 N   0  0  0  0  0  0  0  0  0  0  0  0
   25.5862  -19.7335   -9.5485 C   0  0  0  0  0  0  0  0  0  0  0  0
   25.4625  -18.5934  -10.1148 O   0  0  0  0  0  0  0  0  0  0  0  0
   25.6036  -20.8170  -10.4580 N   0  0  0  0  0  0  0  0  0  0  0  0
   25.4597  -20.6800  -11.8883 C   0  0  1  0  0  0  0  0  0  0  0  0
   26.5811  -21.4267  -12.6179 C   0  0  0  0  0  0  0  0  0  0  0  0
   26.5130  -21.2305  -14.0891 C   0  0  0  0  0  0  0  0  0  0  0  0
   27.5052  -22.0886  -14.8170 C   0  0  0  0  0  0  0  0  0  0  0  0
   27.4700  -21.7663  -16.2895 C   0  0  0  0  0  0  0  0  0  0  0  0
   28.5019  -22.5016  -17.0145 N   0  0  0  0  0  0  0  0  0  0  0  0
   24.1350  -21.0681  -12.3765 C   0  0  0  0  0  0  0  0  0  0  0  0
   23.3470  -21.7197  -11.6366 O   0  0  0  0  0  0  0  0  0  0  0  0
   23.6565  -20.7504  -13.6751 N   0  0  0  0  0  0  0  0  0  0  0  0
   22.3242  -20.2078  -13.9054 C   0  0  1  0  0  0  0  0  0  0  0  0
   22.0073  -19.0902  -12.9696 C   0  0  0  0  0  0  0  0  0  0  0  0
   20.6405  -18.5892  -13.2252 C   0  0  0  0  0  0  0  0  0  0  0  0
   19.7147  -19.0944  -14.1144 C   0  0  0  0  0  0  0  0  0  0  0  0
   18.6298  -18.3125  -14.0168 N   0  0  0  0  0  0  0  0  0  0  0  0
   18.8677  -17.3436  -13.0921 C   0  0  0  0  0  0  0  0  0  0  0  0
   20.0998  -17.5073  -12.6023 N   0  0  0  0  0  0  0  0  0  0  0  0
   22.1043  -19.8961  -15.3327 C   0  0  0  0  0  0  0  0  0  0  0  0
   20.8989  -20.3573  -15.9028 O   0  0  0  0  0  0  0  0  0  0  0  0
   22.8601  -19.2746  -16.0859 O   0  0  0  0  0  0  0  0  0  0  0  0
  2  1  1  0
  3  2  1  0
  3  5  1  0
  3  4  1  1
  5  6  1  6
  7  8  2  0
  7  5  1  0
  9  7  1  0
 10  9  1  0
 11 12  1  0
 10 11  1  6
 12 13  1  0
 13 14  1  0
 14 15  1  0
 16 17  2  0
 16 10  1  0
 18 16  1  0
 19 20  1  1
 19 18  1  0
 20 21  1  0
 21 25  1  0
 21 22  2  0
 22 23  1  0
 24 23  1  0
 25 24  2  0
 26 19  1  0
 27 26  1  0
 28 26  2  0
M  END
$$$$
