IKH.pdb
     RDKit          3D

 28 28  0  0  1  0  0  0  0  0999 V2000
   19.7480  -18.3478  -17.3604 C   0  0  0  0  0  0  0  0  0  0  0  0
   19.5041  -17.1526  -16.5036 C   0  0  0  0  0  0  0  0  0  0  0  0
   19.9317  -15.8454  -17.1900 C   0  0  2  0  0  0  0  0  0  0  0  0
   21.4316  -15.9481  -17.3374 C   0  0  0  0  0  0  0  0  0  0  0  0
   19.6303  -14.7553  -16.1804 C   0  0  2  0  0  0  0  0  0  0  0  0
   18.1702  -14.7963  -15.9860 N   0  0  0  0  0  0  0  0  0  0  0  0
   19.9470  -13.3983  -16.6642 C   0  0  0  0  0  0  0  0  0  0  0  0
   21.1600  -13.0318  -16.8381 O   0  0  0  0  0  0  0  0  0  0  0  0
   19.0026  -12.3929  -16.9787 N   0  0  0  0  0  0  0  0  0  0  0  0
   19.3475  -11.0372  -17.3367 C   0  0  1  0  0  0  0  0  0  0  0  0
   18.1480  -10.3238  -17.9690 C   0  0  0  0  0  0  0  0  0  0  0  0
   18.5114   -8.9791  -18.4861 C   0  0  0  0  0  0  0  0  0  0  0  0
   17.3486   -8.2972  -19.1445 C   0  0  0  0  0  0  0  0  0  0  0  0
   16.9166   -9.0868  -20.3541 C   0  0  0  0  0  0  0  0  0  0  0  0
   15.8998   -8.3685  -21.1166 N   0  0  0  0  0  0  0  0  0  0  0  0
   19.9167  -10.2722  -16.2255 C   0  0  0  0  0  0  0  0  0  0  0  0
   19.5578  -10.5065  -15.0384 O   0  0  0  0  0  0  0  0  0  0  0  0
   20.8818   -9.2448  -16.3972 N   0  0  0  0  0  0  0  0  0  0  0  0
   21.3434   -8.4146  -15.2926 C   0  0  1  0  0  0  0  0  0  0  0  0
   21.9073   -9.2308  -14.1787 C   0  0  0  0  0  0  0  0  0  0  0  0
   23.1286   -9.9293  -14.6318 C   0  0  0  0  0  0  0  0  0  0  0  0
   23.6968   -9.8952  -15.8884 C   0  0  0  0  0  0  0  0  0  0  0  0
   24.7756  -10.6900  -15.8380 N   0  0  0  0  0  0  0  0  0  0  0  0
   24.8817  -11.2084  -14.5847 C   0  0  0  0  0  0  0  0  0  0  0  0
   23.8743  -10.7458  -13.8393 N   0  0  0  0  0  0  0  0  0  0  0  0
   22.2231   -7.3251  -15.7634 C   0  0  0  0  0  0  0  0  0  0  0  0
   22.6328   -6.3808  -14.7984 O   0  0  0  0  0  0  0  0  0  0  0  0
   22.6421   -7.1472  -16.9113 O   0  0  0  0  0  0  0  0  0  0  0  0
  2  1  1  0
  3  2  1  0
  3  5  1  0
  3  4  1  1
  5  6  1  6
  7  8  2  0
  7  5  1  0
  9  7  1  0
 10  9  1  0
 11 12  1  0
 10 11  1  1
 12 13  1  0
 13 14  1  0
 14 15  1  0
 16 17  2  0
 16 10  1  0
 18 16  1  0
 19 20  1  1
 19 18  1  0
 20 21  1  0
 21 25  1  0
 21 22  2  0
 22 23  1  0
 24 23  1  0
 25 24  2  0
 26 19  1  0
 27 26  1  0
 28 26  2  0
M  END
$$$$
