IKH.pdb
     RDKit          3D

 28 28  0  0  1  0  0  0  0  0999 V2000
   25.7322  -20.2144   -8.3548 C   0  0  0  0  0  0  0  0  0  0  0  0
   25.4561  -21.2397   -9.4011 C   0  0  0  0  0  0  0  0  0  0  0  0
   25.4061  -20.6341  -10.8129 C   0  0  2  0  0  0  0  0  0  0  0  0
   24.1606  -19.7795  -10.8332 C   0  0  0  0  0  0  0  0  0  0  0  0
   25.1837  -21.8141  -11.7384 C   0  0  2  0  0  0  0  0  0  0  0  0
   26.4152  -22.6183  -11.6481 N   0  0  0  0  0  0  0  0  0  0  0  0
   25.0392  -21.4337  -13.1562 C   0  0  0  0  0  0  0  0  0  0  0  0
   26.0686  -21.2232  -13.8857 O   0  0  0  0  0  0  0  0  0  0  0  0
   23.8149  -21.2653  -13.8450 N   0  0  0  0  0  0  0  0  0  0  0  0
   23.7097  -20.9350  -15.2467 C   0  0  1  0  0  0  0  0  0  0  0  0
   22.4472  -21.5549  -15.8544 C   0  0  0  0  0  0  0  0  0  0  0  0
   22.3490  -21.2959  -17.3141 C   0  0  0  0  0  0  0  0  0  0  0  0
   21.0760  -21.8357  -17.8962 C   0  0  0  0  0  0  0  0  0  0  0  0
   21.0636  -21.6078  -19.3866 C   0  0  0  0  0  0  0  0  0  0  0  0
   19.8977  -22.2316  -20.0053 N   0  0  0  0  0  0  0  0  0  0  0  0
   23.7957  -19.4973  -15.5105 C   0  0  0  0  0  0  0  0  0  0  0  0
   23.8416  -18.6739  -14.5551 O   0  0  0  0  0  0  0  0  0  0  0  0
   23.8323  -18.9431  -16.8174 N   0  0  0  0  0  0  0  0  0  0  0  0
   24.8932  -18.0462  -17.2559 C   0  0  1  0  0  0  0  0  0  0  0  0
   26.2446  -18.5554  -16.8822 C   0  0  0  0  0  0  0  0  0  0  0  0
   27.2874  -17.6333  -17.3792 C   0  0  0  0  0  0  0  0  0  0  0  0
   27.1040  -16.4602  -18.0815 C   0  0  0  0  0  0  0  0  0  0  0  0
   28.3281  -15.9741  -18.3333 N   0  0  0  0  0  0  0  0  0  0  0  0
   29.2540  -16.8184  -17.8037 C   0  0  0  0  0  0  0  0  0  0  0  0
   28.6224  -17.8388  -17.2168 N   0  0  0  0  0  0  0  0  0  0  0  0
   24.7443  -17.6849  -18.6806 C   0  0  0  0  0  0  0  0  0  0  0  0
   25.0885  -16.3641  -19.0380 O   0  0  0  0  0  0  0  0  0  0  0  0
   24.3508  -18.4121  -19.5978 O   0  0  0  0  0  0  0  0  0  0  0  0
  2  1  1  0
  3  2  1  0
  3  5  1  0
  3  4  1  1
  5  6  1  6
  7  8  2  0
  7  5  1  0
  9  7  1  0
 10  9  1  0
 11 12  1  0
 10 11  1  1
 12 13  1  0
 13 14  1  0
 14 15  1  0
 16 17  2  0
 16 10  1  0
 18 16  1  0
 19 20  1  6
 19 18  1  0
 20 21  1  0
 21 25  1  0
 21 22  2  0
 22 23  1  0
 24 23  1  0
 25 24  2  0
 26 19  1  0
 27 26  1  0
 28 26  2  0
M  END
$$$$
