YGR.pdb
     RDKit          3D

 28 28  0  0  1  0  0  0  0  0999 V2000
   28.5594  -18.8971   -5.1522 O   0  0  0  0  0  0  0  0  0  0  0  0
   28.2418  -19.5645   -6.3333 C   0  0  0  0  0  0  0  0  0  0  0  0
   29.2499  -20.1478   -7.0872 C   0  0  0  0  0  0  0  0  0  0  0  0
   28.9439  -20.8102   -8.2574 C   0  0  0  0  0  0  0  0  0  0  0  0
   27.6323  -20.8892   -8.6731 C   0  0  0  0  0  0  0  0  0  0  0  0
   27.3242  -21.6081   -9.9382 C   0  0  0  0  0  0  0  0  0  0  0  0
   27.2432  -20.6288  -11.0919 C   0  0  2  0  0  0  0  0  0  0  0  0
   26.2069  -19.6484  -10.8394 N   0  0  0  0  0  0  0  0  0  0  0  0
   26.9998  -21.3735  -12.3453 C   0  0  0  0  0  0  0  0  0  0  0  0
   27.8540  -22.1747  -12.8049 O   0  0  0  0  0  0  0  0  0  0  0  0
   26.6421  -20.2979   -7.9022 C   0  0  0  0  0  0  0  0  0  0  0  0
   26.9124  -19.6305   -6.7313 C   0  0  0  0  0  0  0  0  0  0  0  0
   25.7820  -21.1897  -13.0540 N   0  0  0  0  0  0  0  0  0  0  0  0
   25.0424  -19.9457  -12.9864 C   0  0  0  0  0  0  0  0  0  0  0  0
   23.8095  -20.0059  -13.8160 C   0  0  0  0  0  0  0  0  0  0  0  0
   23.7004  -19.1611  -14.7497 O   0  0  0  0  0  0  0  0  0  0  0  0
   23.0351  -26.4951  -14.1911 N   0  0  0  0  0  0  0  0  0  0  0  0
   21.6567  -26.3913  -14.5243 C   0  0  0  0  0  0  0  0  0  0  0  0
   21.0509  -27.4571  -14.9379 N   0  0  0  0  0  0  0  0  0  0  0  0
   20.9449  -25.1698  -14.4155 N   0  0  0  0  0  0  0  0  0  0  0  0
   21.1350  -24.1748  -15.4964 C   0  0  0  0  0  0  0  0  0  0  0  0
   20.3541  -22.9484  -15.2260 C   0  0  0  0  0  0  0  0  0  0  0  0
   20.8284  -22.0528  -14.1948 C   0  0  0  0  0  0  0  0  0  0  0  0
   21.4947  -20.7581  -14.4035 C   0  0  2  0  0  0  0  0  0  0  0  0
   22.7838  -20.9360  -13.6158 N   0  0  0  0  0  0  0  0  0  0  0  0
   20.8713  -19.5353  -13.8824 C   0  0  0  0  0  0  0  0  0  0  0  0
   20.7521  -18.5469  -14.7037 O   0  0  0  0  0  0  0  0  0  0  0  0
   20.3798  -19.2759  -12.6354 O   0  0  0  0  0  0  0  0  0  0  0  0
  2 12  2  0
  2  1  1  0
  3  2  1  0
  4  5  1  0
  4  3  2  0
  5 11  2  0
  6  7  1  0
  6  5  1  0
  7  8  1  1
  9  7  1  0
  9 13  1  0
 10  9  2  0
 11 12  1  0
 13 14  1  0
 15 14  1  0
 15 16  2  0
 18 17  1  0
 19 18  2  0
 20 18  1  0
 21 22  1  0
 21 20  1  0
 22 23  1  0
 24 23  1  1
 24 25  1  0
 24 26  1  0
 25 15  1  0
 26 27  2  0
 26 28  1  0
M  END
$$$$
