YGR.pdb
     RDKit          3D

 28 28  0  0  1  0  0  0  0  0999 V2000
   24.8029  -17.7087  -24.0345 O   0  0  0  0  0  0  0  0  0  0  0  0
   25.0259  -17.9875  -22.6877 C   0  0  0  0  0  0  0  0  0  0  0  0
   24.8778  -16.9825  -21.7427 C   0  0  0  0  0  0  0  0  0  0  0  0
   25.0967  -17.2501  -20.4077 C   0  0  0  0  0  0  0  0  0  0  0  0
   25.4631  -18.5203  -20.0182 C   0  0  0  0  0  0  0  0  0  0  0  0
   25.6943  -18.7875  -18.5735 C   0  0  0  0  0  0  0  0  0  0  0  0
   27.1444  -18.5281  -18.2174 C   0  0  2  0  0  0  0  0  0  0  0  0
   27.9981  -19.4966  -18.8749 N   0  0  0  0  0  0  0  0  0  0  0  0
   27.2989  -18.5692  -16.7480 C   0  0  0  0  0  0  0  0  0  0  0  0
   26.7181  -17.7346  -16.0071 O   0  0  0  0  0  0  0  0  0  0  0  0
   25.6048  -19.5083  -20.9818 C   0  0  0  0  0  0  0  0  0  0  0  0
   25.3944  -19.2755  -22.3201 C   0  0  0  0  0  0  0  0  0  0  0  0
   28.1161  -19.5652  -16.1487 N   0  0  0  0  0  0  0  0  0  0  0  0
   28.2183  -19.7014  -14.7099 C   0  0  0  0  0  0  0  0  0  0  0  0
   27.0368  -20.4106  -14.1504 C   0  0  0  0  0  0  0  0  0  0  0  0
   26.5414  -21.3432  -14.8449 O   0  0  0  0  0  0  0  0  0  0  0  0
   23.7938  -21.9947   -6.1915 N   0  0  0  0  0  0  0  0  0  0  0  0
   22.6772  -22.0688   -7.0685 C   0  0  0  0  0  0  0  0  0  0  0  0
   21.6373  -22.7286   -6.6718 N   0  0  0  0  0  0  0  0  0  0  0  0
   22.6775  -21.4480   -8.3434 N   0  0  0  0  0  0  0  0  0  0  0  0
   23.9907  -21.2380   -8.9958 C   0  0  0  0  0  0  0  0  0  0  0  0
   23.8252  -20.5933  -10.3164 C   0  0  0  0  0  0  0  0  0  0  0  0
   25.0075  -20.3713  -11.1186 C   0  0  0  0  0  0  0  0  0  0  0  0
   25.2769  -20.9375  -12.4492 C   0  0  2  0  0  0  0  0  0  0  0  0
   26.4585  -20.1003  -12.9150 N   0  0  0  0  0  0  0  0  0  0  0  0
   24.2604  -20.8177  -13.5018 C   0  0  0  0  0  0  0  0  0  0  0  0
   23.5760  -21.8777  -13.7735 O   0  0  0  0  0  0  0  0  0  0  0  0
   23.9128  -19.7317  -14.2524 O   0  0  0  0  0  0  0  0  0  0  0  0
  2 12  2  0
  2  1  1  0
  3  2  1  0
  4  5  1  0
  4  3  2  0
  5 11  2  0
  6  7  1  0
  6  5  1  0
  7  8  1  6
  9  7  1  0
  9 13  1  0
 10  9  2  0
 11 12  1  0
 13 14  1  0
 15 14  1  0
 15 16  2  0
 18 17  1  0
 19 18  2  0
 20 18  1  0
 21 22  1  0
 21 20  1  0
 22 23  1  0
 24 23  1  1
 24 25  1  0
 24 26  1  0
 25 15  1  0
 26 27  2  0
 26 28  1  0
M  END
$$$$
