YGR.pdb
     RDKit          3D

 28 28  0  0  1  0  0  0  0  0999 V2000
   12.6414  -28.7680   -4.0662 O   0  0  0  0  0  0  0  0  0  0  0  0
   13.5208  -27.8338   -4.6099 C   0  0  0  0  0  0  0  0  0  0  0  0
   13.9147  -27.9487   -5.9352 C   0  0  0  0  0  0  0  0  0  0  0  0
   14.7847  -27.0283   -6.4809 C   0  0  0  0  0  0  0  0  0  0  0  0
   15.2600  -25.9948   -5.7027 C   0  0  0  0  0  0  0  0  0  0  0  0
   16.1974  -25.0132   -6.3109 C   0  0  0  0  0  0  0  0  0  0  0  0
   17.5905  -25.6033   -6.3995 C   0  0  2  0  0  0  0  0  0  0  0  0
   18.1261  -25.8141   -5.0700 N   0  0  0  0  0  0  0  0  0  0  0  0
   18.4487  -24.7052   -7.2005 C   0  0  0  0  0  0  0  0  0  0  0  0
   19.1323  -23.7996   -6.6570 O   0  0  0  0  0  0  0  0  0  0  0  0
   14.8515  -25.9012   -4.3802 C   0  0  0  0  0  0  0  0  0  0  0  0
   13.9860  -26.8011   -3.8053 C   0  0  0  0  0  0  0  0  0  0  0  0
   18.5114  -24.8572   -8.6119 N   0  0  0  0  0  0  0  0  0  0  0  0
   19.3532  -24.0098   -9.4320 C   0  0  0  0  0  0  0  0  0  0  0  0
   19.3370  -24.4477  -10.8532 C   0  0  0  0  0  0  0  0  0  0  0  0
   18.6693  -25.4846  -11.1300 O   0  0  0  0  0  0  0  0  0  0  0  0
   13.4410  -22.3303  -14.2501 N   0  0  0  0  0  0  0  0  0  0  0  0
   14.3058  -21.2235  -14.0296 C   0  0  0  0  0  0  0  0  0  0  0  0
   13.7850  -20.0391  -14.0223 N   0  0  0  0  0  0  0  0  0  0  0  0
   15.6991  -21.3852  -13.8216 N   0  0  0  0  0  0  0  0  0  0  0  0
   16.2260  -22.7695  -13.7998 C   0  0  0  0  0  0  0  0  0  0  0  0
   17.6890  -22.7724  -13.5841 C   0  0  0  0  0  0  0  0  0  0  0  0
   18.3612  -24.0493  -13.4930 C   0  0  0  0  0  0  0  0  0  0  0  0
   19.8044  -24.2632  -13.3061 C   0  0  2  0  0  0  0  0  0  0  0  0
   20.0130  -23.7789  -11.8792 N   0  0  0  0  0  0  0  0  0  0  0  0
   20.7567  -23.5080  -14.1296 C   0  0  0  0  0  0  0  0  0  0  0  0
   21.2987  -22.4692  -13.5883 O   0  0  0  0  0  0  0  0  0  0  0  0
   21.1742  -23.7423  -15.4082 O   0  0  0  0  0  0  0  0  0  0  0  0
  2 12  2  0
  2  1  1  0
  3  2  1  0
  4  5  1  0
  4  3  2  0
  5 11  2  0
  6  7  1  0
  6  5  1  0
  7  8  1  1
  9  7  1  0
  9 13  1  0
 10  9  2  0
 11 12  1  0
 13 14  1  0
 15 14  1  0
 15 16  2  0
 18 17  1  0
 19 18  2  0
 20 18  1  0
 21 22  1  0
 21 20  1  0
 22 23  1  0
 24 23  1  6
 24 25  1  0
 24 26  1  0
 25 15  1  0
 26 27  2  0
 26 28  1  0
M  END
$$$$
