YGR.pdb
     RDKit          3D

 28 28  0  0  1  0  0  0  0  0999 V2000
   26.8096  -13.6036  -20.7527 O   0  0  0  0  0  0  0  0  0  0  0  0
   26.3957  -14.4969  -19.7667 C   0  0  0  0  0  0  0  0  0  0  0  0
   27.3328  -15.2847  -19.1138 C   0  0  0  0  0  0  0  0  0  0  0  0
   26.9313  -16.1713  -18.1368 C   0  0  0  0  0  0  0  0  0  0  0  0
   25.5954  -16.2700  -17.8131 C   0  0  0  0  0  0  0  0  0  0  0  0
   25.1839  -17.2325  -16.7565 C   0  0  0  0  0  0  0  0  0  0  0  0
   25.3060  -18.6546  -17.2657 C   0  0  2  0  0  0  0  0  0  0  0  0
   24.4417  -18.8475  -18.4123 N   0  0  0  0  0  0  0  0  0  0  0  0
   24.9816  -19.5927  -16.1704 C   0  0  0  0  0  0  0  0  0  0  0  0
   25.5707  -19.5289  -15.0606 O   0  0  0  0  0  0  0  0  0  0  0  0
   24.6775  -15.4716  -18.4799 C   0  0  0  0  0  0  0  0  0  0  0  0
   25.0436  -14.5780  -19.4582 C   0  0  0  0  0  0  0  0  0  0  0  0
   23.9876  -20.5898  -16.3623 N   0  0  0  0  0  0  0  0  0  0  0  0
   23.5891  -21.4827  -15.2931 C   0  0  0  0  0  0  0  0  0  0  0  0
   22.3461  -21.0074  -14.6291 C   0  0  0  0  0  0  0  0  0  0  0  0
   21.8358  -19.9343  -15.0600 O   0  0  0  0  0  0  0  0  0  0  0  0
   17.4160  -25.5808   -8.9373 N   0  0  0  0  0  0  0  0  0  0  0  0
   16.5859  -24.4821   -9.2912 C   0  0  0  0  0  0  0  0  0  0  0  0
   15.3311  -24.5459   -8.9823 N   0  0  0  0  0  0  0  0  0  0  0  0
   17.0924  -23.3400   -9.9620 N   0  0  0  0  0  0  0  0  0  0  0  0
   18.3769  -23.4910  -10.6841 C   0  0  0  0  0  0  0  0  0  0  0  0
   18.7258  -22.2468  -11.4034 C   0  0  0  0  0  0  0  0  0  0  0  0
   19.9297  -22.2381  -12.2041 C   0  0  0  0  0  0  0  0  0  0  0  0
   20.3991  -21.1380  -13.0602 C   0  0  2  0  0  0  0  0  0  0  0  0
   21.7263  -21.6791  -13.5700 N   0  0  0  0  0  0  0  0  0  0  0  0
   20.7024  -19.8347  -12.4561 C   0  0  0  0  0  0  0  0  0  0  0  0
   21.8389  -19.7220  -11.8549 O   0  0  0  0  0  0  0  0  0  0  0  0
   19.9544  -18.6928  -12.4359 O   0  0  0  0  0  0  0  0  0  0  0  0
  2 12  2  0
  2  1  1  0
  3  2  1  0
  4  5  1  0
  4  3  2  0
  5 11  2  0
  6  7  1  0
  6  5  1  0
  7  8  1  6
  9  7  1  0
  9 13  1  0
 10  9  2  0
 11 12  1  0
 13 14  1  0
 15 14  1  0
 15 16  2  0
 18 17  1  0
 19 18  2  0
 20 18  1  0
 21 22  1  0
 21 20  1  0
 22 23  1  0
 24 23  1  1
 24 25  1  0
 24 26  1  0
 25 15  1  0
 26 27  2  0
 26 28  1  0
M  END
$$$$
