YGR.pdb
     RDKit          3D

 28 28  0  0  1  0  0  0  0  0999 V2000
   19.2438  -31.5296   -5.7749 O   0  0  0  0  0  0  0  0  0  0  0  0
   18.7535  -30.3686   -6.3692 C   0  0  0  0  0  0  0  0  0  0  0  0
   19.3598  -29.8721   -7.5141 C   0  0  0  0  0  0  0  0  0  0  0  0
   18.8807  -28.7236   -8.1084 C   0  0  0  0  0  0  0  0  0  0  0  0
   17.7974  -28.0727   -7.5589 C   0  0  0  0  0  0  0  0  0  0  0  0
   17.2967  -26.8357   -8.2156 C   0  0  0  0  0  0  0  0  0  0  0  0
   18.3257  -25.7288   -8.1036 C   0  0  2  0  0  0  0  0  0  0  0  0
   18.5341  -25.3832   -6.7122 N   0  0  0  0  0  0  0  0  0  0  0  0
   17.8760  -24.5650   -8.8963 C   0  0  0  0  0  0  0  0  0  0  0  0
   16.7726  -24.0060   -8.6665 O   0  0  0  0  0  0  0  0  0  0  0  0
   17.2082  -28.5886   -6.4137 C   0  0  0  0  0  0  0  0  0  0  0  0
   17.6604  -29.7306   -5.7964 C   0  0  0  0  0  0  0  0  0  0  0  0
   18.6963  -24.0588   -9.9402 N   0  0  0  0  0  0  0  0  0  0  0  0
   18.1293  -23.5049  -11.1530 C   0  0  0  0  0  0  0  0  0  0  0  0
   19.1917  -22.9974  -12.0617 C   0  0  0  0  0  0  0  0  0  0  0  0
   20.3340  -23.5300  -11.9681 O   0  0  0  0  0  0  0  0  0  0  0  0
   18.5414  -26.3227  -17.8419 N   0  0  0  0  0  0  0  0  0  0  0  0
   19.6918  -25.8383  -18.5226 C   0  0  0  0  0  0  0  0  0  0  0  0
   19.7662  -26.0300  -19.8000 N   0  0  0  0  0  0  0  0  0  0  0  0
   20.7391  -25.1627  -17.8462 N   0  0  0  0  0  0  0  0  0  0  0  0
   20.5482  -24.8864  -16.4035 C   0  0  0  0  0  0  0  0  0  0  0  0
   19.5504  -23.8138  -16.2006 C   0  0  0  0  0  0  0  0  0  0  0  0
   19.3286  -23.3361  -14.8541 C   0  0  0  0  0  0  0  0  0  0  0  0
   19.7665  -22.0440  -14.3045 C   0  0  2  0  0  0  0  0  0  0  0  0
   18.9904  -21.9775  -12.9978 N   0  0  0  0  0  0  0  0  0  0  0  0
   19.4430  -20.8075  -15.0269 C   0  0  0  0  0  0  0  0  0  0  0  0
   18.3368  -20.2218  -14.7122 O   0  0  0  0  0  0  0  0  0  0  0  0
   20.1500  -20.1607  -15.9993 O   0  0  0  0  0  0  0  0  0  0  0  0
  2 12  2  0
  2  1  1  0
  3  2  1  0
  4  5  1  0
  4  3  2  0
  5 11  2  0
  6  7  1  0
  6  5  1  0
  7  8  1  1
  9  7  1  0
  9 13  1  0
 10  9  2  0
 11 12  1  0
 13 14  1  0
 15 14  1  0
 15 16  2  0
 18 17  1  0
 19 18  2  0
 20 18  1  0
 21 22  1  0
 21 20  1  0
 22 23  1  0
 24 23  1  6
 24 25  1  0
 24 26  1  0
 25 15  1  0
 26 27  2  0
 26 28  1  0
M  END
$$$$
