YGR.pdb
     RDKit          3D

 28 28  0  0  1  0  0  0  0  0999 V2000
   18.2062  -13.7249  -18.4871 O   0  0  0  0  0  0  0  0  0  0  0  0
   19.1429  -14.5890  -17.9234 C   0  0  0  0  0  0  0  0  0  0  0  0
   18.7166  -15.7417  -17.2797 C   0  0  0  0  0  0  0  0  0  0  0  0
   19.6371  -16.6021  -16.7192 C   0  0  0  0  0  0  0  0  0  0  0  0
   20.9815  -16.3104  -16.8023 C   0  0  0  0  0  0  0  0  0  0  0  0
   21.9575  -17.2517  -16.1911 C   0  0  0  0  0  0  0  0  0  0  0  0
   22.2888  -18.3675  -17.1616 C   0  0  2  0  0  0  0  0  0  0  0  0
   21.1152  -19.1827  -17.4006 N   0  0  0  0  0  0  0  0  0  0  0  0
   23.4096  -19.1651  -16.6210 C   0  0  0  0  0  0  0  0  0  0  0  0
   24.5392  -18.6497  -16.4181 O   0  0  0  0  0  0  0  0  0  0  0  0
   21.3830  -15.1517  -17.4511 C   0  0  0  0  0  0  0  0  0  0  0  0
   20.4923  -14.2731  -18.0203 C   0  0  0  0  0  0  0  0  0  0  0  0
   23.2205  -20.5410  -16.3208 N   0  0  0  0  0  0  0  0  0  0  0  0
   24.3003  -21.3657  -15.8178 C   0  0  0  0  0  0  0  0  0  0  0  0
   25.0460  -20.6743  -14.7326 C   0  0  0  0  0  0  0  0  0  0  0  0
   24.5933  -19.5616  -14.3397 O   0  0  0  0  0  0  0  0  0  0  0  0
   22.8939  -22.6520   -8.1873 N   0  0  0  0  0  0  0  0  0  0  0  0
   23.0594  -21.2520   -8.3727 C   0  0  0  0  0  0  0  0  0  0  0  0
   22.0092  -20.5010   -8.2896 N   0  0  0  0  0  0  0  0  0  0  0  0
   24.3250  -20.6717   -8.6413 N   0  0  0  0  0  0  0  0  0  0  0  0
   25.2113  -21.3851   -9.5898 C   0  0  0  0  0  0  0  0  0  0  0  0
   25.5220  -20.5359  -10.7601 C   0  0  0  0  0  0  0  0  0  0  0  0
   26.3300  -21.1024  -11.8169 C   0  0  0  0  0  0  0  0  0  0  0  0
   26.8347  -20.3941  -13.0031 C   0  0  2  0  0  0  0  0  0  0  0  0
   26.2031  -21.1875  -14.1370 N   0  0  0  0  0  0  0  0  0  0  0  0
   28.2773  -20.3835  -13.2757 C   0  0  0  0  0  0  0  0  0  0  0  0
   28.8353  -19.2280  -13.4141 O   0  0  0  0  0  0  0  0  0  0  0  0
   29.1439  -21.4309  -13.4024 O   0  0  0  0  0  0  0  0  0  0  0  0
  2 12  2  0
  2  1  1  0
  3  2  1  0
  4  5  1  0
  4  3  2  0
  5 11  2  0
  6  7  1  0
  6  5  1  0
  7  8  1  1
  9  7  1  0
  9 13  1  0
 10  9  2  0
 11 12  1  0
 13 14  1  0
 15 14  1  0
 15 16  2  0
 18 17  1  0
 19 18  2  0
 20 18  1  0
 21 22  1  0
 21 20  1  0
 22 23  1  0
 24 23  1  1
 24 25  1  0
 24 26  1  0
 25 15  1  0
 26 27  2  0
 26 28  1  0
M  END
$$$$
