YGR.pdb
     RDKit          3D

 28 28  0  0  1  0  0  0  0  0999 V2000
   30.7706  -17.0066  -18.6812 O   0  0  0  0  0  0  0  0  0  0  0  0
   29.6514  -17.1153  -17.8584 C   0  0  0  0  0  0  0  0  0  0  0  0
   28.6947  -16.1105  -17.8609 C   0  0  0  0  0  0  0  0  0  0  0  0
   27.5840  -16.2105  -17.0495 C   0  0  0  0  0  0  0  0  0  0  0  0
   27.4303  -17.3131  -16.2371 C   0  0  0  0  0  0  0  0  0  0  0  0
   26.2253  -17.4010  -15.3698 C   0  0  0  0  0  0  0  0  0  0  0  0
   25.4031  -18.6203  -15.7360 C   0  0  2  0  0  0  0  0  0  0  0  0
   24.9912  -18.5434  -17.1229 N   0  0  0  0  0  0  0  0  0  0  0  0
   24.2438  -18.7166  -14.8241 C   0  0  0  0  0  0  0  0  0  0  0  0
   24.3904  -18.6745  -13.5754 O   0  0  0  0  0  0  0  0  0  0  0  0
   28.4007  -18.3045  -16.2523 C   0  0  0  0  0  0  0  0  0  0  0  0
   29.5191  -18.2363  -17.0485 C   0  0  0  0  0  0  0  0  0  0  0  0
   22.9338  -18.8595  -15.3558 N   0  0  0  0  0  0  0  0  0  0  0  0
   21.7704  -18.9553  -14.4975 C   0  0  0  0  0  0  0  0  0  0  0  0
   20.7726  -19.9115  -15.0470 C   0  0  0  0  0  0  0  0  0  0  0  0
   20.8689  -20.2053  -16.2725 O   0  0  0  0  0  0  0  0  0  0  0  0
   18.1241  -25.6696  -11.3514 N   0  0  0  0  0  0  0  0  0  0  0  0
   19.5107  -25.9203  -11.5408 C   0  0  0  0  0  0  0  0  0  0  0  0
   19.9286  -27.1388  -11.4202 N   0  0  0  0  0  0  0  0  0  0  0  0
   20.4281  -24.8851  -11.8530 N   0  0  0  0  0  0  0  0  0  0  0  0
   19.8825  -23.5157  -11.9986 C   0  0  0  0  0  0  0  0  0  0  0  0
   20.1632  -22.9780  -13.3474 C   0  0  0  0  0  0  0  0  0  0  0  0
   19.0418  -22.7037  -14.2179 C   0  0  0  0  0  0  0  0  0  0  0  0
   18.8106  -21.4655  -14.9775 C   0  0  2  0  0  0  0  0  0  0  0  0
   19.7515  -20.4906  -14.2860 N   0  0  0  0  0  0  0  0  0  0  0  0
   17.4844  -20.8366  -14.9427 C   0  0  0  0  0  0  0  0  0  0  0  0
   16.5347  -21.4452  -15.5697 O   0  0  0  0  0  0  0  0  0  0  0  0
   17.0873  -19.6830  -14.3299 O   0  0  0  0  0  0  0  0  0  0  0  0
  2 12  2  0
  2  1  1  0
  3  2  1  0
  4  5  1  0
  4  3  2  0
  5 11  2  0
  6  7  1  0
  6  5  1  0
  7  8  1  6
  9  7  1  0
  9 13  1  0
 10  9  2  0
 11 12  1  0
 13 14  1  0
 15 14  1  0
 15 16  2  0
 18 17  1  0
 19 18  2  0
 20 18  1  0
 21 22  1  0
 21 20  1  0
 22 23  1  0
 24 23  1  1
 24 25  1  0
 24 26  1  0
 25 15  1  0
 26 27  2  0
 26 28  1  0
M  END
$$$$
