YGR.pdb
     RDKit          3D

 28 28  0  0  1  0  0  0  0  0999 V2000
   22.5108  -21.5866   -7.2634 O   0  0  0  0  0  0  0  0  0  0  0  0
   23.2551  -21.2708   -8.3982 C   0  0  0  0  0  0  0  0  0  0  0  0
   24.6161  -21.0269   -8.2833 C   0  0  0  0  0  0  0  0  0  0  0  0
   25.3599  -20.7137   -9.4016 C   0  0  0  0  0  0  0  0  0  0  0  0
   24.7440  -20.6445  -10.6325 C   0  0  0  0  0  0  0  0  0  0  0  0
   25.5646  -20.3051  -11.8257 C   0  0  0  0  0  0  0  0  0  0  0  0
   25.5933  -21.4722  -12.7920 C   0  0  2  0  0  0  0  0  0  0  0  0
   26.2412  -22.6119  -12.1752 N   0  0  0  0  0  0  0  0  0  0  0  0
   26.2786  -21.0579  -14.0343 C   0  0  0  0  0  0  0  0  0  0  0  0
   27.5239  -20.8821  -14.0653 O   0  0  0  0  0  0  0  0  0  0  0  0
   23.3819  -20.8925  -10.7218 C   0  0  0  0  0  0  0  0  0  0  0  0
   22.6115  -21.2071   -9.6277 C   0  0  0  0  0  0  0  0  0  0  0  0
   25.5278  -20.8509  -15.2228 N   0  0  0  0  0  0  0  0  0  0  0  0
   26.1124  -20.2298  -16.3940 C   0  0  0  0  0  0  0  0  0  0  0  0
   25.6215  -18.8366  -16.5670 C   0  0  0  0  0  0  0  0  0  0  0  0
   24.5959  -18.5004  -15.9093 O   0  0  0  0  0  0  0  0  0  0  0  0
   24.7222  -11.5488  -17.1387 N   0  0  0  0  0  0  0  0  0  0  0  0
   24.2177  -12.4033  -16.1204 C   0  0  0  0  0  0  0  0  0  0  0  0
   22.9991  -12.2220  -15.7254 N   0  0  0  0  0  0  0  0  0  0  0  0
   25.0046  -13.4300  -15.5395 N   0  0  0  0  0  0  0  0  0  0  0  0
   26.4304  -13.4985  -15.9353 C   0  0  0  0  0  0  0  0  0  0  0  0
   26.5819  -14.1735  -17.2424 C   0  0  0  0  0  0  0  0  0  0  0  0
   26.6564  -15.6174  -17.2584 C   0  0  0  0  0  0  0  0  0  0  0  0
   25.5569  -16.5434  -17.5700 C   0  0  2  0  0  0  0  0  0  0  0  0
   26.2296  -17.8981  -17.4074 N   0  0  0  0  0  0  0  0  0  0  0  0
   24.9758  -16.5432  -18.9183 C   0  0  0  0  0  0  0  0  0  0  0  0
   25.5229  -17.3239  -19.7883 O   0  0  0  0  0  0  0  0  0  0  0  0
   23.9165  -15.8334  -19.4062 O   0  0  0  0  0  0  0  0  0  0  0  0
  2 12  2  0
  2  1  1  0
  3  2  1  0
  4  5  1  0
  4  3  2  0
  5 11  2  0
  6  7  1  0
  6  5  1  0
  7  8  1  1
  9  7  1  0
  9 13  1  0
 10  9  2  0
 11 12  1  0
 13 14  1  0
 15 14  1  0
 15 16  2  0
 18 17  1  0
 19 18  2  0
 20 18  1  0
 21 22  1  0
 21 20  1  0
 22 23  1  0
 24 23  1  6
 24 25  1  0
 24 26  1  0
 25 15  1  0
 26 27  2  0
 26 28  1  0
M  END
$$$$
