EMH.pdb
     RDKit          3D

 28 28  0  0  1  0  0  0  0  0999 V2000
   22.3702  -18.2380  -15.3511 N   0  0  0  0  0  0  0  0  0  0  0  0
   21.9297  -17.0019  -15.9546 C   0  0  1  0  0  0  0  0  0  0  0  0
   20.4282  -16.9150  -15.9603 C   0  0  0  0  0  0  0  0  0  0  0  0
   19.8230  -18.0291  -16.8016 C   0  0  0  0  0  0  0  0  0  0  0  0
   18.3538  -17.9398  -16.8237 C   0  0  0  0  0  0  0  0  0  0  0  0
   17.7318  -17.0691  -16.1793 O   0  0  0  0  0  0  0  0  0  0  0  0
   22.4766  -15.8175  -15.2542 C   0  0  0  0  0  0  0  0  0  0  0  0
   22.4890  -15.8240  -14.0050 O   0  0  0  0  0  0  0  0  0  0  0  0
   17.6495  -18.8765  -17.6059 O   0  0  0  0  0  0  0  0  0  0  0  0
   28.0172  -13.0402  -16.1118 C   0  0  0  0  0  0  0  0  0  0  0  0
   27.6113  -14.6647  -15.4149 S   0  0  0  0  0  0  0  0  0  0  0  0
   25.8694  -14.6503  -14.9211 C   0  0  0  0  0  0  0  0  0  0  0  0
   25.1091  -13.5370  -15.5957 C   0  0  0  0  0  0  0  0  0  0  0  0
   23.6516  -13.5780  -15.2916 C   0  0  2  0  0  0  0  0  0  0  0  0
   22.9816  -14.6811  -15.9294 N   0  0  0  0  0  0  0  0  0  0  0  0
   22.9338  -12.3224  -15.5694 C   0  0  0  0  0  0  0  0  0  0  0  0
   22.5083  -12.1839  -16.7707 O   0  0  0  0  0  0  0  0  0  0  0  0
   22.7014  -11.3081  -14.6222 N   0  0  0  0  0  0  0  0  0  0  0  0
   21.9671  -10.1285  -14.9962 C   0  0  1  0  0  0  0  0  0  0  0  0
   21.6946   -9.2317  -13.8349 C   0  0  0  0  0  0  0  0  0  0  0  0
   20.8740   -8.0824  -14.2615 C   0  0  0  0  0  0  0  0  0  0  0  0
   20.3328   -7.9146  -15.5471 C   0  0  0  0  0  0  0  0  0  0  0  0
   19.6533   -6.7752  -15.6088 N   0  0  0  0  0  0  0  0  0  0  0  0
   19.7367   -6.2010  -14.4046 C   0  0  0  0  0  0  0  0  0  0  0  0
   20.4673   -6.9845  -13.5997 N   0  0  0  0  0  0  0  0  0  0  0  0
   22.7687   -9.4104  -16.0074 C   0  0  0  0  0  0  0  0  0  0  0  0
   22.2245   -9.0332  -17.0954 O   0  0  0  0  0  0  0  0  0  0  0  0
   24.0895   -9.1431  -15.7880 O   0  0  0  0  0  0  0  0  0  0  0  0
  2  3  1  0
  2  1  1  1
  3  4  1  0
  4  5  1  0
  5  9  1  0
  5  6  2  0
  7  2  1  0
  8  7  2  0
 11 12  1  0
 11 10  1  0
 12 13  1  0
 14 13  1  6
 14 15  1  0
 15  7  1  0
 16 14  1  0
 16 17  2  0
 18 16  1  0
 19 18  1  0
 19 20  1  1
 21 20  1  0
 22 21  2  0
 23 22  1  0
 24 23  1  0
 24 25  2  0
 25 21  1  0
 26 19  1  0
 26 28  1  0
 27 26  2  0
M  END
$$$$
