EMH.pdb
     RDKit          3D

 28 28  0  0  1  0  0  0  0  0999 V2000
   28.9721  -22.2568  -16.5344 N   0  0  0  0  0  0  0  0  0  0  0  0
   28.2899  -21.1950  -17.2368 C   0  0  1  0  0  0  0  0  0  0  0  0
   27.9336  -21.6213  -18.6345 C   0  0  0  0  0  0  0  0  0  0  0  0
   27.2667  -20.4848  -19.3954 C   0  0  0  0  0  0  0  0  0  0  0  0
   26.4072  -21.0000  -20.4737 C   0  0  0  0  0  0  0  0  0  0  0  0
   25.3633  -21.6448  -20.2399 O   0  0  0  0  0  0  0  0  0  0  0  0
   27.0573  -20.7691  -16.5356 C   0  0  0  0  0  0  0  0  0  0  0  0
   26.1518  -21.6134  -16.3683 O   0  0  0  0  0  0  0  0  0  0  0  0
   26.7949  -20.7428  -21.8038 O   0  0  0  0  0  0  0  0  0  0  0  0
   26.5017  -21.6367  -10.5301 C   0  0  0  0  0  0  0  0  0  0  0  0
   26.4602  -19.9975  -11.3052 S   0  0  0  0  0  0  0  0  0  0  0  0
   26.1458  -20.2152  -13.0750 C   0  0  0  0  0  0  0  0  0  0  0  0
   26.1038  -18.8937  -13.7991 C   0  0  0  0  0  0  0  0  0  0  0  0
   25.7413  -19.0439  -15.2360 C   0  0  2  0  0  0  0  0  0  0  0  0
   26.8550  -19.4555  -16.0500 N   0  0  0  0  0  0  0  0  0  0  0  0
   25.0917  -17.8628  -15.8291 C   0  0  0  0  0  0  0  0  0  0  0  0
   25.8864  -16.9614  -16.2756 O   0  0  0  0  0  0  0  0  0  0  0  0
   23.6997  -17.6804  -15.9260 N   0  0  0  0  0  0  0  0  0  0  0  0
   23.1706  -16.4963  -16.5495 C   0  0  1  0  0  0  0  0  0  0  0  0
   23.5683  -16.3778  -17.9830 C   0  0  0  0  0  0  0  0  0  0  0  0
   22.3738  -16.4236  -18.8476 C   0  0  0  0  0  0  0  0  0  0  0  0
   21.1683  -17.0661  -18.5191 C   0  0  0  0  0  0  0  0  0  0  0  0
   20.2961  -16.9299  -19.5112 N   0  0  0  0  0  0  0  0  0  0  0  0
   20.8979  -16.2195  -20.4704 C   0  0  0  0  0  0  0  0  0  0  0  0
   22.1409  -15.9173  -20.0715 N   0  0  0  0  0  0  0  0  0  0  0  0
   21.6992  -16.5586  -16.4405 C   0  0  0  0  0  0  0  0  0  0  0  0
   21.1404  -17.6209  -16.0144 O   0  0  0  0  0  0  0  0  0  0  0  0
   20.9288  -15.4869  -16.7897 O   0  0  0  0  0  0  0  0  0  0  0  0
  2  3  1  0
  2  1  1  1
  3  4  1  0
  4  5  1  0
  5  9  1  0
  5  6  2  0
  7  2  1  0
  8  7  2  0
 11 12  1  0
 11 10  1  0
 12 13  1  0
 14 13  1  1
 14 15  1  0
 15  7  1  0
 16 14  1  0
 16 17  2  0
 18 16  1  0
 19 18  1  0
 19 20  1  6
 21 20  1  0
 22 21  2  0
 23 22  1  0
 24 23  1  0
 24 25  2  0
 25 21  1  0
 26 19  1  0
 26 28  1  0
 27 26  2  0
M  END
$$$$
