EMH.pdb
     RDKit          3D

 28 28  0  0  1  0  0  0  0  0999 V2000
   15.1816  -12.0038  -11.1172 N   0  0  0  0  0  0  0  0  0  0  0  0
   15.0985  -10.5694  -10.9687 C   0  0  1  0  0  0  0  0  0  0  0  0
   14.3658  -10.2042   -9.7069 C   0  0  0  0  0  0  0  0  0  0  0  0
   12.9363  -10.7245   -9.7390 C   0  0  0  0  0  0  0  0  0  0  0  0
   11.9682   -9.6281   -9.5731 C   0  0  0  0  0  0  0  0  0  0  0  0
   12.3265   -8.4360   -9.4696 O   0  0  0  0  0  0  0  0  0  0  0  0
   16.4366   -9.9359  -10.9474 C   0  0  0  0  0  0  0  0  0  0  0  0
   17.4269  -10.6564  -10.7004 O   0  0  0  0  0  0  0  0  0  0  0  0
   10.5992   -9.9595   -9.5349 O   0  0  0  0  0  0  0  0  0  0  0  0
   22.3855   -8.1093  -14.5878 C   0  0  0  0  0  0  0  0  0  0  0  0
   20.7660   -8.8825  -14.3256 S   0  0  0  0  0  0  0  0  0  0  0  0
   19.9654   -8.0602  -12.9252 C   0  0  0  0  0  0  0  0  0  0  0  0
   18.6122   -8.6555  -12.6301 C   0  0  0  0  0  0  0  0  0  0  0  0
   17.9199   -7.9650  -11.5065 C   0  0  2  0  0  0  0  0  0  0  0  0
   16.6468   -8.5577  -11.1899 N   0  0  0  0  0  0  0  0  0  0  0  0
   17.7699   -6.5105  -11.6825 C   0  0  0  0  0  0  0  0  0  0  0  0
   16.9898   -6.1470  -12.6326 O   0  0  0  0  0  0  0  0  0  0  0  0
   18.4136   -5.5393  -10.8937 N   0  0  0  0  0  0  0  0  0  0  0  0
   18.1974   -4.1408  -11.1550 C   0  0  1  0  0  0  0  0  0  0  0  0
   18.0825   -3.3357   -9.9037 C   0  0  0  0  0  0  0  0  0  0  0  0
   16.7884   -3.5995   -9.2464 C   0  0  0  0  0  0  0  0  0  0  0  0
   15.7882   -4.4468   -9.7520 C   0  0  0  0  0  0  0  0  0  0  0  0
   14.7466   -4.4619   -8.9284 N   0  0  0  0  0  0  0  0  0  0  0  0
   15.0408   -3.6524   -7.9060 C   0  0  0  0  0  0  0  0  0  0  0  0
   16.2629   -3.1375   -8.0979 N   0  0  0  0  0  0  0  0  0  0  0  0
   19.3389   -3.6591  -11.9586 C   0  0  0  0  0  0  0  0  0  0  0  0
   20.3392   -4.4218  -12.1581 O   0  0  0  0  0  0  0  0  0  0  0  0
   19.3334   -2.4030  -12.4937 O   0  0  0  0  0  0  0  0  0  0  0  0
  2  3  1  0
  2  1  1  1
  3  4  1  0
  4  5  1  0
  5  9  1  0
  5  6  2  0
  7  2  1  0
  8  7  2  0
 11 12  1  0
 11 10  1  0
 12 13  1  0
 14 13  1  6
 14 15  1  0
 15  7  1  0
 16 14  1  0
 16 17  2  0
 18 16  1  0
 19 18  1  0
 19 20  1  1
 21 20  1  0
 22 21  2  0
 23 22  1  0
 24 23  1  0
 24 25  2  0
 25 21  1  0
 26 19  1  0
 26 28  1  0
 27 26  2  0
M  END
$$$$
