EMH.pdb
     RDKit          3D

 28 28  0  0  1  0  0  0  0  0999 V2000
   14.4231  -11.6289  -10.8138 N   0  0  0  0  0  0  0  0  0  0  0  0
   15.6337  -10.9384  -10.4346 C   0  0  1  0  0  0  0  0  0  0  0  0
   16.7597  -11.2797  -11.3716 C   0  0  0  0  0  0  0  0  0  0  0  0
   16.3536  -11.0407  -12.8184 C   0  0  0  0  0  0  0  0  0  0  0  0
   17.4316  -11.4270  -13.7434 C   0  0  0  0  0  0  0  0  0  0  0  0
   18.2861  -10.6095  -14.1455 O   0  0  0  0  0  0  0  0  0  0  0  0
   15.4516   -9.4690  -10.4179 C   0  0  0  0  0  0  0  0  0  0  0  0
   14.8226   -8.9414  -11.3596 O   0  0  0  0  0  0  0  0  0  0  0  0
   17.4807  -12.7681  -14.1730 O   0  0  0  0  0  0  0  0  0  0  0  0
   10.6648   -7.1959   -7.3536 C   0  0  0  0  0  0  0  0  0  0  0  0
   12.3545   -6.6197   -7.0336 S   0  0  0  0  0  0  0  0  0  0  0  0
   13.4032   -7.1449   -8.4131 C   0  0  0  0  0  0  0  0  0  0  0  0
   14.8575   -6.8471   -8.1510 C   0  0  0  0  0  0  0  0  0  0  0  0
   15.7299   -7.2173   -9.3001 C   0  0  2  0  0  0  0  0  0  0  0  0
   15.9565   -8.6360   -9.3915 N   0  0  0  0  0  0  0  0  0  0  0  0
   17.0134   -6.4968   -9.3500 C   0  0  0  0  0  0  0  0  0  0  0  0
   17.9443   -6.9753   -8.6098 O   0  0  0  0  0  0  0  0  0  0  0  0
   17.2596   -5.3560  -10.1361 N   0  0  0  0  0  0  0  0  0  0  0  0
   18.4387   -5.2891  -10.9582 C   0  0  1  0  0  0  0  0  0  0  0  0
   18.6889   -6.5570  -11.7044 C   0  0  0  0  0  0  0  0  0  0  0  0
   19.8279   -6.3881  -12.6266 C   0  0  0  0  0  0  0  0  0  0  0  0
   20.5340   -5.1890  -12.8203 C   0  0  0  0  0  0  0  0  0  0  0  0
   21.4945   -5.3677  -13.7198 N   0  0  0  0  0  0  0  0  0  0  0  0
   21.4332   -6.6436  -14.1136 C   0  0  0  0  0  0  0  0  0  0  0  0
   20.4356   -7.2526  -13.4584 N   0  0  0  0  0  0  0  0  0  0  0  0
   18.2520   -4.1753  -11.9098 C   0  0  0  0  0  0  0  0  0  0  0  0
   19.2389   -3.4295  -12.2129 O   0  0  0  0  0  0  0  0  0  0  0  0
   17.0309   -3.9367  -12.4720 O   0  0  0  0  0  0  0  0  0  0  0  0
  2  3  1  0
  2  1  1  6
  3  4  1  0
  4  5  1  0
  5  9  1  0
  5  6  2  0
  7  2  1  0
  8  7  2  0
 11 12  1  0
 11 10  1  0
 12 13  1  0
 14 13  1  1
 14 15  1  0
 15  7  1  0
 16 14  1  0
 16 17  2  0
 18 16  1  0
 19 18  1  0
 19 20  1  6
 21 20  1  0
 22 21  2  0
 23 22  1  0
 24 23  1  0
 24 25  2  0
 25 21  1  0
 26 19  1  0
 26 28  1  0
 27 26  2  0
M  END
$$$$
