EMH.pdb
     RDKit          3D

 28 28  0  0  1  0  0  0  0  0999 V2000
   28.3067  -19.5754  -16.3634 N   0  0  0  0  0  0  0  0  0  0  0  0
   27.5878  -20.7998  -16.6287 C   0  0  1  0  0  0  0  0  0  0  0  0
   28.4788  -21.8078  -17.3011 C   0  0  0  0  0  0  0  0  0  0  0  0
   29.9116  -21.3013  -17.3766 C   0  0  0  0  0  0  0  0  0  0  0  0
   30.5882  -21.7996  -18.5852 C   0  0  0  0  0  0  0  0  0  0  0  0
   31.8034  -21.6011  -18.7954 O   0  0  0  0  0  0  0  0  0  0  0  0
   27.0349  -21.3971  -15.3919 C   0  0  0  0  0  0  0  0  0  0  0  0
   27.3217  -22.5846  -15.1305 O   0  0  0  0  0  0  0  0  0  0  0  0
   29.8193  -22.5225  -19.5189 O   0  0  0  0  0  0  0  0  0  0  0  0
   25.7685  -20.7506   -7.8370 C   0  0  0  0  0  0  0  0  0  0  0  0
   26.5932  -20.2063   -9.3579 S   0  0  0  0  0  0  0  0  0  0  0  0
   25.8081  -21.0426  -10.7588 C   0  0  0  0  0  0  0  0  0  0  0  0
   26.4342  -20.6392  -12.0694 C   0  0  0  0  0  0  0  0  0  0  0  0
   25.7148  -21.2089  -13.2426 C   0  0  2  0  0  0  0  0  0  0  0  0
   26.1977  -20.6908  -14.4959 N   0  0  0  0  0  0  0  0  0  0  0  0
   24.2484  -21.0885  -13.1778 C   0  0  0  0  0  0  0  0  0  0  0  0
   23.7838  -19.9052  -13.3425 O   0  0  0  0  0  0  0  0  0  0  0  0
   23.3674  -22.1624  -12.9527 N   0  0  0  0  0  0  0  0  0  0  0  0
   21.9470  -21.9341  -12.9232 C   0  0  1  0  0  0  0  0  0  0  0  0
   21.5327  -21.0495  -11.7949 C   0  0  0  0  0  0  0  0  0  0  0  0
   20.0659  -20.8925  -11.7839 C   0  0  0  0  0  0  0  0  0  0  0  0
   19.1802  -21.5565  -12.6492 C   0  0  0  0  0  0  0  0  0  0  0  0
   17.9304  -21.1921  -12.3869 N   0  0  0  0  0  0  0  0  0  0  0  0
   17.9787  -20.3148  -11.3796 C   0  0  0  0  0  0  0  0  0  0  0  0
   19.2572  -20.1369  -11.0200 N   0  0  0  0  0  0  0  0  0  0  0  0
   21.5715  -21.3149  -14.2102 C   0  0  0  0  0  0  0  0  0  0  0  0
   20.6483  -21.8345  -14.9172 O   0  0  0  0  0  0  0  0  0  0  0  0
   22.2025  -20.1872  -14.6511 O   0  0  0  0  0  0  0  0  0  0  0  0
  2  3  1  0
  2  1  1  1
  3  4  1  0
  4  5  1  0
  5  9  1  0
  5  6  2  0
  7  2  1  0
  8  7  2  0
 11 12  1  0
 11 10  1  0
 12 13  1  0
 14 13  1  1
 14 15  1  0
 15  7  1  0
 16 14  1  0
 16 17  2  0
 18 16  1  0
 19 18  1  0
 19 20  1  1
 21 20  1  0
 22 21  2  0
 23 22  1  0
 24 23  1  0
 24 25  2  0
 25 21  1  0
 26 19  1  0
 26 28  1  0
 27 26  2  0
M  END
$$$$
