EMH.pdb
     RDKit          3D

 28 28  0  0  1  0  0  0  0  0999 V2000
   26.8293  -20.9902  -15.8305 N   0  0  0  0  0  0  0  0  0  0  0  0
   26.8616  -20.1014  -14.6924 C   0  0  1  0  0  0  0  0  0  0  0  0
   25.5366  -19.4121  -14.5147 C   0  0  0  0  0  0  0  0  0  0  0  0
   25.2317  -18.5076  -15.6997 C   0  0  0  0  0  0  0  0  0  0  0  0
   24.0330  -17.6906  -15.4498 C   0  0  0  0  0  0  0  0  0  0  0  0
   23.1749  -18.0131  -14.6014 O   0  0  0  0  0  0  0  0  0  0  0  0
   27.2031  -20.8154  -13.4410 C   0  0  0  0  0  0  0  0  0  0  0  0
   26.5890  -21.8709  -13.1772 O   0  0  0  0  0  0  0  0  0  0  0  0
   23.8722  -16.5108  -16.2031 O   0  0  0  0  0  0  0  0  0  0  0  0
   33.0265  -23.2872  -11.0536 C   0  0  0  0  0  0  0  0  0  0  0  0
   31.8527  -22.2531  -10.1359 S   0  0  0  0  0  0  0  0  0  0  0  0
   30.7447  -21.4590  -11.3277 C   0  0  0  0  0  0  0  0  0  0  0  0
   29.7073  -20.6077  -10.6411 C   0  0  0  0  0  0  0  0  0  0  0  0
   28.3376  -20.8348  -11.1805 C   0  0  2  0  0  0  0  0  0  0  0  0
   28.1863  -20.3598  -12.5310 N   0  0  0  0  0  0  0  0  0  0  0  0
   27.2527  -20.3077  -10.3354 C   0  0  0  0  0  0  0  0  0  0  0  0
   27.0994  -19.0353  -10.3636 O   0  0  0  0  0  0  0  0  0  0  0  0
   26.4108  -21.0975   -9.5307 N   0  0  0  0  0  0  0  0  0  0  0  0
   26.2691  -20.8014   -8.1296 C   0  0  1  0  0  0  0  0  0  0  0  0
   26.5582  -19.3716   -7.8146 C   0  0  0  0  0  0  0  0  0  0  0  0
   27.1654  -19.2588   -6.4749 C   0  0  0  0  0  0  0  0  0  0  0  0
   27.4674  -20.3443   -5.6355 C   0  0  0  0  0  0  0  0  0  0  0  0
   27.9968  -19.9062   -4.4991 N   0  0  0  0  0  0  0  0  0  0  0  0
   28.0479  -18.5726   -4.5765 C   0  0  0  0  0  0  0  0  0  0  0  0
   27.5501  -18.1871   -5.7593 N   0  0  0  0  0  0  0  0  0  0  0  0
   24.8810  -21.1289   -7.7464 C   0  0  0  0  0  0  0  0  0  0  0  0
   24.0724  -21.5800   -8.6209 O   0  0  0  0  0  0  0  0  0  0  0  0
   24.4539  -20.9554   -6.4612 O   0  0  0  0  0  0  0  0  0  0  0  0
  2  3  1  0
  2  1  1  6
  3  4  1  0
  4  5  1  0
  5  9  1  0
  5  6  2  0
  7  2  1  0
  8  7  2  0
 11 12  1  0
 11 10  1  0
 12 13  1  0
 14 13  1  1
 14 15  1  0
 15  7  1  0
 16 14  1  0
 16 17  2  0
 18 16  1  0
 19 18  1  0
 19 20  1  6
 21 20  1  0
 22 21  2  0
 23 22  1  0
 24 23  1  0
 24 25  2  0
 25 21  1  0
 26 19  1  0
 26 28  1  0
 27 26  2  0
M  END
$$$$
