EMH.pdb
     RDKit          3D

 28 28  0  0  1  0  0  0  0  0999 V2000
   28.4587  -31.6728  -14.6674 N   0  0  0  0  0  0  0  0  0  0  0  0
   28.3041  -32.8408  -15.5030 C   0  0  1  0  0  0  0  0  0  0  0  0
   27.1787  -32.6519  -16.4829 C   0  0  0  0  0  0  0  0  0  0  0  0
   25.8633  -32.4068  -15.7584 C   0  0  0  0  0  0  0  0  0  0  0  0
   25.0174  -33.6114  -15.7712 C   0  0  0  0  0  0  0  0  0  0  0  0
   23.9008  -33.6445  -15.2124 O   0  0  0  0  0  0  0  0  0  0  0  0
   29.5432  -33.1559  -16.2498 C   0  0  0  0  0  0  0  0  0  0  0  0
   29.5371  -34.1452  -17.0128 O   0  0  0  0  0  0  0  0  0  0  0  0
   25.5042  -34.7501  -16.4434 O   0  0  0  0  0  0  0  0  0  0  0  0
   30.6789  -32.1801  -21.8580 C   0  0  0  0  0  0  0  0  0  0  0  0
   31.9981  -32.1500  -20.6138 S   0  0  0  0  0  0  0  0  0  0  0  0
   31.2516  -31.7851  -19.0050 C   0  0  0  0  0  0  0  0  0  0  0  0
   32.2839  -31.7546  -17.9069 C   0  0  0  0  0  0  0  0  0  0  0  0
   31.9695  -32.7052  -16.8041 C   0  0  2  0  0  0  0  0  0  0  0  0
   30.7310  -32.3948  -16.1392 N   0  0  0  0  0  0  0  0  0  0  0  0
   33.0468  -32.8703  -15.8136 C   0  0  0  0  0  0  0  0  0  0  0  0
   33.3671  -31.8121  -15.1648 O   0  0  0  0  0  0  0  0  0  0  0  0
   33.7157  -34.0808  -15.5545 N   0  0  0  0  0  0  0  0  0  0  0  0
   34.7597  -34.1289  -14.5654 C   0  0  1  0  0  0  0  0  0  0  0  0
   34.3742  -34.9263  -13.3643 C   0  0  0  0  0  0  0  0  0  0  0  0
   35.4684  -34.9171  -12.3750 C   0  0  0  0  0  0  0  0  0  0  0  0
   35.7602  -33.8495  -11.5095 C   0  0  0  0  0  0  0  0  0  0  0  0
   36.8072  -34.1529  -10.7509 N   0  0  0  0  0  0  0  0  0  0  0  0
   37.2016  -35.3823  -11.0970 C   0  0  0  0  0  0  0  0  0  0  0  0
   36.3993  -35.8380  -12.0687 N   0  0  0  0  0  0  0  0  0  0  0  0
   35.9482  -34.7280  -15.2051 C   0  0  0  0  0  0  0  0  0  0  0  0
   35.8432  -35.8366  -15.8233 O   0  0  0  0  0  0  0  0  0  0  0  0
   37.1613  -34.1044  -15.1435 O   0  0  0  0  0  0  0  0  0  0  0  0
  2  3  1  0
  2  1  1  6
  3  4  1  0
  4  5  1  0
  5  9  1  0
  5  6  2  0
  7  2  1  0
  8  7  2  0
 11 12  1  0
 11 10  1  0
 12 13  1  0
 14 13  1  6
 14 15  1  0
 15  7  1  0
 16 14  1  0
 16 17  2  0
 18 16  1  0
 19 18  1  0
 19 20  1  1
 21 20  1  0
 22 21  2  0
 23 22  1  0
 24 23  1  0
 24 25  2  0
 25 21  1  0
 26 19  1  0
 26 28  1  0
 27 26  2  0
M  END
$$$$
