EMH.pdb
     RDKit          3D

 28 28  0  0  1  0  0  0  0  0999 V2000
   20.4367  -16.1748  -16.2457 N   0  0  0  0  0  0  0  0  0  0  0  0
   20.5552  -14.9052  -16.9241 C   0  0  1  0  0  0  0  0  0  0  0  0
   19.2163  -14.4417  -17.4288 C   0  0  0  0  0  0  0  0  0  0  0  0
   18.6774  -15.3909  -18.4889 C   0  0  0  0  0  0  0  0  0  0  0  0
   17.3833  -14.9234  -19.0120 C   0  0  0  0  0  0  0  0  0  0  0  0
   17.2281  -14.6018  -20.2089 O   0  0  0  0  0  0  0  0  0  0  0  0
   21.1258  -13.8586  -16.0458 C   0  0  0  0  0  0  0  0  0  0  0  0
   20.7495  -13.8175  -14.8552 O   0  0  0  0  0  0  0  0  0  0  0  0
   16.2998  -14.8468  -18.1144 O   0  0  0  0  0  0  0  0  0  0  0  0
   27.2176  -14.3089  -14.3280 C   0  0  0  0  0  0  0  0  0  0  0  0
   26.5308  -12.8669  -15.1874 S   0  0  0  0  0  0  0  0  0  0  0  0
   24.7251  -12.9543  -15.0872 C   0  0  0  0  0  0  0  0  0  0  0  0
   24.0742  -11.7480  -15.7146 C   0  0  0  0  0  0  0  0  0  0  0  0
   22.5870  -11.8255  -15.6870 C   0  0  2  0  0  0  0  0  0  0  0  0
   22.0716  -12.9040  -16.4892 N   0  0  0  0  0  0  0  0  0  0  0  0
   21.9029  -10.5678  -16.0325 C   0  0  0  0  0  0  0  0  0  0  0  0
   21.8109  -10.3156  -17.2860 O   0  0  0  0  0  0  0  0  0  0  0  0
   21.3678   -9.6653  -15.0948 N   0  0  0  0  0  0  0  0  0  0  0  0
   20.7344   -8.4533  -15.5426 C   0  0  1  0  0  0  0  0  0  0  0  0
   19.3524   -8.2961  -15.0018 C   0  0  0  0  0  0  0  0  0  0  0  0
   18.4275   -9.2120  -15.6959 C   0  0  0  0  0  0  0  0  0  0  0  0
   18.7957  -10.1046  -16.7165 C   0  0  0  0  0  0  0  0  0  0  0  0
   17.7314  -10.7794  -17.1356 N   0  0  0  0  0  0  0  0  0  0  0  0
   16.6869  -10.3529  -16.4186 C   0  0  0  0  0  0  0  0  0  0  0  0
   17.1053   -9.4153  -15.5576 N   0  0  0  0  0  0  0  0  0  0  0  0
   21.5775   -7.3241  -15.1011 C   0  0  0  0  0  0  0  0  0  0  0  0
   22.6401   -7.5497  -14.4361 O   0  0  0  0  0  0  0  0  0  0  0  0
   21.2315   -6.0377  -15.4003 O   0  0  0  0  0  0  0  0  0  0  0  0
  2  3  1  0
  2  1  1  1
  3  4  1  0
  4  5  1  0
  5  9  1  0
  5  6  2  0
  7  2  1  0
  8  7  2  0
 11 12  1  0
 11 10  1  0
 12 13  1  0
 14 13  1  6
 14 15  1  0
 15  7  1  0
 16 14  1  0
 16 17  2  0
 18 16  1  0
 19 18  1  0
 19 20  1  1
 21 20  1  0
 22 21  2  0
 23 22  1  0
 24 23  1  0
 24 25  2  0
 25 21  1  0
 26 19  1  0
 26 28  1  0
 27 26  2  0
M  END
$$$$
