EMH.pdb
     RDKit          3D

 28 28  0  0  1  0  0  0  0  0999 V2000
   22.5552  -17.9946  -15.3344 N   0  0  0  0  0  0  0  0  0  0  0  0
   21.8058  -16.7651  -15.4493 C   0  0  1  0  0  0  0  0  0  0  0  0
   20.7128  -16.7069  -14.4177 C   0  0  0  0  0  0  0  0  0  0  0  0
   20.1238  -18.0881  -14.1720 C   0  0  0  0  0  0  0  0  0  0  0  0
   18.9518  -18.0156  -13.2844 C   0  0  0  0  0  0  0  0  0  0  0  0
   18.5139  -16.9293  -12.8503 O   0  0  0  0  0  0  0  0  0  0  0  0
   22.6709  -15.5727  -15.3003 C   0  0  0  0  0  0  0  0  0  0  0  0
   23.3114  -15.4375  -14.2362 O   0  0  0  0  0  0  0  0  0  0  0  0
   18.3199  -19.2239  -12.9290 O   0  0  0  0  0  0  0  0  0  0  0  0
   27.9104  -15.3853  -15.3313 C   0  0  0  0  0  0  0  0  0  0  0  0
   26.6515  -14.0864  -15.4639 S   0  0  0  0  0  0  0  0  0  0  0  0
   25.7400  -14.3361  -17.0083 C   0  0  0  0  0  0  0  0  0  0  0  0
   24.6698  -13.2914  -17.1976 C   0  0  0  0  0  0  0  0  0  0  0  0
   23.5955  -13.3851  -16.1701 C   0  0  2  0  0  0  0  0  0  0  0  0
   22.8045  -14.5808  -16.3006 N   0  0  0  0  0  0  0  0  0  0  0  0
   22.7179  -12.2049  -16.0941 C   0  0  0  0  0  0  0  0  0  0  0  0
   21.7132  -12.2118  -16.8902 O   0  0  0  0  0  0  0  0  0  0  0  0
   22.9184  -11.1142  -15.2279 N   0  0  0  0  0  0  0  0  0  0  0  0
   21.9622  -10.0395  -15.1905 C   0  0  1  0  0  0  0  0  0  0  0  0
   22.2324   -9.0710  -14.0877 C   0  0  0  0  0  0  0  0  0  0  0  0
   21.2435   -7.9767  -14.1182 C   0  0  0  0  0  0  0  0  0  0  0  0
   21.3365   -6.8320  -14.9274 C   0  0  0  0  0  0  0  0  0  0  0  0
   20.2932   -6.0386  -14.7136 N   0  0  0  0  0  0  0  0  0  0  0  0
   19.5280   -6.6334  -13.7930 C   0  0  0  0  0  0  0  0  0  0  0  0
   20.0980   -7.7929  -13.4380 N   0  0  0  0  0  0  0  0  0  0  0  0
   22.0241   -9.3466  -16.4932 C   0  0  0  0  0  0  0  0  0  0  0  0
   23.1519   -9.1428  -17.0489 O   0  0  0  0  0  0  0  0  0  0  0  0
   20.8830   -8.9228  -17.1117 O   0  0  0  0  0  0  0  0  0  0  0  0
  2  3  1  0
  2  1  1  1
  3  4  1  0
  4  5  1  0
  5  9  1  0
  5  6  2  0
  7  2  1  0
  8  7  2  0
 11 12  1  0
 11 10  1  0
 12 13  1  0
 14 13  1  6
 14 15  1  0
 15  7  1  0
 16 14  1  0
 16 17  2  0
 18 16  1  0
 19 18  1  0
 19 20  1  1
 21 20  1  0
 22 21  2  0
 23 22  1  0
 24 23  1  0
 24 25  2  0
 25 21  1  0
 26 19  1  0
 26 28  1  0
 27 26  2  0
M  END
$$$$
