EMH.pdb
     RDKit          3D

 28 28  0  0  1  0  0  0  0  0999 V2000
   27.3480  -22.0710  -14.3737 N   0  0  0  0  0  0  0  0  0  0  0  0
   27.0494  -20.8988  -13.5843 C   0  0  1  0  0  0  0  0  0  0  0  0
   26.3910  -19.8407  -14.4264 C   0  0  0  0  0  0  0  0  0  0  0  0
   27.3087  -19.3966  -15.5559 C   0  0  0  0  0  0  0  0  0  0  0  0
   26.6351  -18.4306  -16.4390 C   0  0  0  0  0  0  0  0  0  0  0  0
   25.5289  -18.6723  -16.9662 O   0  0  0  0  0  0  0  0  0  0  0  0
   26.1705  -21.2136  -12.4350 C   0  0  0  0  0  0  0  0  0  0  0  0
   25.2892  -22.0859  -12.5875 O   0  0  0  0  0  0  0  0  0  0  0  0
   27.2781  -17.2002  -16.6801 O   0  0  0  0  0  0  0  0  0  0  0  0
   27.5936  -18.5729   -6.7386 C   0  0  0  0  0  0  0  0  0  0  0  0
   27.9387  -20.3481   -6.8754 S   0  0  0  0  0  0  0  0  0  0  0  0
   27.2861  -20.9318   -8.4603 C   0  0  0  0  0  0  0  0  0  0  0  0
   25.9505  -20.3079   -8.7756 C   0  0  0  0  0  0  0  0  0  0  0  0
   25.3879  -20.7911  -10.0673 C   0  0  2  0  0  0  0  0  0  0  0  0
   26.2785  -20.5743  -11.1772 N   0  0  0  0  0  0  0  0  0  0  0  0
   24.0486  -20.2670  -10.3847 C   0  0  0  0  0  0  0  0  0  0  0  0
   24.0226  -19.2702  -11.1903 O   0  0  0  0  0  0  0  0  0  0  0  0
   22.8454  -20.7833   -9.8692 N   0  0  0  0  0  0  0  0  0  0  0  0
   21.6068  -20.5529  -10.5645 C   0  0  1  0  0  0  0  0  0  0  0  0
   21.6196  -21.0996  -11.9531 C   0  0  0  0  0  0  0  0  0  0  0  0
   20.3277  -20.8369  -12.6150 C   0  0  0  0  0  0  0  0  0  0  0  0
   19.2325  -20.1945  -12.0133 C   0  0  0  0  0  0  0  0  0  0  0  0
   18.2217  -20.1207  -12.8715 N   0  0  0  0  0  0  0  0  0  0  0  0
   18.6277  -20.6936  -14.0089 C   0  0  0  0  0  0  0  0  0  0  0  0
   19.8880  -21.1214  -13.8537 N   0  0  0  0  0  0  0  0  0  0  0  0
   20.5332  -21.1971   -9.7815 C   0  0  0  0  0  0  0  0  0  0  0  0
   19.3395  -21.1988  -10.2256 O   0  0  0  0  0  0  0  0  0  0  0  0
   20.8066  -21.7948   -8.5847 O   0  0  0  0  0  0  0  0  0  0  0  0
  2  3  1  0
  2  1  1  6
  3  4  1  0
  4  5  1  0
  5  9  1  0
  5  6  2  0
  7  2  1  0
  8  7  2  0
 11 12  1  0
 11 10  1  0
 12 13  1  0
 14 13  1  1
 14 15  1  0
 15  7  1  0
 16 14  1  0
 16 17  2  0
 18 16  1  0
 19 18  1  0
 19 20  1  6
 21 20  1  0
 22 21  2  0
 23 22  1  0
 24 23  1  0
 24 25  2  0
 25 21  1  0
 26 19  1  0
 26 28  1  0
 27 26  2  0
M  END
$$$$
