EMH.pdb
     RDKit          3D

 28 28  0  0  1  0  0  0  0  0999 V2000
   15.5858  -19.6094    1.5992 N   0  0  0  0  0  0  0  0  0  0  0  0
   15.4963  -19.1818    2.9760 C   0  0  1  0  0  0  0  0  0  0  0  0
   15.0342  -20.3098    3.8571 C   0  0  0  0  0  0  0  0  0  0  0  0
   13.6800  -19.9958    4.4759 C   0  0  0  0  0  0  0  0  0  0  0  0
   12.8852  -21.2204    4.6640 C   0  0  0  0  0  0  0  0  0  0  0  0
   13.3301  -22.3514    4.3761 O   0  0  0  0  0  0  0  0  0  0  0  0
   16.7914  -18.6751    3.4843 C   0  0  0  0  0  0  0  0  0  0  0  0
   17.8117  -18.8586    2.7871 O   0  0  0  0  0  0  0  0  0  0  0  0
   11.5845  -21.0862    5.1891 O   0  0  0  0  0  0  0  0  0  0  0  0
   18.4072  -12.4255    3.0596 C   0  0  0  0  0  0  0  0  0  0  0  0
   18.0529  -13.3439    4.5829 S   0  0  0  0  0  0  0  0  0  0  0  0
   18.2221  -15.1120    4.2310 C   0  0  0  0  0  0  0  0  0  0  0  0
   18.0164  -15.9476    5.4686 C   0  0  0  0  0  0  0  0  0  0  0  0
   18.1508  -17.4063    5.1988 C   0  0  2  0  0  0  0  0  0  0  0  0
   16.9291  -17.9976    4.7190 N   0  0  0  0  0  0  0  0  0  0  0  0
   18.6821  -18.1901    6.3268 C   0  0  0  0  0  0  0  0  0  0  0  0
   17.8131  -18.5854    7.1823 O   0  0  0  0  0  0  0  0  0  0  0  0
   20.0398  -18.5132    6.5063 N   0  0  0  0  0  0  0  0  0  0  0  0
   20.4516  -19.2814    7.6514 C   0  0  1  0  0  0  0  0  0  0  0  0
   21.3544  -20.4125    7.2872 C   0  0  0  0  0  0  0  0  0  0  0  0
   20.6137  -21.4245    6.5103 C   0  0  0  0  0  0  0  0  0  0  0  0
   19.6791  -22.3251    7.0486 C   0  0  0  0  0  0  0  0  0  0  0  0
   19.1977  -23.1074    6.0894 N   0  0  0  0  0  0  0  0  0  0  0  0
   19.7899  -22.7415    4.9482 C   0  0  0  0  0  0  0  0  0  0  0  0
   20.6366  -21.7345    5.2019 N   0  0  0  0  0  0  0  0  0  0  0  0
   21.1466  -18.3618    8.5745 C   0  0  0  0  0  0  0  0  0  0  0  0
   21.3108  -17.1417    8.2481 O   0  0  0  0  0  0  0  0  0  0  0  0
   21.6143  -18.8050    9.7782 O   0  0  0  0  0  0  0  0  0  0  0  0
  2  3  1  0
  2  1  1  6
  3  4  1  0
  4  5  1  0
  5  9  1  0
  5  6  2  0
  7  2  1  0
  8  7  2  0
 11 12  1  0
 11 10  1  0
 12 13  1  0
 14 13  1  1
 14 15  1  0
 15  7  1  0
 16 14  1  0
 16 17  2  0
 18 16  1  0
 19 18  1  0
 19 20  1  6
 21 20  1  0
 22 21  2  0
 23 22  1  0
 24 23  1  0
 24 25  2  0
 25 21  1  0
 26 19  1  0
 26 28  1  0
 27 26  2  0
M  END
$$$$
