EMH.pdb
     RDKit          3D

 28 28  0  0  1  0  0  0  0  0999 V2000
   21.7684  -15.7360  -18.3328 N   0  0  0  0  0  0  0  0  0  0  0  0
   21.1090  -14.8975  -17.3589 C   0  0  1  0  0  0  0  0  0  0  0  0
   20.6032  -15.7167  -16.2033 C   0  0  0  0  0  0  0  0  0  0  0  0
   19.6356  -16.7896  -16.6805 C   0  0  0  0  0  0  0  0  0  0  0  0
   19.1309  -17.5895  -15.5526 C   0  0  0  0  0  0  0  0  0  0  0  0
   19.5417  -17.4236  -14.3847 O   0  0  0  0  0  0  0  0  0  0  0  0
   22.0055  -13.8390  -16.8412 C   0  0  0  0  0  0  0  0  0  0  0  0
   23.1007  -14.1823  -16.3476 O   0  0  0  0  0  0  0  0  0  0  0  0
   18.1521  -18.5660  -15.8244 O   0  0  0  0  0  0  0  0  0  0  0  0
   27.5914   -9.3587  -16.6271 C   0  0  0  0  0  0  0  0  0  0  0  0
   26.4991  -10.6044  -17.3650 S   0  0  0  0  0  0  0  0  0  0  0  0
   24.8590  -10.4347  -16.6167 C   0  0  0  0  0  0  0  0  0  0  0  0
   23.9402  -11.5560  -17.0302 C   0  0  0  0  0  0  0  0  0  0  0  0
   22.5671  -11.4002  -16.4746 C   0  0  2  0  0  0  0  0  0  0  0  0
   21.6815  -12.4620  -16.8758 N   0  0  0  0  0  0  0  0  0  0  0  0
   21.9433  -10.0936  -16.7441 C   0  0  0  0  0  0  0  0  0  0  0  0
   21.5948   -9.8885  -17.9606 O   0  0  0  0  0  0  0  0  0  0  0  0
   21.7202   -9.0991  -15.7739 N   0  0  0  0  0  0  0  0  0  0  0  0
   20.3790   -8.6689  -15.4792 C   0  0  1  0  0  0  0  0  0  0  0  0
   19.6311   -9.6560  -14.6465 C   0  0  0  0  0  0  0  0  0  0  0  0
   18.3006   -9.1227  -14.2978 C   0  0  0  0  0  0  0  0  0  0  0  0
   17.8201   -7.8558  -14.6694 C   0  0  0  0  0  0  0  0  0  0  0  0
   16.5933   -7.6777  -14.1932 N   0  0  0  0  0  0  0  0  0  0  0  0
   16.2642   -8.7885  -13.5264 C   0  0  0  0  0  0  0  0  0  0  0  0
   17.2869   -9.6520  -13.5902 N   0  0  0  0  0  0  0  0  0  0  0  0
   20.4745   -7.3800  -14.7648 C   0  0  0  0  0  0  0  0  0  0  0  0
   21.5420   -7.0815  -14.1375 O   0  0  0  0  0  0  0  0  0  0  0  0
   19.4298   -6.5010  -14.7711 O   0  0  0  0  0  0  0  0  0  0  0  0
  2  3  1  0
  2  1  1  6
  3  4  1  0
  4  5  1  0
  5  9  1  0
  5  6  2  0
  7  2  1  0
  8  7  2  0
 11 12  1  0
 11 10  1  0
 12 13  1  0
 14 13  1  6
 14 15  1  0
 15  7  1  0
 16 14  1  0
 16 17  2  0
 18 16  1  0
 19 18  1  0
 19 20  1  1
 21 20  1  0
 22 21  2  0
 23 22  1  0
 24 23  1  0
 24 25  2  0
 25 21  1  0
 26 19  1  0
 26 28  1  0
 27 26  2  0
M  END
$$$$
