TNE.pdb
     RDKit          3D

 25 24  0  0  1  0  0  0  0  0999 V2000
    8.6377  -19.8396   17.5664 C   0  0  0  0  0  0  0  0  0  0  0  0
    9.2242  -18.6795   18.2955 C   0  0  1  0  0  0  0  0  0  0  0  0
   10.4025  -19.1046   18.9087 O   0  0  0  0  0  0  0  0  0  0  0  0
    9.5720  -17.5153   17.4130 C   0  0  2  0  0  0  0  0  0  0  0  0
   10.5608  -17.9553   16.4458 N   0  0  0  0  0  0  0  0  0  0  0  0
   10.1072  -16.3587   18.1756 C   0  0  0  0  0  0  0  0  0  0  0  0
   11.3318  -16.1123   18.1283 O   0  0  0  0  0  0  0  0  0  0  0  0
    6.3452  -12.9001   19.0840 N   0  0  0  0  0  0  0  0  0  0  0  0
    7.7633  -13.0687   18.9072 C   0  0  0  0  0  0  0  0  0  0  0  0
    8.2659  -12.9087   17.7674 O   0  0  0  0  0  0  0  0  0  0  0  0
    8.5947  -13.4271   20.0765 C   0  0  0  0  0  0  0  0  0  0  0  0
    9.7069  -14.3800   19.6975 C   0  0  2  0  0  0  0  0  0  0  0  0
    9.2681  -15.5202   18.9601 N   0  0  0  0  0  0  0  0  0  0  0  0
   10.4416  -14.7760   20.9513 C   0  0  0  0  0  0  0  0  0  0  0  0
   10.8499  -13.8431   21.6859 O   0  0  0  0  0  0  0  0  0  0  0  0
   10.6745  -16.1142   21.3093 N   0  0  0  0  0  0  0  0  0  0  0  0
   11.4370  -16.4559   22.4925 C   0  0  1  0  0  0  0  0  0  0  0  0
   11.1580  -17.8817   22.9119 C   0  0  0  0  0  0  0  0  0  0  0  0
    9.6603  -18.0774   23.0131 C   0  0  0  0  0  0  0  0  0  0  0  0
    9.3082  -19.4747   23.3476 C   0  0  0  0  0  0  0  0  0  0  0  0
    9.2900  -20.3317   22.4422 O   0  0  0  0  0  0  0  0  0  0  0  0
   12.8955  -16.2637   22.2724 C   0  0  0  0  0  0  0  0  0  0  0  0
   13.8189  -16.3452   23.2856 O   0  0  0  0  0  0  0  0  0  0  0  0
    9.0011  -19.8459   24.6365 O   0  0  0  0  0  0  0  0  0  0  0  0
   13.2786  -16.0172   21.1028 O   0  0  0  0  0  0  0  0  0  0  0  0
  2  1  1  6
  2  3  1  0
  2  4  1  0
  4  6  1  0
  4  5  1  6
  6 13  1  0
  6  7  2  0
  9  8  1  0
  9 10  2  0
 11  9  1  0
 12 14  1  0
 12 11  1  1
 13 12  1  0
 14 16  1  0
 15 14  2  0
 16 17  1  0
 17 18  1  6
 17 22  1  0
 18 19  1  0
 19 20  1  0
 20 24  1  0
 20 21  2  0
 22 25  2  0
 22 23  1  0
M  END
$$$$
