TNE.pdb
     RDKit          3D

 25 24  0  0  1  0  0  0  0  0999 V2000
   10.6448  -12.8683   19.5113 C   0  0  0  0  0  0  0  0  0  0  0  0
    9.2111  -12.4614   19.4950 C   0  0  1  0  0  0  0  0  0  0  0  0
    9.1037  -11.2843   18.7548 O   0  0  0  0  0  0  0  0  0  0  0  0
    8.2958  -13.4723   18.8662 C   0  0  2  0  0  0  0  0  0  0  0  0
    6.9323  -12.9886   18.9837 N   0  0  0  0  0  0  0  0  0  0  0  0
    8.4012  -14.8118   19.4989 C   0  0  0  0  0  0  0  0  0  0  0  0
    7.6367  -15.1003   20.4449 O   0  0  0  0  0  0  0  0  0  0  0  0
    8.9798  -20.2905   19.6120 N   0  0  0  0  0  0  0  0  0  0  0  0
   10.1229  -19.4414   19.4040 C   0  0  0  0  0  0  0  0  0  0  0  0
   11.2504  -19.8141   19.8130 O   0  0  0  0  0  0  0  0  0  0  0  0
    9.9394  -18.1476   18.7117 C   0  0  0  0  0  0  0  0  0  0  0  0
    9.5718  -17.0453   19.6805 C   0  0  2  0  0  0  0  0  0  0  0  0
    9.3471  -15.7794   19.0613 N   0  0  0  0  0  0  0  0  0  0  0  0
   10.6408  -16.9663   20.7387 C   0  0  0  0  0  0  0  0  0  0  0  0
   11.6725  -16.3104   20.4523 O   0  0  0  0  0  0  0  0  0  0  0  0
   10.5196  -17.5849   21.9940 N   0  0  0  0  0  0  0  0  0  0  0  0
   11.5456  -17.4423   23.0065 C   0  0  1  0  0  0  0  0  0  0  0  0
   11.1433  -18.1585   24.2761 C   0  0  0  0  0  0  0  0  0  0  0  0
   12.1979  -17.9093   25.3333 C   0  0  0  0  0  0  0  0  0  0  0  0
   11.9229  -18.6646   26.5751 C   0  0  0  0  0  0  0  0  0  0  0  0
   10.7497  -18.9904   26.8428 O   0  0  0  0  0  0  0  0  0  0  0  0
   12.8574  -17.9522   22.5254 C   0  0  0  0  0  0  0  0  0  0  0  0
   14.0338  -17.2663   22.7028 O   0  0  0  0  0  0  0  0  0  0  0  0
   12.9357  -19.0138   27.4388 O   0  0  0  0  0  0  0  0  0  0  0  0
   12.8684  -19.0594   21.9341 O   0  0  0  0  0  0  0  0  0  0  0  0
  2  1  1  6
  2  3  1  0
  2  4  1  0
  4  6  1  0
  4  5  1  1
  6 13  1  0
  6  7  2  0
  9  8  1  0
  9 10  2  0
 11  9  1  0
 12 14  1  0
 12 11  1  6
 13 12  1  0
 14 16  1  0
 15 14  2  0
 16 17  1  0
 17 18  1  1
 17 22  1  0
 18 19  1  0
 19 20  1  0
 20 24  1  0
 20 21  2  0
 22 25  2  0
 22 23  1  0
M  END
$$$$
