TNE.pdb
     RDKit          3D

 25 24  0  0  1  0  0  0  0  0999 V2000
    8.5386  -16.4063   18.1459 C   0  0  0  0  0  0  0  0  0  0  0  0
    8.7912  -14.9893   17.7593 C   0  0  1  0  0  0  0  0  0  0  0  0
    8.3558  -14.8149   16.4457 O   0  0  0  0  0  0  0  0  0  0  0  0
    8.0671  -13.9852   18.6093 C   0  0  2  0  0  0  0  0  0  0  0  0
    8.2736  -12.6681   18.0353 N   0  0  0  0  0  0  0  0  0  0  0  0
    8.5317  -13.9880   20.0198 C   0  0  0  0  0  0  0  0  0  0  0  0
    9.6166  -13.4362   20.3047 O   0  0  0  0  0  0  0  0  0  0  0  0
    8.9583  -14.8392   25.0463 N   0  0  0  0  0  0  0  0  0  0  0  0
    7.5594  -15.0524   24.7848 C   0  0  0  0  0  0  0  0  0  0  0  0
    6.7820  -15.2880   25.7427 O   0  0  0  0  0  0  0  0  0  0  0  0
    7.0721  -14.9881   23.3901 C   0  0  0  0  0  0  0  0  0  0  0  0
    8.1989  -14.7123   22.4191 C   0  0  2  0  0  0  0  0  0  0  0  0
    7.7793  -14.6004   21.0598 N   0  0  0  0  0  0  0  0  0  0  0  0
    9.2478  -15.7793   22.5925 C   0  0  0  0  0  0  0  0  0  0  0  0
    8.8969  -16.9612   22.3544 O   0  0  0  0  0  0  0  0  0  0  0  0
   10.5625  -15.4984   22.9995 N   0  0  0  0  0  0  0  0  0  0  0  0
   11.5551  -16.5468   23.1175 C   0  0  1  0  0  0  0  0  0  0  0  0
   12.9392  -16.0023   22.8444 C   0  0  0  0  0  0  0  0  0  0  0  0
   13.9340  -17.1417   22.9069 C   0  0  0  0  0  0  0  0  0  0  0  0
   15.3233  -16.6718   22.7139 C   0  0  0  0  0  0  0  0  0  0  0  0
   16.2522  -17.5033   22.7073 O   0  0  0  0  0  0  0  0  0  0  0  0
   11.5126  -17.1857   24.4600 C   0  0  0  0  0  0  0  0  0  0  0  0
   11.5574  -16.4666   25.6290 O   0  0  0  0  0  0  0  0  0  0  0  0
   15.6093  -15.3368   22.5417 O   0  0  0  0  0  0  0  0  0  0  0  0
   11.4322  -18.4376   24.5049 O   0  0  0  0  0  0  0  0  0  0  0  0
  2  1  1  1
  2  3  1  0
  2  4  1  0
  4  6  1  0
  4  5  1  6
  6 13  1  0
  6  7  2  0
  9  8  1  0
  9 10  2  0
 11  9  1  0
 12 14  1  0
 12 11  1  1
 13 12  1  0
 14 16  1  0
 15 14  2  0
 16 17  1  0
 17 18  1  1
 17 22  1  0
 18 19  1  0
 19 20  1  0
 20 24  1  0
 20 21  2  0
 22 25  2  0
 22 23  1  0
M  END
$$$$
