TNE.pdb
     RDKit          3D

 25 24  0  0  1  0  0  0  0  0999 V2000
   10.0619  -14.2162   18.0101 C   0  0  0  0  0  0  0  0  0  0  0  0
    8.9688  -13.3587   18.5497 C   0  0  1  0  0  0  0  0  0  0  0  0
    8.4652  -12.5888   17.5015 O   0  0  0  0  0  0  0  0  0  0  0  0
    7.8194  -14.1287   19.1337 C   0  0  2  0  0  0  0  0  0  0  0  0
    6.8107  -13.1811   19.5711 N   0  0  0  0  0  0  0  0  0  0  0  0
    8.2252  -14.9824   20.2792 C   0  0  0  0  0  0  0  0  0  0  0  0
    8.2764  -14.4819   21.4235 O   0  0  0  0  0  0  0  0  0  0  0  0
    8.4060  -19.8280   23.0685 N   0  0  0  0  0  0  0  0  0  0  0  0
    9.2853  -19.5457   21.9649 C   0  0  0  0  0  0  0  0  0  0  0  0
   10.4457  -20.0262   21.9626 O   0  0  0  0  0  0  0  0  0  0  0  0
    8.7978  -18.6941   20.8585 C   0  0  0  0  0  0  0  0  0  0  0  0
    8.9927  -17.2245   21.1599 C   0  0  2  0  0  0  0  0  0  0  0  0
    8.5585  -16.3552   20.1149 N   0  0  0  0  0  0  0  0  0  0  0  0
   10.4407  -16.9984   21.5075 C   0  0  0  0  0  0  0  0  0  0  0  0
   10.8047  -17.3356   22.6609 O   0  0  0  0  0  0  0  0  0  0  0  0
   11.3636  -16.4399   20.6077 N   0  0  0  0  0  0  0  0  0  0  0  0
   12.7850  -16.4448   20.8863 C   0  0  1  0  0  0  0  0  0  0  0  0
   13.4871  -15.3683   20.0894 C   0  0  0  0  0  0  0  0  0  0  0  0
   14.9518  -15.3538   20.4715 C   0  0  0  0  0  0  0  0  0  0  0  0
   15.7444  -14.4748   19.5842 C   0  0  0  0  0  0  0  0  0  0  0  0
   16.3572  -14.9751   18.6205 O   0  0  0  0  0  0  0  0  0  0  0  0
   13.0542  -16.2642   22.3379 C   0  0  0  0  0  0  0  0  0  0  0  0
   14.0541  -16.9340   22.9992 O   0  0  0  0  0  0  0  0  0  0  0  0
   15.8181  -13.1181   19.8017 O   0  0  0  0  0  0  0  0  0  0  0  0
   12.3247  -15.4601   22.9680 O   0  0  0  0  0  0  0  0  0  0  0  0
  2  1  1  6
  2  3  1  0
  2  4  1  0
  4  6  1  0
  4  5  1  1
  6 13  1  0
  6  7  2  0
  9  8  1  0
  9 10  2  0
 11  9  1  0
 12 14  1  0
 12 11  1  6
 13 12  1  0
 14 16  1  0
 15 14  2  0
 16 17  1  0
 17 18  1  6
 17 22  1  0
 18 19  1  0
 19 20  1  0
 20 24  1  0
 20 21  2  0
 22 25  2  0
 22 23  1  0
M  END
$$$$
