TNE.pdb
     RDKit          3D

 25 24  0  0  1  0  0  0  0  0999 V2000
    8.2390  -15.6791   17.6619 C   0  0  0  0  0  0  0  0  0  0  0  0
    8.4850  -14.2098   17.6178 C   0  0  1  0  0  0  0  0  0  0  0  0
    7.8171  -13.6924   16.5080 O   0  0  0  0  0  0  0  0  0  0  0  0
    7.9877  -13.4701   18.8263 C   0  0  2  0  0  0  0  0  0  0  0  0
    8.0469  -12.0470   18.5464 N   0  0  0  0  0  0  0  0  0  0  0  0
    8.7811  -13.7672   20.0460 C   0  0  0  0  0  0  0  0  0  0  0  0
    9.9083  -13.2441   20.1817 O   0  0  0  0  0  0  0  0  0  0  0  0
    9.2517  -15.0845   25.4510 N   0  0  0  0  0  0  0  0  0  0  0  0
    9.0002  -16.0948   24.4576 C   0  0  0  0  0  0  0  0  0  0  0  0
    9.4647  -17.2501   24.6219 O   0  0  0  0  0  0  0  0  0  0  0  0
    8.1987  -15.7450   23.2651 C   0  0  0  0  0  0  0  0  0  0  0  0
    9.0263  -15.0084   22.2349 C   0  0  2  0  0  0  0  0  0  0  0  0
    8.2977  -14.6307   21.0675 N   0  0  0  0  0  0  0  0  0  0  0  0
   10.2248  -15.8547   21.8944 C   0  0  0  0  0  0  0  0  0  0  0  0
   10.0862  -16.6812   20.9593 O   0  0  0  0  0  0  0  0  0  0  0  0
   11.4513  -15.7486   22.5709 N   0  0  0  0  0  0  0  0  0  0  0  0
   12.6986  -16.1141   21.9315 C   0  0  1  0  0  0  0  0  0  0  0  0
   12.9427  -15.2551   20.7112 C   0  0  0  0  0  0  0  0  0  0  0  0
   14.2279  -15.7021   20.0477 C   0  0  0  0  0  0  0  0  0  0  0  0
   14.5777  -14.8478   18.8918 C   0  0  0  0  0  0  0  0  0  0  0  0
   15.7784  -14.6283   18.6378 O   0  0  0  0  0  0  0  0  0  0  0  0
   13.8444  -16.0021   22.8733 C   0  0  0  0  0  0  0  0  0  0  0  0
   13.7649  -15.3264   24.0662 O   0  0  0  0  0  0  0  0  0  0  0  0
   13.6048  -14.2918   18.0931 O   0  0  0  0  0  0  0  0  0  0  0  0
   14.9220  -16.5560   22.5452 O   0  0  0  0  0  0  0  0  0  0  0  0
  2  1  1  1
  2  3  1  0
  2  4  1  0
  4  6  1  0
  4  5  1  6
  6 13  1  0
  6  7  2  0
  9  8  1  0
  9 10  2  0
 11  9  1  0
 12 14  1  0
 12 11  1  1
 13 12  1  0
 14 16  1  0
 15 14  2  0
 16 17  1  0
 17 18  1  6
 17 22  1  0
 18 19  1  0
 19 20  1  0
 20 24  1  0
 20 21  2  0
 22 25  2  0
 22 23  1  0
M  END
$$$$
