TNE.pdb
     RDKit          3D

 25 24  0  0  1  0  0  0  0  0999 V2000
    8.1649  -12.0102   18.8981 C   0  0  0  0  0  0  0  0  0  0  0  0
    8.1091  -13.3930   18.3451 C   0  0  1  0  0  0  0  0  0  0  0  0
    7.9867  -13.3001   16.9588 O   0  0  0  0  0  0  0  0  0  0  0  0
    9.3310  -14.2168   18.6337 C   0  0  2  0  0  0  0  0  0  0  0  0
    9.2293  -15.4596   17.8908 N   0  0  0  0  0  0  0  0  0  0  0  0
    9.4908  -14.5169   20.0794 C   0  0  0  0  0  0  0  0  0  0  0  0
   10.1107  -13.7088   20.8041 O   0  0  0  0  0  0  0  0  0  0  0  0
    6.6136  -15.0147   22.0967 N   0  0  0  0  0  0  0  0  0  0  0  0
    6.7295  -16.3782   22.5418 C   0  0  0  0  0  0  0  0  0  0  0  0
    5.7015  -16.9933   22.9189 O   0  0  0  0  0  0  0  0  0  0  0  0
    8.0610  -17.0218   22.5436 C   0  0  0  0  0  0  0  0  0  0  0  0
    9.1323  -16.0855   22.0294 C   0  0  2  0  0  0  0  0  0  0  0  0
    8.9593  -15.6979   20.6670 N   0  0  0  0  0  0  0  0  0  0  0  0
   10.4753  -16.7273   22.2602 C   0  0  0  0  0  0  0  0  0  0  0  0
   10.7385  -17.7486   21.5787 O   0  0  0  0  0  0  0  0  0  0  0  0
   11.4094  -16.2319   23.1849 N   0  0  0  0  0  0  0  0  0  0  0  0
   12.6829  -16.8892   23.3952 C   0  0  1  0  0  0  0  0  0  0  0  0
   13.8230  -15.9829   22.9882 C   0  0  0  0  0  0  0  0  0  0  0  0
   15.0218  -16.8354   22.6309 C   0  0  0  0  0  0  0  0  0  0  0  0
   16.2866  -16.2372   23.1111 C   0  0  0  0  0  0  0  0  0  0  0  0
   16.4732  -15.0125   22.9703 O   0  0  0  0  0  0  0  0  0  0  0  0
   12.8474  -17.3134   24.8113 C   0  0  0  0  0  0  0  0  0  0  0  0
   13.6393  -18.3713   25.1848 O   0  0  0  0  0  0  0  0  0  0  0  0
   17.2592  -17.0052   23.7092 O   0  0  0  0  0  0  0  0  0  0  0  0
   12.2272  -16.6634   25.6879 O   0  0  0  0  0  0  0  0  0  0  0  0
  2  1  1  1
  2  3  1  0
  2  4  1  0
  4  6  1  0
  4  5  1  6
  6 13  1  0
  6  7  2  0
  9  8  1  0
  9 10  2  0
 11  9  1  0
 12 14  1  0
 12 11  1  6
 13 12  1  0
 14 16  1  0
 15 14  2  0
 16 17  1  0
 17 18  1  1
 17 22  1  0
 18 19  1  0
 19 20  1  0
 20 24  1  0
 20 21  2  0
 22 25  2  0
 22 23  1  0
M  END
$$$$
