TNE.pdb
     RDKit          3D

 25 24  0  0  1  0  0  0  0  0999 V2000
    7.4598  -11.8026   19.6206 C   0  0  0  0  0  0  0  0  0  0  0  0
    8.5827  -12.7754   19.5018 C   0  0  1  0  0  0  0  0  0  0  0  0
    8.2247  -13.9356   20.1882 O   0  0  0  0  0  0  0  0  0  0  0  0
    8.9025  -13.1705   18.0887 C   0  0  2  0  0  0  0  0  0  0  0  0
    7.6996  -13.7117   17.4829 N   0  0  0  0  0  0  0  0  0  0  0  0
    9.9920  -14.1764   18.0081 C   0  0  0  0  0  0  0  0  0  0  0  0
    9.9272  -15.0762   17.1428 O   0  0  0  0  0  0  0  0  0  0  0  0
   14.1963  -16.8456   16.5641 N   0  0  0  0  0  0  0  0  0  0  0  0
   14.2002  -15.6448   17.3571 C   0  0  0  0  0  0  0  0  0  0  0  0
   15.2416  -15.3205   17.9797 O   0  0  0  0  0  0  0  0  0  0  0  0
   12.9734  -14.8213   17.4184 C   0  0  0  0  0  0  0  0  0  0  0  0
   12.2774  -14.9583   18.7547 C   0  0  2  0  0  0  0  0  0  0  0  0
   11.1100  -14.1483   18.8867 N   0  0  0  0  0  0  0  0  0  0  0  0
   13.2787  -14.6746   19.8435 C   0  0  0  0  0  0  0  0  0  0  0  0
   13.8938  -13.5821   19.7754 O   0  0  0  0  0  0  0  0  0  0  0  0
   13.5347  -15.5679   20.8969 N   0  0  0  0  0  0  0  0  0  0  0  0
   14.1655  -15.1256   22.1235 C   0  0  1  0  0  0  0  0  0  0  0  0
   13.3867  -15.6084   23.3265 C   0  0  0  0  0  0  0  0  0  0  0  0
   13.2389  -17.1127   23.2418 C   0  0  0  0  0  0  0  0  0  0  0  0
   12.6593  -17.6802   24.4788 C   0  0  0  0  0  0  0  0  0  0  0  0
   12.4720  -16.9357   25.4611 O   0  0  0  0  0  0  0  0  0  0  0  0
   15.5757  -15.5911   22.2069 C   0  0  0  0  0  0  0  0  0  0  0  0
   16.1235  -16.4731   21.3080 O   0  0  0  0  0  0  0  0  0  0  0  0
   12.3235  -19.0119   24.5656 O   0  0  0  0  0  0  0  0  0  0  0  0
   16.2792  -15.1469   23.1468 O   0  0  0  0  0  0  0  0  0  0  0  0
  2  1  1  6
  2  3  1  0
  2  4  1  0
  4  6  1  0
  4  5  1  1
  6 13  1  0
  6  7  2  0
  9  8  1  0
  9 10  2  0
 11  9  1  0
 12 14  1  0
 12 11  1  6
 13 12  1  0
 14 16  1  0
 15 14  2  0
 16 17  1  0
 17 18  1  1
 17 22  1  0
 18 19  1  0
 19 20  1  0
 20 24  1  0
 20 21  2  0
 22 25  2  0
 22 23  1  0
M  END
$$$$
