TNE.pdb
     RDKit          3D

 25 24  0  0  1  0  0  0  0  0999 V2000
   11.5580  -20.9503   17.2802 C   0  0  0  0  0  0  0  0  0  0  0  0
   10.4447  -19.9987   17.0038 C   0  0  1  0  0  0  0  0  0  0  0  0
    9.9435  -20.2767   15.7323 O   0  0  0  0  0  0  0  0  0  0  0  0
    9.2996  -20.1002   17.9699 C   0  0  2  0  0  0  0  0  0  0  0  0
    8.2121  -19.2749   17.4768 N   0  0  0  0  0  0  0  0  0  0  0  0
    9.6674  -19.6652   19.3415 C   0  0  0  0  0  0  0  0  0  0  0  0
   10.1517  -18.5252   19.5094 O   0  0  0  0  0  0  0  0  0  0  0  0
    9.6071  -23.1384   23.8133 N   0  0  0  0  0  0  0  0  0  0  0  0
    9.1056  -22.3506   22.7184 C   0  0  0  0  0  0  0  0  0  0  0  0
    8.7441  -22.9241   21.6611 O   0  0  0  0  0  0  0  0  0  0  0  0
    9.0289  -20.8814   22.8674 C   0  0  0  0  0  0  0  0  0  0  0  0
    9.8477  -20.1714   21.8119 C   0  0  2  0  0  0  0  0  0  0  0  0
    9.4854  -20.5072   20.4731 N   0  0  0  0  0  0  0  0  0  0  0  0
   11.3052  -20.4417   22.0794 C   0  0  0  0  0  0  0  0  0  0  0  0
   11.7837  -21.4951   21.5916 O   0  0  0  0  0  0  0  0  0  0  0  0
   12.1160  -19.5775   22.8336 N   0  0  0  0  0  0  0  0  0  0  0  0
   13.5370  -19.8154   22.9819 C   0  0  1  0  0  0  0  0  0  0  0  0
   14.3296  -18.6212   22.4997 C   0  0  0  0  0  0  0  0  0  0  0  0
   15.8060  -18.9348   22.6161 C   0  0  0  0  0  0  0  0  0  0  0  0
   16.6470  -17.7886   22.2072 C   0  0  0  0  0  0  0  0  0  0  0  0
   17.3139  -17.8665   21.1568 O   0  0  0  0  0  0  0  0  0  0  0  0
   13.8906  -20.1280   24.3925 C   0  0  0  0  0  0  0  0  0  0  0  0
   15.0497  -20.7751   24.7440 O   0  0  0  0  0  0  0  0  0  0  0  0
   16.7072  -16.6402   22.9630 O   0  0  0  0  0  0  0  0  0  0  0  0
   13.0813  -19.7769   25.2854 O   0  0  0  0  0  0  0  0  0  0  0  0
  2  1  1  1
  2  3  1  0
  2  4  1  0
  4  6  1  0
  4  5  1  6
  6 13  1  0
  6  7  2  0
  9  8  1  0
  9 10  2  0
 11  9  1  0
 12 14  1  0
 12 11  1  1
 13 12  1  0
 14 16  1  0
 15 14  2  0
 16 17  1  0
 17 18  1  1
 17 22  1  0
 18 19  1  0
 19 20  1  0
 20 24  1  0
 20 21  2  0
 22 25  2  0
 22 23  1  0
M  END
$$$$
