TNE.pdb
     RDKit          3D

 25 24  0  0  1  0  0  0  0  0999 V2000
    6.6962  -15.7179   20.0493 C   0  0  0  0  0  0  0  0  0  0  0  0
    7.6968  -14.7486   19.5195 C   0  0  1  0  0  0  0  0  0  0  0  0
    7.4043  -14.5157   18.1758 O   0  0  0  0  0  0  0  0  0  0  0  0
    7.6894  -13.4192   20.2177 C   0  0  2  0  0  0  0  0  0  0  0  0
    8.5960  -12.5297   19.5149 N   0  0  0  0  0  0  0  0  0  0  0  0
    8.0990  -13.5180   21.6417 C   0  0  0  0  0  0  0  0  0  0  0  0
    9.3087  -13.6684   21.9184 O   0  0  0  0  0  0  0  0  0  0  0  0
    8.0173  -13.9140   26.7515 N   0  0  0  0  0  0  0  0  0  0  0  0
    6.7774  -13.2541   26.4388 C   0  0  0  0  0  0  0  0  0  0  0  0
    6.0405  -12.8514   27.3727 O   0  0  0  0  0  0  0  0  0  0  0  0
    6.4020  -13.0666   25.0207 C   0  0  0  0  0  0  0  0  0  0  0  0
    7.4660  -13.6020   24.0879 C   0  0  2  0  0  0  0  0  0  0  0  0
    7.1558  -13.4467   22.7038 N   0  0  0  0  0  0  0  0  0  0  0  0
    7.7279  -15.0423   24.4423 C   0  0  0  0  0  0  0  0  0  0  0  0
    6.7488  -15.8262   24.3833 O   0  0  0  0  0  0  0  0  0  0  0  0
    8.9939  -15.5165   24.8239 N   0  0  0  0  0  0  0  0  0  0  0  0
    9.1950  -16.8964   25.2157 C   0  0  1  0  0  0  0  0  0  0  0  0
   10.1461  -17.5865   24.2639 C   0  0  0  0  0  0  0  0  0  0  0  0
   11.4335  -16.7928   24.1979 C   0  0  0  0  0  0  0  0  0  0  0  0
   12.1861  -17.0651   22.9538 C   0  0  0  0  0  0  0  0  0  0  0  0
   12.0853  -16.2741   21.9954 O   0  0  0  0  0  0  0  0  0  0  0  0
    9.7045  -16.9961   26.6095 C   0  0  0  0  0  0  0  0  0  0  0  0
    9.8724  -18.1953   27.2574 O   0  0  0  0  0  0  0  0  0  0  0  0
   12.9937  -18.1728   22.8345 O   0  0  0  0  0  0  0  0  0  0  0  0
    9.9877  -15.9264   27.2021 O   0  0  0  0  0  0  0  0  0  0  0  0
  2  1  1  1
  2  3  1  0
  2  4  1  0
  4  6  1  0
  4  5  1  6
  6 13  1  0
  6  7  2  0
  9  8  1  0
  9 10  2  0
 11  9  1  0
 12 14  1  0
 12 11  1  1
 13 12  1  0
 14 16  1  0
 15 14  2  0
 16 17  1  0
 17 18  1  6
 17 22  1  0
 18 19  1  0
 19 20  1  0
 20 24  1  0
 20 21  2  0
 22 25  2  0
 22 23  1  0
M  END
$$$$
