TNE.pdb
     RDKit          3D

 25 24  0  0  1  0  0  0  0  0999 V2000
    9.3602  -16.4006   18.3846 C   0  0  0  0  0  0  0  0  0  0  0  0
    9.1307  -14.9718   18.0277 C   0  0  1  0  0  0  0  0  0  0  0  0
    8.4989  -14.9324   16.7848 O   0  0  0  0  0  0  0  0  0  0  0  0
    8.2570  -14.2317   18.9991 C   0  0  2  0  0  0  0  0  0  0  0  0
    8.0318  -12.8940   18.4828 N   0  0  0  0  0  0  0  0  0  0  0  0
    8.8556  -14.1437   20.3554 C   0  0  0  0  0  0  0  0  0  0  0  0
    9.8005  -13.3497   20.5536 O   0  0  0  0  0  0  0  0  0  0  0  0
    6.9242  -13.3115   23.2129 N   0  0  0  0  0  0  0  0  0  0  0  0
    6.9590  -14.5073   24.0128 C   0  0  0  0  0  0  0  0  0  0  0  0
    6.0460  -14.7161   24.8496 O   0  0  0  0  0  0  0  0  0  0  0  0
    8.0729  -15.4622   23.8278 C   0  0  0  0  0  0  0  0  0  0  0  0
    9.0060  -15.0212   22.7216 C   0  0  2  0  0  0  0  0  0  0  0  0
    8.3864  -14.9363   21.4390 N   0  0  0  0  0  0  0  0  0  0  0  0
   10.1951  -15.9456   22.7061 C   0  0  0  0  0  0  0  0  0  0  0  0
   10.0184  -17.0861   22.2116 O   0  0  0  0  0  0  0  0  0  0  0  0
   11.4533  -15.5795   23.2123 N   0  0  0  0  0  0  0  0  0  0  0  0
   12.5854  -16.4802   23.1408 C   0  0  1  0  0  0  0  0  0  0  0  0
   13.8709  -15.7055   22.9562 C   0  0  0  0  0  0  0  0  0  0  0  0
   15.0157  -16.6852   22.8105 C   0  0  0  0  0  0  0  0  0  0  0  0
   16.3142  -15.9956   22.6476 C   0  0  0  0  0  0  0  0  0  0  0  0
   16.3729  -14.9645   21.9493 O   0  0  0  0  0  0  0  0  0  0  0  0
   12.6745  -17.3371   24.3533 C   0  0  0  0  0  0  0  0  0  0  0  0
   13.3458  -18.5350   24.3713 O   0  0  0  0  0  0  0  0  0  0  0  0
   17.4564  -16.4697   23.2510 O   0  0  0  0  0  0  0  0  0  0  0  0
   12.1046  -16.9301   25.3951 O   0  0  0  0  0  0  0  0  0  0  0  0
  2  1  1  1
  2  3  1  0
  2  4  1  0
  4  6  1  0
  4  5  1  6
  6 13  1  0
  6  7  2  0
  9  8  1  0
  9 10  2  0
 11  9  1  0
 12 14  1  0
 12 11  1  1
 13 12  1  0
 14 16  1  0
 15 14  2  0
 16 17  1  0
 17 18  1  1
 17 22  1  0
 18 19  1  0
 19 20  1  0
 20 24  1  0
 20 21  2  0
 22 25  2  0
 22 23  1  0
M  END
$$$$
