DFW.pdb
     RDKit          3D

 34 36  0  0  1  0  0  0  0  0999 V2000
    8.0509  -18.8452   19.7255 N   0  0  0  0  0  0  0  0  0  0  0  0
    9.3694  -18.2159   19.5581 C   0  0  1  0  0  0  0  0  0  0  0  0
    9.4706  -17.7685   18.1070 C   0  0  0  0  0  0  0  0  0  0  0  0
    9.7807  -18.9870   17.3346 C   0  0  0  0  0  0  0  0  0  0  0  0
    8.8602  -19.7738   17.0194 O   0  0  0  0  0  0  0  0  0  0  0  0
    9.4602  -17.0864   20.4970 C   0  0  0  0  0  0  0  0  0  0  0  0
   10.3748  -16.2051   20.3822 O   0  0  0  0  0  0  0  0  0  0  0  0
   11.0800  -19.2982   16.9301 O   0  0  0  0  0  0  0  0  0  0  0  0
    8.5346  -16.9319   21.5561 N   0  0  0  0  0  0  0  0  0  0  0  0
    8.5733  -15.8283   22.5213 C   0  0  1  0  0  0  0  0  0  0  0  0
    7.2528  -15.9248   23.3038 C   0  0  0  0  0  0  0  0  0  0  0  0
    7.1029  -14.8109   24.2406 C   0  0  0  0  0  0  0  0  0  0  0  0
    7.5996  -13.5663   23.9512 C   0  0  0  0  0  0  0  0  0  0  0  0
    7.4717  -12.5032   24.8534 C   0  0  0  0  0  0  0  0  0  0  0  0
    6.8398  -12.6756   26.0646 C   0  0  0  0  0  0  0  0  0  0  0  0
    6.3407  -13.9239   26.3584 C   0  0  0  0  0  0  0  0  0  0  0  0
    6.4684  -14.9774   25.4626 C   0  0  0  0  0  0  0  0  0  0  0  0
    9.7437  -15.8200   23.3794 C   0  0  0  0  0  0  0  0  0  0  0  0
   10.4702  -14.8049   23.4614 O   0  0  0  0  0  0  0  0  0  0  0  0
   10.0830  -16.9626   24.1389 N   0  0  0  0  0  0  0  0  0  0  0  0
   11.4587  -17.2803   24.5185 C   0  0  1  0  0  0  0  0  0  0  0  0
   11.9194  -16.1702   25.4038 C   0  0  0  0  0  0  0  0  0  0  0  0
   11.3560  -16.0937   26.7480 C   0  0  0  0  0  0  0  0  0  0  0  0
   11.1705  -17.1832   27.5893 C   0  0  0  0  0  0  0  0  0  0  0  0
   10.6068  -16.7871   28.7155 N   0  0  0  0  0  0  0  0  0  0  0  0
   10.3981  -15.4588   28.6769 C   0  0  0  0  0  0  0  0  0  0  0  0
    9.8595  -14.6263   29.6192 C   0  0  0  0  0  0  0  0  0  0  0  0
    9.7653  -13.2840   29.3622 C   0  0  0  0  0  0  0  0  0  0  0  0
   10.2275  -12.8190   28.1341 C   0  0  0  0  0  0  0  0  0  0  0  0
   10.7712  -13.6505   27.1827 C   0  0  0  0  0  0  0  0  0  0  0  0
   10.8646  -15.0249   27.4536 C   0  0  0  0  0  0  0  0  0  0  0  0
   11.5980  -18.5833   25.1718 C   0  0  0  0  0  0  0  0  0  0  0  0
   10.6090  -19.3364   25.4283 O   0  0  0  0  0  0  0  0  0  0  0  0
   12.8894  -19.0001   25.5154 O   0  0  0  0  0  0  0  0  0  0  0  0
  2  1  1  6
  2  3  1  0
  3  4  1  0
  4  5  2  0
  6  2  1  0
  6  7  2  0
  8  4  1  0
  9  6  1  0
 10 11  1  1
 10  9  1  0
 11 12  1  0
 12 13  2  0
 12 17  1  0
 13 14  1  0
 14 15  2  0
 16 15  1  0
 17 16  2  0
 18 10  1  0
 19 18  2  0
 20 18  1  0
 21 20  1  0
 21 22  1  1
 22 23  1  0
 23 31  1  0
 24 23  2  0
 24 25  1  0
 25 26  1  0
 26 27  1  0
 27 28  2  0
 29 28  1  0
 30 29  2  0
 31 26  2  0
 31 30  1  0
 32 34  1  0
 32 21  1  0
 33 32  2  0
M  END
$$$$
