DFW.pdb
     RDKit          3D

 34 36  0  0  1  0  0  0  0  0999 V2000
    8.9363  -20.2866   20.4240 N   0  0  0  0  0  0  0  0  0  0  0  0
   10.1826  -19.6722   19.9429 C   0  0  1  0  0  0  0  0  0  0  0  0
   10.2812  -19.9680   18.4534 C   0  0  0  0  0  0  0  0  0  0  0  0
   10.5012  -21.4235   18.3495 C   0  0  0  0  0  0  0  0  0  0  0  0
   11.4719  -21.9487   18.9392 O   0  0  0  0  0  0  0  0  0  0  0  0
   10.1186  -18.2286   20.2211 C   0  0  0  0  0  0  0  0  0  0  0  0
   11.0647  -17.4473   19.8736 O   0  0  0  0  0  0  0  0  0  0  0  0
    9.6523  -22.2513   17.6127 O   0  0  0  0  0  0  0  0  0  0  0  0
    9.0049  -17.6529   20.8772 N   0  0  0  0  0  0  0  0  0  0  0  0
    8.8872  -16.2242   21.1871 C   0  0  1  0  0  0  0  0  0  0  0  0
    7.4002  -15.8853   20.9884 C   0  0  0  0  0  0  0  0  0  0  0  0
    7.1407  -14.4629   21.2123 C   0  0  0  0  0  0  0  0  0  0  0  0
    7.5487  -13.5147   20.3101 C   0  0  0  0  0  0  0  0  0  0  0  0
    7.3159  -12.1517   20.5304 C   0  0  0  0  0  0  0  0  0  0  0  0
    6.6666  -11.7196   21.6652 C   0  0  0  0  0  0  0  0  0  0  0  0
    6.2563  -12.6688   22.5731 C   0  0  0  0  0  0  0  0  0  0  0  0
    6.4879  -14.0202   22.3533 C   0  0  0  0  0  0  0  0  0  0  0  0
    9.3859  -15.8495   22.4975 C   0  0  0  0  0  0  0  0  0  0  0  0
    9.6780  -14.6608   22.7554 O   0  0  0  0  0  0  0  0  0  0  0  0
    9.5502  -16.8249   23.5070 N   0  0  0  0  0  0  0  0  0  0  0  0
   10.1948  -16.5373   24.7873 C   0  0  1  0  0  0  0  0  0  0  0  0
    9.1216  -16.5969   25.8231 C   0  0  0  0  0  0  0  0  0  0  0  0
    8.0963  -15.5584   25.8010 C   0  0  0  0  0  0  0  0  0  0  0  0
    6.7580  -15.7766   25.5002 C   0  0  0  0  0  0  0  0  0  0  0  0
    6.1014  -14.6316   25.5282 N   0  0  0  0  0  0  0  0  0  0  0  0
    6.9451  -13.6311   25.8391 C   0  0  0  0  0  0  0  0  0  0  0  0
    6.7028  -12.2940   25.9948 C   0  0  0  0  0  0  0  0  0  0  0  0
    7.7299  -11.4553   26.3392 C   0  0  0  0  0  0  0  0  0  0  0  0
    8.9949  -12.0089   26.5170 C   0  0  0  0  0  0  0  0  0  0  0  0
    9.2451  -13.3528   26.3631 C   0  0  0  0  0  0  0  0  0  0  0  0
    8.1872  -14.2057   26.0103 C   0  0  0  0  0  0  0  0  0  0  0  0
   11.2985  -17.4465   25.1025 C   0  0  0  0  0  0  0  0  0  0  0  0
   11.6289  -18.4170   24.3541 O   0  0  0  0  0  0  0  0  0  0  0  0
   12.0116  -17.2134   26.2843 O   0  0  0  0  0  0  0  0  0  0  0  0
  2  1  1  6
  2  3  1  0
  3  4  1  0
  4  5  2  0
  6  2  1  0
  6  7  2  0
  8  4  1  0
  9  6  1  0
 10 11  1  1
 10  9  1  0
 11 12  1  0
 12 13  2  0
 12 17  1  0
 13 14  1  0
 14 15  2  0
 16 15  1  0
 17 16  2  0
 18 10  1  0
 19 18  2  0
 20 18  1  0
 21 20  1  0
 21 22  1  1
 22 23  1  0
 23 31  1  0
 24 23  2  0
 24 25  1  0
 25 26  1  0
 26 27  1  0
 27 28  2  0
 29 28  1  0
 30 29  2  0
 31 26  2  0
 31 30  1  0
 32 34  1  0
 32 21  1  0
 33 32  2  0
M  END
$$$$
