DFW.pdb
     RDKit          3D

 34 36  0  0  1  0  0  0  0  0999 V2000
   10.8901  -19.8674   18.3962 N   0  0  0  0  0  0  0  0  0  0  0  0
   10.2058  -19.6467   19.6790 C   0  0  1  0  0  0  0  0  0  0  0  0
   10.9160  -20.5025   20.7178 C   0  0  0  0  0  0  0  0  0  0  0  0
   10.6606  -21.9016   20.3243 C   0  0  0  0  0  0  0  0  0  0  0  0
   11.6224  -22.6795   20.1362 O   0  0  0  0  0  0  0  0  0  0  0  0
   10.2782  -18.2115   19.9956 C   0  0  0  0  0  0  0  0  0  0  0  0
   11.2804  -17.5073   19.6403 O   0  0  0  0  0  0  0  0  0  0  0  0
    9.3677  -22.4008   20.1569 O   0  0  0  0  0  0  0  0  0  0  0  0
    9.2384  -17.5583   20.6988 N   0  0  0  0  0  0  0  0  0  0  0  0
    9.2399  -16.1264   21.0162 C   0  0  1  0  0  0  0  0  0  0  0  0
    7.7575  -15.7223   21.0831 C   0  0  0  0  0  0  0  0  0  0  0  0
    7.6023  -14.2714   21.1912 C   0  0  0  0  0  0  0  0  0  0  0  0
    8.0222  -13.4345   20.1899 C   0  0  0  0  0  0  0  0  0  0  0  0
    7.8898  -12.0449   20.2985 C   0  0  0  0  0  0  0  0  0  0  0  0
    7.3306  -11.4733   21.4196 C   0  0  0  0  0  0  0  0  0  0  0  0
    6.9087  -12.3106   22.4268 C   0  0  0  0  0  0  0  0  0  0  0  0
    7.0408  -13.6887   22.3177 C   0  0  0  0  0  0  0  0  0  0  0  0
    9.9796  -15.7763   22.2147 C   0  0  0  0  0  0  0  0  0  0  0  0
   10.8557  -14.8838   22.1885 O   0  0  0  0  0  0  0  0  0  0  0  0
    9.7213  -16.4404   23.4353 N   0  0  0  0  0  0  0  0  0  0  0  0
   10.4866  -16.1820   24.6539 C   0  0  1  0  0  0  0  0  0  0  0  0
    9.5896  -16.5253   25.7965 C   0  0  0  0  0  0  0  0  0  0  0  0
    8.2779  -15.8871   25.8473 C   0  0  0  0  0  0  0  0  0  0  0  0
    7.0751  -16.5340   25.5946 C   0  0  0  0  0  0  0  0  0  0  0  0
    6.0778  -15.6734   25.6836 N   0  0  0  0  0  0  0  0  0  0  0  0
    6.5555  -14.4538   25.9899 C   0  0  0  0  0  0  0  0  0  0  0  0
    5.8910  -13.2761   26.1954 C   0  0  0  0  0  0  0  0  0  0  0  0
    6.5969  -12.1486   26.5228 C   0  0  0  0  0  0  0  0  0  0  0  0
    7.9809  -12.2520   26.6324 C   0  0  0  0  0  0  0  0  0  0  0  0
    8.6552  -13.4335   26.4281 C   0  0  0  0  0  0  0  0  0  0  0  0
    7.9247  -14.5846   26.0932 C   0  0  0  0  0  0  0  0  0  0  0  0
   11.7485  -16.9220   24.7186 C   0  0  0  0  0  0  0  0  0  0  0  0
   12.0804  -17.7976   23.8617 O   0  0  0  0  0  0  0  0  0  0  0  0
   12.6155  -16.6311   25.7785 O   0  0  0  0  0  0  0  0  0  0  0  0
  2  1  1  6
  2  3  1  0
  3  4  1  0
  4  5  2  0
  6  2  1  0
  6  7  2  0
  8  4  1  0
  9  6  1  0
 10 11  1  1
 10  9  1  0
 11 12  1  0
 12 13  2  0
 12 17  1  0
 13 14  1  0
 14 15  2  0
 16 15  1  0
 17 16  2  0
 18 10  1  0
 19 18  2  0
 20 18  1  0
 21 20  1  0
 21 22  1  1
 22 23  1  0
 23 31  1  0
 24 23  2  0
 24 25  1  0
 25 26  1  0
 26 27  1  0
 27 28  2  0
 29 28  1  0
 30 29  2  0
 31 26  2  0
 31 30  1  0
 32 34  1  0
 32 21  1  0
 33 32  2  0
M  END
$$$$
