DFW.pdb
     RDKit          3D

 34 36  0  0  1  0  0  0  0  0999 V2000
    9.9568  -20.0076   20.5273 N   0  0  0  0  0  0  0  0  0  0  0  0
   11.1299  -19.2441   20.0765 C   0  0  1  0  0  0  0  0  0  0  0  0
   11.2390  -19.4390   18.5711 C   0  0  0  0  0  0  0  0  0  0  0  0
   11.7360  -20.8156   18.3821 C   0  0  0  0  0  0  0  0  0  0  0  0
   10.9424  -21.7214   18.0422 O   0  0  0  0  0  0  0  0  0  0  0  0
   10.9263  -17.8334   20.4423 C   0  0  0  0  0  0  0  0  0  0  0  0
   11.7845  -16.9417   20.1345 O   0  0  0  0  0  0  0  0  0  0  0  0
   13.0787  -21.1510   18.5645 O   0  0  0  0  0  0  0  0  0  0  0  0
    9.7705  -17.4126   21.1419 N   0  0  0  0  0  0  0  0  0  0  0  0
    9.4977  -16.0184   21.5063 C   0  0  1  0  0  0  0  0  0  0  0  0
    8.0410  -15.7643   21.0834 C   0  0  0  0  0  0  0  0  0  0  0  0
    7.6915  -14.3476   21.1912 C   0  0  0  0  0  0  0  0  0  0  0  0
    7.1932  -13.8245   22.3562 C   0  0  0  0  0  0  0  0  0  0  0  0
    6.8426  -12.4726   22.4564 C   0  0  0  0  0  0  0  0  0  0  0  0
    6.9886  -11.6228   21.3828 C   0  0  0  0  0  0  0  0  0  0  0  0
    7.4879  -12.1449   20.2117 C   0  0  0  0  0  0  0  0  0  0  0  0
    7.8351  -13.4859   20.1138 C   0  0  0  0  0  0  0  0  0  0  0  0
    9.7493  -15.7002   22.8997 C   0  0  0  0  0  0  0  0  0  0  0  0
   10.0168  -14.5297   23.2509 O   0  0  0  0  0  0  0  0  0  0  0  0
    9.6961  -16.7110   23.8860 N   0  0  0  0  0  0  0  0  0  0  0  0
   10.2371  -16.5317   25.2324 C   0  0  1  0  0  0  0  0  0  0  0  0
    9.1021  -16.7532   26.1763 C   0  0  0  0  0  0  0  0  0  0  0  0
    7.9014  -15.9427   25.9984 C   0  0  0  0  0  0  0  0  0  0  0  0
    6.6879  -16.4233   25.5233 C   0  0  0  0  0  0  0  0  0  0  0  0
    5.8165  -15.4347   25.4430 N   0  0  0  0  0  0  0  0  0  0  0  0
    6.3912  -14.2880   25.8480 C   0  0  0  0  0  0  0  0  0  0  0  0
    5.8658  -13.0290   25.9470 C   0  0  0  0  0  0  0  0  0  0  0  0
    6.6465  -12.0042   26.4127 C   0  0  0  0  0  0  0  0  0  0  0  0
    7.9609  -12.2929   26.7691 C   0  0  0  0  0  0  0  0  0  0  0  0
    8.4952  -13.5569   26.6731 C   0  0  0  0  0  0  0  0  0  0  0  0
    7.6887  -14.6019   26.1952 C   0  0  0  0  0  0  0  0  0  0  0  0
   11.3657  -17.4157   25.5305 C   0  0  0  0  0  0  0  0  0  0  0  0
   11.7726  -18.3109   24.7278 O   0  0  0  0  0  0  0  0  0  0  0  0
   12.0143  -17.2451   26.7593 O   0  0  0  0  0  0  0  0  0  0  0  0
  2  1  1  6
  2  3  1  0
  3  4  1  0
  4  5  2  0
  6  2  1  0
  6  7  2  0
  8  4  1  0
  9  6  1  0
 10 11  1  1
 10  9  1  0
 11 12  1  0
 12 13  2  0
 12 17  1  0
 13 14  1  0
 14 15  2  0
 16 15  1  0
 17 16  2  0
 18 10  1  0
 19 18  2  0
 20 18  1  0
 21 20  1  0
 21 22  1  1
 22 23  1  0
 23 31  1  0
 24 23  2  0
 24 25  1  0
 25 26  1  0
 26 27  1  0
 27 28  2  0
 29 28  1  0
 30 29  2  0
 31 26  2  0
 31 30  1  0
 32 34  1  0
 32 21  1  0
 33 32  2  0
M  END
$$$$
