DFW.pdb
     RDKit          3D

 34 36  0  0  1  0  0  0  0  0999 V2000
    8.8499  -18.5322   19.6324 N   0  0  0  0  0  0  0  0  0  0  0  0
   10.0570  -17.7044   19.4906 C   0  0  1  0  0  0  0  0  0  0  0  0
   10.0801  -17.1887   18.0590 C   0  0  0  0  0  0  0  0  0  0  0  0
   10.4869  -18.3379   17.2275 C   0  0  0  0  0  0  0  0  0  0  0  0
   11.4350  -18.2157   16.4201 O   0  0  0  0  0  0  0  0  0  0  0  0
    9.9821  -16.6131   20.4748 C   0  0  0  0  0  0  0  0  0  0  0  0
   10.8580  -15.6866   20.5004 O   0  0  0  0  0  0  0  0  0  0  0  0
    9.8497  -19.5771   17.3119 O   0  0  0  0  0  0  0  0  0  0  0  0
    8.9343  -16.5466   21.4236 N   0  0  0  0  0  0  0  0  0  0  0  0
    8.8061  -15.4846   22.4269 C   0  0  1  0  0  0  0  0  0  0  0  0
    7.3130  -15.4493   22.7943 C   0  0  0  0  0  0  0  0  0  0  0  0
    7.0585  -14.5431   23.9145 C   0  0  0  0  0  0  0  0  0  0  0  0
    7.4340  -13.2257   23.8633 C   0  0  0  0  0  0  0  0  0  0  0  0
    7.2063  -12.3608   24.9407 C   0  0  0  0  0  0  0  0  0  0  0  0
    6.5949  -12.8090   26.0903 C   0  0  0  0  0  0  0  0  0  0  0  0
    6.2174  -14.1312   26.1451 C   0  0  0  0  0  0  0  0  0  0  0  0
    6.4440  -14.9877   25.0758 C   0  0  0  0  0  0  0  0  0  0  0  0
    9.6724  -15.6390   23.5810 C   0  0  0  0  0  0  0  0  0  0  0  0
    9.7738  -14.7277   24.4319 O   0  0  0  0  0  0  0  0  0  0  0  0
   10.4181  -16.8257   23.7630 N   0  0  0  0  0  0  0  0  0  0  0  0
   11.0253  -17.1901   25.0420 C   0  0  1  0  0  0  0  0  0  0  0  0
    9.9062  -17.3039   26.0234 C   0  0  0  0  0  0  0  0  0  0  0  0
   10.1386  -16.8172   27.3796 C   0  0  0  0  0  0  0  0  0  0  0  0
   10.3591  -17.6311   28.4833 C   0  0  0  0  0  0  0  0  0  0  0  0
   10.4953  -16.8881   29.5661 N   0  0  0  0  0  0  0  0  0  0  0  0
   10.3759  -15.5877   29.2433 C   0  0  0  0  0  0  0  0  0  0  0  0
   10.4626  -14.4747   30.0336 C   0  0  0  0  0  0  0  0  0  0  0  0
   10.3264  -13.2329   29.4714 C   0  0  0  0  0  0  0  0  0  0  0  0
   10.1010  -13.1568   28.0997 C   0  0  0  0  0  0  0  0  0  0  0  0
   10.0139  -14.2720   27.2991 C   0  0  0  0  0  0  0  0  0  0  0  0
   10.1548  -15.5411   27.8826 C   0  0  0  0  0  0  0  0  0  0  0  0
   11.8170  -18.4205   24.9830 C   0  0  0  0  0  0  0  0  0  0  0  0
   12.5926  -18.7883   25.9180 O   0  0  0  0  0  0  0  0  0  0  0  0
   11.6935  -19.2150   23.8370 O   0  0  0  0  0  0  0  0  0  0  0  0
  2  1  1  6
  2  3  1  0
  3  4  1  0
  4  5  2  0
  6  2  1  0
  6  7  2  0
  8  4  1  0
  9  6  1  0
 10 11  1  1
 10  9  1  0
 11 12  1  0
 12 13  2  0
 12 17  1  0
 13 14  1  0
 14 15  2  0
 16 15  1  0
 17 16  2  0
 18 10  1  0
 19 18  2  0
 20 18  1  0
 21 20  1  0
 21 22  1  1
 22 23  1  0
 23 31  1  0
 24 23  2  0
 24 25  1  0
 25 26  1  0
 26 27  1  0
 27 28  2  0
 29 28  1  0
 30 29  2  0
 31 26  2  0
 31 30  1  0
 32 34  1  0
 32 21  1  0
 33 32  2  0
M  END
$$$$
