DFW.pdb
     RDKit          3D

 34 36  0  0  1  0  0  0  0  0999 V2000
   10.0520  -20.3158   18.6107 N   0  0  0  0  0  0  0  0  0  0  0  0
    9.6308  -19.9803   19.9790 C   0  0  1  0  0  0  0  0  0  0  0  0
   10.4769  -20.8191   20.9258 C   0  0  0  0  0  0  0  0  0  0  0  0
    9.7410  -22.0859   21.1024 C   0  0  0  0  0  0  0  0  0  0  0  0
    9.1876  -22.6252   20.1182 O   0  0  0  0  0  0  0  0  0  0  0  0
    9.8347  -18.5369   20.1800 C   0  0  0  0  0  0  0  0  0  0  0  0
   10.7877  -17.9184   19.6008 O   0  0  0  0  0  0  0  0  0  0  0  0
    9.6415  -22.7193   22.3425 O   0  0  0  0  0  0  0  0  0  0  0  0
    8.9795  -17.7809   21.0163 N   0  0  0  0  0  0  0  0  0  0  0  0
    9.1348  -16.3428   21.2586 C   0  0  1  0  0  0  0  0  0  0  0  0
    7.7039  -15.7812   21.3091 C   0  0  0  0  0  0  0  0  0  0  0  0
    7.7049  -14.3229   21.4280 C   0  0  0  0  0  0  0  0  0  0  0  0
    7.8187  -13.5192   20.3233 C   0  0  0  0  0  0  0  0  0  0  0  0
    7.8365  -12.1237   20.4365 C   0  0  0  0  0  0  0  0  0  0  0  0
    7.7395  -11.5127   21.6667 C   0  0  0  0  0  0  0  0  0  0  0  0
    7.6258  -12.3167   22.7777 C   0  0  0  0  0  0  0  0  0  0  0  0
    7.6084  -13.7006   22.6638 C   0  0  0  0  0  0  0  0  0  0  0  0
    9.9177  -16.0117   22.4348 C   0  0  0  0  0  0  0  0  0  0  0  0
   10.8865  -15.2239   22.3581 O   0  0  0  0  0  0  0  0  0  0  0  0
    9.5973  -16.5758   23.6904 N   0  0  0  0  0  0  0  0  0  0  0  0
   10.3587  -16.2871   24.9048 C   0  0  1  0  0  0  0  0  0  0  0  0
    9.4118  -16.4548   26.0465 C   0  0  0  0  0  0  0  0  0  0  0  0
    8.1022  -15.8189   25.9432 C   0  0  0  0  0  0  0  0  0  0  0  0
    6.9116  -16.4965   25.7136 C   0  0  0  0  0  0  0  0  0  0  0  0
    5.9148  -15.6343   25.6359 N   0  0  0  0  0  0  0  0  0  0  0  0
    6.3809  -14.3838   25.8048 C   0  0  0  0  0  0  0  0  0  0  0  0
    5.7116  -13.1911   25.8185 C   0  0  0  0  0  0  0  0  0  0  0  0
    6.4041  -12.0285   26.0326 C   0  0  0  0  0  0  0  0  0  0  0  0
    7.7798  -12.1131   26.2284 C   0  0  0  0  0  0  0  0  0  0  0  0
    8.4588  -13.3093   26.2170 C   0  0  0  0  0  0  0  0  0  0  0  0
    7.7421  -14.4964   25.9972 C   0  0  0  0  0  0  0  0  0  0  0  0
   11.5469  -17.1281   25.0625 C   0  0  0  0  0  0  0  0  0  0  0  0
   12.4351  -16.9105   25.9429 O   0  0  0  0  0  0  0  0  0  0  0  0
   11.6870  -18.2192   24.1967 O   0  0  0  0  0  0  0  0  0  0  0  0
  2  1  1  6
  2  3  1  0
  3  4  1  0
  4  5  2  0
  6  2  1  0
  6  7  2  0
  8  4  1  0
  9  6  1  0
 10 11  1  1
 10  9  1  0
 11 12  1  0
 12 13  2  0
 12 17  1  0
 13 14  1  0
 14 15  2  0
 16 15  1  0
 17 16  2  0
 18 10  1  0
 19 18  2  0
 20 18  1  0
 21 20  1  0
 21 22  1  1
 22 23  1  0
 23 31  1  0
 24 23  2  0
 24 25  1  0
 25 26  1  0
 26 27  1  0
 27 28  2  0
 29 28  1  0
 30 29  2  0
 31 26  2  0
 31 30  1  0
 32 34  1  0
 32 21  1  0
 33 32  2  0
M  END
$$$$
