DFW.pdb
     RDKit          3D

 34 36  0  0  1  0  0  0  0  0999 V2000
    9.5234  -18.1529   18.7754 N   0  0  0  0  0  0  0  0  0  0  0  0
   10.8687  -17.7574   19.2183 C   0  0  1  0  0  0  0  0  0  0  0  0
   11.4759  -16.9143   18.1064 C   0  0  0  0  0  0  0  0  0  0  0  0
   11.9925  -17.8758   17.1133 C   0  0  0  0  0  0  0  0  0  0  0  0
   11.6735  -19.0831   17.1933 O   0  0  0  0  0  0  0  0  0  0  0  0
   10.7343  -17.0066   20.4767 C   0  0  0  0  0  0  0  0  0  0  0  0
   11.7324  -16.4073   20.9972 O   0  0  0  0  0  0  0  0  0  0  0  0
   12.8311  -17.4843   16.0682 O   0  0  0  0  0  0  0  0  0  0  0  0
    9.4941  -16.9157   21.1520 N   0  0  0  0  0  0  0  0  0  0  0  0
    9.3117  -16.2359   22.4388 C   0  0  1  0  0  0  0  0  0  0  0  0
    7.8355  -15.8051   22.4664 C   0  0  0  0  0  0  0  0  0  0  0  0
    7.5027  -15.1141   23.7123 C   0  0  0  0  0  0  0  0  0  0  0  0
    7.0354  -15.8000   24.8034 C   0  0  0  0  0  0  0  0  0  0  0  0
    6.7006  -15.1386   25.9912 C   0  0  0  0  0  0  0  0  0  0  0  0
    6.8314  -13.7722   26.1008 C   0  0  0  0  0  0  0  0  0  0  0  0
    7.2996  -13.0806   25.0071 C   0  0  0  0  0  0  0  0  0  0  0  0
    7.6312  -13.7380   23.8297 C   0  0  0  0  0  0  0  0  0  0  0  0
    9.6962  -17.0237   23.5954 C   0  0  0  0  0  0  0  0  0  0  0  0
    9.3388  -18.2175   23.7044 O   0  0  0  0  0  0  0  0  0  0  0  0
   10.4834  -16.4528   24.6211 N   0  0  0  0  0  0  0  0  0  0  0  0
   11.2318  -17.2581   25.5849 C   0  0  1  0  0  0  0  0  0  0  0  0
   11.8945  -16.2962   26.5143 C   0  0  0  0  0  0  0  0  0  0  0  0
   11.0762  -15.6831   27.5558 C   0  0  0  0  0  0  0  0  0  0  0  0
   10.9535  -16.1687   28.8514 C   0  0  0  0  0  0  0  0  0  0  0  0
   10.1130  -15.4131   29.5338 N   0  0  0  0  0  0  0  0  0  0  0  0
    9.6527  -14.4221   28.7494 C   0  0  0  0  0  0  0  0  0  0  0  0
    8.7844  -13.4052   29.0371 C   0  0  0  0  0  0  0  0  0  0  0  0
    8.4737  -12.4861   28.0699 C   0  0  0  0  0  0  0  0  0  0  0  0
    9.0632  -12.6302   26.8170 C   0  0  0  0  0  0  0  0  0  0  0  0
    9.9381  -13.6498   26.5214 C   0  0  0  0  0  0  0  0  0  0  0  0
   10.2516  -14.5875   27.5180 C   0  0  0  0  0  0  0  0  0  0  0  0
   10.4015  -18.2222   26.3097 C   0  0  0  0  0  0  0  0  0  0  0  0
   10.8831  -19.2186   26.9313 O   0  0  0  0  0  0  0  0  0  0  0  0
    9.0173  -18.0136   26.3086 O   0  0  0  0  0  0  0  0  0  0  0  0
  2  1  1  6
  2  3  1  0
  3  4  1  0
  4  5  2  0
  6  2  1  0
  6  7  2  0
  8  4  1  0
  9  6  1  0
 10 11  1  1
 10  9  1  0
 11 12  1  0
 12 13  2  0
 12 17  1  0
 13 14  1  0
 14 15  2  0
 16 15  1  0
 17 16  2  0
 18 10  1  0
 19 18  2  0
 20 18  1  0
 21 20  1  0
 21 22  1  1
 22 23  1  0
 23 31  1  0
 24 23  2  0
 24 25  1  0
 25 26  1  0
 26 27  1  0
 27 28  2  0
 29 28  1  0
 30 29  2  0
 31 26  2  0
 31 30  1  0
 32 34  1  0
 32 21  1  0
 33 32  2  0
M  END
$$$$
