DFW.pdb
     RDKit          3D

 34 36  0  0  1  0  0  0  0  0999 V2000
   10.5833  -18.4162   19.1788 N   0  0  0  0  0  0  0  0  0  0  0  0
    9.9939  -18.5183   20.5221 C   0  0  1  0  0  0  0  0  0  0  0  0
   10.7290  -19.6348   21.2494 C   0  0  0  0  0  0  0  0  0  0  0  0
   10.4932  -20.8535   20.4515 C   0  0  0  0  0  0  0  0  0  0  0  0
   11.4558  -21.5930   20.1478 O   0  0  0  0  0  0  0  0  0  0  0  0
   10.1529  -17.2178   21.1920 C   0  0  0  0  0  0  0  0  0  0  0  0
   11.2376  -16.5542   21.0951 O   0  0  0  0  0  0  0  0  0  0  0  0
    9.2178  -21.2229   20.0207 O   0  0  0  0  0  0  0  0  0  0  0  0
    9.1088  -16.6524   21.9617 N   0  0  0  0  0  0  0  0  0  0  0  0
    9.1841  -15.3329   22.5976 C   0  0  1  0  0  0  0  0  0  0  0  0
    7.8099  -14.6855   22.3567 C   0  0  0  0  0  0  0  0  0  0  0  0
    7.7719  -13.9681   21.0821 C   0  0  0  0  0  0  0  0  0  0  0  0
    8.4260  -12.7746   20.9178 C   0  0  0  0  0  0  0  0  0  0  0  0
    8.3773  -12.0783   19.7041 C   0  0  0  0  0  0  0  0  0  0  0  0
    7.6679  -12.5734   18.6327 C   0  0  0  0  0  0  0  0  0  0  0  0
    7.0097  -13.7710   18.7946 C   0  0  0  0  0  0  0  0  0  0  0  0
    7.0588  -14.4604   19.9990 C   0  0  0  0  0  0  0  0  0  0  0  0
    9.5622  -15.3604   23.9984 C   0  0  0  0  0  0  0  0  0  0  0  0
    9.5789  -14.3102   24.6779 O   0  0  0  0  0  0  0  0  0  0  0  0
    9.9191  -16.5786   24.6200 N   0  0  0  0  0  0  0  0  0  0  0  0
   10.2670  -16.6714   26.0370 C   0  0  1  0  0  0  0  0  0  0  0  0
    8.9781  -16.7819   26.7818 C   0  0  0  0  0  0  0  0  0  0  0  0
    7.9548  -15.7736   26.5239 C   0  0  0  0  0  0  0  0  0  0  0  0
    6.6808  -16.0470   26.0429 C   0  0  0  0  0  0  0  0  0  0  0  0
    6.0128  -14.9196   25.8816 N   0  0  0  0  0  0  0  0  0  0  0  0
    6.7863  -13.8779   26.2366 C   0  0  0  0  0  0  0  0  0  0  0  0
    6.5059  -12.5393   26.2486 C   0  0  0  0  0  0  0  0  0  0  0  0
    7.4578  -11.6519   26.6769 C   0  0  0  0  0  0  0  0  0  0  0  0
    8.6880  -12.1590   27.0862 C   0  0  0  0  0  0  0  0  0  0  0  0
    8.9760  -13.5041   27.0778 C   0  0  0  0  0  0  0  0  0  0  0  0
    7.9953  -14.4072   26.6377 C   0  0  0  0  0  0  0  0  0  0  0  0
   11.1648  -17.7861   26.3459 C   0  0  0  0  0  0  0  0  0  0  0  0
   11.5699  -18.6099   25.4692 O   0  0  0  0  0  0  0  0  0  0  0  0
   11.5874  -17.9281   27.6728 O   0  0  0  0  0  0  0  0  0  0  0  0
  2  1  1  6
  2  3  1  0
  3  4  1  0
  4  5  2  0
  6  2  1  0
  6  7  2  0
  8  4  1  0
  9  6  1  0
 10 11  1  1
 10  9  1  0
 11 12  1  0
 12 13  2  0
 12 17  1  0
 13 14  1  0
 14 15  2  0
 16 15  1  0
 17 16  2  0
 18 10  1  0
 19 18  2  0
 20 18  1  0
 21 20  1  0
 21 22  1  1
 22 23  1  0
 23 31  1  0
 24 23  2  0
 24 25  1  0
 25 26  1  0
 26 27  1  0
 27 28  2  0
 29 28  1  0
 30 29  2  0
 31 26  2  0
 31 30  1  0
 32 34  1  0
 32 21  1  0
 33 32  2  0
M  END
$$$$
