DFW.pdb
     RDKit          3D

 34 36  0  0  1  0  0  0  0  0999 V2000
   10.8946  -16.7446   19.8878 N   0  0  0  0  0  0  0  0  0  0  0  0
    9.8918  -17.1598   20.8800 C   0  0  1  0  0  0  0  0  0  0  0  0
   10.2837  -18.5507   21.3570 C   0  0  0  0  0  0  0  0  0  0  0  0
    9.8911  -19.4701   20.2716 C   0  0  0  0  0  0  0  0  0  0  0  0
    9.5231  -19.0078   19.1686 O   0  0  0  0  0  0  0  0  0  0  0  0
    9.8941  -16.1747   21.9731 C   0  0  0  0  0  0  0  0  0  0  0  0
   10.9708  -15.5969   22.3382 O   0  0  0  0  0  0  0  0  0  0  0  0
    9.9205  -20.8571   20.4272 O   0  0  0  0  0  0  0  0  0  0  0  0
    8.7038  -15.8269   22.6547 N   0  0  0  0  0  0  0  0  0  0  0  0
    8.6603  -14.9471   23.8273 C   0  0  1  0  0  0  0  0  0  0  0  0
    7.2766  -14.2773   23.7831 C   0  0  0  0  0  0  0  0  0  0  0  0
    7.0567  -13.4248   24.9517 C   0  0  0  0  0  0  0  0  0  0  0  0
    6.2238  -13.8131   25.9690 C   0  0  0  0  0  0  0  0  0  0  0  0
    5.9992  -12.9916   27.0804 C   0  0  0  0  0  0  0  0  0  0  0  0
    6.6112  -11.7627   27.1866 C   0  0  0  0  0  0  0  0  0  0  0  0
    7.4474  -11.3696   26.1668 C   0  0  0  0  0  0  0  0  0  0  0  0
    7.6691  -12.1854   25.0652 C   0  0  0  0  0  0  0  0  0  0  0  0
    8.9306  -15.6117   25.0888 C   0  0  0  0  0  0  0  0  0  0  0  0
    8.2128  -16.5585   25.4803 O   0  0  0  0  0  0  0  0  0  0  0  0
   10.0129  -15.1986   25.8985 N   0  0  0  0  0  0  0  0  0  0  0  0
   10.2719  -15.7642   27.2216 C   0  0  1  0  0  0  0  0  0  0  0  0
   11.6453  -16.3467   27.1701 C   0  0  0  0  0  0  0  0  0  0  0  0
   11.8613  -17.5046   26.3082 C   0  0  0  0  0  0  0  0  0  0  0  0
   12.4327  -17.4514   25.0433 C   0  0  0  0  0  0  0  0  0  0  0  0
   12.4512  -18.6592   24.5104 N   0  0  0  0  0  0  0  0  0  0  0  0
   11.9108  -19.5431   25.3683 C   0  0  0  0  0  0  0  0  0  0  0  0
   11.7396  -20.8946   25.2456 C   0  0  0  0  0  0  0  0  0  0  0  0
   11.1757  -21.6018   26.2746 C   0  0  0  0  0  0  0  0  0  0  0  0
   10.7946  -20.9033   27.4169 C   0  0  0  0  0  0  0  0  0  0  0  0
   10.9649  -19.5445   27.5472 C   0  0  0  0  0  0  0  0  0  0  0  0
   11.5437  -18.8268   26.4885 C   0  0  0  0  0  0  0  0  0  0  0  0
   10.1398  -14.7916   28.3082 C   0  0  0  0  0  0  0  0  0  0  0  0
    9.9733  -13.5494   28.1069 O   0  0  0  0  0  0  0  0  0  0  0  0
   10.1971  -15.2757   29.6204 O   0  0  0  0  0  0  0  0  0  0  0  0
  2  1  1  6
  2  3  1  0
  3  4  1  0
  4  5  2  0
  6  2  1  0
  6  7  2  0
  8  4  1  0
  9  6  1  0
 10 11  1  1
 10  9  1  0
 11 12  1  0
 12 13  2  0
 12 17  1  0
 13 14  1  0
 14 15  2  0
 16 15  1  0
 17 16  2  0
 18 10  1  0
 19 18  2  0
 20 18  1  0
 21 20  1  0
 21 22  1  6
 22 23  1  0
 23 31  1  0
 24 23  2  0
 24 25  1  0
 25 26  1  0
 26 27  1  0
 27 28  2  0
 29 28  1  0
 30 29  2  0
 31 26  2  0
 31 30  1  0
 32 34  1  0
 32 21  1  0
 33 32  2  0
M  END
$$$$
