DFW.pdb
     RDKit          3D

 34 36  0  0  1  0  0  0  0  0999 V2000
    9.7510  -17.9419   19.7436 N   0  0  0  0  0  0  0  0  0  0  0  0
   10.9950  -17.4868   20.3821 C   0  0  1  0  0  0  0  0  0  0  0  0
   11.6407  -16.4826   19.4384 C   0  0  0  0  0  0  0  0  0  0  0  0
   12.1151  -17.2687   18.2831 C   0  0  0  0  0  0  0  0  0  0  0  0
   11.2906  -17.8787   17.5662 O   0  0  0  0  0  0  0  0  0  0  0  0
   10.6505  -16.8885   21.6816 C   0  0  0  0  0  0  0  0  0  0  0  0
   11.5361  -16.3192   22.4012 O   0  0  0  0  0  0  0  0  0  0  0  0
   13.4679  -17.3549   17.9498 O   0  0  0  0  0  0  0  0  0  0  0  0
    9.3256  -16.9161   22.1779 N   0  0  0  0  0  0  0  0  0  0  0  0
    8.8977  -16.2357   23.4047 C   0  0  1  0  0  0  0  0  0  0  0  0
    7.4806  -15.7161   23.1094 C   0  0  0  0  0  0  0  0  0  0  0  0
    7.4811  -14.7586   22.0031 C   0  0  0  0  0  0  0  0  0  0  0  0
    7.1010  -15.1311   20.7397 C   0  0  0  0  0  0  0  0  0  0  0  0
    7.1165  -14.2206   19.6761 C   0  0  0  0  0  0  0  0  0  0  0  0
    7.5155  -12.9166   19.8673 C   0  0  0  0  0  0  0  0  0  0  0  0
    7.8983  -12.5397   21.1341 C   0  0  0  0  0  0  0  0  0  0  0  0
    7.8825  -13.4439   22.1880 C   0  0  0  0  0  0  0  0  0  0  0  0
    8.9659  -17.0536   24.6016 C   0  0  0  0  0  0  0  0  0  0  0  0
    8.5727  -16.6101   25.7032 O   0  0  0  0  0  0  0  0  0  0  0  0
    9.4793  -18.3690   24.5418 N   0  0  0  0  0  0  0  0  0  0  0  0
    9.4826  -19.2699   25.6933 C   0  0  1  0  0  0  0  0  0  0  0  0
    9.8549  -20.6186   25.1729 C   0  0  0  0  0  0  0  0  0  0  0  0
   11.2357  -20.8264   24.7481 C   0  0  0  0  0  0  0  0  0  0  0  0
   12.3385  -20.7645   25.5902 C   0  0  0  0  0  0  0  0  0  0  0  0
   13.4434  -20.9591   24.8943 N   0  0  0  0  0  0  0  0  0  0  0  0
   13.1368  -21.1535   23.5991 C   0  0  0  0  0  0  0  0  0  0  0  0
   13.9533  -21.4065   22.5313 C   0  0  0  0  0  0  0  0  0  0  0  0
   13.4057  -21.5936   21.2896 C   0  0  0  0  0  0  0  0  0  0  0  0
   12.0212  -21.5156   21.1666 C   0  0  0  0  0  0  0  0  0  0  0  0
   11.1943  -21.2627   22.2365 C   0  0  0  0  0  0  0  0  0  0  0  0
   11.7631  -21.0723   23.5058 C   0  0  0  0  0  0  0  0  0  0  0  0
   10.3800  -18.8407   26.7677 C   0  0  0  0  0  0  0  0  0  0  0  0
   10.3618  -19.3532   27.9289 O   0  0  0  0  0  0  0  0  0  0  0  0
   11.2950  -17.8216   26.4782 O   0  0  0  0  0  0  0  0  0  0  0  0
  2  1  1  6
  2  3  1  0
  3  4  1  0
  4  5  2  0
  6  2  1  0
  6  7  2  0
  8  4  1  0
  9  6  1  0
 10 11  1  6
 10  9  1  0
 11 12  1  0
 12 13  2  0
 12 17  1  0
 13 14  1  0
 14 15  2  0
 16 15  1  0
 17 16  2  0
 18 10  1  0
 19 18  2  0
 20 18  1  0
 21 20  1  0
 21 22  1  6
 22 23  1  0
 23 31  1  0
 24 23  2  0
 24 25  1  0
 25 26  1  0
 26 27  1  0
 27 28  2  0
 29 28  1  0
 30 29  2  0
 31 26  2  0
 31 30  1  0
 32 34  1  0
 32 21  1  0
 33 32  2  0
M  END
$$$$
