DFW.pdb
     RDKit          3D

 34 36  0  0  1  0  0  0  0  0999 V2000
   12.7013  -18.0127   19.8724 N   0  0  0  0  0  0  0  0  0  0  0  0
   13.3464  -16.8598   20.5181 C   0  0  1  0  0  0  0  0  0  0  0  0
   13.7965  -15.9199   19.4090 C   0  0  0  0  0  0  0  0  0  0  0  0
   15.0292  -16.5149   18.8576 C   0  0  0  0  0  0  0  0  0  0  0  0
   15.9916  -16.7652   19.6171 O   0  0  0  0  0  0  0  0  0  0  0  0
   12.3661  -16.2310   21.4175 C   0  0  0  0  0  0  0  0  0  0  0  0
   12.6492  -15.1675   22.0618 O   0  0  0  0  0  0  0  0  0  0  0  0
   15.1636  -16.8199   17.5021 O   0  0  0  0  0  0  0  0  0  0  0  0
   11.0730  -16.7774   21.5963 N   0  0  0  0  0  0  0  0  0  0  0  0
   10.1016  -16.2760   22.5741 C   0  0  1  0  0  0  0  0  0  0  0  0
    8.7207  -16.5706   21.9644 C   0  0  0  0  0  0  0  0  0  0  0  0
    8.1372  -15.3741   21.3573 C   0  0  0  0  0  0  0  0  0  0  0  0
    8.5109  -14.9569   20.1061 C   0  0  0  0  0  0  0  0  0  0  0  0
    7.9658  -13.8029   19.5300 C   0  0  0  0  0  0  0  0  0  0  0  0
    7.0329  -13.0483   20.2055 C   0  0  0  0  0  0  0  0  0  0  0  0
    6.6561  -13.4641   21.4619 C   0  0  0  0  0  0  0  0  0  0  0  0
    7.1976  -14.6087   22.0320 C   0  0  0  0  0  0  0  0  0  0  0  0
   10.2601  -16.8166   23.9115 C   0  0  0  0  0  0  0  0  0  0  0  0
   11.1367  -17.6751   24.1554 O   0  0  0  0  0  0  0  0  0  0  0  0
    9.4236  -16.3805   24.9640 N   0  0  0  0  0  0  0  0  0  0  0  0
    9.7250  -16.6358   26.3716 C   0  0  1  0  0  0  0  0  0  0  0  0
    8.4918  -16.2877   27.1372 C   0  0  0  0  0  0  0  0  0  0  0  0
    7.6619  -15.1987   26.6316 C   0  0  0  0  0  0  0  0  0  0  0  0
    6.4112  -15.3638   26.0505 C   0  0  0  0  0  0  0  0  0  0  0  0
    5.9400  -14.1926   25.6642 N   0  0  0  0  0  0  0  0  0  0  0  0
    6.8266  -13.2255   25.9609 C   0  0  0  0  0  0  0  0  0  0  0  0
    6.7529  -11.8745   25.7605 C   0  0  0  0  0  0  0  0  0  0  0  0
    7.7847  -11.0719   26.1705 C   0  0  0  0  0  0  0  0  0  0  0  0
    8.8804  -11.6758   26.7812 C   0  0  0  0  0  0  0  0  0  0  0  0
    8.9603  -13.0335   26.9867 C   0  0  0  0  0  0  0  0  0  0  0  0
    7.8988  -13.8493   26.5640 C   0  0  0  0  0  0  0  0  0  0  0  0
   10.1534  -18.0107   26.6368 C   0  0  0  0  0  0  0  0  0  0  0  0
    9.7324  -19.0058   25.9708 O   0  0  0  0  0  0  0  0  0  0  0  0
   11.0733  -18.2135   27.6723 O   0  0  0  0  0  0  0  0  0  0  0  0
  2  1  1  6
  2  3  1  0
  3  4  1  0
  4  5  2  0
  6  2  1  0
  6  7  2  0
  8  4  1  0
  9  6  1  0
 10 11  1  6
 10  9  1  0
 11 12  1  0
 12 13  2  0
 12 17  1  0
 13 14  1  0
 14 15  2  0
 16 15  1  0
 17 16  2  0
 18 10  1  0
 19 18  2  0
 20 18  1  0
 21 20  1  0
 21 22  1  1
 22 23  1  0
 23 31  1  0
 24 23  2  0
 24 25  1  0
 25 26  1  0
 26 27  1  0
 27 28  2  0
 29 28  1  0
 30 29  2  0
 31 26  2  0
 31 30  1  0
 32 34  1  0
 32 21  1  0
 33 32  2  0
M  END
$$$$
