LRR.pdb
     RDKit          3D

 31 30  0  0  1  0  0  0  0  0999 V2000
    6.8254  -22.4424   18.5286 C   0  0  0  0  0  0  0  0  0  0  0  0
    7.6919  -21.6936   19.5036 C   0  0  1  0  0  0  0  0  0  0  0  0
    8.8864  -22.5580   19.8894 C   0  0  0  0  0  0  0  0  0  0  0  0
    8.2071  -20.4282   18.8746 C   0  0  0  0  0  0  0  0  0  0  0  0
    9.1235  -19.7013   19.8018 C   0  0  2  0  0  0  0  0  0  0  0  0
    8.5475  -19.4059   21.0817 N   0  0  0  0  0  0  0  0  0  0  0  0
    9.5969  -18.4513   19.1247 C   0  0  0  0  0  0  0  0  0  0  0  0
   10.1286  -18.5981   17.9697 O   0  0  0  0  0  0  0  0  0  0  0  0
    6.8180  -12.6556   15.2574 N   0  0  0  0  0  0  0  0  0  0  0  0
    7.7895  -13.5657   15.7454 C   0  0  0  0  0  0  0  0  0  0  0  0
    8.6528  -14.1098   14.9382 N   0  0  0  0  0  0  0  0  0  0  0  0
    7.8189  -13.8885   17.1402 N   0  0  0  0  0  0  0  0  0  0  0  0
    8.2564  -12.9141   18.1191 C   0  0  0  0  0  0  0  0  0  0  0  0
    9.4447  -13.5171   18.8943 C   0  0  0  0  0  0  0  0  0  0  0  0
    9.0687  -14.8617   19.3995 C   0  0  0  0  0  0  0  0  0  0  0  0
    9.9267  -16.0093   18.9724 C   0  0  2  0  0  0  0  0  0  0  0  0
    9.4693  -17.1768   19.7152 N   0  0  0  0  0  0  0  0  0  0  0  0
   11.3679  -15.8411   19.1126 C   0  0  0  0  0  0  0  0  0  0  0  0
   11.8694  -15.9361   20.2878 O   0  0  0  0  0  0  0  0  0  0  0  0
    9.3130  -14.8206   15.2814 N   0  0  0  0  0  0  0  0  0  0  0  0
   17.6262  -19.5846   19.8166 C   0  0  0  0  0  0  0  0  0  0  0  0
   18.4102  -18.6157   19.1510 N   0  0  0  0  0  0  0  0  0  0  0  0
   19.7179  -18.6364   19.1924 N   0  0  0  0  0  0  0  0  0  0  0  0
   17.8085  -17.5591   18.3951 C   0  0  0  0  0  0  0  0  0  0  0  0
   16.3799  -17.4386   18.3354 C   0  0  0  0  0  0  0  0  0  0  0  0
   15.9798  -16.2104   17.5058 C   0  0  0  0  0  0  0  0  0  0  0  0
   14.5019  -16.2213   17.2615 C   0  0  2  0  0  0  0  0  0  0  0  0
   13.7523  -15.4999   18.3136 N   0  0  0  0  0  0  0  0  0  0  0  0
   12.3004  -15.5813   18.0770 C   0  0  0  0  0  0  0  0  0  0  0  0
   14.1750  -14.0958   18.4120 O   0  0  0  0  0  0  0  0  0  0  0  0
   15.2235  -13.7275   19.2437 O   0  0  0  0  0  0  0  0  0  0  0  0
  2  1  1  6
  3  2  1  0
  4  2  1  0
  5  4  1  0
  5  6  1  1
  7  8  2  0
  7  5  1  0
 10  9  1  0
 10 11  2  0
 12 10  1  0
 13 12  1  0
 13 14  1  0
 14 15  1  0
 16 15  1  1
 16 17  1  0
 17  7  1  0
 18 16  1  0
 18 19  2  0
 20 21  1  0
 21 22  2  0
 23 24  1  0
 23 21  1  0
 25 24  1  0
 26 25  1  0
 27 28  1  0
 27 26  1  1
 28 18  1  0
 29 27  1  0
 30 29  1  0
 31 29  2  0
M  END
$$$$
