LRR.pdb
     RDKit          3D

 31 30  0  0  1  0  0  0  0  0999 V2000
    6.9582  -12.2868   20.6074 C   0  0  0  0  0  0  0  0  0  0  0  0
    7.5059  -12.9487   19.3727 C   0  0  1  0  0  0  0  0  0  0  0  0
    7.8741  -11.8839   18.3464 C   0  0  0  0  0  0  0  0  0  0  0  0
    8.7461  -13.7301   19.7095 C   0  0  0  0  0  0  0  0  0  0  0  0
    9.2821  -14.4328   18.5066 C   0  0  2  0  0  0  0  0  0  0  0  0
    8.3713  -15.3761   17.9255 N   0  0  0  0  0  0  0  0  0  0  0  0
   10.5762  -15.0924   18.8745 C   0  0  0  0  0  0  0  0  0  0  0  0
   10.4994  -16.3011   19.2882 O   0  0  0  0  0  0  0  0  0  0  0  0
   16.6121  -12.5709   15.8735 N   0  0  0  0  0  0  0  0  0  0  0  0
   16.7462  -13.9782   15.7641 C   0  0  0  0  0  0  0  0  0  0  0  0
   16.8660  -14.5442   14.5987 N   0  0  0  0  0  0  0  0  0  0  0  0
   16.7490  -14.7827   16.9488 N   0  0  0  0  0  0  0  0  0  0  0  0
   16.6062  -14.1781   18.2576 C   0  0  0  0  0  0  0  0  0  0  0  0
   15.5249  -14.9603   19.0293 C   0  0  0  0  0  0  0  0  0  0  0  0
   14.1860  -14.4266   18.6731 C   0  0  0  0  0  0  0  0  0  0  0  0
   13.0046  -15.0770   19.3190 C   0  0  2  0  0  0  0  0  0  0  0  0
   11.8175  -14.4303   18.7745 N   0  0  0  0  0  0  0  0  0  0  0  0
   12.9690  -15.0774   20.7763 C   0  0  0  0  0  0  0  0  0  0  0  0
   12.6864  -13.9766   21.3678 O   0  0  0  0  0  0  0  0  0  0  0  0
   16.9835  -15.5637   14.5227 N   0  0  0  0  0  0  0  0  0  0  0  0
   10.5419  -16.2206   28.2379 C   0  0  0  0  0  0  0  0  0  0  0  0
   10.0048  -14.9976   27.7773 N   0  0  0  0  0  0  0  0  0  0  0  0
    9.5358  -14.0944   28.5998 N   0  0  0  0  0  0  0  0  0  0  0  0
    9.9473  -14.6860   26.3810 C   0  0  0  0  0  0  0  0  0  0  0  0
   10.0924  -15.7265   25.4036 C   0  0  0  0  0  0  0  0  0  0  0  0
   11.5691  -15.9017   25.0226 C   0  0  0  0  0  0  0  0  0  0  0  0
   11.7088  -15.9371   23.5315 C   0  0  1  0  0  0  0  0  0  0  0  0
   13.1169  -16.0834   23.1015 N   0  0  0  0  0  0  0  0  0  0  0  0
   13.2135  -16.1789   21.6345 C   0  0  0  0  0  0  0  0  0  0  0  0
   13.7562  -17.2471   23.7315 O   0  0  0  0  0  0  0  0  0  0  0  0
   13.9873  -17.2748   25.0999 O   0  0  0  0  0  0  0  0  0  0  0  0
  2  1  1  1
  3  2  1  0
  4  2  1  0
  5  4  1  0
  5  6  1  1
  7  8  2  0
  7  5  1  0
 10  9  1  0
 10 11  2  0
 12 10  1  0
 13 12  1  0
 13 14  1  0
 14 15  1  0
 16 15  1  1
 16 17  1  0
 17  7  1  0
 18 16  1  0
 18 19  2  0
 20 21  1  0
 21 22  2  0
 23 24  1  0
 23 21  1  0
 25 24  1  0
 26 25  1  0
 27 28  1  0
 27 26  1  6
 28 18  1  0
 29 27  1  0
 30 29  1  0
 31 29  2  0
M  END
$$$$
