LRR.pdb
     RDKit          3D

 31 30  0  0  1  0  0  0  0  0999 V2000
    8.7779  -11.4742   20.2368 C   0  0  0  0  0  0  0  0  0  0  0  0
    7.9518  -12.7035   19.9747 C   0  0  1  0  0  0  0  0  0  0  0  0
    7.6660  -12.8146   18.4818 C   0  0  0  0  0  0  0  0  0  0  0  0
    8.7014  -13.9342   20.4058 C   0  0  0  0  0  0  0  0  0  0  0  0
    7.8330  -15.1461   20.3323 C   0  0  2  0  0  0  0  0  0  0  0  0
    6.5681  -15.0005   20.9926 N   0  0  0  0  0  0  0  0  0  0  0  0
    8.5939  -16.3143   20.8811 C   0  0  0  0  0  0  0  0  0  0  0  0
    7.9262  -17.1432   21.5918 O   0  0  0  0  0  0  0  0  0  0  0  0
    7.3264  -23.1890   19.0881 N   0  0  0  0  0  0  0  0  0  0  0  0
    8.7358  -23.3253   19.0153 C   0  0  0  0  0  0  0  0  0  0  0  0
    9.3112  -24.4461   19.3407 N   0  0  0  0  0  0  0  0  0  0  0  0
    9.5321  -22.2177   18.5799 N   0  0  0  0  0  0  0  0  0  0  0  0
    9.0721  -20.8557   18.7601 C   0  0  0  0  0  0  0  0  0  0  0  0
   10.0667  -20.1354   19.6920 C   0  0  0  0  0  0  0  0  0  0  0  0
    9.6799  -18.7069   19.8115 C   0  0  0  0  0  0  0  0  0  0  0  0
   10.5179  -17.8516   20.7070 C   0  0  2  0  0  0  0  0  0  0  0  0
    9.9699  -16.5031   20.6354 N   0  0  0  0  0  0  0  0  0  0  0  0
   11.9529  -17.8394   20.4509 C   0  0  0  0  0  0  0  0  0  0  0  0
   12.3547  -17.3898   19.3203 O   0  0  0  0  0  0  0  0  0  0  0  0
   10.3368  -24.5289   19.3307 N   0  0  0  0  0  0  0  0  0  0  0  0
   17.3074  -12.9845   17.7658 C   0  0  0  0  0  0  0  0  0  0  0  0
   16.3107  -13.9846   17.7108 N   0  0  0  0  0  0  0  0  0  0  0  0
   15.5850  -14.1799   16.6396 N   0  0  0  0  0  0  0  0  0  0  0  0
   16.0454  -14.8368   18.8302 C   0  0  0  0  0  0  0  0  0  0  0  0
   15.5246  -14.2857   20.0484 C   0  0  0  0  0  0  0  0  0  0  0  0
   15.3929  -15.3789   21.1181 C   0  0  0  0  0  0  0  0  0  0  0  0
   14.1779  -16.2121   20.8466 C   0  0  2  0  0  0  0  0  0  0  0  0
   14.1326  -17.4307   21.6846 N   0  0  0  0  0  0  0  0  0  0  0  0
   12.9788  -18.2743   21.3272 C   0  0  0  0  0  0  0  0  0  0  0  0
   14.0994  -17.1011   23.1164 O   0  0  0  0  0  0  0  0  0  0  0  0
   15.2056  -16.5421   23.7412 O   0  0  0  0  0  0  0  0  0  0  0  0
  2  1  1  6
  3  2  1  0
  4  2  1  0
  5  4  1  0
  5  6  1  1
  7  8  2  0
  7  5  1  0
 10  9  1  0
 10 11  2  0
 12 10  1  0
 13 12  1  0
 13 14  1  0
 14 15  1  0
 16 15  1  6
 16 17  1  0
 17  7  1  0
 18 16  1  0
 18 19  2  0
 20 21  1  0
 21 22  2  0
 23 24  1  0
 23 21  1  0
 25 24  1  0
 26 25  1  0
 27 28  1  0
 27 26  1  6
 28 18  1  0
 29 27  1  0
 30 29  1  0
 31 29  2  0
M  END
$$$$
