LRR.pdb
     RDKit          3D

 31 30  0  0  1  0  0  0  0  0999 V2000
    6.6812  -12.3117   20.1969 C   0  0  0  0  0  0  0  0  0  0  0  0
    7.9104  -12.9366   19.5962 C   0  0  1  0  0  0  0  0  0  0  0  0
    9.0894  -11.9824   19.7443 C   0  0  0  0  0  0  0  0  0  0  0  0
    8.2447  -14.2164   20.3122 C   0  0  0  0  0  0  0  0  0  0  0  0
    9.6039  -14.7045   19.9348 C   0  0  2  0  0  0  0  0  0  0  0  0
    9.7771  -14.9241   18.5281 N   0  0  0  0  0  0  0  0  0  0  0  0
    9.8984  -15.9504   20.7132 C   0  0  0  0  0  0  0  0  0  0  0  0
    9.1670  -16.1631   21.7418 O   0  0  0  0  0  0  0  0  0  0  0  0
   15.9814  -23.1362   20.3917 N   0  0  0  0  0  0  0  0  0  0  0  0
   14.6059  -23.1727   20.0495 C   0  0  0  0  0  0  0  0  0  0  0  0
   14.1630  -24.0271   19.1739 N   0  0  0  0  0  0  0  0  0  0  0  0
   13.6971  -22.2592   20.6742 N   0  0  0  0  0  0  0  0  0  0  0  0
   13.4287  -20.9614   20.0887 C   0  0  0  0  0  0  0  0  0  0  0  0
   12.4131  -20.2320   20.9905 C   0  0  0  0  0  0  0  0  0  0  0  0
   12.0846  -18.9136   20.3919 C   0  0  0  0  0  0  0  0  0  0  0  0
   11.1265  -18.0480   21.1459 C   0  0  2  0  0  0  0  0  0  0  0  0
   10.9212  -16.8486   20.3438 N   0  0  0  0  0  0  0  0  0  0  0  0
   11.4918  -17.6979   22.5129 C   0  0  0  0  0  0  0  0  0  0  0  0
   12.4457  -16.8591   22.6807 O   0  0  0  0  0  0  0  0  0  0  0  0
   13.1755  -24.0143   18.8847 N   0  0  0  0  0  0  0  0  0  0  0  0
    9.0586  -13.3174   29.2783 C   0  0  0  0  0  0  0  0  0  0  0  0
   10.1086  -14.0962   29.8145 N   0  0  0  0  0  0  0  0  0  0  0  0
   10.5688  -13.8987   31.0234 N   0  0  0  0  0  0  0  0  0  0  0  0
   10.7229  -15.1444   29.0570 C   0  0  0  0  0  0  0  0  0  0  0  0
   10.2591  -15.4437   27.7326 C   0  0  0  0  0  0  0  0  0  0  0  0
   11.1351  -16.5285   27.0902 C   0  0  0  0  0  0  0  0  0  0  0  0
   10.6275  -16.8446   25.7167 C   0  0  1  0  0  0  0  0  0  0  0  0
   11.4369  -17.8842   25.0432 N   0  0  0  0  0  0  0  0  0  0  0  0
   10.9000  -18.1862   23.7049 C   0  0  0  0  0  0  0  0  0  0  0  0
   11.5192  -19.1109   25.8485 O   0  0  0  0  0  0  0  0  0  0  0  0
   12.4666  -19.2360   26.8552 O   0  0  0  0  0  0  0  0  0  0  0  0
  2  1  1  1
  3  2  1  0
  4  2  1  0
  5  4  1  0
  5  6  1  6
  7  8  2  0
  7  5  1  0
 10  9  1  0
 10 11  2  0
 12 10  1  0
 13 12  1  0
 13 14  1  0
 14 15  1  0
 16 15  1  6
 16 17  1  0
 17  7  1  0
 18 16  1  0
 18 19  2  0
 20 21  1  0
 21 22  2  0
 23 24  1  0
 23 21  1  0
 25 24  1  0
 26 25  1  0
 27 28  1  0
 27 26  1  6
 28 18  1  0
 29 27  1  0
 30 29  1  0
 31 29  2  0
M  END
$$$$
