LRR.pdb
     RDKit          3D

 31 30  0  0  1  0  0  0  0  0999 V2000
    5.4961  -11.2209   26.2425 C   0  0  0  0  0  0  0  0  0  0  0  0
    6.5189  -12.2944   26.4954 C   0  0  1  0  0  0  0  0  0  0  0  0
    7.2063  -12.0365   27.8310 C   0  0  0  0  0  0  0  0  0  0  0  0
    5.8528  -13.6414   26.5585 C   0  0  0  0  0  0  0  0  0  0  0  0
    6.8605  -14.7419   26.5210 C   0  0  2  0  0  0  0  0  0  0  0  0
    8.1410  -14.3814   27.0571 N   0  0  0  0  0  0  0  0  0  0  0  0
    6.9869  -15.2274   25.1091 C   0  0  0  0  0  0  0  0  0  0  0  0
    6.0330  -15.9613   24.6739 O   0  0  0  0  0  0  0  0  0  0  0  0
    8.8804  -14.1641   16.0125 N   0  0  0  0  0  0  0  0  0  0  0  0
    8.6308  -13.7423   17.3430 C   0  0  0  0  0  0  0  0  0  0  0  0
    8.8801  -12.5186   17.7084 N   0  0  0  0  0  0  0  0  0  0  0  0
    8.0999  -14.6735   18.2925 N   0  0  0  0  0  0  0  0  0  0  0  0
    8.7583  -14.8949   19.5639 C   0  0  0  0  0  0  0  0  0  0  0  0
    7.6709  -15.1498   20.6264 C   0  0  0  0  0  0  0  0  0  0  0  0
    8.1367  -14.6332   21.9382 C   0  0  0  0  0  0  0  0  0  0  0  0
    8.2805  -15.6283   23.0449 C   0  0  2  0  0  0  0  0  0  0  0  0
    8.0900  -14.9008   24.2932 N   0  0  0  0  0  0  0  0  0  0  0  0
    9.5176  -16.3985   23.0805 C   0  0  0  0  0  0  0  0  0  0  0  0
   10.5866  -15.7960   23.4494 O   0  0  0  0  0  0  0  0  0  0  0  0
    8.7013  -12.2155   18.6754 N   0  0  0  0  0  0  0  0  0  0  0  0
    6.6027  -19.7891   25.3171 C   0  0  0  0  0  0  0  0  0  0  0  0
    7.3998  -20.5769   26.1775 N   0  0  0  0  0  0  0  0  0  0  0  0
    7.1349  -20.6921   27.4537 N   0  0  0  0  0  0  0  0  0  0  0  0
    8.5419  -21.2910   25.6919 C   0  0  0  0  0  0  0  0  0  0  0  0
    9.0330  -21.0489   24.3656 C   0  0  0  0  0  0  0  0  0  0  0  0
   10.3449  -20.2533   24.4168 C   0  0  0  0  0  0  0  0  0  0  0  0
   10.7891  -19.9152   23.0267 C   0  0  2  0  0  0  0  0  0  0  0  0
   10.9767  -18.4602   22.8342 N   0  0  0  0  0  0  0  0  0  0  0  0
    9.6792  -17.7674   22.7497 C   0  0  0  0  0  0  0  0  0  0  0  0
   11.7868  -18.1729   21.6421 O   0  0  0  0  0  0  0  0  0  0  0  0
   13.0884  -18.6440   21.5388 O   0  0  0  0  0  0  0  0  0  0  0  0
  2  1  1  1
  3  2  1  0
  4  2  1  0
  5  4  1  0
  5  6  1  6
  7  8  2  0
  7  5  1  0
 10  9  1  0
 10 11  2  0
 12 10  1  0
 13 12  1  0
 13 14  1  0
 14 15  1  0
 16 15  1  6
 16 17  1  0
 17  7  1  0
 18 16  1  0
 18 19  2  0
 20 21  1  0
 21 22  2  0
 23 24  1  0
 23 21  1  0
 25 24  1  0
 26 25  1  0
 27 28  1  0
 27 26  1  1
 28 18  1  0
 29 27  1  0
 30 29  1  0
 31 29  2  0
M  END
$$$$
