LRR.pdb
     RDKit          3D

 31 30  0  0  1  0  0  0  0  0999 V2000
    6.9180  -12.5540   20.0478 C   0  0  0  0  0  0  0  0  0  0  0  0
    7.8878  -13.4437   19.3194 C   0  0  1  0  0  0  0  0  0  0  0  0
    9.0049  -12.5960   18.7225 C   0  0  0  0  0  0  0  0  0  0  0  0
    8.5016  -14.4323   20.2723 C   0  0  0  0  0  0  0  0  0  0  0  0
    9.5489  -15.2526   19.5953 C   0  0  2  0  0  0  0  0  0  0  0  0
    9.0835  -15.9526   18.4332 N   0  0  0  0  0  0  0  0  0  0  0  0
   10.1341  -16.2022   20.5957 C   0  0  0  0  0  0  0  0  0  0  0  0
   10.7335  -15.6745   21.5959 O   0  0  0  0  0  0  0  0  0  0  0  0
    7.5292  -22.8160   18.3643 N   0  0  0  0  0  0  0  0  0  0  0  0
    8.6918  -22.6316   17.5740 C   0  0  0  0  0  0  0  0  0  0  0  0
    8.6912  -22.9437   16.3108 N   0  0  0  0  0  0  0  0  0  0  0  0
    9.8773  -22.0972   18.1736 N   0  0  0  0  0  0  0  0  0  0  0  0
    9.9054  -21.7456   19.5788 C   0  0  0  0  0  0  0  0  0  0  0  0
   10.3036  -20.2606   19.6913 C   0  0  0  0  0  0  0  0  0  0  0  0
   10.3083  -19.8614   21.1214 C   0  0  0  0  0  0  0  0  0  0  0  0
   10.7080  -18.4540   21.4297 C   0  0  2  0  0  0  0  0  0  0  0  0
   10.0366  -17.6023   20.4561 N   0  0  0  0  0  0  0  0  0  0  0  0
   12.1370  -18.1688   21.4657 C   0  0  0  0  0  0  0  0  0  0  0  0
   12.7479  -18.0324   20.3476 O   0  0  0  0  0  0  0  0  0  0  0  0
    9.5538  -22.8715   15.7545 N   0  0  0  0  0  0  0  0  0  0  0  0
   16.2062  -14.7262   18.3237 C   0  0  0  0  0  0  0  0  0  0  0  0
   14.8478  -14.7622   17.9368 N   0  0  0  0  0  0  0  0  0  0  0  0
   14.4816  -15.1003   16.7269 N   0  0  0  0  0  0  0  0  0  0  0  0
   13.8008  -14.4289   18.8548 C   0  0  0  0  0  0  0  0  0  0  0  0
   14.1121  -14.1122   20.2192 C   0  0  0  0  0  0  0  0  0  0  0  0
   14.5969  -15.3646   20.9630 C   0  0  0  0  0  0  0  0  0  0  0  0
   13.5966  -15.7547   22.0076 C   0  0  2  0  0  0  0  0  0  0  0  0
   13.9896  -16.9836   22.7319 N   0  0  0  0  0  0  0  0  0  0  0  0
   12.9475  -18.0188   22.6190 C   0  0  0  0  0  0  0  0  0  0  0  0
   14.2830  -16.7072   24.1453 O   0  0  0  0  0  0  0  0  0  0  0  0
   13.2768  -16.3057   25.0130 O   0  0  0  0  0  0  0  0  0  0  0  0
  2  1  1  1
  3  2  1  0
  4  2  1  0
  5  4  1  0
  5  6  1  6
  7  8  2  0
  7  5  1  0
 10  9  1  0
 10 11  2  0
 12 10  1  0
 13 12  1  0
 13 14  1  0
 14 15  1  0
 16 15  1  6
 16 17  1  0
 17  7  1  0
 18 16  1  0
 18 19  2  0
 20 21  1  0
 21 22  2  0
 23 24  1  0
 23 21  1  0
 25 24  1  0
 26 25  1  0
 27 28  1  0
 27 26  1  6
 28 18  1  0
 29 27  1  0
 30 29  1  0
 31 29  2  0
M  END
$$$$
