LRR.pdb
     RDKit          3D

 31 30  0  0  1  0  0  0  0  0999 V2000
    5.3400  -12.4827   27.4757 C   0  0  0  0  0  0  0  0  0  0  0  0
    6.2834  -12.4434   26.3049 C   0  0  1  0  0  0  0  0  0  0  0  0
    7.3556  -11.3888   26.5517 C   0  0  0  0  0  0  0  0  0  0  0  0
    6.9602  -13.7764   26.1388 C   0  0  0  0  0  0  0  0  0  0  0  0
    8.0994  -13.6850   25.1786 C   0  0  2  0  0  0  0  0  0  0  0  0
    8.0046  -12.5869   24.2608 N   0  0  0  0  0  0  0  0  0  0  0  0
    8.2147  -14.9877   24.4473 C   0  0  0  0  0  0  0  0  0  0  0  0
    7.8645  -16.0348   25.0946 O   0  0  0  0  0  0  0  0  0  0  0  0
    8.9966  -12.7672   19.6707 N   0  0  0  0  0  0  0  0  0  0  0  0
    8.4144  -13.1533   18.4369 C   0  0  0  0  0  0  0  0  0  0  0  0
    8.7341  -12.5430   17.3331 N   0  0  0  0  0  0  0  0  0  0  0  0
    7.4652  -14.2251   18.4074 N   0  0  0  0  0  0  0  0  0  0  0  0
    7.0713  -14.9023   19.6261 C   0  0  0  0  0  0  0  0  0  0  0  0
    8.2770  -15.7217   20.1277 C   0  0  0  0  0  0  0  0  0  0  0  0
    7.8933  -16.4530   21.3615 C   0  0  0  0  0  0  0  0  0  0  0  0
    8.8457  -16.3851   22.5122 C   0  0  2  0  0  0  0  0  0  0  0  0
    8.6808  -15.0701   23.1186 N   0  0  0  0  0  0  0  0  0  0  0  0
   10.2498  -16.6458   22.2203 C   0  0  0  0  0  0  0  0  0  0  0  0
   10.5286  -17.2812   21.1430 O   0  0  0  0  0  0  0  0  0  0  0  0
    8.2886  -12.8052   16.4434 N   0  0  0  0  0  0  0  0  0  0  0  0
   10.5251  -19.1161   29.9721 C   0  0  0  0  0  0  0  0  0  0  0  0
   11.5161  -19.9275   29.3754 N   0  0  0  0  0  0  0  0  0  0  0  0
   12.1585  -20.8451   30.0518 N   0  0  0  0  0  0  0  0  0  0  0  0
   11.8670  -19.7840   27.9948 C   0  0  0  0  0  0  0  0  0  0  0  0
   11.2554  -18.7591   27.1983 C   0  0  0  0  0  0  0  0  0  0  0  0
   11.7813  -18.8148   25.7571 C   0  0  0  0  0  0  0  0  0  0  0  0
   11.1568  -17.7217   24.9453 C   0  0  1  0  0  0  0  0  0  0  0  0
   12.0680  -17.2066   23.8995 N   0  0  0  0  0  0  0  0  0  0  0  0
   11.3681  -16.2680   23.0053 C   0  0  0  0  0  0  0  0  0  0  0  0
   12.6704  -18.2986   23.1220 O   0  0  0  0  0  0  0  0  0  0  0  0
   13.9329  -18.7814   23.4378 O   0  0  0  0  0  0  0  0  0  0  0  0
  2  1  1  1
  3  2  1  0
  4  2  1  0
  5  4  1  0
  5  6  1  6
  7  8  2  0
  7  5  1  0
 10  9  1  0
 10 11  2  0
 12 10  1  0
 13 12  1  0
 13 14  1  0
 14 15  1  0
 16 15  1  6
 16 17  1  0
 17  7  1  0
 18 16  1  0
 18 19  2  0
 20 21  1  0
 21 22  2  0
 23 24  1  0
 23 21  1  0
 25 24  1  0
 26 25  1  0
 27 28  1  0
 27 26  1  1
 28 18  1  0
 29 27  1  0
 30 29  1  0
 31 29  2  0
M  END
$$$$
