LRR.pdb
     RDKit          3D

 31 30  0  0  1  0  0  0  0  0999 V2000
    5.0808  -11.6846   26.7005 C   0  0  0  0  0  0  0  0  0  0  0  0
    6.4970  -12.1443   26.4879 C   0  0  1  0  0  0  0  0  0  0  0  0
    7.3402  -11.7697   27.7010 C   0  0  0  0  0  0  0  0  0  0  0  0
    6.5388  -13.6391   26.3261 C   0  0  0  0  0  0  0  0  0  0  0  0
    7.9454  -14.1323   26.2470 C   0  0  2  0  0  0  0  0  0  0  0  0
    8.9161  -13.0997   26.0262 N   0  0  0  0  0  0  0  0  0  0  0  0
    8.0255  -15.1816   25.1805 C   0  0  0  0  0  0  0  0  0  0  0  0
    7.2869  -16.2141   25.3437 O   0  0  0  0  0  0  0  0  0  0  0  0
    7.9336  -14.8517   16.5811 N   0  0  0  0  0  0  0  0  0  0  0  0
    8.4711  -14.1127   17.6651 C   0  0  0  0  0  0  0  0  0  0  0  0
    8.5602  -12.8160   17.6040 N   0  0  0  0  0  0  0  0  0  0  0  0
    8.9204  -14.8017   18.8373 N   0  0  0  0  0  0  0  0  0  0  0  0
    8.1530  -15.8966   19.3952 C   0  0  0  0  0  0  0  0  0  0  0  0
    8.9459  -16.4788   20.5822 C   0  0  0  0  0  0  0  0  0  0  0  0
    8.8562  -15.5478   21.7353 C   0  0  0  0  0  0  0  0  0  0  0  0
    8.9352  -16.1521   23.1006 C   0  0  2  0  0  0  0  0  0  0  0  0
    8.8634  -15.0516   24.0534 N   0  0  0  0  0  0  0  0  0  0  0  0
   10.0874  -17.0006   23.3789 C   0  0  0  0  0  0  0  0  0  0  0  0
   11.1058  -16.4613   23.9389 O   0  0  0  0  0  0  0  0  0  0  0  0
    8.9958  -12.2857   18.3708 N   0  0  0  0  0  0  0  0  0  0  0  0
   12.0652  -21.5133   29.9383 C   0  0  0  0  0  0  0  0  0  0  0  0
   12.2158  -20.1129   29.8268 N   0  0  0  0  0  0  0  0  0  0  0  0
   12.3680  -19.3475   30.8771 N   0  0  0  0  0  0  0  0  0  0  0  0
   12.2091  -19.4602   28.5524 C   0  0  0  0  0  0  0  0  0  0  0  0
   11.4162  -19.9852   27.4779 C   0  0  0  0  0  0  0  0  0  0  0  0
   11.5409  -19.0934   26.2345 C   0  0  0  0  0  0  0  0  0  0  0  0
   10.6829  -19.6349   25.1324 C   0  0  2  0  0  0  0  0  0  0  0  0
   11.1808  -19.2531   23.7924 N   0  0  0  0  0  0  0  0  0  0  0  0
   10.2145  -18.3843   23.0982 C   0  0  0  0  0  0  0  0  0  0  0  0
   11.4857  -20.4341   22.9725 O   0  0  0  0  0  0  0  0  0  0  0  0
   12.7787  -20.9337   22.9018 O   0  0  0  0  0  0  0  0  0  0  0  0
  2  1  1  1
  3  2  1  0
  4  2  1  0
  5  4  1  0
  5  6  1  6
  7  8  2  0
  7  5  1  0
 10  9  1  0
 10 11  2  0
 12 10  1  0
 13 12  1  0
 13 14  1  0
 14 15  1  0
 16 15  1  6
 16 17  1  0
 17  7  1  0
 18 16  1  0
 18 19  2  0
 20 21  1  0
 21 22  2  0
 23 24  1  0
 23 21  1  0
 25 24  1  0
 26 25  1  0
 27 28  1  0
 27 26  1  1
 28 18  1  0
 29 27  1  0
 30 29  1  0
 31 29  2  0
M  END
$$$$
