LRR.pdb
     RDKit          3D

 31 30  0  0  1  0  0  0  0  0999 V2000
    5.3130  -11.2869   26.4526 C   0  0  0  0  0  0  0  0  0  0  0  0
    6.5431  -12.1522   26.4333 C   0  0  1  0  0  0  0  0  0  0  0  0
    7.4289  -11.8025   27.6232 C   0  0  0  0  0  0  0  0  0  0  0  0
    6.1591  -13.6026   26.5395 C   0  0  0  0  0  0  0  0  0  0  0  0
    7.3497  -14.4875   26.3739 C   0  0  2  0  0  0  0  0  0  0  0  0
    8.5978  -13.8542   26.6877 N   0  0  0  0  0  0  0  0  0  0  0  0
    7.3565  -15.0241   24.9750 C   0  0  0  0  0  0  0  0  0  0  0  0
    6.3546  -15.7464   24.6394 O   0  0  0  0  0  0  0  0  0  0  0  0
    8.3094  -12.6855   17.5418 N   0  0  0  0  0  0  0  0  0  0  0  0
    8.2770  -14.0580   17.1875 C   0  0  0  0  0  0  0  0  0  0  0  0
    8.5917  -14.4397   15.9841 N   0  0  0  0  0  0  0  0  0  0  0  0
    7.8934  -15.0319   18.1647 N   0  0  0  0  0  0  0  0  0  0  0  0
    7.5294  -14.6322   19.5089 C   0  0  0  0  0  0  0  0  0  0  0  0
    8.8144  -14.5933   20.3596 C   0  0  0  0  0  0  0  0  0  0  0  0
    8.4665  -14.2298   21.7565 C   0  0  0  0  0  0  0  0  0  0  0  0
    8.3494  -15.3514   22.7383 C   0  0  2  0  0  0  0  0  0  0  0  0
    8.4021  -14.7555   24.0673 N   0  0  0  0  0  0  0  0  0  0  0  0
    9.3187  -16.4336   22.6197 C   0  0  0  0  0  0  0  0  0  0  0  0
   10.5285  -16.1934   22.9667 O   0  0  0  0  0  0  0  0  0  0  0  0
    8.5816  -15.4377   15.7332 N   0  0  0  0  0  0  0  0  0  0  0  0
    5.4428  -20.6941   22.1812 C   0  0  0  0  0  0  0  0  0  0  0  0
    5.7991  -21.8663   22.8850 N   0  0  0  0  0  0  0  0  0  0  0  0
    4.9888  -22.4313   23.7432 N   0  0  0  0  0  0  0  0  0  0  0  0
    7.0706  -22.4958   22.6923 C   0  0  0  0  0  0  0  0  0  0  0  0
    8.0345  -21.9156   21.8018 C   0  0  0  0  0  0  0  0  0  0  0  0
    8.6710  -20.6717   22.4376 C   0  0  0  0  0  0  0  0  0  0  0  0
    9.6026  -20.0217   21.4610 C   0  0  2  0  0  0  0  0  0  0  0  0
   10.1464  -18.7424   21.9680 N   0  0  0  0  0  0  0  0  0  0  0  0
    9.0732  -17.7509   22.1571 C   0  0  0  0  0  0  0  0  0  0  0  0
   11.1851  -18.2060   21.0775 O   0  0  0  0  0  0  0  0  0  0  0  0
   12.5302  -18.4079   21.3544 O   0  0  0  0  0  0  0  0  0  0  0  0
  2  1  1  1
  3  2  1  0
  4  2  1  0
  5  4  1  0
  5  6  1  6
  7  8  2  0
  7  5  1  0
 10  9  1  0
 10 11  2  0
 12 10  1  0
 13 12  1  0
 13 14  1  0
 14 15  1  0
 16 15  1  6
 16 17  1  0
 17  7  1  0
 18 16  1  0
 18 19  2  0
 20 21  1  0
 21 22  2  0
 23 24  1  0
 23 21  1  0
 25 24  1  0
 26 25  1  0
 27 28  1  0
 27 26  1  1
 28 18  1  0
 29 27  1  0
 30 29  1  0
 31 29  2  0
M  END
$$$$
