VFA.pdb
     RDKit          3D

 24 24  0  0  1  0  0  0  0  0999 V2000
    9.8218  -19.2011   21.1842 C   0  0  0  0  0  0  0  0  0  0  0  0
    8.7035  -18.5323   20.4111 C   0  0  2  0  0  0  0  0  0  0  0  0
    8.4774  -19.2924   19.1492 C   0  0  0  0  0  0  0  0  0  0  0  0
    9.1070  -17.0962   20.1981 C   0  0  2  0  0  0  0  0  0  0  0  0
   10.3729  -17.1212   19.4683 N   0  0  0  0  0  0  0  0  0  0  0  0
    9.2314  -16.3466   21.4697 C   0  0  0  0  0  0  0  0  0  0  0  0
   10.3497  -16.3809   22.0442 O   0  0  0  0  0  0  0  0  0  0  0  0
    8.1865  -15.6069   22.0673 N   0  0  0  0  0  0  0  0  0  0  0  0
    8.2952  -14.9187   23.3240 C   0  0  1  0  0  0  0  0  0  0  0  0
    7.2055  -13.9201   23.5654 C   0  0  0  0  0  0  0  0  0  0  0  0
    7.2698  -13.2603   24.8701 C   0  0  0  0  0  0  0  0  0  0  0  0
    8.3170  -12.5093   25.3128 C   0  0  0  0  0  0  0  0  0  0  0  0
    8.3030  -11.9122   26.5706 C   0  0  0  0  0  0  0  0  0  0  0  0
    7.2184  -12.0630   27.4171 C   0  0  0  0  0  0  0  0  0  0  0  0
    6.1552  -12.8218   26.9750 C   0  0  0  0  0  0  0  0  0  0  0  0
    6.1860  -13.4066   25.7251 C   0  0  0  0  0  0  0  0  0  0  0  0
    8.3212  -15.9088   24.4299 C   0  0  0  0  0  0  0  0  0  0  0  0
    7.2581  -16.5650   24.6877 O   0  0  0  0  0  0  0  0  0  0  0  0
   10.6885  -18.1965   25.7178 C   0  0  0  0  0  0  0  0  0  0  0  0
    9.5687  -17.2525   26.1599 C   0  0  2  0  0  0  0  0  0  0  0  0
    9.4775  -16.1609   25.2173 N   0  0  0  0  0  0  0  0  0  0  0  0
    9.9716  -16.7153   27.4762 C   0  0  0  0  0  0  0  0  0  0  0  0
   10.0633  -17.5033   28.4461 O   0  0  0  0  0  0  0  0  0  0  0  0
   10.2530  -15.3691   27.6804 O   0  0  0  0  0  0  0  0  0  0  0  0
  2  1  1  6
  2  3  1  0
  4  6  1  0
  4  2  1  0
  4  5  1  1
  6  7  2  0
  8  9  1  0
  8  6  1  0
  9 10  1  1
 11 16  2  0
 11 10  1  0
 12 11  1  0
 13 14  1  0
 13 12  2  0
 14 15  2  0
 15 16  1  0
 17  9  1  0
 18 17  2  0
 20 19  1  6
 20 21  1  0
 21 17  1  0
 22 20  1  0
 22 24  1  0
 23 22  2  0
M  END
$$$$
