VFA.pdb
     RDKit          3D

 24 24  0  0  1  0  0  0  0  0999 V2000
   10.0156  -18.5427   20.9680 C   0  0  0  0  0  0  0  0  0  0  0  0
    8.6007  -18.2662   20.5018 C   0  0  2  0  0  0  0  0  0  0  0  0
    8.2869  -19.1806   19.3675 C   0  0  0  0  0  0  0  0  0  0  0  0
    8.5266  -16.8032   20.1487 C   0  0  2  0  0  0  0  0  0  0  0  0
    9.5409  -16.5685   19.1232 N   0  0  0  0  0  0  0  0  0  0  0  0
    8.7327  -15.9243   21.3233 C   0  0  0  0  0  0  0  0  0  0  0  0
    9.8320  -15.3175   21.3948 O   0  0  0  0  0  0  0  0  0  0  0  0
    7.7843  -15.7293   22.3522 N   0  0  0  0  0  0  0  0  0  0  0  0
    7.9654  -14.8376   23.4642 C   0  0  1  0  0  0  0  0  0  0  0  0
    6.6841  -14.3830   24.0925 C   0  0  0  0  0  0  0  0  0  0  0  0
    6.8550  -13.4311   25.1910 C   0  0  0  0  0  0  0  0  0  0  0  0
    6.9360  -12.0788   25.0448 C   0  0  0  0  0  0  0  0  0  0  0  0
    7.0990  -11.2375   26.1422 C   0  0  0  0  0  0  0  0  0  0  0  0
    7.1845  -11.7505   27.4248 C   0  0  0  0  0  0  0  0  0  0  0  0
    7.1033  -13.1184   27.5796 C   0  0  0  0  0  0  0  0  0  0  0  0
    6.9417  -13.9376   26.4805 C   0  0  0  0  0  0  0  0  0  0  0  0
    8.8210  -15.4895   24.4874 C   0  0  0  0  0  0  0  0  0  0  0  0
    9.1005  -14.8440   25.5516 O   0  0  0  0  0  0  0  0  0  0  0  0
   10.2554  -18.9312   25.0437 C   0  0  0  0  0  0  0  0  0  0  0  0
   10.2040  -17.4269   25.3172 C   0  0  2  0  0  0  0  0  0  0  0  0
    9.3452  -16.8023   24.3371 N   0  0  0  0  0  0  0  0  0  0  0  0
   11.5814  -16.9230   25.1364 C   0  0  0  0  0  0  0  0  0  0  0  0
   12.4742  -17.3144   25.9235 O   0  0  0  0  0  0  0  0  0  0  0  0
   11.9252  -16.0313   24.1266 O   0  0  0  0  0  0  0  0  0  0  0  0
  2  1  1  6
  2  3  1  0
  4  6  1  0
  4  2  1  0
  4  5  1  6
  6  7  2  0
  8  9  1  0
  8  6  1  0
  9 10  1  1
 11 16  2  0
 11 10  1  0
 12 11  1  0
 13 14  1  0
 13 12  2  0
 14 15  2  0
 15 16  1  0
 17  9  1  0
 18 17  2  0
 20 19  1  6
 20 21  1  0
 21 17  1  0
 22 20  1  0
 22 24  1  0
 23 22  2  0
M  END
$$$$
