VFA.pdb
     RDKit          3D

 24 24  0  0  1  0  0  0  0  0999 V2000
   10.2948  -18.9433   21.5805 C   0  0  0  0  0  0  0  0  0  0  0  0
    8.9685  -18.6081   20.9292 C   0  0  2  0  0  0  0  0  0  0  0  0
    8.7442  -19.5496   19.7959 C   0  0  0  0  0  0  0  0  0  0  0  0
    9.0274  -17.1590   20.5202 C   0  0  2  0  0  0  0  0  0  0  0  0
   10.1662  -17.0262   19.6141 N   0  0  0  0  0  0  0  0  0  0  0  0
    9.1508  -16.2460   21.6802 C   0  0  0  0  0  0  0  0  0  0  0  0
   10.3115  -15.8775   21.9942 O   0  0  0  0  0  0  0  0  0  0  0  0
    8.0608  -15.7714   22.4435 N   0  0  0  0  0  0  0  0  0  0  0  0
    8.1866  -14.9329   23.6036 C   0  0  1  0  0  0  0  0  0  0  0  0
    6.9654  -14.1177   23.8986 C   0  0  0  0  0  0  0  0  0  0  0  0
    7.0700  -13.2864   25.0985 C   0  0  0  0  0  0  0  0  0  0  0  0
    7.9640  -12.2722   25.2684 C   0  0  0  0  0  0  0  0  0  0  0  0
    8.0012  -11.5250   26.4427 C   0  0  0  0  0  0  0  0  0  0  0  0
    7.1261  -11.7898   27.4818 C   0  0  0  0  0  0  0  0  0  0  0  0
    6.2188  -12.8149   27.3163 C   0  0  0  0  0  0  0  0  0  0  0  0
    6.1959  -13.5455   26.1453 C   0  0  0  0  0  0  0  0  0  0  0  0
    8.5285  -15.7674   24.7829 C   0  0  0  0  0  0  0  0  0  0  0  0
    7.6495  -16.5726   25.2372 O   0  0  0  0  0  0  0  0  0  0  0  0
   11.6970  -16.9623   26.2487 C   0  0  0  0  0  0  0  0  0  0  0  0
   10.2078  -16.6652   26.4347 C   0  0  2  0  0  0  0  0  0  0  0  0
    9.7921  -15.7117   25.4316 N   0  0  0  0  0  0  0  0  0  0  0  0
   10.0697  -16.0460   27.7693 C   0  0  0  0  0  0  0  0  0  0  0  0
   10.3228  -16.7373   28.7833 O   0  0  0  0  0  0  0  0  0  0  0  0
    9.6698  -14.7259   27.9438 O   0  0  0  0  0  0  0  0  0  0  0  0
  2  1  1  6
  2  3  1  0
  4  6  1  0
  4  2  1  0
  4  5  1  6
  6  7  2  0
  8  9  1  0
  8  6  1  0
  9 10  1  1
 11 16  2  0
 11 10  1  0
 12 11  1  0
 13 14  1  0
 13 12  2  0
 14 15  2  0
 15 16  1  0
 17  9  1  0
 18 17  2  0
 20 19  1  6
 20 21  1  0
 21 17  1  0
 22 20  1  0
 22 24  1  0
 23 22  2  0
M  END
$$$$
