VFA.pdb
     RDKit          3D

 24 24  0  0  1  0  0  0  0  0999 V2000
    7.0134  -13.4546   18.9338 C   0  0  0  0  0  0  0  0  0  0  0  0
    7.4905  -13.3889   20.3703 C   0  0  2  0  0  0  0  0  0  0  0  0
    8.3548  -12.1852   20.5295 C   0  0  0  0  0  0  0  0  0  0  0  0
    8.1906  -14.6900   20.6665 C   0  0  2  0  0  0  0  0  0  0  0  0
    7.2320  -15.7553   20.3802 N   0  0  0  0  0  0  0  0  0  0  0  0
    8.6816  -14.7660   22.0621 C   0  0  0  0  0  0  0  0  0  0  0  0
    9.6090  -13.9796   22.3832 O   0  0  0  0  0  0  0  0  0  0  0  0
    8.1792  -15.6543   23.0391 N   0  0  0  0  0  0  0  0  0  0  0  0
    8.6046  -15.6759   24.4114 C   0  0  1  0  0  0  0  0  0  0  0  0
    7.4936  -15.4702   25.3945 C   0  0  0  0  0  0  0  0  0  0  0  0
    7.3144  -14.0817   25.8209 C   0  0  0  0  0  0  0  0  0  0  0  0
    8.3041  -13.2825   26.3090 C   0  0  0  0  0  0  0  0  0  0  0  0
    8.0536  -11.9682   26.6946 C   0  0  0  0  0  0  0  0  0  0  0  0
    6.7834  -11.4277   26.5940 C   0  0  0  0  0  0  0  0  0  0  0  0
    5.7772  -12.2314   26.1009 C   0  0  0  0  0  0  0  0  0  0  0  0
    6.0435  -13.5321   25.7233 C   0  0  0  0  0  0  0  0  0  0  0  0
    9.2937  -16.9596   24.6960 C   0  0  0  0  0  0  0  0  0  0  0  0
    8.6207  -18.0415   24.6332 O   0  0  0  0  0  0  0  0  0  0  0  0
   12.8483  -18.0969   24.9529 C   0  0  0  0  0  0  0  0  0  0  0  0
   11.3602  -18.2933   25.2489 C   0  0  2  0  0  0  0  0  0  0  0  0
   10.6716  -17.0407   25.0359 N   0  0  0  0  0  0  0  0  0  0  0  0
   11.2637  -18.6550   26.6784 C   0  0  0  0  0  0  0  0  0  0  0  0
   11.7776  -19.7307   27.0637 O   0  0  0  0  0  0  0  0  0  0  0  0
   10.6245  -17.8477   27.6128 O   0  0  0  0  0  0  0  0  0  0  0  0
  2  1  1  6
  2  3  1  0
  4  6  1  0
  4  2  1  0
  4  5  1  1
  6  7  2  0
  8  9  1  0
  8  6  1  0
  9 10  1  1
 11 16  2  0
 11 10  1  0
 12 11  1  0
 13 14  1  0
 13 12  2  0
 14 15  2  0
 15 16  1  0
 17  9  1  0
 18 17  2  0
 20 19  1  1
 20 21  1  0
 21 17  1  0
 22 20  1  0
 22 24  1  0
 23 22  2  0
M  END
$$$$
