VFA.pdb
     RDKit          3D

 24 24  0  0  1  0  0  0  0  0999 V2000
    8.7668  -15.9008   19.9118 C   0  0  0  0  0  0  0  0  0  0  0  0
    7.4237  -15.2474   20.1659 C   0  0  2  0  0  0  0  0  0  0  0  0
    6.7416  -15.0387   18.8573 C   0  0  0  0  0  0  0  0  0  0  0  0
    7.6851  -13.9758   20.9309 C   0  0  2  0  0  0  0  0  0  0  0  0
    8.4510  -13.1036   20.0431 N   0  0  0  0  0  0  0  0  0  0  0  0
    8.4040  -14.2163   22.2037 C   0  0  0  0  0  0  0  0  0  0  0  0
    9.5633  -13.7388   22.3021 O   0  0  0  0  0  0  0  0  0  0  0  0
    7.8747  -14.9381   23.2968 N   0  0  0  0  0  0  0  0  0  0  0  0
    8.4850  -15.0065   24.5958 C   0  0  1  0  0  0  0  0  0  0  0  0
    7.5124  -14.9001   25.7297 C   0  0  0  0  0  0  0  0  0  0  0  0
    7.1934  -13.5274   26.1243 C   0  0  0  0  0  0  0  0  0  0  0  0
    8.1124  -12.5442   26.3375 C   0  0  0  0  0  0  0  0  0  0  0  0
    7.7287  -11.2592   26.7120 C   0  0  0  0  0  0  0  0  0  0  0  0
    6.3934  -10.9368   26.8808 C   0  0  0  0  0  0  0  0  0  0  0  0
    5.4582  -11.9273   26.6666 C   0  0  0  0  0  0  0  0  0  0  0  0
    5.8564  -13.1959   26.2957 C   0  0  0  0  0  0  0  0  0  0  0  0
    9.2563  -16.2694   24.7145 C   0  0  0  0  0  0  0  0  0  0  0  0
    9.5679  -16.6880   25.8786 O   0  0  0  0  0  0  0  0  0  0  0  0
   10.5268  -18.9042   22.3132 C   0  0  0  0  0  0  0  0  0  0  0  0
   10.3894  -18.2818   23.7040 C   0  0  2  0  0  0  0  0  0  0  0  0
    9.6651  -17.0365   23.5898 N   0  0  0  0  0  0  0  0  0  0  0  0
   11.7621  -17.9955   24.1701 C   0  0  0  0  0  0  0  0  0  0  0  0
   12.1109  -16.8014   24.3196 O   0  0  0  0  0  0  0  0  0  0  0  0
   12.6821  -19.0000   24.4492 O   0  0  0  0  0  0  0  0  0  0  0  0
  2  1  1  6
  2  3  1  0
  4  6  1  0
  4  2  1  0
  4  5  1  6
  6  7  2  0
  8  9  1  0
  8  6  1  0
  9 10  1  1
 11 16  2  0
 11 10  1  0
 12 11  1  0
 13 14  1  0
 13 12  2  0
 14 15  2  0
 15 16  1  0
 17  9  1  0
 18 17  2  0
 20 19  1  6
 20 21  1  0
 21 17  1  0
 22 20  1  0
 22 24  1  0
 23 22  2  0
M  END
$$$$
