VFA.pdb
     RDKit          3D

 24 24  0  0  1  0  0  0  0  0999 V2000
   10.4866  -16.5114   19.5420 C   0  0  0  0  0  0  0  0  0  0  0  0
   11.3424  -17.4047   20.4167 C   0  0  2  0  0  0  0  0  0  0  0  0
   11.7682  -18.5872   19.6156 C   0  0  0  0  0  0  0  0  0  0  0  0
   10.5245  -17.7509   21.6340 C   0  0  2  0  0  0  0  0  0  0  0  0
    9.3526  -18.4818   21.1564 N   0  0  0  0  0  0  0  0  0  0  0  0
   10.1336  -16.5542   22.4147 C   0  0  0  0  0  0  0  0  0  0  0  0
   10.6131  -15.4517   22.0457 O   0  0  0  0  0  0  0  0  0  0  0  0
    9.2682  -16.5757   23.5313 N   0  0  0  0  0  0  0  0  0  0  0  0
    8.9019  -15.4159   24.2963 C   0  0  1  0  0  0  0  0  0  0  0  0
    7.4400  -15.0939   24.2481 C   0  0  0  0  0  0  0  0  0  0  0  0
    7.0641  -13.8836   24.9801 C   0  0  0  0  0  0  0  0  0  0  0  0
    6.3033  -13.8611   26.1102 C   0  0  0  0  0  0  0  0  0  0  0  0
    5.9879  -12.6656   26.7505 C   0  0  0  0  0  0  0  0  0  0  0  0
    6.4397  -11.4540   26.2569 C   0  0  0  0  0  0  0  0  0  0  0  0
    7.2102  -11.4699   25.1134 C   0  0  0  0  0  0  0  0  0  0  0  0
    7.5132  -12.6644   24.4916 C   0  0  0  0  0  0  0  0  0  0  0  0
    9.3283  -15.5980   25.7066 C   0  0  0  0  0  0  0  0  0  0  0  0
    8.8085  -16.5454   26.3846 O   0  0  0  0  0  0  0  0  0  0  0  0
    9.4518  -13.9438   28.4560 C   0  0  0  0  0  0  0  0  0  0  0  0
   10.5320  -14.7771   27.7637 C   0  0  2  0  0  0  0  0  0  0  0  0
   10.2909  -14.7648   26.3389 N   0  0  0  0  0  0  0  0  0  0  0  0
   10.3764  -16.1591   28.2631 C   0  0  0  0  0  0  0  0  0  0  0  0
    9.2414  -16.6887   28.2267 O   0  0  0  0  0  0  0  0  0  0  0  0
   11.4407  -16.8950   28.7721 O   0  0  0  0  0  0  0  0  0  0  0  0
  2  1  1  6
  2  3  1  0
  4  6  1  0
  4  2  1  0
  4  5  1  6
  6  7  2  0
  8  9  1  0
  8  6  1  0
  9 10  1  1
 11 16  2  0
 11 10  1  0
 12 11  1  0
 13 14  1  0
 13 12  2  0
 14 15  2  0
 15 16  1  0
 17  9  1  0
 18 17  2  0
 20 19  1  1
 20 21  1  0
 21 17  1  0
 22 20  1  0
 22 24  1  0
 23 22  2  0
M  END
$$$$
