VFA.pdb
     RDKit          3D

 24 24  0  0  1  0  0  0  0  0999 V2000
    7.4680  -13.7884   19.6465 C   0  0  0  0  0  0  0  0  0  0  0  0
    8.8070  -14.3318   19.1913 C   0  0  2  0  0  0  0  0  0  0  0  0
    8.6302  -14.9770   17.8596 C   0  0  0  0  0  0  0  0  0  0  0  0
    9.2959  -15.2678   20.2662 C   0  0  2  0  0  0  0  0  0  0  0  0
    8.4801  -16.4765   20.1710 N   0  0  0  0  0  0  0  0  0  0  0  0
    9.2185  -14.6691   21.6190 C   0  0  0  0  0  0  0  0  0  0  0  0
    9.9599  -13.6792   21.8471 O   0  0  0  0  0  0  0  0  0  0  0  0
    8.3755  -15.1353   22.6525 N   0  0  0  0  0  0  0  0  0  0  0  0
    8.2751  -14.5310   23.9523 C   0  0  1  0  0  0  0  0  0  0  0  0
    6.8688  -14.3813   24.4451 C   0  0  0  0  0  0  0  0  0  0  0  0
    6.7264  -13.5014   25.6058 C   0  0  0  0  0  0  0  0  0  0  0  0
    6.3946  -13.9147   26.8610 C   0  0  0  0  0  0  0  0  0  0  0  0
    6.2785  -13.0137   27.9162 C   0  0  0  0  0  0  0  0  0  0  0  0
    6.4976  -11.6608   27.7232 C   0  0  0  0  0  0  0  0  0  0  0  0
    6.8337  -11.2359   26.4551 C   0  0  0  0  0  0  0  0  0  0  0  0
    6.9445  -12.1430   25.4206 C   0  0  0  0  0  0  0  0  0  0  0  0
    9.0661  -15.3220   24.9284 C   0  0  0  0  0  0  0  0  0  0  0  0
    9.1542  -16.5839   24.7638 O   0  0  0  0  0  0  0  0  0  0  0  0
   11.1715  -14.5334   27.9759 C   0  0  0  0  0  0  0  0  0  0  0  0
   10.6192  -15.4792   26.9077 C   0  0  2  0  0  0  0  0  0  0  0  0
    9.7319  -14.7383   26.0405 N   0  0  0  0  0  0  0  0  0  0  0  0
    9.8378  -16.5078   27.6254 C   0  0  0  0  0  0  0  0  0  0  0  0
   10.4439  -17.3190   28.3633 O   0  0  0  0  0  0  0  0  0  0  0  0
    8.4557  -16.6105   27.5136 O   0  0  0  0  0  0  0  0  0  0  0  0
  2  1  1  1
  2  3  1  0
  4  6  1  0
  4  2  1  0
  4  5  1  1
  6  7  2  0
  8  9  1  0
  8  6  1  0
  9 10  1  1
 11 16  2  0
 11 10  1  0
 12 11  1  0
 13 14  1  0
 13 12  2  0
 14 15  2  0
 15 16  1  0
 17  9  1  0
 18 17  2  0
 20 19  1  1
 20 21  1  0
 21 17  1  0
 22 20  1  0
 22 24  1  0
 23 22  2  0
M  END
$$$$
