VFA.pdb
     RDKit          3D

 24 24  0  0  1  0  0  0  0  0999 V2000
   11.4506  -18.8103   21.8892 C   0  0  0  0  0  0  0  0  0  0  0  0
   10.0418  -18.8733   21.3351 C   0  0  2  0  0  0  0  0  0  0  0  0
    9.9783  -19.9638   20.3211 C   0  0  0  0  0  0  0  0  0  0  0  0
    9.7174  -17.5074   20.7878 C   0  0  2  0  0  0  0  0  0  0  0  0
   10.7403  -17.2031   19.7895 N   0  0  0  0  0  0  0  0  0  0  0  0
    9.6677  -16.4696   21.8438 C   0  0  0  0  0  0  0  0  0  0  0  0
   10.7299  -15.8352   22.0694 O   0  0  0  0  0  0  0  0  0  0  0  0
    8.5176  -16.1540   22.6011 N   0  0  0  0  0  0  0  0  0  0  0  0
    8.4916  -15.2056   23.6802 C   0  0  1  0  0  0  0  0  0  0  0  0
    7.1701  -14.5234   23.8570 C   0  0  0  0  0  0  0  0  0  0  0  0
    7.1136  -13.6022   24.9929 C   0  0  0  0  0  0  0  0  0  0  0  0
    6.4492  -13.8417   26.1581 C   0  0  0  0  0  0  0  0  0  0  0  0
    6.4426  -12.9128   27.1954 C   0  0  0  0  0  0  0  0  0  0  0  0
    7.1147  -11.7089   27.0758 C   0  0  0  0  0  0  0  0  0  0  0  0
    7.7892  -11.4603   25.8989 C   0  0  0  0  0  0  0  0  0  0  0  0
    7.7851  -12.3925   24.8809 C   0  0  0  0  0  0  0  0  0  0  0  0
    8.8789  -15.8822   24.9435 C   0  0  0  0  0  0  0  0  0  0  0  0
    8.1517  -16.8386   25.3723 O   0  0  0  0  0  0  0  0  0  0  0  0
   12.0813  -16.2100   26.7709 C   0  0  0  0  0  0  0  0  0  0  0  0
   10.5555  -16.3229   26.7737 C   0  0  2  0  0  0  0  0  0  0  0  0
   10.0246  -15.5141   25.7002 N   0  0  0  0  0  0  0  0  0  0  0  0
   10.0986  -15.7652   28.0636 C   0  0  0  0  0  0  0  0  0  0  0  0
   10.4447  -16.3368   29.1235 O   0  0  0  0  0  0  0  0  0  0  0  0
    9.2994  -14.6305   28.1469 O   0  0  0  0  0  0  0  0  0  0  0  0
  2  1  1  6
  2  3  1  0
  4  6  1  0
  4  2  1  0
  4  5  1  6
  6  7  2  0
  8  9  1  0
  8  6  1  0
  9 10  1  1
 11 16  2  0
 11 10  1  0
 12 11  1  0
 13 14  1  0
 13 12  2  0
 14 15  2  0
 15 16  1  0
 17  9  1  0
 18 17  2  0
 20 19  1  1
 20 21  1  0
 21 17  1  0
 22 20  1  0
 22 24  1  0
 23 22  2  0
M  END
$$$$
