VFA.pdb
     RDKit          3D

 24 24  0  0  1  0  0  0  0  0999 V2000
    9.6245  -18.0100   18.4883 C   0  0  0  0  0  0  0  0  0  0  0  0
    9.6503  -16.8228   19.4294 C   0  0  2  0  0  0  0  0  0  0  0  0
   10.8446  -15.9901   19.1112 C   0  0  0  0  0  0  0  0  0  0  0  0
    9.6396  -17.3683   20.8340 C   0  0  2  0  0  0  0  0  0  0  0  0
    8.4814  -18.2543   20.9297 N   0  0  0  0  0  0  0  0  0  0  0  0
    9.5878  -16.2991   21.8581 C   0  0  0  0  0  0  0  0  0  0  0  0
   10.6510  -15.6618   22.0705 O   0  0  0  0  0  0  0  0  0  0  0  0
    8.4346  -15.9570   22.5991 N   0  0  0  0  0  0  0  0  0  0  0  0
    8.4003  -14.9583   23.6316 C   0  0  1  0  0  0  0  0  0  0  0  0
    7.0452  -14.3603   23.8528 C   0  0  0  0  0  0  0  0  0  0  0  0
    7.0118  -13.2957   24.8564 C   0  0  0  0  0  0  0  0  0  0  0  0
    7.6687  -12.1064   24.7531 C   0  0  0  0  0  0  0  0  0  0  0  0
    7.5869  -11.1414   25.7535 C   0  0  0  0  0  0  0  0  0  0  0  0
    6.8313  -11.3601   26.8922 C   0  0  0  0  0  0  0  0  0  0  0  0
    6.1640  -12.5618   27.0030 C   0  0  0  0  0  0  0  0  0  0  0  0
    6.2562  -13.5072   26.0015 C   0  0  0  0  0  0  0  0  0  0  0  0
    8.9037  -15.5409   24.9009 C   0  0  0  0  0  0  0  0  0  0  0  0
    9.0492  -14.7741   25.9099 O   0  0  0  0  0  0  0  0  0  0  0  0
    9.1770  -18.9563   26.3480 C   0  0  0  0  0  0  0  0  0  0  0  0
    9.6477  -17.5014   26.3001 C   0  0  2  0  0  0  0  0  0  0  0  0
    9.2322  -16.9164   25.0457 N   0  0  0  0  0  0  0  0  0  0  0  0
   11.1243  -17.5393   26.3442 C   0  0  0  0  0  0  0  0  0  0  0  0
   11.7255  -18.4019   25.6628 O   0  0  0  0  0  0  0  0  0  0  0  0
   11.8726  -16.6546   27.1127 O   0  0  0  0  0  0  0  0  0  0  0  0
  2  1  1  6
  2  3  1  0
  4  6  1  0
  4  2  1  0
  4  5  1  6
  6  7  2  0
  8  9  1  0
  8  6  1  0
  9 10  1  1
 11 16  2  0
 11 10  1  0
 12 11  1  0
 13 14  1  0
 13 12  2  0
 14 15  2  0
 15 16  1  0
 17  9  1  0
 18 17  2  0
 20 19  1  6
 20 21  1  0
 21 17  1  0
 22 20  1  0
 22 24  1  0
 23 22  2  0
M  END
$$$$
