VFA.pdb
     RDKit          3D

 24 24  0  0  1  0  0  0  0  0999 V2000
    8.9975  -15.4340   19.5062 C   0  0  0  0  0  0  0  0  0  0  0  0
    7.5672  -14.9733   19.6998 C   0  0  2  0  0  0  0  0  0  0  0  0
    6.9686  -14.7064   18.3613 C   0  0  0  0  0  0  0  0  0  0  0  0
    7.6063  -13.7695   20.6052 C   0  0  2  0  0  0  0  0  0  0  0  0
    8.3560  -12.7359   19.8946 N   0  0  0  0  0  0  0  0  0  0  0  0
    8.2147  -14.0690   21.9223 C   0  0  0  0  0  0  0  0  0  0  0  0
    9.3726  -13.6238   22.1293 O   0  0  0  0  0  0  0  0  0  0  0  0
    7.5833  -14.8126   22.9442 N   0  0  0  0  0  0  0  0  0  0  0  0
    8.1580  -15.0662   24.2365 C   0  0  1  0  0  0  0  0  0  0  0  0
    7.1698  -15.0154   25.3607 C   0  0  0  0  0  0  0  0  0  0  0  0
    6.9921  -13.6870   25.9485 C   0  0  0  0  0  0  0  0  0  0  0  0
    5.7930  -13.0599   26.1090 C   0  0  0  0  0  0  0  0  0  0  0  0
    5.7060  -11.7924   26.6786 C   0  0  0  0  0  0  0  0  0  0  0  0
    6.8414  -11.1241   27.1027 C   0  0  0  0  0  0  0  0  0  0  0  0
    8.0581  -11.7532   26.9431 C   0  0  0  0  0  0  0  0  0  0  0  0
    8.1259  -13.0100   26.3764 C   0  0  0  0  0  0  0  0  0  0  0  0
    8.8371  -16.3863   24.2260 C   0  0  0  0  0  0  0  0  0  0  0  0
    8.1215  -17.4413   24.1767 O   0  0  0  0  0  0  0  0  0  0  0  0
   12.3284  -17.6439   23.7167 C   0  0  0  0  0  0  0  0  0  0  0  0
   10.9133  -17.8152   24.2722 C   0  0  2  0  0  0  0  0  0  0  0  0
   10.2505  -16.5311   24.2683 N   0  0  0  0  0  0  0  0  0  0  0  0
   11.0663  -18.2701   25.6698 C   0  0  0  0  0  0  0  0  0  0  0  0
   11.6930  -19.3319   25.8927 O   0  0  0  0  0  0  0  0  0  0  0  0
   10.5417  -17.5654   26.7475 O   0  0  0  0  0  0  0  0  0  0  0  0
  2  1  1  6
  2  3  1  0
  4  6  1  0
  4  2  1  0
  4  5  1  6
  6  7  2  0
  8  9  1  0
  8  6  1  0
  9 10  1  1
 11 16  2  0
 11 10  1  0
 12 11  1  0
 13 14  1  0
 13 12  2  0
 14 15  2  0
 15 16  1  0
 17  9  1  0
 18 17  2  0
 20 19  1  1
 20 21  1  0
 21 17  1  0
 22 20  1  0
 22 24  1  0
 23 22  2  0
M  END
$$$$
