VFA.pdb
     RDKit          3D

 24 24  0  0  1  0  0  0  0  0999 V2000
   10.0638  -18.8636   20.7632 C   0  0  0  0  0  0  0  0  0  0  0  0
    8.9121  -18.1931   20.0425 C   0  0  2  0  0  0  0  0  0  0  0  0
    8.7011  -18.8833   18.7385 C   0  0  0  0  0  0  0  0  0  0  0  0
    9.2576  -16.7321   19.9141 C   0  0  2  0  0  0  0  0  0  0  0  0
   10.5330  -16.6648   19.2040 N   0  0  0  0  0  0  0  0  0  0  0  0
    9.3334  -16.0490   21.2265 C   0  0  0  0  0  0  0  0  0  0  0  0
   10.4556  -16.0285   21.7940 O   0  0  0  0  0  0  0  0  0  0  0  0
    8.2389  -15.4288   21.8694 N   0  0  0  0  0  0  0  0  0  0  0  0
    8.3075  -14.7937   23.1565 C   0  0  1  0  0  0  0  0  0  0  0  0
    7.1241  -13.9315   23.4716 C   0  0  0  0  0  0  0  0  0  0  0  0
    7.1494  -13.3373   24.8088 C   0  0  0  0  0  0  0  0  0  0  0  0
    8.0331  -12.3862   25.2224 C   0  0  0  0  0  0  0  0  0  0  0  0
    7.9926  -11.8689   26.5145 C   0  0  0  0  0  0  0  0  0  0  0  0
    7.0476  -12.3065   27.4261 C   0  0  0  0  0  0  0  0  0  0  0  0
    6.1502  -13.2689   27.0139 C   0  0  0  0  0  0  0  0  0  0  0  0
    6.2049  -13.7707   25.7292 C   0  0  0  0  0  0  0  0  0  0  0  0
    8.4693  -15.8267   24.2103 C   0  0  0  0  0  0  0  0  0  0  0  0
    7.4931  -16.6118   24.4514 O   0  0  0  0  0  0  0  0  0  0  0  0
   11.2759  -17.6746   25.5968 C   0  0  0  0  0  0  0  0  0  0  0  0
    9.8885  -17.0894   25.8674 C   0  0  2  0  0  0  0  0  0  0  0  0
    9.6634  -15.9830   24.9655 N   0  0  0  0  0  0  0  0  0  0  0  0
    9.9146  -16.5786   27.2537 C   0  0  0  0  0  0  0  0  0  0  0  0
   10.0818  -17.3915   28.1924 O   0  0  0  0  0  0  0  0  0  0  0  0
    9.7609  -15.2304   27.5573 O   0  0  0  0  0  0  0  0  0  0  0  0
  2  1  1  6
  2  3  1  0
  4  6  1  0
  4  2  1  0
  4  5  1  1
  6  7  2  0
  8  9  1  0
  8  6  1  0
  9 10  1  1
 11 16  2  0
 11 10  1  0
 12 11  1  0
 13 14  1  0
 13 12  2  0
 14 15  2  0
 15 16  1  0
 17  9  1  0
 18 17  2  0
 20 19  1  6
 20 21  1  0
 21 17  1  0
 22 20  1  0
 22 24  1  0
 23 22  2  0
M  END
$$$$
