VFA.pdb
     RDKit          3D

 24 24  0  0  1  0  0  0  0  0999 V2000
    7.3085  -12.6846   20.9100 C   0  0  0  0  0  0  0  0  0  0  0  0
    8.3287  -13.3183   19.9861 C   0  0  2  0  0  0  0  0  0  0  0  0
    7.8216  -13.2317   18.5874 C   0  0  0  0  0  0  0  0  0  0  0  0
    8.5533  -14.7272   20.4709 C   0  0  2  0  0  0  0  0  0  0  0  0
    7.3261  -15.4680   20.1866 N   0  0  0  0  0  0  0  0  0  0  0  0
    8.8974  -14.7844   21.9107 C   0  0  0  0  0  0  0  0  0  0  0  0
    9.9789  -14.2457   22.2597 O   0  0  0  0  0  0  0  0  0  0  0  0
    8.0970  -15.3977   22.9003 N   0  0  0  0  0  0  0  0  0  0  0  0
    8.4539  -15.4921   24.2889 C   0  0  1  0  0  0  0  0  0  0  0  0
    7.2946  -15.3421   25.2251 C   0  0  0  0  0  0  0  0  0  0  0  0
    7.1002  -13.9831   25.7322 C   0  0  0  0  0  0  0  0  0  0  0  0
    8.1009  -13.1527   26.1391 C   0  0  0  0  0  0  0  0  0  0  0  0
    7.8345  -11.8699   26.6106 C   0  0  0  0  0  0  0  0  0  0  0  0
    6.5369  -11.3938   26.6817 C   0  0  0  0  0  0  0  0  0  0  0  0
    5.5195  -12.2294   26.2714 C   0  0  0  0  0  0  0  0  0  0  0  0
    5.8017  -13.4981   25.8067 C   0  0  0  0  0  0  0  0  0  0  0  0
    9.1346  -16.7876   24.5382 C   0  0  0  0  0  0  0  0  0  0  0  0
    8.4212  -17.8362   24.6761 O   0  0  0  0  0  0  0  0  0  0  0  0
   12.6352  -18.0700   24.2202 C   0  0  0  0  0  0  0  0  0  0  0  0
   11.2170  -18.1872   24.7821 C   0  0  2  0  0  0  0  0  0  0  0  0
   10.5473  -16.9156   24.6308 N   0  0  0  0  0  0  0  0  0  0  0  0
   11.3624  -18.4827   26.2226 C   0  0  0  0  0  0  0  0  0  0  0  0
   11.9083  -19.5573   26.5651 O   0  0  0  0  0  0  0  0  0  0  0  0
   10.9170  -17.6145   27.2131 O   0  0  0  0  0  0  0  0  0  0  0  0
  2  1  1  1
  2  3  1  0
  4  6  1  0
  4  2  1  0
  4  5  1  1
  6  7  2  0
  8  9  1  0
  8  6  1  0
  9 10  1  1
 11 16  2  0
 11 10  1  0
 12 11  1  0
 13 14  1  0
 13 12  2  0
 14 15  2  0
 15 16  1  0
 17  9  1  0
 18 17  2  0
 20 19  1  1
 20 21  1  0
 21 17  1  0
 22 20  1  0
 22 24  1  0
 23 22  2  0
M  END
$$$$
