VFA.pdb
     RDKit          3D

 24 24  0  0  1  0  0  0  0  0999 V2000
    7.4126  -14.6004   18.2260 C   0  0  0  0  0  0  0  0  0  0  0  0
    8.1332  -14.9273   19.5181 C   0  0  2  0  0  0  0  0  0  0  0  0
    7.8431  -16.3439   19.8789 C   0  0  0  0  0  0  0  0  0  0  0  0
    7.6766  -13.9263   20.5477 C   0  0  2  0  0  0  0  0  0  0  0  0
    8.0298  -12.6053   20.0321 N   0  0  0  0  0  0  0  0  0  0  0  0
    8.2802  -14.1655   21.8792 C   0  0  0  0  0  0  0  0  0  0  0  0
    9.4560  -13.7546   22.0537 O   0  0  0  0  0  0  0  0  0  0  0  0
    7.6256  -14.8169   22.9484 N   0  0  0  0  0  0  0  0  0  0  0  0
    8.2196  -15.0652   24.2330 C   0  0  1  0  0  0  0  0  0  0  0  0
    7.2486  -15.0089   25.3718 C   0  0  0  0  0  0  0  0  0  0  0  0
    7.0348  -13.6676   25.9169 C   0  0  0  0  0  0  0  0  0  0  0  0
    5.8188  -13.0702   26.0621 C   0  0  0  0  0  0  0  0  0  0  0  0
    5.6974  -11.7877   26.5907 C   0  0  0  0  0  0  0  0  0  0  0  0
    6.8146  -11.0739   26.9881 C   0  0  0  0  0  0  0  0  0  0  0  0
    8.0483  -11.6729   26.8438 C   0  0  0  0  0  0  0  0  0  0  0  0
    8.1502  -12.9450   26.3178 C   0  0  0  0  0  0  0  0  0  0  0  0
    8.8978  -16.3857   24.2180 C   0  0  0  0  0  0  0  0  0  0  0  0
    8.2110  -17.4222   23.9331 O   0  0  0  0  0  0  0  0  0  0  0  0
   12.3895  -17.5840   23.9219 C   0  0  0  0  0  0  0  0  0  0  0  0
   10.9603  -17.8219   24.4133 C   0  0  2  0  0  0  0  0  0  0  0  0
   10.2799  -16.5504   24.5067 N   0  0  0  0  0  0  0  0  0  0  0  0
   11.0762  -18.4027   25.7671 C   0  0  0  0  0  0  0  0  0  0  0  0
   10.6346  -17.7513   26.7421 O   0  0  0  0  0  0  0  0  0  0  0  0
   11.6565  -19.6443   26.0013 O   0  0  0  0  0  0  0  0  0  0  0  0
  2  1  1  6
  2  3  1  0
  4  6  1  0
  4  2  1  0
  4  5  1  6
  6  7  2  0
  8  9  1  0
  8  6  1  0
  9 10  1  1
 11 16  2  0
 11 10  1  0
 12 11  1  0
 13 14  1  0
 13 12  2  0
 14 15  2  0
 15 16  1  0
 17  9  1  0
 18 17  2  0
 20 19  1  1
 20 21  1  0
 21 17  1  0
 22 20  1  0
 22 24  1  0
 23 22  2  0
M  END
$$$$
