SEP.pdb
     RDKit          3D

 23 23  0  0  1  0  0  0  0  0999 V2000
    7.6856  -17.0853   19.6491 O   0  0  0  0  0  0  0  0  0  0  0  0
    8.2520  -15.8704   19.2673 C   0  0  0  0  0  0  0  0  0  0  0  0
    9.1155  -15.3843   20.4089 C   0  0  2  0  0  0  0  0  0  0  0  0
   10.1831  -16.3132   20.7102 N   0  0  0  0  0  0  0  0  0  0  0  0
    8.2682  -15.1949   21.6260 C   0  0  0  0  0  0  0  0  0  0  0  0
    7.2964  -14.4289   21.5965 O   0  0  0  0  0  0  0  0  0  0  0  0
    8.5453  -15.8767   22.8390 N   0  0  0  0  0  0  0  0  0  0  0  0
    7.7664  -15.7093   23.9916 C   0  0  1  0  0  0  0  0  0  0  0  0
    7.2837  -16.9859   24.6427 C   0  0  0  0  0  0  0  0  0  0  0  0
    6.6592  -17.8886   23.5831 C   0  0  0  0  0  0  0  0  0  0  0  0
    6.3079  -19.2146   24.1524 C   0  0  0  0  0  0  0  0  0  0  0  0
    7.1504  -19.9251   24.7687 O   0  0  0  0  0  0  0  0  0  0  0  0
    8.3089  -14.8006   25.0222 C   0  0  0  0  0  0  0  0  0  0  0  0
    9.5169  -15.0860   25.3706 O   0  0  0  0  0  0  0  0  0  0  0  0
    5.0049  -19.6651   23.9881 O   0  0  0  0  0  0  0  0  0  0  0  0
    7.6880  -13.7090   25.6421 N   0  0  0  0  0  0  0  0  0  0  0  0
    6.5682  -12.9639   25.0690 C   0  0  0  0  0  0  0  0  0  0  0  0
    6.0999  -11.9854   26.1326 C   0  0  0  0  0  0  0  0  0  0  0  0
    6.6776  -12.5440   27.3791 C   0  0  0  0  0  0  0  0  0  0  0  0
    8.0329  -13.0913   26.8745 C   0  0  1  0  0  0  0  0  0  0  0  0
    8.5057  -13.9497   27.9581 C   0  0  0  0  0  0  0  0  0  0  0  0
    9.2136  -13.3565   28.9927 O   0  0  0  0  0  0  0  0  0  0  0  0
    8.3136  -15.1737   28.0114 O   0  0  0  0  0  0  0  0  0  0  0  0
  1  2  1  0
  3  5  1  0
  3  2  1  0
  3  4  1  1
  5  6  2  0
  7  8  1  0
  7  5  1  0
  8 13  1  0
  8  9  1  1
 10 11  1  0
 10  9  1  0
 11 12  2  0
 13 14  2  0
 13 16  1  0
 15 11  1  0
 16 20  1  0
 16 17  1  0
 17 18  1  0
 19 18  1  0
 20 19  1  0
 20 21  1  1
 22 21  1  0
 23 21  2  0
M  END
$$$$
