SEP.pdb
     RDKit          3D

 23 23  0  0  1  0  0  0  0  0999 V2000
   10.8969  -12.6158   19.4550 O   0  0  0  0  0  0  0  0  0  0  0  0
   10.3696  -13.7506   20.0689 C   0  0  0  0  0  0  0  0  0  0  0  0
    8.8654  -13.6943   19.9298 C   0  0  2  0  0  0  0  0  0  0  0  0
    8.4193  -12.4170   19.4171 N   0  0  0  0  0  0  0  0  0  0  0  0
    8.2345  -13.9384   21.2630 C   0  0  0  0  0  0  0  0  0  0  0  0
    7.6093  -13.0344   21.8321 O   0  0  0  0  0  0  0  0  0  0  0  0
    8.3297  -15.1964   21.9122 N   0  0  0  0  0  0  0  0  0  0  0  0
    7.6658  -15.4756   23.1140 C   0  0  1  0  0  0  0  0  0  0  0  0
    7.2914  -16.9247   23.3300 C   0  0  0  0  0  0  0  0  0  0  0  0
    6.5111  -17.0558   24.6344 C   0  0  0  0  0  0  0  0  0  0  0  0
    6.1954  -18.4773   24.9261 C   0  0  0  0  0  0  0  0  0  0  0  0
    6.8530  -19.1522   25.7667 O   0  0  0  0  0  0  0  0  0  0  0  0
    8.2802  -14.9330   24.3429 C   0  0  0  0  0  0  0  0  0  0  0  0
    9.3906  -15.5084   24.6562 O   0  0  0  0  0  0  0  0  0  0  0  0
    5.1389  -19.0601   24.2391 O   0  0  0  0  0  0  0  0  0  0  0  0
    7.8149  -13.9079   25.1759 N   0  0  0  0  0  0  0  0  0  0  0  0
    6.7736  -12.9519   24.8022 C   0  0  0  0  0  0  0  0  0  0  0  0
    6.4609  -12.1338   26.0436 C   0  0  0  0  0  0  0  0  0  0  0  0
    7.0087  -12.9677   27.1409 C   0  0  0  0  0  0  0  0  0  0  0  0
    8.2715  -13.5634   26.4767 C   0  0  1  0  0  0  0  0  0  0  0  0
    8.6741  -14.6494   27.3673 C   0  0  0  0  0  0  0  0  0  0  0  0
    9.3754  -14.3183   28.5170 O   0  0  0  0  0  0  0  0  0  0  0  0
    8.4279  -15.8471   27.1606 O   0  0  0  0  0  0  0  0  0  0  0  0
  1  2  1  0
  3  5  1  0
  3  2  1  0
  3  4  1  1
  5  6  2  0
  7  8  1  0
  7  5  1  0
  8 13  1  0
  8  9  1  1
 10 11  1  0
 10  9  1  0
 11 12  2  0
 13 14  2  0
 13 16  1  0
 15 11  1  0
 16 20  1  0
 16 17  1  0
 17 18  1  0
 19 18  1  0
 20 19  1  0
 20 21  1  1
 22 21  1  0
 23 21  2  0
M  END
$$$$
