SEP.pdb
     RDKit          3D

 23 23  0  0  1  0  0  0  0  0999 V2000
   11.0848  -15.6265   19.8097 O   0  0  0  0  0  0  0  0  0  0  0  0
   10.0789  -14.9304   20.4775 C   0  0  0  0  0  0  0  0  0  0  0  0
    8.7845  -15.6858   20.2796 C   0  0  2  0  0  0  0  0  0  0  0  0
    8.1789  -15.3902   18.9993 N   0  0  0  0  0  0  0  0  0  0  0  0
    7.8289  -15.3272   21.3720 C   0  0  0  0  0  0  0  0  0  0  0  0
    6.6085  -15.3563   21.1677 O   0  0  0  0  0  0  0  0  0  0  0  0
    8.2819  -14.9466   22.6616 N   0  0  0  0  0  0  0  0  0  0  0  0
    7.6385  -15.3564   23.8368 C   0  0  1  0  0  0  0  0  0  0  0  0
    7.4639  -16.8498   23.9972 C   0  0  0  0  0  0  0  0  0  0  0  0
    6.7224  -17.1348   25.2997 C   0  0  0  0  0  0  0  0  0  0  0  0
    6.6730  -18.5930   25.5768 C   0  0  0  0  0  0  0  0  0  0  0  0
    6.0555  -19.3986   24.8257 O   0  0  0  0  0  0  0  0  0  0  0  0
    8.1466  -14.7777   25.0975 C   0  0  0  0  0  0  0  0  0  0  0  0
    9.1377  -15.4331   25.5978 O   0  0  0  0  0  0  0  0  0  0  0  0
    7.3349  -19.0606   26.7043 O   0  0  0  0  0  0  0  0  0  0  0  0
    7.6941  -13.6457   25.7867 N   0  0  0  0  0  0  0  0  0  0  0  0
    6.7053  -12.7039   25.2640 C   0  0  0  0  0  0  0  0  0  0  0  0
    6.3828  -11.7346   26.3885 C   0  0  0  0  0  0  0  0  0  0  0  0
    6.8588  -12.4523   27.5960 C   0  0  0  0  0  0  0  0  0  0  0  0
    8.1190  -13.1667   27.0553 C   0  0  1  0  0  0  0  0  0  0  0  0
    8.4471  -14.1538   28.0812 C   0  0  0  0  0  0  0  0  0  0  0  0
    9.1816  -13.7286   29.1781 O   0  0  0  0  0  0  0  0  0  0  0  0
    8.1100  -15.3463   28.0335 O   0  0  0  0  0  0  0  0  0  0  0  0
  1  2  1  0
  3  5  1  0
  3  2  1  0
  3  4  1  6
  5  6  2  0
  7  8  1  0
  7  5  1  0
  8 13  1  0
  8  9  1  1
 10 11  1  0
 10  9  1  0
 11 12  2  0
 13 14  2  0
 13 16  1  0
 15 11  1  0
 16 20  1  0
 16 17  1  0
 17 18  1  0
 19 18  1  0
 20 19  1  0
 20 21  1  1
 22 21  1  0
 23 21  2  0
M  END
$$$$
