SEP.pdb
     RDKit          3D

 23 23  0  0  1  0  0  0  0  0999 V2000
    9.7024  -12.1364   18.9755 O   0  0  0  0  0  0  0  0  0  0  0  0
    8.8282  -12.3377   20.0421 C   0  0  0  0  0  0  0  0  0  0  0  0
    8.2697  -13.7375   19.9238 C   0  0  2  0  0  0  0  0  0  0  0  0
    7.2251  -13.8181   18.9260 N   0  0  0  0  0  0  0  0  0  0  0  0
    7.7221  -14.1664   21.2471 C   0  0  0  0  0  0  0  0  0  0  0  0
    6.5417  -13.9345   21.5386 O   0  0  0  0  0  0  0  0  0  0  0  0
    8.5251  -14.8442   22.2005 N   0  0  0  0  0  0  0  0  0  0  0  0
    8.0076  -15.3403   23.4042 C   0  0  1  0  0  0  0  0  0  0  0  0
    8.0885  -16.8401   23.5791 C   0  0  0  0  0  0  0  0  0  0  0  0
    7.5871  -17.5244   22.3111 C   0  0  0  0  0  0  0  0  0  0  0  0
    8.2786  -18.8209   22.0960 C   0  0  0  0  0  0  0  0  0  0  0  0
    8.1049  -19.8096   22.8620 O   0  0  0  0  0  0  0  0  0  0  0  0
    8.4653  -14.6710   24.6390 C   0  0  0  0  0  0  0  0  0  0  0  0
    9.6394  -15.0453   25.0182 O   0  0  0  0  0  0  0  0  0  0  0  0
    9.1388  -18.9238   21.0109 O   0  0  0  0  0  0  0  0  0  0  0  0
    7.7985  -13.7161   25.4166 N   0  0  0  0  0  0  0  0  0  0  0  0
    6.6316  -12.9579   24.9680 C   0  0  0  0  0  0  0  0  0  0  0  0
    6.1304  -12.1706   26.1667 C   0  0  0  0  0  0  0  0  0  0  0  0
    6.7573  -12.8715   27.3135 C   0  0  0  0  0  0  0  0  0  0  0  0
    8.1309  -13.2654   26.7227 C   0  0  1  0  0  0  0  0  0  0  0  0
    8.6662  -14.2446   27.6656 C   0  0  0  0  0  0  0  0  0  0  0  0
    9.3048  -13.7688   28.8010 O   0  0  0  0  0  0  0  0  0  0  0  0
    8.5849  -15.4729   27.5154 O   0  0  0  0  0  0  0  0  0  0  0  0
  1  2  1  0
  3  5  1  0
  3  2  1  0
  3  4  1  6
  5  6  2  0
  7  8  1  0
  7  5  1  0
  8 13  1  0
  8  9  1  1
 10 11  1  0
 10  9  1  0
 11 12  2  0
 13 14  2  0
 13 16  1  0
 15 11  1  0
 16 20  1  0
 16 17  1  0
 17 18  1  0
 19 18  1  0
 20 19  1  0
 20 21  1  1
 22 21  1  0
 23 21  2  0
M  END
$$$$
