SEP.pdb
     RDKit          3D

 23 23  0  0  1  0  0  0  0  0999 V2000
   10.3183  -15.1874   19.9579 O   0  0  0  0  0  0  0  0  0  0  0  0
    9.6380  -15.9513   20.9046 C   0  0  0  0  0  0  0  0  0  0  0  0
    8.2096  -16.1052   20.4342 C   0  0  2  0  0  0  0  0  0  0  0  0
    7.9331  -15.2850   19.2748 N   0  0  0  0  0  0  0  0  0  0  0  0
    7.2792  -15.7248   21.5409 C   0  0  0  0  0  0  0  0  0  0  0  0
    6.0736  -15.9935   21.4623 O   0  0  0  0  0  0  0  0  0  0  0  0
    7.7399  -15.0525   22.7023 N   0  0  0  0  0  0  0  0  0  0  0  0
    7.3805  -15.4524   23.9961 C   0  0  1  0  0  0  0  0  0  0  0  0
    7.4542  -16.9390   24.2625 C   0  0  0  0  0  0  0  0  0  0  0  0
    6.9494  -17.2250   25.6736 C   0  0  0  0  0  0  0  0  0  0  0  0
    7.0422  -18.6731   25.9896 C   0  0  0  0  0  0  0  0  0  0  0  0
    6.3722  -19.5411   25.3633 O   0  0  0  0  0  0  0  0  0  0  0  0
    8.0149  -14.7164   25.1088 C   0  0  0  0  0  0  0  0  0  0  0  0
    9.1748  -15.1778   25.4313 O   0  0  0  0  0  0  0  0  0  0  0  0
    7.8999  -19.0594   27.0108 O   0  0  0  0  0  0  0  0  0  0  0  0
    7.5221  -13.6202   25.8276 N   0  0  0  0  0  0  0  0  0  0  0  0
    6.3077  -12.8848   25.4781 C   0  0  0  0  0  0  0  0  0  0  0  0
    6.0523  -11.8963   26.6031 C   0  0  0  0  0  0  0  0  0  0  0  0
    6.8663  -12.4396   27.7174 C   0  0  0  0  0  0  0  0  0  0  0  0
    8.0990  -12.9880   26.9621 C   0  0  1  0  0  0  0  0  0  0  0  0
    8.7797  -13.8331   27.9403 C   0  0  0  0  0  0  0  0  0  0  0  0
    9.6777  -13.2274   28.8064 O   0  0  0  0  0  0  0  0  0  0  0  0
    8.6050  -15.0563   28.0454 O   0  0  0  0  0  0  0  0  0  0  0  0
  1  2  1  0
  3  5  1  0
  3  2  1  0
  3  4  1  6
  5  6  2  0
  7  8  1  0
  7  5  1  0
  8 13  1  0
  8  9  1  1
 10 11  1  0
 10  9  1  0
 11 12  2  0
 13 14  2  0
 13 16  1  0
 15 11  1  0
 16 20  1  0
 16 17  1  0
 17 18  1  0
 19 18  1  0
 20 19  1  0
 20 21  1  1
 22 21  1  0
 23 21  2  0
M  END
$$$$
