SEP.pdb
     RDKit          3D

 23 23  0  0  1  0  0  0  0  0999 V2000
   10.2253  -12.9445   19.1604 O   0  0  0  0  0  0  0  0  0  0  0  0
    9.4132  -12.8490   20.2891 C   0  0  0  0  0  0  0  0  0  0  0  0
    8.2365  -13.7771   20.0914 C   0  0  2  0  0  0  0  0  0  0  0  0
    7.2345  -13.1988   19.2224 N   0  0  0  0  0  0  0  0  0  0  0  0
    7.6201  -14.0859   21.4180 C   0  0  0  0  0  0  0  0  0  0  0  0
    6.6720  -13.4100   21.8379 O   0  0  0  0  0  0  0  0  0  0  0  0
    8.0941  -15.1490   22.2293 N   0  0  0  0  0  0  0  0  0  0  0  0
    7.5269  -15.4577   23.4728 C   0  0  1  0  0  0  0  0  0  0  0  0
    7.3727  -16.9322   23.7705 C   0  0  0  0  0  0  0  0  0  0  0  0
    6.7912  -17.1068   25.1701 C   0  0  0  0  0  0  0  0  0  0  0  0
    6.8647  -18.5250   25.6047 C   0  0  0  0  0  0  0  0  0  0  0  0
    7.3594  -19.4268   24.8722 O   0  0  0  0  0  0  0  0  0  0  0  0
    8.1077  -14.7724   24.6455 C   0  0  0  0  0  0  0  0  0  0  0  0
    9.2910  -15.1869   24.9456 O   0  0  0  0  0  0  0  0  0  0  0  0
    6.3665  -18.8440   26.8608 O   0  0  0  0  0  0  0  0  0  0  0  0
    7.5445  -13.7657   25.4396 N   0  0  0  0  0  0  0  0  0  0  0  0
    6.2820  -13.0912   25.1415 C   0  0  0  0  0  0  0  0  0  0  0  0
    5.9642  -12.2045   26.3334 C   0  0  0  0  0  0  0  0  0  0  0  0
    6.8168  -12.7691   27.4075 C   0  0  0  0  0  0  0  0  0  0  0  0
    8.0811  -13.1780   26.6169 C   0  0  1  0  0  0  0  0  0  0  0  0
    8.8207  -14.0424   27.5337 C   0  0  0  0  0  0  0  0  0  0  0  0
    8.4764  -15.3851   27.5780 O   0  0  0  0  0  0  0  0  0  0  0  0
    9.7363  -13.6518   28.2733 O   0  0  0  0  0  0  0  0  0  0  0  0
  1  2  1  0
  3  5  1  0
  3  2  1  0
  3  4  1  6
  5  6  2  0
  7  8  1  0
  7  5  1  0
  8 13  1  0
  8  9  1  1
 10 11  1  0
 10  9  1  0
 11 12  2  0
 13 14  2  0
 13 16  1  0
 15 11  1  0
 16 20  1  0
 16 17  1  0
 17 18  1  0
 19 18  1  0
 20 19  1  0
 20 21  1  1
 22 21  1  0
 23 21  2  0
M  END
$$$$
