SEP.pdb
     RDKit          3D

 23 23  0  0  1  0  0  0  0  0999 V2000
   10.7214  -12.9639   20.0571 O   0  0  0  0  0  0  0  0  0  0  0  0
   10.1474  -14.2155   19.8417 C   0  0  0  0  0  0  0  0  0  0  0  0
    8.6455  -14.0446   19.8616 C   0  0  2  0  0  0  0  0  0  0  0  0
    8.2357  -12.8088   19.2305 N   0  0  0  0  0  0  0  0  0  0  0  0
    8.1634  -14.0594   21.2767 C   0  0  0  0  0  0  0  0  0  0  0  0
    7.7882  -13.0119   21.8189 O   0  0  0  0  0  0  0  0  0  0  0  0
    8.1201  -15.2575   22.0355 N   0  0  0  0  0  0  0  0  0  0  0  0
    7.5181  -15.3272   23.2988 C   0  0  1  0  0  0  0  0  0  0  0  0
    7.1269  -16.7136   23.7584 C   0  0  0  0  0  0  0  0  0  0  0  0
    6.2915  -17.3882   22.6746 C   0  0  0  0  0  0  0  0  0  0  0  0
    6.0353  -18.8124   23.0082 C   0  0  0  0  0  0  0  0  0  0  0  0
    6.6633  -19.7558   22.4513 O   0  0  0  0  0  0  0  0  0  0  0  0
    8.2105  -14.6179   24.3941 C   0  0  0  0  0  0  0  0  0  0  0  0
    9.4193  -15.0246   24.5828 O   0  0  0  0  0  0  0  0  0  0  0  0
    5.0692  -19.0894   23.9662 O   0  0  0  0  0  0  0  0  0  0  0  0
    7.7258  -13.5964   25.2205 N   0  0  0  0  0  0  0  0  0  0  0  0
    6.6770  -12.6533   24.8353 C   0  0  0  0  0  0  0  0  0  0  0  0
    6.3435  -11.8362   26.0719 C   0  0  0  0  0  0  0  0  0  0  0  0
    6.8908  -12.6614   27.1760 C   0  0  0  0  0  0  0  0  0  0  0  0
    8.1665  -13.2439   26.5247 C   0  0  1  0  0  0  0  0  0  0  0  0
    8.5733  -14.3233   27.4214 C   0  0  0  0  0  0  0  0  0  0  0  0
    9.3593  -13.9949   28.5157 O   0  0  0  0  0  0  0  0  0  0  0  0
    8.2600  -15.5131   27.2661 O   0  0  0  0  0  0  0  0  0  0  0  0
  1  2  1  0
  3  5  1  0
  3  2  1  0
  3  4  1  1
  5  6  2  0
  7  8  1  0
  7  5  1  0
  8 13  1  0
  8  9  1  1
 10 11  1  0
 10  9  1  0
 11 12  2  0
 13 14  2  0
 13 16  1  0
 15 11  1  0
 16 20  1  0
 16 17  1  0
 17 18  1  0
 19 18  1  0
 20 19  1  0
 20 21  1  1
 22 21  1  0
 23 21  2  0
M  END
$$$$
