SEP.pdb
     RDKit          3D

 23 23  0  0  1  0  0  0  0  0999 V2000
    9.8964  -12.3934   19.6181 O   0  0  0  0  0  0  0  0  0  0  0  0
    8.5693  -12.4966   20.0311 C   0  0  0  0  0  0  0  0  0  0  0  0
    8.1737  -13.9536   19.9552 C   0  0  2  0  0  0  0  0  0  0  0  0
    7.2292  -14.2003   18.8874 N   0  0  0  0  0  0  0  0  0  0  0  0
    7.5675  -14.3714   21.2564 C   0  0  0  0  0  0  0  0  0  0  0  0
    6.3385  -14.3652   21.4026 O   0  0  0  0  0  0  0  0  0  0  0  0
    8.3689  -14.7831   22.3525 N   0  0  0  0  0  0  0  0  0  0  0  0
    7.8190  -15.2395   23.5577 C   0  0  1  0  0  0  0  0  0  0  0  0
    7.8396  -16.7382   23.7569 C   0  0  0  0  0  0  0  0  0  0  0  0
    7.1607  -17.0814   25.0794 C   0  0  0  0  0  0  0  0  0  0  0  0
    7.2189  -18.5414   25.3453 C   0  0  0  0  0  0  0  0  0  0  0  0
    6.1795  -19.2567   25.3946 O   0  0  0  0  0  0  0  0  0  0  0  0
    8.2885  -14.5685   24.7872 C   0  0  0  0  0  0  0  0  0  0  0  0
    9.4259  -15.0075   25.2065 O   0  0  0  0  0  0  0  0  0  0  0  0
    8.4682  -19.1143   25.5428 O   0  0  0  0  0  0  0  0  0  0  0  0
    7.6660  -13.5524   25.5229 N   0  0  0  0  0  0  0  0  0  0  0  0
    6.5307  -12.7657   25.0434 C   0  0  0  0  0  0  0  0  0  0  0  0
    6.0684  -11.9052   26.2069 C   0  0  0  0  0  0  0  0  0  0  0  0
    6.6695  -12.5807   27.3825 C   0  0  0  0  0  0  0  0  0  0  0  0
    8.0226  -13.0588   26.8068 C   0  0  1  0  0  0  0  0  0  0  0  0
    8.5195  -14.0171   27.7914 C   0  0  0  0  0  0  0  0  0  0  0  0
    8.2836  -15.3641   27.5608 O   0  0  0  0  0  0  0  0  0  0  0  0
    9.1389  -13.7024   28.8187 O   0  0  0  0  0  0  0  0  0  0  0  0
  1  2  1  0
  3  5  1  0
  3  2  1  0
  3  4  1  6
  5  6  2  0
  7  8  1  0
  7  5  1  0
  8 13  1  0
  8  9  1  1
 10 11  1  0
 10  9  1  0
 11 12  2  0
 13 14  2  0
 13 16  1  0
 15 11  1  0
 16 20  1  0
 16 17  1  0
 17 18  1  0
 19 18  1  0
 20 19  1  0
 20 21  1  1
 22 21  1  0
 23 21  2  0
M  END
$$$$
