SEP.pdb
     RDKit          3D

 23 23  0  0  1  0  0  0  0  0999 V2000
    9.9404  -12.7875   20.4822 O   0  0  0  0  0  0  0  0  0  0  0  0
    9.5291  -13.9901   19.9102 C   0  0  0  0  0  0  0  0  0  0  0  0
    8.0206  -14.0476   19.9901 C   0  0  2  0  0  0  0  0  0  0  0  0
    7.4064  -12.8601   19.4369 N   0  0  0  0  0  0  0  0  0  0  0  0
    7.6049  -14.1985   21.4182 C   0  0  0  0  0  0  0  0  0  0  0  0
    6.9085  -13.3306   21.9603 O   0  0  0  0  0  0  0  0  0  0  0  0
    7.9891  -15.3254   22.1899 N   0  0  0  0  0  0  0  0  0  0  0  0
    7.5140  -15.5453   23.4896 C   0  0  1  0  0  0  0  0  0  0  0  0
    7.3332  -16.9947   23.8806 C   0  0  0  0  0  0  0  0  0  0  0  0
    6.7871  -17.0699   25.3032 C   0  0  0  0  0  0  0  0  0  0  0  0
    6.7149  -18.4769   25.7728 C   0  0  0  0  0  0  0  0  0  0  0  0
    6.5657  -18.7710   26.9917 O   0  0  0  0  0  0  0  0  0  0  0  0
    8.2113  -14.8221   24.5727 C   0  0  0  0  0  0  0  0  0  0  0  0
    9.4054  -15.2563   24.7911 O   0  0  0  0  0  0  0  0  0  0  0  0
    6.8175  -19.4831   24.8215 O   0  0  0  0  0  0  0  0  0  0  0  0
    7.7444  -13.7625   25.3605 N   0  0  0  0  0  0  0  0  0  0  0  0
    6.5858  -12.9358   25.0259 C   0  0  0  0  0  0  0  0  0  0  0  0
    6.3323  -12.0295   26.2185 C   0  0  0  0  0  0  0  0  0  0  0  0
    7.0678  -12.7052   27.3149 C   0  0  0  0  0  0  0  0  0  0  0  0
    8.3026  -13.2571   26.5656 C   0  0  1  0  0  0  0  0  0  0  0  0
    8.8957  -14.2149   27.4959 C   0  0  0  0  0  0  0  0  0  0  0  0
    9.7062  -13.7198   28.5065 O   0  0  0  0  0  0  0  0  0  0  0  0
    8.7197  -15.4412   27.4394 O   0  0  0  0  0  0  0  0  0  0  0  0
  1  2  1  0
  3  5  1  0
  3  2  1  0
  3  4  1  1
  5  6  2  0
  7  8  1  0
  7  5  1  0
  8 13  1  0
  8  9  1  1
 10 11  1  0
 10  9  1  0
 11 12  2  0
 13 14  2  0
 13 16  1  0
 15 11  1  0
 16 20  1  0
 16 17  1  0
 17 18  1  0
 19 18  1  0
 20 19  1  0
 20 21  1  1
 22 21  1  0
 23 21  2  0
M  END
$$$$
