SEP.pdb
     RDKit          3D

 23 23  0  0  1  0  0  0  0  0999 V2000
   10.6224  -12.9875   19.2778 O   0  0  0  0  0  0  0  0  0  0  0  0
    9.5535  -12.7087   20.1277 C   0  0  0  0  0  0  0  0  0  0  0  0
    8.5680  -13.8499   20.0203 C   0  0  2  0  0  0  0  0  0  0  0  0
    7.5931  -13.6231   18.9754 N   0  0  0  0  0  0  0  0  0  0  0  0
    7.8608  -14.0192   21.3265 C   0  0  0  0  0  0  0  0  0  0  0  0
    6.8670  -13.3307   21.5917 O   0  0  0  0  0  0  0  0  0  0  0  0
    8.2984  -14.9612   22.2930 N   0  0  0  0  0  0  0  0  0  0  0  0
    7.6419  -15.1442   23.5172 C   0  0  1  0  0  0  0  0  0  0  0  0
    7.2892  -16.5740   23.8600 C   0  0  0  0  0  0  0  0  0  0  0  0
    6.5650  -17.2127   22.6788 C   0  0  0  0  0  0  0  0  0  0  0  0
    6.3274  -18.6591   22.9181 C   0  0  0  0  0  0  0  0  0  0  0  0
    6.9198  -19.5555   22.2548 O   0  0  0  0  0  0  0  0  0  0  0  0
    8.2519  -14.4879   24.6918 C   0  0  0  0  0  0  0  0  0  0  0  0
    9.4358  -14.9211   24.9619 O   0  0  0  0  0  0  0  0  0  0  0  0
    5.4198  -19.0110   23.9082 O   0  0  0  0  0  0  0  0  0  0  0  0
    7.7147  -13.4906   25.5153 N   0  0  0  0  0  0  0  0  0  0  0  0
    6.6516  -12.5723   25.1101 C   0  0  0  0  0  0  0  0  0  0  0  0
    6.2593  -11.7801   26.3456 C   0  0  0  0  0  0  0  0  0  0  0  0
    6.7972  -12.6033   27.4559 C   0  0  0  0  0  0  0  0  0  0  0  0
    8.1071  -13.1421   26.8358 C   0  0  1  0  0  0  0  0  0  0  0  0
    8.5179  -14.2207   27.7316 C   0  0  0  0  0  0  0  0  0  0  0  0
    9.2107  -13.8781   28.8831 O   0  0  0  0  0  0  0  0  0  0  0  0
    8.2859  -15.4217   27.5278 O   0  0  0  0  0  0  0  0  0  0  0  0
  1  2  1  0
  3  5  1  0
  3  2  1  0
  3  4  1  6
  5  6  2  0
  7  8  1  0
  7  5  1  0
  8 13  1  0
  8  9  1  1
 10 11  1  0
 10  9  1  0
 11 12  2  0
 13 14  2  0
 13 16  1  0
 15 11  1  0
 16 20  1  0
 16 17  1  0
 17 18  1  0
 19 18  1  0
 20 19  1  0
 20 21  1  1
 22 21  1  0
 23 21  2  0
M  END
$$$$
