SEP.pdb
     RDKit          3D

 23 23  0  0  1  0  0  0  0  0999 V2000
   10.0624  -13.0415   20.3465 O   0  0  0  0  0  0  0  0  0  0  0  0
    9.4246  -14.2182   19.9577 C   0  0  0  0  0  0  0  0  0  0  0  0
    7.9334  -13.9783   20.0216 C   0  0  2  0  0  0  0  0  0  0  0  0
    7.5831  -12.6451   19.5819 N   0  0  0  0  0  0  0  0  0  0  0  0
    7.4591  -14.1754   21.4256 C   0  0  0  0  0  0  0  0  0  0  0  0
    6.7285  -13.3321   21.9614 O   0  0  0  0  0  0  0  0  0  0  0  0
    7.8250  -15.3193   22.1810 N   0  0  0  0  0  0  0  0  0  0  0  0
    7.3121  -15.5725   23.4600 C   0  0  1  0  0  0  0  0  0  0  0  0
    7.0860  -17.0298   23.7945 C   0  0  0  0  0  0  0  0  0  0  0  0
    6.4914  -17.1402   25.1952 C   0  0  0  0  0  0  0  0  0  0  0  0
    6.4945  -18.5487   25.6660 C   0  0  0  0  0  0  0  0  0  0  0  0
    6.1644  -19.5084   24.9147 O   0  0  0  0  0  0  0  0  0  0  0  0
    7.9995  -14.9058   24.5849 C   0  0  0  0  0  0  0  0  0  0  0  0
    9.2073  -15.3198   24.7636 O   0  0  0  0  0  0  0  0  0  0  0  0
    6.8765  -18.7918   26.9786 O   0  0  0  0  0  0  0  0  0  0  0  0
    7.5110  -13.9165   25.4474 N   0  0  0  0  0  0  0  0  0  0  0  0
    6.2326  -13.2289   25.2718 C   0  0  0  0  0  0  0  0  0  0  0  0
    6.0209  -12.3705   26.5072 C   0  0  0  0  0  0  0  0  0  0  0  0
    6.9561  -12.9655   27.4927 C   0  0  0  0  0  0  0  0  0  0  0  0
    8.1476  -13.3606   26.5898 C   0  0  1  0  0  0  0  0  0  0  0  0
    8.9550  -14.2509   27.4205 C   0  0  0  0  0  0  0  0  0  0  0  0
    9.8072  -13.6739   28.3500 O   0  0  0  0  0  0  0  0  0  0  0  0
    8.9259  -15.4885   27.3473 O   0  0  0  0  0  0  0  0  0  0  0  0
  1  2  1  0
  3  5  1  0
  3  2  1  0
  3  4  1  1
  5  6  2  0
  7  8  1  0
  7  5  1  0
  8 13  1  0
  8  9  1  1
 10 11  1  0
 10  9  1  0
 11 12  2  0
 13 14  2  0
 13 16  1  0
 15 11  1  0
 16 20  1  0
 16 17  1  0
 17 18  1  0
 19 18  1  0
 20 19  1  0
 20 21  1  1
 22 21  1  0
 23 21  2  0
M  END
$$$$
