SEP.pdb
     RDKit          3D

 23 23  0  0  1  0  0  0  0  0999 V2000
   10.0174  -12.6931   19.0096 O   0  0  0  0  0  0  0  0  0  0  0  0
    8.9627  -12.6969   19.9207 C   0  0  0  0  0  0  0  0  0  0  0  0
    8.3399  -14.0742   19.9009 C   0  0  2  0  0  0  0  0  0  0  0  0
    7.4725  -14.2566   18.7573 N   0  0  0  0  0  0  0  0  0  0  0  0
    7.5529  -14.2808   21.1550 C   0  0  0  0  0  0  0  0  0  0  0  0
    6.3406  -14.0322   21.1788 O   0  0  0  0  0  0  0  0  0  0  0  0
    8.1599  -14.7619   22.3438 N   0  0  0  0  0  0  0  0  0  0  0  0
    7.4308  -15.0105   23.5141 C   0  0  1  0  0  0  0  0  0  0  0  0
    7.0393  -16.4529   23.7437 C   0  0  0  0  0  0  0  0  0  0  0  0
    8.2982  -17.3107   23.8281 C   0  0  0  0  0  0  0  0  0  0  0  0
    7.9566  -18.7553   23.8751 C   0  0  0  0  0  0  0  0  0  0  0  0
    8.8389  -19.6562   23.8089 O   0  0  0  0  0  0  0  0  0  0  0  0
    7.9802  -14.4405   24.7613 C   0  0  0  0  0  0  0  0  0  0  0  0
    9.1240  -14.9365   25.0896 O   0  0  0  0  0  0  0  0  0  0  0  0
    6.6171  -19.1003   23.9958 O   0  0  0  0  0  0  0  0  0  0  0  0
    7.4246  -13.4639   25.5972 N   0  0  0  0  0  0  0  0  0  0  0  0
    6.2357  -12.6786   25.2692 C   0  0  0  0  0  0  0  0  0  0  0  0
    5.8858  -11.8711   26.5076 C   0  0  0  0  0  0  0  0  0  0  0  0
    6.6143  -12.5809   27.5870 C   0  0  0  0  0  0  0  0  0  0  0  0
    7.9063  -13.0138   26.8561 C   0  0  1  0  0  0  0  0  0  0  0  0
    8.5149  -14.0006   27.7451 C   0  0  0  0  0  0  0  0  0  0  0  0
    8.2872  -15.3421   27.4768 O   0  0  0  0  0  0  0  0  0  0  0  0
    9.2220  -13.7148   28.7230 O   0  0  0  0  0  0  0  0  0  0  0  0
  1  2  1  0
  3  5  1  0
  3  2  1  0
  3  4  1  6
  5  6  2  0
  7  8  1  0
  7  5  1  0
  8 13  1  0
  8  9  1  1
 10 11  1  0
 10  9  1  0
 11 12  2  0
 13 14  2  0
 13 16  1  0
 15 11  1  0
 16 20  1  0
 16 17  1  0
 17 18  1  0
 19 18  1  0
 20 19  1  0
 20 21  1  1
 22 21  1  0
 23 21  2  0
M  END
$$$$
