SEP.pdb
     RDKit          3D

 23 23  0  0  1  0  0  0  0  0999 V2000
   10.0264  -12.6982   20.5119 O   0  0  0  0  0  0  0  0  0  0  0  0
    9.6973  -13.8860   19.8613 C   0  0  0  0  0  0  0  0  0  0  0  0
    8.1912  -14.0148   19.8684 C   0  0  2  0  0  0  0  0  0  0  0  0
    7.5499  -12.8694   19.2598 N   0  0  0  0  0  0  0  0  0  0  0  0
    7.7121  -14.1575   21.2774 C   0  0  0  0  0  0  0  0  0  0  0  0
    6.9741  -13.2978   21.7754 O   0  0  0  0  0  0  0  0  0  0  0  0
    8.0820  -15.2674   22.0802 N   0  0  0  0  0  0  0  0  0  0  0  0
    7.5232  -15.5023   23.3434 C   0  0  1  0  0  0  0  0  0  0  0  0
    7.3494  -16.9567   23.7186 C   0  0  0  0  0  0  0  0  0  0  0  0
    6.7299  -17.0490   25.1098 C   0  0  0  0  0  0  0  0  0  0  0  0
    6.7852  -18.4402   25.6267 C   0  0  0  0  0  0  0  0  0  0  0  0
    7.3160  -19.3795   24.9706 O   0  0  0  0  0  0  0  0  0  0  0  0
    8.1267  -14.7666   24.4734 C   0  0  0  0  0  0  0  0  0  0  0  0
    9.3418  -15.1187   24.7219 O   0  0  0  0  0  0  0  0  0  0  0  0
    6.2283  -18.6902   26.8737 O   0  0  0  0  0  0  0  0  0  0  0  0
    7.5549  -13.7716   25.2761 N   0  0  0  0  0  0  0  0  0  0  0  0
    6.2344  -13.1871   25.0477 C   0  0  0  0  0  0  0  0  0  0  0  0
    5.9417  -12.2835   26.2334 C   0  0  0  0  0  0  0  0  0  0  0  0
    6.8996  -12.7588   27.2611 C   0  0  0  0  0  0  0  0  0  0  0  0
    8.1312  -13.1137   26.3961 C   0  0  1  0  0  0  0  0  0  0  0  0
    8.9853  -13.9001   27.2831 C   0  0  0  0  0  0  0  0  0  0  0  0
    8.7861  -15.2718   27.3259 O   0  0  0  0  0  0  0  0  0  0  0  0
    9.8765  -13.4189   27.9987 O   0  0  0  0  0  0  0  0  0  0  0  0
  1  2  1  0
  3  5  1  0
  3  2  1  0
  3  4  1  1
  5  6  2  0
  7  8  1  0
  7  5  1  0
  8 13  1  0
  8  9  1  1
 10 11  1  0
 10  9  1  0
 11 12  2  0
 13 14  2  0
 13 16  1  0
 15 11  1  0
 16 20  1  0
 16 17  1  0
 17 18  1  0
 19 18  1  0
 20 19  1  0
 20 21  1  1
 22 21  1  0
 23 21  2  0
M  END
$$$$
