NIQ.pdb
     RDKit          3D

 26 25  0  0  1  0  0  0  0  0999 V2000
    6.6904  -19.3897   15.4839 N   0  0  0  0  0  0  0  0  0  0  0  0
    7.7324  -18.5492   15.0484 C   0  0  0  0  0  0  0  0  0  0  0  0
    7.9558  -18.4221   13.8309 O   0  0  0  0  0  0  0  0  0  0  0  0
    8.5530  -17.8250   16.0272 C   0  0  0  0  0  0  0  0  0  0  0  0
    8.2936  -18.2296   17.4452 C   0  0  2  0  0  0  0  0  0  0  0  0
    6.9084  -18.3397   17.7744 N   0  0  0  0  0  0  0  0  0  0  0  0
    8.9799  -17.2067   18.3165 C   0  0  0  0  0  0  0  0  0  0  0  0
   10.2082  -17.0305   18.1471 O   0  0  0  0  0  0  0  0  0  0  0  0
    7.5966  -12.0508   21.2004 C   0  0  0  0  0  0  0  0  0  0  0  0
    8.6035  -13.1070   20.9146 C   0  0  0  0  0  0  0  0  0  0  0  0
    8.1242  -14.4050   20.4215 C   0  0  2  0  0  0  0  0  0  0  0  0
    6.8343  -14.8013   21.1279 C   0  0  0  0  0  0  0  0  0  0  0  0
    9.0563  -15.5091   20.1306 C   0  0  2  0  0  0  0  0  0  0  0  0
    8.3063  -16.4693   19.2807 N   0  0  0  0  0  0  0  0  0  0  0  0
    9.6987  -16.2202   21.2272 C   0  0  0  0  0  0  0  0  0  0  0  0
    9.1992  -17.3058   21.7098 O   0  0  0  0  0  0  0  0  0  0  0  0
   15.9750  -16.9046   25.0267 N   0  0  0  0  0  0  0  0  0  0  0  0
   15.2533  -16.5875   23.8436 C   0  0  0  0  0  0  0  0  0  0  0  0
   15.7421  -15.6609   23.1072 O   0  0  0  0  0  0  0  0  0  0  0  0
   14.0067  -17.2847   23.4641 C   0  0  0  0  0  0  0  0  0  0  0  0
   13.0750  -16.5216   22.5948 C   0  0  0  0  0  0  0  0  0  0  0  0
   11.6080  -16.6909   22.7927 C   0  0  2  0  0  0  0  0  0  0  0  0
   10.9009  -15.8033   21.8402 N   0  0  0  0  0  0  0  0  0  0  0  0
   11.1596  -16.4780   24.1477 C   0  0  0  0  0  0  0  0  0  0  0  0
   11.2141  -17.4266   25.1807 O   0  0  0  0  0  0  0  0  0  0  0  0
   10.6603  -15.3529   24.4973 O   0  0  0  0  0  0  0  0  0  0  0  0
  2  1  1  0
  2  3  2  0
  4  2  1  0
  5  7  1  0
  5  4  1  0
  5  6  1  1
  7  8  2  0
  9 10  1  0
 11 10  1  0
 11 12  1  1
 13 14  1  1
 13 11  1  0
 14  7  1  0
 15 13  1  0
 16 15  2  0
 18 20  1  0
 18 17  1  0
 19 18  2  0
 21 20  1  0
 22 23  1  0
 22 21  1  1
 23 15  1  0
 24 22  1  0
 25 24  1  0
 26 24  2  0
M  END
$$$$
