NIQ.pdb
     RDKit          3D

 26 25  0  0  1  0  0  0  0  0999 V2000
    7.3965  -17.7048   19.3258 N   0  0  0  0  0  0  0  0  0  0  0  0
    8.6378  -17.0419   19.3673 C   0  0  0  0  0  0  0  0  0  0  0  0
    9.3982  -17.0920   18.3836 O   0  0  0  0  0  0  0  0  0  0  0  0
    9.0340  -16.2939   20.5670 C   0  0  0  0  0  0  0  0  0  0  0  0
    8.0276  -16.3567   21.6738 C   0  0  2  0  0  0  0  0  0  0  0  0
    6.7060  -15.9862   21.2798 N   0  0  0  0  0  0  0  0  0  0  0  0
    8.5398  -15.4576   22.7720 C   0  0  0  0  0  0  0  0  0  0  0  0
    9.7129  -15.0307   22.6727 O   0  0  0  0  0  0  0  0  0  0  0  0
    6.5155  -11.5872   27.0238 C   0  0  0  0  0  0  0  0  0  0  0  0
    7.6124  -12.4937   26.5919 C   0  0  0  0  0  0  0  0  0  0  0  0
    7.3452  -13.4274   25.4899 C   0  0  2  0  0  0  0  0  0  0  0  0
    5.9506  -14.0249   25.6226 C   0  0  0  0  0  0  0  0  0  0  0  0
    8.3855  -14.3431   24.9883 C   0  0  2  0  0  0  0  0  0  0  0  0
    7.7670  -15.0959   23.8671 N   0  0  0  0  0  0  0  0  0  0  0  0
    9.0348  -15.2702   25.9047 C   0  0  0  0  0  0  0  0  0  0  0  0
    8.4771  -16.3808   26.2460 O   0  0  0  0  0  0  0  0  0  0  0  0
   15.1553  -16.4387   26.1814 N   0  0  0  0  0  0  0  0  0  0  0  0
   14.1407  -16.8040   25.2550 C   0  0  0  0  0  0  0  0  0  0  0  0
   14.5357  -17.2345   24.1155 O   0  0  0  0  0  0  0  0  0  0  0  0
   12.7014  -16.7055   25.5753 C   0  0  0  0  0  0  0  0  0  0  0  0
   12.3715  -16.2059   26.9345 C   0  0  0  0  0  0  0  0  0  0  0  0
   10.9392  -16.0870   27.3273 C   0  0  2  0  0  0  0  0  0  0  0  0
   10.3054  -15.0494   26.4808 N   0  0  0  0  0  0  0  0  0  0  0  0
   10.7242  -15.8294   28.7308 C   0  0  0  0  0  0  0  0  0  0  0  0
   10.9146  -16.7575   29.7663 O   0  0  0  0  0  0  0  0  0  0  0  0
   10.3258  -14.6796   29.1265 O   0  0  0  0  0  0  0  0  0  0  0  0
  2  1  1  0
  2  3  2  0
  4  2  1  0
  5  7  1  0
  5  4  1  0
  5  6  1  6
  7  8  2  0
  9 10  1  0
 11 10  1  0
 11 12  1  1
 13 14  1  6
 13 11  1  0
 14  7  1  0
 15 13  1  0
 16 15  2  0
 18 20  1  0
 18 17  1  0
 19 18  2  0
 21 20  1  0
 22 23  1  0
 22 21  1  1
 23 15  1  0
 24 22  1  0
 25 24  1  0
 26 24  2  0
M  END
$$$$
