NIQ.pdb
     RDKit          3D

 26 25  0  0  1  0  0  0  0  0999 V2000
    5.4535  -17.4262   19.4758 N   0  0  0  0  0  0  0  0  0  0  0  0
    6.8577  -17.4381   19.5755 C   0  0  0  0  0  0  0  0  0  0  0  0
    7.5407  -17.8696   18.6292 O   0  0  0  0  0  0  0  0  0  0  0  0
    7.5143  -16.9429   20.7919 C   0  0  0  0  0  0  0  0  0  0  0  0
    7.4964  -15.4512   20.9195 C   0  0  2  0  0  0  0  0  0  0  0  0
    8.1137  -14.7668   19.8289 N   0  0  0  0  0  0  0  0  0  0  0  0
    8.1799  -15.1233   22.2241 C   0  0  0  0  0  0  0  0  0  0  0  0
    9.3859  -15.4394   22.3430 O   0  0  0  0  0  0  0  0  0  0  0  0
    7.3027  -11.3901   27.0367 C   0  0  0  0  0  0  0  0  0  0  0  0
    8.0493  -12.5373   26.4554 C   0  0  0  0  0  0  0  0  0  0  0  0
    7.5560  -13.1196   25.2003 C   0  0  2  0  0  0  0  0  0  0  0  0
    6.0355  -13.2065   25.2134 C   0  0  0  0  0  0  0  0  0  0  0  0
    8.2527  -14.2424   24.5473 C   0  0  2  0  0  0  0  0  0  0  0  0
    7.5271  -14.4948   23.2758 N   0  0  0  0  0  0  0  0  0  0  0  0
    8.4360  -15.4954   25.2664 C   0  0  0  0  0  0  0  0  0  0  0  0
    7.5085  -16.3892   25.3087 O   0  0  0  0  0  0  0  0  0  0  0  0
   12.3901  -19.4780   23.8110 N   0  0  0  0  0  0  0  0  0  0  0  0
   12.0463  -20.0189   25.0800 C   0  0  0  0  0  0  0  0  0  0  0  0
   12.5677  -21.1495   25.3794 O   0  0  0  0  0  0  0  0  0  0  0  0
   11.1422  -19.3238   26.0199 C   0  0  0  0  0  0  0  0  0  0  0  0
   10.6738  -17.9796   25.5958 C   0  0  0  0  0  0  0  0  0  0  0  0
    9.7931  -17.2040   26.5139 C   0  0  2  0  0  0  0  0  0  0  0  0
    9.6182  -15.8424   25.9569 N   0  0  0  0  0  0  0  0  0  0  0  0
   10.2472  -17.1618   27.8831 C   0  0  0  0  0  0  0  0  0  0  0  0
   10.1499  -18.2158   28.8049 O   0  0  0  0  0  0  0  0  0  0  0  0
   10.7905  -16.1037   28.3548 O   0  0  0  0  0  0  0  0  0  0  0  0
  2  1  1  0
  2  3  2  0
  4  2  1  0
  5  7  1  0
  5  4  1  0
  5  6  1  6
  7  8  2  0
  9 10  1  0
 11 10  1  0
 11 12  1  1
 13 14  1  6
 13 11  1  0
 14  7  1  0
 15 13  1  0
 16 15  2  0
 18 20  1  0
 18 17  1  0
 19 18  2  0
 21 20  1  0
 22 23  1  0
 22 21  1  6
 23 15  1  0
 24 22  1  0
 25 24  1  0
 26 24  2  0
M  END
$$$$
