NIQ.pdb
     RDKit          3D

 26 25  0  0  1  0  0  0  0  0999 V2000
    6.9252  -17.0432   19.1690 N   0  0  0  0  0  0  0  0  0  0  0  0
    6.9882  -17.7258   20.3986 C   0  0  0  0  0  0  0  0  0  0  0  0
    6.5000  -18.8661   20.4981 O   0  0  0  0  0  0  0  0  0  0  0  0
    7.6278  -17.0947   21.5599 C   0  0  0  0  0  0  0  0  0  0  0  0
    7.9839  -15.6569   21.3420 C   0  0  2  0  0  0  0  0  0  0  0  0
    8.9088  -15.4421   20.2755 N   0  0  0  0  0  0  0  0  0  0  0  0
    8.5353  -15.1475   22.6508 C   0  0  0  0  0  0  0  0  0  0  0  0
    9.7632  -15.2842   22.8558 O   0  0  0  0  0  0  0  0  0  0  0  0
    6.8524  -11.3051   27.1583 C   0  0  0  0  0  0  0  0  0  0  0  0
    7.7975  -12.3482   26.6786 C   0  0  0  0  0  0  0  0  0  0  0  0
    7.4537  -13.0834   25.4542 C   0  0  2  0  0  0  0  0  0  0  0  0
    5.9650  -13.4033   25.4237 C   0  0  0  0  0  0  0  0  0  0  0  0
    8.3408  -14.1264   24.9087 C   0  0  2  0  0  0  0  0  0  0  0  0
    7.7403  -14.5441   23.6158 N   0  0  0  0  0  0  0  0  0  0  0  0
    8.6514  -15.3023   25.7098 C   0  0  0  0  0  0  0  0  0  0  0  0
    7.8265  -16.2876   25.8069 O   0  0  0  0  0  0  0  0  0  0  0  0
   13.1262  -19.0104   24.8973 N   0  0  0  0  0  0  0  0  0  0  0  0
   12.7459  -19.4398   26.1981 C   0  0  0  0  0  0  0  0  0  0  0  0
   13.3479  -20.4725   26.6575 O   0  0  0  0  0  0  0  0  0  0  0  0
   11.7172  -18.7397   26.9954 C   0  0  0  0  0  0  0  0  0  0  0  0
   11.1843  -17.4839   26.4082 C   0  0  0  0  0  0  0  0  0  0  0  0
   10.1310  -16.7353   27.1500 C   0  0  2  0  0  0  0  0  0  0  0  0
    9.8563  -15.4719   26.4269 N   0  0  0  0  0  0  0  0  0  0  0  0
   10.4361  -16.4947   28.5398 C   0  0  0  0  0  0  0  0  0  0  0  0
   10.6265  -15.2326   29.1238 O   0  0  0  0  0  0  0  0  0  0  0  0
   10.5571  -17.4720   29.3568 O   0  0  0  0  0  0  0  0  0  0  0  0
  2  1  1  0
  2  3  2  0
  4  2  1  0
  5  7  1  0
  5  4  1  0
  5  6  1  6
  7  8  2  0
  9 10  1  0
 11 10  1  0
 11 12  1  1
 13 14  1  6
 13 11  1  0
 14  7  1  0
 15 13  1  0
 16 15  2  0
 18 20  1  0
 18 17  1  0
 19 18  2  0
 21 20  1  0
 22 23  1  0
 22 21  1  6
 23 15  1  0
 24 22  1  0
 25 24  1  0
 26 24  2  0
M  END
$$$$
