NIQ.pdb
     RDKit          3D

 26 25  0  0  1  0  0  0  0  0999 V2000
    8.0420  -12.6009   18.1137 N   0  0  0  0  0  0  0  0  0  0  0  0
    8.1989  -13.7973   18.8389 C   0  0  0  0  0  0  0  0  0  0  0  0
    8.0087  -14.8906   18.2760 O   0  0  0  0  0  0  0  0  0  0  0  0
    8.5857  -13.7555   20.2547 C   0  0  0  0  0  0  0  0  0  0  0  0
    7.9501  -14.8286   21.0831 C   0  0  2  0  0  0  0  0  0  0  0  0
    6.5226  -14.7919   21.0864 N   0  0  0  0  0  0  0  0  0  0  0  0
    8.5012  -14.6768   22.4794 C   0  0  0  0  0  0  0  0  0  0  0  0
    9.7441  -14.5898   22.6066 O   0  0  0  0  0  0  0  0  0  0  0  0
    5.7219  -11.6477   25.6770 C   0  0  0  0  0  0  0  0  0  0  0  0
    6.9149  -12.2967   25.0713 C   0  0  0  0  0  0  0  0  0  0  0  0
    7.4146  -13.5350   25.6832 C   0  0  2  0  0  0  0  0  0  0  0  0
    7.7754  -13.3010   27.1442 C   0  0  0  0  0  0  0  0  0  0  0  0
    8.3023  -14.4529   24.9470 C   0  0  2  0  0  0  0  0  0  0  0  0
    7.6902  -14.6314   23.6053 N   0  0  0  0  0  0  0  0  0  0  0  0
    8.6291  -15.7531   25.5157 C   0  0  0  0  0  0  0  0  0  0  0  0
    7.7155  -16.6259   25.7691 O   0  0  0  0  0  0  0  0  0  0  0  0
   13.6814  -21.1735   25.7976 N   0  0  0  0  0  0  0  0  0  0  0  0
   13.1713  -19.8625   25.5924 C   0  0  0  0  0  0  0  0  0  0  0  0
   13.8364  -19.1084   24.7994 O   0  0  0  0  0  0  0  0  0  0  0  0
   11.9365  -19.3806   26.2459 C   0  0  0  0  0  0  0  0  0  0  0  0
   11.3937  -18.0942   25.7394 C   0  0  0  0  0  0  0  0  0  0  0  0
   10.1904  -17.5137   26.3990 C   0  0  2  0  0  0  0  0  0  0  0  0
    9.9426  -16.1709   25.8245 N   0  0  0  0  0  0  0  0  0  0  0  0
   10.2625  -17.4684   27.8396 C   0  0  0  0  0  0  0  0  0  0  0  0
   10.1665  -18.5780   28.6938 O   0  0  0  0  0  0  0  0  0  0  0  0
   10.4249  -16.3540   28.4470 O   0  0  0  0  0  0  0  0  0  0  0  0
  2  1  1  0
  2  3  2  0
  4  2  1  0
  5  7  1  0
  5  4  1  0
  5  6  1  1
  7  8  2  0
  9 10  1  0
 11 10  1  0
 11 12  1  1
 13 14  1  6
 13 11  1  0
 14  7  1  0
 15 13  1  0
 16 15  2  0
 18 20  1  0
 18 17  1  0
 19 18  2  0
 21 20  1  0
 22 23  1  0
 22 21  1  6
 23 15  1  0
 24 22  1  0
 25 24  1  0
 26 24  2  0
M  END
$$$$
