NIQ.pdb
     RDKit          3D

 26 25  0  0  1  0  0  0  0  0999 V2000
   10.7918  -20.0679   14.9319 N   0  0  0  0  0  0  0  0  0  0  0  0
    9.8359  -19.2059   15.5021 C   0  0  0  0  0  0  0  0  0  0  0  0
    8.6836  -19.1651   15.0343 O   0  0  0  0  0  0  0  0  0  0  0  0
   10.1971  -18.3578   16.6449 C   0  0  0  0  0  0  0  0  0  0  0  0
    9.9479  -16.8997   16.4135 C   0  0  2  0  0  0  0  0  0  0  0  0
   10.7608  -16.3263   15.3890 N   0  0  0  0  0  0  0  0  0  0  0  0
   10.1732  -16.2098   17.7363 C   0  0  0  0  0  0  0  0  0  0  0  0
   11.3541  -15.9462   18.0597 O   0  0  0  0  0  0  0  0  0  0  0  0
    6.6625  -12.4128   19.2933 C   0  0  0  0  0  0  0  0  0  0  0  0
    7.9239  -13.1716   19.0822 C   0  0  0  0  0  0  0  0  0  0  0  0
    8.2731  -14.2176   20.0526 C   0  0  2  0  0  0  0  0  0  0  0  0
    8.0939  -13.7066   21.4761 C   0  0  0  0  0  0  0  0  0  0  0  0
    9.4236  -15.1133   19.8373 C   0  0  2  0  0  0  0  0  0  0  0  0
    9.1336  -15.8650   18.5893 N   0  0  0  0  0  0  0  0  0  0  0  0
    9.8249  -16.0391   20.8874 C   0  0  0  0  0  0  0  0  0  0  0  0
    9.1755  -17.1304   21.1070 O   0  0  0  0  0  0  0  0  0  0  0  0
   15.6335  -17.6598   22.1370 N   0  0  0  0  0  0  0  0  0  0  0  0
   14.9331  -18.2982   23.1967 C   0  0  0  0  0  0  0  0  0  0  0  0
   15.6259  -19.0490   23.9687 O   0  0  0  0  0  0  0  0  0  0  0  0
   13.4834  -18.1114   23.4152 C   0  0  0  0  0  0  0  0  0  0  0  0
   12.8166  -17.1197   22.5333 C   0  0  0  0  0  0  0  0  0  0  0  0
   11.3538  -16.8860   22.6938 C   0  0  2  0  0  0  0  0  0  0  0  0
   10.9382  -15.8377   21.7330 N   0  0  0  0  0  0  0  0  0  0  0  0
   10.9447  -16.5633   24.0395 C   0  0  0  0  0  0  0  0  0  0  0  0
   10.9521  -17.4510   25.1266 O   0  0  0  0  0  0  0  0  0  0  0  0
   10.5297  -15.3877   24.3278 O   0  0  0  0  0  0  0  0  0  0  0  0
  2  1  1  0
  2  3  2  0
  4  2  1  0
  5  7  1  0
  5  4  1  0
  5  6  1  6
  7  8  2  0
  9 10  1  0
 11 10  1  0
 11 12  1  1
 13 14  1  6
 13 11  1  0
 14  7  1  0
 15 13  1  0
 16 15  2  0
 18 20  1  0
 18 17  1  0
 19 18  2  0
 21 20  1  0
 22 23  1  0
 22 21  1  1
 23 15  1  0
 24 22  1  0
 25 24  1  0
 26 24  2  0
M  END
$$$$
