NIQ.pdb
     RDKit          3D

 26 25  0  0  1  0  0  0  0  0999 V2000
    7.9076  -19.4172   20.8012 N   0  0  0  0  0  0  0  0  0  0  0  0
    7.0537  -18.3897   21.2451 C   0  0  0  0  0  0  0  0  0  0  0  0
    5.9288  -18.2556   20.7304 O   0  0  0  0  0  0  0  0  0  0  0  0
    7.4888  -17.4792   22.3116 C   0  0  0  0  0  0  0  0  0  0  0  0
    7.5346  -16.0423   21.8933 C   0  0  2  0  0  0  0  0  0  0  0  0
    8.3030  -15.8043   20.7135 N   0  0  0  0  0  0  0  0  0  0  0  0
    8.0864  -15.2705   23.0665 C   0  0  0  0  0  0  0  0  0  0  0  0
    9.3275  -15.1133   23.1257 O   0  0  0  0  0  0  0  0  0  0  0  0
    8.0269  -11.0514   26.4486 C   0  0  0  0  0  0  0  0  0  0  0  0
    7.0901  -12.1535   26.7935 C   0  0  0  0  0  0  0  0  0  0  0  0
    6.8132  -13.1717   25.7716 C   0  0  2  0  0  0  0  0  0  0  0  0
    5.5258  -13.9179   26.0964 C   0  0  0  0  0  0  0  0  0  0  0  0
    7.8923  -13.9878   25.1867 C   0  0  2  0  0  0  0  0  0  0  0  0
    7.2780  -14.7397   24.0625 N   0  0  0  0  0  0  0  0  0  0  0  0
    8.6486  -14.8997   26.0337 C   0  0  0  0  0  0  0  0  0  0  0  0
    9.3647  -14.4694   27.0149 O   0  0  0  0  0  0  0  0  0  0  0  0
    8.8304  -21.3423   25.6144 N   0  0  0  0  0  0  0  0  0  0  0  0
    9.7263  -21.0305   26.6732 C   0  0  0  0  0  0  0  0  0  0  0  0
   10.3517  -22.0153   27.2012 O   0  0  0  0  0  0  0  0  0  0  0  0
    9.9425  -19.6477   27.1480 C   0  0  0  0  0  0  0  0  0  0  0  0
    9.2131  -18.5860   26.4086 C   0  0  0  0  0  0  0  0  0  0  0  0
    9.4253  -17.1641   26.7997 C   0  0  2  0  0  0  0  0  0  0  0  0
    8.6594  -16.3025   25.8692 N   0  0  0  0  0  0  0  0  0  0  0  0
   10.8101  -16.7650   26.8727 C   0  0  0  0  0  0  0  0  0  0  0  0
   11.6126  -16.4092   25.7775 O   0  0  0  0  0  0  0  0  0  0  0  0
   11.4125  -16.7130   28.0005 O   0  0  0  0  0  0  0  0  0  0  0  0
  2  1  1  0
  2  3  2  0
  4  2  1  0
  5  7  1  0
  5  4  1  0
  5  6  1  6
  7  8  2  0
  9 10  1  0
 11 10  1  0
 11 12  1  1
 13 14  1  6
 13 11  1  0
 14  7  1  0
 15 13  1  0
 16 15  2  0
 18 20  1  0
 18 17  1  0
 19 18  2  0
 21 20  1  0
 22 23  1  0
 22 21  1  6
 23 15  1  0
 24 22  1  0
 25 24  1  0
 26 24  2  0
M  END
$$$$
