NIQ.pdb
     RDKit          3D

 26 25  0  0  1  0  0  0  0  0999 V2000
    8.2803  -20.7195   16.9203 N   0  0  0  0  0  0  0  0  0  0  0  0
    9.6093  -20.3130   17.1447 C   0  0  0  0  0  0  0  0  0  0  0  0
   10.5333  -20.8359   16.4957 O   0  0  0  0  0  0  0  0  0  0  0  0
    9.9044  -19.2757   18.1411 C   0  0  0  0  0  0  0  0  0  0  0  0
    9.5912  -17.8880   17.6744 C   0  0  2  0  0  0  0  0  0  0  0  0
   10.3328  -17.4799   16.5244 N   0  0  0  0  0  0  0  0  0  0  0  0
    9.8537  -16.9717   18.8441 C   0  0  0  0  0  0  0  0  0  0  0  0
   11.0443  -16.8049   19.1948 O   0  0  0  0  0  0  0  0  0  0  0  0
    6.8670  -12.4947   19.6608 C   0  0  0  0  0  0  0  0  0  0  0  0
    8.0070  -13.4488   19.6212 C   0  0  0  0  0  0  0  0  0  0  0  0
    8.1511  -14.4012   20.7302 C   0  0  2  0  0  0  0  0  0  0  0  0
    7.9782  -13.6936   22.0677 C   0  0  0  0  0  0  0  0  0  0  0  0
    9.1678  -15.4680   20.7006 C   0  0  2  0  0  0  0  0  0  0  0  0
    8.8374  -16.3207   19.5300 N   0  0  0  0  0  0  0  0  0  0  0  0
    9.3729  -16.3034   21.8758 C   0  0  0  0  0  0  0  0  0  0  0  0
    8.4193  -17.0157   22.3699 O   0  0  0  0  0  0  0  0  0  0  0  0
   14.7149  -19.1620   23.5165 N   0  0  0  0  0  0  0  0  0  0  0  0
   13.8873  -19.4086   24.6458 C   0  0  0  0  0  0  0  0  0  0  0  0
   14.3553  -20.2029   25.5346 O   0  0  0  0  0  0  0  0  0  0  0  0
   12.5573  -18.7845   24.8059 C   0  0  0  0  0  0  0  0  0  0  0  0
   12.1607  -17.8211   23.7474 C   0  0  0  0  0  0  0  0  0  0  0  0
   10.7495  -17.3450   23.7026 C   0  0  2  0  0  0  0  0  0  0  0  0
   10.6043  -16.4153   22.5583 N   0  0  0  0  0  0  0  0  0  0  0  0
   10.2807  -16.7502   24.9310 C   0  0  0  0  0  0  0  0  0  0  0  0
    9.8246  -17.4571   26.0545 O   0  0  0  0  0  0  0  0  0  0  0  0
   10.2531  -15.4782   25.0675 O   0  0  0  0  0  0  0  0  0  0  0  0
  2  1  1  0
  2  3  2  0
  4  2  1  0
  5  7  1  0
  5  4  1  0
  5  6  1  6
  7  8  2  0
  9 10  1  0
 11 10  1  0
 11 12  1  1
 13 14  1  6
 13 11  1  0
 14  7  1  0
 15 13  1  0
 16 15  2  0
 18 20  1  0
 18 17  1  0
 19 18  2  0
 21 20  1  0
 22 23  1  0
 22 21  1  1
 23 15  1  0
 24 22  1  0
 25 24  1  0
 26 24  2  0
M  END
$$$$
