NIQ.pdb
     RDKit          3D

 26 25  0  0  1  0  0  0  0  0999 V2000
    9.6657  -19.3230   15.7105 N   0  0  0  0  0  0  0  0  0  0  0  0
   10.8074  -19.1380   16.5133 C   0  0  0  0  0  0  0  0  0  0  0  0
   11.9311  -19.4304   16.0661 O   0  0  0  0  0  0  0  0  0  0  0  0
   10.6727  -18.6019   17.8736 C   0  0  0  0  0  0  0  0  0  0  0  0
    9.4199  -17.8100   18.0860 C   0  0  2  0  0  0  0  0  0  0  0  0
    9.0146  -17.0468   16.9492 N   0  0  0  0  0  0  0  0  0  0  0  0
    9.6714  -16.9191   19.2775 C   0  0  0  0  0  0  0  0  0  0  0  0
   10.7857  -17.0064   19.8425 O   0  0  0  0  0  0  0  0  0  0  0  0
    7.0000  -12.1198   19.6945 C   0  0  0  0  0  0  0  0  0  0  0  0
    8.0905  -13.1284   19.7628 C   0  0  0  0  0  0  0  0  0  0  0  0
    8.1108  -14.0495   20.9068 C   0  0  2  0  0  0  0  0  0  0  0  0
    7.9476  -13.2828   22.2126 C   0  0  0  0  0  0  0  0  0  0  0  0
    9.0335  -15.1979   20.9534 C   0  0  2  0  0  0  0  0  0  0  0  0
    8.7255  -16.0236   19.7576 N   0  0  0  0  0  0  0  0  0  0  0  0
    9.0750  -16.0438   22.1382 C   0  0  0  0  0  0  0  0  0  0  0  0
    8.1040  -16.8385   22.4322 O   0  0  0  0  0  0  0  0  0  0  0  0
   13.8021  -19.8609   24.6403 N   0  0  0  0  0  0  0  0  0  0  0  0
   13.5088  -18.8768   23.6572 C   0  0  0  0  0  0  0  0  0  0  0  0
   14.0869  -19.0126   22.5227 O   0  0  0  0  0  0  0  0  0  0  0  0
   12.5829  -17.7533   23.9111 C   0  0  0  0  0  0  0  0  0  0  0  0
   11.1376  -18.0950   23.9305 C   0  0  0  0  0  0  0  0  0  0  0  0
   10.1480  -17.0128   24.1942 C   0  0  2  0  0  0  0  0  0  0  0  0
   10.1576  -16.0783   23.0447 N   0  0  0  0  0  0  0  0  0  0  0  0
   10.3420  -16.3175   25.4437 C   0  0  0  0  0  0  0  0  0  0  0  0
   10.6216  -14.9485   25.5775 O   0  0  0  0  0  0  0  0  0  0  0  0
   10.2670  -16.9465   26.5554 O   0  0  0  0  0  0  0  0  0  0  0  0
  2  1  1  0
  2  3  2  0
  4  2  1  0
  5  7  1  0
  5  4  1  0
  5  6  1  6
  7  8  2  0
  9 10  1  0
 11 10  1  0
 11 12  1  1
 13 14  1  6
 13 11  1  0
 14  7  1  0
 15 13  1  0
 16 15  2  0
 18 20  1  0
 18 17  1  0
 19 18  2  0
 21 20  1  0
 22 23  1  0
 22 21  1  6
 23 15  1  0
 24 22  1  0
 25 24  1  0
 26 24  2  0
M  END
$$$$
