NIQ.pdb
     RDKit          3D

 26 25  0  0  1  0  0  0  0  0999 V2000
    5.4539  -18.2278   20.3634 N   0  0  0  0  0  0  0  0  0  0  0  0
    6.6966  -17.6225   20.0963 C   0  0  0  0  0  0  0  0  0  0  0  0
    7.1330  -17.5952   18.9314 O   0  0  0  0  0  0  0  0  0  0  0  0
    7.4753  -17.0255   21.1886 C   0  0  0  0  0  0  0  0  0  0  0  0
    7.4638  -15.5282   21.1859 C   0  0  2  0  0  0  0  0  0  0  0  0
    8.0216  -14.9445   20.0081 N   0  0  0  0  0  0  0  0  0  0  0  0
    8.2161  -15.0905   22.4184 C   0  0  0  0  0  0  0  0  0  0  0  0
    9.4670  -15.0750   22.3598 O   0  0  0  0  0  0  0  0  0  0  0  0
    7.3021  -11.5323   27.2805 C   0  0  0  0  0  0  0  0  0  0  0  0
    8.1515  -12.5686   26.6355 C   0  0  0  0  0  0  0  0  0  0  0  0
    7.5926  -13.3125   25.4990 C   0  0  2  0  0  0  0  0  0  0  0  0
    6.1398  -13.6835   25.7661 C   0  0  0  0  0  0  0  0  0  0  0  0
    8.3857  -14.3232   24.7765 C   0  0  2  0  0  0  0  0  0  0  0  0
    7.5782  -14.7119   23.5918 N   0  0  0  0  0  0  0  0  0  0  0  0
    8.8422  -15.5173   25.4742 C   0  0  0  0  0  0  0  0  0  0  0  0
    8.0778  -16.5443   25.6217 O   0  0  0  0  0  0  0  0  0  0  0  0
   13.3236  -16.4270   23.4521 N   0  0  0  0  0  0  0  0  0  0  0  0
   13.8115  -16.2742   24.7786 C   0  0  0  0  0  0  0  0  0  0  0  0
   14.9151  -15.6385   24.9117 O   0  0  0  0  0  0  0  0  0  0  0  0
   13.0929  -16.8081   25.9545 C   0  0  0  0  0  0  0  0  0  0  0  0
   11.7602  -17.4055   25.6845 C   0  0  0  0  0  0  0  0  0  0  0  0
   10.6007  -16.9791   26.5174 C   0  0  2  0  0  0  0  0  0  0  0  0
   10.1328  -15.6607   26.0299 N   0  0  0  0  0  0  0  0  0  0  0  0
   10.8608  -16.9571   27.9367 C   0  0  0  0  0  0  0  0  0  0  0  0
   11.2192  -18.0687   28.7150 O   0  0  0  0  0  0  0  0  0  0  0  0
   10.7721  -15.8642   28.5963 O   0  0  0  0  0  0  0  0  0  0  0  0
  2  1  1  0
  2  3  2  0
  4  2  1  0
  5  7  1  0
  5  4  1  0
  5  6  1  6
  7  8  2  0
  9 10  1  0
 11 10  1  0
 11 12  1  1
 13 14  1  6
 13 11  1  0
 14  7  1  0
 15 13  1  0
 16 15  2  0
 18 20  1  0
 18 17  1  0
 19 18  2  0
 21 20  1  0
 22 23  1  0
 22 21  1  6
 23 15  1  0
 24 22  1  0
 25 24  1  0
 26 24  2  0
M  END
$$$$
