NIQ.pdb
     RDKit          3D

 26 25  0  0  1  0  0  0  0  0999 V2000
    7.4753  -17.7131   18.5959 N   0  0  0  0  0  0  0  0  0  0  0  0
    6.7336  -17.1816   19.6679 C   0  0  0  0  0  0  0  0  0  0  0  0
    5.4927  -17.1270   19.5937 O   0  0  0  0  0  0  0  0  0  0  0  0
    7.4217  -16.6933   20.8696 C   0  0  0  0  0  0  0  0  0  0  0  0
    7.2278  -15.2299   21.1200 C   0  0  2  0  0  0  0  0  0  0  0  0
    7.6879  -14.3924   20.0588 N   0  0  0  0  0  0  0  0  0  0  0  0
    7.9445  -14.9160   22.4101 C   0  0  0  0  0  0  0  0  0  0  0  0
    9.1811  -14.7257   22.3557 O   0  0  0  0  0  0  0  0  0  0  0  0
    5.7633  -11.5685   25.9038 C   0  0  0  0  0  0  0  0  0  0  0  0
    6.7129  -12.3703   25.0873 C   0  0  0  0  0  0  0  0  0  0  0  0
    7.2359  -13.6178   25.6600 C   0  0  2  0  0  0  0  0  0  0  0  0
    7.6910  -13.3963   27.0964 C   0  0  0  0  0  0  0  0  0  0  0  0
    8.0645  -14.5413   24.8644 C   0  0  2  0  0  0  0  0  0  0  0  0
    7.2894  -14.8332   23.6313 N   0  0  0  0  0  0  0  0  0  0  0  0
    8.5321  -15.7862   25.4580 C   0  0  0  0  0  0  0  0  0  0  0  0
    7.7154  -16.7364   25.7599 O   0  0  0  0  0  0  0  0  0  0  0  0
   13.4429  -19.5083   24.0407 N   0  0  0  0  0  0  0  0  0  0  0  0
   12.6076  -18.5243   23.4448 C   0  0  0  0  0  0  0  0  0  0  0  0
   12.9539  -18.1077   22.2845 O   0  0  0  0  0  0  0  0  0  0  0  0
   11.3960  -18.0031   24.1115 C   0  0  0  0  0  0  0  0  0  0  0  0
   11.4727  -17.8746   25.5892 C   0  0  0  0  0  0  0  0  0  0  0  0
   10.2828  -17.3660   26.3279 C   0  0  2  0  0  0  0  0  0  0  0  0
    9.8876  -16.0644   25.7410 N   0  0  0  0  0  0  0  0  0  0  0  0
   10.4628  -17.2701   27.7564 C   0  0  0  0  0  0  0  0  0  0  0  0
   10.3415  -16.0949   28.5142 O   0  0  0  0  0  0  0  0  0  0  0  0
   10.7602  -18.3071   28.4446 O   0  0  0  0  0  0  0  0  0  0  0  0
  2  1  1  0
  2  3  2  0
  4  2  1  0
  5  7  1  0
  5  4  1  0
  5  6  1  6
  7  8  2  0
  9 10  1  0
 11 10  1  0
 11 12  1  1
 13 14  1  6
 13 11  1  0
 14  7  1  0
 15 13  1  0
 16 15  2  0
 18 20  1  0
 18 17  1  0
 19 18  2  0
 21 20  1  0
 22 23  1  0
 22 21  1  6
 23 15  1  0
 24 22  1  0
 25 24  1  0
 26 24  2  0
M  END
$$$$
