NIQ.pdb
     RDKit          3D

 26 25  0  0  1  0  0  0  0  0999 V2000
    4.7208  -17.1186   19.8767 N   0  0  0  0  0  0  0  0  0  0  0  0
    6.1051  -17.3384   20.0089 C   0  0  0  0  0  0  0  0  0  0  0  0
    6.7086  -18.0101   19.1529 O   0  0  0  0  0  0  0  0  0  0  0  0
    6.8344  -16.7770   21.1530 C   0  0  0  0  0  0  0  0  0  0  0  0
    6.7895  -15.2819   21.2190 C   0  0  2  0  0  0  0  0  0  0  0  0
    7.2055  -14.6340   20.0165 N   0  0  0  0  0  0  0  0  0  0  0  0
    7.6589  -14.8768   22.3838 C   0  0  0  0  0  0  0  0  0  0  0  0
    8.8937  -14.8036   22.1884 O   0  0  0  0  0  0  0  0  0  0  0  0
    5.9120  -11.2369   25.8845 C   0  0  0  0  0  0  0  0  0  0  0  0
    6.8365  -12.0440   25.0447 C   0  0  0  0  0  0  0  0  0  0  0  0
    7.3698  -13.2923   25.6059 C   0  0  2  0  0  0  0  0  0  0  0  0
    7.9907  -13.0404   26.9736 C   0  0  0  0  0  0  0  0  0  0  0  0
    8.0670  -14.2790   24.7617 C   0  0  2  0  0  0  0  0  0  0  0  0
    7.1434  -14.5885   23.6402 N   0  0  0  0  0  0  0  0  0  0  0  0
    8.5569  -15.5170   25.3518 C   0  0  0  0  0  0  0  0  0  0  0  0
    7.7534  -16.4679   25.6850 O   0  0  0  0  0  0  0  0  0  0  0  0
   13.5794  -20.4716   24.1113 N   0  0  0  0  0  0  0  0  0  0  0  0
   13.3545  -19.1597   24.6108 C   0  0  0  0  0  0  0  0  0  0  0  0
   14.2030  -18.2643   24.2673 O   0  0  0  0  0  0  0  0  0  0  0  0
   12.2037  -18.8270   25.4763 C   0  0  0  0  0  0  0  0  0  0  0  0
   11.5095  -17.5500   25.1707 C   0  0  0  0  0  0  0  0  0  0  0  0
   10.3570  -17.1386   26.0207 C   0  0  2  0  0  0  0  0  0  0  0  0
    9.9212  -15.7874   25.5977 N   0  0  0  0  0  0  0  0  0  0  0  0
   10.6123  -17.1927   27.4400 C   0  0  0  0  0  0  0  0  0  0  0  0
   10.7106  -18.3658   28.2043 O   0  0  0  0  0  0  0  0  0  0  0  0
   10.7694  -16.1159   28.1131 O   0  0  0  0  0  0  0  0  0  0  0  0
  2  1  1  0
  2  3  2  0
  4  2  1  0
  5  7  1  0
  5  4  1  0
  5  6  1  6
  7  8  2  0
  9 10  1  0
 11 10  1  0
 11 12  1  1
 13 14  1  6
 13 11  1  0
 14  7  1  0
 15 13  1  0
 16 15  2  0
 18 20  1  0
 18 17  1  0
 19 18  2  0
 21 20  1  0
 22 23  1  0
 22 21  1  6
 23 15  1  0
 24 22  1  0
 25 24  1  0
 26 24  2  0
M  END
$$$$
