NIQ.pdb
     RDKit          3D

 26 25  0  0  1  0  0  0  0  0999 V2000
    8.8632  -19.0941   20.2110 N   0  0  0  0  0  0  0  0  0  0  0  0
    7.9298  -18.2184   20.7974 C   0  0  0  0  0  0  0  0  0  0  0  0
    6.7679  -18.1672   20.3550 O   0  0  0  0  0  0  0  0  0  0  0  0
    8.3258  -17.3681   21.9270 C   0  0  0  0  0  0  0  0  0  0  0  0
    8.1402  -15.9045   21.6714 C   0  0  2  0  0  0  0  0  0  0  0  0
    8.8728  -15.4129   20.5486 N   0  0  0  0  0  0  0  0  0  0  0  0
    8.5445  -15.1923   22.9386 C   0  0  0  0  0  0  0  0  0  0  0  0
    9.7687  -15.0916   23.1825 O   0  0  0  0  0  0  0  0  0  0  0  0
    8.2226  -11.1891   26.4666 C   0  0  0  0  0  0  0  0  0  0  0  0
    7.1329  -12.1892   26.6206 C   0  0  0  0  0  0  0  0  0  0  0  0
    6.9587  -13.1916   25.5612 C   0  0  2  0  0  0  0  0  0  0  0  0
    5.6485  -13.9450   25.7491 C   0  0  0  0  0  0  0  0  0  0  0  0
    8.0916  -13.9966   25.0702 C   0  0  2  0  0  0  0  0  0  0  0  0
    7.6206  -14.6557   23.8250 N   0  0  0  0  0  0  0  0  0  0  0  0
    8.7102  -14.9827   25.9452 C   0  0  0  0  0  0  0  0  0  0  0  0
    9.2792  -14.6399   27.0496 O   0  0  0  0  0  0  0  0  0  0  0  0
    9.3082  -21.3139   24.8576 N   0  0  0  0  0  0  0  0  0  0  0  0
    9.9403  -21.1092   26.1144 C   0  0  0  0  0  0  0  0  0  0  0  0
   10.5114  -22.1280   26.6394 O   0  0  0  0  0  0  0  0  0  0  0  0
    9.9536  -19.7953   26.7908 C   0  0  0  0  0  0  0  0  0  0  0  0
    9.2923  -18.6831   26.0617 C   0  0  0  0  0  0  0  0  0  0  0  0
    9.3442  -17.3125   26.6437 C   0  0  2  0  0  0  0  0  0  0  0  0
    8.7346  -16.3693   25.6775 N   0  0  0  0  0  0  0  0  0  0  0  0
   10.6626  -16.8828   27.0433 C   0  0  0  0  0  0  0  0  0  0  0  0
   11.2002  -17.0021   28.3344 O   0  0  0  0  0  0  0  0  0  0  0  0
   11.4532  -16.3398   26.1963 O   0  0  0  0  0  0  0  0  0  0  0  0
  2  1  1  0
  2  3  2  0
  4  2  1  0
  5  7  1  0
  5  4  1  0
  5  6  1  6
  7  8  2  0
  9 10  1  0
 11 10  1  0
 11 12  1  1
 13 14  1  6
 13 11  1  0
 14  7  1  0
 15 13  1  0
 16 15  2  0
 18 20  1  0
 18 17  1  0
 19 18  2  0
 21 20  1  0
 22 23  1  0
 22 21  1  6
 23 15  1  0
 24 22  1  0
 25 24  1  0
 26 24  2  0
M  END
$$$$
