NIQ.pdb
     RDKit          3D

 26 25  0  0  1  0  0  0  0  0999 V2000
   10.7579  -18.8245   13.2301 N   0  0  0  0  0  0  0  0  0  0  0  0
    9.9705  -18.5993   14.3752 C   0  0  0  0  0  0  0  0  0  0  0  0
    8.9976  -19.3382   14.6110 O   0  0  0  0  0  0  0  0  0  0  0  0
   10.2960  -17.4965   15.2881 C   0  0  0  0  0  0  0  0  0  0  0  0
    9.2331  -16.4446   15.3626 C   0  0  2  0  0  0  0  0  0  0  0  0
    9.1148  -15.6528   14.1802 N   0  0  0  0  0  0  0  0  0  0  0  0
    9.5599  -15.5874   16.5605 C   0  0  0  0  0  0  0  0  0  0  0  0
   10.5904  -14.8780   16.5028 O   0  0  0  0  0  0  0  0  0  0  0  0
    8.5049  -11.8702   20.0081 C   0  0  0  0  0  0  0  0  0  0  0  0
    7.8827  -13.1514   20.4357 C   0  0  0  0  0  0  0  0  0  0  0  0
    7.9149  -14.2828   19.4994 C   0  0  2  0  0  0  0  0  0  0  0  0
    7.0088  -15.4055   19.9873 C   0  0  0  0  0  0  0  0  0  0  0  0
    9.1686  -14.7112   18.8535 C   0  0  2  0  0  0  0  0  0  0  0  0
    8.7701  -15.5608   17.7019 N   0  0  0  0  0  0  0  0  0  0  0  0
   10.1893  -15.3923   19.6377 C   0  0  0  0  0  0  0  0  0  0  0  0
   10.0675  -16.6315   19.9701 O   0  0  0  0  0  0  0  0  0  0  0  0
   16.6278  -15.3863   18.4151 N   0  0  0  0  0  0  0  0  0  0  0  0
   15.5352  -14.5881   18.8511 C   0  0  0  0  0  0  0  0  0  0  0  0
   15.7610  -13.3347   18.9852 O   0  0  0  0  0  0  0  0  0  0  0  0
   14.2003  -15.1563   19.1327 C   0  0  0  0  0  0  0  0  0  0  0  0
   13.7322  -15.0483   20.5381 C   0  0  0  0  0  0  0  0  0  0  0  0
   12.3690  -15.5428   20.8803 C   0  0  2  0  0  0  0  0  0  0  0  0
   11.3796  -14.7780   20.0859 N   0  0  0  0  0  0  0  0  0  0  0  0
   12.0574  -15.5087   22.2889 C   0  0  0  0  0  0  0  0  0  0  0  0
   10.9373  -14.8839   22.8591 O   0  0  0  0  0  0  0  0  0  0  0  0
   12.8284  -16.0755   23.1385 O   0  0  0  0  0  0  0  0  0  0  0  0
  2  1  1  0
  2  3  2  0
  4  2  1  0
  5  7  1  0
  5  4  1  0
  5  6  1  6
  7  8  2  0
  9 10  1  0
 11 10  1  0
 11 12  1  1
 13 14  1  6
 13 11  1  0
 14  7  1  0
 15 13  1  0
 16 15  2  0
 18 20  1  0
 18 17  1  0
 19 18  2  0
 21 20  1  0
 22 23  1  0
 22 21  1  1
 23 15  1  0
 24 22  1  0
 25 24  1  0
 26 24  2  0
M  END
$$$$
