AED.pdb
     RDKit          3D

 23 22  0  0  1  0  0  0  0  0999 V2000
   19.6319  -12.0363  -18.2706 C   0  0  0  0  0  0  0  0  0  0  0  0
   20.0646  -10.9797  -17.3012 C   0  0  2  0  0  0  0  0  0  0  0  0
   20.4087  -11.5777  -16.0305 N   0  0  0  0  0  0  0  0  0  0  0  0
   19.0642   -9.8959  -17.1527 C   0  0  0  0  0  0  0  0  0  0  0  0
   18.7209   -9.1924  -18.1359 O   0  0  0  0  0  0  0  0  0  0  0  0
   18.4635   -9.6151  -15.9079 N   0  0  0  0  0  0  0  0  0  0  0  0
   17.4685   -8.5228  -15.7439 C   0  0  1  0  0  0  0  0  0  0  0  0
   16.3962   -9.1091  -14.9029 C   0  0  0  0  0  0  0  0  0  0  0  0
   15.6752  -10.2916  -15.4512 C   0  0  0  0  0  0  0  0  0  0  0  0
   14.6781  -10.8404  -14.4986 C   0  0  0  0  0  0  0  0  0  0  0  0
   14.9880  -11.8281  -13.8050 O   0  0  0  0  0  0  0  0  0  0  0  0
   18.2198   -7.3944  -15.1795 C   0  0  0  0  0  0  0  0  0  0  0  0
   17.6157   -6.3739  -14.6761 O   0  0  0  0  0  0  0  0  0  0  0  0
   13.4259  -10.2859  -14.3652 O   0  0  0  0  0  0  0  0  0  0  0  0
   19.6322   -7.2781  -15.1088 N   0  0  0  0  0  0  0  0  0  0  0  0
   20.3099   -6.1298  -14.4899 C   0  0  1  0  0  0  0  0  0  0  0  0
   21.6349   -6.5748  -13.9175 C   0  0  0  0  0  0  0  0  0  0  0  0
   22.3346   -5.4406  -13.3093 C   0  0  0  0  0  0  0  0  0  0  0  0
   23.1246   -4.7159  -13.9518 O   0  0  0  0  0  0  0  0  0  0  0  0
   20.5550   -5.1571  -15.5761 C   0  0  0  0  0  0  0  0  0  0  0  0
   20.8899   -5.6657  -16.8488 O   0  0  0  0  0  0  0  0  0  0  0  0
   22.1683   -5.0864  -11.9619 O   0  0  0  0  0  0  0  0  0  0  0  0
   20.4915   -3.9021  -15.4669 O   0  0  0  0  0  0  0  0  0  0  0  0
  2  1  1  6
  2  3  1  0
  4  5  2  0
  4  2  1  0
  6  4  1  0
  7 12  1  0
  7  6  1  0
  7  8  1  1
  9  8  1  0
 10  9  1  0
 11 10  2  0
 12 15  1  0
 13 12  2  0
 14 10  1  0
 15 16  1  0
 16 20  1  0
 17 18  1  0
 16 17  1  6
 18 22  1  0
 19 18  2  0
 20 23  2  0
 20 21  1  0
M  END
$$$$
