AED.pdb
     RDKit          3D

 23 22  0  0  1  0  0  0  0  0999 V2000
   16.9354  -12.3482  -14.3367 C   0  0  0  0  0  0  0  0  0  0  0  0
   15.8116  -11.5682  -13.7268 C   0  0  2  0  0  0  0  0  0  0  0  0
   14.5882  -11.7944  -14.4636 N   0  0  0  0  0  0  0  0  0  0  0  0
   16.1227  -10.1247  -13.5960 C   0  0  0  0  0  0  0  0  0  0  0  0
   16.1718   -9.3788  -14.6063 O   0  0  0  0  0  0  0  0  0  0  0  0
   16.3744   -9.5375  -12.3386 N   0  0  0  0  0  0  0  0  0  0  0  0
   16.6857   -8.0910  -12.1948 C   0  0  1  0  0  0  0  0  0  0  0  0
   16.2419   -7.7418  -10.8229 C   0  0  0  0  0  0  0  0  0  0  0  0
   16.6449   -6.4067  -10.2996 C   0  0  0  0  0  0  0  0  0  0  0  0
   16.1643   -6.1709   -8.9153 C   0  0  0  0  0  0  0  0  0  0  0  0
   15.2082   -5.3926   -8.7341 O   0  0  0  0  0  0  0  0  0  0  0  0
   18.1202   -7.9716  -12.4846 C   0  0  0  0  0  0  0  0  0  0  0  0
   18.9528   -8.8879  -12.1284 O   0  0  0  0  0  0  0  0  0  0  0  0
   16.7480   -6.7892   -7.8334 O   0  0  0  0  0  0  0  0  0  0  0  0
   18.7530   -6.8969  -13.1614 N   0  0  0  0  0  0  0  0  0  0  0  0
   20.1896   -6.8829  -13.4723 C   0  0  1  0  0  0  0  0  0  0  0  0
   20.4608   -7.7960  -14.6445 C   0  0  0  0  0  0  0  0  0  0  0  0
   21.8565   -7.6755  -15.0728 C   0  0  0  0  0  0  0  0  0  0  0  0
   22.7577   -7.2558  -14.3154 O   0  0  0  0  0  0  0  0  0  0  0  0
   20.5182   -5.4935  -13.8561 C   0  0  0  0  0  0  0  0  0  0  0  0
   19.4489   -4.6325  -14.1814 O   0  0  0  0  0  0  0  0  0  0  0  0
   22.2817   -8.0222  -16.3642 O   0  0  0  0  0  0  0  0  0  0  0  0
   21.6787   -5.0035  -13.9197 O   0  0  0  0  0  0  0  0  0  0  0  0
  2  1  1  6
  2  3  1  0
  4  5  2  0
  4  2  1  0
  6  4  1  0
  7 12  1  0
  7  6  1  0
  7  8  1  1
  9  8  1  0
 10  9  1  0
 11 10  2  0
 12 15  1  0
 13 12  2  0
 14 10  1  0
 15 16  1  0
 16 20  1  0
 17 18  1  0
 16 17  1  6
 18 22  1  0
 19 18  2  0
 20 23  2  0
 20 21  1  0
M  END
$$$$
