AED.pdb
     RDKit          3D

 23 22  0  0  1  0  0  0  0  0999 V2000
   25.8865  -10.8014  -15.1483 C   0  0  0  0  0  0  0  0  0  0  0  0
   24.8259  -11.5607  -15.8845 C   0  0  2  0  0  0  0  0  0  0  0  0
   25.3864  -12.1918  -17.0584 N   0  0  0  0  0  0  0  0  0  0  0  0
   23.6473  -10.7236  -16.2129 C   0  0  0  0  0  0  0  0  0  0  0  0
   23.6199  -10.0254  -17.2575 O   0  0  0  0  0  0  0  0  0  0  0  0
   22.5183  -10.6795  -15.3687 N   0  0  0  0  0  0  0  0  0  0  0  0
   21.2903   -9.9270  -15.7372 C   0  0  1  0  0  0  0  0  0  0  0  0
   20.1722  -10.8546  -15.4366 C   0  0  0  0  0  0  0  0  0  0  0  0
   19.8059  -11.8391  -16.4927 C   0  0  0  0  0  0  0  0  0  0  0  0
   18.6228  -12.6552  -16.1222 C   0  0  0  0  0  0  0  0  0  0  0  0
   17.7356  -12.8513  -16.9749 O   0  0  0  0  0  0  0  0  0  0  0  0
   21.3518   -8.6804  -14.9636 C   0  0  0  0  0  0  0  0  0  0  0  0
   22.1607   -8.5496  -13.9695 O   0  0  0  0  0  0  0  0  0  0  0  0
   18.4848  -13.1971  -14.8649 O   0  0  0  0  0  0  0  0  0  0  0  0
   20.5788   -7.5125  -15.1914 N   0  0  0  0  0  0  0  0  0  0  0  0
   20.7531   -6.2749  -14.4178 C   0  0  1  0  0  0  0  0  0  0  0  0
   22.1761   -5.7884  -14.5584 C   0  0  0  0  0  0  0  0  0  0  0  0
   22.3565   -4.5245  -13.8400 C   0  0  0  0  0  0  0  0  0  0  0  0
   22.4178   -3.4219  -14.4253 O   0  0  0  0  0  0  0  0  0  0  0  0
   19.8402   -5.2781  -15.0170 C   0  0  0  0  0  0  0  0  0  0  0  0
   19.3598   -4.2449  -14.1850 O   0  0  0  0  0  0  0  0  0  0  0  0
   22.4736   -4.4611  -12.4432 O   0  0  0  0  0  0  0  0  0  0  0  0
   19.4483   -5.2677  -16.2159 O   0  0  0  0  0  0  0  0  0  0  0  0
  2  1  1  6
  2  3  1  0
  4  5  2  0
  4  2  1  0
  6  4  1  0
  7 12  1  0
  7  6  1  0
  7  8  1  1
  9  8  1  0
 10  9  1  0
 11 10  2  0
 12 15  1  0
 13 12  2  0
 14 10  1  0
 15 16  1  0
 16 20  1  0
 17 18  1  0
 16 17  1  6
 18 22  1  0
 19 18  2  0
 20 23  2  0
 20 21  1  0
M  END
$$$$
