AED.pdb
     RDKit          3D

 23 22  0  0  1  0  0  0  0  0999 V2000
   14.8878   -6.6641   -6.8831 C   0  0  0  0  0  0  0  0  0  0  0  0
   14.3046   -7.5096   -7.9733 C   0  0  2  0  0  0  0  0  0  0  0  0
   13.3709   -8.4649   -7.4200 N   0  0  0  0  0  0  0  0  0  0  0  0
   15.3419   -8.1645   -8.8056 C   0  0  0  0  0  0  0  0  0  0  0  0
   16.0526   -9.0921   -8.3432 O   0  0  0  0  0  0  0  0  0  0  0  0
   15.5690   -7.7722  -10.1412 N   0  0  0  0  0  0  0  0  0  0  0  0
   16.5468   -8.4764  -11.0117 C   0  0  1  0  0  0  0  0  0  0  0  0
   15.7179   -9.1887  -12.0150 C   0  0  0  0  0  0  0  0  0  0  0  0
   16.4322   -9.8164  -13.1615 C   0  0  0  0  0  0  0  0  0  0  0  0
   16.6233  -11.2771  -12.9802 C   0  0  0  0  0  0  0  0  0  0  0  0
   15.6236  -12.0208  -12.9891 O   0  0  0  0  0  0  0  0  0  0  0  0
   17.4478   -7.4294  -11.5101 C   0  0  0  0  0  0  0  0  0  0  0  0
   17.0161   -6.2436  -11.7693 O   0  0  0  0  0  0  0  0  0  0  0  0
   17.8730  -11.8251  -12.8035 O   0  0  0  0  0  0  0  0  0  0  0  0
   18.8383   -7.5666  -11.7569 N   0  0  0  0  0  0  0  0  0  0  0  0
   19.6694   -6.4723  -12.2791 C   0  0  1  0  0  0  0  0  0  0  0  0
   21.1282   -6.8445  -12.1567 C   0  0  0  0  0  0  0  0  0  0  0  0
   21.9723   -5.7968  -12.7363 C   0  0  0  0  0  0  0  0  0  0  0  0
   21.5356   -4.6588  -13.0129 O   0  0  0  0  0  0  0  0  0  0  0  0
   19.3243   -6.3348  -13.7101 C   0  0  0  0  0  0  0  0  0  0  0  0
   19.2877   -5.0334  -14.2539 O   0  0  0  0  0  0  0  0  0  0  0  0
   23.3314   -5.9955  -13.0225 O   0  0  0  0  0  0  0  0  0  0  0  0
   19.0570   -7.2843  -14.4963 O   0  0  0  0  0  0  0  0  0  0  0  0
  2  1  1  1
  2  3  1  0
  4  5  2  0
  4  2  1  0
  6  4  1  0
  7 12  1  0
  7  6  1  0
  7  8  1  6
  9  8  1  0
 10  9  1  0
 11 10  2  0
 12 15  1  0
 13 12  2  0
 14 10  1  0
 15 16  1  0
 16 20  1  0
 17 18  1  0
 16 17  1  6
 18 22  1  0
 19 18  2  0
 20 23  2  0
 20 21  1  0
M  END
$$$$
