AED.pdb
     RDKit          3D

 23 22  0  0  1  0  0  0  0  0999 V2000
   19.3737  -12.7204  -16.4072 C   0  0  0  0  0  0  0  0  0  0  0  0
   18.4297  -11.7289  -15.7997 C   0  0  2  0  0  0  0  0  0  0  0  0
   17.0614  -12.1149  -16.0630 N   0  0  0  0  0  0  0  0  0  0  0  0
   18.7072  -10.3376  -16.2298 C   0  0  0  0  0  0  0  0  0  0  0  0
   19.1337  -10.0902  -17.3858 O   0  0  0  0  0  0  0  0  0  0  0  0
   18.5041   -9.2450  -15.3615 N   0  0  0  0  0  0  0  0  0  0  0  0
   18.6383   -7.8384  -15.8234 C   0  0  1  0  0  0  0  0  0  0  0  0
   17.4488   -7.1430  -15.2732 C   0  0  0  0  0  0  0  0  0  0  0  0
   17.4319   -5.6563  -15.3620 C   0  0  0  0  0  0  0  0  0  0  0  0
   16.1648   -5.0718  -14.8562 C   0  0  0  0  0  0  0  0  0  0  0  0
   15.2656   -5.8369  -14.4577 O   0  0  0  0  0  0  0  0  0  0  0  0
   19.9535   -7.3957  -15.3436 C   0  0  0  0  0  0  0  0  0  0  0  0
   20.3954   -7.7463  -14.1853 O   0  0  0  0  0  0  0  0  0  0  0  0
   15.9621   -3.7113  -14.8179 O   0  0  0  0  0  0  0  0  0  0  0  0
   20.8702   -6.5727  -16.0476 N   0  0  0  0  0  0  0  0  0  0  0  0
   22.1432   -6.1180  -15.4701 C   0  0  1  0  0  0  0  0  0  0  0  0
   23.0764   -5.6923  -16.5788 C   0  0  0  0  0  0  0  0  0  0  0  0
   24.3018   -5.1150  -16.0207 C   0  0  0  0  0  0  0  0  0  0  0  0
   24.5115   -5.0448  -14.7906 O   0  0  0  0  0  0  0  0  0  0  0  0
   21.8229   -4.9438  -14.6307 C   0  0  0  0  0  0  0  0  0  0  0  0
   22.3993   -4.8801  -13.3445 O   0  0  0  0  0  0  0  0  0  0  0  0
   25.3277   -4.5994  -16.8269 O   0  0  0  0  0  0  0  0  0  0  0  0
   21.0739   -3.9850  -14.9633 O   0  0  0  0  0  0  0  0  0  0  0  0
  2  1  1  6
  2  3  1  0
  4  5  2  0
  4  2  1  0
  6  4  1  0
  7 12  1  0
  7  6  1  0
  7  8  1  1
  9  8  1  0
 10  9  1  0
 11 10  2  0
 12 15  1  0
 13 12  2  0
 14 10  1  0
 15 16  1  0
 16 20  1  0
 17 18  1  0
 16 17  1  6
 18 22  1  0
 19 18  2  0
 20 23  2  0
 20 21  1  0
M  END
$$$$
