AED.pdb
     RDKit          3D

 23 22  0  0  1  0  0  0  0  0999 V2000
   15.0797  -11.6011  -16.2274 C   0  0  0  0  0  0  0  0  0  0  0  0
   16.4626  -11.8521  -15.7098 C   0  0  2  0  0  0  0  0  0  0  0  0
   16.4692  -13.0075  -14.8406 N   0  0  0  0  0  0  0  0  0  0  0  0
   17.0527  -10.6604  -15.0545 C   0  0  0  0  0  0  0  0  0  0  0  0
   16.8070  -10.3952  -13.8508 O   0  0  0  0  0  0  0  0  0  0  0  0
   17.9075   -9.7838  -15.7545 N   0  0  0  0  0  0  0  0  0  0  0  0
   18.4371   -8.5407  -15.1347 C   0  0  1  0  0  0  0  0  0  0  0  0
   19.8788   -8.5267  -15.4840 C   0  0  0  0  0  0  0  0  0  0  0  0
   20.8011   -9.2749  -14.5849 C   0  0  0  0  0  0  0  0  0  0  0  0
   22.2260   -9.1039  -14.9639 C   0  0  0  0  0  0  0  0  0  0  0  0
   22.9536   -8.3780  -14.2595 O   0  0  0  0  0  0  0  0  0  0  0  0
   17.6079   -7.4547  -15.6725 C   0  0  0  0  0  0  0  0  0  0  0  0
   16.9251   -7.6076  -16.7542 O   0  0  0  0  0  0  0  0  0  0  0  0
   22.7583   -9.7259  -16.0699 O   0  0  0  0  0  0  0  0  0  0  0  0
   17.4474   -6.1629  -15.1077 N   0  0  0  0  0  0  0  0  0  0  0  0
   16.5287   -5.1572  -15.6602 C   0  0  1  0  0  0  0  0  0  0  0  0
   15.1134   -5.6814  -15.6027 C   0  0  0  0  0  0  0  0  0  0  0  0
   14.1691   -4.6495  -16.0380 C   0  0  0  0  0  0  0  0  0  0  0  0
   13.3852   -4.0801  -15.2484 O   0  0  0  0  0  0  0  0  0  0  0  0
   16.6397   -3.9689  -14.7875 C   0  0  0  0  0  0  0  0  0  0  0  0
   17.4850   -4.0588  -13.6614 O   0  0  0  0  0  0  0  0  0  0  0  0
   14.0767   -4.2263  -17.3726 O   0  0  0  0  0  0  0  0  0  0  0  0
   16.0416   -2.8719  -14.9600 O   0  0  0  0  0  0  0  0  0  0  0  0
  2  1  1  1
  2  3  1  0
  4  5  2  0
  4  2  1  0
  6  4  1  0
  7 12  1  0
  7  6  1  0
  7  8  1  6
  9  8  1  0
 10  9  1  0
 11 10  2  0
 12 15  1  0
 13 12  2  0
 14 10  1  0
 15 16  1  0
 16 20  1  0
 17 18  1  0
 16 17  1  1
 18 22  1  0
 19 18  2  0
 20 23  2  0
 20 21  1  0
M  END
$$$$
