AED.pdb
     RDKit          3D

 23 22  0  0  1  0  0  0  0  0999 V2000
   21.6724  -12.4601  -18.4084 C   0  0  0  0  0  0  0  0  0  0  0  0
   21.8712  -11.6526  -17.1627 C   0  0  2  0  0  0  0  0  0  0  0  0
   21.9091  -12.5191  -16.0058 N   0  0  0  0  0  0  0  0  0  0  0  0
   20.8665  -10.5725  -17.0153 C   0  0  0  0  0  0  0  0  0  0  0  0
   20.8214   -9.6149  -17.8280 O   0  0  0  0  0  0  0  0  0  0  0  0
   19.9287  -10.5792  -15.9620 N   0  0  0  0  0  0  0  0  0  0  0  0
   18.8989   -9.5165  -15.8197 C   0  0  1  0  0  0  0  0  0  0  0  0
   17.7050  -10.2142  -15.2825 C   0  0  0  0  0  0  0  0  0  0  0  0
   16.9365  -11.0692  -16.2297 C   0  0  0  0  0  0  0  0  0  0  0  0
   15.7636  -11.7143  -15.5884 C   0  0  0  0  0  0  0  0  0  0  0  0
   14.8504  -12.1576  -16.3110 O   0  0  0  0  0  0  0  0  0  0  0  0
   19.5141   -8.4908  -14.9678 C   0  0  0  0  0  0  0  0  0  0  0  0
   19.7703   -8.7188  -13.7260 O   0  0  0  0  0  0  0  0  0  0  0  0
   15.6629  -11.8329  -14.2212 O   0  0  0  0  0  0  0  0  0  0  0  0
   19.8948   -7.1842  -15.3694 N   0  0  0  0  0  0  0  0  0  0  0  0
   20.4953   -6.2080  -14.4490 C   0  0  1  0  0  0  0  0  0  0  0  0
   21.9410   -5.9839  -14.8245 C   0  0  0  0  0  0  0  0  0  0  0  0
   22.5348   -4.9500  -13.9733 C   0  0  0  0  0  0  0  0  0  0  0  0
   23.0627   -3.9175  -14.4395 O   0  0  0  0  0  0  0  0  0  0  0  0
   19.7468   -4.9467  -14.6347 C   0  0  0  0  0  0  0  0  0  0  0  0
   18.7836   -4.9011  -15.6646 O   0  0  0  0  0  0  0  0  0  0  0  0
   22.5537   -5.0447  -12.5735 O   0  0  0  0  0  0  0  0  0  0  0  0
   19.8925   -3.8978  -13.9495 O   0  0  0  0  0  0  0  0  0  0  0  0
  2  1  1  6
  2  3  1  0
  4  5  2  0
  4  2  1  0
  6  4  1  0
  7 12  1  0
  7  6  1  0
  7  8  1  1
  9  8  1  0
 10  9  1  0
 11 10  2  0
 12 15  1  0
 13 12  2  0
 14 10  1  0
 15 16  1  0
 16 20  1  0
 17 18  1  0
 16 17  1  6
 18 22  1  0
 19 18  2  0
 20 23  2  0
 20 21  1  0
M  END
$$$$
