AED.pdb
     RDKit          3D

 23 22  0  0  1  0  0  0  0  0999 V2000
   18.4997  -12.2902  -15.3907 C   0  0  0  0  0  0  0  0  0  0  0  0
   18.5606  -10.9368  -16.0294 C   0  0  2  0  0  0  0  0  0  0  0  0
   18.7631  -11.0655  -17.4553 N   0  0  0  0  0  0  0  0  0  0  0  0
   19.5724  -10.0535  -15.4019 C   0  0  0  0  0  0  0  0  0  0  0  0
   19.5531   -9.8223  -14.1667 O   0  0  0  0  0  0  0  0  0  0  0  0
   20.5894   -9.4424  -16.1644 N   0  0  0  0  0  0  0  0  0  0  0  0
   21.6668   -8.6351  -15.5341 C   0  0  1  0  0  0  0  0  0  0  0  0
   22.8927   -8.9768  -16.2967 C   0  0  0  0  0  0  0  0  0  0  0  0
   23.7283  -10.0926  -15.7719 C   0  0  0  0  0  0  0  0  0  0  0  0
   24.9688  -10.2930  -16.5619 C   0  0  0  0  0  0  0  0  0  0  0  0
   25.9832   -9.6317  -16.2682 O   0  0  0  0  0  0  0  0  0  0  0  0
   21.2015   -7.2442  -15.6037 C   0  0  0  0  0  0  0  0  0  0  0  0
   20.2987   -6.8827  -16.4487 O   0  0  0  0  0  0  0  0  0  0  0  0
   25.0230  -11.1878  -17.6057 O   0  0  0  0  0  0  0  0  0  0  0  0
   21.6501   -6.1678  -14.7954 N   0  0  0  0  0  0  0  0  0  0  0  0
   21.0907   -4.8116  -14.8874 C   0  0  1  0  0  0  0  0  0  0  0  0
   19.6156   -4.8516  -14.5650 C   0  0  0  0  0  0  0  0  0  0  0  0
   19.0670   -3.4941  -14.5161 C   0  0  0  0  0  0  0  0  0  0  0  0
   19.4962   -2.5698  -15.2396 O   0  0  0  0  0  0  0  0  0  0  0  0
   21.7873   -4.0043  -13.8632 C   0  0  0  0  0  0  0  0  0  0  0  0
   21.4903   -2.6264  -13.8004 O   0  0  0  0  0  0  0  0  0  0  0  0
   18.0207   -3.1341  -13.6534 O   0  0  0  0  0  0  0  0  0  0  0  0
   22.6309   -4.4397  -13.0328 O   0  0  0  0  0  0  0  0  0  0  0  0
  2  1  1  1
  2  3  1  0
  4  5  2  0
  4  2  1  0
  6  4  1  0
  7 12  1  0
  7  6  1  0
  7  8  1  6
  9  8  1  0
 10  9  1  0
 11 10  2  0
 12 15  1  0
 13 12  2  0
 14 10  1  0
 15 16  1  0
 16 20  1  0
 17 18  1  0
 16 17  1  1
 18 22  1  0
 19 18  2  0
 20 23  2  0
 20 21  1  0
M  END
$$$$
