TAE.pdb
     RDKit          3D

 22 21  0  0  1  0  0  0  0  0999 V2000
   -5.5740  -26.7865   28.2264 C   0  0  0  0  0  0  0  0  0  0  0  0
   -4.5111  -26.0024   27.4580 C   0  0  1  0  0  0  0  0  0  0  0  0
   -4.3998  -26.6912   26.2244 O   0  0  0  0  0  0  0  0  0  0  0  0
   -4.9367  -24.6132   27.1167 C   0  0  2  0  0  0  0  0  0  0  0  0
   -3.9409  -24.0684   26.2131 N   0  0  0  0  0  0  0  0  0  0  0  0
   -5.1699  -23.7389   28.2831 C   0  0  0  0  0  0  0  0  0  0  0  0
   -4.2270  -23.5377   29.0897 O   0  0  0  0  0  0  0  0  0  0  0  0
   -7.9844  -21.5898   29.6805 C   0  0  0  0  0  0  0  0  0  0  0  0
   -6.7106  -22.4052   29.7859 C   0  0  2  0  0  0  0  0  0  0  0  0
   -6.4021  -23.0977   28.5655 N   0  0  0  0  0  0  0  0  0  0  0  0
   -6.8010  -23.2974   30.9538 C   0  0  0  0  0  0  0  0  0  0  0  0
   -6.8238  -22.9132   32.1427 O   0  0  0  0  0  0  0  0  0  0  0  0
   -6.8672  -24.6959   30.7174 N   0  0  0  0  0  0  0  0  0  0  0  0
   -6.8591  -25.6293   31.8924 C   0  0  1  0  0  0  0  0  0  0  0  0
   -8.2412  -26.1279   32.0261 C   0  0  0  0  0  0  0  0  0  0  0  0
   -8.5958  -27.1158   33.0504 C   0  0  0  0  0  0  0  0  0  0  0  0
  -10.0145  -27.4898   33.1396 C   0  0  0  0  0  0  0  0  0  0  0  0
  -10.4655  -28.4644   32.4457 O   0  0  0  0  0  0  0  0  0  0  0  0
   -5.8082  -26.6040   31.5928 C   0  0  0  0  0  0  0  0  0  0  0  0
   -6.0347  -27.8667   31.5311 O   0  0  0  0  0  0  0  0  0  0  0  0
  -10.9151  -26.8330   33.9554 O   0  0  0  0  0  0  0  0  0  0  0  0
   -4.4973  -26.2527   31.3475 O   0  0  0  0  0  0  0  0  0  0  0  0
  2  1  1  1
  2  4  1  0
  3  2  1  0
  4  5  1  6
  6 10  1  0
  6  4  1  0
  7  6  2  0
  9  8  1  6
  9 10  1  0
  9 11  1  0
 11 13  1  0
 12 11  2  0
 13 14  1  0
 14 15  1  6
 14 19  1  0
 15 16  1  0
 17 18  2  0
 17 16  1  0
 19 22  1  0
 20 19  2  0
 21 17  1  0
M  END
$$$$
