TAE.pdb
     RDKit          3D

 22 21  0  0  1  0  0  0  0  0999 V2000
    8.0002  -16.5140   18.1900 C   0  0  0  0  0  0  0  0  0  0  0  0
    8.5304  -15.1501   17.7499 C   0  0  1  0  0  0  0  0  0  0  0  0
    8.0283  -14.9937   16.4338 O   0  0  0  0  0  0  0  0  0  0  0  0
    7.9687  -14.0167   18.5420 C   0  0  2  0  0  0  0  0  0  0  0  0
    8.2624  -12.7965   17.8142 N   0  0  0  0  0  0  0  0  0  0  0  0
    8.4330  -13.9571   19.9421 C   0  0  0  0  0  0  0  0  0  0  0  0
    9.6475  -13.7264   20.1701 O   0  0  0  0  0  0  0  0  0  0  0  0
    6.9145  -14.3666   23.4164 C   0  0  0  0  0  0  0  0  0  0  0  0
    8.0540  -14.3344   22.4170 C   0  0  2  0  0  0  0  0  0  0  0  0
    7.5941  -14.1445   21.0691 N   0  0  0  0  0  0  0  0  0  0  0  0
    8.8807  -15.5412   22.5847 C   0  0  0  0  0  0  0  0  0  0  0  0
    8.8082  -16.5593   21.8637 O   0  0  0  0  0  0  0  0  0  0  0  0
    9.8301  -15.5542   23.6404 N   0  0  0  0  0  0  0  0  0  0  0  0
   10.7329  -16.7440   23.7867 C   0  0  1  0  0  0  0  0  0  0  0  0
   11.9840  -16.3944   23.0873 C   0  0  0  0  0  0  0  0  0  0  0  0
   13.1378  -17.2996   23.0981 C   0  0  0  0  0  0  0  0  0  0  0  0
   14.3287  -16.8554   22.3599 C   0  0  0  0  0  0  0  0  0  0  0  0
   15.0606  -15.9176   22.8283 O   0  0  0  0  0  0  0  0  0  0  0  0
   10.8032  -16.9893   25.2287 C   0  0  0  0  0  0  0  0  0  0  0  0
   11.2504  -18.0878   25.7213 O   0  0  0  0  0  0  0  0  0  0  0  0
   14.7169  -17.4099   21.1558 O   0  0  0  0  0  0  0  0  0  0  0  0
   10.4039  -16.0677   26.1738 O   0  0  0  0  0  0  0  0  0  0  0  0
  2  1  1  1
  2  4  1  0
  3  2  1  0
  4  5  1  6
  6 10  1  0
  6  4  1  0
  7  6  2  0
  9  8  1  1
  9 10  1  0
  9 11  1  0
 11 13  1  0
 12 11  2  0
 13 14  1  0
 14 15  1  1
 14 19  1  0
 15 16  1  0
 17 18  2  0
 17 16  1  0
 19 22  1  0
 20 19  2  0
 21 17  1  0
M  END
$$$$
