TAE.pdb
     RDKit          3D

 22 21  0  0  1  0  0  0  0  0999 V2000
    9.3004  -15.6220   17.6152 C   0  0  0  0  0  0  0  0  0  0  0  0
    7.8325  -15.2305   17.7794 C   0  0  1  0  0  0  0  0  0  0  0  0
    7.2626  -16.3192   18.4855 O   0  0  0  0  0  0  0  0  0  0  0  0
    7.6367  -14.0308   18.6454 C   0  0  2  0  0  0  0  0  0  0  0  0
    8.0760  -12.8757   17.8854 N   0  0  0  0  0  0  0  0  0  0  0  0
    8.2930  -14.1131   19.9652 C   0  0  0  0  0  0  0  0  0  0  0  0
    9.5382  -13.9552   20.0354 O   0  0  0  0  0  0  0  0  0  0  0  0
    7.2226  -14.5726   23.5956 C   0  0  0  0  0  0  0  0  0  0  0  0
    8.2341  -14.4746   22.4706 C   0  0  2  0  0  0  0  0  0  0  0  0
    7.6094  -14.3618   21.1817 N   0  0  0  0  0  0  0  0  0  0  0  0
    9.1745  -15.6037   22.5641 C   0  0  0  0  0  0  0  0  0  0  0  0
    9.0712  -16.6710   21.9223 O   0  0  0  0  0  0  0  0  0  0  0  0
   10.2802  -15.4756   23.4456 N   0  0  0  0  0  0  0  0  0  0  0  0
   11.2238  -16.6329   23.5954 C   0  0  1  0  0  0  0  0  0  0  0  0
   12.5685  -16.1030   23.2992 C   0  0  0  0  0  0  0  0  0  0  0  0
   13.7665  -16.9296   23.4790 C   0  0  0  0  0  0  0  0  0  0  0  0
   15.0526  -16.3068   23.1348 C   0  0  0  0  0  0  0  0  0  0  0  0
   15.3379  -16.0577   21.9137 O   0  0  0  0  0  0  0  0  0  0  0  0
   10.9759  -17.1500   24.9428 C   0  0  0  0  0  0  0  0  0  0  0  0
   11.4827  -18.2526   25.3633 O   0  0  0  0  0  0  0  0  0  0  0  0
   15.9978  -15.9618   24.0811 O   0  0  0  0  0  0  0  0  0  0  0  0
   10.1883  -16.5005   25.8700 O   0  0  0  0  0  0  0  0  0  0  0  0
  2  1  1  1
  2  4  1  0
  3  2  1  0
  4  5  1  6
  6 10  1  0
  6  4  1  0
  7  6  2  0
  9  8  1  1
  9 10  1  0
  9 11  1  0
 11 13  1  0
 12 11  2  0
 13 14  1  0
 14 15  1  1
 14 19  1  0
 15 16  1  0
 17 18  2  0
 17 16  1  0
 19 22  1  0
 20 19  2  0
 21 17  1  0
M  END
$$$$
