TAE.pdb
     RDKit          3D

 22 21  0  0  1  0  0  0  0  0999 V2000
    7.5597  -12.4271   18.5618 C   0  0  0  0  0  0  0  0  0  0  0  0
    8.3032  -13.5353   19.3061 C   0  0  1  0  0  0  0  0  0  0  0  0
    8.8450  -12.8835   20.4421 O   0  0  0  0  0  0  0  0  0  0  0  0
    7.3990  -14.5988   19.8342 C   0  0  2  0  0  0  0  0  0  0  0  0
    6.3247  -13.9343   20.5477 N   0  0  0  0  0  0  0  0  0  0  0  0
    8.0709  -15.6200   20.6618 C   0  0  0  0  0  0  0  0  0  0  0  0
    8.0074  -15.5255   21.9137 O   0  0  0  0  0  0  0  0  0  0  0  0
   10.1685  -18.7528   20.0736 C   0  0  0  0  0  0  0  0  0  0  0  0
    9.5310  -17.6719   20.9244 C   0  0  2  0  0  0  0  0  0  0  0  0
    8.7960  -16.7198   20.1385 N   0  0  0  0  0  0  0  0  0  0  0  0
   10.5616  -17.0524   21.7741 C   0  0  0  0  0  0  0  0  0  0  0  0
   11.2440  -16.0560   21.4531 O   0  0  0  0  0  0  0  0  0  0  0  0
   10.8011  -17.6247   23.0513 N   0  0  0  0  0  0  0  0  0  0  0  0
   11.7894  -16.9631   23.9665 C   0  0  1  0  0  0  0  0  0  0  0  0
   11.5009  -17.4785   25.3185 C   0  0  0  0  0  0  0  0  0  0  0  0
   12.3336  -17.1052   26.4666 C   0  0  0  0  0  0  0  0  0  0  0  0
   12.0484  -17.7899   27.7356 C   0  0  0  0  0  0  0  0  0  0  0  0
   11.1550  -17.3295   28.5258 O   0  0  0  0  0  0  0  0  0  0  0  0
   13.1003  -17.2638   23.3871 C   0  0  0  0  0  0  0  0  0  0  0  0
   14.1074  -16.4768   23.5120 O   0  0  0  0  0  0  0  0  0  0  0  0
   12.7061  -18.9369   28.1352 O   0  0  0  0  0  0  0  0  0  0  0  0
   13.3653  -18.4108   22.6687 O   0  0  0  0  0  0  0  0  0  0  0  0
  2  1  1  6
  2  4  1  0
  3  2  1  0
  4  5  1  1
  6 10  1  0
  6  4  1  0
  7  6  2  0
  9  8  1  6
  9 10  1  0
  9 11  1  0
 11 13  1  0
 12 11  2  0
 13 14  1  0
 14 15  1  1
 14 19  1  0
 15 16  1  0
 17 18  2  0
 17 16  1  0
 19 22  1  0
 20 19  2  0
 21 17  1  0
M  END
$$$$
