TAE.pdb
     RDKit          3D

 22 21  0  0  1  0  0  0  0  0999 V2000
    8.6479  -16.3983   18.7697 C   0  0  0  0  0  0  0  0  0  0  0  0
    9.0737  -15.0239   18.2553 C   0  0  1  0  0  0  0  0  0  0  0  0
    8.6504  -15.0160   16.9027 O   0  0  0  0  0  0  0  0  0  0  0  0
    8.3528  -13.8979   18.9186 C   0  0  2  0  0  0  0  0  0  0  0  0
    8.6459  -12.6950   18.1623 N   0  0  0  0  0  0  0  0  0  0  0  0
    8.6512  -13.7403   20.3558 C   0  0  0  0  0  0  0  0  0  0  0  0
    9.7171  -13.1671   20.6957 O   0  0  0  0  0  0  0  0  0  0  0  0
    6.8868  -14.1895   23.6742 C   0  0  0  0  0  0  0  0  0  0  0  0
    8.1246  -14.1380   22.8003 C   0  0  2  0  0  0  0  0  0  0  0  0
    7.8082  -14.1964   21.4000 N   0  0  0  0  0  0  0  0  0  0  0  0
    9.0645  -15.1875   23.2282 C   0  0  0  0  0  0  0  0  0  0  0  0
    9.4117  -15.3928   24.4110 O   0  0  0  0  0  0  0  0  0  0  0  0
    9.6193  -16.0297   22.2286 N   0  0  0  0  0  0  0  0  0  0  0  0
   10.4872  -17.1788   22.6509 C   0  0  1  0  0  0  0  0  0  0  0  0
   10.4411  -18.1525   21.5435 C   0  0  0  0  0  0  0  0  0  0  0  0
   11.2850  -19.3520   21.5521 C   0  0  0  0  0  0  0  0  0  0  0  0
   11.1795  -20.2382   20.3842 C   0  0  0  0  0  0  0  0  0  0  0  0
   10.9991  -19.7443   19.2188 O   0  0  0  0  0  0  0  0  0  0  0  0
   11.7814  -16.5750   22.9751 C   0  0  0  0  0  0  0  0  0  0  0  0
   12.1706  -15.4616   22.4668 O   0  0  0  0  0  0  0  0  0  0  0  0
   11.2694  -21.6136   20.4738 O   0  0  0  0  0  0  0  0  0  0  0  0
   12.6833  -17.1421   23.8507 O   0  0  0  0  0  0  0  0  0  0  0  0
  2  1  1  1
  2  4  1  0
  3  2  1  0
  4  5  1  6
  6 10  1  0
  6  4  1  0
  7  6  2  0
  9  8  1  1
  9 10  1  0
  9 11  1  0
 11 13  1  0
 12 11  2  0
 13 14  1  0
 14 15  1  6
 14 19  1  0
 15 16  1  0
 17 18  2  0
 17 16  1  0
 19 22  1  0
 20 19  2  0
 21 17  1  0
M  END
$$$$
