TAE.pdb
     RDKit          3D

 22 21  0  0  1  0  0  0  0  0999 V2000
    3.0302  -18.2250   20.6959 C   0  0  0  0  0  0  0  0  0  0  0  0
    4.3145  -17.6392   21.2810 C   0  0  1  0  0  0  0  0  0  0  0  0
    4.9208  -18.7343   21.9458 O   0  0  0  0  0  0  0  0  0  0  0  0
    5.2887  -17.1995   20.2395 C   0  0  2  0  0  0  0  0  0  0  0  0
    5.4993  -18.3231   19.3462 N   0  0  0  0  0  0  0  0  0  0  0  0
    6.5573  -16.6649   20.7726 C   0  0  0  0  0  0  0  0  0  0  0  0
    7.5495  -17.4314   20.8625 O   0  0  0  0  0  0  0  0  0  0  0  0
    7.7954  -13.3549   22.2123 C   0  0  0  0  0  0  0  0  0  0  0  0
    7.9056  -14.8301   21.8803 C   0  0  2  0  0  0  0  0  0  0  0  0
    6.7419  -15.3257   21.1986 N   0  0  0  0  0  0  0  0  0  0  0  0
    8.2250  -15.5807   23.1061 C   0  0  0  0  0  0  0  0  0  0  0  0
    7.4358  -15.7565   24.0590 O   0  0  0  0  0  0  0  0  0  0  0  0
    9.5220  -16.1476   23.2185 N   0  0  0  0  0  0  0  0  0  0  0  0
    9.8725  -16.9108   24.4622 C   0  0  1  0  0  0  0  0  0  0  0  0
   10.2484  -18.2659   24.0161 C   0  0  0  0  0  0  0  0  0  0  0  0
   10.7857  -19.2531   24.9582 C   0  0  0  0  0  0  0  0  0  0  0  0
   11.1223  -20.5732   24.4062 C   0  0  0  0  0  0  0  0  0  0  0  0
   12.1595  -20.7157   23.6724 O   0  0  0  0  0  0  0  0  0  0  0  0
   10.8976  -16.1019   25.1249 C   0  0  0  0  0  0  0  0  0  0  0  0
   11.0979  -16.1444   26.3928 O   0  0  0  0  0  0  0  0  0  0  0  0
   10.3633  -21.7027   24.6430 O   0  0  0  0  0  0  0  0  0  0  0  0
   11.7328  -15.2366   24.4499 O   0  0  0  0  0  0  0  0  0  0  0  0
  2  1  1  6
  2  4  1  0
  3  2  1  0
  4  5  1  6
  6 10  1  0
  6  4  1  0
  7  6  2  0
  9  8  1  1
  9 10  1  0
  9 11  1  0
 11 13  1  0
 12 11  2  0
 13 14  1  0
 14 15  1  6
 14 19  1  0
 15 16  1  0
 17 18  2  0
 17 16  1  0
 19 22  1  0
 20 19  2  0
 21 17  1  0
M  END
$$$$
