TAE.pdb
     RDKit          3D

 22 21  0  0  1  0  0  0  0  0999 V2000
    6.8048  -19.4884   17.2010 C   0  0  0  0  0  0  0  0  0  0  0  0
    7.4679  -18.7148   18.3398 C   0  0  1  0  0  0  0  0  0  0  0  0
    8.7237  -19.3513   18.5029 O   0  0  0  0  0  0  0  0  0  0  0  0
    7.7684  -17.2953   17.9903 C   0  0  2  0  0  0  0  0  0  0  0  0
    8.5720  -17.3109   16.7824 N   0  0  0  0  0  0  0  0  0  0  0  0
    8.4030  -16.5179   19.0730 C   0  0  0  0  0  0  0  0  0  0  0  0
    9.6421  -16.6281   19.2542 O   0  0  0  0  0  0  0  0  0  0  0  0
    7.2635  -14.1333   21.8252 C   0  0  0  0  0  0  0  0  0  0  0  0
    8.2799  -14.9690   21.0722 C   0  0  2  0  0  0  0  0  0  0  0  0
    7.7047  -15.6402   19.9395 N   0  0  0  0  0  0  0  0  0  0  0  0
    8.9479  -15.8840   22.0126 C   0  0  0  0  0  0  0  0  0  0  0  0
    8.5317  -17.0231   22.3142 O   0  0  0  0  0  0  0  0  0  0  0  0
   10.1520  -15.4451   22.6238 N   0  0  0  0  0  0  0  0  0  0  0  0
   10.9139  -16.4036   23.4916 C   0  0  1  0  0  0  0  0  0  0  0  0
   12.3396  -16.1945   23.1751 C   0  0  0  0  0  0  0  0  0  0  0  0
   13.3923  -16.8969   23.9164 C   0  0  0  0  0  0  0  0  0  0  0  0
   14.7769  -16.6366   23.4971 C   0  0  0  0  0  0  0  0  0  0  0  0
   15.1911  -15.4344   23.3636 O   0  0  0  0  0  0  0  0  0  0  0  0
   10.4682  -16.1133   24.8560 C   0  0  0  0  0  0  0  0  0  0  0  0
    9.8247  -15.0441   25.1594 O   0  0  0  0  0  0  0  0  0  0  0  0
   15.6846  -17.6440   23.2341 O   0  0  0  0  0  0  0  0  0  0  0  0
   10.6940  -16.9585   25.9221 O   0  0  0  0  0  0  0  0  0  0  0  0
  2  1  1  6
  2  4  1  0
  3  2  1  0
  4  5  1  6
  6 10  1  0
  6  4  1  0
  7  6  2  0
  9  8  1  1
  9 10  1  0
  9 11  1  0
 11 13  1  0
 12 11  2  0
 13 14  1  0
 14 15  1  1
 14 19  1  0
 15 16  1  0
 17 18  2  0
 17 16  1  0
 19 22  1  0
 20 19  2  0
 21 17  1  0
M  END
$$$$
