TAE.pdb
     RDKit          3D

 22 21  0  0  1  0  0  0  0  0999 V2000
    5.3856  -19.0113   17.7072 C   0  0  0  0  0  0  0  0  0  0  0  0
    6.2627  -18.2531   18.7027 C   0  0  1  0  0  0  0  0  0  0  0  0
    7.2637  -19.1897   19.0625 O   0  0  0  0  0  0  0  0  0  0  0  0
    6.9817  -17.0967   18.0919 C   0  0  2  0  0  0  0  0  0  0  0  0
    7.7026  -17.5998   16.9376 N   0  0  0  0  0  0  0  0  0  0  0  0
    7.8608  -16.3604   19.0216 C   0  0  0  0  0  0  0  0  0  0  0  0
    8.9832  -16.8472   19.3105 O   0  0  0  0  0  0  0  0  0  0  0  0
    7.6793  -13.1496   21.0757 C   0  0  0  0  0  0  0  0  0  0  0  0
    8.3060  -14.4561   20.6299 C   0  0  2  0  0  0  0  0  0  0  0  0
    7.5258  -15.1217   19.6237 N   0  0  0  0  0  0  0  0  0  0  0  0
    8.5700  -15.2953   21.8106 C   0  0  0  0  0  0  0  0  0  0  0  0
    7.6894  -15.8651   22.4900 O   0  0  0  0  0  0  0  0  0  0  0  0
    9.9208  -15.4731   22.2102 N   0  0  0  0  0  0  0  0  0  0  0  0
   10.2208  -16.3944   23.3562 C   0  0  1  0  0  0  0  0  0  0  0  0
   10.3334  -17.7453   22.7741 C   0  0  0  0  0  0  0  0  0  0  0  0
   10.7255  -18.8953   23.5955 C   0  0  0  0  0  0  0  0  0  0  0  0
   10.9159  -20.1715   22.8916 C   0  0  0  0  0  0  0  0  0  0  0  0
   11.9415  -20.3470   22.1486 O   0  0  0  0  0  0  0  0  0  0  0  0
   11.4091  -15.8260   23.9961 C   0  0  0  0  0  0  0  0  0  0  0  0
   12.2195  -15.0449   23.3777 O   0  0  0  0  0  0  0  0  0  0  0  0
   10.0275  -21.2245   22.9909 O   0  0  0  0  0  0  0  0  0  0  0  0
   11.7541  -16.0739   25.3082 O   0  0  0  0  0  0  0  0  0  0  0  0
  2  1  1  6
  2  4  1  0
  3  2  1  0
  4  5  1  6
  6 10  1  0
  6  4  1  0
  7  6  2  0
  9  8  1  1
  9 10  1  0
  9 11  1  0
 11 13  1  0
 12 11  2  0
 13 14  1  0
 14 15  1  6
 14 19  1  0
 15 16  1  0
 17 18  2  0
 17 16  1  0
 19 22  1  0
 20 19  2  0
 21 17  1  0
M  END
$$$$
