TAE.pdb
     RDKit          3D

 22 21  0  0  1  0  0  0  0  0999 V2000
    8.3241  -14.7847   17.3497 C   0  0  0  0  0  0  0  0  0  0  0  0
    8.5535  -14.8083   18.8603 C   0  0  1  0  0  0  0  0  0  0  0  0
    9.9439  -15.0483   18.9938 O   0  0  0  0  0  0  0  0  0  0  0  0
    8.2987  -13.4914   19.5149 C   0  0  2  0  0  0  0  0  0  0  0  0
    8.9521  -12.4772   18.7090 N   0  0  0  0  0  0  0  0  0  0  0  0
    8.7023  -13.4230   20.9333 C   0  0  0  0  0  0  0  0  0  0  0  0
    9.6925  -12.7161   21.2497 O   0  0  0  0  0  0  0  0  0  0  0  0
    7.2710  -13.4264   24.2110 C   0  0  0  0  0  0  0  0  0  0  0  0
    8.3902  -14.0156   23.3751 C   0  0  2  0  0  0  0  0  0  0  0  0
    8.0430  -14.1088   21.9840 N   0  0  0  0  0  0  0  0  0  0  0  0
    8.8054  -15.3023   23.9582 C   0  0  0  0  0  0  0  0  0  0  0  0
    8.9637  -15.5120   25.1799 O   0  0  0  0  0  0  0  0  0  0  0  0
    9.0443  -16.3863   23.0727 N   0  0  0  0  0  0  0  0  0  0  0  0
   10.3751  -17.0783   23.1190 C   0  0  1  0  0  0  0  0  0  0  0  0
   11.3044  -16.2258   22.3534 C   0  0  0  0  0  0  0  0  0  0  0  0
   12.7485  -16.4818   22.3589 C   0  0  0  0  0  0  0  0  0  0  0  0
   13.5886  -15.5243   21.6255 C   0  0  0  0  0  0  0  0  0  0  0  0
   13.0657  -14.4803   21.1047 O   0  0  0  0  0  0  0  0  0  0  0  0
   10.6479  -17.2767   24.5440 C   0  0  0  0  0  0  0  0  0  0  0  0
   10.9701  -18.4198   25.0328 O   0  0  0  0  0  0  0  0  0  0  0  0
   14.9504  -15.6893   21.4636 O   0  0  0  0  0  0  0  0  0  0  0  0
   10.5884  -16.2608   25.4748 O   0  0  0  0  0  0  0  0  0  0  0  0
  2  1  1  6
  2  4  1  0
  3  2  1  0
  4  5  1  6
  6 10  1  0
  6  4  1  0
  7  6  2  0
  9  8  1  1
  9 10  1  0
  9 11  1  0
 11 13  1  0
 12 11  2  0
 13 14  1  0
 14 15  1  1
 14 19  1  0
 15 16  1  0
 17 18  2  0
 17 16  1  0
 19 22  1  0
 20 19  2  0
 21 17  1  0
M  END
$$$$
