TAE.pdb
     RDKit          3D

 22 21  0  0  1  0  0  0  0  0999 V2000
   -1.0574  -20.7965   23.3887 C   0  0  0  0  0  0  0  0  0  0  0  0
   -2.5241  -21.2248   23.3793 C   0  0  1  0  0  0  0  0  0  0  0  0
   -2.7601  -21.6159   22.0376 O   0  0  0  0  0  0  0  0  0  0  0  0
   -2.7895  -22.4339   24.2130 C   0  0  2  0  0  0  0  0  0  0  0  0
   -1.9977  -23.5179   23.6626 N   0  0  0  0  0  0  0  0  0  0  0  0
   -4.2162  -22.7922   24.3376 C   0  0  0  0  0  0  0  0  0  0  0  0
   -4.9657  -22.0669   25.0393 O   0  0  0  0  0  0  0  0  0  0  0  0
   -6.5450  -25.5007   22.9978 C   0  0  0  0  0  0  0  0  0  0  0  0
   -6.1861  -24.3119   23.8676 C   0  0  2  0  0  0  0  0  0  0  0  0
   -4.8140  -23.9151   23.7125 N   0  0  0  0  0  0  0  0  0  0  0  0
   -6.5527  -24.6039   25.2635 C   0  0  0  0  0  0  0  0  0  0  0  0
   -5.8369  -25.2352   26.0701 O   0  0  0  0  0  0  0  0  0  0  0  0
   -7.8091  -24.1366   25.7316 N   0  0  0  0  0  0  0  0  0  0  0  0
   -8.1679  -24.3477   27.1734 C   0  0  1  0  0  0  0  0  0  0  0  0
   -7.6890  -23.1512   27.8916 C   0  0  0  0  0  0  0  0  0  0  0  0
   -7.9855  -22.9506   29.3138 C   0  0  0  0  0  0  0  0  0  0  0  0
   -7.4618  -21.7219   29.9275 C   0  0  0  0  0  0  0  0  0  0  0  0
   -8.0789  -21.1818   30.9083 O   0  0  0  0  0  0  0  0  0  0  0  0
   -9.6086  -24.6099   27.1693 C   0  0  0  0  0  0  0  0  0  0  0  0
  -10.3541  -24.3542   26.1553 O   0  0  0  0  0  0  0  0  0  0  0  0
   -6.3064  -21.0997   29.4961 O   0  0  0  0  0  0  0  0  0  0  0  0
  -10.2820  -25.1545   28.2425 O   0  0  0  0  0  0  0  0  0  0  0  0
  2  1  1  6
  2  4  1  0
  3  2  1  0
  4  5  1  6
  6 10  1  0
  6  4  1  0
  7  6  2  0
  9  8  1  6
  9 10  1  0
  9 11  1  0
 11 13  1  0
 12 11  2  0
 13 14  1  0
 14 15  1  1
 14 19  1  0
 15 16  1  0
 17 18  2  0
 17 16  1  0
 19 22  1  0
 20 19  2  0
 21 17  1  0
M  END
$$$$
