TAE.pdb
     RDKit          3D

 22 21  0  0  1  0  0  0  0  0999 V2000
    7.8222  -17.9240   14.9621 C   0  0  0  0  0  0  0  0  0  0  0  0
    8.3733  -16.9064   15.9600 C   0  0  1  0  0  0  0  0  0  0  0  0
    9.7689  -16.9031   15.7131 O   0  0  0  0  0  0  0  0  0  0  0  0
    7.9059  -15.5133   15.6988 C   0  0  2  0  0  0  0  0  0  0  0  0
    8.2688  -15.1873   14.3324 N   0  0  0  0  0  0  0  0  0  0  0  0
    8.3998  -14.5097   16.6622 C   0  0  0  0  0  0  0  0  0  0  0  0
    9.4545  -13.8796   16.3960 O   0  0  0  0  0  0  0  0  0  0  0  0
    7.1511  -12.7945   19.8061 C   0  0  0  0  0  0  0  0  0  0  0  0
    8.2375  -13.2423   18.8481 C   0  0  2  0  0  0  0  0  0  0  0  0
    7.7600  -14.1987   17.8881 N   0  0  0  0  0  0  0  0  0  0  0  0
    9.3968  -13.7216   19.6191 C   0  0  0  0  0  0  0  0  0  0  0  0
   10.0224  -13.0415   20.4604 O   0  0  0  0  0  0  0  0  0  0  0  0
    9.8398  -15.0517   19.3941 N   0  0  0  0  0  0  0  0  0  0  0  0
   10.9671  -15.5891   20.2263 C   0  0  1  0  0  0  0  0  0  0  0  0
   12.1319  -14.7313   19.9368 C   0  0  0  0  0  0  0  0  0  0  0  0
   13.3348  -14.7769   20.7747 C   0  0  0  0  0  0  0  0  0  0  0  0
   14.6228  -14.8622   20.0715 C   0  0  0  0  0  0  0  0  0  0  0  0
   14.7908  -14.2456   18.9642 O   0  0  0  0  0  0  0  0  0  0  0  0
   10.4521  -15.6007   21.5971 C   0  0  0  0  0  0  0  0  0  0  0  0
   10.4485  -16.6591   22.3245 O   0  0  0  0  0  0  0  0  0  0  0  0
   15.6949  -15.5883   20.5524 O   0  0  0  0  0  0  0  0  0  0  0  0
    9.9364  -14.4844   22.2214 O   0  0  0  0  0  0  0  0  0  0  0  0
  2  1  1  6
  2  4  1  0
  3  2  1  0
  4  5  1  6
  6 10  1  0
  6  4  1  0
  7  6  2  0
  9  8  1  1
  9 10  1  0
  9 11  1  0
 11 13  1  0
 12 11  2  0
 13 14  1  0
 14 15  1  1
 14 19  1  0
 15 16  1  0
 17 18  2  0
 17 16  1  0
 19 22  1  0
 20 19  2  0
 21 17  1  0
M  END
$$$$
