TSC.pdb
     RDKit          3D

 20 19  0  0  1  0  0  0  0  0999 V2000
   22.3090  -10.9355  -19.6440 C   0  0  0  0  0  0  0  0  0  0  0  0
   21.6442  -12.1430  -18.9921 C   0  0  1  0  0  0  0  0  0  0  0  0
   21.1650  -13.0331  -19.9301 O   0  0  0  0  0  0  0  0  0  0  0  0
   22.5605  -12.7911  -17.9838 C   0  0  2  0  0  0  0  0  0  0  0  0
   22.0184  -14.0053  -17.4287 N   0  0  0  0  0  0  0  0  0  0  0  0
   22.8341  -11.7983  -16.9255 C   0  0  0  0  0  0  0  0  0  0  0  0
   21.9702  -11.5947  -16.0472 O   0  0  0  0  0  0  0  0  0  0  0  0
   25.9893   -8.9548  -14.7809 O   0  0  0  0  0  0  0  0  0  0  0  0
   25.7785   -9.8345  -15.8381 C   0  0  0  0  0  0  0  0  0  0  0  0
   24.2772  -10.1317  -15.8491 C   0  0  2  0  0  0  0  0  0  0  0  0
   24.0516  -11.0820  -16.8949 N   0  0  0  0  0  0  0  0  0  0  0  0
   23.5781   -8.8369  -16.1024 C   0  0  0  0  0  0  0  0  0  0  0  0
   23.6038   -8.3203  -17.2473 O   0  0  0  0  0  0  0  0  0  0  0  0
   22.8643   -8.1354  -15.0917 N   0  0  0  0  0  0  0  0  0  0  0  0
   22.2254   -6.8615  -15.3581 C   0  0  1  0  0  0  0  0  0  0  0  0
   20.7036   -7.0112  -15.2334 C   0  0  0  0  0  0  0  0  0  0  0  0
   20.1997   -8.1477  -16.5683 S   0  0  0  0  0  0  0  0  0  0  0  0
   22.6128   -5.8382  -14.3465 C   0  0  0  0  0  0  0  0  0  0  0  0
   22.1910   -4.5392  -14.3846 O   0  0  0  0  0  0  0  0  0  0  0  0
   23.3709   -6.2126  -13.4144 O   0  0  0  0  0  0  0  0  0  0  0  0
  2  1  1  6
  2  3  1  0
  4  6  1  0
  4  2  1  0
  4  5  1  1
  6  7  2  0
  6 11  1  0
  9  8  1  0
 10  9  1  6
 10 12  1  0
 11 10  1  0
 12 13  2  0
 12 14  1  0
 14 15  1  0
 15 18  1  0
 15 16  1  1
 17 16  1  0
 18 19  1  0
 20 18  2  0
M  END
$$$$
