TSC.pdb
     RDKit          3D

 20 19  0  0  1  0  0  0  0  0999 V2000
   14.4433  -11.4817  -14.1294 C   0  0  0  0  0  0  0  0  0  0  0  0
   15.6690  -10.5872  -14.2792 C   0  0  1  0  0  0  0  0  0  0  0  0
   16.4227  -10.5525  -13.1249 O   0  0  0  0  0  0  0  0  0  0  0  0
   16.4767  -10.9687  -15.4951 C   0  0  2  0  0  0  0  0  0  0  0  0
   17.0700  -12.2775  -15.3893 N   0  0  0  0  0  0  0  0  0  0  0  0
   17.5092   -9.9310  -15.6895 C   0  0  0  0  0  0  0  0  0  0  0  0
   18.6967  -10.1975  -15.4103 O   0  0  0  0  0  0  0  0  0  0  0  0
   16.4139   -6.2887  -16.7898 O   0  0  0  0  0  0  0  0  0  0  0  0
   17.5691   -6.6826  -17.4578 C   0  0  0  0  0  0  0  0  0  0  0  0
   18.2174   -7.7593  -16.5845 C   0  0  2  0  0  0  0  0  0  0  0  0
   17.1723   -8.6509  -16.1835 N   0  0  0  0  0  0  0  0  0  0  0  0
   18.8407   -7.0607  -15.4214 C   0  0  0  0  0  0  0  0  0  0  0  0
   18.2226   -6.9784  -14.3307 O   0  0  0  0  0  0  0  0  0  0  0  0
   20.1315   -6.4662  -15.4803 N   0  0  0  0  0  0  0  0  0  0  0  0
   20.6996   -5.7696  -14.3428 C   0  0  1  0  0  0  0  0  0  0  0  0
   22.2038   -6.0597  -14.2586 C   0  0  0  0  0  0  0  0  0  0  0  0
   22.8311   -5.0593  -12.8681 S   0  0  0  0  0  0  0  0  0  0  0  0
   20.5834   -4.2921  -14.4980 C   0  0  0  0  0  0  0  0  0  0  0  0
   20.3052   -3.4424  -13.4650 O   0  0  0  0  0  0  0  0  0  0  0  0
   20.7545   -3.8224  -15.6530 O   0  0  0  0  0  0  0  0  0  0  0  0
  2  1  1  1
  2  3  1  0
  4  6  1  0
  4  2  1  0
  4  5  1  1
  6  7  2  0
  6 11  1  0
  9  8  1  0
 10  9  1  6
 10 12  1  0
 11 10  1  0
 12 13  2  0
 12 14  1  0
 14 15  1  0
 15 18  1  0
 15 16  1  6
 17 16  1  0
 18 19  1  0
 20 18  2  0
M  END
$$$$
