TSC.pdb
     RDKit          3D

 20 19  0  0  1  0  0  0  0  0999 V2000
   19.1853  -12.9472  -15.8693 C   0  0  0  0  0  0  0  0  0  0  0  0
   19.3909  -11.4369  -15.8297 C   0  0  1  0  0  0  0  0  0  0  0  0
   20.7149  -11.1046  -15.6333 O   0  0  0  0  0  0  0  0  0  0  0  0
   18.7947  -10.7737  -17.0466 C   0  0  2  0  0  0  0  0  0  0  0  0
   19.4779  -11.1182  -18.2675 N   0  0  0  0  0  0  0  0  0  0  0  0
   18.8184   -9.3151  -16.8174 C   0  0  0  0  0  0  0  0  0  0  0  0
   19.7136   -8.6312  -17.3560 O   0  0  0  0  0  0  0  0  0  0  0  0
   15.5273   -7.2469  -16.1047 O   0  0  0  0  0  0  0  0  0  0  0  0
   16.5307   -6.8725  -15.2164 C   0  0  0  0  0  0  0  0  0  0  0  0
   17.8526   -7.2634  -15.8811 C   0  0  2  0  0  0  0  0  0  0  0  0
   17.8485   -8.6892  -16.0027 N   0  0  0  0  0  0  0  0  0  0  0  0
   18.9488   -6.7758  -14.9923 C   0  0  0  0  0  0  0  0  0  0  0  0
   19.4624   -7.5472  -14.1440 O   0  0  0  0  0  0  0  0  0  0  0  0
   19.4588   -5.4494  -15.0535 N   0  0  0  0  0  0  0  0  0  0  0  0
   20.6481   -5.0584  -14.3222 C   0  0  1  0  0  0  0  0  0  0  0  0
   21.8923   -5.6207  -15.0218 C   0  0  0  0  0  0  0  0  0  0  0  0
   23.3244   -4.9817  -14.0898 S   0  0  0  0  0  0  0  0  0  0  0  0
   20.8221   -3.5784  -14.3209 C   0  0  0  0  0  0  0  0  0  0  0  0
   21.2984   -2.8736  -13.2518 O   0  0  0  0  0  0  0  0  0  0  0  0
   20.5068   -2.9637  -15.3728 O   0  0  0  0  0  0  0  0  0  0  0  0
  2  1  1  6
  2  3  1  0
  4  6  1  0
  4  2  1  0
  4  5  1  6
  6  7  2  0
  6 11  1  0
  9  8  1  0
 10  9  1  1
 10 12  1  0
 11 10  1  0
 12 13  2  0
 12 14  1  0
 14 15  1  0
 15 18  1  0
 15 16  1  6
 17 16  1  0
 18 19  1  0
 20 18  2  0
M  END
$$$$
