TSC.pdb
     RDKit          3D

 20 19  0  0  1  0  0  0  0  0999 V2000
   23.7794  -23.0952  -17.2345 C   0  0  0  0  0  0  0  0  0  0  0  0
   23.1403  -22.0666  -16.3080 C   0  0  1  0  0  0  0  0  0  0  0  0
   21.8577  -22.4256  -15.9503 O   0  0  0  0  0  0  0  0  0  0  0  0
   24.0228  -21.7828  -15.1176 C   0  0  2  0  0  0  0  0  0  0  0  0
   23.4279  -20.8625  -14.1820 N   0  0  0  0  0  0  0  0  0  0  0  0
   25.3086  -21.2659  -15.6275 C   0  0  0  0  0  0  0  0  0  0  0  0
   25.4042  -20.0543  -15.9141 O   0  0  0  0  0  0  0  0  0  0  0  0
   28.3498  -23.7905  -16.0372 O   0  0  0  0  0  0  0  0  0  0  0  0
   28.7719  -22.4888  -15.7855 C   0  0  0  0  0  0  0  0  0  0  0  0
   27.6512  -21.5754  -16.2874 C   0  0  2  0  0  0  0  0  0  0  0  0
   26.4228  -22.1187  -15.7938 N   0  0  0  0  0  0  0  0  0  0  0  0
   27.7144  -21.5866  -17.7791 C   0  0  0  0  0  0  0  0  0  0  0  0
   26.8849  -22.2603  -18.4399 O   0  0  0  0  0  0  0  0  0  0  0  0
   28.6883  -20.8568  -18.5152 N   0  0  0  0  0  0  0  0  0  0  0  0
   28.7850  -20.9605  -19.9580 C   0  0  1  0  0  0  0  0  0  0  0  0
   27.7766  -20.0075  -20.6128 C   0  0  0  0  0  0  0  0  0  0  0  0
   27.9878  -20.2123  -22.4131 S   0  0  0  0  0  0  0  0  0  0  0  0
   30.1243  -20.5248  -20.4449 C   0  0  0  0  0  0  0  0  0  0  0  0
   30.6025  -20.8030  -21.6941 O   0  0  0  0  0  0  0  0  0  0  0  0
   30.8378  -19.8654  -19.6449 O   0  0  0  0  0  0  0  0  0  0  0  0
  2  1  1  1
  2  3  1  0
  4  6  1  0
  4  2  1  0
  4  5  1  1
  6  7  2  0
  6 11  1  0
  9  8  1  0
 10  9  1  1
 10 12  1  0
 11 10  1  0
 12 13  2  0
 12 14  1  0
 14 15  1  0
 15 18  1  0
 15 16  1  6
 17 16  1  0
 18 19  1  0
 20 18  2  0
M  END
$$$$
