TSC.pdb
     RDKit          3D

 20 19  0  0  1  0  0  0  0  0999 V2000
   22.9159   -4.3011  -14.9853 C   0  0  0  0  0  0  0  0  0  0  0  0
   23.2674   -3.9560  -16.4283 C   0  0  1  0  0  0  0  0  0  0  0  0
   24.2587   -3.0000  -16.5000 O   0  0  0  0  0  0  0  0  0  0  0  0
   23.5923   -5.1974  -17.2218 C   0  0  2  0  0  0  0  0  0  0  0  0
   23.9715   -4.9131  -18.5825 N   0  0  0  0  0  0  0  0  0  0  0  0
   22.4103   -6.0813  -17.1728 C   0  0  0  0  0  0  0  0  0  0  0  0
   21.4709   -5.8822  -17.9710 O   0  0  0  0  0  0  0  0  0  0  0  0
   22.5497   -9.2026  -14.8128 O   0  0  0  0  0  0  0  0  0  0  0  0
   21.5978   -9.3626  -15.8150 C   0  0  0  0  0  0  0  0  0  0  0  0
   21.1517   -7.9515  -16.2049 C   0  0  2  0  0  0  0  0  0  0  0  0
   22.3303   -7.1407  -16.2414 N   0  0  0  0  0  0  0  0  0  0  0  0
   20.1850   -7.4959  -15.1623 C   0  0  0  0  0  0  0  0  0  0  0  0
   20.6047   -7.0644  -14.0594 O   0  0  0  0  0  0  0  0  0  0  0  0
   18.7757   -7.5236  -15.3525 N   0  0  0  0  0  0  0  0  0  0  0  0
   17.8598   -7.1118  -14.3068 C   0  0  1  0  0  0  0  0  0  0  0  0
   16.4508   -6.9457  -14.8908 C   0  0  0  0  0  0  0  0  0  0  0  0
   16.5459   -5.5301  -16.0374 S   0  0  0  0  0  0  0  0  0  0  0  0
   17.7367   -8.1561  -13.2510 C   0  0  0  0  0  0  0  0  0  0  0  0
   18.2847   -9.4034  -13.3531 O   0  0  0  0  0  0  0  0  0  0  0  0
   17.0881   -7.8510  -12.2166 O   0  0  0  0  0  0  0  0  0  0  0  0
  2  1  1  1
  2  3  1  0
  4  6  1  0
  4  2  1  0
  4  5  1  6
  6  7  2  0
  6 11  1  0
  9  8  1  0
 10  9  1  1
 10 12  1  0
 11 10  1  0
 12 13  2  0
 12 14  1  0
 14 15  1  0
 15 18  1  0
 15 16  1  6
 17 16  1  0
 18 19  1  0
 20 18  2  0
M  END
$$$$
