TSC.pdb
     RDKit          3D

 20 19  0  0  1  0  0  0  0  0999 V2000
   20.9936  -12.2577  -20.6989 C   0  0  0  0  0  0  0  0  0  0  0  0
   20.3894  -11.2090  -19.7715 C   0  0  1  0  0  0  0  0  0  0  0  0
   19.2094  -11.6438  -19.2055 O   0  0  0  0  0  0  0  0  0  0  0  0
   21.3943  -10.7441  -18.7466 C   0  0  2  0  0  0  0  0  0  0  0  0
   21.7599  -11.7745  -17.8082 N   0  0  0  0  0  0  0  0  0  0  0  0
   20.8178   -9.5743  -18.0540 C   0  0  0  0  0  0  0  0  0  0  0  0
   20.4930   -8.5721  -18.7244 O   0  0  0  0  0  0  0  0  0  0  0  0
   20.4309   -9.4117  -13.9512 O   0  0  0  0  0  0  0  0  0  0  0  0
   19.3571   -8.9941  -14.7312 C   0  0  0  0  0  0  0  0  0  0  0  0
   19.9599   -8.4716  -16.0373 C   0  0  2  0  0  0  0  0  0  0  0  0
   20.6308   -9.5753  -16.6535 N   0  0  0  0  0  0  0  0  0  0  0  0
   20.9007   -7.3707  -15.6739 C   0  0  0  0  0  0  0  0  0  0  0  0
   22.1274   -7.6080  -15.5417 O   0  0  0  0  0  0  0  0  0  0  0  0
   20.4744   -6.0302  -15.4628 N   0  0  0  0  0  0  0  0  0  0  0  0
   21.4134   -4.9789  -15.1236 C   0  0  1  0  0  0  0  0  0  0  0  0
   20.7297   -3.6123  -15.2604 C   0  0  0  0  0  0  0  0  0  0  0  0
   21.9695   -2.3768  -14.7466 S   0  0  0  0  0  0  0  0  0  0  0  0
   21.8423   -5.0731  -13.6997 C   0  0  0  0  0  0  0  0  0  0  0  0
   23.1159   -4.8200  -13.2748 O   0  0  0  0  0  0  0  0  0  0  0  0
   20.9671   -5.4056  -12.8587 O   0  0  0  0  0  0  0  0  0  0  0  0
  2  1  1  1
  2  3  1  0
  4  6  1  0
  4  2  1  0
  4  5  1  1
  6  7  2  0
  6 11  1  0
  9  8  1  0
 10  9  1  1
 10 12  1  0
 11 10  1  0
 12 13  2  0
 12 14  1  0
 14 15  1  0
 15 18  1  0
 15 16  1  1
 17 16  1  0
 18 19  1  0
 20 18  2  0
M  END
$$$$
