TSC.pdb
     RDKit          3D

 20 19  0  0  1  0  0  0  0  0999 V2000
   28.6592  -17.9841  -15.2754 C   0  0  0  0  0  0  0  0  0  0  0  0
   27.4636  -18.7966  -14.7905 C   0  0  1  0  0  0  0  0  0  0  0  0
   26.3395  -18.5602  -15.5536 O   0  0  0  0  0  0  0  0  0  0  0  0
   27.8057  -20.2626  -14.6898 C   0  0  2  0  0  0  0  0  0  0  0  0
   28.1118  -20.8585  -15.9655 N   0  0  0  0  0  0  0  0  0  0  0  0
   26.6660  -20.9442  -14.0442 C   0  0  0  0  0  0  0  0  0  0  0  0
   25.9626  -21.7228  -14.7211 O   0  0  0  0  0  0  0  0  0  0  0  0
   25.3961  -19.7863  -10.3656 O   0  0  0  0  0  0  0  0  0  0  0  0
   25.2771  -21.1511  -10.6086 C   0  0  0  0  0  0  0  0  0  0  0  0
   25.1766  -21.3038  -12.1281 C   0  0  2  0  0  0  0  0  0  0  0  0
   26.3643  -20.7279  -12.6809 N   0  0  0  0  0  0  0  0  0  0  0  0
   23.9444  -20.5790  -12.5588 C   0  0  0  0  0  0  0  0  0  0  0  0
   24.0321  -19.4317  -13.0632 O   0  0  0  0  0  0  0  0  0  0  0  0
   22.6397  -21.1299  -12.4265 N   0  0  0  0  0  0  0  0  0  0  0  0
   21.4918  -20.5286  -13.0766 C   0  0  1  0  0  0  0  0  0  0  0  0
   21.6441  -20.6394  -14.5993 C   0  0  0  0  0  0  0  0  0  0  0  0
   20.2433  -19.7142  -15.3129 S   0  0  0  0  0  0  0  0  0  0  0  0
   20.2359  -21.2585  -12.7442 C   0  0  0  0  0  0  0  0  0  0  0  0
   19.0158  -20.6536  -12.6340 O   0  0  0  0  0  0  0  0  0  0  0  0
   20.3269  -22.4999  -12.5587 O   0  0  0  0  0  0  0  0  0  0  0  0
  2  1  1  6
  2  3  1  0
  4  6  1  0
  4  2  1  0
  4  5  1  6
  6  7  2  0
  6 11  1  0
  9  8  1  0
 10  9  1  1
 10 12  1  0
 11 10  1  0
 12 13  2  0
 12 14  1  0
 14 15  1  0
 15 18  1  0
 15 16  1  6
 17 16  1  0
 18 19  1  0
 20 18  2  0
M  END
$$$$
