TSC.pdb
     RDKit          3D

 20 19  0  0  1  0  0  0  0  0999 V2000
   17.7676  -13.2264  -14.7767 C   0  0  0  0  0  0  0  0  0  0  0  0
   18.5747  -12.0731  -15.3626 C   0  0  1  0  0  0  0  0  0  0  0  0
   19.9007  -12.4107  -15.5347 O   0  0  0  0  0  0  0  0  0  0  0  0
   17.9359  -11.5463  -16.6237 C   0  0  2  0  0  0  0  0  0  0  0  0
   17.9241  -12.5104  -17.6945 N   0  0  0  0  0  0  0  0  0  0  0  0
   18.6647  -10.3237  -17.0169 C   0  0  0  0  0  0  0  0  0  0  0  0
   19.4436  -10.3693  -17.9918 O   0  0  0  0  0  0  0  0  0  0  0  0
   17.3963   -6.8712  -15.7374 O   0  0  0  0  0  0  0  0  0  0  0  0
   18.1937   -6.8230  -16.8767 C   0  0  0  0  0  0  0  0  0  0  0  0
   19.2169   -7.9511  -16.7258 C   0  0  2  0  0  0  0  0  0  0  0  0
   18.4928   -9.1130  -16.3092 N   0  0  0  0  0  0  0  0  0  0  0  0
   20.2085   -7.5066  -15.7019 C   0  0  0  0  0  0  0  0  0  0  0  0
   20.0257   -7.7770  -14.4887 O   0  0  0  0  0  0  0  0  0  0  0  0
   21.3818   -6.7735  -16.0320 N   0  0  0  0  0  0  0  0  0  0  0  0
   22.3355   -6.3693  -15.0176 C   0  0  1  0  0  0  0  0  0  0  0  0
   23.6322   -5.8965  -15.6874 C   0  0  0  0  0  0  0  0  0  0  0  0
   24.3382   -7.3649  -16.5078 S   0  0  0  0  0  0  0  0  0  0  0  0
   21.8365   -5.2012  -14.2384 C   0  0  0  0  0  0  0  0  0  0  0  0
   22.3670   -4.8071  -13.0427 O   0  0  0  0  0  0  0  0  0  0  0  0
   20.8726   -4.5564  -14.7271 O   0  0  0  0  0  0  0  0  0  0  0  0
  2  1  1  6
  2  3  1  0
  4  6  1  0
  4  2  1  0
  4  5  1  6
  6  7  2  0
  6 11  1  0
  9  8  1  0
 10  9  1  1
 10 12  1  0
 11 10  1  0
 12 13  2  0
 12 14  1  0
 14 15  1  0
 15 18  1  0
 15 16  1  6
 17 16  1  0
 18 19  1  0
 20 18  2  0
M  END
$$$$
