TSC.pdb
     RDKit          3D

 20 19  0  0  1  0  0  0  0  0999 V2000
   23.5376  -11.6977  -17.8576 C   0  0  0  0  0  0  0  0  0  0  0  0
   22.4298  -12.2018  -18.7760 C   0  0  1  0  0  0  0  0  0  0  0  0
   22.8218  -13.3153  -19.4889 O   0  0  0  0  0  0  0  0  0  0  0  0
   21.1455  -12.4162  -18.0139 C   0  0  2  0  0  0  0  0  0  0  0  0
   20.1290  -13.0726  -18.7962 N   0  0  0  0  0  0  0  0  0  0  0  0
   20.6820  -11.0971  -17.5390 C   0  0  0  0  0  0  0  0  0  0  0  0
   20.5210  -10.1767  -18.3674 O   0  0  0  0  0  0  0  0  0  0  0  0
   18.7889   -8.4638  -14.0916 O   0  0  0  0  0  0  0  0  0  0  0  0
   19.2058   -9.7378  -14.4647 C   0  0  0  0  0  0  0  0  0  0  0  0
   20.0239   -9.5578  -15.7456 C   0  0  2  0  0  0  0  0  0  0  0  0
   20.4206  -10.8656  -16.1699 N   0  0  0  0  0  0  0  0  0  0  0  0
   21.1939   -8.6976  -15.3987 C   0  0  0  0  0  0  0  0  0  0  0  0
   22.2674   -9.2213  -15.0089 O   0  0  0  0  0  0  0  0  0  0  0  0
   21.1608   -7.2784  -15.4871 N   0  0  0  0  0  0  0  0  0  0  0  0
   22.3012   -6.4670  -15.1089 C   0  0  1  0  0  0  0  0  0  0  0  0
   23.0379   -5.9931  -16.3685 C   0  0  0  0  0  0  0  0  0  0  0  0
   24.4447   -4.9916  -15.7807 S   0  0  0  0  0  0  0  0  0  0  0  0
   21.8741   -5.2264  -14.4025 C   0  0  0  0  0  0  0  0  0  0  0  0
   22.5833   -4.6525  -13.3855 O   0  0  0  0  0  0  0  0  0  0  0  0
   20.7976   -4.6945  -14.7794 O   0  0  0  0  0  0  0  0  0  0  0  0
  2  1  1  1
  2  3  1  0
  4  6  1  0
  4  2  1  0
  4  5  1  6
  6  7  2  0
  6 11  1  0
  9  8  1  0
 10  9  1  1
 10 12  1  0
 11 10  1  0
 12 13  2  0
 12 14  1  0
 14 15  1  0
 15 18  1  0
 15 16  1  6
 17 16  1  0
 18 19  1  0
 20 18  2  0
M  END
$$$$
