TSC.pdb
     RDKit          3D

 20 19  0  0  1  0  0  0  0  0999 V2000
   22.0586  -13.7771  -16.3235 C   0  0  0  0  0  0  0  0  0  0  0  0
   23.4795  -14.2594  -16.0527 C   0  0  1  0  0  0  0  0  0  0  0  0
   23.5688  -15.6352  -16.0844 O   0  0  0  0  0  0  0  0  0  0  0  0
   24.4680  -13.5868  -16.9729 C   0  0  2  0  0  0  0  0  0  0  0  0
   25.8126  -14.0788  -16.8118 N   0  0  0  0  0  0  0  0  0  0  0  0
   24.3992  -12.1340  -16.7177 C   0  0  0  0  0  0  0  0  0  0  0  0
   25.0080  -11.6614  -15.7353 O   0  0  0  0  0  0  0  0  0  0  0  0
   22.6575   -9.8452  -19.4023 O   0  0  0  0  0  0  0  0  0  0  0  0
   23.5470   -9.1400  -18.5977 C   0  0  0  0  0  0  0  0  0  0  0  0
   23.5888   -9.8827  -17.2602 C   0  0  2  0  0  0  0  0  0  0  0  0
   23.6588  -11.2792  -17.5648 N   0  0  0  0  0  0  0  0  0  0  0  0
   22.3392   -9.5273  -16.5245 C   0  0  0  0  0  0  0  0  0  0  0  0
   21.2778  -10.1638  -16.7411 O   0  0  0  0  0  0  0  0  0  0  0  0
   22.2808   -8.4789  -15.5651 N   0  0  0  0  0  0  0  0  0  0  0  0
   21.0620   -8.1808  -14.8388 C   0  0  1  0  0  0  0  0  0  0  0  0
   21.3992   -7.8452  -13.3802 C   0  0  0  0  0  0  0  0  0  0  0  0
   21.7593   -9.4387  -12.5686 S   0  0  0  0  0  0  0  0  0  0  0  0
   20.3878   -6.9690  -15.3844 C   0  0  0  0  0  0  0  0  0  0  0  0
   19.1624   -6.5324  -14.9670 O   0  0  0  0  0  0  0  0  0  0  0  0
   20.9987   -6.3273  -16.2782 O   0  0  0  0  0  0  0  0  0  0  0  0
  2  1  1  6
  2  3  1  0
  4  6  1  0
  4  2  1  0
  4  5  1  1
  6  7  2  0
  6 11  1  0
  9  8  1  0
 10  9  1  6
 10 12  1  0
 11 10  1  0
 12 13  2  0
 12 14  1  0
 14 15  1  0
 15 18  1  0
 15 16  1  1
 17 16  1  0
 18 19  1  0
 20 18  2  0
M  END
$$$$
