EMD.pdb
     RDKit          3D

 26 25  0  0  1  0  0  0  0  0999 V2000
   17.2835  -12.3123  -17.4013 N   0  0  0  0  0  0  0  0  0  0  0  0
   17.5083  -10.9114  -17.7059 C   0  0  1  0  0  0  0  0  0  0  0  0
   16.2272  -10.1485  -17.7693 C   0  0  0  0  0  0  0  0  0  0  0  0
   15.2723  -10.5908  -18.8174 C   0  0  0  0  0  0  0  0  0  0  0  0
   13.9796  -11.0618  -18.2939 C   0  0  0  0  0  0  0  0  0  0  0  0
   13.9137  -12.1196  -17.6551 O   0  0  0  0  0  0  0  0  0  0  0  0
   18.4000  -10.3488  -16.6594 C   0  0  0  0  0  0  0  0  0  0  0  0
   18.0887  -10.4599  -15.4688 O   0  0  0  0  0  0  0  0  0  0  0  0
   12.8003  -10.3406  -18.4980 O   0  0  0  0  0  0  0  0  0  0  0  0
   23.7892   -9.7465  -12.2219 C   0  0  0  0  0  0  0  0  0  0  0  0
   22.7450  -10.3146  -13.5736 S   0  0  0  0  0  0  0  0  0  0  0  0
   22.8532   -9.2332  -15.0251 C   0  0  0  0  0  0  0  0  0  0  0  0
   21.9434   -9.7216  -16.1398 C   0  0  0  0  0  0  0  0  0  0  0  0
   20.5558   -9.2000  -16.0182 C   0  0  2  0  0  0  0  0  0  0  0  0
   19.6143   -9.6774  -16.9581 N   0  0  0  0  0  0  0  0  0  0  0  0
   20.6100   -7.7185  -16.0798 C   0  0  0  0  0  0  0  0  0  0  0  0
   20.9212   -7.1198  -17.1618 O   0  0  0  0  0  0  0  0  0  0  0  0
   20.3170   -6.9287  -14.9375 N   0  0  0  0  0  0  0  0  0  0  0  0
   20.4098   -5.4453  -15.0265 C   0  0  1  0  0  0  0  0  0  0  0  0
   19.2442   -4.8478  -14.2826 C   0  0  0  0  0  0  0  0  0  0  0  0
   19.2024   -3.3958  -14.2181 C   0  0  0  0  0  0  0  0  0  0  0  0
   20.1127   -2.6919  -14.6978 O   0  0  0  0  0  0  0  0  0  0  0  0
   21.6593   -5.0941  -14.2866 C   0  0  0  0  0  0  0  0  0  0  0  0
   22.1379   -3.7925  -14.1815 O   0  0  0  0  0  0  0  0  0  0  0  0
   18.0849   -2.8193  -13.5880 O   0  0  0  0  0  0  0  0  0  0  0  0
   22.3196   -5.9820  -13.7314 O   0  0  0  0  0  0  0  0  0  0  0  0
  2  3  1  0
  2  1  1  1
  4  3  1  0
  5  6  2  0
  5  4  1  0
  7  8  2  0
  7  2  1  0
  9  5  1  0
 10 11  1  0
 11 12  1  0
 14 13  1  6
 13 12  1  0
 14 15  1  0
 15  7  1  0
 16 14  1  0
 17 16  2  0
 18 16  1  0
 19 20  1  1
 19 18  1  0
 21 25  1  0
 21 20  1  0
 22 21  2  0
 23 19  1  0
 24 23  1  0
 26 23  2  0
M  END
$$$$
