EMD.pdb
     RDKit          3D

 26 25  0  0  1  0  0  0  0  0999 V2000
   22.1489   -8.9016  -20.7338 N   0  0  0  0  0  0  0  0  0  0  0  0
   22.4026   -7.7848  -19.8426 C   0  0  1  0  0  0  0  0  0  0  0  0
   22.0283   -6.4832  -20.4695 C   0  0  0  0  0  0  0  0  0  0  0  0
   22.9783   -5.9695  -21.4892 C   0  0  0  0  0  0  0  0  0  0  0  0
   24.2904   -5.5800  -20.9472 C   0  0  0  0  0  0  0  0  0  0  0  0
   24.3843   -5.1488  -19.7911 O   0  0  0  0  0  0  0  0  0  0  0  0
   21.6281   -8.0053  -18.5943 C   0  0  0  0  0  0  0  0  0  0  0  0
   20.4700   -8.4306  -18.6623 O   0  0  0  0  0  0  0  0  0  0  0  0
   25.4571   -5.6824  -21.7092 O   0  0  0  0  0  0  0  0  0  0  0  0
   21.2475   -9.6406  -10.8797 C   0  0  0  0  0  0  0  0  0  0  0  0
   22.2388   -9.4525  -12.3704 S   0  0  0  0  0  0  0  0  0  0  0  0
   21.3126   -8.6639  -13.7151 C   0  0  0  0  0  0  0  0  0  0  0  0
   22.1917   -8.4581  -14.9372 C   0  0  0  0  0  0  0  0  0  0  0  0
   21.4547   -7.8541  -16.0792 C   0  0  2  0  0  0  0  0  0  0  0  0
   22.1559   -7.7490  -17.3020 N   0  0  0  0  0  0  0  0  0  0  0  0
   20.9766   -6.5120  -15.6652 C   0  0  0  0  0  0  0  0  0  0  0  0
   21.6839   -5.4721  -15.8755 O   0  0  0  0  0  0  0  0  0  0  0  0
   19.7204   -6.3496  -15.0247 N   0  0  0  0  0  0  0  0  0  0  0  0
   19.2054   -4.9789  -14.7543 C   0  0  1  0  0  0  0  0  0  0  0  0
   19.0157   -4.2712  -16.0705 C   0  0  0  0  0  0  0  0  0  0  0  0
   18.3702   -2.9697  -16.0101 C   0  0  0  0  0  0  0  0  0  0  0  0
   18.5585   -2.1881  -15.0573 O   0  0  0  0  0  0  0  0  0  0  0  0
   17.8581   -5.1889  -14.1440 C   0  0  0  0  0  0  0  0  0  0  0  0
   17.2192   -4.2279  -13.3676 O   0  0  0  0  0  0  0  0  0  0  0  0
   17.5209   -2.6311  -17.0790 O   0  0  0  0  0  0  0  0  0  0  0  0
   17.2589   -6.2576  -14.3207 O   0  0  0  0  0  0  0  0  0  0  0  0
  2  3  1  0
  2  1  1  6
  4  3  1  0
  5  6  2  0
  5  4  1  0
  7  8  2  0
  7  2  1  0
  9  5  1  0
 10 11  1  0
 11 12  1  0
 14 13  1  1
 13 12  1  0
 14 15  1  0
 15  7  1  0
 16 14  1  0
 17 16  2  0
 18 16  1  0
 19 20  1  6
 19 18  1  0
 21 25  1  0
 21 20  1  0
 22 21  2  0
 23 19  1  0
 24 23  1  0
 26 23  2  0
M  END
$$$$
