EMD.pdb
     RDKit          3D

 26 25  0  0  1  0  0  0  0  0999 V2000
   20.7051  -14.3497  -19.6823 N   0  0  0  0  0  0  0  0  0  0  0  0
   20.2792  -12.9625  -19.6812 C   0  0  1  0  0  0  0  0  0  0  0  0
   18.8043  -12.8385  -19.8728 C   0  0  0  0  0  0  0  0  0  0  0  0
   18.0079  -14.0302  -19.4835 C   0  0  0  0  0  0  0  0  0  0  0  0
   16.8994  -13.7379  -18.5600 C   0  0  0  0  0  0  0  0  0  0  0  0
   15.7995  -13.3797  -18.9998 O   0  0  0  0  0  0  0  0  0  0  0  0
   20.6912  -12.3541  -18.3901 C   0  0  0  0  0  0  0  0  0  0  0  0
   20.5377  -12.9882  -17.3408 O   0  0  0  0  0  0  0  0  0  0  0  0
   17.0498  -13.8532  -17.1757 O   0  0  0  0  0  0  0  0  0  0  0  0
   26.1570   -9.8753  -13.7842 C   0  0  0  0  0  0  0  0  0  0  0  0
   25.4963  -10.6607  -15.2631 S   0  0  0  0  0  0  0  0  0  0  0  0
   23.7860  -10.1609  -15.5994 C   0  0  0  0  0  0  0  0  0  0  0  0
   23.2419  -10.8672  -16.8298 C   0  0  0  0  0  0  0  0  0  0  0  0
   21.8377  -10.4850  -17.1370 C   0  0  2  0  0  0  0  0  0  0  0  0
   21.2630  -11.0587  -18.2939 N   0  0  0  0  0  0  0  0  0  0  0  0
   21.7694   -9.0059  -17.2311 C   0  0  0  0  0  0  0  0  0  0  0  0
   22.2707   -8.3901  -18.2289 O   0  0  0  0  0  0  0  0  0  0  0  0
   21.1449   -8.2373  -16.2143 N   0  0  0  0  0  0  0  0  0  0  0  0
   21.0839   -6.7554  -16.3464 C   0  0  1  0  0  0  0  0  0  0  0  0
   19.6410   -6.3282  -16.2766 C   0  0  0  0  0  0  0  0  0  0  0  0
   19.3987   -4.8948  -16.2464 C   0  0  0  0  0  0  0  0  0  0  0  0
   18.4473   -4.4041  -15.6075 O   0  0  0  0  0  0  0  0  0  0  0  0
   21.7798   -6.2332  -15.1320 C   0  0  0  0  0  0  0  0  0  0  0  0
   22.0236   -4.8802  -14.9208 O   0  0  0  0  0  0  0  0  0  0  0  0
   20.2893   -4.0841  -16.9729 O   0  0  0  0  0  0  0  0  0  0  0  0
   22.1684   -7.0174  -14.2566 O   0  0  0  0  0  0  0  0  0  0  0  0
  2  3  1  0
  2  1  1  1
  4  3  1  0
  5  6  2  0
  5  4  1  0
  7  8  2  0
  7  2  1  0
  9  5  1  0
 10 11  1  0
 11 12  1  0
 14 13  1  6
 13 12  1  0
 14 15  1  0
 15  7  1  0
 16 14  1  0
 17 16  2  0
 18 16  1  0
 19 20  1  1
 19 18  1  0
 21 25  1  0
 21 20  1  0
 22 21  2  0
 23 19  1  0
 24 23  1  0
 26 23  2  0
M  END
$$$$
