EMD.pdb
     RDKit          3D

 26 25  0  0  1  0  0  0  0  0999 V2000
   20.1635   -5.7182  -16.4039 N   0  0  0  0  0  0  0  0  0  0  0  0
   21.3295   -5.1224  -17.0295 C   0  0  1  0  0  0  0  0  0  0  0  0
   22.1198   -4.3083  -16.0599 C   0  0  0  0  0  0  0  0  0  0  0  0
   21.3311   -3.3643  -15.2276 C   0  0  0  0  0  0  0  0  0  0  0  0
   21.5275   -3.5311  -13.7782 C   0  0  0  0  0  0  0  0  0  0  0  0
   20.5852   -3.3507  -12.9966 O   0  0  0  0  0  0  0  0  0  0  0  0
   22.1612   -6.2170  -17.5925 C   0  0  0  0  0  0  0  0  0  0  0  0
   23.3152   -5.9770  -17.9632 O   0  0  0  0  0  0  0  0  0  0  0  0
   22.7668   -3.8934  -13.2441 O   0  0  0  0  0  0  0  0  0  0  0  0
   26.1515  -11.6519  -14.7351 C   0  0  0  0  0  0  0  0  0  0  0  0
   25.3030  -10.0770  -14.9354 S   0  0  0  0  0  0  0  0  0  0  0  0
   24.1117  -10.1087  -16.3022 C   0  0  0  0  0  0  0  0  0  0  0  0
   23.3246   -8.8109  -16.3717 C   0  0  0  0  0  0  0  0  0  0  0  0
   22.4670   -8.7239  -17.5838 C   0  0  2  0  0  0  0  0  0  0  0  0
   21.6937   -7.5499  -17.7305 N   0  0  0  0  0  0  0  0  0  0  0  0
   21.5764   -9.9103  -17.6082 C   0  0  0  0  0  0  0  0  0  0  0  0
   22.0493  -11.0796  -17.7954 O   0  0  0  0  0  0  0  0  0  0  0  0
   20.1754   -9.7759  -17.4238 N   0  0  0  0  0  0  0  0  0  0  0  0
   19.3586  -10.9775  -17.0985 C   0  0  1  0  0  0  0  0  0  0  0  0
   19.4077  -11.2001  -15.6094 C   0  0  0  0  0  0  0  0  0  0  0  0
   18.5708  -12.2720  -15.0946 C   0  0  0  0  0  0  0  0  0  0  0  0
   18.3650  -12.4141  -13.8733 O   0  0  0  0  0  0  0  0  0  0  0  0
   17.9599  -10.6008  -17.4636 C   0  0  0  0  0  0  0  0  0  0  0  0
   17.6273   -9.3726  -18.0252 O   0  0  0  0  0  0  0  0  0  0  0  0
   18.0018  -13.1442  -16.0400 O   0  0  0  0  0  0  0  0  0  0  0  0
   17.0336  -11.3987  -17.2689 O   0  0  0  0  0  0  0  0  0  0  0  0
  2  3  1  0
  2  1  1  1
  4  3  1  0
  5  6  2  0
  5  4  1  0
  7  8  2  0
  7  2  1  0
  9  5  1  0
 10 11  1  0
 11 12  1  0
 14 13  1  1
 13 12  1  0
 14 15  1  0
 15  7  1  0
 16 14  1  0
 17 16  2  0
 18 16  1  0
 19 20  1  1
 19 18  1  0
 21 25  1  0
 21 20  1  0
 22 21  2  0
 23 19  1  0
 24 23  1  0
 26 23  2  0
M  END
$$$$
