EMD.pdb
     RDKit          3D

 26 25  0  0  1  0  0  0  0  0999 V2000
   16.1018  -11.2844  -12.5689 N   0  0  0  0  0  0  0  0  0  0  0  0
   15.3368  -10.3228  -13.3409 C   0  0  1  0  0  0  0  0  0  0  0  0
   13.8688  -10.5648  -13.2238 C   0  0  0  0  0  0  0  0  0  0  0  0
   13.4003  -11.8900  -13.7037 C   0  0  0  0  0  0  0  0  0  0  0  0
   13.1208  -11.9426  -15.1481 C   0  0  0  0  0  0  0  0  0  0  0  0
   13.1015  -13.0292  -15.7401 O   0  0  0  0  0  0  0  0  0  0  0  0
   15.6823   -8.9619  -12.8557 C   0  0  0  0  0  0  0  0  0  0  0  0
   15.1444   -7.9761  -13.3710 O   0  0  0  0  0  0  0  0  0  0  0  0
   12.8715  -10.7842  -15.8885 O   0  0  0  0  0  0  0  0  0  0  0  0
   13.6544   -5.9790   -7.2579 C   0  0  0  0  0  0  0  0  0  0  0  0
   15.3134   -6.4960   -7.7277 S   0  0  0  0  0  0  0  0  0  0  0  0
   15.4661   -6.7717   -9.5134 C   0  0  0  0  0  0  0  0  0  0  0  0
   16.8736   -7.2111   -9.8804 C   0  0  0  0  0  0  0  0  0  0  0  0
   17.0344   -7.4638  -11.3373 C   0  0  2  0  0  0  0  0  0  0  0  0
   16.6148   -8.7273  -11.8118 N   0  0  0  0  0  0  0  0  0  0  0  0
   18.4594   -7.2499  -11.6908 C   0  0  0  0  0  0  0  0  0  0  0  0
   19.3050   -8.2002  -11.6025 O   0  0  0  0  0  0  0  0  0  0  0  0
   18.9194   -5.9831  -12.1364 N   0  0  0  0  0  0  0  0  0  0  0  0
   20.2939   -5.8552  -12.6942 C   0  0  1  0  0  0  0  0  0  0  0  0
   20.3689   -6.6543  -13.9689 C   0  0  0  0  0  0  0  0  0  0  0  0
   21.5990   -6.5259  -14.7334 C   0  0  0  0  0  0  0  0  0  0  0  0
   22.6954   -6.3117  -14.1801 O   0  0  0  0  0  0  0  0  0  0  0  0
   20.4321   -4.4099  -13.0459 C   0  0  0  0  0  0  0  0  0  0  0  0
   21.6484   -3.7358  -13.0187 O   0  0  0  0  0  0  0  0  0  0  0  0
   21.4958   -6.6547  -16.1302 O   0  0  0  0  0  0  0  0  0  0  0  0
   19.4353   -3.7568  -13.3808 O   0  0  0  0  0  0  0  0  0  0  0  0
  2  3  1  0
  2  1  1  1
  4  3  1  0
  5  6  2  0
  5  4  1  0
  7  8  2  0
  7  2  1  0
  9  5  1  0
 10 11  1  0
 11 12  1  0
 14 13  1  1
 13 12  1  0
 14 15  1  0
 15  7  1  0
 16 14  1  0
 17 16  2  0
 18 16  1  0
 19 20  1  6
 19 18  1  0
 21 25  1  0
 21 20  1  0
 22 21  2  0
 23 19  1  0
 24 23  1  0
 26 23  2  0
M  END
$$$$
