EMD.pdb
     RDKit          3D

 26 25  0  0  1  0  0  0  0  0999 V2000
   23.6795  -17.4865  -15.5204 N   0  0  0  0  0  0  0  0  0  0  0  0
   23.0104  -16.3623  -16.1482 C   0  0  1  0  0  0  0  0  0  0  0  0
   21.5265  -16.4662  -16.0269 C   0  0  0  0  0  0  0  0  0  0  0  0
   21.0345  -17.4983  -15.0789 C   0  0  0  0  0  0  0  0  0  0  0  0
   19.5697  -17.5360  -14.9372 C   0  0  0  0  0  0  0  0  0  0  0  0
   18.8643  -17.9545  -15.8638 O   0  0  0  0  0  0  0  0  0  0  0  0
   23.5010  -15.1158  -15.5059 C   0  0  0  0  0  0  0  0  0  0  0  0
   23.7112  -15.0992  -14.2884 O   0  0  0  0  0  0  0  0  0  0  0  0
   18.9358  -17.1065  -13.7684 O   0  0  0  0  0  0  0  0  0  0  0  0
   29.5960  -13.4036  -16.0094 C   0  0  0  0  0  0  0  0  0  0  0  0
   28.1624  -12.4567  -16.5466 S   0  0  0  0  0  0  0  0  0  0  0  0
   26.6320  -13.0199  -15.7535 C   0  0  0  0  0  0  0  0  0  0  0  0
   25.4569  -12.1404  -16.1465 C   0  0  0  0  0  0  0  0  0  0  0  0
   24.1530  -12.6821  -15.6789 C   0  0  2  0  0  0  0  0  0  0  0  0
   23.7465  -13.9192  -16.2285 N   0  0  0  0  0  0  0  0  0  0  0  0
   23.1080  -11.6598  -15.9327 C   0  0  0  0  0  0  0  0  0  0  0  0
   22.3259  -11.7588  -16.9349 O   0  0  0  0  0  0  0  0  0  0  0  0
   22.9509  -10.5454  -15.0678 N   0  0  0  0  0  0  0  0  0  0  0  0
   21.8786   -9.5491  -15.3406 C   0  0  1  0  0  0  0  0  0  0  0  0
   20.9473   -9.5129  -14.1572 C   0  0  0  0  0  0  0  0  0  0  0  0
   19.9131   -8.4913  -14.1877 C   0  0  0  0  0  0  0  0  0  0  0  0
   19.7610   -7.7415  -15.1720 O   0  0  0  0  0  0  0  0  0  0  0  0
   22.5854   -8.2349  -15.4128 C   0  0  0  0  0  0  0  0  0  0  0  0
   23.9623   -8.1053  -15.2644 O   0  0  0  0  0  0  0  0  0  0  0  0
   19.0891   -8.3868  -13.0526 O   0  0  0  0  0  0  0  0  0  0  0  0
   21.9418   -7.1967  -15.6130 O   0  0  0  0  0  0  0  0  0  0  0  0
  2  3  1  0
  2  1  1  1
  4  3  1  0
  5  6  2  0
  5  4  1  0
  7  8  2  0
  7  2  1  0
  9  5  1  0
 10 11  1  0
 11 12  1  0
 14 13  1  6
 13 12  1  0
 14 15  1  0
 15  7  1  0
 16 14  1  0
 17 16  2  0
 18 16  1  0
 19 20  1  1
 19 18  1  0
 21 25  1  0
 21 20  1  0
 22 21  2  0
 23 19  1  0
 24 23  1  0
 26 23  2  0
M  END
$$$$
