EMD.pdb
     RDKit          3D

 26 25  0  0  1  0  0  0  0  0999 V2000
   20.9057  -15.8107  -17.0191 N   0  0  0  0  0  0  0  0  0  0  0  0
   20.6302  -14.5461  -17.6753 C   0  0  1  0  0  0  0  0  0  0  0  0
   19.1692  -14.2420  -17.6952 C   0  0  0  0  0  0  0  0  0  0  0  0
   18.4529  -14.4684  -16.4139 C   0  0  0  0  0  0  0  0  0  0  0  0
   16.9968  -14.2679  -16.4947 C   0  0  0  0  0  0  0  0  0  0  0  0
   16.2410  -15.2373  -16.6377 O   0  0  0  0  0  0  0  0  0  0  0  0
   21.3758  -13.4810  -16.9566 C   0  0  0  0  0  0  0  0  0  0  0  0
   21.4037  -13.4838  -15.7213 O   0  0  0  0  0  0  0  0  0  0  0  0
   16.4273  -12.9945  -16.4140 O   0  0  0  0  0  0  0  0  0  0  0  0
   27.4815  -10.2831  -14.8357 C   0  0  0  0  0  0  0  0  0  0  0  0
   26.5086  -11.3111  -15.9480 S   0  0  0  0  0  0  0  0  0  0  0  0
   25.1319  -10.3989  -16.6968 C   0  0  0  0  0  0  0  0  0  0  0  0
   24.2681  -11.3145  -17.5479 C   0  0  0  0  0  0  0  0  0  0  0  0
   22.8865  -11.4581  -17.0160 C   0  0  2  0  0  0  0  0  0  0  0  0
   22.0717  -12.4398  -17.6243 N   0  0  0  0  0  0  0  0  0  0  0  0
   22.2172  -10.1367  -17.1004 C   0  0  0  0  0  0  0  0  0  0  0  0
   21.7802   -9.6947  -18.2138 O   0  0  0  0  0  0  0  0  0  0  0  0
   22.0452   -9.3298  -15.9454 N   0  0  0  0  0  0  0  0  0  0  0  0
   21.3661   -8.0102  -16.0655 C   0  0  1  0  0  0  0  0  0  0  0  0
   20.8483   -7.6136  -14.7077 C   0  0  0  0  0  0  0  0  0  0  0  0
   19.6143   -8.2536  -14.2812 C   0  0  0  0  0  0  0  0  0  0  0  0
   19.2840   -8.3058  -13.0802 O   0  0  0  0  0  0  0  0  0  0  0  0
   22.4497   -7.0542  -16.4443 C   0  0  0  0  0  0  0  0  0  0  0  0
   22.2120   -5.7151  -16.7357 O   0  0  0  0  0  0  0  0  0  0  0  0
   18.8074   -8.8130  -15.2882 O   0  0  0  0  0  0  0  0  0  0  0  0
   23.6230   -7.4436  -16.5099 O   0  0  0  0  0  0  0  0  0  0  0  0
  2  3  1  0
  2  1  1  1
  4  3  1  0
  5  6  2  0
  5  4  1  0
  7  8  2  0
  7  2  1  0
  9  5  1  0
 10 11  1  0
 11 12  1  0
 14 13  1  6
 13 12  1  0
 14 15  1  0
 15  7  1  0
 16 14  1  0
 17 16  2  0
 18 16  1  0
 19 20  1  1
 19 18  1  0
 21 25  1  0
 21 20  1  0
 22 21  2  0
 23 19  1  0
 24 23  1  0
 26 23  2  0
M  END
$$$$
