EMD.pdb
     RDKit          3D

 26 25  0  0  1  0  0  0  0  0999 V2000
   27.5377  -19.4166  -14.2823 N   0  0  0  0  0  0  0  0  0  0  0  0
   27.0312  -20.7714  -14.4002 C   0  0  1  0  0  0  0  0  0  0  0  0
   28.0918  -21.7189  -14.8526 C   0  0  0  0  0  0  0  0  0  0  0  0
   28.9446  -21.2365  -15.9688 C   0  0  0  0  0  0  0  0  0  0  0  0
   28.3972  -21.5125  -17.3072 C   0  0  0  0  0  0  0  0  0  0  0  0
   28.2428  -22.6794  -17.6891 O   0  0  0  0  0  0  0  0  0  0  0  0
   26.4951  -21.1806  -13.0767 C   0  0  0  0  0  0  0  0  0  0  0  0
   25.9744  -22.2937  -12.9473 O   0  0  0  0  0  0  0  0  0  0  0  0
   28.0388  -20.4809  -18.1789 O   0  0  0  0  0  0  0  0  0  0  0  0
   26.3964  -20.5425   -5.1827 C   0  0  0  0  0  0  0  0  0  0  0  0
   27.0058  -19.8960   -6.7483 S   0  0  0  0  0  0  0  0  0  0  0  0
   26.0818  -20.5480   -8.1658 C   0  0  0  0  0  0  0  0  0  0  0  0
   26.7105  -20.1083   -9.4773 C   0  0  0  0  0  0  0  0  0  0  0  0
   25.9836  -20.6297  -10.6656 C   0  0  2  0  0  0  0  0  0  0  0  0
   26.5492  -20.3465  -11.9296 N   0  0  0  0  0  0  0  0  0  0  0  0
   24.5918  -20.1178  -10.6196 C   0  0  0  0  0  0  0  0  0  0  0  0
   24.3511  -18.8686  -10.7063 O   0  0  0  0  0  0  0  0  0  0  0  0
   23.4919  -21.0037  -10.4781 N   0  0  0  0  0  0  0  0  0  0  0  0
   22.1312  -20.5563  -10.8846 C   0  0  1  0  0  0  0  0  0  0  0  0
   22.1478  -20.2556  -12.3606 C   0  0  0  0  0  0  0  0  0  0  0  0
   21.3107  -19.1501  -12.7981 C   0  0  0  0  0  0  0  0  0  0  0  0
   20.8348  -18.3285  -11.9902 O   0  0  0  0  0  0  0  0  0  0  0  0
   21.2547  -21.7460  -10.6652 C   0  0  0  0  0  0  0  0  0  0  0  0
   19.9410  -21.6481  -10.2190 O   0  0  0  0  0  0  0  0  0  0  0  0
   21.0614  -19.0491  -14.1786 O   0  0  0  0  0  0  0  0  0  0  0  0
   21.6909  -22.8840  -10.8824 O   0  0  0  0  0  0  0  0  0  0  0  0
  2  3  1  0
  2  1  1  1
  4  3  1  0
  5  6  2  0
  5  4  1  0
  7  8  2  0
  7  2  1  0
  9  5  1  0
 10 11  1  0
 11 12  1  0
 14 13  1  1
 13 12  1  0
 14 15  1  0
 15  7  1  0
 16 14  1  0
 17 16  2  0
 18 16  1  0
 19 20  1  6
 19 18  1  0
 21 25  1  0
 21 20  1  0
 22 21  2  0
 23 19  1  0
 24 23  1  0
 26 23  2  0
M  END
$$$$
