EMD.pdb
     RDKit          3D

 26 25  0  0  1  0  0  0  0  0999 V2000
   21.0233  -11.7170  -18.0405 N   0  0  0  0  0  0  0  0  0  0  0  0
   20.3392  -11.4993  -16.7794 C   0  0  1  0  0  0  0  0  0  0  0  0
   20.0128  -12.7873  -16.0998 C   0  0  0  0  0  0  0  0  0  0  0  0
   19.2716  -13.7746  -16.9257 C   0  0  0  0  0  0  0  0  0  0  0  0
   18.9783  -15.0397  -16.2325 C   0  0  0  0  0  0  0  0  0  0  0  0
   18.2842  -15.9049  -16.7813 O   0  0  0  0  0  0  0  0  0  0  0  0
   21.2132  -10.6614  -15.9187 C   0  0  0  0  0  0  0  0  0  0  0  0
   20.8620  -10.4011  -14.7630 O   0  0  0  0  0  0  0  0  0  0  0  0
   19.4667  -15.3024  -14.9500 O   0  0  0  0  0  0  0  0  0  0  0  0
   27.6904  -12.6592  -15.5277 C   0  0  0  0  0  0  0  0  0  0  0  0
   27.0349  -11.0474  -15.9889 S   0  0  0  0  0  0  0  0  0  0  0  0
   25.2790  -10.8755  -15.5700 C   0  0  0  0  0  0  0  0  0  0  0  0
   24.7812   -9.4708  -15.8663 C   0  0  0  0  0  0  0  0  0  0  0  0
   23.3251   -9.3116  -15.6082 C   0  0  2  0  0  0  0  0  0  0  0  0
   22.4544  -10.1330  -16.3599 N   0  0  0  0  0  0  0  0  0  0  0  0
   22.9692   -7.8870  -15.8209 C   0  0  0  0  0  0  0  0  0  0  0  0
   22.8368   -7.4145  -16.9978 O   0  0  0  0  0  0  0  0  0  0  0  0
   22.7666   -7.0127  -14.7212 N   0  0  0  0  0  0  0  0  0  0  0  0
   22.3332   -5.6098  -14.9682 C   0  0  1  0  0  0  0  0  0  0  0  0
   20.9605   -5.6357  -15.5881 C   0  0  0  0  0  0  0  0  0  0  0  0
   20.3280   -4.3431  -15.7968 C   0  0  0  0  0  0  0  0  0  0  0  0
   20.9847   -3.3390  -16.1354 O   0  0  0  0  0  0  0  0  0  0  0  0
   22.2153   -4.9999  -13.6096 C   0  0  0  0  0  0  0  0  0  0  0  0
   21.9248   -3.6553  -13.4046 O   0  0  0  0  0  0  0  0  0  0  0  0
   18.9371   -4.2766  -15.5987 O   0  0  0  0  0  0  0  0  0  0  0  0
   22.3787   -5.6994  -12.6014 O   0  0  0  0  0  0  0  0  0  0  0  0
  2  3  1  0
  2  1  1  6
  4  3  1  0
  5  6  2  0
  5  4  1  0
  7  8  2  0
  7  2  1  0
  9  5  1  0
 10 11  1  0
 11 12  1  0
 14 13  1  6
 13 12  1  0
 14 15  1  0
 15  7  1  0
 16 14  1  0
 17 16  2  0
 18 16  1  0
 19 20  1  1
 19 18  1  0
 21 25  1  0
 21 20  1  0
 22 21  2  0
 23 19  1  0
 24 23  1  0
 26 23  2  0
M  END
$$$$
