EMD.pdb
     RDKit          3D

 26 25  0  0  1  0  0  0  0  0999 V2000
   21.1707  -14.9637  -17.8500 N   0  0  0  0  0  0  0  0  0  0  0  0
   20.2567  -14.4795  -16.8322 C   0  0  1  0  0  0  0  0  0  0  0  0
   19.8304  -15.5722  -15.9093 C   0  0  0  0  0  0  0  0  0  0  0  0
   20.9226  -16.4424  -15.4033 C   0  0  0  0  0  0  0  0  0  0  0  0
   20.4666  -17.5289  -14.5208 C   0  0  0  0  0  0  0  0  0  0  0  0
   19.2652  -17.6487  -14.2490 O   0  0  0  0  0  0  0  0  0  0  0  0
   20.9375  -13.3953  -16.0787 C   0  0  0  0  0  0  0  0  0  0  0  0
   20.3396  -12.8212  -15.1624 O   0  0  0  0  0  0  0  0  0  0  0  0
   21.3621  -18.4481  -13.9682 O   0  0  0  0  0  0  0  0  0  0  0  0
   27.4986  -12.7157  -15.3750 C   0  0  0  0  0  0  0  0  0  0  0  0
   26.9449  -11.0209  -15.1271 S   0  0  0  0  0  0  0  0  0  0  0  0
   25.1403  -10.9012  -14.9962 C   0  0  0  0  0  0  0  0  0  0  0  0
   24.4596  -11.9865  -15.8133 C   0  0  0  0  0  0  0  0  0  0  0  0
   22.9786  -11.9627  -15.6784 C   0  0  2  0  0  0  0  0  0  0  0  0
   22.2636  -12.9743  -16.3591 N   0  0  0  0  0  0  0  0  0  0  0  0
   22.4939  -10.6314  -16.1188 C   0  0  0  0  0  0  0  0  0  0  0  0
   22.6200  -10.2576  -17.3314 O   0  0  0  0  0  0  0  0  0  0  0  0
   21.8773   -9.7390  -15.2033 N   0  0  0  0  0  0  0  0  0  0  0  0
   21.4133   -8.4057  -15.6765 C   0  0  1  0  0  0  0  0  0  0  0  0
   19.9799   -8.5291  -16.1229 C   0  0  0  0  0  0  0  0  0  0  0  0
   19.2986   -7.2841  -16.4393 C   0  0  0  0  0  0  0  0  0  0  0  0
   19.9098   -6.3022  -16.9045 O   0  0  0  0  0  0  0  0  0  0  0  0
   21.4460   -7.5352  -14.4628 C   0  0  0  0  0  0  0  0  0  0  0  0
   21.2725   -6.1562  -14.5138 O   0  0  0  0  0  0  0  0  0  0  0  0
   17.9140   -7.2376  -16.1961 O   0  0  0  0  0  0  0  0  0  0  0  0
   21.6342   -8.0368  -13.3468 O   0  0  0  0  0  0  0  0  0  0  0  0
  2  3  1  0
  2  1  1  6
  4  3  1  0
  5  6  2  0
  5  4  1  0
  7  8  2  0
  7  2  1  0
  9  5  1  0
 10 11  1  0
 11 12  1  0
 14 13  1  6
 13 12  1  0
 14 15  1  0
 15  7  1  0
 16 14  1  0
 17 16  2  0
 18 16  1  0
 19 20  1  1
 19 18  1  0
 21 25  1  0
 21 20  1  0
 22 21  2  0
 23 19  1  0
 24 23  1  0
 26 23  2  0
M  END
$$$$
