EMD.pdb
     RDKit          3D

 26 25  0  0  1  0  0  0  0  0999 V2000
   19.7369  -23.3968   -9.7532 N   0  0  0  0  0  0  0  0  0  0  0  0
   19.2772  -22.1398   -9.1924 C   0  0  1  0  0  0  0  0  0  0  0  0
   19.0160  -22.2526   -7.7273 C   0  0  0  0  0  0  0  0  0  0  0  0
   18.1021  -23.3520   -7.3249 C   0  0  0  0  0  0  0  0  0  0  0  0
   18.7899  -24.5553   -6.8287 C   0  0  0  0  0  0  0  0  0  0  0  0
   18.5472  -25.6620   -7.3265 O   0  0  0  0  0  0  0  0  0  0  0  0
   20.3123  -21.1087   -9.4606 C   0  0  0  0  0  0  0  0  0  0  0  0
   20.0674  -19.9218   -9.2200 O   0  0  0  0  0  0  0  0  0  0  0  0
   19.7263  -24.4892   -5.7938 O   0  0  0  0  0  0  0  0  0  0  0  0
   26.9166  -19.6957   -6.9607 C   0  0  0  0  0  0  0  0  0  0  0  0
   26.2513  -20.5906   -8.3738 S   0  0  0  0  0  0  0  0  0  0  0  0
   24.5684  -20.0600   -8.7912 C   0  0  0  0  0  0  0  0  0  0  0  0
   24.0030  -20.8847   -9.9353 C   0  0  0  0  0  0  0  0  0  0  0  0
   22.6146  -20.4910  -10.2952 C   0  0  2  0  0  0  0  0  0  0  0  0
   21.5928  -21.4184   -9.9886 N   0  0  0  0  0  0  0  0  0  0  0  0
   22.5819  -20.1792  -11.7454 C   0  0  0  0  0  0  0  0  0  0  0  0
   23.5659  -19.5990  -12.3120 O   0  0  0  0  0  0  0  0  0  0  0  0
   21.4558  -20.5181  -12.5403 N   0  0  0  0  0  0  0  0  0  0  0  0
   21.4589  -20.1958  -13.9939 C   0  0  1  0  0  0  0  0  0  0  0  0
   22.1849  -21.2943  -14.7257 C   0  0  0  0  0  0  0  0  0  0  0  0
   22.1720  -21.2135  -16.1774 C   0  0  0  0  0  0  0  0  0  0  0  0
   21.6397  -20.2583  -16.7761 O   0  0  0  0  0  0  0  0  0  0  0  0
   20.0219  -20.2413  -14.3999 C   0  0  0  0  0  0  0  0  0  0  0  0
   19.4664  -19.3613  -15.3227 O   0  0  0  0  0  0  0  0  0  0  0  0
   22.7894  -22.2652  -16.8782 O   0  0  0  0  0  0  0  0  0  0  0  0
   19.2671  -21.0908  -13.9089 O   0  0  0  0  0  0  0  0  0  0  0  0
  2  3  1  0
  2  1  1  1
  4  3  1  0
  5  6  2  0
  5  4  1  0
  7  8  2  0
  7  2  1  0
  9  5  1  0
 10 11  1  0
 11 12  1  0
 14 13  1  6
 13 12  1  0
 14 15  1  0
 15  7  1  0
 16 14  1  0
 17 16  2  0
 18 16  1  0
 19 20  1  6
 19 18  1  0
 21 25  1  0
 21 20  1  0
 22 21  2  0
 23 19  1  0
 24 23  1  0
 26 23  2  0
M  END
$$$$
