EMD.pdb
     RDKit          3D

 26 25  0  0  1  0  0  0  0  0999 V2000
   19.2603  -13.2898  -18.1240 N   0  0  0  0  0  0  0  0  0  0  0  0
   18.7157  -12.6508  -16.9404 C   0  0  1  0  0  0  0  0  0  0  0  0
   18.1395  -13.6480  -15.9912 C   0  0  0  0  0  0  0  0  0  0  0  0
   17.2403  -14.6619  -16.5991 C   0  0  0  0  0  0  0  0  0  0  0  0
   16.7255  -15.6586  -15.6459 C   0  0  0  0  0  0  0  0  0  0  0  0
   15.5080  -15.7637  -15.4505 O   0  0  0  0  0  0  0  0  0  0  0  0
   19.8056  -11.8792  -16.2895 C   0  0  0  0  0  0  0  0  0  0  0  0
   19.5809  -11.2790  -15.2332 O   0  0  0  0  0  0  0  0  0  0  0  0
   17.5820  -16.5071  -14.9397 O   0  0  0  0  0  0  0  0  0  0  0  0
   27.6255  -10.8212  -15.3258 C   0  0  0  0  0  0  0  0  0  0  0  0
   26.2986  -11.5688  -16.2854 S   0  0  0  0  0  0  0  0  0  0  0  0
   24.6747  -10.8821  -15.8615 C   0  0  0  0  0  0  0  0  0  0  0  0
   23.5694  -11.5671  -16.6474 C   0  0  0  0  0  0  0  0  0  0  0  0
   22.2118  -11.1136  -16.2431 C   0  0  2  0  0  0  0  0  0  0  0  0
   21.1170  -11.7922  -16.8251 N   0  0  0  0  0  0  0  0  0  0  0  0
   22.1035   -9.6617  -16.5287 C   0  0  0  0  0  0  0  0  0  0  0  0
   21.8541   -9.2437  -17.7073 O   0  0  0  0  0  0  0  0  0  0  0  0
   22.2742   -8.6999  -15.4989 N   0  0  0  0  0  0  0  0  0  0  0  0
   22.1576   -7.2507  -15.8204 C   0  0  1  0  0  0  0  0  0  0  0  0
   21.8636   -6.5007  -14.5475 C   0  0  0  0  0  0  0  0  0  0  0  0
   21.7851   -5.0533  -14.6611 C   0  0  0  0  0  0  0  0  0  0  0  0
   21.1862   -4.5012  -15.6048 O   0  0  0  0  0  0  0  0  0  0  0  0
   23.5189   -6.8510  -16.2884 C   0  0  0  0  0  0  0  0  0  0  0  0
   23.7298   -5.9229  -17.3027 O   0  0  0  0  0  0  0  0  0  0  0  0
   22.4176   -4.3014  -13.6545 O   0  0  0  0  0  0  0  0  0  0  0  0
   24.5238   -7.3523  -15.7678 O   0  0  0  0  0  0  0  0  0  0  0  0
  2  3  1  0
  2  1  1  6
  4  3  1  0
  5  6  2  0
  5  4  1  0
  7  8  2  0
  7  2  1  0
  9  5  1  0
 10 11  1  0
 11 12  1  0
 14 13  1  6
 13 12  1  0
 14 15  1  0
 15  7  1  0
 16 14  1  0
 17 16  2  0
 18 16  1  0
 19 20  1  1
 19 18  1  0
 21 25  1  0
 21 20  1  0
 22 21  2  0
 23 19  1  0
 24 23  1  0
 26 23  2  0
M  END
$$$$
