EMD.pdb
     RDKit          3D

 26 25  0  0  1  0  0  0  0  0999 V2000
   20.5569  -19.8083  -12.6780 N   0  0  0  0  0  0  0  0  0  0  0  0
   21.2974  -20.8720  -12.0253 C   0  0  1  0  0  0  0  0  0  0  0  0
   21.2012  -22.1550  -12.7816 C   0  0  0  0  0  0  0  0  0  0  0  0
   20.2048  -22.1733  -13.8829 C   0  0  0  0  0  0  0  0  0  0  0  0
   18.8114  -22.3206  -13.4315 C   0  0  0  0  0  0  0  0  0  0  0  0
   18.5365  -22.2581  -12.2266 O   0  0  0  0  0  0  0  0  0  0  0  0
   22.7141  -20.4415  -11.9050 C   0  0  0  0  0  0  0  0  0  0  0  0
   23.1151  -19.4737  -12.5601 O   0  0  0  0  0  0  0  0  0  0  0  0
   17.7674  -22.5331  -14.3355 O   0  0  0  0  0  0  0  0  0  0  0  0
   29.1952  -19.6910   -7.8867 C   0  0  0  0  0  0  0  0  0  0  0  0
   27.5622  -20.4330   -8.0387 S   0  0  0  0  0  0  0  0  0  0  0  0
   27.2054  -20.9644   -9.7353 C   0  0  0  0  0  0  0  0  0  0  0  0
   25.7767  -21.4659   -9.8621 C   0  0  0  0  0  0  0  0  0  0  0  0
   25.0293  -20.7978  -10.9609 C   0  0  2  0  0  0  0  0  0  0  0  0
   23.6509  -21.0940  -11.0617 N   0  0  0  0  0  0  0  0  0  0  0  0
   25.7011  -21.1224  -12.2433 C   0  0  0  0  0  0  0  0  0  0  0  0
   25.5073  -22.2442  -12.8176 O   0  0  0  0  0  0  0  0  0  0  0  0
   26.5766  -20.1940  -12.8648 N   0  0  0  0  0  0  0  0  0  0  0  0
   26.9767  -20.3985  -14.2843 C   0  0  1  0  0  0  0  0  0  0  0  0
   27.4018  -19.0717  -14.8571 C   0  0  0  0  0  0  0  0  0  0  0  0
   27.9669  -19.1043  -16.1964 C   0  0  0  0  0  0  0  0  0  0  0  0
   27.9917  -20.1516  -16.8722 O   0  0  0  0  0  0  0  0  0  0  0  0
   28.1804  -21.2811  -14.2201 C   0  0  0  0  0  0  0  0  0  0  0  0
   28.4969  -22.2050  -15.2104 O   0  0  0  0  0  0  0  0  0  0  0  0
   28.4862  -17.8967  -16.6969 O   0  0  0  0  0  0  0  0  0  0  0  0
   28.9495  -21.2087  -13.2529 O   0  0  0  0  0  0  0  0  0  0  0  0
  2  3  1  0
  2  1  1  6
  4  3  1  0
  5  6  2  0
  5  4  1  0
  7  8  2  0
  7  2  1  0
  9  5  1  0
 10 11  1  0
 11 12  1  0
 14 13  1  1
 13 12  1  0
 14 15  1  0
 15  7  1  0
 16 14  1  0
 17 16  2  0
 18 16  1  0
 19 20  1  1
 19 18  1  0
 21 25  1  0
 21 20  1  0
 22 21  2  0
 23 19  1  0
 24 23  1  0
 26 23  2  0
M  END
$$$$
