EMD.pdb
     RDKit          3D

 26 25  0  0  1  0  0  0  0  0999 V2000
   21.5279  -15.1853  -16.1949 N   0  0  0  0  0  0  0  0  0  0  0  0
   21.2698  -13.9938  -16.9819 C   0  0  1  0  0  0  0  0  0  0  0  0
   19.8415  -13.9125  -17.4069 C   0  0  0  0  0  0  0  0  0  0  0  0
   18.8471  -13.9041  -16.3036 C   0  0  0  0  0  0  0  0  0  0  0  0
   17.4518  -13.7655  -16.7520 C   0  0  0  0  0  0  0  0  0  0  0  0
   16.8583  -14.7304  -17.2501 O   0  0  0  0  0  0  0  0  0  0  0  0
   21.6394  -12.8107  -16.1631 C   0  0  0  0  0  0  0  0  0  0  0  0
   21.1642  -12.6809  -15.0300 O   0  0  0  0  0  0  0  0  0  0  0  0
   16.7606  -12.5571  -16.6319 O   0  0  0  0  0  0  0  0  0  0  0  0
   28.0634  -12.3243  -14.6651 C   0  0  0  0  0  0  0  0  0  0  0  0
   27.0300  -11.1017  -15.4885 S   0  0  0  0  0  0  0  0  0  0  0  0
   25.2630  -11.4734  -15.3224 C   0  0  0  0  0  0  0  0  0  0  0  0
   24.4127  -10.3678  -15.9253 C   0  0  0  0  0  0  0  0  0  0  0  0
   22.9580  -10.6750  -15.8833 C   0  0  2  0  0  0  0  0  0  0  0  0
   22.5262  -11.8012  -16.6202 N   0  0  0  0  0  0  0  0  0  0  0  0
   22.2166   -9.4723  -16.3364 C   0  0  0  0  0  0  0  0  0  0  0  0
   21.9383   -9.3013  -17.5689 O   0  0  0  0  0  0  0  0  0  0  0  0
   21.7974   -8.4810  -15.4111 N   0  0  0  0  0  0  0  0  0  0  0  0
   21.0916   -7.2666  -15.9050 C   0  0  1  0  0  0  0  0  0  0  0  0
   20.1065   -6.8255  -14.8542 C   0  0  0  0  0  0  0  0  0  0  0  0
   19.2828   -5.6757  -15.1914 C   0  0  0  0  0  0  0  0  0  0  0  0
   18.6329   -5.0582  -14.3251 O   0  0  0  0  0  0  0  0  0  0  0  0
   22.1540   -6.2216  -16.0101 C   0  0  0  0  0  0  0  0  0  0  0  0
   22.0961   -5.1700  -16.9186 O   0  0  0  0  0  0  0  0  0  0  0  0
   19.2524   -5.2902  -16.5437 O   0  0  0  0  0  0  0  0  0  0  0  0
   23.1431   -6.2682  -15.2672 O   0  0  0  0  0  0  0  0  0  0  0  0
  2  3  1  0
  2  1  1  1
  4  3  1  0
  5  6  2  0
  5  4  1  0
  7  8  2  0
  7  2  1  0
  9  5  1  0
 10 11  1  0
 11 12  1  0
 14 13  1  6
 13 12  1  0
 14 15  1  0
 15  7  1  0
 16 14  1  0
 17 16  2  0
 18 16  1  0
 19 20  1  1
 19 18  1  0
 21 25  1  0
 21 20  1  0
 22 21  2  0
 23 19  1  0
 24 23  1  0
 26 23  2  0
M  END
$$$$
