EMD.pdb
     RDKit          3D

 26 25  0  0  1  0  0  0  0  0999 V2000
   22.3306  -12.4217  -18.2413 N   0  0  0  0  0  0  0  0  0  0  0  0
   21.4397  -12.2190  -17.1138 C   0  0  1  0  0  0  0  0  0  0  0  0
   21.1491  -13.4991  -16.4037 C   0  0  0  0  0  0  0  0  0  0  0  0
   20.9260  -14.6780  -17.2792 C   0  0  0  0  0  0  0  0  0  0  0  0
   19.6851  -14.6151  -18.0687 C   0  0  0  0  0  0  0  0  0  0  0  0
   18.5875  -14.7699  -17.5184 O   0  0  0  0  0  0  0  0  0  0  0  0
   22.0763  -11.2433  -16.1922 C   0  0  0  0  0  0  0  0  0  0  0  0
   21.5295  -10.9732  -15.1176 O   0  0  0  0  0  0  0  0  0  0  0  0
   19.7046  -14.3821  -19.4463 O   0  0  0  0  0  0  0  0  0  0  0  0
   28.5318  -12.9627  -15.5023 C   0  0  0  0  0  0  0  0  0  0  0  0
   27.8556  -11.3185  -15.7844 S   0  0  0  0  0  0  0  0  0  0  0  0
   26.0691  -11.2503  -15.4810 C   0  0  0  0  0  0  0  0  0  0  0  0
   25.5281   -9.8495  -15.7135 C   0  0  0  0  0  0  0  0  0  0  0  0
   24.0469   -9.7798  -15.5978 C   0  0  2  0  0  0  0  0  0  0  0  0
   23.3028  -10.5914  -16.4840 N   0  0  0  0  0  0  0  0  0  0  0  0
   23.6351   -8.3635  -15.7586 C   0  0  0  0  0  0  0  0  0  0  0  0
   24.1136   -7.4535  -15.0043 O   0  0  0  0  0  0  0  0  0  0  0  0
   22.6986   -7.9837  -16.7553 N   0  0  0  0  0  0  0  0  0  0  0  0
   22.2237   -6.5739  -16.8181 C   0  0  1  0  0  0  0  0  0  0  0  0
   22.1245   -6.1669  -18.2650 C   0  0  0  0  0  0  0  0  0  0  0  0
   21.6508   -4.8158  -18.5187 C   0  0  0  0  0  0  0  0  0  0  0  0
   21.4643   -4.0018  -17.5931 O   0  0  0  0  0  0  0  0  0  0  0  0
   20.8416   -6.6093  -16.2521 C   0  0  0  0  0  0  0  0  0  0  0  0
   20.2990   -5.5653  -15.5103 O   0  0  0  0  0  0  0  0  0  0  0  0
   21.4118   -4.4674  -19.8603 O   0  0  0  0  0  0  0  0  0  0  0  0
   20.1232   -7.6005  -16.4359 O   0  0  0  0  0  0  0  0  0  0  0  0
  2  3  1  0
  2  1  1  6
  4  3  1  0
  5  6  2  0
  5  4  1  0
  7  8  2  0
  7  2  1  0
  9  5  1  0
 10 11  1  0
 11 12  1  0
 14 13  1  6
 13 12  1  0
 14 15  1  0
 15  7  1  0
 16 14  1  0
 17 16  2  0
 18 16  1  0
 19 20  1  6
 19 18  1  0
 21 25  1  0
 21 20  1  0
 22 21  2  0
 23 19  1  0
 24 23  1  0
 26 23  2  0
M  END
$$$$
