GVH.pdb
     RDKit          3D

 22 22  0  0  1  0  0  0  0  0999 V2000
    8.3595  -16.4116   15.1412 N   0  0  0  0  0  0  0  0  0  0  0  0
    7.6633  -16.5775   16.3888 C   0  0  0  0  0  0  0  0  0  0  0  0
    8.4955  -16.0208   17.5168 C   0  0  0  0  0  0  0  0  0  0  0  0
    9.7223  -16.1010   17.4444 O   0  0  0  0  0  0  0  0  0  0  0  0
    7.1587  -12.7296   19.4697 C   0  0  0  0  0  0  0  0  0  0  0  0
    7.3994  -13.8471   20.4512 C   0  0  2  0  0  0  0  0  0  0  0  0
    8.0499  -13.2400   21.6728 C   0  0  0  0  0  0  0  0  0  0  0  0
    8.2684  -14.8989   19.8210 C   0  0  2  0  0  0  0  0  0  0  0  0
    7.8317  -15.4414   18.5887 N   0  0  0  0  0  0  0  0  0  0  0  0
    8.8386  -15.8783   20.7618 C   0  0  0  0  0  0  0  0  0  0  0  0
    8.1175  -16.8287   21.1477 O   0  0  0  0  0  0  0  0  0  0  0  0
   10.1372  -15.8358   21.2672 N   0  0  0  0  0  0  0  0  0  0  0  0
   10.7445  -16.8308   22.1231 C   0  0  1  0  0  0  0  0  0  0  0  0
   12.1970  -16.9207   22.0541 C   0  0  0  0  0  0  0  0  0  0  0  0
   12.7449  -17.8945   23.0178 C   0  0  0  0  0  0  0  0  0  0  0  0
   12.2360  -18.3256   24.2355 C   0  0  0  0  0  0  0  0  0  0  0  0
   13.0777  -19.1988   24.8161 N   0  0  0  0  0  0  0  0  0  0  0  0
   14.1293  -19.3425   23.9930 C   0  0  0  0  0  0  0  0  0  0  0  0
   13.9329  -18.5734   22.9329 N   0  0  0  0  0  0  0  0  0  0  0  0
   10.2773  -16.5639   23.4797 C   0  0  0  0  0  0  0  0  0  0  0  0
    9.9870  -17.5888   24.3452 O   0  0  0  0  0  0  0  0  0  0  0  0
   10.1298  -15.3896   23.8767 O   0  0  0  0  0  0  0  0  0  0  0  0
  2  1  1  0
  3  9  1  0
  3  2  1  0
  4  3  2  0
  6  5  1  6
  6  8  1  0
  7  6  1  0
  8  9  1  6
  8 10  1  0
 10 12  1  0
 10 11  2  0
 12 13  1  0
 13 14  1  1
 14 15  1  0
 15 16  2  0
 17 16  1  0
 18 17  1  0
 19 18  2  0
 19 15  1  0
 20 13  1  0
 20 21  1  0
 22 20  2  0
M  END
$$$$
