GVH.pdb
     RDKit          3D

 22 22  0  0  1  0  0  0  0  0999 V2000
    7.7966  -17.8707   16.7293 N   0  0  0  0  0  0  0  0  0  0  0  0
    7.1605  -17.5280   17.9730 C   0  0  0  0  0  0  0  0  0  0  0  0
    8.1254  -16.7680   18.8485 C   0  0  0  0  0  0  0  0  0  0  0  0
    9.3185  -17.0716   18.8189 O   0  0  0  0  0  0  0  0  0  0  0  0
    7.3599  -12.8675   19.6627 C   0  0  0  0  0  0  0  0  0  0  0  0
    7.5159  -13.6354   20.9496 C   0  0  2  0  0  0  0  0  0  0  0  0
    8.3389  -12.7809   21.8859 C   0  0  0  0  0  0  0  0  0  0  0  0
    8.1758  -14.9576   20.6758 C   0  0  2  0  0  0  0  0  0  0  0  0
    7.6161  -15.7564   19.6501 N   0  0  0  0  0  0  0  0  0  0  0  0
    8.6024  -15.6986   21.8752 C   0  0  0  0  0  0  0  0  0  0  0  0
    7.7305  -16.2874   22.5574 O   0  0  0  0  0  0  0  0  0  0  0  0
    9.9188  -15.8019   22.3224 N   0  0  0  0  0  0  0  0  0  0  0  0
   10.3752  -16.6161   23.4269 C   0  0  1  0  0  0  0  0  0  0  0  0
   11.7628  -17.0547   23.3562 C   0  0  0  0  0  0  0  0  0  0  0  0
   12.0002  -17.9852   22.2360 C   0  0  0  0  0  0  0  0  0  0  0  0
   11.2051  -19.0134   21.7480 C   0  0  0  0  0  0  0  0  0  0  0  0
   11.8196  -19.6432   20.7312 N   0  0  0  0  0  0  0  0  0  0  0  0
   13.0056  -19.0393   20.5500 C   0  0  0  0  0  0  0  0  0  0  0  0
   13.1119  -18.0619   21.4373 N   0  0  0  0  0  0  0  0  0  0  0  0
   10.1008  -15.8653   24.6478 C   0  0  0  0  0  0  0  0  0  0  0  0
   10.1181  -16.4766   25.8765 O   0  0  0  0  0  0  0  0  0  0  0  0
    9.8406  -14.6455   24.5934 O   0  0  0  0  0  0  0  0  0  0  0  0
  2  1  1  0
  3  9  1  0
  3  2  1  0
  4  3  2  0
  6  5  1  6
  6  8  1  0
  7  6  1  0
  8  9  1  1
  8 10  1  0
 10 12  1  0
 10 11  2  0
 12 13  1  0
 13 14  1  6
 14 15  1  0
 15 16  2  0
 17 16  1  0
 18 17  1  0
 19 18  2  0
 19 15  1  0
 20 13  1  0
 20 21  1  0
 22 20  2  0
M  END
$$$$
