GVH.pdb
     RDKit          3D

 22 22  0  0  1  0  0  0  0  0999 V2000
    8.4595  -11.9715   18.5247 N   0  0  0  0  0  0  0  0  0  0  0  0
    9.2756  -12.9188   19.2358 C   0  0  0  0  0  0  0  0  0  0  0  0
    8.4772  -13.5461   20.3511 C   0  0  0  0  0  0  0  0  0  0  0  0
    7.4643  -12.9712   20.7514 O   0  0  0  0  0  0  0  0  0  0  0  0
    9.4426  -17.7288   21.0503 C   0  0  0  0  0  0  0  0  0  0  0  0
    8.1427  -17.0526   21.4012 C   0  0  2  0  0  0  0  0  0  0  0  0
    7.2651  -17.1004   20.1717 C   0  0  0  0  0  0  0  0  0  0  0  0
    8.4072  -15.6407   21.8433 C   0  0  2  0  0  0  0  0  0  0  0  0
    8.9276  -14.7495   20.8746 N   0  0  0  0  0  0  0  0  0  0  0  0
    8.9991  -15.5113   23.1858 C   0  0  0  0  0  0  0  0  0  0  0  0
   10.2099  -15.1989   23.2793 O   0  0  0  0  0  0  0  0  0  0  0  0
    8.3123  -15.7102   24.3826 N   0  0  0  0  0  0  0  0  0  0  0  0
    8.8812  -15.6201   25.7091 C   0  0  1  0  0  0  0  0  0  0  0  0
    7.9622  -15.2115   26.7632 C   0  0  0  0  0  0  0  0  0  0  0  0
    7.3799  -13.8788   26.5138 C   0  0  0  0  0  0  0  0  0  0  0  0
    8.0033  -12.6791   26.1980 C   0  0  0  0  0  0  0  0  0  0  0  0
    7.0978  -11.6907   26.0915 N   0  0  0  0  0  0  0  0  0  0  0  0
    5.8920  -12.2302   26.3341 C   0  0  0  0  0  0  0  0  0  0  0  0
    6.0585  -13.5202   26.5831 N   0  0  0  0  0  0  0  0  0  0  0  0
    9.4993  -16.9112   25.9930 C   0  0  0  0  0  0  0  0  0  0  0  0
   10.2450  -17.1072   27.1285 O   0  0  0  0  0  0  0  0  0  0  0  0
    9.3612  -17.8650   25.1995 O   0  0  0  0  0  0  0  0  0  0  0  0
  2  1  1  0
  3  9  1  0
  3  2  1  0
  4  3  2  0
  6  5  1  6
  6  8  1  0
  7  6  1  0
  8  9  1  6
  8 10  1  0
 10 12  1  0
 10 11  2  0
 12 13  1  0
 13 14  1  1
 14 15  1  0
 15 16  2  0
 17 16  1  0
 18 17  1  0
 19 18  2  0
 19 15  1  0
 20 13  1  0
 20 21  1  0
 22 20  2  0
M  END
$$$$
