GVH.pdb
     RDKit          3D

 22 22  0  0  1  0  0  0  0  0999 V2000
    9.2273  -15.7927   14.0904 N   0  0  0  0  0  0  0  0  0  0  0  0
    8.4998  -15.7719   15.3310 C   0  0  0  0  0  0  0  0  0  0  0  0
    9.3765  -15.2231   16.4288 C   0  0  0  0  0  0  0  0  0  0  0  0
   10.5931  -15.1704   16.2457 O   0  0  0  0  0  0  0  0  0  0  0  0
    7.5667  -12.5155   18.9538 C   0  0  0  0  0  0  0  0  0  0  0  0
    8.2776  -13.5977   19.7241 C   0  0  2  0  0  0  0  0  0  0  0  0
    8.9638  -12.9372   20.8976 C   0  0  0  0  0  0  0  0  0  0  0  0
    9.2581  -14.2997   18.8273 C   0  0  2  0  0  0  0  0  0  0  0  0
    8.7631  -14.8016   17.5998 N   0  0  0  0  0  0  0  0  0  0  0  0
   10.2092  -15.1855   19.5204 C   0  0  0  0  0  0  0  0  0  0  0  0
    9.9080  -16.3944   19.6623 O   0  0  0  0  0  0  0  0  0  0  0  0
   11.4389  -14.7841   20.0403 N   0  0  0  0  0  0  0  0  0  0  0  0
   12.4366  -15.6554   20.6207 C   0  0  1  0  0  0  0  0  0  0  0  0
   13.7982  -15.1372   20.6301 C   0  0  0  0  0  0  0  0  0  0  0  0
   14.3449  -14.9730   19.2694 C   0  0  0  0  0  0  0  0  0  0  0  0
   14.2277  -15.7954   18.1570 C   0  0  0  0  0  0  0  0  0  0  0  0
   14.9177  -15.2880   17.1203 N   0  0  0  0  0  0  0  0  0  0  0  0
   15.4837  -14.1454   17.5424 C   0  0  0  0  0  0  0  0  0  0  0  0
   15.1460  -13.9600   18.8095 N   0  0  0  0  0  0  0  0  0  0  0  0
   11.9722  -15.9962   21.9616 C   0  0  0  0  0  0  0  0  0  0  0  0
   12.6214  -16.9382   22.7199 O   0  0  0  0  0  0  0  0  0  0  0  0
   10.9668  -15.4342   22.4430 O   0  0  0  0  0  0  0  0  0  0  0  0
  2  1  1  0
  3  9  1  0
  3  2  1  0
  4  3  2  0
  6  5  1  6
  6  8  1  0
  7  6  1  0
  8  9  1  6
  8 10  1  0
 10 12  1  0
 10 11  2  0
 12 13  1  0
 13 14  1  1
 14 15  1  0
 15 16  2  0
 17 16  1  0
 18 17  1  0
 19 18  2  0
 19 15  1  0
 20 13  1  0
 20 21  1  0
 22 20  2  0
M  END
$$$$
