GVH.pdb
     RDKit          3D

 22 22  0  0  1  0  0  0  0  0999 V2000
    6.0076  -18.7725   18.9789 N   0  0  0  0  0  0  0  0  0  0  0  0
    5.7824  -17.5754   19.7439 C   0  0  0  0  0  0  0  0  0  0  0  0
    7.1035  -16.9464   20.1100 C   0  0  0  0  0  0  0  0  0  0  0  0
    8.1010  -17.6644   20.1874 O   0  0  0  0  0  0  0  0  0  0  0  0
    7.1592  -12.4387   20.6250 C   0  0  0  0  0  0  0  0  0  0  0  0
    8.2396  -13.3617   20.1244 C   0  0  2  0  0  0  0  0  0  0  0  0
    8.0665  -13.4864   18.6282 C   0  0  0  0  0  0  0  0  0  0  0  0
    8.1291  -14.6936   20.8117 C   0  0  2  0  0  0  0  0  0  0  0  0
    7.1288  -15.5789   20.3433 N   0  0  0  0  0  0  0  0  0  0  0  0
    8.2827  -14.6511   22.2760 C   0  0  0  0  0  0  0  0  0  0  0  0
    7.3932  -14.0862   22.9556 O   0  0  0  0  0  0  0  0  0  0  0  0
    9.3539  -15.1973   22.9815 N   0  0  0  0  0  0  0  0  0  0  0  0
    9.4521  -15.3045   24.4203 C   0  0  1  0  0  0  0  0  0  0  0  0
    8.2408  -15.7366   25.1050 C   0  0  0  0  0  0  0  0  0  0  0  0
    7.4131  -14.5994   25.5510 C   0  0  0  0  0  0  0  0  0  0  0  0
    7.6487  -13.2345   25.4557 C   0  0  0  0  0  0  0  0  0  0  0  0
    6.6476  -12.5419   26.0270 N   0  0  0  0  0  0  0  0  0  0  0  0
    5.7623  -13.4375   26.4940 C   0  0  0  0  0  0  0  0  0  0  0  0
    6.2138  -14.6504   26.2134 N   0  0  0  0  0  0  0  0  0  0  0  0
   10.5826  -16.1831   24.7029 C   0  0  0  0  0  0  0  0  0  0  0  0
   11.0340  -16.3691   25.9857 O   0  0  0  0  0  0  0  0  0  0  0  0
   11.1639  -16.7819   23.7745 O   0  0  0  0  0  0  0  0  0  0  0  0
  2  1  1  0
  3  9  1  0
  3  2  1  0
  4  3  2  0
  6  5  1  1
  6  8  1  0
  7  6  1  0
  8  9  1  1
  8 10  1  0
 10 12  1  0
 10 11  2  0
 12 13  1  0
 13 14  1  6
 14 15  1  0
 15 16  2  0
 17 16  1  0
 18 17  1  0
 19 18  2  0
 19 15  1  0
 20 13  1  0
 20 21  1  0
 22 20  2  0
M  END
$$$$
