GVH.pdb
     RDKit          3D

 22 22  0  0  1  0  0  0  0  0999 V2000
    0.6574  -27.1127   24.3714 N   0  0  0  0  0  0  0  0  0  0  0  0
    0.0668  -26.0957   25.1996 C   0  0  0  0  0  0  0  0  0  0  0  0
   -0.3778  -26.6971   26.5093 C   0  0  0  0  0  0  0  0  0  0  0  0
   -0.8980  -27.8133   26.5031 O   0  0  0  0  0  0  0  0  0  0  0  0
    1.8011  -26.4761   29.7056 C   0  0  0  0  0  0  0  0  0  0  0  0
    0.4910  -25.8216   30.0597 C   0  0  2  0  0  0  0  0  0  0  0  0
    0.0914  -26.3267   31.4269 C   0  0  0  0  0  0  0  0  0  0  0  0
   -0.5409  -26.1537   29.0188 C   0  0  2  0  0  0  0  0  0  0  0  0
   -0.1768  -25.9564   27.6652 N   0  0  0  0  0  0  0  0  0  0  0  0
   -1.9159  -25.7474   29.3561 C   0  0  0  0  0  0  0  0  0  0  0  0
   -2.4393  -24.8093   28.7094 O   0  0  0  0  0  0  0  0  0  0  0  0
   -2.6979  -26.3304   30.3522 N   0  0  0  0  0  0  0  0  0  0  0  0
   -4.1404  -26.2729   30.4369 C   0  0  1  0  0  0  0  0  0  0  0  0
   -4.8626  -27.0572   29.4440 C   0  0  0  0  0  0  0  0  0  0  0  0
   -6.3243  -26.8847   29.5482 C   0  0  0  0  0  0  0  0  0  0  0  0
   -7.0669  -26.0621   30.3845 C   0  0  0  0  0  0  0  0  0  0  0  0
   -8.3831  -26.2436   30.1775 N   0  0  0  0  0  0  0  0  0  0  0  0
   -8.5085  -27.1742   29.2172 C   0  0  0  0  0  0  0  0  0  0  0  0
   -7.2946  -27.5521   28.8464 N   0  0  0  0  0  0  0  0  0  0  0  0
   -4.4996  -26.6520   31.7996 C   0  0  0  0  0  0  0  0  0  0  0  0
   -5.4266  -25.9358   32.5150 O   0  0  0  0  0  0  0  0  0  0  0  0
   -3.9628  -27.6400   32.3420 O   0  0  0  0  0  0  0  0  0  0  0  0
  2  1  1  0
  3  9  1  0
  3  2  1  0
  4  3  2  0
  6  5  1  6
  6  8  1  0
  7  6  1  0
  8  9  1  6
  8 10  1  0
 10 12  1  0
 10 11  2  0
 12 13  1  0
 13 14  1  6
 14 15  1  0
 15 16  2  0
 17 16  1  0
 18 17  1  0
 19 18  2  0
 19 15  1  0
 20 13  1  0
 20 21  1  0
 22 20  2  0
M  END
$$$$
