GVH.pdb
     RDKit          3D

 22 22  0  0  1  0  0  0  0  0999 V2000
    8.5277  -17.5354   15.9792 N   0  0  0  0  0  0  0  0  0  0  0  0
    7.6723  -17.0177   17.0133 C   0  0  0  0  0  0  0  0  0  0  0  0
    8.5080  -16.4031   18.1082 C   0  0  0  0  0  0  0  0  0  0  0  0
    9.6997  -16.7041   18.1845 O   0  0  0  0  0  0  0  0  0  0  0  0
    7.2839  -12.7500   19.5852 C   0  0  0  0  0  0  0  0  0  0  0  0
    7.4625  -13.7602   20.6887 C   0  0  2  0  0  0  0  0  0  0  0  0
    8.1251  -13.0492   21.8460 C   0  0  0  0  0  0  0  0  0  0  0  0
    8.2907  -14.9126   20.1939 C   0  0  2  0  0  0  0  0  0  0  0  0
    7.8870  -15.5220   18.9818 N   0  0  0  0  0  0  0  0  0  0  0  0
    8.7388  -15.8487   21.2390 C   0  0  0  0  0  0  0  0  0  0  0  0
    7.9118  -16.6688   21.7036 O   0  0  0  0  0  0  0  0  0  0  0  0
   10.0295  -15.9001   21.7633 N   0  0  0  0  0  0  0  0  0  0  0  0
   10.5633  -16.9563   22.5944 C   0  0  1  0  0  0  0  0  0  0  0  0
   11.3617  -17.9603   21.9035 C   0  0  0  0  0  0  0  0  0  0  0  0
   11.8397  -19.0195   22.8128 C   0  0  0  0  0  0  0  0  0  0  0  0
   11.6754  -19.1572   24.1845 C   0  0  0  0  0  0  0  0  0  0  0  0
   12.3093  -20.2572   24.6275 N   0  0  0  0  0  0  0  0  0  0  0  0
   12.8852  -20.8386   23.5625 C   0  0  0  0  0  0  0  0  0  0  0  0
   12.6082  -20.1087   22.4927 N   0  0  0  0  0  0  0  0  0  0  0  0
   11.3081  -16.3119   23.6713 C   0  0  0  0  0  0  0  0  0  0  0  0
   11.6392  -16.9962   24.8141 O   0  0  0  0  0  0  0  0  0  0  0  0
   11.6561  -15.1172   23.5708 O   0  0  0  0  0  0  0  0  0  0  0  0
  2  1  1  0
  3  9  1  0
  3  2  1  0
  4  3  2  0
  6  5  1  6
  6  8  1  0
  7  6  1  0
  8  9  1  6
  8 10  1  0
 10 12  1  0
 10 11  2  0
 12 13  1  0
 13 14  1  6
 14 15  1  0
 15 16  2  0
 17 16  1  0
 18 17  1  0
 19 18  2  0
 19 15  1  0
 20 13  1  0
 20 21  1  0
 22 20  2  0
M  END
$$$$
