GVH.pdb
     RDKit          3D

 22 22  0  0  1  0  0  0  0  0999 V2000
    6.4431  -18.8419   18.7097 N   0  0  0  0  0  0  0  0  0  0  0  0
    6.1160  -17.6048   19.3666 C   0  0  0  0  0  0  0  0  0  0  0  0
    7.3796  -16.9149   19.8165 C   0  0  0  0  0  0  0  0  0  0  0  0
    8.4414  -17.5375   19.7771 O   0  0  0  0  0  0  0  0  0  0  0  0
    7.0909  -12.4827   20.7421 C   0  0  0  0  0  0  0  0  0  0  0  0
    8.1978  -13.2919   20.1175 C   0  0  2  0  0  0  0  0  0  0  0  0
    7.9315  -13.3454   18.6308 C   0  0  0  0  0  0  0  0  0  0  0  0
    8.2307  -14.6647   20.7282 C   0  0  2  0  0  0  0  0  0  0  0  0
    7.2815  -15.6025   20.2558 N   0  0  0  0  0  0  0  0  0  0  0  0
    8.4570  -14.6915   22.1834 C   0  0  0  0  0  0  0  0  0  0  0  0
    7.6850  -14.0352   22.9220 O   0  0  0  0  0  0  0  0  0  0  0  0
    9.4761  -15.3992   22.8189 N   0  0  0  0  0  0  0  0  0  0  0  0
    9.6763  -15.4933   24.2481 C   0  0  1  0  0  0  0  0  0  0  0  0
    8.5247  -15.9443   25.0181 C   0  0  0  0  0  0  0  0  0  0  0  0
    7.6753  -14.8234   25.4649 C   0  0  0  0  0  0  0  0  0  0  0  0
    7.8750  -13.4541   25.3518 C   0  0  0  0  0  0  0  0  0  0  0  0
    6.8656  -12.7806   25.9310 N   0  0  0  0  0  0  0  0  0  0  0  0
    6.0101  -13.6930   26.4207 C   0  0  0  0  0  0  0  0  0  0  0  0
    6.4878  -14.8972   26.1459 N   0  0  0  0  0  0  0  0  0  0  0  0
   10.8415  -16.3468   24.4568 C   0  0  0  0  0  0  0  0  0  0  0  0
   11.3422  -16.5698   25.7151 O   0  0  0  0  0  0  0  0  0  0  0  0
   11.4082  -16.8896   23.4858 O   0  0  0  0  0  0  0  0  0  0  0  0
  2  1  1  0
  3  9  1  0
  3  2  1  0
  4  3  2  0
  6  5  1  1
  6  8  1  0
  7  6  1  0
  8  9  1  1
  8 10  1  0
 10 12  1  0
 10 11  2  0
 12 13  1  0
 13 14  1  1
 14 15  1  0
 15 16  2  0
 17 16  1  0
 18 17  1  0
 19 18  2  0
 19 15  1  0
 20 13  1  0
 20 21  1  0
 22 20  2  0
M  END
$$$$
