GVH.pdb
     RDKit          3D

 22 22  0  0  1  0  0  0  0  0999 V2000
   16.5251  -19.4918   23.8669 N   0  0  0  0  0  0  0  0  0  0  0  0
   17.1723  -19.1896   25.1154 C   0  0  0  0  0  0  0  0  0  0  0  0
   17.0116  -20.3477   26.0683 C   0  0  0  0  0  0  0  0  0  0  0  0
   16.4639  -21.3748   25.6663 O   0  0  0  0  0  0  0  0  0  0  0  0
   19.6310  -20.1620   29.4611 C   0  0  0  0  0  0  0  0  0  0  0  0
   18.9321  -21.4105   28.9893 C   0  0  2  0  0  0  0  0  0  0  0  0
   19.7938  -22.0283   27.9123 C   0  0  0  0  0  0  0  0  0  0  0  0
   17.5623  -21.0638   28.4772 C   0  0  2  0  0  0  0  0  0  0  0  0
   17.4928  -20.1964   27.3608 N   0  0  0  0  0  0  0  0  0  0  0  0
   16.5548  -20.8115   29.5216 C   0  0  0  0  0  0  0  0  0  0  0  0
   16.4802  -19.6622   30.0172 O   0  0  0  0  0  0  0  0  0  0  0  0
   15.6607  -21.7616   30.0129 N   0  0  0  0  0  0  0  0  0  0  0  0
   14.6243  -21.5207   30.9924 C   0  0  1  0  0  0  0  0  0  0  0  0
   13.2565  -21.6699   30.5134 C   0  0  0  0  0  0  0  0  0  0  0  0
   12.9398  -20.7309   29.4202 C   0  0  0  0  0  0  0  0  0  0  0  0
   12.7795  -19.3521   29.4485 C   0  0  0  0  0  0  0  0  0  0  0  0
   12.4556  -18.8896   28.2281 N   0  0  0  0  0  0  0  0  0  0  0  0
   12.4023  -19.9490   27.4042 C   0  0  0  0  0  0  0  0  0  0  0  0
   12.6877  -21.0344   28.1072 N   0  0  0  0  0  0  0  0  0  0  0  0
   14.9042  -22.3937   32.1279 C   0  0  0  0  0  0  0  0  0  0  0  0
   14.1892  -22.2918   33.2951 O   0  0  0  0  0  0  0  0  0  0  0  0
   15.8078  -23.2520   32.0563 O   0  0  0  0  0  0  0  0  0  0  0  0
  2  1  1  0
  3  9  1  0
  3  2  1  0
  4  3  2  0
  6  5  1  6
  6  8  1  0
  7  6  1  0
  8  9  1  1
  8 10  1  0
 10 12  1  0
 10 11  2  0
 12 13  1  0
 13 14  1  6
 14 15  1  0
 15 16  2  0
 17 16  1  0
 18 17  1  0
 19 18  2  0
 19 15  1  0
 20 13  1  0
 20 21  1  0
 22 20  2  0
M  END
$$$$
