GVH.pdb
     RDKit          3D

 22 22  0  0  1  0  0  0  0  0999 V2000
    6.4623  -15.1681   20.6645 N   0  0  0  0  0  0  0  0  0  0  0  0
    6.0057  -15.2842   22.0235 C   0  0  0  0  0  0  0  0  0  0  0  0
    7.0682  -14.7752   22.9653 C   0  0  0  0  0  0  0  0  0  0  0  0
    8.2130  -14.6189   22.5391 O   0  0  0  0  0  0  0  0  0  0  0  0
    6.3620  -12.0925   25.7522 C   0  0  0  0  0  0  0  0  0  0  0  0
    6.8551  -13.3265   26.4622 C   0  0  2  0  0  0  0  0  0  0  0  0
    7.8835  -12.8808   27.4761 C   0  0  0  0  0  0  0  0  0  0  0  0
    7.4357  -14.2891   25.4649 C   0  0  2  0  0  0  0  0  0  0  0  0
    6.6995  -14.5062   24.2756 N   0  0  0  0  0  0  0  0  0  0  0  0
    8.0402  -15.4986   26.0489 C   0  0  0  0  0  0  0  0  0  0  0  0
    7.2817  -16.3993   26.4799 O   0  0  0  0  0  0  0  0  0  0  0  0
    9.4103  -15.7295   26.1635 N   0  0  0  0  0  0  0  0  0  0  0  0
   10.0260  -16.9564   26.6185 C   0  0  1  0  0  0  0  0  0  0  0  0
   11.2556  -17.3363   25.9357 C   0  0  0  0  0  0  0  0  0  0  0  0
   11.0982  -17.3586   24.4687 C   0  0  0  0  0  0  0  0  0  0  0  0
   11.4816  -16.4230   23.5172 C   0  0  0  0  0  0  0  0  0  0  0  0
   11.1109  -16.8214   22.2876 N   0  0  0  0  0  0  0  0  0  0  0  0
   10.4905  -18.0047   22.4248 C   0  0  0  0  0  0  0  0  0  0  0  0
   10.4831  -18.3212   23.7108 N   0  0  0  0  0  0  0  0  0  0  0  0
   10.2192  -16.8239   28.0590 C   0  0  0  0  0  0  0  0  0  0  0  0
   10.5834  -17.9005   28.8286 O   0  0  0  0  0  0  0  0  0  0  0  0
   10.0518  -15.7210   28.6193 O   0  0  0  0  0  0  0  0  0  0  0  0
  2  1  1  0
  3  9  1  0
  3  2  1  0
  4  3  2  0
  6  5  1  6
  6  8  1  0
  7  6  1  0
  8  9  1  6
  8 10  1  0
 10 12  1  0
 10 11  2  0
 12 13  1  0
 13 14  1  6
 14 15  1  0
 15 16  2  0
 17 16  1  0
 18 17  1  0
 19 18  2  0
 19 15  1  0
 20 13  1  0
 20 21  1  0
 22 20  2  0
M  END
$$$$
