WYK.pdb
     RDKit          3D

 36 38  0  0  1  0  0  0  0  0999 V2000
    8.3323  -18.6513   21.5635 N   0  0  0  0  0  0  0  0  0  0  0  0
    8.5190  -17.2210   21.4341 C   0  0  1  0  0  0  0  0  0  0  0  0
    7.2338  -16.6130   20.9549 C   0  0  0  0  0  0  0  0  0  0  0  0
    7.5455  -15.3849   20.1820 C   0  0  0  0  0  0  0  0  0  0  0  0
    7.7097  -15.2321   18.8118 C   0  0  0  0  0  0  0  0  0  0  0  0
    7.9816  -13.9343   18.5382 N   0  0  0  0  0  0  0  0  0  0  0  0
    8.0022  -13.2269   19.6802 C   0  0  0  0  0  0  0  0  0  0  0  0
    8.2291  -11.8939   19.9357 C   0  0  0  0  0  0  0  0  0  0  0  0
    8.1868  -11.4347   21.2461 C   0  0  0  0  0  0  0  0  0  0  0  0
    7.9212  -12.2937   22.2932 C   0  0  0  0  0  0  0  0  0  0  0  0
    7.6983  -13.6214   22.0067 C   0  0  0  0  0  0  0  0  0  0  0  0
    7.7332  -14.1184   20.6999 C   0  0  0  0  0  0  0  0  0  0  0  0
    8.9820  -16.6215   22.7116 C   0  0  0  0  0  0  0  0  0  0  0  0
    8.5448  -15.4838   23.0196 O   0  0  0  0  0  0  0  0  0  0  0  0
   10.8201  -14.2782   30.7577 O   0  0  0  0  0  0  0  0  0  0  0  0
   10.4115  -14.8430   29.5587 C   0  0  0  0  0  0  0  0  0  0  0  0
   10.3091  -16.2041   29.3670 C   0  0  0  0  0  0  0  0  0  0  0  0
    9.8981  -16.7183   28.1567 C   0  0  0  0  0  0  0  0  0  0  0  0
    9.5737  -15.8986   27.0920 C   0  0  0  0  0  0  0  0  0  0  0  0
    9.1297  -16.4468   25.7855 C   0  0  0  0  0  0  0  0  0  0  0  0
   10.2895  -16.6543   24.8423 C   0  0  2  0  0  0  0  0  0  0  0  0
    9.8752  -17.2493   23.5901 N   0  0  0  0  0  0  0  0  0  0  0  0
   11.2459  -17.5892   25.5238 C   0  0  0  0  0  0  0  0  0  0  0  0
   11.6819  -17.3098   26.6878 O   0  0  0  0  0  0  0  0  0  0  0  0
    9.6758  -14.5421   27.2840 C   0  0  0  0  0  0  0  0  0  0  0  0
   10.0905  -14.0173   28.5047 C   0  0  0  0  0  0  0  0  0  0  0  0
   11.6819  -18.7753   24.9164 N   0  0  0  0  0  0  0  0  0  0  0  0
   12.8785  -18.7849   24.1163 C   0  0  1  0  0  0  0  0  0  0  0  0
   12.6833  -18.0578   22.7989 C   0  0  0  0  0  0  0  0  0  0  0  0
   13.9204  -18.1006   21.9377 C   0  0  0  0  0  0  0  0  0  0  0  0
   13.6109  -17.5001   20.6016 C   0  0  0  0  0  0  0  0  0  0  0  0
   14.8338  -17.3644   19.7192 C   0  0  0  0  0  0  0  0  0  0  0  0
   14.8918  -18.3493   18.6854 N   0  0  0  0  0  0  0  0  0  0  0  0
   14.0370  -18.2874   24.8628 C   0  0  0  0  0  0  0  0  0  0  0  0
   15.2117  -19.0182   24.9137 O   0  0  0  0  0  0  0  0  0  0  0  0
   13.9894  -17.1926   25.4698 O   0  0  0  0  0  0  0  0  0  0  0  0
  2  1  1  1
  2  3  1  0
  3  4  1  0
  4  5  2  0
  5  6  1  0
  7  6  1  0
  8  7  2  0
  9  8  1  0
 10 11  1  0
 10  9  2  0
 11 12  2  0
 12  4  1  0
 12  7  1  0
 13 14  2  0
 13  2  1  0
 15 16  1  0
 16 26  2  0
 17 16  1  0
 17 18  2  0
 18 19  1  0
 19 25  2  0
 19 20  1  0
 21 20  1  1
 21 22  1  0
 22 13  1  0
 23 27  1  0
 23 21  1  0
 24 23  2  0
 26 25  1  0
 28 27  1  0
 28 34  1  0
 29 30  1  0
 28 29  1  6
 31 30  1  0
 32 31  1  0
 33 32  1  0
 34 35  1  0
 36 34  2  0
M  END
$$$$
