WYK.pdb
     RDKit          3D

 36 38  0  0  1  0  0  0  0  0999 V2000
    7.0418  -17.9991   26.0666 N   0  0  0  0  0  0  0  0  0  0  0  0
    7.2613  -16.6680   25.5399 C   0  0  1  0  0  0  0  0  0  0  0  0
    8.5696  -16.1559   26.0661 C   0  0  0  0  0  0  0  0  0  0  0  0
    8.2987  -15.1055   27.0790 C   0  0  0  0  0  0  0  0  0  0  0  0
    8.4403  -15.1640   28.4589 C   0  0  0  0  0  0  0  0  0  0  0  0
    8.0831  -13.9726   28.9939 N   0  0  0  0  0  0  0  0  0  0  0  0
    7.7112  -13.1314   28.0145 C   0  0  0  0  0  0  0  0  0  0  0  0
    7.2702  -11.8281   28.0360 C   0  0  0  0  0  0  0  0  0  0  0  0
    6.9501  -11.1976   26.8402 C   0  0  0  0  0  0  0  0  0  0  0  0
    7.0678  -11.8575   25.6338 C   0  0  0  0  0  0  0  0  0  0  0  0
    7.5115  -13.1603   25.6439 C   0  0  0  0  0  0  0  0  0  0  0  0
    7.8425  -13.8262   26.8284 C   0  0  0  0  0  0  0  0  0  0  0  0
    7.2118  -16.6623   24.0555 C   0  0  0  0  0  0  0  0  0  0  0  0
    7.4597  -17.7385   23.4550 O   0  0  0  0  0  0  0  0  0  0  0  0
    8.4293  -13.5207   15.8851 O   0  0  0  0  0  0  0  0  0  0  0  0
    8.0410  -13.6776   17.2073 C   0  0  0  0  0  0  0  0  0  0  0  0
    7.1826  -14.6721   17.6241 C   0  0  0  0  0  0  0  0  0  0  0  0
    6.8258  -14.7878   18.9498 C   0  0  0  0  0  0  0  0  0  0  0  0
    7.3091  -13.9192   19.9104 C   0  0  0  0  0  0  0  0  0  0  0  0
    6.9286  -14.0391   21.3405 C   0  0  0  0  0  0  0  0  0  0  0  0
    7.3592  -15.3622   21.9252 C   0  0  2  0  0  0  0  0  0  0  0  0
    6.9056  -15.5299   23.2890 N   0  0  0  0  0  0  0  0  0  0  0  0
    8.8601  -15.3778   21.9141 C   0  0  0  0  0  0  0  0  0  0  0  0
    9.5038  -15.0165   22.9526 O   0  0  0  0  0  0  0  0  0  0  0  0
    8.1648  -12.9283   19.4940 C   0  0  0  0  0  0  0  0  0  0  0  0
    8.5285  -12.8068   18.1559 C   0  0  0  0  0  0  0  0  0  0  0  0
    9.5885  -15.7817   20.7862 N   0  0  0  0  0  0  0  0  0  0  0  0
   10.9872  -16.1020   20.9006 C   0  0  1  0  0  0  0  0  0  0  0  0
   11.2319  -17.2155   21.9019 C   0  0  0  0  0  0  0  0  0  0  0  0
   12.6607  -17.6969   21.8783 C   0  0  0  0  0  0  0  0  0  0  0  0
   12.8429  -18.7494   22.9273 C   0  0  0  0  0  0  0  0  0  0  0  0
   14.2459  -19.3179   22.9540 C   0  0  0  0  0  0  0  0  0  0  0  0
   14.4275  -20.3168   23.9597 N   0  0  0  0  0  0  0  0  0  0  0  0
   11.5905  -16.3820   19.5950 C   0  0  0  0  0  0  0  0  0  0  0  0
   10.8007  -16.5173   18.4661 O   0  0  0  0  0  0  0  0  0  0  0  0
   12.8311  -16.5049   19.4726 O   0  0  0  0  0  0  0  0  0  0  0  0
  2  1  1  6
  2  3  1  0
  3  4  1  0
  4  5  2  0
  5  6  1  0
  7  6  1  0
  8  7  2  0
  9  8  1  0
 10 11  1  0
 10  9  2  0
 11 12  2  0
 12  4  1  0
 12  7  1  0
 13 14  2  0
 13  2  1  0
 15 16  1  0
 16 26  2  0
 17 16  1  0
 17 18  2  0
 18 19  1  0
 19 25  2  0
 19 20  1  0
 21 20  1  1
 21 22  1  0
 22 13  1  0
 23 27  1  0
 23 21  1  0
 24 23  2  0
 26 25  1  0
 28 27  1  0
 28 34  1  0
 29 30  1  0
 28 29  1  1
 31 30  1  0
 32 31  1  0
 33 32  1  0
 34 35  1  0
 36 34  2  0
M  END
$$$$
