WYK.pdb
     RDKit          3D

 36 38  0  0  1  0  0  0  0  0999 V2000
    9.6881  -15.4838   20.7185 N   0  0  0  0  0  0  0  0  0  0  0  0
    9.0610  -15.7117   22.0040 C   0  0  1  0  0  0  0  0  0  0  0  0
    7.5933  -15.4280   21.8764 C   0  0  0  0  0  0  0  0  0  0  0  0
    7.3655  -13.9792   22.1038 C   0  0  0  0  0  0  0  0  0  0  0  0
    7.4308  -12.9306   21.1960 C   0  0  0  0  0  0  0  0  0  0  0  0
    7.1464  -11.7710   21.8343 N   0  0  0  0  0  0  0  0  0  0  0  0
    6.8962  -12.0190   23.1308 C   0  0  0  0  0  0  0  0  0  0  0  0
    6.5651  -11.1934   24.1808 C   0  0  0  0  0  0  0  0  0  0  0  0
    6.3611  -11.7421   25.4406 C   0  0  0  0  0  0  0  0  0  0  0  0
    6.4853  -13.1000   25.6542 C   0  0  0  0  0  0  0  0  0  0  0  0
    6.8174  -13.9005   24.5849 C   0  0  0  0  0  0  0  0  0  0  0  0
    7.0300  -13.3825   23.3033 C   0  0  0  0  0  0  0  0  0  0  0  0
    9.3266  -17.0879   22.4952 C   0  0  0  0  0  0  0  0  0  0  0  0
   10.1217  -17.8042   21.8356 O   0  0  0  0  0  0  0  0  0  0  0  0
   11.6425  -15.3420   30.5460 O   0  0  0  0  0  0  0  0  0  0  0  0
   11.1498  -15.5293   29.2632 C   0  0  0  0  0  0  0  0  0  0  0  0
   11.7522  -16.3587   28.3419 C   0  0  0  0  0  0  0  0  0  0  0  0
   11.2248  -16.5126   27.0784 C   0  0  0  0  0  0  0  0  0  0  0  0
   10.0789  -15.8477   26.6839 C   0  0  0  0  0  0  0  0  0  0  0  0
    9.5055  -16.0099   25.3241 C   0  0  0  0  0  0  0  0  0  0  0  0
    9.3145  -17.4637   24.9668 C   0  0  2  0  0  0  0  0  0  0  0  0
    8.7437  -17.6315   23.6477 N   0  0  0  0  0  0  0  0  0  0  0  0
    8.3657  -18.0414   25.9764 C   0  0  0  0  0  0  0  0  0  0  0  0
    7.4237  -17.3215   26.4430 O   0  0  0  0  0  0  0  0  0  0  0  0
    9.4790  -15.0213   27.6030 C   0  0  0  0  0  0  0  0  0  0  0  0
   10.0077  -14.8622   28.8808 C   0  0  0  0  0  0  0  0  0  0  0  0
    8.4808  -19.3631   26.4298 N   0  0  0  0  0  0  0  0  0  0  0  0
    7.6013  -19.8589   27.4558 C   0  0  1  0  0  0  0  0  0  0  0  0
    6.8886  -21.1272   27.0247 C   0  0  0  0  0  0  0  0  0  0  0  0
    6.1474  -20.9482   25.7237 C   0  0  0  0  0  0  0  0  0  0  0  0
    5.9491  -22.2864   25.0822 C   0  0  0  0  0  0  0  0  0  0  0  0
    5.3230  -22.1932   23.7067 C   0  0  0  0  0  0  0  0  0  0  0  0
    6.1659  -22.7021   22.6710 N   0  0  0  0  0  0  0  0  0  0  0  0
    8.2931  -20.0149   28.7379 C   0  0  0  0  0  0  0  0  0  0  0  0
    9.6567  -19.7966   28.8361 O   0  0  0  0  0  0  0  0  0  0  0  0
    7.6671  -20.3487   29.7704 O   0  0  0  0  0  0  0  0  0  0  0  0
  2  1  1  6
  2  3  1  0
  3  4  1  0
  4  5  2  0
  5  6  1  0
  7  6  1  0
  8  7  2  0
  9  8  1  0
 10 11  1  0
 10  9  2  0
 11 12  2  0
 12  4  1  0
 12  7  1  0
 13 14  2  0
 13  2  1  0
 15 16  1  0
 16 26  2  0
 17 16  1  0
 17 18  2  0
 18 19  1  0
 19 25  2  0
 19 20  1  0
 21 20  1  1
 21 22  1  0
 22 13  1  0
 23 27  1  0
 23 21  1  0
 24 23  2  0
 26 25  1  0
 28 27  1  0
 28 34  1  0
 29 30  1  0
 28 29  1  6
 31 30  1  0
 32 31  1  0
 33 32  1  0
 34 35  1  0
 36 34  2  0
M  END
$$$$
