WYK.pdb
     RDKit          3D

 36 38  0  0  1  0  0  0  0  0999 V2000
    7.3637  -17.1919   23.6670 N   0  0  0  0  0  0  0  0  0  0  0  0
    8.6147  -17.1458   24.3952 C   0  0  1  0  0  0  0  0  0  0  0  0
    8.3178  -16.8544   25.8367 C   0  0  0  0  0  0  0  0  0  0  0  0
    7.3385  -15.7414   25.9069 C   0  0  0  0  0  0  0  0  0  0  0  0
    5.9532  -15.7988   25.9808 C   0  0  0  0  0  0  0  0  0  0  0  0
    5.4577  -14.5399   26.0312 N   0  0  0  0  0  0  0  0  0  0  0  0
    6.4681  -13.6551   25.9932 C   0  0  0  0  0  0  0  0  0  0  0  0
    6.4911  -12.2795   26.0172 C   0  0  0  0  0  0  0  0  0  0  0  0
    7.7113  -11.6177   25.9631 C   0  0  0  0  0  0  0  0  0  0  0  0
    8.8981  -12.3179   25.8859 C   0  0  0  0  0  0  0  0  0  0  0  0
    8.8435  -13.6930   25.8637 C   0  0  0  0  0  0  0  0  0  0  0  0
    7.6333  -14.3922   25.9165 C   0  0  0  0  0  0  0  0  0  0  0  0
    9.3835  -18.4049   24.2234 C   0  0  0  0  0  0  0  0  0  0  0  0
    8.7373  -19.4768   24.1062 O   0  0  0  0  0  0  0  0  0  0  0  0
   10.9432  -18.2488   17.8572 O   0  0  0  0  0  0  0  0  0  0  0  0
   11.3767  -18.5411   19.1418 C   0  0  0  0  0  0  0  0  0  0  0  0
   11.9510  -17.6024   19.9716 C   0  0  0  0  0  0  0  0  0  0  0  0
   12.3663  -17.9408   21.2409 C   0  0  0  0  0  0  0  0  0  0  0  0
   12.2261  -19.2252   21.7324 C   0  0  0  0  0  0  0  0  0  0  0  0
   12.6712  -19.5958   23.0995 C   0  0  0  0  0  0  0  0  0  0  0  0
   11.5084  -19.7112   24.0547 C   0  0  2  0  0  0  0  0  0  0  0  0
   10.7829  -18.4660   24.1846 N   0  0  0  0  0  0  0  0  0  0  0  0
   12.0776  -20.0761   25.3949 C   0  0  0  0  0  0  0  0  0  0  0  0
   12.6160  -21.2185   25.5633 O   0  0  0  0  0  0  0  0  0  0  0  0
   11.6534  -20.1602   20.9046 C   0  0  0  0  0  0  0  0  0  0  0  0
   11.2322  -19.8236   19.6214 C   0  0  0  0  0  0  0  0  0  0  0  0
   12.0375  -19.1920   26.4823 N   0  0  0  0  0  0  0  0  0  0  0  0
   12.4173  -19.6390   27.7969 C   0  0  1  0  0  0  0  0  0  0  0  0
   13.7361  -19.0337   28.2404 C   0  0  0  0  0  0  0  0  0  0  0  0
   14.8427  -19.2948   27.2498 C   0  0  0  0  0  0  0  0  0  0  0  0
   16.1226  -18.7281   27.7810 C   0  0  0  0  0  0  0  0  0  0  0  0
   17.3184  -19.0591   26.9133 C   0  0  0  0  0  0  0  0  0  0  0  0
   18.5166  -18.4051   27.3360 N   0  0  0  0  0  0  0  0  0  0  0  0
   11.3475  -19.4255   28.7751 C   0  0  0  0  0  0  0  0  0  0  0  0
   11.4726  -19.8930   30.0722 O   0  0  0  0  0  0  0  0  0  0  0  0
   10.2990  -18.8169   28.4594 O   0  0  0  0  0  0  0  0  0  0  0  0
  2  1  1  6
  2  3  1  0
  3  4  1  0
  4  5  2  0
  5  6  1  0
  7  6  1  0
  8  7  2  0
  9  8  1  0
 10 11  1  0
 10  9  2  0
 11 12  2  0
 12  4  1  0
 12  7  1  0
 13 14  2  0
 13  2  1  0
 15 16  1  0
 16 26  2  0
 17 16  1  0
 17 18  2  0
 18 19  1  0
 19 25  2  0
 19 20  1  0
 21 20  1  6
 21 22  1  0
 22 13  1  0
 23 27  1  0
 23 21  1  0
 24 23  2  0
 26 25  1  0
 28 27  1  0
 28 34  1  0
 29 30  1  0
 28 29  1  1
 31 30  1  0
 32 31  1  0
 33 32  1  0
 34 35  1  0
 36 34  2  0
M  END
$$$$
