WYK.pdb
     RDKit          3D

 36 38  0  0  1  0  0  0  0  0999 V2000
    6.4746  -17.8886   25.9223 N   0  0  0  0  0  0  0  0  0  0  0  0
    7.1120  -16.6248   25.6156 C   0  0  1  0  0  0  0  0  0  0  0  0
    8.3700  -16.5154   26.4258 C   0  0  0  0  0  0  0  0  0  0  0  0
    8.2252  -15.3901   27.3826 C   0  0  0  0  0  0  0  0  0  0  0  0
    8.5434  -15.3443   28.7334 C   0  0  0  0  0  0  0  0  0  0  0  0
    8.2509  -14.1145   29.2180 N   0  0  0  0  0  0  0  0  0  0  0  0
    7.7512  -13.3485   28.2339 C   0  0  0  0  0  0  0  0  0  0  0  0
    7.3088  -12.0457   28.2131 C   0  0  0  0  0  0  0  0  0  0  0  0
    6.8339  -11.5064   27.0242 C   0  0  0  0  0  0  0  0  0  0  0  0
    6.7994  -12.2563   25.8661 C   0  0  0  0  0  0  0  0  0  0  0  0
    7.2485  -13.5564   25.9177 C   0  0  0  0  0  0  0  0  0  0  0  0
    7.7330  -14.1318   27.0967 C   0  0  0  0  0  0  0  0  0  0  0  0
    7.3686  -16.4918   24.1588 C   0  0  0  0  0  0  0  0  0  0  0  0
    7.4769  -17.5458   23.4824 O   0  0  0  0  0  0  0  0  0  0  0  0
    8.3980  -13.4710   15.9418 O   0  0  0  0  0  0  0  0  0  0  0  0
    8.1761  -13.5606   17.3080 C   0  0  0  0  0  0  0  0  0  0  0  0
    7.0762  -14.1901   17.8496 C   0  0  0  0  0  0  0  0  0  0  0  0
    6.8991  -14.2536   19.2145 C   0  0  0  0  0  0  0  0  0  0  0  0
    7.8089  -13.6935   20.0916 C   0  0  0  0  0  0  0  0  0  0  0  0
    7.6239  -13.7591   21.5632 C   0  0  0  0  0  0  0  0  0  0  0  0
    7.8117  -15.1612   22.0891 C   0  0  2  0  0  0  0  0  0  0  0  0
    7.4965  -15.2629   23.4977 N   0  0  0  0  0  0  0  0  0  0  0  0
    9.2585  -15.5111   21.8954 C   0  0  0  0  0  0  0  0  0  0  0  0
   10.1127  -15.1811   22.7812 O   0  0  0  0  0  0  0  0  0  0  0  0
    8.9052  -13.0664   19.5507 C   0  0  0  0  0  0  0  0  0  0  0  0
    9.0889  -12.9993   18.1726 C   0  0  0  0  0  0  0  0  0  0  0  0
    9.7089  -16.1977   20.7590 N   0  0  0  0  0  0  0  0  0  0  0  0
   11.0594  -16.6920   20.6961 C   0  0  1  0  0  0  0  0  0  0  0  0
   11.1901  -17.8582   19.7342 C   0  0  0  0  0  0  0  0  0  0  0  0
   12.6083  -18.3623   19.6420 C   0  0  0  0  0  0  0  0  0  0  0  0
   12.6485  -19.5563   18.7396 C   0  0  0  0  0  0  0  0  0  0  0  0
   14.0318  -20.1610   18.6240 C   0  0  0  0  0  0  0  0  0  0  0  0
   14.1179  -21.1776   17.6233 N   0  0  0  0  0  0  0  0  0  0  0  0
   12.0184  -15.6217   20.4103 C   0  0  0  0  0  0  0  0  0  0  0  0
   11.9164  -14.8727   19.2505 O   0  0  0  0  0  0  0  0  0  0  0  0
   12.9493  -15.3622   21.2075 O   0  0  0  0  0  0  0  0  0  0  0  0
  2  1  1  6
  2  3  1  0
  3  4  1  0
  4  5  2  0
  5  6  1  0
  7  6  1  0
  8  7  2  0
  9  8  1  0
 10 11  1  0
 10  9  2  0
 11 12  2  0
 12  4  1  0
 12  7  1  0
 13 14  2  0
 13  2  1  0
 15 16  1  0
 16 26  2  0
 17 16  1  0
 17 18  2  0
 18 19  1  0
 19 25  2  0
 19 20  1  0
 21 20  1  1
 21 22  1  0
 22 13  1  0
 23 27  1  0
 23 21  1  0
 24 23  2  0
 26 25  1  0
 28 27  1  0
 28 34  1  0
 29 30  1  0
 28 29  1  6
 31 30  1  0
 32 31  1  0
 33 32  1  0
 34 35  1  0
 36 34  2  0
M  END
$$$$
