WYK.pdb
     RDKit          3D

 36 38  0  0  1  0  0  0  0  0999 V2000
    7.4445  -17.0478   21.9961 N   0  0  0  0  0  0  0  0  0  0  0  0
    8.1329  -15.7759   21.9197 C   0  0  1  0  0  0  0  0  0  0  0  0
    7.1134  -14.6768   21.9784 C   0  0  0  0  0  0  0  0  0  0  0  0
    6.5509  -14.6201   23.3506 C   0  0  0  0  0  0  0  0  0  0  0  0
    5.9636  -15.6325   24.0976 C   0  0  0  0  0  0  0  0  0  0  0  0
    5.5936  -15.1390   25.3028 N   0  0  0  0  0  0  0  0  0  0  0  0
    5.9167  -13.8370   25.3760 C   0  0  0  0  0  0  0  0  0  0  0  0
    5.7541  -12.9007   26.3712 C   0  0  0  0  0  0  0  0  0  0  0  0
    6.1946  -11.6000   26.1613 C   0  0  0  0  0  0  0  0  0  0  0  0
    6.7915  -11.2338   24.9720 C   0  0  0  0  0  0  0  0  0  0  0  0
    6.9405  -12.1920   23.9952 C   0  0  0  0  0  0  0  0  0  0  0  0
    6.5089  -13.5105   24.1720 C   0  0  0  0  0  0  0  0  0  0  0  0
    9.1545  -15.6523   22.9907 C   0  0  0  0  0  0  0  0  0  0  0  0
   10.0680  -14.8027   22.8363 O   0  0  0  0  0  0  0  0  0  0  0  0
   13.1392  -16.3716   30.8621 O   0  0  0  0  0  0  0  0  0  0  0  0
   12.2306  -16.3252   29.8152 C   0  0  0  0  0  0  0  0  0  0  0  0
   11.5752  -17.4409   29.3407 C   0  0  0  0  0  0  0  0  0  0  0  0
   10.6803  -17.3446   28.2976 C   0  0  0  0  0  0  0  0  0  0  0  0
   10.4039  -16.1355   27.6873 C   0  0  0  0  0  0  0  0  0  0  0  0
    9.4403  -16.0252   26.5632 C   0  0  0  0  0  0  0  0  0  0  0  0
   10.1134  -16.2253   25.2273 C   0  0  2  0  0  0  0  0  0  0  0  0
    9.1581  -16.4258   24.1591 N   0  0  0  0  0  0  0  0  0  0  0  0
   10.9645  -17.4561   25.3461 C   0  0  0  0  0  0  0  0  0  0  0  0
   10.4118  -18.5978   25.4656 O   0  0  0  0  0  0  0  0  0  0  0  0
   11.0576  -15.0238   28.1611 C   0  0  0  0  0  0  0  0  0  0  0  0
   11.9626  -15.1155   29.2146 C   0  0  0  0  0  0  0  0  0  0  0  0
   12.3650  -17.3927   25.3295 N   0  0  0  0  0  0  0  0  0  0  0  0
   13.1482  -18.5972   25.4179 C   0  0  1  0  0  0  0  0  0  0  0  0
   13.7905  -18.9523   24.0898 C   0  0  0  0  0  0  0  0  0  0  0  0
   13.9931  -17.7410   23.2148 C   0  0  0  0  0  0  0  0  0  0  0  0
   14.7582  -18.1401   21.9914 C   0  0  0  0  0  0  0  0  0  0  0  0
   15.0037  -16.9828   21.0465 C   0  0  0  0  0  0  0  0  0  0  0  0
   15.7643  -17.3509   19.8941 N   0  0  0  0  0  0  0  0  0  0  0  0
   14.1224  -18.5346   26.5106 C   0  0  0  0  0  0  0  0  0  0  0  0
   14.8855  -19.6415   26.8411 O   0  0  0  0  0  0  0  0  0  0  0  0
   14.2853  -17.4807   27.1678 O   0  0  0  0  0  0  0  0  0  0  0  0
  2  1  1  1
  2  3  1  0
  3  4  1  0
  4  5  2  0
  5  6  1  0
  7  6  1  0
  8  7  2  0
  9  8  1  0
 10 11  1  0
 10  9  2  0
 11 12  2  0
 12  4  1  0
 12  7  1  0
 13 14  2  0
 13  2  1  0
 15 16  1  0
 16 26  2  0
 17 16  1  0
 17 18  2  0
 18 19  1  0
 19 25  2  0
 19 20  1  0
 21 20  1  1
 21 22  1  0
 22 13  1  0
 23 27  1  0
 23 21  1  0
 24 23  2  0
 26 25  1  0
 28 27  1  0
 28 34  1  0
 29 30  1  0
 28 29  1  6
 31 30  1  0
 32 31  1  0
 33 32  1  0
 34 35  1  0
 36 34  2  0
M  END
$$$$
