WYK.pdb
     RDKit          3D

 36 38  0  0  1  0  0  0  0  0999 V2000
    5.9976  -17.4326   24.6944 N   0  0  0  0  0  0  0  0  0  0  0  0
    7.1909  -16.6961   24.3325 C   0  0  1  0  0  0  0  0  0  0  0  0
    7.9718  -16.4087   25.5809 C   0  0  0  0  0  0  0  0  0  0  0  0
    7.2168  -15.4291   26.4014 C   0  0  0  0  0  0  0  0  0  0  0  0
    6.1790  -15.6534   27.2961 C   0  0  0  0  0  0  0  0  0  0  0  0
    5.7866  -14.4717   27.8277 N   0  0  0  0  0  0  0  0  0  0  0  0
    6.5296  -13.4769   27.3146 C   0  0  0  0  0  0  0  0  0  0  0  0
    6.5237  -12.1173   27.5266 C   0  0  0  0  0  0  0  0  0  0  0  0
    7.4274  -11.3168   26.8393 C   0  0  0  0  0  0  0  0  0  0  0  0
    8.3290  -11.8638   25.9490 C   0  0  0  0  0  0  0  0  0  0  0  0
    8.3112  -13.2267   25.7577 C   0  0  0  0  0  0  0  0  0  0  0  0
    7.4156  -14.0628   26.4322 C   0  0  0  0  0  0  0  0  0  0  0  0
    7.9940  -17.4352   23.3252 C   0  0  0  0  0  0  0  0  0  0  0  0
    7.5824  -18.5654   22.9597 O   0  0  0  0  0  0  0  0  0  0  0  0
    8.5480  -12.5143   16.3604 O   0  0  0  0  0  0  0  0  0  0  0  0
    8.4530  -13.1506   17.5891 C   0  0  0  0  0  0  0  0  0  0  0  0
    7.3004  -13.7657   18.0282 C   0  0  0  0  0  0  0  0  0  0  0  0
    7.2545  -14.3855   19.2578 C   0  0  0  0  0  0  0  0  0  0  0  0
    8.3528  -14.4169   20.0966 C   0  0  0  0  0  0  0  0  0  0  0  0
    8.3097  -15.0836   21.4225 C   0  0  0  0  0  0  0  0  0  0  0  0
    9.2202  -16.2861   21.4742 C   0  0  2  0  0  0  0  0  0  0  0  0
    9.1800  -16.9465   22.7611 N   0  0  0  0  0  0  0  0  0  0  0  0
   10.6160  -15.7887   21.2344 C   0  0  0  0  0  0  0  0  0  0  0  0
   11.1074  -14.8928   21.9955 O   0  0  0  0  0  0  0  0  0  0  0  0
    9.5013  -13.8036   19.6580 C   0  0  0  0  0  0  0  0  0  0  0  0
    9.5531  -13.1760   18.4167 C   0  0  0  0  0  0  0  0  0  0  0  0
   11.4089  -16.2822   20.1886 N   0  0  0  0  0  0  0  0  0  0  0  0
   12.7470  -16.7455   20.4472 C   0  0  1  0  0  0  0  0  0  0  0  0
   13.1356  -17.8903   19.5302 C   0  0  0  0  0  0  0  0  0  0  0  0
   12.2159  -19.0758   19.6803 C   0  0  0  0  0  0  0  0  0  0  0  0
   12.6242  -20.1413   18.7109 C   0  0  0  0  0  0  0  0  0  0  0  0
   11.8264  -21.4183   18.8688 C   0  0  0  0  0  0  0  0  0  0  0  0
   11.9957  -22.0312   20.1486 N   0  0  0  0  0  0  0  0  0  0  0  0
   13.7188  -15.6494   20.4153 C   0  0  0  0  0  0  0  0  0  0  0  0
   13.5599  -14.5895   19.5389 O   0  0  0  0  0  0  0  0  0  0  0  0
   14.7121  -15.6479   21.1785 O   0  0  0  0  0  0  0  0  0  0  0  0
  2  1  1  1
  2  3  1  0
  3  4  1  0
  4  5  2  0
  5  6  1  0
  7  6  1  0
  8  7  2  0
  9  8  1  0
 10 11  1  0
 10  9  2  0
 11 12  2  0
 12  4  1  0
 12  7  1  0
 13 14  2  0
 13  2  1  0
 15 16  1  0
 16 26  2  0
 17 16  1  0
 17 18  2  0
 18 19  1  0
 19 25  2  0
 19 20  1  0
 21 20  1  1
 21 22  1  0
 22 13  1  0
 23 27  1  0
 23 21  1  0
 24 23  2  0
 26 25  1  0
 28 27  1  0
 28 34  1  0
 29 30  1  0
 28 29  1  6
 31 30  1  0
 32 31  1  0
 33 32  1  0
 34 35  1  0
 36 34  2  0
M  END
$$$$
