WYK.pdb
     RDKit          3D

 36 38  0  0  1  0  0  0  0  0999 V2000
    7.0909  -16.6009   22.5568 N   0  0  0  0  0  0  0  0  0  0  0  0
    7.8316  -15.4433   23.0138 C   0  0  1  0  0  0  0  0  0  0  0  0
    7.9466  -15.5093   24.5083 C   0  0  0  0  0  0  0  0  0  0  0  0
    6.8540  -14.7031   25.1073 C   0  0  0  0  0  0  0  0  0  0  0  0
    5.5846  -15.1056   25.5005 C   0  0  0  0  0  0  0  0  0  0  0  0
    4.9151  -14.0405   26.0010 N   0  0  0  0  0  0  0  0  0  0  0  0
    5.6990  -12.9505   25.9511 C   0  0  0  0  0  0  0  0  0  0  0  0
    5.4884  -11.6447   26.3306 C   0  0  0  0  0  0  0  0  0  0  0  0
    6.5033  -10.7124   26.1556 C   0  0  0  0  0  0  0  0  0  0  0  0
    7.7169  -11.0757   25.6081 C   0  0  0  0  0  0  0  0  0  0  0  0
    7.8983  -12.3890   25.2382 C   0  0  0  0  0  0  0  0  0  0  0  0
    6.8990  -13.3540   25.3997 C   0  0  0  0  0  0  0  0  0  0  0  0
    9.1583  -15.3582   22.3515 C   0  0  0  0  0  0  0  0  0  0  0  0
    9.3116  -14.4938   21.4517 O   0  0  0  0  0  0  0  0  0  0  0  0
   12.2743  -16.3498   30.2237 O   0  0  0  0  0  0  0  0  0  0  0  0
   11.6941  -16.3435   28.9639 C   0  0  0  0  0  0  0  0  0  0  0  0
   11.6003  -15.2091   28.1869 C   0  0  0  0  0  0  0  0  0  0  0  0
   11.0147  -15.2526   26.9405 C   0  0  0  0  0  0  0  0  0  0  0  0
   10.5006  -16.4256   26.4203 C   0  0  0  0  0  0  0  0  0  0  0  0
    9.8690  -16.4790   25.0778 C   0  0  0  0  0  0  0  0  0  0  0  0
   10.8632  -16.1908   23.9795 C   0  0  2  0  0  0  0  0  0  0  0  0
   10.2448  -16.1832   22.6713 N   0  0  0  0  0  0  0  0  0  0  0  0
   11.8883  -17.2867   24.0186 C   0  0  0  0  0  0  0  0  0  0  0  0
   11.5264  -18.4821   24.2699 O   0  0  0  0  0  0  0  0  0  0  0  0
   10.5948  -17.5560   27.1955 C   0  0  0  0  0  0  0  0  0  0  0  0
   11.1854  -17.5176   28.4554 C   0  0  0  0  0  0  0  0  0  0  0  0
   13.2481  -17.0378   23.7847 N   0  0  0  0  0  0  0  0  0  0  0  0
   14.1683  -18.1314   23.6137 C   0  0  1  0  0  0  0  0  0  0  0  0
   14.9880  -17.9871   22.3450 C   0  0  0  0  0  0  0  0  0  0  0  0
   14.1249  -17.9819   21.1085 C   0  0  0  0  0  0  0  0  0  0  0  0
   14.9901  -17.7697   19.9052 C   0  0  0  0  0  0  0  0  0  0  0  0
   14.2259  -17.8822   18.6030 C   0  0  0  0  0  0  0  0  0  0  0  0
   15.0095  -17.5317   17.4605 N   0  0  0  0  0  0  0  0  0  0  0  0
   15.0051  -18.3299   24.8000 C   0  0  0  0  0  0  0  0  0  0  0  0
   14.8527  -17.5236   25.9151 O   0  0  0  0  0  0  0  0  0  0  0  0
   15.8746  -19.2312   24.8306 O   0  0  0  0  0  0  0  0  0  0  0  0
  2  1  1  6
  2  3  1  0
  3  4  1  0
  4  5  2  0
  5  6  1  0
  7  6  1  0
  8  7  2  0
  9  8  1  0
 10 11  1  0
 10  9  2  0
 11 12  2  0
 12  4  1  0
 12  7  1  0
 13 14  2  0
 13  2  1  0
 15 16  1  0
 16 26  2  0
 17 16  1  0
 17 18  2  0
 18 19  1  0
 19 25  2  0
 19 20  1  0
 21 20  1  1
 21 22  1  0
 22 13  1  0
 23 27  1  0
 23 21  1  0
 24 23  2  0
 26 25  1  0
 28 27  1  0
 28 34  1  0
 29 30  1  0
 28 29  1  6
 31 30  1  0
 32 31  1  0
 33 32  1  0
 34 35  1  0
 36 34  2  0
M  END
$$$$
