WYK.pdb
     RDKit          3D

 36 38  0  0  1  0  0  0  0  0999 V2000
    6.2864  -18.1346   23.9417 N   0  0  0  0  0  0  0  0  0  0  0  0
    6.9563  -16.8576   24.0756 C   0  0  1  0  0  0  0  0  0  0  0  0
    7.2697  -16.6323   25.5254 C   0  0  0  0  0  0  0  0  0  0  0  0
    6.6819  -15.3358   25.9451 C   0  0  0  0  0  0  0  0  0  0  0  0
    5.3547  -15.0199   26.2033 C   0  0  0  0  0  0  0  0  0  0  0  0
    5.2690  -13.7174   26.5626 N   0  0  0  0  0  0  0  0  0  0  0  0
    6.4932  -13.1642   26.5502 C   0  0  0  0  0  0  0  0  0  0  0  0
    6.9332  -11.8912   26.8322 C   0  0  0  0  0  0  0  0  0  0  0  0
    8.2880  -11.6009   26.7318 C   0  0  0  0  0  0  0  0  0  0  0  0
    9.1971  -12.5683   26.3544 C   0  0  0  0  0  0  0  0  0  0  0  0
    8.7275  -13.8323   26.0788 C   0  0  0  0  0  0  0  0  0  0  0  0
    7.3708  -14.1599   26.1693 C   0  0  0  0  0  0  0  0  0  0  0  0
    8.1702  -16.7952   23.2222 C   0  0  0  0  0  0  0  0  0  0  0  0
    8.6309  -17.8762   22.7756 O   0  0  0  0  0  0  0  0  0  0  0  0
    6.4693  -14.1127   16.8062 O   0  0  0  0  0  0  0  0  0  0  0  0
    7.3213  -14.1116   17.9006 C   0  0  0  0  0  0  0  0  0  0  0  0
    7.2858  -13.1405   18.8780 C   0  0  0  0  0  0  0  0  0  0  0  0
    8.1533  -13.1822   19.9475 C   0  0  0  0  0  0  0  0  0  0  0  0
    9.0885  -14.1909   20.0850 C   0  0  0  0  0  0  0  0  0  0  0  0
   10.0257  -14.2415   21.2354 C   0  0  0  0  0  0  0  0  0  0  0  0
    9.9439  -15.5593   21.9664 C   0  0  2  0  0  0  0  0  0  0  0  0
    8.8288  -15.6045   22.8875 N   0  0  0  0  0  0  0  0  0  0  0  0
   11.2171  -15.7059   22.7480 C   0  0  0  0  0  0  0  0  0  0  0  0
   12.3377  -15.6737   22.1427 O   0  0  0  0  0  0  0  0  0  0  0  0
    9.1230  -15.1586   19.1103 C   0  0  0  0  0  0  0  0  0  0  0  0
    8.2489  -15.1212   18.0278 C   0  0  0  0  0  0  0  0  0  0  0  0
   11.2165  -15.8790   24.1393 N   0  0  0  0  0  0  0  0  0  0  0  0
   12.0405  -16.8912   24.7462 C   0  0  1  0  0  0  0  0  0  0  0  0
   11.2978  -18.2050   24.9038 C   0  0  0  0  0  0  0  0  0  0  0  0
   12.2031  -19.3170   25.3704 C   0  0  0  0  0  0  0  0  0  0  0  0
   11.3953  -20.5636   25.5573 C   0  0  0  0  0  0  0  0  0  0  0  0
   12.2083  -21.7151   26.1099 C   0  0  0  0  0  0  0  0  0  0  0  0
   11.4354  -22.8990   26.3176 N   0  0  0  0  0  0  0  0  0  0  0  0
   13.3151  -17.0510   24.0413 C   0  0  0  0  0  0  0  0  0  0  0  0
   14.3185  -16.1064   24.1728 O   0  0  0  0  0  0  0  0  0  0  0  0
   13.5236  -18.0436   23.3060 O   0  0  0  0  0  0  0  0  0  0  0  0
  2  1  1  1
  2  3  1  0
  3  4  1  0
  4  5  2  0
  5  6  1  0
  7  6  1  0
  8  7  2  0
  9  8  1  0
 10 11  1  0
 10  9  2  0
 11 12  2  0
 12  4  1  0
 12  7  1  0
 13 14  2  0
 13  2  1  0
 15 16  1  0
 16 26  2  0
 17 16  1  0
 17 18  2  0
 18 19  1  0
 19 25  2  0
 19 20  1  0
 21 20  1  1
 21 22  1  0
 22 13  1  0
 23 27  1  0
 23 21  1  0
 24 23  2  0
 26 25  1  0
 28 27  1  0
 28 34  1  0
 29 30  1  0
 28 29  1  6
 31 30  1  0
 32 31  1  0
 33 32  1  0
 34 35  1  0
 36 34  2  0
M  END
$$$$
