WYK.pdb
     RDKit          3D

 36 38  0  0  1  0  0  0  0  0999 V2000
    5.9139  -18.1267   23.8092 N   0  0  0  0  0  0  0  0  0  0  0  0
    6.6258  -16.8697   23.9119 C   0  0  1  0  0  0  0  0  0  0  0  0
    6.8554  -16.5679   25.3635 C   0  0  0  0  0  0  0  0  0  0  0  0
    6.2916  -15.2292   25.6679 C   0  0  0  0  0  0  0  0  0  0  0  0
    4.9620  -14.8344   25.7325 C   0  0  0  0  0  0  0  0  0  0  0  0
    4.9032  -13.5187   26.0466 N   0  0  0  0  0  0  0  0  0  0  0  0
    6.1475  -13.0331   26.1911 C   0  0  0  0  0  0  0  0  0  0  0  0
    6.6175  -11.7777   26.5020 C   0  0  0  0  0  0  0  0  0  0  0  0
    7.9878  -11.5643   26.5836 C   0  0  0  0  0  0  0  0  0  0  0  0
    8.8827  -12.5905   26.3580 C   0  0  0  0  0  0  0  0  0  0  0  0
    8.3830  -13.8352   26.0490 C   0  0  0  0  0  0  0  0  0  0  0  0
    7.0101  -14.0860   25.9583 C   0  0  0  0  0  0  0  0  0  0  0  0
    7.8930  -16.9048   23.1381 C   0  0  0  0  0  0  0  0  0  0  0  0
    8.3629  -18.0295   22.8305 O   0  0  0  0  0  0  0  0  0  0  0  0
    6.5853  -13.4954   16.8559 O   0  0  0  0  0  0  0  0  0  0  0  0
    7.4234  -13.7042   17.9410 C   0  0  0  0  0  0  0  0  0  0  0  0
    7.5335  -12.8128   18.9864 C   0  0  0  0  0  0  0  0  0  0  0  0
    8.3805  -13.0644   20.0435 C   0  0  0  0  0  0  0  0  0  0  0  0
    9.1497  -14.2115   20.1006 C   0  0  0  0  0  0  0  0  0  0  0  0
   10.0639  -14.4884   21.2372 C   0  0  0  0  0  0  0  0  0  0  0  0
    9.7640  -15.8178   21.8857 C   0  0  2  0  0  0  0  0  0  0  0  0
    8.5922  -15.7600   22.7328 N   0  0  0  0  0  0  0  0  0  0  0  0
   10.9516  -16.1686   22.7341 C   0  0  0  0  0  0  0  0  0  0  0  0
   12.0912  -16.3342   22.1890 O   0  0  0  0  0  0  0  0  0  0  0  0
    9.0392  -15.0996   19.0581 C   0  0  0  0  0  0  0  0  0  0  0  0
    8.1850  -14.8503   17.9878 C   0  0  0  0  0  0  0  0  0  0  0  0
   10.8496  -16.3223   24.1240 N   0  0  0  0  0  0  0  0  0  0  0  0
   11.9778  -16.7853   24.8888 C   0  0  1  0  0  0  0  0  0  0  0  0
   11.6780  -18.0887   25.6055 C   0  0  0  0  0  0  0  0  0  0  0  0
   12.8828  -18.6251   26.3367 C   0  0  0  0  0  0  0  0  0  0  0  0
   12.4808  -19.8285   27.1314 C   0  0  0  0  0  0  0  0  0  0  0  0
   13.5958  -20.3529   28.0113 C   0  0  0  0  0  0  0  0  0  0  0  0
   13.1592  -21.3527   28.9343 N   0  0  0  0  0  0  0  0  0  0  0  0
   13.1934  -16.8622   24.0744 C   0  0  0  0  0  0  0  0  0  0  0  0
   13.2731  -17.7374   23.0047 O   0  0  0  0  0  0  0  0  0  0  0  0
   14.1847  -16.1394   24.3281 O   0  0  0  0  0  0  0  0  0  0  0  0
  2  1  1  1
  2  3  1  0
  3  4  1  0
  4  5  2  0
  5  6  1  0
  7  6  1  0
  8  7  2  0
  9  8  1  0
 10 11  1  0
 10  9  2  0
 11 12  2  0
 12  4  1  0
 12  7  1  0
 13 14  2  0
 13  2  1  0
 15 16  1  0
 16 26  2  0
 17 16  1  0
 17 18  2  0
 18 19  1  0
 19 25  2  0
 19 20  1  0
 21 20  1  1
 21 22  1  0
 22 13  1  0
 23 27  1  0
 23 21  1  0
 24 23  2  0
 26 25  1  0
 28 27  1  0
 28 34  1  0
 29 30  1  0
 28 29  1  6
 31 30  1  0
 32 31  1  0
 33 32  1  0
 34 35  1  0
 36 34  2  0
M  END
$$$$
