WYK.pdb
     RDKit          3D

 36 38  0  0  1  0  0  0  0  0999 V2000
    5.6724  -17.3169   23.5461 N   0  0  0  0  0  0  0  0  0  0  0  0
    6.7416  -16.3657   23.7686 C   0  0  1  0  0  0  0  0  0  0  0  0
    7.0395  -16.3172   25.2382 C   0  0  0  0  0  0  0  0  0  0  0  0
    6.4269  -15.0919   25.8093 C   0  0  0  0  0  0  0  0  0  0  0  0
    5.1050  -14.8589   26.1642 C   0  0  0  0  0  0  0  0  0  0  0  0
    4.9897  -13.6005   26.6501 N   0  0  0  0  0  0  0  0  0  0  0  0
    6.1895  -12.9963   26.6278 C   0  0  0  0  0  0  0  0  0  0  0  0
    6.5957  -11.7375   27.0071 C   0  0  0  0  0  0  0  0  0  0  0  0
    7.9309  -11.3811   26.8656 C   0  0  0  0  0  0  0  0  0  0  0  0
    8.8540  -12.2690   26.3515 C   0  0  0  0  0  0  0  0  0  0  0  0
    8.4182  -13.5209   25.9809 C   0  0  0  0  0  0  0  0  0  0  0  0
    7.0821  -13.9136   26.1091 C   0  0  0  0  0  0  0  0  0  0  0  0
    7.9417  -16.7077   22.9631 C   0  0  0  0  0  0  0  0  0  0  0  0
    8.1135  -17.9122   22.6468 O   0  0  0  0  0  0  0  0  0  0  0  0
    6.6527  -13.4588   16.7451 O   0  0  0  0  0  0  0  0  0  0  0  0
    7.5514  -13.7682   17.7551 C   0  0  0  0  0  0  0  0  0  0  0  0
    7.7495  -12.9625   18.8558 C   0  0  0  0  0  0  0  0  0  0  0  0
    8.6542  -13.3124   19.8341 C   0  0  0  0  0  0  0  0  0  0  0  0
    9.3958  -14.4764   19.7546 C   0  0  0  0  0  0  0  0  0  0  0  0
   10.3718  -14.8591   20.8059 C   0  0  0  0  0  0  0  0  0  0  0  0
    9.9209  -16.0794   21.5709 C   0  0  2  0  0  0  0  0  0  0  0  0
    8.8898  -15.7680   22.5372 N   0  0  0  0  0  0  0  0  0  0  0  0
   11.1210  -16.6049   22.3034 C   0  0  0  0  0  0  0  0  0  0  0  0
   11.4596  -16.0856   23.4166 O   0  0  0  0  0  0  0  0  0  0  0  0
    9.1975  -15.2789   18.6573 C   0  0  0  0  0  0  0  0  0  0  0  0
    8.2848  -14.9301   17.6660 C   0  0  0  0  0  0  0  0  0  0  0  0
   11.8927  -17.6613   21.7994 N   0  0  0  0  0  0  0  0  0  0  0  0
   13.0429  -18.1323   22.5255 C   0  0  1  0  0  0  0  0  0  0  0  0
   13.4311  -19.5412   22.1171 C   0  0  0  0  0  0  0  0  0  0  0  0
   14.7150  -19.9884   22.7693 C   0  0  0  0  0  0  0  0  0  0  0  0
   15.0472  -21.3722   22.3044 C   0  0  0  0  0  0  0  0  0  0  0  0
   16.2240  -21.9749   23.0422 C   0  0  0  0  0  0  0  0  0  0  0  0
   16.4679  -23.3385   22.6909 N   0  0  0  0  0  0  0  0  0  0  0  0
   14.1656  -17.1951   22.4351 C   0  0  0  0  0  0  0  0  0  0  0  0
   14.4550  -16.5520   21.2438 O   0  0  0  0  0  0  0  0  0  0  0  0
   14.8861  -16.9562   23.4316 O   0  0  0  0  0  0  0  0  0  0  0  0
  2  1  1  1
  2  3  1  0
  3  4  1  0
  4  5  2  0
  5  6  1  0
  7  6  1  0
  8  7  2  0
  9  8  1  0
 10 11  1  0
 10  9  2  0
 11 12  2  0
 12  4  1  0
 12  7  1  0
 13 14  2  0
 13  2  1  0
 15 16  1  0
 16 26  2  0
 17 16  1  0
 17 18  2  0
 18 19  1  0
 19 25  2  0
 19 20  1  0
 21 20  1  1
 21 22  1  0
 22 13  1  0
 23 27  1  0
 23 21  1  0
 24 23  2  0
 26 25  1  0
 28 27  1  0
 28 34  1  0
 29 30  1  0
 28 29  1  6
 31 30  1  0
 32 31  1  0
 33 32  1  0
 34 35  1  0
 36 34  2  0
M  END
$$$$
