WYK.pdb
     RDKit          3D

 36 38  0  0  1  0  0  0  0  0999 V2000
    9.7527  -15.7639   20.7030 N   0  0  0  0  0  0  0  0  0  0  0  0
    9.0040  -15.3366   21.8668 C   0  0  1  0  0  0  0  0  0  0  0  0
    7.6418  -15.9634   21.8149 C   0  0  0  0  0  0  0  0  0  0  0  0
    6.9093  -15.6172   23.0583 C   0  0  0  0  0  0  0  0  0  0  0  0
    6.3807  -16.4613   24.0258 C   0  0  0  0  0  0  0  0  0  0  0  0
    5.7970  -15.7173   24.9947 N   0  0  0  0  0  0  0  0  0  0  0  0
    5.9226  -14.4127   24.6994 C   0  0  0  0  0  0  0  0  0  0  0  0
    5.5068  -13.2749   25.3523 C   0  0  0  0  0  0  0  0  0  0  0  0
    5.7834  -12.0317   24.7975 C   0  0  0  0  0  0  0  0  0  0  0  0
    6.4675  -11.9212   23.6039 C   0  0  0  0  0  0  0  0  0  0  0  0
    6.8707  -13.0767   22.9741 C   0  0  0  0  0  0  0  0  0  0  0  0
    6.6095  -14.3446   23.5034 C   0  0  0  0  0  0  0  0  0  0  0  0
    9.7266  -15.6664   23.1218 C   0  0  0  0  0  0  0  0  0  0  0  0
   10.7965  -16.3198   23.0296 O   0  0  0  0  0  0  0  0  0  0  0  0
   12.3726  -16.2006   31.5182 O   0  0  0  0  0  0  0  0  0  0  0  0
   11.6508  -15.8920   30.3749 C   0  0  0  0  0  0  0  0  0  0  0  0
   11.7713  -14.6886   29.7137 C   0  0  0  0  0  0  0  0  0  0  0  0
   11.0324  -14.4278   28.5805 C   0  0  0  0  0  0  0  0  0  0  0  0
   10.1462  -15.3536   28.0624 C   0  0  0  0  0  0  0  0  0  0  0  0
    9.3476  -15.0786   26.8414 C   0  0  0  0  0  0  0  0  0  0  0  0
   10.0920  -15.4656   25.5868 C   0  0  2  0  0  0  0  0  0  0  0  0
    9.2855  -15.2919   24.3980 N   0  0  0  0  0  0  0  0  0  0  0  0
   10.4452  -16.9185   25.7181 C   0  0  0  0  0  0  0  0  0  0  0  0
   11.1362  -17.3138   26.7129 O   0  0  0  0  0  0  0  0  0  0  0  0
   10.0269  -16.5529   28.7220 C   0  0  0  0  0  0  0  0  0  0  0  0
   10.7710  -16.8215   29.8673 C   0  0  0  0  0  0  0  0  0  0  0  0
   10.0358  -17.8689   24.7721 N   0  0  0  0  0  0  0  0  0  0  0  0
   10.3535  -19.2608   24.9555 C   0  0  1  0  0  0  0  0  0  0  0  0
    9.9343  -20.0982   23.7616 C   0  0  0  0  0  0  0  0  0  0  0  0
   10.2267  -21.5635   23.9648 C   0  0  0  0  0  0  0  0  0  0  0  0
    9.7421  -22.3317   22.7746 C   0  0  0  0  0  0  0  0  0  0  0  0
    9.9760  -23.8223   22.9004 C   0  0  0  0  0  0  0  0  0  0  0  0
    8.9743  -24.4841   23.6755 N   0  0  0  0  0  0  0  0  0  0  0  0
   11.7623  -19.4561   25.3080 C   0  0  0  0  0  0  0  0  0  0  0  0
   12.7659  -18.8587   24.5649 O   0  0  0  0  0  0  0  0  0  0  0  0
   12.0879  -20.1665   26.2871 O   0  0  0  0  0  0  0  0  0  0  0  0
  2  1  1  6
  2  3  1  0
  3  4  1  0
  4  5  2  0
  5  6  1  0
  7  6  1  0
  8  7  2  0
  9  8  1  0
 10 11  1  0
 10  9  2  0
 11 12  2  0
 12  4  1  0
 12  7  1  0
 13 14  2  0
 13  2  1  0
 15 16  1  0
 16 26  2  0
 17 16  1  0
 17 18  2  0
 18 19  1  0
 19 25  2  0
 19 20  1  0
 21 20  1  1
 21 22  1  0
 22 13  1  0
 23 27  1  0
 23 21  1  0
 24 23  2  0
 26 25  1  0
 28 27  1  0
 28 34  1  0
 29 30  1  0
 28 29  1  6
 31 30  1  0
 32 31  1  0
 33 32  1  0
 34 35  1  0
 36 34  2  0
M  END
$$$$
