SGC.pdb
     RDKit          3D

 17 16  0  0  1  0  0  0  0  0999 V2000
   16.1627  -15.7073  -14.4857 O   0  0  0  0  0  0  0  0  0  0  0  0
   17.1588  -15.0687  -15.2302 C   0  0  0  0  0  0  0  0  0  0  0  0
   16.5994  -13.7561  -15.7837 C   0  0  2  0  0  0  0  0  0  0  0  0
   15.5348  -14.0331  -16.7301 N   0  0  0  0  0  0  0  0  0  0  0  0
   17.6726  -13.0078  -16.4781 C   0  0  0  0  0  0  0  0  0  0  0  0
   18.0679  -13.3418  -17.6275 O   0  0  0  0  0  0  0  0  0  0  0  0
   18.2778  -11.8952  -15.8574 N   0  0  0  0  0  0  0  0  0  0  0  0
   19.4091  -11.1925  -16.4245 C   0  0  0  0  0  0  0  0  0  0  0  0
   19.7695  -10.0777  -15.5473 C   0  0  0  0  0  0  0  0  0  0  0  0
   18.9362   -9.6441  -14.7121 O   0  0  0  0  0  0  0  0  0  0  0  0
   21.0505   -9.4568  -15.6069 N   0  0  0  0  0  0  0  0  0  0  0  0
   21.3204   -8.3452  -14.7456 C   0  0  1  0  0  0  0  0  0  0  0  0
   22.8299   -8.2945  -14.5419 C   0  0  0  0  0  0  0  0  0  0  0  0
   23.3608   -9.8355  -13.7480 S   0  0  0  0  0  0  0  0  0  0  0  0
   20.8473   -7.0522  -15.3379 C   0  0  0  0  0  0  0  0  0  0  0  0
   20.5841   -6.9165  -16.5537 O   0  0  0  0  0  0  0  0  0  0  0  0
   20.7000   -5.9753  -14.4976 O   0  0  0  0  0  0  0  0  0  0  0  0
  2  1  1  0
  3  2  1  0
  3  4  1  6
  5  3  1  0
  6  5  2  0
  7  5  1  0
  8  7  1  0
  9  8  1  0
  9 11  1  0
 10  9  2  0
 12 11  1  0
 12 15  1  0
 12 13  1  6
 14 13  1  0
 15 17  1  0
 16 15  2  0
M  END
$$$$
