SGC.pdb
     RDKit          3D

 17 16  0  0  1  0  0  0  0  0999 V2000
   15.6241  -13.4776  -14.8032 O   0  0  0  0  0  0  0  0  0  0  0  0
   16.5251  -12.6997  -15.5363 C   0  0  0  0  0  0  0  0  0  0  0  0
   16.1140  -11.2296  -15.4270 C   0  0  2  0  0  0  0  0  0  0  0  0
   14.8026  -11.0382  -16.0180 N   0  0  0  0  0  0  0  0  0  0  0  0
   17.0910  -10.3816  -16.1484 C   0  0  0  0  0  0  0  0  0  0  0  0
   17.2166  -10.4452  -17.4011 O   0  0  0  0  0  0  0  0  0  0  0  0
   17.9073   -9.4776  -15.4372 N   0  0  0  0  0  0  0  0  0  0  0  0
   18.9092   -8.6490  -16.0734 C   0  0  0  0  0  0  0  0  0  0  0  0
   19.5608   -7.8203  -15.0581 C   0  0  0  0  0  0  0  0  0  0  0  0
   18.9773   -7.5912  -13.9687 O   0  0  0  0  0  0  0  0  0  0  0  0
   20.8526   -7.2552  -15.2634 N   0  0  0  0  0  0  0  0  0  0  0  0
   21.4188   -6.4339  -14.2361 C   0  0  1  0  0  0  0  0  0  0  0  0
   22.8326   -6.9444  -13.9849 C   0  0  0  0  0  0  0  0  0  0  0  0
   22.7360   -8.6570  -13.3980 S   0  0  0  0  0  0  0  0  0  0  0  0
   21.4671   -4.9909  -14.6384 C   0  0  0  0  0  0  0  0  0  0  0  0
   21.3554   -4.6111  -15.8255 O   0  0  0  0  0  0  0  0  0  0  0  0
   21.6424   -4.0528  -13.6500 O   0  0  0  0  0  0  0  0  0  0  0  0
  2  1  1  0
  3  2  1  0
  3  4  1  6
  5  3  1  0
  6  5  2  0
  7  5  1  0
  8  7  1  0
  9  8  1  0
  9 11  1  0
 10  9  2  0
 12 11  1  0
 12 15  1  0
 12 13  1  6
 14 13  1  0
 15 17  1  0
 16 15  2  0
M  END
$$$$
