SGC.pdb
     RDKit          3D

 17 16  0  0  1  0  0  0  0  0999 V2000
   19.5682  -13.9927  -15.7122 O   0  0  0  0  0  0  0  0  0  0  0  0
   18.9818  -12.7782  -16.0802 C   0  0  0  0  0  0  0  0  0  0  0  0
   19.9810  -11.9797  -16.9204 C   0  0  2  0  0  0  0  0  0  0  0  0
   21.1004  -11.5655  -16.0950 N   0  0  0  0  0  0  0  0  0  0  0  0
   19.3211  -10.7729  -17.4702 C   0  0  0  0  0  0  0  0  0  0  0  0
   18.3639  -10.8619  -18.2855 O   0  0  0  0  0  0  0  0  0  0  0  0
   19.7581   -9.4880  -17.0861 N   0  0  0  0  0  0  0  0  0  0  0  0
   19.0454   -8.2758  -17.4292 C   0  0  0  0  0  0  0  0  0  0  0  0
   19.5884   -7.1634  -16.6481 C   0  0  0  0  0  0  0  0  0  0  0  0
   19.1297   -6.0041  -16.8080 O   0  0  0  0  0  0  0  0  0  0  0  0
   20.6340   -7.3501  -15.6985 N   0  0  0  0  0  0  0  0  0  0  0  0
   21.2208   -6.1990  -15.0813 C   0  0  1  0  0  0  0  0  0  0  0  0
   21.4210   -6.5355  -13.6084 C   0  0  0  0  0  0  0  0  0  0  0  0
   22.3097   -5.1684  -12.8160 S   0  0  0  0  0  0  0  0  0  0  0  0
   22.5381   -5.8434  -15.7015 C   0  0  0  0  0  0  0  0  0  0  0  0
   23.0589   -4.7110  -15.5910 O   0  0  0  0  0  0  0  0  0  0  0  0
   23.1932   -6.8133  -16.4212 O   0  0  0  0  0  0  0  0  0  0  0  0
  2  1  1  0
  3  2  1  0
  3  4  1  1
  5  3  1  0
  6  5  2  0
  7  5  1  0
  8  7  1  0
  9  8  1  0
  9 11  1  0
 10  9  2  0
 12 11  1  0
 12 15  1  0
 12 13  1  1
 14 13  1  0
 15 17  1  0
 16 15  2  0
M  END
$$$$
