SGC.pdb
     RDKit          3D

 17 16  0  0  1  0  0  0  0  0999 V2000
   15.8523  -12.4486  -16.8839 O   0  0  0  0  0  0  0  0  0  0  0  0
   15.9205  -11.0544  -16.8080 C   0  0  0  0  0  0  0  0  0  0  0  0
   17.0086  -10.6652  -15.8047 C   0  0  2  0  0  0  0  0  0  0  0  0
   16.5637  -10.9588  -14.4550 N   0  0  0  0  0  0  0  0  0  0  0  0
   17.2906   -9.2148  -15.9093 C   0  0  0  0  0  0  0  0  0  0  0  0
   17.7926   -8.7172  -16.9530 O   0  0  0  0  0  0  0  0  0  0  0  0
   16.9984   -8.3554  -14.8297 N   0  0  0  0  0  0  0  0  0  0  0  0
   17.1646   -6.9191  -14.8958 C   0  0  0  0  0  0  0  0  0  0  0  0
   18.2817   -6.5259  -14.0358 C   0  0  0  0  0  0  0  0  0  0  0  0
   18.2884   -6.8639  -12.8251 O   0  0  0  0  0  0  0  0  0  0  0  0
   19.3787   -5.7621  -14.5289 N   0  0  0  0  0  0  0  0  0  0  0  0
   20.5598   -5.6515  -13.7270 C   0  0  1  0  0  0  0  0  0  0  0  0
   21.1442   -7.0530  -13.5973 C   0  0  0  0  0  0  0  0  0  0  0  0
   22.5152   -7.0032  -12.4122 S   0  0  0  0  0  0  0  0  0  0  0  0
   21.5726   -4.7377  -14.3479 C   0  0  0  0  0  0  0  0  0  0  0  0
   21.6969   -4.5999  -15.5855 O   0  0  0  0  0  0  0  0  0  0  0  0
   22.3956   -4.0249  -13.5099 O   0  0  0  0  0  0  0  0  0  0  0  0
  2  1  1  0
  3  2  1  0
  3  4  1  1
  5  3  1  0
  6  5  2  0
  7  5  1  0
  8  7  1  0
  9  8  1  0
  9 11  1  0
 10  9  2  0
 12 11  1  0
 12 15  1  0
 12 13  1  6
 14 13  1  0
 15 17  1  0
 16 15  2  0
M  END
$$$$
