SGC.pdb
     RDKit          3D

 17 16  0  0  1  0  0  0  0  0999 V2000
   24.7011   -9.3120  -18.5793 O   0  0  0  0  0  0  0  0  0  0  0  0
   25.1287  -10.5946  -18.2235 C   0  0  0  0  0  0  0  0  0  0  0  0
   24.0244  -11.2786  -17.4145 C   0  0  2  0  0  0  0  0  0  0  0  0
   22.8213  -11.3918  -18.2180 N   0  0  0  0  0  0  0  0  0  0  0  0
   23.7182  -10.4766  -16.2073 C   0  0  0  0  0  0  0  0  0  0  0  0
   24.5724  -10.3108  -15.2952 O   0  0  0  0  0  0  0  0  0  0  0  0
   22.4502   -9.8777  -16.0561 N   0  0  0  0  0  0  0  0  0  0  0  0
   22.0767   -9.1014  -14.8929 C   0  0  0  0  0  0  0  0  0  0  0  0
   21.8387   -7.7153  -15.2980 C   0  0  0  0  0  0  0  0  0  0  0  0
   21.3501   -7.4693  -16.4297 O   0  0  0  0  0  0  0  0  0  0  0  0
   22.1456   -6.6179  -14.4427 N   0  0  0  0  0  0  0  0  0  0  0  0
   21.8457   -5.2902  -14.8874 C   0  0  1  0  0  0  0  0  0  0  0  0
   21.0552   -4.6142  -13.7734 C   0  0  0  0  0  0  0  0  0  0  0  0
   20.5245   -2.9787  -14.3480 S   0  0  0  0  0  0  0  0  0  0  0  0
   23.0887   -4.5032  -15.1736 C   0  0  0  0  0  0  0  0  0  0  0  0
   24.1088   -4.5552  -14.4507 O   0  0  0  0  0  0  0  0  0  0  0  0
   23.0957   -3.6919  -16.2824 O   0  0  0  0  0  0  0  0  0  0  0  0
  2  1  1  0
  3  2  1  0
  3  4  1  6
  5  3  1  0
  6  5  2  0
  7  5  1  0
  8  7  1  0
  9  8  1  0
  9 11  1  0
 10  9  2  0
 12 11  1  0
 12 15  1  0
 12 13  1  1
 14 13  1  0
 15 17  1  0
 16 15  2  0
M  END
$$$$
