SGC.pdb
     RDKit          3D

 17 16  0  0  1  0  0  0  0  0999 V2000
   21.3430  -10.8386  -21.1029 O   0  0  0  0  0  0  0  0  0  0  0  0
   20.4498  -10.1111  -20.3109 C   0  0  0  0  0  0  0  0  0  0  0  0
   20.7533  -10.3903  -18.8371 C   0  0  2  0  0  0  0  0  0  0  0  0
   20.7044  -11.8185  -18.5849 N   0  0  0  0  0  0  0  0  0  0  0  0
   19.7459   -9.7200  -17.9828 C   0  0  0  0  0  0  0  0  0  0  0  0
   18.7508  -10.3455  -17.5271 O   0  0  0  0  0  0  0  0  0  0  0  0
   19.8847   -8.3539  -17.6607 N   0  0  0  0  0  0  0  0  0  0  0  0
   18.9445   -7.6400  -16.8232 C   0  0  0  0  0  0  0  0  0  0  0  0
   19.6513   -7.1022  -15.6599 C   0  0  0  0  0  0  0  0  0  0  0  0
   19.0277   -6.4167  -14.8107 O   0  0  0  0  0  0  0  0  0  0  0  0
   21.0422   -7.3311  -15.4521 N   0  0  0  0  0  0  0  0  0  0  0  0
   21.6714   -6.7623  -14.2986 C   0  0  1  0  0  0  0  0  0  0  0  0
   22.7604   -7.7338  -13.8594 C   0  0  0  0  0  0  0  0  0  0  0  0
   21.9815   -9.1361  -13.0147 S   0  0  0  0  0  0  0  0  0  0  0  0
   22.2785   -5.4246  -14.5964 C   0  0  0  0  0  0  0  0  0  0  0  0
   22.4560   -5.0017  -15.7607 O   0  0  0  0  0  0  0  0  0  0  0  0
   22.6526   -4.6370  -13.5347 O   0  0  0  0  0  0  0  0  0  0  0  0
  2  1  1  0
  3  2  1  0
  3  4  1  6
  5  3  1  0
  6  5  2  0
  7  5  1  0
  8  7  1  0
  9  8  1  0
  9 11  1  0
 10  9  2  0
 12 11  1  0
 12 15  1  0
 12 13  1  6
 14 13  1  0
 15 17  1  0
 16 15  2  0
M  END
$$$$
