SGC.pdb
     RDKit          3D

 17 16  0  0  1  0  0  0  0  0999 V2000
   12.3896  -15.8417  -12.5974 O   0  0  0  0  0  0  0  0  0  0  0  0
   13.4507  -14.9403  -12.7234 C   0  0  0  0  0  0  0  0  0  0  0  0
   14.3718  -15.4134  -13.8503 C   0  0  2  0  0  0  0  0  0  0  0  0
   14.8112  -16.7719  -13.5914 N   0  0  0  0  0  0  0  0  0  0  0  0
   15.5611  -14.5337  -13.9274 C   0  0  0  0  0  0  0  0  0  0  0  0
   16.6697  -14.8841  -13.4403 O   0  0  0  0  0  0  0  0  0  0  0  0
   15.4722  -13.2736  -14.5549 N   0  0  0  0  0  0  0  0  0  0  0  0
   16.5986  -12.3739  -14.6838 C   0  0  0  0  0  0  0  0  0  0  0  0
   16.3313  -11.1580  -13.9142 C   0  0  0  0  0  0  0  0  0  0  0  0
   15.1559  -10.7225  -13.8206 O   0  0  0  0  0  0  0  0  0  0  0  0
   17.3713  -10.4391  -13.2573 N   0  0  0  0  0  0  0  0  0  0  0  0
   17.0658   -9.1749  -12.6581 C   0  0  1  0  0  0  0  0  0  0  0  0
   17.9120   -9.0632  -11.3955 C   0  0  0  0  0  0  0  0  0  0  0  0
   17.3409  -10.3027  -10.2021 S   0  0  0  0  0  0  0  0  0  0  0  0
   17.3765   -8.0321  -13.5768 C   0  0  0  0  0  0  0  0  0  0  0  0
   17.9968   -8.1741  -14.6543 O   0  0  0  0  0  0  0  0  0  0  0  0
   16.9559   -6.7773  -13.2078 O   0  0  0  0  0  0  0  0  0  0  0  0
  2  1  1  0
  3  2  1  0
  3  4  1  1
  5  3  1  0
  6  5  2  0
  7  5  1  0
  8  7  1  0
  9  8  1  0
  9 11  1  0
 10  9  2  0
 12 11  1  0
 12 15  1  0
 12 13  1  1
 14 13  1  0
 15 17  1  0
 16 15  2  0
M  END
$$$$
