SGC.pdb
     RDKit          3D

 17 16  0  0  1  0  0  0  0  0999 V2000
   17.6654  -14.6484  -15.4751 O   0  0  0  0  0  0  0  0  0  0  0  0
   17.4914  -13.2852  -15.2186 C   0  0  0  0  0  0  0  0  0  0  0  0
   18.2412  -12.4808  -16.2830 C   0  0  2  0  0  0  0  0  0  0  0  0
   19.6630  -12.7599  -16.2025 N   0  0  0  0  0  0  0  0  0  0  0  0
   18.0258  -11.0324  -16.0599 C   0  0  0  0  0  0  0  0  0  0  0  0
   16.8688  -10.5320  -16.0665 O   0  0  0  0  0  0  0  0  0  0  0  0
   19.1250  -10.1781  -15.8337 N   0  0  0  0  0  0  0  0  0  0  0  0
   18.9845   -8.7601  -15.5793 C   0  0  0  0  0  0  0  0  0  0  0  0
   20.2808   -8.2153  -15.1734 C   0  0  0  0  0  0  0  0  0  0  0  0
   21.3036   -8.9453  -15.2038 O   0  0  0  0  0  0  0  0  0  0  0  0
   20.4275   -6.8666  -14.7382 N   0  0  0  0  0  0  0  0  0  0  0  0
   21.7437   -6.3587  -14.4932 C   0  0  1  0  0  0  0  0  0  0  0  0
   22.4812   -6.3680  -15.8269 C   0  0  0  0  0  0  0  0  0  0  0  0
   24.1652   -5.7502  -15.5636 S   0  0  0  0  0  0  0  0  0  0  0  0
   21.7109   -4.9644  -13.9442 C   0  0  0  0  0  0  0  0  0  0  0  0
   22.5685   -4.5274  -13.1445 O   0  0  0  0  0  0  0  0  0  0  0  0
   20.6882   -4.1391  -14.3447 O   0  0  0  0  0  0  0  0  0  0  0  0
  2  1  1  0
  3  2  1  0
  3  4  1  1
  5  3  1  0
  6  5  2  0
  7  5  1  0
  8  7  1  0
  9  8  1  0
  9 11  1  0
 10  9  2  0
 12 11  1  0
 12 15  1  0
 12 13  1  6
 14 13  1  0
 15 17  1  0
 16 15  2  0
M  END
$$$$
