SGC.pdb
     RDKit          3D

 17 16  0  0  1  0  0  0  0  0999 V2000
   17.4895  -11.3625  -18.7094 O   0  0  0  0  0  0  0  0  0  0  0  0
   17.5371  -11.2540  -17.3164 C   0  0  0  0  0  0  0  0  0  0  0  0
   17.3290   -9.7890  -16.9259 C   0  0  2  0  0  0  0  0  0  0  0  0
   18.2909   -8.9519  -17.6186 N   0  0  0  0  0  0  0  0  0  0  0  0
   17.5203   -9.6280  -15.4659 C   0  0  0  0  0  0  0  0  0  0  0  0
   16.8154  -10.2647  -14.6372 O   0  0  0  0  0  0  0  0  0  0  0  0
   18.5065   -8.7488  -14.9722 N   0  0  0  0  0  0  0  0  0  0  0  0
   18.7916   -8.5932  -13.5616 C   0  0  0  0  0  0  0  0  0  0  0  0
   19.9407   -7.7012  -13.4006 C   0  0  0  0  0  0  0  0  0  0  0  0
   20.2976   -7.3421  -12.2501 O   0  0  0  0  0  0  0  0  0  0  0  0
   20.6808   -7.2178  -14.5180 N   0  0  0  0  0  0  0  0  0  0  0  0
   21.7842   -6.3349  -14.2866 C   0  0  1  0  0  0  0  0  0  0  0  0
   22.7276   -6.4783  -15.4749 C   0  0  0  0  0  0  0  0  0  0  0  0
   24.0582   -5.2580  -15.3107 S   0  0  0  0  0  0  0  0  0  0  0  0
   21.3413   -4.9084  -14.1628 C   0  0  0  0  0  0  0  0  0  0  0  0
   20.3777   -4.4366  -14.8068 O   0  0  0  0  0  0  0  0  0  0  0  0
   22.0327   -4.0925  -13.3003 O   0  0  0  0  0  0  0  0  0  0  0  0
  2  1  1  0
  3  2  1  0
  3  4  1  6
  5  3  1  0
  6  5  2  0
  7  5  1  0
  8  7  1  0
  9  8  1  0
  9 11  1  0
 10  9  2  0
 12 11  1  0
 12 15  1  0
 12 13  1  6
 14 13  1  0
 15 17  1  0
 16 15  2  0
M  END
$$$$
