SGC.pdb
     RDKit          3D

 17 16  0  0  1  0  0  0  0  0999 V2000
   27.4781  -18.7463  -17.5865 O   0  0  0  0  0  0  0  0  0  0  0  0
   26.5401  -19.7746  -17.4557 C   0  0  0  0  0  0  0  0  0  0  0  0
   27.0615  -20.7950  -16.4412 C   0  0  2  0  0  0  0  0  0  0  0  0
   28.2803  -21.4064  -16.9376 N   0  0  0  0  0  0  0  0  0  0  0  0
   26.0478  -21.8542  -16.2303 C   0  0  0  0  0  0  0  0  0  0  0  0
   25.6801  -22.6078  -17.1715 O   0  0  0  0  0  0  0  0  0  0  0  0
   25.4696  -22.0398  -14.9572 N   0  0  0  0  0  0  0  0  0  0  0  0
   24.4190  -23.0013  -14.6991 C   0  0  0  0  0  0  0  0  0  0  0  0
   23.9530  -22.8435  -13.3207 C   0  0  0  0  0  0  0  0  0  0  0  0
   22.9594  -23.4991  -12.9171 O   0  0  0  0  0  0  0  0  0  0  0  0
   24.5949  -21.9598  -12.4056 N   0  0  0  0  0  0  0  0  0  0  0  0
   23.8356  -21.4198  -11.3184 C   0  0  1  0  0  0  0  0  0  0  0  0
   24.8277  -20.7743  -10.3582 C   0  0  0  0  0  0  0  0  0  0  0  0
   26.4276  -21.6099  -10.5277 S   0  0  0  0  0  0  0  0  0  0  0  0
   22.8445  -20.3963  -11.7837 C   0  0  0  0  0  0  0  0  0  0  0  0
   22.8194  -19.9563  -12.9549 O   0  0  0  0  0  0  0  0  0  0  0  0
   21.9276  -19.9281  -10.8738 O   0  0  0  0  0  0  0  0  0  0  0  0
  2  1  1  0
  3  2  1  0
  3  4  1  6
  5  3  1  0
  6  5  2  0
  7  5  1  0
  8  7  1  0
  9  8  1  0
  9 11  1  0
 10  9  2  0
 12 11  1  0
 12 15  1  0
 12 13  1  1
 14 13  1  0
 15 17  1  0
 16 15  2  0
M  END
$$$$
