SGC.pdb
     RDKit          3D

 17 16  0  0  1  0  0  0  0  0999 V2000
   15.9023  -23.7463  -11.3022 O   0  0  0  0  0  0  0  0  0  0  0  0
   16.9661  -22.8638  -11.0928 C   0  0  0  0  0  0  0  0  0  0  0  0
   18.2636  -23.6681  -10.9853 C   0  0  2  0  0  0  0  0  0  0  0  0
   18.1191  -24.7067   -9.9822 N   0  0  0  0  0  0  0  0  0  0  0  0
   19.3758  -22.7735  -10.5892 C   0  0  0  0  0  0  0  0  0  0  0  0
   19.9523  -22.8964   -9.4749 O   0  0  0  0  0  0  0  0  0  0  0  0
   19.8140  -21.7566  -11.4628 N   0  0  0  0  0  0  0  0  0  0  0  0
   21.0135  -20.9799  -11.2327 C   0  0  0  0  0  0  0  0  0  0  0  0
   21.1099  -19.9337  -12.2516 C   0  0  0  0  0  0  0  0  0  0  0  0
   22.0806  -19.1353  -12.2388 O   0  0  0  0  0  0  0  0  0  0  0  0
   20.1278  -19.7852  -13.2732 N   0  0  0  0  0  0  0  0  0  0  0  0
   20.3551  -18.8317  -14.3170 C   0  0  1  0  0  0  0  0  0  0  0  0
   21.4061  -19.4282  -15.2456 C   0  0  0  0  0  0  0  0  0  0  0  0
   21.8633  -18.1829  -16.4812 S   0  0  0  0  0  0  0  0  0  0  0  0
   19.1044  -18.5418  -15.0903 C   0  0  0  0  0  0  0  0  0  0  0  0
   18.2104  -19.3958  -15.2839 O   0  0  0  0  0  0  0  0  0  0  0  0
   18.9441  -17.2779  -15.6047 O   0  0  0  0  0  0  0  0  0  0  0  0
  2  1  1  0
  3  2  1  0
  3  4  1  1
  5  3  1  0
  6  5  2  0
  7  5  1  0
  8  7  1  0
  9  8  1  0
  9 11  1  0
 10  9  2  0
 12 11  1  0
 12 15  1  0
 12 13  1  6
 14 13  1  0
 15 17  1  0
 16 15  2  0
M  END
$$$$
