SGC.pdb
     RDKit          3D

 17 16  0  0  1  0  0  0  0  0999 V2000
   19.3842  -13.3130  -18.5161 O   0  0  0  0  0  0  0  0  0  0  0  0
   19.7643  -12.7152  -17.3109 C   0  0  0  0  0  0  0  0  0  0  0  0
   20.6568  -11.5098  -17.6152 C   0  0  2  0  0  0  0  0  0  0  0  0
   21.9202  -11.9585  -18.1704 N   0  0  0  0  0  0  0  0  0  0  0  0
   20.9241  -10.7571  -16.3678 C   0  0  0  0  0  0  0  0  0  0  0  0
   20.0176  -10.0964  -15.7927 O   0  0  0  0  0  0  0  0  0  0  0  0
   22.2131  -10.7670  -15.7954 N   0  0  0  0  0  0  0  0  0  0  0  0
   22.5549  -10.0176  -14.6052 C   0  0  0  0  0  0  0  0  0  0  0  0
   22.8791   -8.6411  -14.9821 C   0  0  0  0  0  0  0  0  0  0  0  0
   23.7795   -8.4204  -15.8310 O   0  0  0  0  0  0  0  0  0  0  0  0
   22.2006   -7.5251  -14.4128 N   0  0  0  0  0  0  0  0  0  0  0  0
   22.4994   -6.2123  -14.9005 C   0  0  1  0  0  0  0  0  0  0  0  0
   22.0517   -6.1643  -16.3565 C   0  0  0  0  0  0  0  0  0  0  0  0
   22.2310   -4.4655  -16.9635 S   0  0  0  0  0  0  0  0  0  0  0  0
   21.7873   -5.1507  -14.1180 C   0  0  0  0  0  0  0  0  0  0  0  0
   22.3006   -4.0406  -13.8532 O   0  0  0  0  0  0  0  0  0  0  0  0
   20.5143   -5.4208  -13.6775 O   0  0  0  0  0  0  0  0  0  0  0  0
  2  1  1  0
  3  2  1  0
  3  4  1  1
  5  3  1  0
  6  5  2  0
  7  5  1  0
  8  7  1  0
  9  8  1  0
  9 11  1  0
 10  9  2  0
 12 11  1  0
 12 15  1  0
 12 13  1  6
 14 13  1  0
 15 17  1  0
 16 15  2  0
M  END
$$$$
