SGC.pdb
     RDKit          3D

 17 16  0  0  1  0  0  0  0  0999 V2000
   32.1643  -24.1265  -19.7143 O   0  0  0  0  0  0  0  0  0  0  0  0
   31.0345  -23.5389  -19.1376 C   0  0  0  0  0  0  0  0  0  0  0  0
   30.3232  -24.5793  -18.2694 C   0  0  2  0  0  0  0  0  0  0  0  0
   29.1583  -25.0913  -18.9669 N   0  0  0  0  0  0  0  0  0  0  0  0
   29.8835  -23.9557  -16.9998 C   0  0  0  0  0  0  0  0  0  0  0  0
   30.1348  -24.4881  -15.8852 O   0  0  0  0  0  0  0  0  0  0  0  0
   29.1673  -22.7407  -17.0168 N   0  0  0  0  0  0  0  0  0  0  0  0
   28.7676  -22.0423  -15.8137 C   0  0  0  0  0  0  0  0  0  0  0  0
   28.0653  -20.8128  -16.1842 C   0  0  0  0  0  0  0  0  0  0  0  0
   27.6283  -20.0475  -15.2880 O   0  0  0  0  0  0  0  0  0  0  0  0
   27.8559  -20.4465  -17.5451 N   0  0  0  0  0  0  0  0  0  0  0  0
   27.0398  -19.3065  -17.8363 C   0  0  1  0  0  0  0  0  0  0  0  0
   27.7754  -18.4886  -18.8912 C   0  0  0  0  0  0  0  0  0  0  0  0
   29.5255  -18.3850  -18.4296 S   0  0  0  0  0  0  0  0  0  0  0  0
   25.6909  -19.7034  -18.3552 C   0  0  0  0  0  0  0  0  0  0  0  0
   25.3901  -20.8854  -18.6352 O   0  0  0  0  0  0  0  0  0  0  0  0
   24.7513  -18.7158  -18.5268 O   0  0  0  0  0  0  0  0  0  0  0  0
  2  1  1  0
  3  2  1  0
  3  4  1  6
  5  3  1  0
  6  5  2  0
  7  5  1  0
  8  7  1  0
  9  8  1  0
  9 11  1  0
 10  9  2  0
 12 11  1  0
 12 15  1  0
 12 13  1  6
 14 13  1  0
 15 17  1  0
 16 15  2  0
M  END
$$$$
