DNP.pdb
     RDKit          3D

 24 24  0  0  1  0  0  0  0  0999 V2000
   20.5046  -21.3770  -15.1121 N   0  0  0  0  0  0  0  0  0  0  0  0
   20.8135  -19.9817  -15.0676 C   0  0  1  0  0  0  0  0  0  0  0  0
   19.6899  -19.1321  -14.5417 C   0  0  0  0  0  0  0  0  0  0  0  0
   18.4677  -19.4625  -15.3246 C   0  0  0  0  0  0  0  0  0  0  0  0
   18.0595  -20.6396  -15.4609 O   0  0  0  0  0  0  0  0  0  0  0  0
   22.1119  -19.7082  -14.3924 C   0  0  0  0  0  0  0  0  0  0  0  0
   22.4795  -18.5073  -14.3244 O   0  0  0  0  0  0  0  0  0  0  0  0
   17.7504  -18.4350  -15.9273 O   0  0  0  0  0  0  0  0  0  0  0  0
   26.0339  -20.5312  -10.5421 N   0  0  0  0  0  0  0  0  0  0  0  0
   25.8320  -21.3310  -11.6889 C   0  0  0  0  0  0  0  0  0  0  0  0
   26.8048  -21.9018  -12.2752 O   0  0  0  0  0  0  0  0  0  0  0  0
   24.4380  -21.4892  -12.1975 C   0  0  0  0  0  0  0  0  0  0  0  0
   24.2837  -20.4341  -13.3091 C   0  0  2  0  0  0  0  0  0  0  0  0
   22.9281  -20.7017  -13.8400 N   0  0  0  0  0  0  0  0  0  0  0  0
   25.2660  -20.7775  -14.3545 C   0  0  0  0  0  0  0  0  0  0  0  0
   25.1554  -21.9436  -14.8769 O   0  0  0  0  0  0  0  0  0  0  0  0
   26.3149  -19.8837  -14.8032 N   0  0  0  0  0  0  0  0  0  0  0  0
   26.5913  -18.6893  -14.0621 C   0  0  0  0  0  0  0  0  0  0  0  0
   27.9387  -18.2369  -14.4939 C   0  0  0  0  0  0  0  0  0  0  0  0
   27.9455  -18.6704  -15.9544 C   0  0  0  0  0  0  0  0  0  0  0  0
   27.1837  -20.0080  -15.9139 C   0  0  1  0  0  0  0  0  0  0  0  0
   28.1503  -21.1158  -15.8072 C   0  0  0  0  0  0  0  0  0  0  0  0
   28.2921  -21.8226  -14.6385 O   0  0  0  0  0  0  0  0  0  0  0  0
   28.8510  -21.4160  -16.7912 O   0  0  0  0  0  0  0  0  0  0  0  0
  2  1  1  1
  3  2  1  0
  4  3  1  0
  4  5  2  0
  6  2  1  0
  6  7  2  0
  8  4  1  0
 10 12  1  0
 10  9  1  0
 11 10  2  0
 13 12  1  1
 13 14  1  0
 14  6  1  0
 15 13  1  0
 16 15  2  0
 17 15  1  0
 18 17  1  0
 19 18  1  0
 19 20  1  0
 20 21  1  0
 21 17  1  0
 21 22  1  1
 23 22  1  0
 24 22  2  0
M  END
$$$$
