DNP.pdb
     RDKit          3D

 24 24  0  0  1  0  0  0  0  0999 V2000
   21.6633  -11.2128  -17.3797 N   0  0  0  0  0  0  0  0  0  0  0  0
   20.2674  -10.9050  -17.4111 C   0  0  1  0  0  0  0  0  0  0  0  0
   19.3809  -12.1152  -17.3085 C   0  0  0  0  0  0  0  0  0  0  0  0
   19.8125  -13.0827  -18.3543 C   0  0  0  0  0  0  0  0  0  0  0  0
   20.2497  -12.7111  -19.4686 O   0  0  0  0  0  0  0  0  0  0  0  0
   19.8997   -9.8337  -16.4450 C   0  0  0  0  0  0  0  0  0  0  0  0
   18.6878   -9.5010  -16.3937 O   0  0  0  0  0  0  0  0  0  0  0  0
   19.7303  -14.4458  -18.0922 O   0  0  0  0  0  0  0  0  0  0  0  0
   19.6764   -7.8815  -11.4949 N   0  0  0  0  0  0  0  0  0  0  0  0
   20.7899   -7.5800  -12.3102 C   0  0  0  0  0  0  0  0  0  0  0  0
   21.4405   -6.4975  -12.1652 O   0  0  0  0  0  0  0  0  0  0  0  0
   21.1849   -8.5715  -13.3531 C   0  0  0  0  0  0  0  0  0  0  0  0
   20.4301   -8.1501  -14.6280 C   0  0  2  0  0  0  0  0  0  0  0  0
   20.8176   -9.1907  -15.6069 N   0  0  0  0  0  0  0  0  0  0  0  0
   21.0168   -6.8676  -15.0598 C   0  0  0  0  0  0  0  0  0  0  0  0
   22.2851   -6.8582  -15.2495 O   0  0  0  0  0  0  0  0  0  0  0  0
   20.2476   -5.6579  -15.2734 N   0  0  0  0  0  0  0  0  0  0  0  0
   18.8284   -5.6787  -15.0796 C   0  0  0  0  0  0  0  0  0  0  0  0
   18.4079   -4.2601  -14.9482 C   0  0  0  0  0  0  0  0  0  0  0  0
   19.3970   -3.5681  -15.8776 C   0  0  0  0  0  0  0  0  0  0  0  0
   20.6929   -4.3676  -15.6486 C   0  0  1  0  0  0  0  0  0  0  0  0
   21.5106   -3.6874  -14.6281 C   0  0  0  0  0  0  0  0  0  0  0  0
   21.6333   -4.2007  -13.3604 O   0  0  0  0  0  0  0  0  0  0  0  0
   22.0993   -2.6296  -14.9181 O   0  0  0  0  0  0  0  0  0  0  0  0
  2  1  1  1
  3  2  1  0
  4  3  1  0
  4  5  2  0
  6  2  1  0
  6  7  2  0
  8  4  1  0
 10 12  1  0
 10  9  1  0
 11 10  2  0
 13 12  1  1
 13 14  1  0
 14  6  1  0
 15 13  1  0
 16 15  2  0
 17 15  1  0
 18 17  1  0
 19 18  1  0
 19 20  1  0
 20 21  1  0
 21 17  1  0
 21 22  1  1
 23 22  1  0
 24 22  2  0
M  END
$$$$
