DNP.pdb
     RDKit          3D

 24 24  0  0  1  0  0  0  0  0999 V2000
   14.5360   -8.6530   -8.6439 N   0  0  0  0  0  0  0  0  0  0  0  0
   15.1759   -7.5875   -9.3507 C   0  0  1  0  0  0  0  0  0  0  0  0
   15.6753   -6.4860   -8.4574 C   0  0  0  0  0  0  0  0  0  0  0  0
   14.4910   -5.7302   -7.9650 C   0  0  0  0  0  0  0  0  0  0  0  0
   14.1145   -5.7823   -6.7706 O   0  0  0  0  0  0  0  0  0  0  0  0
   16.2118   -8.0774  -10.3012 C   0  0  0  0  0  0  0  0  0  0  0  0
   17.1387   -8.7811   -9.8242 O   0  0  0  0  0  0  0  0  0  0  0  0
   13.7742   -4.9382   -8.8552 O   0  0  0  0  0  0  0  0  0  0  0  0
   16.5793  -10.9186  -14.4618 N   0  0  0  0  0  0  0  0  0  0  0  0
   15.9129   -9.8576  -13.8093 C   0  0  0  0  0  0  0  0  0  0  0  0
   14.8451  -10.0557  -13.1485 O   0  0  0  0  0  0  0  0  0  0  0  0
   16.4986   -8.4893  -13.9168 C   0  0  0  0  0  0  0  0  0  0  0  0
   17.2629   -8.2646  -12.5984 C   0  0  2  0  0  0  0  0  0  0  0  0
   16.2056   -7.7994  -11.6727 N   0  0  0  0  0  0  0  0  0  0  0  0
   18.1937   -7.1456  -12.8372 C   0  0  0  0  0  0  0  0  0  0  0  0
   17.6687   -5.9787  -12.9253 O   0  0  0  0  0  0  0  0  0  0  0  0
   19.6284   -7.3018  -12.9706 N   0  0  0  0  0  0  0  0  0  0  0  0
   20.2180   -8.5959  -12.7977 C   0  0  0  0  0  0  0  0  0  0  0  0
   21.5722   -8.5178  -13.4032 C   0  0  0  0  0  0  0  0  0  0  0  0
   21.9489   -7.0716  -13.1071 C   0  0  0  0  0  0  0  0  0  0  0  0
   20.6103   -6.3307  -13.2818 C   0  0  1  0  0  0  0  0  0  0  0  0
   20.5239   -5.7985  -14.6537 C   0  0  0  0  0  0  0  0  0  0  0  0
   21.1347   -4.6171  -14.9954 O   0  0  0  0  0  0  0  0  0  0  0  0
   19.8862   -6.4284  -15.5175 O   0  0  0  0  0  0  0  0  0  0  0  0
  2  1  1  1
  3  2  1  0
  4  3  1  0
  4  5  2  0
  6  2  1  0
  6  7  2  0
  8  4  1  0
 10 12  1  0
 10  9  1  0
 11 10  2  0
 13 12  1  6
 13 14  1  0
 14  6  1  0
 15 13  1  0
 16 15  2  0
 17 15  1  0
 18 17  1  0
 19 18  1  0
 19 20  1  0
 20 21  1  0
 21 17  1  0
 21 22  1  6
 23 22  1  0
 24 22  2  0
M  END
$$$$
