DNP.pdb
     RDKit          3D

 24 24  0  0  1  0  0  0  0  0999 V2000
   19.1083  -21.2753    5.8088 N   0  0  0  0  0  0  0  0  0  0  0  0
   18.3453  -20.2660    6.4746 C   0  0  1  0  0  0  0  0  0  0  0  0
   18.7058  -20.0963    7.9245 C   0  0  0  0  0  0  0  0  0  0  0  0
   17.7314  -20.8836    8.7286 C   0  0  0  0  0  0  0  0  0  0  0  0
   17.6942  -22.1359    8.6942 O   0  0  0  0  0  0  0  0  0  0  0  0
   18.3302  -18.9788    5.7267 C   0  0  0  0  0  0  0  0  0  0  0  0
   19.4442  -18.4886    5.4091 O   0  0  0  0  0  0  0  0  0  0  0  0
   16.8295  -20.2129    9.5473 O   0  0  0  0  0  0  0  0  0  0  0  0
   17.3034  -18.5983    2.5046 N   0  0  0  0  0  0  0  0  0  0  0  0
   16.0378  -17.9866    2.6444 C   0  0  0  0  0  0  0  0  0  0  0  0
   15.1168  -18.1720    1.7879 O   0  0  0  0  0  0  0  0  0  0  0  0
   15.8087  -17.1112    3.8310 C   0  0  0  0  0  0  0  0  0  0  0  0
   17.1608  -17.0541    4.5668 C   0  0  2  0  0  0  0  0  0  0  0  0
   17.1608  -18.3001    5.3662 N   0  0  0  0  0  0  0  0  0  0  0  0
   17.0870  -15.9096    5.4943 C   0  0  0  0  0  0  0  0  0  0  0  0
   16.4413  -16.1032    6.5854 O   0  0  0  0  0  0  0  0  0  0  0  0
   17.6936  -14.6190    5.2357 N   0  0  0  0  0  0  0  0  0  0  0  0
   18.4448  -14.4191    4.0324 C   0  0  0  0  0  0  0  0  0  0  0  0
   18.5560  -12.9486    3.8536 C   0  0  0  0  0  0  0  0  0  0  0  0
   18.6201  -12.4757    5.3004 C   0  0  0  0  0  0  0  0  0  0  0  0
   17.6518  -13.4372    6.0139 C   0  0  1  0  0  0  0  0  0  0  0  0
   16.3192  -12.8128    6.0976 C   0  0  0  0  0  0  0  0  0  0  0  0
   16.0666  -11.7980    6.9875 O   0  0  0  0  0  0  0  0  0  0  0  0
   15.4064  -13.2114    5.3508 O   0  0  0  0  0  0  0  0  0  0  0  0
  2  1  1  6
  3  2  1  0
  4  3  1  0
  4  5  2  0
  6  2  1  0
  6  7  2  0
  8  4  1  0
 10 12  1  0
 10  9  1  0
 11 10  2  0
 13 12  1  6
 13 14  1  0
 14  6  1  0
 15 13  1  0
 16 15  2  0
 17 15  1  0
 18 17  1  0
 19 18  1  0
 19 20  1  0
 20 21  1  0
 21 17  1  0
 21 22  1  6
 23 22  1  0
 24 22  2  0
M  END
$$$$
