DNP.pdb
     RDKit          3D

 24 24  0  0  1  0  0  0  0  0999 V2000
   19.4366  -12.2173  -16.6738 N   0  0  0  0  0  0  0  0  0  0  0  0
   18.1906  -11.6503  -16.2613 C   0  0  1  0  0  0  0  0  0  0  0  0
   17.2688  -12.6371  -15.6000 C   0  0  0  0  0  0  0  0  0  0  0  0
   17.1137  -13.7980  -16.5188 C   0  0  0  0  0  0  0  0  0  0  0  0
   17.2233  -13.6852  -17.7623 O   0  0  0  0  0  0  0  0  0  0  0  0
   18.3684  -10.4024  -15.4690 C   0  0  0  0  0  0  0  0  0  0  0  0
   17.9033  -10.3957  -14.3004 O   0  0  0  0  0  0  0  0  0  0  0  0
   16.8380  -15.0523  -15.9858 O   0  0  0  0  0  0  0  0  0  0  0  0
   21.8852   -6.7669  -13.3063 N   0  0  0  0  0  0  0  0  0  0  0  0
   20.6984   -7.5249  -13.1946 C   0  0  0  0  0  0  0  0  0  0  0  0
   19.8540   -7.2970  -12.2720 O   0  0  0  0  0  0  0  0  0  0  0  0
   20.4603   -8.6071  -14.1940 C   0  0  0  0  0  0  0  0  0  0  0  0
   19.3290   -8.0875  -15.1010 C   0  0  2  0  0  0  0  0  0  0  0  0
   19.0150   -9.2585  -15.9503 N   0  0  0  0  0  0  0  0  0  0  0  0
   19.9217   -7.0418  -15.9559 C   0  0  0  0  0  0  0  0  0  0  0  0
   21.0178   -7.3461  -16.5484 O   0  0  0  0  0  0  0  0  0  0  0  0
   19.3382   -5.7295  -16.1503 N   0  0  0  0  0  0  0  0  0  0  0  0
   18.1250   -5.3872  -15.4697 C   0  0  0  0  0  0  0  0  0  0  0  0
   18.0262   -3.9059  -15.5201 C   0  0  0  0  0  0  0  0  0  0  0  0
   18.6710   -3.6092  -16.8681 C   0  0  0  0  0  0  0  0  0  0  0  0
   19.8046   -4.6492  -16.9372 C   0  0  1  0  0  0  0  0  0  0  0  0
   21.0551   -4.0393  -16.4502 C   0  0  0  0  0  0  0  0  0  0  0  0
   21.6830   -3.0462  -17.1609 O   0  0  0  0  0  0  0  0  0  0  0  0
   21.5520   -4.4305  -15.3781 O   0  0  0  0  0  0  0  0  0  0  0  0
  2  1  1  1
  3  2  1  0
  4  3  1  0
  4  5  2  0
  6  2  1  0
  6  7  2  0
  8  4  1  0
 10 12  1  0
 10  9  1  0
 11 10  2  0
 13 12  1  1
 13 14  1  0
 14  6  1  0
 15 13  1  0
 16 15  2  0
 17 15  1  0
 18 17  1  0
 19 18  1  0
 19 20  1  0
 20 21  1  0
 21 17  1  0
 21 22  1  1
 23 22  1  0
 24 22  2  0
M  END
$$$$
