DNP.pdb
     RDKit          3D

 24 24  0  0  1  0  0  0  0  0999 V2000
   19.3312  -19.5972  -14.9503 N   0  0  0  0  0  0  0  0  0  0  0  0
   19.5277  -18.3134  -14.3523 C   0  0  1  0  0  0  0  0  0  0  0  0
   20.8730  -18.1517  -13.7005 C   0  0  0  0  0  0  0  0  0  0  0  0
   20.9787  -19.1712  -12.6210 C   0  0  0  0  0  0  0  0  0  0  0  0
   21.8284  -20.0920  -12.6524 O   0  0  0  0  0  0  0  0  0  0  0  0
   19.1952  -17.1974  -15.2799 C   0  0  0  0  0  0  0  0  0  0  0  0
   19.7857  -17.1814  -16.3904 O   0  0  0  0  0  0  0  0  0  0  0  0
   20.1082  -19.1050  -11.5386 O   0  0  0  0  0  0  0  0  0  0  0  0
   15.7059  -13.6716  -17.5959 N   0  0  0  0  0  0  0  0  0  0  0  0
   16.2540  -13.4285  -16.3168 C   0  0  0  0  0  0  0  0  0  0  0  0
   16.4659  -12.2452  -15.9034 O   0  0  0  0  0  0  0  0  0  0  0  0
   16.5801  -14.6046  -15.4581 C   0  0  0  0  0  0  0  0  0  0  0  0
   17.9813  -15.0633  -15.9040 C   0  0  2  0  0  0  0  0  0  0  0  0
   18.2759  -16.1847  -14.9837 N   0  0  0  0  0  0  0  0  0  0  0  0
   18.9050  -13.9559  -15.5942 C   0  0  0  0  0  0  0  0  0  0  0  0
   18.9712  -13.5985  -14.3642 O   0  0  0  0  0  0  0  0  0  0  0  0
   19.7153  -13.2775  -16.5860 N   0  0  0  0  0  0  0  0  0  0  0  0
   19.6865  -13.7226  -17.9473 C   0  0  0  0  0  0  0  0  0  0  0  0
   20.2452  -12.6104  -18.7581 C   0  0  0  0  0  0  0  0  0  0  0  0
   21.2728  -12.0267  -17.7966 C   0  0  0  0  0  0  0  0  0  0  0  0
   20.5743  -12.1630  -16.4311 C   0  0  1  0  0  0  0  0  0  0  0  0
   19.8808  -10.9023  -16.1111 C   0  0  0  0  0  0  0  0  0  0  0  0
   18.5182  -10.7904  -16.2396 O   0  0  0  0  0  0  0  0  0  0  0  0
   20.5397   -9.9217  -15.7188 O   0  0  0  0  0  0  0  0  0  0  0  0
  2  1  1  6
  3  2  1  0
  4  3  1  0
  4  5  2  0
  6  2  1  0
  6  7  2  0
  8  4  1  0
 10 12  1  0
 10  9  1  0
 11 10  2  0
 13 12  1  1
 13 14  1  0
 14  6  1  0
 15 13  1  0
 16 15  2  0
 17 15  1  0
 18 17  1  0
 19 18  1  0
 19 20  1  0
 20 21  1  0
 21 17  1  0
 21 22  1  6
 23 22  1  0
 24 22  2  0
M  END
$$$$
