DNP.pdb
     RDKit          3D

 24 24  0  0  1  0  0  0  0  0999 V2000
   15.2811  -20.7342    1.1665 N   0  0  0  0  0  0  0  0  0  0  0  0
   15.2767  -20.9628    2.5779 C   0  0  1  0  0  0  0  0  0  0  0  0
   15.2041  -22.4171    2.9527 C   0  0  0  0  0  0  0  0  0  0  0  0
   14.0011  -22.9951    2.2933 C   0  0  0  0  0  0  0  0  0  0  0  0
   14.0846  -23.8690    1.3987 O   0  0  0  0  0  0  0  0  0  0  0  0
   16.3757  -20.2390    3.2743 C   0  0  0  0  0  0  0  0  0  0  0  0
   17.5142  -20.2779    2.7410 O   0  0  0  0  0  0  0  0  0  0  0  0
   12.7396  -22.5549    2.6785 O   0  0  0  0  0  0  0  0  0  0  0  0
   15.1563  -16.0195    4.3973 N   0  0  0  0  0  0  0  0  0  0  0  0
   16.4363  -16.5443    4.6830 C   0  0  0  0  0  0  0  0  0  0  0  0
   17.4663  -16.1544    4.0480 O   0  0  0  0  0  0  0  0  0  0  0  0
   16.5487  -17.5749    5.7563 C   0  0  0  0  0  0  0  0  0  0  0  0
   17.2951  -18.7588    5.1130 C   0  0  2  0  0  0  0  0  0  0  0  0
   16.2083  -19.5311    4.4697 N   0  0  0  0  0  0  0  0  0  0  0  0
   17.8414  -19.5642    6.2213 C   0  0  0  0  0  0  0  0  0  0  0  0
   16.9907  -20.2293    6.9134 O   0  0  0  0  0  0  0  0  0  0  0  0
   19.2510  -19.6355    6.5507 N   0  0  0  0  0  0  0  0  0  0  0  0
   20.2047  -18.9522    5.7287 C   0  0  0  0  0  0  0  0  0  0  0  0
   21.4485  -18.8514    6.5345 C   0  0  0  0  0  0  0  0  0  0  0  0
   21.3908  -20.1458    7.3360 C   0  0  0  0  0  0  0  0  0  0  0  0
   19.8867  -20.2951    7.6299 C   0  0  1  0  0  0  0  0  0  0  0  0
   19.5896  -19.7181    8.9533 C   0  0  0  0  0  0  0  0  0  0  0  0
   19.8446  -20.4197   10.1059 O   0  0  0  0  0  0  0  0  0  0  0  0
   19.0984  -18.5769    9.0293 O   0  0  0  0  0  0  0  0  0  0  0  0
  2  1  1  6
  3  2  1  0
  4  3  1  0
  4  5  2  0
  6  2  1  0
  6  7  2  0
  8  4  1  0
 10 12  1  0
 10  9  1  0
 11 10  2  0
 13 12  1  1
 13 14  1  0
 14  6  1  0
 15 13  1  0
 16 15  2  0
 17 15  1  0
 18 17  1  0
 19 18  1  0
 19 20  1  0
 20 21  1  0
 21 17  1  0
 21 22  1  1
 23 22  1  0
 24 22  2  0
M  END
$$$$
