DNP.pdb
     RDKit          3D

 24 24  0  0  1  0  0  0  0  0999 V2000
   27.8175  -17.9330  -18.9695 N   0  0  0  0  0  0  0  0  0  0  0  0
   26.5767  -18.6268  -18.8172 C   0  0  1  0  0  0  0  0  0  0  0  0
   26.5653  -19.9883  -19.4551 C   0  0  0  0  0  0  0  0  0  0  0  0
   26.7602  -19.8040  -20.9194 C   0  0  0  0  0  0  0  0  0  0  0  0
   25.8872  -19.2778  -21.6486 O   0  0  0  0  0  0  0  0  0  0  0  0
   26.1048  -18.6443  -17.4053 C   0  0  0  0  0  0  0  0  0  0  0  0
   26.9341  -18.3098  -16.5208 O   0  0  0  0  0  0  0  0  0  0  0  0
   27.9486  -20.2279  -21.5037 O   0  0  0  0  0  0  0  0  0  0  0  0
   21.4253  -20.1109  -14.0435 N   0  0  0  0  0  0  0  0  0  0  0  0
   22.2930  -19.0397  -14.3519 C   0  0  0  0  0  0  0  0  0  0  0  0
   22.6212  -18.1821  -13.4728 O   0  0  0  0  0  0  0  0  0  0  0  0
   22.8174  -18.9402  -15.7454 C   0  0  0  0  0  0  0  0  0  0  0  0
   24.3508  -19.0027  -15.6130 C   0  0  2  0  0  0  0  0  0  0  0  0
   24.8092  -19.0072  -17.0206 N   0  0  0  0  0  0  0  0  0  0  0  0
   24.6687  -20.3147  -15.0188 C   0  0  0  0  0  0  0  0  0  0  0  0
   24.1346  -21.3369  -15.5798 O   0  0  0  0  0  0  0  0  0  0  0  0
   25.5310  -20.4933  -13.8677 N   0  0  0  0  0  0  0  0  0  0  0  0
   26.2341  -19.3673  -13.3293 C   0  0  0  0  0  0  0  0  0  0  0  0
   26.6592  -19.7604  -11.9614 C   0  0  0  0  0  0  0  0  0  0  0  0
   26.9140  -21.2512  -12.1446 C   0  0  0  0  0  0  0  0  0  0  0  0
   25.8005  -21.6670  -13.1236 C   0  0  1  0  0  0  0  0  0  0  0  0
   24.6480  -22.1797  -12.3608 C   0  0  0  0  0  0  0  0  0  0  0  0
   24.7038  -23.3948  -11.7237 O   0  0  0  0  0  0  0  0  0  0  0  0
   23.6061  -21.5020  -12.2931 O   0  0  0  0  0  0  0  0  0  0  0  0
  2  1  1  1
  3  2  1  0
  4  3  1  0
  4  5  2  0
  6  2  1  0
  6  7  2  0
  8  4  1  0
 10 12  1  0
 10  9  1  0
 11 10  2  0
 13 12  1  6
 13 14  1  0
 14  6  1  0
 15 13  1  0
 16 15  2  0
 17 15  1  0
 18 17  1  0
 19 18  1  0
 19 20  1  0
 20 21  1  0
 21 17  1  0
 21 22  1  1
 23 22  1  0
 24 22  2  0
M  END
$$$$
