DNP.pdb
     RDKit          3D

 24 24  0  0  1  0  0  0  0  0999 V2000
   14.3925  -12.8979  -13.7192 N   0  0  0  0  0  0  0  0  0  0  0  0
   15.5835  -12.1295  -13.5317 C   0  0  1  0  0  0  0  0  0  0  0  0
   16.5093  -12.1540  -14.7163 C   0  0  0  0  0  0  0  0  0  0  0  0
   17.0682  -13.5293  -14.8259 C   0  0  0  0  0  0  0  0  0  0  0  0
   17.2493  -14.2589  -13.8230 O   0  0  0  0  0  0  0  0  0  0  0  0
   15.3001  -10.7510  -13.0461 C   0  0  0  0  0  0  0  0  0  0  0  0
   14.4235  -10.0953  -13.6654 O   0  0  0  0  0  0  0  0  0  0  0  0
   17.4027  -14.0271  -16.0804 O   0  0  0  0  0  0  0  0  0  0  0  0
   16.7122   -6.6423   -9.0073 N   0  0  0  0  0  0  0  0  0  0  0  0
   15.6759   -7.4930   -9.4523 C   0  0  0  0  0  0  0  0  0  0  0  0
   14.4570   -7.1377   -9.3883 O   0  0  0  0  0  0  0  0  0  0  0  0
   16.0517   -8.8282  -10.0027 C   0  0  0  0  0  0  0  0  0  0  0  0
   15.6619   -8.7833  -11.4922 C   0  0  2  0  0  0  0  0  0  0  0  0
   15.9479  -10.1598  -11.9556 N   0  0  0  0  0  0  0  0  0  0  0  0
   16.6134   -7.8672  -12.1488 C   0  0  0  0  0  0  0  0  0  0  0  0
   17.8583   -8.1044  -11.9519 O   0  0  0  0  0  0  0  0  0  0  0  0
   16.2159   -6.7487  -12.9804 N   0  0  0  0  0  0  0  0  0  0  0  0
   14.8295   -6.5476  -13.2798 C   0  0  0  0  0  0  0  0  0  0  0  0
   14.7080   -5.1453  -13.7543 C   0  0  0  0  0  0  0  0  0  0  0  0
   16.0420   -4.9536  -14.4647 C   0  0  0  0  0  0  0  0  0  0  0  0
   17.0173   -5.7429  -13.5720 C   0  0  1  0  0  0  0  0  0  0  0  0
   17.6470   -4.8233  -12.6072 C   0  0  0  0  0  0  0  0  0  0  0  0
   17.3732   -4.9085  -11.2644 O   0  0  0  0  0  0  0  0  0  0  0  0
   18.4392   -3.9540  -13.0149 O   0  0  0  0  0  0  0  0  0  0  0  0
  2  1  1  6
  3  2  1  0
  4  3  1  0
  4  5  2  0
  6  2  1  0
  6  7  2  0
  8  4  1  0
 10 12  1  0
 10  9  1  0
 11 10  2  0
 13 12  1  1
 13 14  1  0
 14  6  1  0
 15 13  1  0
 16 15  2  0
 17 15  1  0
 18 17  1  0
 19 18  1  0
 19 20  1  0
 20 21  1  0
 21 17  1  0
 21 22  1  1
 23 22  1  0
 24 22  2  0
M  END
$$$$
