DNP.pdb
     RDKit          3D

 24 24  0  0  1  0  0  0  0  0999 V2000
   14.6307  -11.0152  -12.9582 N   0  0  0  0  0  0  0  0  0  0  0  0
   16.0447  -10.8039  -12.9554 C   0  0  1  0  0  0  0  0  0  0  0  0
   16.7465  -11.4062  -14.1410 C   0  0  0  0  0  0  0  0  0  0  0  0
   16.5855  -12.8839  -14.0599 C   0  0  0  0  0  0  0  0  0  0  0  0
   16.8370  -13.5270  -13.0139 O   0  0  0  0  0  0  0  0  0  0  0  0
   16.4058   -9.3770  -12.7316 C   0  0  0  0  0  0  0  0  0  0  0  0
   15.7991   -8.5183  -13.4220 O   0  0  0  0  0  0  0  0  0  0  0  0
   16.1415  -13.5798  -15.1788 O   0  0  0  0  0  0  0  0  0  0  0  0
   15.8184   -8.2786   -9.0831 N   0  0  0  0  0  0  0  0  0  0  0  0
   16.5320   -7.1677   -9.5854 C   0  0  0  0  0  0  0  0  0  0  0  0
   16.0209   -6.0038   -9.5940 O   0  0  0  0  0  0  0  0  0  0  0  0
   17.9103   -7.3977  -10.1092 C   0  0  0  0  0  0  0  0  0  0  0  0
   17.7528   -7.5327  -11.6355 C   0  0  2  0  0  0  0  0  0  0  0  0
   17.3682   -8.9516  -11.8090 N   0  0  0  0  0  0  0  0  0  0  0  0
   19.0956   -7.3432  -12.2155 C   0  0  0  0  0  0  0  0  0  0  0  0
   20.0279   -8.0880  -11.7452 O   0  0  0  0  0  0  0  0  0  0  0  0
   19.3973   -6.3850  -13.2601 N   0  0  0  0  0  0  0  0  0  0  0  0
   18.3540   -5.5504  -13.7769 C   0  0  0  0  0  0  0  0  0  0  0  0
   19.0303   -4.4295  -14.4789 C   0  0  0  0  0  0  0  0  0  0  0  0
   20.2750   -5.1226  -15.0186 C   0  0  0  0  0  0  0  0  0  0  0  0
   20.6350   -6.1017  -13.8859 C   0  0  1  0  0  0  0  0  0  0  0  0
   21.6334   -5.4758  -13.0004 C   0  0  0  0  0  0  0  0  0  0  0  0
   21.2781   -4.9811  -11.7697 O   0  0  0  0  0  0  0  0  0  0  0  0
   22.8182   -5.3924  -13.3732 O   0  0  0  0  0  0  0  0  0  0  0  0
  2  1  1  6
  3  2  1  0
  4  3  1  0
  4  5  2  0
  6  2  1  0
  6  7  2  0
  8  4  1  0
 10 12  1  0
 10  9  1  0
 11 10  2  0
 13 12  1  1
 13 14  1  0
 14  6  1  0
 15 13  1  0
 16 15  2  0
 17 15  1  0
 18 17  1  0
 19 18  1  0
 19 20  1  0
 20 21  1  0
 21 17  1  0
 21 22  1  1
 23 22  1  0
 24 22  2  0
M  END
$$$$
