DNP.pdb
     RDKit          3D

 24 24  0  0  1  0  0  0  0  0999 V2000
   16.4227  -14.5570  -16.5191 N   0  0  0  0  0  0  0  0  0  0  0  0
   16.4338  -13.3199  -15.8024 C   0  0  1  0  0  0  0  0  0  0  0  0
   16.1257  -13.4688  -14.3382 C   0  0  0  0  0  0  0  0  0  0  0  0
   14.7841  -14.1029  -14.2200 C   0  0  0  0  0  0  0  0  0  0  0  0
   14.6022  -15.1683  -13.5854 O   0  0  0  0  0  0  0  0  0  0  0  0
   17.6674  -12.5264  -16.0573 C   0  0  0  0  0  0  0  0  0  0  0  0
   18.7676  -13.1229  -15.9308 O   0  0  0  0  0  0  0  0  0  0  0  0
   13.6920  -13.4976  -14.8319 O   0  0  0  0  0  0  0  0  0  0  0  0
   19.9441   -7.9799  -19.1050 N   0  0  0  0  0  0  0  0  0  0  0  0
   20.0278   -9.2209  -18.4354 C   0  0  0  0  0  0  0  0  0  0  0  0
   21.1505   -9.7225  -18.1128 O   0  0  0  0  0  0  0  0  0  0  0  0
   18.7559   -9.9324  -18.1149 C   0  0  0  0  0  0  0  0  0  0  0  0
   18.9010  -10.3955  -16.6530 C   0  0  2  0  0  0  0  0  0  0  0  0
   17.6642  -11.1759  -16.4237 N   0  0  0  0  0  0  0  0  0  0  0  0
   18.8425   -9.1804  -15.8189 C   0  0  0  0  0  0  0  0  0  0  0  0
   17.7650   -8.4893  -15.8966 O   0  0  0  0  0  0  0  0  0  0  0  0
   19.9136   -8.7486  -14.9432 N   0  0  0  0  0  0  0  0  0  0  0  0
   21.1154   -9.5239  -14.8603 C   0  0  0  0  0  0  0  0  0  0  0  0
   22.1403   -8.6351  -14.2553 C   0  0  0  0  0  0  0  0  0  0  0  0
   21.2879   -7.7942  -13.3132 C   0  0  0  0  0  0  0  0  0  0  0  0
   19.9863   -7.6038  -14.1137 C   0  0  1  0  0  0  0  0  0  0  0  0
   20.0480   -6.3264  -14.8467 C   0  0  0  0  0  0  0  0  0  0  0  0
   19.8351   -5.1306  -14.2061 O   0  0  0  0  0  0  0  0  0  0  0  0
   20.2959   -6.3299  -16.0666 O   0  0  0  0  0  0  0  0  0  0  0  0
  2  1  1  1
  3  2  1  0
  4  3  1  0
  4  5  2  0
  6  2  1  0
  6  7  2  0
  8  4  1  0
 10 12  1  0
 10  9  1  0
 11 10  2  0
 13 12  1  6
 13 14  1  0
 14  6  1  0
 15 13  1  0
 16 15  2  0
 17 15  1  0
 18 17  1  0
 19 18  1  0
 19 20  1  0
 20 21  1  0
 21 17  1  0
 21 22  1  6
 23 22  1  0
 24 22  2  0
M  END
$$$$
