DNP.pdb
     RDKit          3D

 24 24  0  0  1  0  0  0  0  0999 V2000
   14.4011  -22.0543    1.1915 N   0  0  0  0  0  0  0  0  0  0  0  0
   15.3156  -22.3591    2.2475 C   0  0  1  0  0  0  0  0  0  0  0  0
   16.2000  -23.5399    1.9567 C   0  0  0  0  0  0  0  0  0  0  0  0
   15.3228  -24.7288    1.7749 C   0  0  0  0  0  0  0  0  0  0  0  0
   15.2466  -25.3425    0.6848 O   0  0  0  0  0  0  0  0  0  0  0  0
   16.0765  -21.1635    2.7034 C   0  0  0  0  0  0  0  0  0  0  0  0
   16.0868  -20.1658    1.9376 O   0  0  0  0  0  0  0  0  0  0  0  0
   14.5597  -25.1785    2.8469 O   0  0  0  0  0  0  0  0  0  0  0  0
   17.1955  -16.7512    4.3600 N   0  0  0  0  0  0  0  0  0  0  0  0
   16.6052  -17.6788    5.2469 C   0  0  0  0  0  0  0  0  0  0  0  0
   16.5117  -17.4351    6.4910 O   0  0  0  0  0  0  0  0  0  0  0  0
   16.0912  -18.9607    4.6816 C   0  0  0  0  0  0  0  0  0  0  0  0
   17.3361  -19.8398    4.4580 C   0  0  2  0  0  0  0  0  0  0  0  0
   16.7676  -21.0956    3.9183 N   0  0  0  0  0  0  0  0  0  0  0  0
   17.8971  -20.1221    5.7926 C   0  0  0  0  0  0  0  0  0  0  0  0
   17.1069  -20.6800    6.6347 O   0  0  0  0  0  0  0  0  0  0  0  0
   19.2579  -19.8083    6.1804 N   0  0  0  0  0  0  0  0  0  0  0  0
   20.1268  -19.1560    5.2468 C   0  0  0  0  0  0  0  0  0  0  0  0
   21.2491  -18.5996    6.0452 C   0  0  0  0  0  0  0  0  0  0  0  0
   21.3777  -19.6434    7.1475 C   0  0  0  0  0  0  0  0  0  0  0  0
   19.9129  -20.0358    7.4146 C   0  0  1  0  0  0  0  0  0  0  0  0
   19.3906  -19.2335    8.5355 C   0  0  0  0  0  0  0  0  0  0  0  0
   19.6851  -19.5578    9.8369 O   0  0  0  0  0  0  0  0  0  0  0  0
   18.6697  -18.2463    8.3003 O   0  0  0  0  0  0  0  0  0  0  0  0
  2  1  1  6
  3  2  1  0
  4  3  1  0
  4  5  2  0
  6  2  1  0
  6  7  2  0
  8  4  1  0
 10 12  1  0
 10  9  1  0
 11 10  2  0
 13 12  1  1
 13 14  1  0
 14  6  1  0
 15 13  1  0
 16 15  2  0
 17 15  1  0
 18 17  1  0
 19 18  1  0
 19 20  1  0
 20 21  1  0
 21 17  1  0
 21 22  1  1
 23 22  1  0
 24 22  2  0
M  END
$$$$
