PNY.pdb
     RDKit          3D

 28 29  0  0  1  0  0  0  0  0999 V2000
   19.9965  -15.4985  -17.8811 N   0  0  0  0  0  0  0  0  0  0  0  0
   19.9739  -16.8232  -18.4521 C   0  0  0  0  0  0  0  0  0  0  0  0
   19.9862  -16.5477  -19.9388 C   0  0  0  0  0  0  0  0  0  0  0  0
   20.8501  -15.3032  -20.0378 C   0  0  0  0  0  0  0  0  0  0  0  0
   21.0635  -14.8528  -18.5988 C   0  0  1  0  0  0  0  0  0  0  0  0
   20.8497  -13.3441  -18.5185 C   0  0  0  0  0  0  0  0  0  0  0  0
   21.7030  -12.5773  -18.9825 O   0  0  0  0  0  0  0  0  0  0  0  0
   16.7947   -9.2104  -19.0617 N   0  0  0  0  0  0  0  0  0  0  0  0
   17.2631   -9.9103  -17.9223 C   0  0  0  0  0  0  0  0  0  0  0  0
   17.1943   -9.2662  -16.8317 O   0  0  0  0  0  0  0  0  0  0  0  0
   17.7570  -11.2534  -18.1187 C   0  0  0  0  0  0  0  0  0  0  0  0
   19.1855  -11.5569  -17.7893 C   0  0  2  0  0  0  0  0  0  0  0  0
   19.6922  -12.8465  -17.9225 N   0  0  0  0  0  0  0  0  0  0  0  0
   19.5553  -10.7852  -16.5986 C   0  0  0  0  0  0  0  0  0  0  0  0
   19.2350  -11.2314  -15.4308 O   0  0  0  0  0  0  0  0  0  0  0  0
   22.5549   -2.9352  -14.2021 O   0  0  0  0  0  0  0  0  0  0  0  0
   22.4253   -4.3021  -14.5027 C   0  0  0  0  0  0  0  0  0  0  0  0
   22.3287   -4.7372  -15.8044 C   0  0  0  0  0  0  0  0  0  0  0  0
   22.2008   -6.0785  -16.1119 C   0  0  0  0  0  0  0  0  0  0  0  0
   22.1705   -6.9979  -15.0730 C   0  0  0  0  0  0  0  0  0  0  0  0
   22.0371   -8.4464  -15.3270 C   0  0  0  0  0  0  0  0  0  0  0  0
   20.5918   -8.8492  -15.3169 C   0  0  2  0  0  0  0  0  0  0  0  0
   20.2551   -9.5547  -16.5738 N   0  0  0  0  0  0  0  0  0  0  0  0
   19.6383   -7.7633  -15.0630 C   0  0  0  0  0  0  0  0  0  0  0  0
   19.0765   -7.0823  -16.1398 O   0  0  0  0  0  0  0  0  0  0  0  0
   22.2649   -6.6028  -13.7397 C   0  0  0  0  0  0  0  0  0  0  0  0
   22.3904   -5.2505  -13.5073 C   0  0  0  0  0  0  0  0  0  0  0  0
   19.2831   -7.3948  -13.9227 O   0  0  0  0  0  0  0  0  0  0  0  0
  2  1  1  0
  3  2  1  0
  4  3  1  0
  4  5  1  0
  5  1  1  0
  5  6  1  6
  6  7  2  0
  8  9  1  0
  9 11  1  0
 10  9  2  0
 12 11  1  1
 13  6  1  0
 13 12  1  0
 14 12  1  0
 14 15  2  0
 16 17  1  0
 17 18  2  0
 18 19  1  0
 20 19  2  0
 20 21  1  0
 22 21  1  6
 22 23  1  0
 22 24  1  0
 23 14  1  0
 24 25  1  0
 26 20  1  0
 27 17  1  0
 27 26  2  0
 28 24  2  0
M  END
$$$$
