PNY.pdb
     RDKit          3D

 28 29  0  0  1  0  0  0  0  0999 V2000
   29.8516  -35.5562   -4.8230 N   0  0  0  0  0  0  0  0  0  0  0  0
   31.2110  -35.7038   -5.2832 C   0  0  0  0  0  0  0  0  0  0  0  0
   31.7596  -34.2998   -5.1637 C   0  0  0  0  0  0  0  0  0  0  0  0
   31.0487  -33.7703   -3.9311 C   0  0  0  0  0  0  0  0  0  0  0  0
   30.0018  -34.8235   -3.5938 C   0  0  1  0  0  0  0  0  0  0  0  0
   28.6803  -34.1239   -3.2893 C   0  0  0  0  0  0  0  0  0  0  0  0
   28.6089  -33.3316   -2.3414 O   0  0  0  0  0  0  0  0  0  0  0  0
   23.2957  -33.3379   -6.3811 N   0  0  0  0  0  0  0  0  0  0  0  0
   24.0698  -33.3537   -5.1944 C   0  0  0  0  0  0  0  0  0  0  0  0
   23.4745  -32.9233   -4.1603 O   0  0  0  0  0  0  0  0  0  0  0  0
   25.4237  -33.8485   -5.2857 C   0  0  0  0  0  0  0  0  0  0  0  0
   26.2534  -33.9265   -4.0419 C   0  0  2  0  0  0  0  0  0  0  0  0
   27.5667  -34.3859   -4.0855 N   0  0  0  0  0  0  0  0  0  0  0  0
   25.3938  -34.3838   -2.9455 C   0  0  0  0  0  0  0  0  0  0  0  0
   25.2731  -35.6489   -2.7217 O   0  0  0  0  0  0  0  0  0  0  0  0
   27.4446  -31.3168    3.4724 O   0  0  0  0  0  0  0  0  0  0  0  0
   26.7508  -32.1866    2.6135 C   0  0  0  0  0  0  0  0  0  0  0  0
   25.4195  -31.9901    2.3274 C   0  0  0  0  0  0  0  0  0  0  0  0
   24.7271  -32.8388    1.4845 C   0  0  0  0  0  0  0  0  0  0  0  0
   25.4032  -33.9111    0.9201 C   0  0  0  0  0  0  0  0  0  0  0  0
   24.7278  -34.8575    0.0099 C   0  0  0  0  0  0  0  0  0  0  0  0
   23.8411  -34.1196   -0.9495 C   0  0  2  0  0  0  0  0  0  0  0  0
   24.6479  -33.5679   -2.0609 N   0  0  0  0  0  0  0  0  0  0  0  0
   23.0014  -33.0747   -0.3528 C   0  0  0  0  0  0  0  0  0  0  0  0
   22.2074  -33.3831    0.7489 O   0  0  0  0  0  0  0  0  0  0  0  0
   26.7514  -34.1490    1.1818 C   0  0  0  0  0  0  0  0  0  0  0  0
   27.3780  -33.2629    2.0306 C   0  0  0  0  0  0  0  0  0  0  0  0
   22.9445  -31.8979   -0.7700 O   0  0  0  0  0  0  0  0  0  0  0  0
  2  1  1  0
  3  2  1  0
  4  3  1  0
  4  5  1  0
  5  1  1  0
  5  6  1  6
  6  7  2  0
  8  9  1  0
  9 11  1  0
 10  9  2  0
 12 11  1  6
 13  6  1  0
 13 12  1  0
 14 12  1  0
 14 15  2  0
 16 17  1  0
 17 18  2  0
 18 19  1  0
 20 19  2  0
 20 21  1  0
 22 21  1  1
 22 23  1  0
 22 24  1  0
 23 14  1  0
 24 25  1  0
 26 20  1  0
 27 17  1  0
 27 26  2  0
 28 24  2  0
M  END
$$$$
