PNY.pdb
     RDKit          3D

 28 29  0  0  1  0  0  0  0  0999 V2000
   27.2934  -20.2800  -15.8613 N   0  0  0  0  0  0  0  0  0  0  0  0
   28.6972  -19.9647  -15.9684 C   0  0  0  0  0  0  0  0  0  0  0  0
   28.6875  -18.4742  -16.2229 C   0  0  0  0  0  0  0  0  0  0  0  0
   27.4966  -18.0064  -15.4055 C   0  0  0  0  0  0  0  0  0  0  0  0
   26.8046  -19.2829  -14.9463 C   0  0  1  0  0  0  0  0  0  0  0  0
   25.3014  -19.1324  -15.1609 C   0  0  0  0  0  0  0  0  0  0  0  0
   24.6706  -18.2854  -14.5158 O   0  0  0  0  0  0  0  0  0  0  0  0
   24.4471  -18.6092  -18.6833 N   0  0  0  0  0  0  0  0  0  0  0  0
   23.6477  -19.7356  -18.9994 C   0  0  0  0  0  0  0  0  0  0  0  0
   23.5998  -20.0299  -20.2323 O   0  0  0  0  0  0  0  0  0  0  0  0
   22.9880  -20.4149  -17.9087 C   0  0  0  0  0  0  0  0  0  0  0  0
   23.3299  -20.0321  -16.5023 C   0  0  2  0  0  0  0  0  0  0  0  0
   24.6553  -19.9523  -16.0844 N   0  0  0  0  0  0  0  0  0  0  0  0
   22.3560  -20.6630  -15.6058 C   0  0  0  0  0  0  0  0  0  0  0  0
   21.1111  -20.6922  -15.9440 O   0  0  0  0  0  0  0  0  0  0  0  0
   26.4053  -20.3447   -9.7090 O   0  0  0  0  0  0  0  0  0  0  0  0
   25.3423  -20.9529  -10.3986 C   0  0  0  0  0  0  0  0  0  0  0  0
   24.0343  -20.6833  -10.0682 C   0  0  0  0  0  0  0  0  0  0  0  0
   22.9811  -21.2754  -10.7392 C   0  0  0  0  0  0  0  0  0  0  0  0
   23.2640  -22.1614  -11.7689 C   0  0  0  0  0  0  0  0  0  0  0  0
   22.1895  -22.8301  -12.5298 C   0  0  0  0  0  0  0  0  0  0  0  0
   21.5747  -21.8790  -13.5140 C   0  0  2  0  0  0  0  0  0  0  0  0
   22.6292  -21.2738  -14.3581 N   0  0  0  0  0  0  0  0  0  0  0  0
   20.7185  -20.8390  -12.9325 C   0  0  0  0  0  0  0  0  0  0  0  0
   19.4802  -21.1918  -12.4020 O   0  0  0  0  0  0  0  0  0  0  0  0
   24.5735  -22.4647  -12.1378 C   0  0  0  0  0  0  0  0  0  0  0  0
   25.5728  -21.8377  -11.4260 C   0  0  0  0  0  0  0  0  0  0  0  0
   21.0257  -19.6288  -12.8758 O   0  0  0  0  0  0  0  0  0  0  0  0
  2  1  1  0
  3  2  1  0
  4  3  1  0
  4  5  1  0
  5  1  1  0
  5  6  1  6
  6  7  2  0
  8  9  1  0
  9 11  1  0
 10  9  2  0
 12 11  1  6
 13  6  1  0
 13 12  1  0
 14 12  1  0
 14 15  2  0
 16 17  1  0
 17 18  2  0
 18 19  1  0
 20 19  2  0
 20 21  1  0
 22 21  1  1
 22 23  1  0
 22 24  1  0
 23 14  1  0
 24 25  1  0
 26 20  1  0
 27 17  1  0
 27 26  2  0
 28 24  2  0
M  END
$$$$
