PNY.pdb
     RDKit          3D

 28 29  0  0  1  0  0  0  0  0999 V2000
   31.6901  -21.1349  -10.3234 N   0  0  0  0  0  0  0  0  0  0  0  0
   33.0892  -21.3836  -10.0740 C   0  0  0  0  0  0  0  0  0  0  0  0
   33.0546  -22.4093   -8.9636 C   0  0  0  0  0  0  0  0  0  0  0  0
   31.8185  -23.2230   -9.3027 C   0  0  0  0  0  0  0  0  0  0  0  0
   31.1381  -22.4594  -10.4311 C   0  0  1  0  0  0  0  0  0  0  0  0
   29.6425  -22.3796  -10.1396 C   0  0  0  0  0  0  0  0  0  0  0  0
   28.9462  -23.3997  -10.2175 O   0  0  0  0  0  0  0  0  0  0  0  0
   25.4060  -20.2332   -7.3463 N   0  0  0  0  0  0  0  0  0  0  0  0
   26.0997  -19.3636   -8.2239 C   0  0  0  0  0  0  0  0  0  0  0  0
   25.4214  -18.3810   -8.6520 O   0  0  0  0  0  0  0  0  0  0  0  0
   27.4754  -19.6803   -8.5301 C   0  0  0  0  0  0  0  0  0  0  0  0
   27.7677  -20.7708   -9.5132 C   0  0  2  0  0  0  0  0  0  0  0  0
   29.0772  -21.1553   -9.7870 N   0  0  0  0  0  0  0  0  0  0  0  0
   26.8338  -20.6383  -10.6359 C   0  0  0  0  0  0  0  0  0  0  0  0
   26.9156  -19.6081  -11.4087 O   0  0  0  0  0  0  0  0  0  0  0  0
   20.2409  -21.7883  -16.4123 O   0  0  0  0  0  0  0  0  0  0  0  0
   21.2875  -21.9873  -15.4954 C   0  0  0  0  0  0  0  0  0  0  0  0
   22.5946  -21.7367  -15.8439 C   0  0  0  0  0  0  0  0  0  0  0  0
   23.6316  -21.9288  -14.9507 C   0  0  0  0  0  0  0  0  0  0  0  0
   23.3332  -22.3859  -13.6750 C   0  0  0  0  0  0  0  0  0  0  0  0
   24.3898  -22.6126  -12.6687 C   0  0  0  0  0  0  0  0  0  0  0  0
   24.8794  -21.3050  -12.1194 C   0  0  2  0  0  0  0  0  0  0  0  0
   25.8076  -21.5465  -10.9921 N   0  0  0  0  0  0  0  0  0  0  0  0
   23.8314  -20.3545  -11.7308 C   0  0  0  0  0  0  0  0  0  0  0  0
   23.3208  -20.3930  -10.4359 O   0  0  0  0  0  0  0  0  0  0  0  0
   22.0239  -22.6532  -13.2783 C   0  0  0  0  0  0  0  0  0  0  0  0
   21.0411  -22.4391  -14.2199 C   0  0  0  0  0  0  0  0  0  0  0  0
   23.3507  -19.4901  -12.4950 O   0  0  0  0  0  0  0  0  0  0  0  0
  2  1  1  0
  3  2  1  0
  4  3  1  0
  4  5  1  0
  5  1  1  0
  5  6  1  1
  6  7  2  0
  8  9  1  0
  9 11  1  0
 10  9  2  0
 12 11  1  6
 13  6  1  0
 13 12  1  0
 14 12  1  0
 14 15  2  0
 16 17  1  0
 17 18  2  0
 18 19  1  0
 20 19  2  0
 20 21  1  0
 22 21  1  1
 22 23  1  0
 22 24  1  0
 23 14  1  0
 24 25  1  0
 26 20  1  0
 27 17  1  0
 27 26  2  0
 28 24  2  0
M  END
$$$$
