PNY.pdb
     RDKit          3D

 28 29  0  0  1  0  0  0  0  0999 V2000
   39.6000  -10.0303   -9.1720 N   0  0  0  0  0  0  0  0  0  0  0  0
   39.6685  -11.4450   -9.4464 C   0  0  0  0  0  0  0  0  0  0  0  0
   39.3806  -12.0626   -8.0965 C   0  0  0  0  0  0  0  0  0  0  0  0
   38.3848  -11.0887   -7.4923 C   0  0  0  0  0  0  0  0  0  0  0  0
   38.3662   -9.8992   -8.4432 C   0  0  1  0  0  0  0  0  0  0  0  0
   38.4286   -8.6134   -7.6241 C   0  0  0  0  0  0  0  0  0  0  0  0
   37.4967   -8.3241   -6.8629 O   0  0  0  0  0  0  0  0  0  0  0  0
   41.9473   -4.9624   -4.9602 N   0  0  0  0  0  0  0  0  0  0  0  0
   41.5885   -4.8941   -6.3292 C   0  0  0  0  0  0  0  0  0  0  0  0
   41.5671   -3.7246   -6.8200 O   0  0  0  0  0  0  0  0  0  0  0  0
   41.2932   -6.1354   -7.0060 C   0  0  0  0  0  0  0  0  0  0  0  0
   39.8655   -6.5630   -7.1480 C   0  0  2  0  0  0  0  0  0  0  0  0
   39.5382   -7.7782   -7.7427 N   0  0  0  0  0  0  0  0  0  0  0  0
   39.0659   -5.3833   -7.4932 C   0  0  0  0  0  0  0  0  0  0  0  0
   38.6113   -5.2566   -8.6943 O   0  0  0  0  0  0  0  0  0  0  0  0
   36.3967   -1.6858   -0.9764 O   0  0  0  0  0  0  0  0  0  0  0  0
   36.3982   -2.2103   -2.2804 C   0  0  0  0  0  0  0  0  0  0  0  0
   36.7042   -3.5311   -2.5145 C   0  0  0  0  0  0  0  0  0  0  0  0
   36.7088   -4.0578   -3.7922 C   0  0  0  0  0  0  0  0  0  0  0  0
   36.3956   -3.2232   -4.8555 C   0  0  0  0  0  0  0  0  0  0  0  0
   36.3797   -3.7174   -6.2469 C   0  0  0  0  0  0  0  0  0  0  0  0
   37.6505   -3.3419   -6.9508 C   0  0  2  0  0  0  0  0  0  0  0  0
   38.7144   -4.3190   -6.6283 N   0  0  0  0  0  0  0  0  0  0  0  0
   38.1188   -1.9716   -6.7143 C   0  0  0  0  0  0  0  0  0  0  0  0
   39.3347   -1.7679   -6.0668 O   0  0  0  0  0  0  0  0  0  0  0  0
   36.0797   -1.8789   -4.6657 C   0  0  0  0  0  0  0  0  0  0  0  0
   36.0945   -1.4223   -3.3659 C   0  0  0  0  0  0  0  0  0  0  0  0
   37.4919   -0.9471   -7.0600 O   0  0  0  0  0  0  0  0  0  0  0  0
  2  1  1  0
  3  2  1  0
  4  3  1  0
  4  5  1  0
  5  1  1  0
  5  6  1  1
  6  7  2  0
  8  9  1  0
  9 11  1  0
 10  9  2  0
 12 11  1  6
 13  6  1  0
 13 12  1  0
 14 12  1  0
 14 15  2  0
 16 17  1  0
 17 18  2  0
 18 19  1  0
 20 19  2  0
 20 21  1  0
 22 21  1  1
 22 23  1  0
 22 24  1  0
 23 14  1  0
 24 25  1  0
 26 20  1  0
 27 17  1  0
 27 26  2  0
 28 24  2  0
M  END
$$$$
