PNY.pdb
     RDKit          3D

 28 29  0  0  1  0  0  0  0  0999 V2000
   21.9361  -21.0928  -13.2131 N   0  0  0  0  0  0  0  0  0  0  0  0
   23.0508  -20.5562  -13.9553 C   0  0  0  0  0  0  0  0  0  0  0  0
   22.3749  -19.8271  -15.0947 C   0  0  0  0  0  0  0  0  0  0  0  0
   21.1078  -19.3001  -14.4452 C   0  0  0  0  0  0  0  0  0  0  0  0
   21.0620  -19.9584  -13.0728 C   0  0  1  0  0  0  0  0  0  0  0  0
   19.6477  -20.4726  -12.8205 C   0  0  0  0  0  0  0  0  0  0  0  0
   18.7339  -19.6699  -12.5921 O   0  0  0  0  0  0  0  0  0  0  0  0
   16.2605  -25.4616  -13.7161 N   0  0  0  0  0  0  0  0  0  0  0  0
   16.3760  -24.0723  -13.4628 C   0  0  0  0  0  0  0  0  0  0  0  0
   15.3136  -23.5114  -13.0558 O   0  0  0  0  0  0  0  0  0  0  0  0
   17.6627  -23.4560  -13.6886 C   0  0  0  0  0  0  0  0  0  0  0  0
   18.2543  -22.5967  -12.6148 C   0  0  2  0  0  0  0  0  0  0  0  0
   19.4012  -21.8441  -12.8513 N   0  0  0  0  0  0  0  0  0  0  0  0
   18.1455  -23.3148  -11.3410 C   0  0  0  0  0  0  0  0  0  0  0  0
   19.2200  -23.6796  -10.7266 O   0  0  0  0  0  0  0  0  0  0  0  0
   16.3193  -24.6085   -2.9996 O   0  0  0  0  0  0  0  0  0  0  0  0
   16.6204  -24.2594   -4.3275 C   0  0  0  0  0  0  0  0  0  0  0  0
   17.7621  -24.7201   -4.9416 C   0  0  0  0  0  0  0  0  0  0  0  0
   18.0684  -24.3834   -6.2466 C   0  0  0  0  0  0  0  0  0  0  0  0
   17.1948  -23.5602   -6.9425 C   0  0  0  0  0  0  0  0  0  0  0  0
   17.4572  -23.1605   -8.3396 C   0  0  0  0  0  0  0  0  0  0  0  0
   16.9310  -24.1966   -9.2886 C   0  0  2  0  0  0  0  0  0  0  0  0
   16.9495  -23.6706  -10.6720 N   0  0  0  0  0  0  0  0  0  0  0  0
   15.6069  -24.7363   -8.9591 C   0  0  0  0  0  0  0  0  0  0  0  0
   15.5137  -25.9352   -8.2570 O   0  0  0  0  0  0  0  0  0  0  0  0
   16.0269  -23.0699   -6.3606 C   0  0  0  0  0  0  0  0  0  0  0  0
   15.7853  -23.4463   -5.0574 C   0  0  0  0  0  0  0  0  0  0  0  0
   14.5286  -24.1856   -9.2692 O   0  0  0  0  0  0  0  0  0  0  0  0
  2  1  1  0
  3  2  1  0
  4  3  1  0
  4  5  1  0
  5  1  1  0
  5  6  1  6
  6  7  2  0
  8  9  1  0
  9 11  1  0
 10  9  2  0
 12 11  1  6
 13  6  1  0
 13 12  1  0
 14 12  1  0
 14 15  2  0
 16 17  1  0
 17 18  2  0
 18 19  1  0
 20 19  2  0
 20 21  1  0
 22 21  1  1
 22 23  1  0
 22 24  1  0
 23 14  1  0
 24 25  1  0
 26 20  1  0
 27 17  1  0
 27 26  2  0
 28 24  2  0
M  END
$$$$
