PNY.pdb
     RDKit          3D

 28 29  0  0  1  0  0  0  0  0999 V2000
   21.9338  -14.5718  -19.9564 N   0  0  0  0  0  0  0  0  0  0  0  0
   21.7330  -15.8299  -20.6335 C   0  0  0  0  0  0  0  0  0  0  0  0
   21.4709  -16.7866  -19.4922 C   0  0  0  0  0  0  0  0  0  0  0  0
   20.7174  -15.9194  -18.4996 C   0  0  0  0  0  0  0  0  0  0  0  0
   20.8142  -14.5048  -19.0550 C   0  0  1  0  0  0  0  0  0  0  0  0
   21.1721  -13.5528  -17.9175 C   0  0  0  0  0  0  0  0  0  0  0  0
   20.3403  -13.3120  -17.0334 O   0  0  0  0  0  0  0  0  0  0  0  0
   24.1015  -10.4671  -14.9407 N   0  0  0  0  0  0  0  0  0  0  0  0
   25.0174  -11.2674  -15.6676 C   0  0  0  0  0  0  0  0  0  0  0  0
   26.2260  -11.1721  -15.2946 O   0  0  0  0  0  0  0  0  0  0  0  0
   24.4895  -12.0895  -16.7314 C   0  0  0  0  0  0  0  0  0  0  0  0
   23.0217  -12.0447  -17.0231 C   0  0  2  0  0  0  0  0  0  0  0  0
   22.4355  -12.9650  -17.8874 N   0  0  0  0  0  0  0  0  0  0  0  0
   22.6178  -10.6390  -17.1276 C   0  0  0  0  0  0  0  0  0  0  0  0
   22.9779   -9.9523  -18.1591 O   0  0  0  0  0  0  0  0  0  0  0  0
   18.2922   -3.2850  -18.0745 O   0  0  0  0  0  0  0  0  0  0  0  0
   18.7184   -4.6087  -17.8701 C   0  0  0  0  0  0  0  0  0  0  0  0
   18.0800   -5.6629  -18.4816 C   0  0  0  0  0  0  0  0  0  0  0  0
   18.4902   -6.9685  -18.2880 C   0  0  0  0  0  0  0  0  0  0  0  0
   19.5733   -7.2074  -17.4542 C   0  0  0  0  0  0  0  0  0  0  0  0
   20.0670   -8.5760  -17.2021 C   0  0  0  0  0  0  0  0  0  0  0  0
   21.3631   -8.5347  -16.4473 C   0  0  2  0  0  0  0  0  0  0  0  0
   21.8432   -9.9114  -16.1921 N   0  0  0  0  0  0  0  0  0  0  0  0
   21.3417   -7.7565  -15.2036 C   0  0  0  0  0  0  0  0  0  0  0  0
   21.0419   -6.3976  -15.2536 O   0  0  0  0  0  0  0  0  0  0  0  0
   20.2499   -6.1706  -16.8138 C   0  0  0  0  0  0  0  0  0  0  0  0
   19.7867   -4.8952  -17.0527 C   0  0  0  0  0  0  0  0  0  0  0  0
   21.5780   -8.2348  -14.0733 O   0  0  0  0  0  0  0  0  0  0  0  0
  2  1  1  0
  3  2  1  0
  4  3  1  0
  4  5  1  0
  5  1  1  0
  5  6  1  1
  6  7  2  0
  8  9  1  0
  9 11  1  0
 10  9  2  0
 12 11  1  6
 13  6  1  0
 13 12  1  0
 14 12  1  0
 14 15  2  0
 16 17  1  0
 17 18  2  0
 18 19  1  0
 20 19  2  0
 20 21  1  0
 22 21  1  1
 22 23  1  0
 22 24  1  0
 23 14  1  0
 24 25  1  0
 26 20  1  0
 27 17  1  0
 27 26  2  0
 28 24  2  0
M  END
$$$$
