PNY.pdb
     RDKit          3D

 28 29  0  0  1  0  0  0  0  0999 V2000
   28.0227  -18.5581  -18.6908 N   0  0  0  0  0  0  0  0  0  0  0  0
   29.2529  -18.0171  -19.2156 C   0  0  0  0  0  0  0  0  0  0  0  0
   29.0398  -16.5247  -19.0984 C   0  0  0  0  0  0  0  0  0  0  0  0
   28.2204  -16.4062  -17.8257 C   0  0  0  0  0  0  0  0  0  0  0  0
   27.8496  -17.8367  -17.4579 C   0  0  1  0  0  0  0  0  0  0  0  0
   26.3716  -17.8806  -17.0813 C   0  0  0  0  0  0  0  0  0  0  0  0
   25.9631  -17.2193  -16.1184 O   0  0  0  0  0  0  0  0  0  0  0  0
   23.7462  -17.1204  -19.7819 N   0  0  0  0  0  0  0  0  0  0  0  0
   23.1703  -18.4043  -19.9482 C   0  0  0  0  0  0  0  0  0  0  0  0
   22.5879  -18.5907  -21.0595 O   0  0  0  0  0  0  0  0  0  0  0  0
   23.3056  -19.3441  -18.8597 C   0  0  0  0  0  0  0  0  0  0  0  0
   24.1467  -18.9708  -17.6788 C   0  0  2  0  0  0  0  0  0  0  0  0
   25.4967  -18.6667  -17.8293 N   0  0  0  0  0  0  0  0  0  0  0  0
   23.7466  -19.8124  -16.5466 C   0  0  0  0  0  0  0  0  0  0  0  0
   24.6051  -20.6235  -16.0268 O   0  0  0  0  0  0  0  0  0  0  0  0
   22.2447  -21.0176   -8.2459 O   0  0  0  0  0  0  0  0  0  0  0  0
   22.4997  -20.6644   -9.5823 C   0  0  0  0  0  0  0  0  0  0  0  0
   23.5421  -21.2296  -10.2800 C   0  0  0  0  0  0  0  0  0  0  0  0
   23.8023  -20.8899  -11.5942 C   0  0  0  0  0  0  0  0  0  0  0  0
   22.9847  -19.9548  -12.2126 C   0  0  0  0  0  0  0  0  0  0  0  0
   23.2028  -19.5448  -13.6143 C   0  0  0  0  0  0  0  0  0  0  0  0
   22.2757  -20.2905  -14.5285 C   0  0  2  0  0  0  0  0  0  0  0  0
   22.4749  -19.8425  -15.9251 N   0  0  0  0  0  0  0  0  0  0  0  0
   20.8551  -20.2339  -14.1658 C   0  0  0  0  0  0  0  0  0  0  0  0
   20.0224  -19.3208  -14.8076 O   0  0  0  0  0  0  0  0  0  0  0  0
   21.9177  -19.3562  -11.5446 C   0  0  0  0  0  0  0  0  0  0  0  0
   21.7171  -19.7425  -10.2374 C   0  0  0  0  0  0  0  0  0  0  0  0
   20.3226  -20.9634  -13.3017 O   0  0  0  0  0  0  0  0  0  0  0  0
  2  1  1  0
  3  2  1  0
  4  3  1  0
  4  5  1  0
  5  1  1  0
  5  6  1  6
  6  7  2  0
  8  9  1  0
  9 11  1  0
 10  9  2  0
 12 11  1  6
 13  6  1  0
 13 12  1  0
 14 12  1  0
 14 15  2  0
 16 17  1  0
 17 18  2  0
 18 19  1  0
 20 19  2  0
 20 21  1  0
 22 21  1  1
 22 23  1  0
 22 24  1  0
 23 14  1  0
 24 25  1  0
 26 20  1  0
 27 17  1  0
 27 26  2  0
 28 24  2  0
M  END
$$$$
