PNY.pdb
     RDKit          3D

 28 29  0  0  1  0  0  0  0  0999 V2000
   19.3712  -11.6660  -17.9294 N   0  0  0  0  0  0  0  0  0  0  0  0
   18.9672  -12.9928  -18.3267 C   0  0  0  0  0  0  0  0  0  0  0  0
   17.7232  -12.7331  -19.1461 C   0  0  0  0  0  0  0  0  0  0  0  0
   18.0429  -11.4128  -19.8240 C   0  0  0  0  0  0  0  0  0  0  0  0
   19.3274  -10.9288  -19.1644 C   0  0  1  0  0  0  0  0  0  0  0  0
   19.1818   -9.4468  -18.8320 C   0  0  0  0  0  0  0  0  0  0  0  0
   19.2376   -8.6057  -19.7380 O   0  0  0  0  0  0  0  0  0  0  0  0
   16.4314   -5.4639  -15.7598 N   0  0  0  0  0  0  0  0  0  0  0  0
   17.5634   -6.2296  -15.3859 C   0  0  0  0  0  0  0  0  0  0  0  0
   18.3478   -5.6619  -14.5665 O   0  0  0  0  0  0  0  0  0  0  0  0
   17.7005   -7.5465  -15.9633 C   0  0  0  0  0  0  0  0  0  0  0  0
   18.8294   -7.8097  -16.9107 C   0  0  2  0  0  0  0  0  0  0  0  0
   18.9862   -9.0571  -17.5081 N   0  0  0  0  0  0  0  0  0  0  0  0
   20.0239   -7.1289  -16.4010 C   0  0  0  0  0  0  0  0  0  0  0  0
   20.9623   -7.8240  -15.8519 O   0  0  0  0  0  0  0  0  0  0  0  0
   27.3102   -2.5358  -17.0633 O   0  0  0  0  0  0  0  0  0  0  0  0
   26.1533   -3.3338  -17.0507 C   0  0  0  0  0  0  0  0  0  0  0  0
   25.8742   -4.1638  -15.9896 C   0  0  0  0  0  0  0  0  0  0  0  0
   24.7398   -4.9529  -15.9664 C   0  0  0  0  0  0  0  0  0  0  0  0
   23.8699   -4.8970  -17.0460 C   0  0  0  0  0  0  0  0  0  0  0  0
   22.6386   -5.7110  -17.0889 C   0  0  0  0  0  0  0  0  0  0  0  0
   21.6148   -5.1628  -16.1389 C   0  0  2  0  0  0  0  0  0  0  0  0
   20.2851   -5.7380  -16.4421 N   0  0  0  0  0  0  0  0  0  0  0  0
   21.5407   -3.6991  -16.0705 C   0  0  0  0  0  0  0  0  0  0  0  0
   22.3934   -3.0118  -15.2104 O   0  0  0  0  0  0  0  0  0  0  0  0
   24.1123   -4.0712  -18.1424 C   0  0  0  0  0  0  0  0  0  0  0  0
   25.2616   -3.3127  -18.0977 C   0  0  0  0  0  0  0  0  0  0  0  0
   20.7494   -3.0049  -16.7444 O   0  0  0  0  0  0  0  0  0  0  0  0
  2  1  1  0
  3  2  1  0
  4  3  1  0
  4  5  1  0
  5  1  1  0
  5  6  1  1
  6  7  2  0
  8  9  1  0
  9 11  1  0
 10  9  2  0
 12 11  1  1
 13  6  1  0
 13 12  1  0
 14 12  1  0
 14 15  2  0
 16 17  1  0
 17 18  2  0
 18 19  1  0
 20 19  2  0
 20 21  1  0
 22 21  1  6
 22 23  1  0
 22 24  1  0
 23 14  1  0
 24 25  1  0
 26 20  1  0
 27 17  1  0
 27 26  2  0
 28 24  2  0
M  END
$$$$
