QFH.pdb
     RDKit          3D

 31 32  0  0  1  0  0  0  0  0999 V2000
   26.4132  -22.6338  -19.9203 N   0  0  0  0  0  0  0  0  0  0  0  0
   27.4112  -21.6789  -20.1612 C   0  0  0  0  0  0  0  0  0  0  0  0
   27.9811  -21.6240  -21.2784 O   0  0  0  0  0  0  0  0  0  0  0  0
   27.8110  -20.7182  -19.1028 C   0  0  0  0  0  0  0  0  0  0  0  0
   26.9841  -20.8995  -17.8469 C   0  0  0  0  0  0  0  0  0  0  0  0
   27.9189  -21.3569  -16.7564 C   0  0  2  0  0  0  0  0  0  0  0  0
   28.6088  -22.5458  -17.1317 N   0  0  0  0  0  0  0  0  0  0  0  0
   27.2655  -21.5264  -15.4554 C   0  0  0  0  0  0  0  0  0  0  0  0
   26.4095  -22.4373  -15.3331 O   0  0  0  0  0  0  0  0  0  0  0  0
   27.5391  -20.7236  -14.3191 N   0  0  0  0  0  0  0  0  0  0  0  0
   26.9092  -20.8084  -13.0508 C   0  0  1  0  0  0  0  0  0  0  0  0
   27.6708  -20.1731  -11.9031 C   0  0  0  0  0  0  0  0  0  0  0  0
   26.9843  -20.2303  -10.6147 C   0  0  0  0  0  0  0  0  0  0  0  0
   27.3298  -21.1275   -9.6448 C   0  0  0  0  0  0  0  0  0  0  0  0
   26.6634  -21.1809   -8.4138 C   0  0  0  0  0  0  0  0  0  0  0  0
   25.6284  -20.3185   -8.1452 C   0  0  0  0  0  0  0  0  0  0  0  0
   25.2615  -19.3976   -9.1191 C   0  0  0  0  0  0  0  0  0  0  0  0
   25.9291  -19.3654  -10.3156 C   0  0  0  0  0  0  0  0  0  0  0  0
   25.5293  -20.2841  -13.0300 C   0  0  0  0  0  0  0  0  0  0  0  0
   25.2730  -19.1206  -13.4971 O   0  0  0  0  0  0  0  0  0  0  0  0
   24.4063  -20.9785  -12.5185 N   0  0  0  0  0  0  0  0  0  0  0  0
   23.0420  -20.5155  -12.6718 C   0  0  1  0  0  0  0  0  0  0  0  0
   22.3351  -21.2325  -13.8010 C   0  0  0  0  0  0  0  0  0  0  0  0
   20.9086  -20.7639  -13.9131 C   0  0  0  0  0  0  0  0  0  0  0  0
   20.4812  -19.4840  -14.1324 C   0  0  0  0  0  0  0  0  0  0  0  0
   19.1417  -19.5040  -14.1627 N   0  0  0  0  0  0  0  0  0  0  0  0
   18.7020  -20.7747  -13.9666 C   0  0  0  0  0  0  0  0  0  0  0  0
   19.8001  -21.5287  -13.8162 N   0  0  0  0  0  0  0  0  0  0  0  0
   22.3083  -20.8294  -11.4243 C   0  0  0  0  0  0  0  0  0  0  0  0
   21.0296  -20.3448  -11.2090 O   0  0  0  0  0  0  0  0  0  0  0  0
   22.8311  -21.5436  -10.5327 O   0  0  0  0  0  0  0  0  0  0  0  0
  2  1  1  0
  3  2  2  0
  4  2  1  0
  5  4  1  0
  5  6  1  0
  6  7  1  6
  8  9  2  0
  8  6  1  0
 10  8  1  0
 11 10  1  0
 11 12  1  1
 13 12  1  0
 13 18  1  0
 14 13  2  0
 15 14  1  0
 15 16  2  0
 16 17  1  0
 17 18  2  0
 19 11  1  0
 20 19  2  0
 21 19  1  0
 22 21  1  0
 23 24  1  0
 22 23  1  6
 24 28  1  0
 25 24  2  0
 25 26  1  0
 26 27  1  0
 28 27  2  0
 29 22  1  0
 29 30  1  0
 31 29  2  0
M  END
$$$$
