QFH.pdb
     RDKit          3D

 31 32  0  0  1  0  0  0  0  0999 V2000
   28.9506  -17.7979  -17.0871 N   0  0  0  0  0  0  0  0  0  0  0  0
   28.9122  -18.0939  -18.4571 C   0  0  0  0  0  0  0  0  0  0  0  0
   29.7691  -17.6086  -19.2358 O   0  0  0  0  0  0  0  0  0  0  0  0
   27.8609  -18.9837  -19.0103 C   0  0  0  0  0  0  0  0  0  0  0  0
   26.9519  -19.5134  -17.9208 C   0  0  0  0  0  0  0  0  0  0  0  0
   27.6941  -20.6197  -17.2156 C   0  0  2  0  0  0  0  0  0  0  0  0
   27.9986  -21.6884  -18.1076 N   0  0  0  0  0  0  0  0  0  0  0  0
   27.0061  -21.1213  -16.0227 C   0  0  0  0  0  0  0  0  0  0  0  0
   26.1436  -22.0228  -16.1675 O   0  0  0  0  0  0  0  0  0  0  0  0
   27.2528  -20.6518  -14.7077 N   0  0  0  0  0  0  0  0  0  0  0  0
   26.4505  -20.8843  -13.5610 C   0  0  1  0  0  0  0  0  0  0  0  0
   27.0528  -20.4328  -12.2441 C   0  0  0  0  0  0  0  0  0  0  0  0
   26.1705  -20.5865  -11.0897 C   0  0  0  0  0  0  0  0  0  0  0  0
   25.5893  -19.5173  -10.4700 C   0  0  0  0  0  0  0  0  0  0  0  0
   24.7489  -19.6714   -9.3599 C   0  0  0  0  0  0  0  0  0  0  0  0
   24.4828  -20.9218   -8.8572 C   0  0  0  0  0  0  0  0  0  0  0  0
   25.0644  -22.0230   -9.4737 C   0  0  0  0  0  0  0  0  0  0  0  0
   25.8831  -21.8460  -10.5585 C   0  0  0  0  0  0  0  0  0  0  0  0
   25.0887  -20.3227  -13.6577 C   0  0  0  0  0  0  0  0  0  0  0  0
   24.9188  -19.0695  -13.8530 O   0  0  0  0  0  0  0  0  0  0  0  0
   23.8931  -21.0738  -13.5505 N   0  0  0  0  0  0  0  0  0  0  0  0
   22.5706  -20.4889  -13.6414 C   0  0  1  0  0  0  0  0  0  0  0  0
   21.7853  -21.0670  -14.7982 C   0  0  0  0  0  0  0  0  0  0  0  0
   20.4422  -20.3959  -14.9124 C   0  0  0  0  0  0  0  0  0  0  0  0
   19.9355  -19.4306  -14.0877 C   0  0  0  0  0  0  0  0  0  0  0  0
   18.7166  -19.1091  -14.5418 N   0  0  0  0  0  0  0  0  0  0  0  0
   18.4322  -19.8516  -15.6438 C   0  0  0  0  0  0  0  0  0  0  0  0
   19.5020  -20.6319  -15.8523 N   0  0  0  0  0  0  0  0  0  0  0  0
   21.8351  -20.8232  -12.4003 C   0  0  0  0  0  0  0  0  0  0  0  0
   20.8064  -20.0175  -11.9432 O   0  0  0  0  0  0  0  0  0  0  0  0
   22.1290  -21.8469  -11.7340 O   0  0  0  0  0  0  0  0  0  0  0  0
  2  1  1  0
  3  2  2  0
  4  2  1  0
  5  4  1  0
  5  6  1  0
  6  7  1  6
  8  9  2  0
  8  6  1  0
 10  8  1  0
 11 10  1  0
 11 12  1  1
 13 12  1  0
 13 18  1  0
 14 13  2  0
 15 14  1  0
 15 16  2  0
 16 17  1  0
 17 18  2  0
 19 11  1  0
 20 19  2  0
 21 19  1  0
 22 21  1  0
 23 24  1  0
 22 23  1  6
 24 28  1  0
 25 24  2  0
 25 26  1  0
 26 27  1  0
 28 27  2  0
 29 22  1  0
 29 30  1  0
 31 29  2  0
M  END
$$$$
