QFH.pdb
     RDKit          3D

 31 32  0  0  1  0  0  0  0  0999 V2000
   15.8903  -12.7423  -19.8169 N   0  0  0  0  0  0  0  0  0  0  0  0
   16.3790  -13.2325  -21.0362 C   0  0  0  0  0  0  0  0  0  0  0  0
   15.5997  -13.7616  -21.8661 O   0  0  0  0  0  0  0  0  0  0  0  0
   17.8226  -13.1352  -21.3671 C   0  0  0  0  0  0  0  0  0  0  0  0
   18.5904  -12.3952  -20.2915 C   0  0  0  0  0  0  0  0  0  0  0  0
   19.8745  -13.1493  -20.0575 C   0  0  2  0  0  0  0  0  0  0  0  0
   19.6318  -14.5429  -19.8862 N   0  0  0  0  0  0  0  0  0  0  0  0
   20.6710  -12.6221  -18.9459 C   0  0  0  0  0  0  0  0  0  0  0  0
   20.2674  -12.8270  -17.7743 O   0  0  0  0  0  0  0  0  0  0  0  0
   21.8751  -11.8913  -19.1087 N   0  0  0  0  0  0  0  0  0  0  0  0
   22.6371  -11.2750  -18.0829 C   0  0  1  0  0  0  0  0  0  0  0  0
   24.1417  -11.4071  -18.2223 C   0  0  0  0  0  0  0  0  0  0  0  0
   24.9050  -10.8468  -17.1096 C   0  0  0  0  0  0  0  0  0  0  0  0
   25.1407  -11.5485  -15.9619 C   0  0  0  0  0  0  0  0  0  0  0  0
   25.8684  -11.0031  -14.8964 C   0  0  0  0  0  0  0  0  0  0  0  0
   26.3725   -9.7278  -14.9790 C   0  0  0  0  0  0  0  0  0  0  0  0
   26.1438   -8.9972  -16.1387 C   0  0  0  0  0  0  0  0  0  0  0  0
   25.4287   -9.5532  -17.1672 C   0  0  0  0  0  0  0  0  0  0  0  0
   22.3203   -9.8481  -17.8752 C   0  0  0  0  0  0  0  0  0  0  0  0
   22.3221   -9.0352  -18.8636 O   0  0  0  0  0  0  0  0  0  0  0  0
   21.9983   -9.2630  -16.6266 N   0  0  0  0  0  0  0  0  0  0  0  0
   21.6929   -7.8569  -16.4576 C   0  0  1  0  0  0  0  0  0  0  0  0
   20.6732   -7.6371  -15.3618 C   0  0  0  0  0  0  0  0  0  0  0  0
   20.3498   -6.1727  -15.2272 C   0  0  0  0  0  0  0  0  0  0  0  0
   21.1932   -5.1825  -14.8065 C   0  0  0  0  0  0  0  0  0  0  0  0
   20.5100   -4.0301  -14.8337 N   0  0  0  0  0  0  0  0  0  0  0  0
   19.2426   -4.2637  -15.2646 C   0  0  0  0  0  0  0  0  0  0  0  0
   19.1670   -5.5813  -15.4995 N   0  0  0  0  0  0  0  0  0  0  0  0
   22.9356   -7.1639  -16.0468 C   0  0  0  0  0  0  0  0  0  0  0  0
   23.0500   -5.7880  -16.1466 O   0  0  0  0  0  0  0  0  0  0  0  0
   23.9147   -7.8106  -15.5981 O   0  0  0  0  0  0  0  0  0  0  0  0
  2  1  1  0
  3  2  2  0
  4  2  1  0
  5  4  1  0
  5  6  1  0
  6  7  1  1
  8  9  2  0
  8  6  1  0
 10  8  1  0
 11 10  1  0
 11 12  1  6
 13 12  1  0
 13 18  1  0
 14 13  2  0
 15 14  1  0
 15 16  2  0
 16 17  1  0
 17 18  2  0
 19 11  1  0
 20 19  2  0
 21 19  1  0
 22 21  1  0
 23 24  1  0
 22 23  1  1
 24 28  1  0
 25 24  2  0
 25 26  1  0
 26 27  1  0
 28 27  2  0
 29 22  1  0
 29 30  1  0
 31 29  2  0
M  END
$$$$
