QFH.pdb
     RDKit          3D

 31 32  0  0  1  0  0  0  0  0999 V2000
   23.8880  -23.2725  -15.7088 N   0  0  0  0  0  0  0  0  0  0  0  0
   24.3479  -24.0660  -14.6482 C   0  0  0  0  0  0  0  0  0  0  0  0
   24.8797  -25.1806  -14.8732 O   0  0  0  0  0  0  0  0  0  0  0  0
   24.2147  -23.6038  -13.2440 C   0  0  0  0  0  0  0  0  0  0  0  0
   23.6303  -22.2084  -13.1715 C   0  0  0  0  0  0  0  0  0  0  0  0
   24.7322  -21.2417  -13.5228 C   0  0  2  0  0  0  0  0  0  0  0  0
   25.6771  -21.1272  -12.4623 N   0  0  0  0  0  0  0  0  0  0  0  0
   24.2467  -19.9196  -13.9284 C   0  0  0  0  0  0  0  0  0  0  0  0
   24.1432  -19.0279  -13.0500 O   0  0  0  0  0  0  0  0  0  0  0  0
   23.8840  -19.5803  -15.2565 N   0  0  0  0  0  0  0  0  0  0  0  0
   23.5083  -18.2969  -15.7301 C   0  0  1  0  0  0  0  0  0  0  0  0
   24.4216  -17.7000  -16.7838 C   0  0  0  0  0  0  0  0  0  0  0  0
   25.7895  -17.4557  -16.3324 C   0  0  0  0  0  0  0  0  0  0  0  0
   26.8157  -18.3082  -16.6243 C   0  0  0  0  0  0  0  0  0  0  0  0
   28.1239  -18.0710  -16.1832 C   0  0  0  0  0  0  0  0  0  0  0  0
   28.4140  -16.9569  -15.4337 C   0  0  0  0  0  0  0  0  0  0  0  0
   27.3837  -16.0768  -15.1260 C   0  0  0  0  0  0  0  0  0  0  0  0
   26.1120  -16.3312  -15.5692 C   0  0  0  0  0  0  0  0  0  0  0  0
   22.1219  -18.2250  -16.2324 C   0  0  0  0  0  0  0  0  0  0  0  0
   21.6496  -19.1637  -16.9627 O   0  0  0  0  0  0  0  0  0  0  0  0
   21.2193  -17.1658  -15.9708 N   0  0  0  0  0  0  0  0  0  0  0  0
   19.8795  -17.1034  -16.5187 C   0  0  1  0  0  0  0  0  0  0  0  0
   18.9334  -16.3714  -15.5924 C   0  0  0  0  0  0  0  0  0  0  0  0
   18.5564  -17.2444  -14.4250 C   0  0  0  0  0  0  0  0  0  0  0  0
   18.9270  -18.5442  -14.2202 C   0  0  0  0  0  0  0  0  0  0  0  0
   18.3777  -18.9448  -13.0655 N   0  0  0  0  0  0  0  0  0  0  0  0
   17.6609  -17.9243  -12.5257 C   0  0  0  0  0  0  0  0  0  0  0  0
   17.7842  -16.8940  -13.3743 N   0  0  0  0  0  0  0  0  0  0  0  0
   19.9368  -16.3362  -17.7842 C   0  0  0  0  0  0  0  0  0  0  0  0
   20.8373  -15.2976  -17.9471 O   0  0  0  0  0  0  0  0  0  0  0  0
   19.1682  -16.6117  -18.7389 O   0  0  0  0  0  0  0  0  0  0  0  0
  2  1  1  0
  3  2  2  0
  4  2  1  0
  5  4  1  0
  5  6  1  0
  6  7  1  1
  8  9  2  0
  8  6  1  0
 10  8  1  0
 11 10  1  0
 11 12  1  6
 13 12  1  0
 13 18  1  0
 14 13  2  0
 15 14  1  0
 15 16  2  0
 16 17  1  0
 17 18  2  0
 19 11  1  0
 20 19  2  0
 21 19  1  0
 22 21  1  0
 23 24  1  0
 22 23  1  1
 24 28  1  0
 25 24  2  0
 25 26  1  0
 26 27  1  0
 28 27  2  0
 29 22  1  0
 29 30  1  0
 31 29  2  0
M  END
$$$$
