QFH.pdb
     RDKit          3D

 31 32  0  0  1  0  0  0  0  0999 V2000
   26.2041  -22.6136  -19.6754 N   0  0  0  0  0  0  0  0  0  0  0  0
   27.4680  -22.0918  -19.9855 C   0  0  0  0  0  0  0  0  0  0  0  0
   28.0013  -22.3369  -21.0953 O   0  0  0  0  0  0  0  0  0  0  0  0
   28.1965  -21.2426  -19.0103 C   0  0  0  0  0  0  0  0  0  0  0  0
   27.3576  -20.9647  -17.7803 C   0  0  0  0  0  0  0  0  0  0  0  0
   28.1350  -21.4569  -16.5863 C   0  0  2  0  0  0  0  0  0  0  0  0
   28.8705  -22.6367  -16.8988 N   0  0  0  0  0  0  0  0  0  0  0  0
   27.3102  -21.6623  -15.3923 C   0  0  0  0  0  0  0  0  0  0  0  0
   26.9450  -22.8315  -15.1146 O   0  0  0  0  0  0  0  0  0  0  0  0
   26.8954  -20.6199  -14.5252 N   0  0  0  0  0  0  0  0  0  0  0  0
   26.1677  -20.7635  -13.3159 C   0  0  1  0  0  0  0  0  0  0  0  0
   26.6160  -19.8671  -12.1773 C   0  0  0  0  0  0  0  0  0  0  0  0
   27.6024  -20.4698  -11.2837 C   0  0  0  0  0  0  0  0  0  0  0  0
   27.3220  -20.7590   -9.9788 C   0  0  0  0  0  0  0  0  0  0  0  0
   28.2744  -21.3314   -9.1258 C   0  0  0  0  0  0  0  0  0  0  0  0
   29.5355  -21.6220   -9.5866 C   0  0  0  0  0  0  0  0  0  0  0  0
   29.8407  -21.3355  -10.9117 C   0  0  0  0  0  0  0  0  0  0  0  0
   28.8914  -20.7753  -11.7262 C   0  0  0  0  0  0  0  0  0  0  0  0
   24.7079  -20.6090  -13.4722 C   0  0  0  0  0  0  0  0  0  0  0  0
   24.2288  -19.6131  -14.1175 O   0  0  0  0  0  0  0  0  0  0  0  0
   23.7384  -21.5005  -12.9521 N   0  0  0  0  0  0  0  0  0  0  0  0
   22.3120  -21.3280  -13.1384 C   0  0  1  0  0  0  0  0  0  0  0  0
   21.5828  -22.6532  -13.1065 C   0  0  0  0  0  0  0  0  0  0  0  0
   20.1110  -22.4522  -13.3526 C   0  0  0  0  0  0  0  0  0  0  0  0
   19.3770  -21.3354  -13.0652 C   0  0  0  0  0  0  0  0  0  0  0  0
   18.1134  -21.5733  -13.4422 N   0  0  0  0  0  0  0  0  0  0  0  0
   18.0237  -22.8237  -13.9666 C   0  0  0  0  0  0  0  0  0  0  0  0
   19.2578  -23.3431  -13.9018 N   0  0  0  0  0  0  0  0  0  0  0  0
   21.7973  -20.5159  -12.0121 C   0  0  0  0  0  0  0  0  0  0  0  0
   20.6426  -19.7642  -12.1454 O   0  0  0  0  0  0  0  0  0  0  0  0
   22.3983  -20.4915  -10.9091 O   0  0  0  0  0  0  0  0  0  0  0  0
  2  1  1  0
  3  2  2  0
  4  2  1  0
  5  4  1  0
  5  6  1  0
  6  7  1  6
  8  9  2  0
  8  6  1  0
 10  8  1  0
 11 10  1  0
 11 12  1  1
 13 12  1  0
 13 18  1  0
 14 13  2  0
 15 14  1  0
 15 16  2  0
 16 17  1  0
 17 18  2  0
 19 11  1  0
 20 19  2  0
 21 19  1  0
 22 21  1  0
 23 24  1  0
 22 23  1  1
 24 28  1  0
 25 24  2  0
 25 26  1  0
 26 27  1  0
 28 27  2  0
 29 22  1  0
 29 30  1  0
 31 29  2  0
M  END
$$$$
