QFH.pdb
     RDKit          3D

 31 32  0  0  1  0  0  0  0  0999 V2000
   30.4885  -22.9410  -18.3520 N   0  0  0  0  0  0  0  0  0  0  0  0
   29.5341  -22.5055  -19.2823 C   0  0  0  0  0  0  0  0  0  0  0  0
   29.8613  -22.2929  -20.4754 O   0  0  0  0  0  0  0  0  0  0  0  0
   28.1235  -22.2887  -18.8746 C   0  0  0  0  0  0  0  0  0  0  0  0
   27.9213  -22.5730  -17.4007 C   0  0  0  0  0  0  0  0  0  0  0  0
   27.1477  -21.4157  -16.8225 C   0  0  2  0  0  0  0  0  0  0  0  0
   27.8009  -20.1761  -17.0818 N   0  0  0  0  0  0  0  0  0  0  0  0
   26.8575  -21.5588  -15.3930 C   0  0  0  0  0  0  0  0  0  0  0  0
   26.3040  -22.6157  -15.0006 O   0  0  0  0  0  0  0  0  0  0  0  0
   27.1630  -20.5750  -14.4187 N   0  0  0  0  0  0  0  0  0  0  0  0
   26.8573  -20.6305  -13.0344 C   0  0  1  0  0  0  0  0  0  0  0  0
   27.7713  -19.8212  -12.1341 C   0  0  0  0  0  0  0  0  0  0  0  0
   27.5054  -19.9740  -10.7056 C   0  0  0  0  0  0  0  0  0  0  0  0
   27.8411  -21.1062  -10.0196 C   0  0  0  0  0  0  0  0  0  0  0  0
   27.5779  -21.2485   -8.6511 C   0  0  0  0  0  0  0  0  0  0  0  0
   26.9658  -20.2369   -7.9516 C   0  0  0  0  0  0  0  0  0  0  0  0
   26.6164  -19.0764   -8.6315 C   0  0  0  0  0  0  0  0  0  0  0  0
   26.8845  -18.9616   -9.9706 C   0  0  0  0  0  0  0  0  0  0  0  0
   25.4623  -20.2700  -12.7131 C   0  0  0  0  0  0  0  0  0  0  0  0
   24.9750  -19.1553  -13.1102 O   0  0  0  0  0  0  0  0  0  0  0  0
   24.5666  -21.0785  -11.9720 N   0  0  0  0  0  0  0  0  0  0  0  0
   23.2079  -20.6857  -11.6580 C   0  0  1  0  0  0  0  0  0  0  0  0
   22.1997  -21.6360  -12.2657 C   0  0  0  0  0  0  0  0  0  0  0  0
   21.9572  -21.2946  -13.7120 C   0  0  0  0  0  0  0  0  0  0  0  0
   22.4905  -20.2451  -14.4070 C   0  0  0  0  0  0  0  0  0  0  0  0
   22.0181  -20.3070  -15.6594 N   0  0  0  0  0  0  0  0  0  0  0  0
   21.1908  -21.3782  -15.7802 C   0  0  0  0  0  0  0  0  0  0  0  0
   21.1684  -21.9679  -14.5766 N   0  0  0  0  0  0  0  0  0  0  0  0
   23.0405  -20.7487  -10.1879 C   0  0  0  0  0  0  0  0  0  0  0  0
   22.3532  -19.7591   -9.5064 O   0  0  0  0  0  0  0  0  0  0  0  0
   23.5193  -21.7032   -9.5261 O   0  0  0  0  0  0  0  0  0  0  0  0
  2  1  1  0
  3  2  2  0
  4  2  1  0
  5  4  1  0
  5  6  1  0
  6  7  1  1
  8  9  2  0
  8  6  1  0
 10  8  1  0
 11 10  1  0
 11 12  1  1
 13 12  1  0
 13 18  1  0
 14 13  2  0
 15 14  1  0
 15 16  2  0
 16 17  1  0
 17 18  2  0
 19 11  1  0
 20 19  2  0
 21 19  1  0
 22 21  1  0
 23 24  1  0
 22 23  1  6
 24 28  1  0
 25 24  2  0
 25 26  1  0
 26 27  1  0
 28 27  2  0
 29 22  1  0
 29 30  1  0
 31 29  2  0
M  END
$$$$
