QFH.pdb
     RDKit          3D

 31 32  0  0  1  0  0  0  0  0999 V2000
   18.0664  -20.4757  -11.3196 N   0  0  0  0  0  0  0  0  0  0  0  0
   17.7803  -20.0361  -12.6200 C   0  0  0  0  0  0  0  0  0  0  0  0
   16.6476  -20.2359  -13.1230 O   0  0  0  0  0  0  0  0  0  0  0  0
   18.8084  -19.3286  -13.4232 C   0  0  0  0  0  0  0  0  0  0  0  0
   20.1102  -19.1902  -12.6615 C   0  0  0  0  0  0  0  0  0  0  0  0
   21.0043  -20.3252  -13.0912 C   0  0  2  0  0  0  0  0  0  0  0  0
   20.7353  -21.5073  -12.3423 N   0  0  0  0  0  0  0  0  0  0  0  0
   22.4321  -19.9977  -13.0461 C   0  0  0  0  0  0  0  0  0  0  0  0
   22.7648  -18.7870  -13.0156 O   0  0  0  0  0  0  0  0  0  0  0  0
   23.4685  -20.9653  -13.0348 N   0  0  0  0  0  0  0  0  0  0  0  0
   24.8622  -20.7126  -12.9549 C   0  0  1  0  0  0  0  0  0  0  0  0
   25.6964  -21.8445  -12.3859 C   0  0  0  0  0  0  0  0  0  0  0  0
   27.1238  -21.5514  -12.2795 C   0  0  0  0  0  0  0  0  0  0  0  0
   28.0333  -22.0232  -13.1824 C   0  0  0  0  0  0  0  0  0  0  0  0
   29.4013  -21.7432  -13.0711 C   0  0  0  0  0  0  0  0  0  0  0  0
   29.8718  -20.9743  -12.0345 C   0  0  0  0  0  0  0  0  0  0  0  0
   28.9624  -20.4843  -11.1051 C   0  0  0  0  0  0  0  0  0  0  0  0
   27.6288  -20.7724  -11.2360 C   0  0  0  0  0  0  0  0  0  0  0  0
   25.4703  -20.2940  -14.2333 C   0  0  0  0  0  0  0  0  0  0  0  0
   25.2701  -20.9753  -15.2979 O   0  0  0  0  0  0  0  0  0  0  0  0
   26.2939  -19.1549  -14.4043 N   0  0  0  0  0  0  0  0  0  0  0  0
   26.7756  -18.7028  -15.6937 C   0  0  1  0  0  0  0  0  0  0  0  0
   27.2295  -17.2604  -15.6432 C   0  0  0  0  0  0  0  0  0  0  0  0
   26.0541  -16.3313  -15.7930 C   0  0  0  0  0  0  0  0  0  0  0  0
   24.7572  -16.6841  -16.0428 C   0  0  0  0  0  0  0  0  0  0  0  0
   24.0350  -15.5569  -16.1007 N   0  0  0  0  0  0  0  0  0  0  0  0
   24.8462  -14.4867  -15.8924 C   0  0  0  0  0  0  0  0  0  0  0  0
   26.0770  -14.9841  -15.7064 N   0  0  0  0  0  0  0  0  0  0  0  0
   27.9549  -19.5222  -16.0556 C   0  0  0  0  0  0  0  0  0  0  0  0
   28.2199  -19.8449  -17.3754 O   0  0  0  0  0  0  0  0  0  0  0  0
   28.7420  -19.9429  -15.1714 O   0  0  0  0  0  0  0  0  0  0  0  0
  2  1  1  0
  3  2  2  0
  4  2  1  0
  5  4  1  0
  5  6  1  0
  6  7  1  1
  8  9  2  0
  8  6  1  0
 10  8  1  0
 11 10  1  0
 11 12  1  6
 13 12  1  0
 13 18  1  0
 14 13  2  0
 15 14  1  0
 15 16  2  0
 16 17  1  0
 17 18  2  0
 19 11  1  0
 20 19  2  0
 21 19  1  0
 22 21  1  0
 23 24  1  0
 22 23  1  1
 24 28  1  0
 25 24  2  0
 25 26  1  0
 26 27  1  0
 28 27  2  0
 29 22  1  0
 29 30  1  0
 31 29  2  0
M  END
$$$$
