QFH.pdb
     RDKit          3D

 31 32  0  0  1  0  0  0  0  0999 V2000
   28.1696  -17.4616  -17.7128 N   0  0  0  0  0  0  0  0  0  0  0  0
   27.4715  -18.5661  -18.2213 C   0  0  0  0  0  0  0  0  0  0  0  0
   26.8687  -18.4855  -19.3196 O   0  0  0  0  0  0  0  0  0  0  0  0
   27.4324  -19.8471  -17.4727 C   0  0  0  0  0  0  0  0  0  0  0  0
   28.2629  -19.7769  -16.2080 C   0  0  0  0  0  0  0  0  0  0  0  0
   28.2064  -21.1358  -15.5582 C   0  0  2  0  0  0  0  0  0  0  0  0
   28.1970  -22.1751  -16.5329 N   0  0  0  0  0  0  0  0  0  0  0  0
   27.0894  -21.2935  -14.6225 C   0  0  0  0  0  0  0  0  0  0  0  0
   26.2956  -22.2508  -14.7987 O   0  0  0  0  0  0  0  0  0  0  0  0
   26.8455  -20.4300  -13.5247 N   0  0  0  0  0  0  0  0  0  0  0  0
   25.7696  -20.5140  -12.6038 C   0  0  1  0  0  0  0  0  0  0  0  0
   25.9466  -19.7206  -11.3232 C   0  0  0  0  0  0  0  0  0  0  0  0
   26.8564  -20.3280  -10.3547 C   0  0  0  0  0  0  0  0  0  0  0  0
   26.4538  -20.6772   -9.0973 C   0  0  0  0  0  0  0  0  0  0  0  0
   27.3328  -21.2538   -8.1715 C   0  0  0  0  0  0  0  0  0  0  0  0
   28.6438  -21.4873   -8.5092 C   0  0  0  0  0  0  0  0  0  0  0  0
   29.0732  -21.1393   -9.7842 C   0  0  0  0  0  0  0  0  0  0  0  0
   28.1938  -20.5763  -10.6718 C   0  0  0  0  0  0  0  0  0  0  0  0
   24.4569  -20.1637  -13.1813 C   0  0  0  0  0  0  0  0  0  0  0  0
   24.2848  -19.0337  -13.7567 O   0  0  0  0  0  0  0  0  0  0  0  0
   23.3134  -20.9985  -13.1597 N   0  0  0  0  0  0  0  0  0  0  0  0
   22.0315  -20.6132  -13.7143 C   0  0  1  0  0  0  0  0  0  0  0  0
   21.4151  -21.7346  -14.5214 C   0  0  0  0  0  0  0  0  0  0  0  0
   22.1051  -21.8680  -15.8530 C   0  0  0  0  0  0  0  0  0  0  0  0
   23.0879  -21.0591  -16.3516 C   0  0  0  0  0  0  0  0  0  0  0  0
   23.4225  -21.5272  -17.5617 N   0  0  0  0  0  0  0  0  0  0  0  0
   22.6713  -22.6227  -17.8484 C   0  0  0  0  0  0  0  0  0  0  0  0
   21.8723  -22.8129  -16.7890 N   0  0  0  0  0  0  0  0  0  0  0  0
   21.1129  -20.3253  -12.5889 C   0  0  0  0  0  0  0  0  0  0  0  0
   19.8495  -19.8071  -12.8156 O   0  0  0  0  0  0  0  0  0  0  0  0
   21.4607  -20.5455  -11.4020 O   0  0  0  0  0  0  0  0  0  0  0  0
  2  1  1  0
  3  2  2  0
  4  2  1  0
  5  4  1  0
  5  6  1  0
  6  7  1  6
  8  9  2  0
  8  6  1  0
 10  8  1  0
 11 10  1  0
 11 12  1  1
 13 12  1  0
 13 18  1  0
 14 13  2  0
 15 14  1  0
 15 16  2  0
 16 17  1  0
 17 18  2  0
 19 11  1  0
 20 19  2  0
 21 19  1  0
 22 21  1  0
 23 24  1  0
 22 23  1  1
 24 28  1  0
 25 24  2  0
 25 26  1  0
 26 27  1  0
 28 27  2  0
 29 22  1  0
 29 30  1  0
 31 29  2  0
M  END
$$$$
