QFH.pdb
     RDKit          3D

 31 32  0  0  1  0  0  0  0  0999 V2000
   29.4303  -17.0335  -15.6365 N   0  0  0  0  0  0  0  0  0  0  0  0
   28.5793  -17.7598  -16.4816 C   0  0  0  0  0  0  0  0  0  0  0  0
   28.6977  -17.6736  -17.7284 O   0  0  0  0  0  0  0  0  0  0  0  0
   27.5259  -18.6413  -15.9192 C   0  0  0  0  0  0  0  0  0  0  0  0
   27.4887  -18.5673  -14.4069 C   0  0  0  0  0  0  0  0  0  0  0  0
   27.9398  -19.9059  -13.8809 C   0  0  2  0  0  0  0  0  0  0  0  0
   28.5186  -20.6989  -14.9137 N   0  0  0  0  0  0  0  0  0  0  0  0
   26.8852  -20.6500  -13.1864 C   0  0  0  0  0  0  0  0  0  0  0  0
   26.2890  -21.5616  -13.8117 O   0  0  0  0  0  0  0  0  0  0  0  0
   26.4921  -20.4055  -11.8462 N   0  0  0  0  0  0  0  0  0  0  0  0
   25.3635  -20.9510  -11.1818 C   0  0  1  0  0  0  0  0  0  0  0  0
   25.4557  -20.9884   -9.6682 C   0  0  0  0  0  0  0  0  0  0  0  0
   26.8017  -20.7845   -9.1377 C   0  0  0  0  0  0  0  0  0  0  0  0
   27.8889  -21.4422   -9.6381 C   0  0  0  0  0  0  0  0  0  0  0  0
   29.1759  -21.2464   -9.1208 C   0  0  0  0  0  0  0  0  0  0  0  0
   29.3819  -20.3737   -8.0801 C   0  0  0  0  0  0  0  0  0  0  0  0
   28.2884  -19.6943   -7.5568 C   0  0  0  0  0  0  0  0  0  0  0  0
   27.0392  -19.9033   -8.0804 C   0  0  0  0  0  0  0  0  0  0  0  0
   24.0848  -20.3098  -11.5466 C   0  0  0  0  0  0  0  0  0  0  0  0
   24.0247  -19.0443  -11.7271 O   0  0  0  0  0  0  0  0  0  0  0  0
   22.8577  -20.9934  -11.7255 N   0  0  0  0  0  0  0  0  0  0  0  0
   21.9319  -20.7059  -12.8023 C   0  0  1  0  0  0  0  0  0  0  0  0
   22.3865  -21.3238  -14.1063 C   0  0  0  0  0  0  0  0  0  0  0  0
   21.4371  -20.9668  -15.2192 C   0  0  0  0  0  0  0  0  0  0  0  0
   20.7987  -19.7716  -15.3999 C   0  0  0  0  0  0  0  0  0  0  0  0
   20.0503  -19.8757  -16.5065 N   0  0  0  0  0  0  0  0  0  0  0  0
   20.1974  -21.1172  -17.0391 C   0  0  0  0  0  0  0  0  0  0  0  0
   21.0503  -21.7676  -16.2351 N   0  0  0  0  0  0  0  0  0  0  0  0
   20.6262  -21.3146  -12.4592 C   0  0  0  0  0  0  0  0  0  0  0  0
   20.5329  -22.6512  -12.1117 O   0  0  0  0  0  0  0  0  0  0  0  0
   19.5729  -20.6300  -12.4760 O   0  0  0  0  0  0  0  0  0  0  0  0
  2  1  1  0
  3  2  2  0
  4  2  1  0
  5  4  1  0
  5  6  1  0
  6  7  1  6
  8  9  2  0
  8  6  1  0
 10  8  1  0
 11 10  1  0
 11 12  1  1
 13 12  1  0
 13 18  1  0
 14 13  2  0
 15 14  1  0
 15 16  2  0
 16 17  1  0
 17 18  2  0
 19 11  1  0
 20 19  2  0
 21 19  1  0
 22 21  1  0
 23 24  1  0
 22 23  1  6
 24 28  1  0
 25 24  2  0
 25 26  1  0
 26 27  1  0
 28 27  2  0
 29 22  1  0
 29 30  1  0
 31 29  2  0
M  END
$$$$
