QFH.pdb
     RDKit          3D

 31 32  0  0  1  0  0  0  0  0999 V2000
   14.1305  -13.0376    6.6837 N   0  0  0  0  0  0  0  0  0  0  0  0
   13.2441  -14.0566    7.0606 C   0  0  0  0  0  0  0  0  0  0  0  0
   12.5998  -13.9727    8.1347 O   0  0  0  0  0  0  0  0  0  0  0  0
   13.0519  -15.2497    6.1989 C   0  0  0  0  0  0  0  0  0  0  0  0
   14.0068  -15.2455    5.0232 C   0  0  0  0  0  0  0  0  0  0  0  0
   13.7958  -16.5335    4.2692 C   0  0  2  0  0  0  0  0  0  0  0  0
   12.5653  -17.1516    4.6357 N   0  0  0  0  0  0  0  0  0  0  0  0
   14.9084  -17.4788    4.3982 C   0  0  0  0  0  0  0  0  0  0  0  0
   14.7224  -18.6694    4.0443 O   0  0  0  0  0  0  0  0  0  0  0  0
   16.1890  -17.1338    4.8997 N   0  0  0  0  0  0  0  0  0  0  0  0
   17.3402  -17.9625    4.9247 C   0  0  1  0  0  0  0  0  0  0  0  0
   18.6586  -17.2509    4.6876 C   0  0  0  0  0  0  0  0  0  0  0  0
   18.7938  -16.6510    3.3623 C   0  0  0  0  0  0  0  0  0  0  0  0
   18.6795  -15.3057    3.1569 C   0  0  0  0  0  0  0  0  0  0  0  0
   18.8044  -14.7377    1.8825 C   0  0  0  0  0  0  0  0  0  0  0  0
   19.0493  -15.5313    0.7882 C   0  0  0  0  0  0  0  0  0  0  0  0
   19.1692  -16.9029    0.9761 C   0  0  0  0  0  0  0  0  0  0  0  0
   19.0428  -17.4344    2.2330 C   0  0  0  0  0  0  0  0  0  0  0  0
   17.4710  -18.7708    6.1531 C   0  0  0  0  0  0  0  0  0  0  0  0
   17.2716  -18.2399    7.3003 O   0  0  0  0  0  0  0  0  0  0  0  0
   17.8120  -20.1447    6.1865 N   0  0  0  0  0  0  0  0  0  0  0  0
   17.9488  -20.9050    7.4122 C   0  0  1  0  0  0  0  0  0  0  0  0
   18.2029  -22.3699    7.1325 C   0  0  0  0  0  0  0  0  0  0  0  0
   17.2867  -23.2322    7.9596 C   0  0  0  0  0  0  0  0  0  0  0  0
   16.4054  -22.8101    8.9156 C   0  0  0  0  0  0  0  0  0  0  0  0
   15.7901  -23.8945    9.4063 N   0  0  0  0  0  0  0  0  0  0  0  0
   16.2613  -25.0055    8.7816 C   0  0  0  0  0  0  0  0  0  0  0  0
   17.1760  -24.5766    7.9006 N   0  0  0  0  0  0  0  0  0  0  0  0
   19.1270  -20.3865    8.1444 C   0  0  0  0  0  0  0  0  0  0  0  0
   19.1251  -20.2988    9.5259 O   0  0  0  0  0  0  0  0  0  0  0  0
   20.1558  -20.0144    7.5267 O   0  0  0  0  0  0  0  0  0  0  0  0
  2  1  1  0
  3  2  2  0
  4  2  1  0
  5  4  1  0
  5  6  1  0
  6  7  1  1
  8  9  2  0
  8  6  1  0
 10  8  1  0
 11 10  1  0
 11 12  1  1
 13 12  1  0
 13 18  1  0
 14 13  2  0
 15 14  1  0
 15 16  2  0
 16 17  1  0
 17 18  2  0
 19 11  1  0
 20 19  2  0
 21 19  1  0
 22 21  1  0
 23 24  1  0
 22 23  1  6
 24 28  1  0
 25 24  2  0
 25 26  1  0
 26 27  1  0
 28 27  2  0
 29 22  1  0
 29 30  1  0
 31 29  2  0
M  END
$$$$
