QFH.pdb
     RDKit          3D

 31 32  0  0  1  0  0  0  0  0999 V2000
   25.1270  -18.8141  -18.9231 N   0  0  0  0  0  0  0  0  0  0  0  0
   26.4282  -18.6709  -19.4253 C   0  0  0  0  0  0  0  0  0  0  0  0
   26.7825  -17.5991  -19.9744 O   0  0  0  0  0  0  0  0  0  0  0  0
   27.4078  -19.7807  -19.3171 C   0  0  0  0  0  0  0  0  0  0  0  0
   26.8118  -20.9809  -18.6111 C   0  0  0  0  0  0  0  0  0  0  0  0
   27.7326  -21.3338  -17.4710 C   0  0  2  0  0  0  0  0  0  0  0  0
   28.5420  -22.4621  -17.7904 N   0  0  0  0  0  0  0  0  0  0  0  0
   27.0380  -21.5391  -16.1969 C   0  0  0  0  0  0  0  0  0  0  0  0
   26.1459  -22.4213  -16.1403 O   0  0  0  0  0  0  0  0  0  0  0  0
   27.3098  -20.8015  -15.0168 N   0  0  0  0  0  0  0  0  0  0  0  0
   26.5912  -20.8632  -13.7951 C   0  0  1  0  0  0  0  0  0  0  0  0
   27.3657  -20.4351  -12.5632 C   0  0  0  0  0  0  0  0  0  0  0  0
   26.5830  -20.4215  -11.3295 C   0  0  0  0  0  0  0  0  0  0  0  0
   26.1056  -19.2646  -10.7829 C   0  0  0  0  0  0  0  0  0  0  0  0
   25.3608  -19.2581   -9.5965 C   0  0  0  0  0  0  0  0  0  0  0  0
   25.0862  -20.4338   -8.9412 C   0  0  0  0  0  0  0  0  0  0  0  0
   25.5630  -21.6221   -9.4812 C   0  0  0  0  0  0  0  0  0  0  0  0
   26.2895  -21.6020  -10.6432 C   0  0  0  0  0  0  0  0  0  0  0  0
   25.3138  -20.1235  -13.8124 C   0  0  0  0  0  0  0  0  0  0  0  0
   25.2672  -18.9247  -14.2579 O   0  0  0  0  0  0  0  0  0  0  0  0
   24.0736  -20.6375  -13.3622 N   0  0  0  0  0  0  0  0  0  0  0  0
   22.8298  -19.8975  -13.4288 C   0  0  1  0  0  0  0  0  0  0  0  0
   22.2715  -19.8736  -14.8347 C   0  0  0  0  0  0  0  0  0  0  0  0
   20.9937  -19.0787  -14.8821 C   0  0  0  0  0  0  0  0  0  0  0  0
   19.9794  -19.1020  -13.9659 C   0  0  0  0  0  0  0  0  0  0  0  0
   19.0345  -18.2500  -14.3861 N   0  0  0  0  0  0  0  0  0  0  0  0
   19.4248  -17.6802  -15.5563 C   0  0  0  0  0  0  0  0  0  0  0  0
   20.6264  -18.2019  -15.8409 N   0  0  0  0  0  0  0  0  0  0  0  0
   21.8381  -20.5896  -12.5739 C   0  0  0  0  0  0  0  0  0  0  0  0
   20.7884  -19.8961  -11.9965 O   0  0  0  0  0  0  0  0  0  0  0  0
   21.9280  -21.8232  -12.3537 O   0  0  0  0  0  0  0  0  0  0  0  0
  2  1  1  0
  3  2  2  0
  4  2  1  0
  5  4  1  0
  5  6  1  0
  6  7  1  6
  8  9  2  0
  8  6  1  0
 10  8  1  0
 11 10  1  0
 11 12  1  1
 13 12  1  0
 13 18  1  0
 14 13  2  0
 15 14  1  0
 15 16  2  0
 16 17  1  0
 17 18  2  0
 19 11  1  0
 20 19  2  0
 21 19  1  0
 22 21  1  0
 23 24  1  0
 22 23  1  6
 24 28  1  0
 25 24  2  0
 25 26  1  0
 26 27  1  0
 28 27  2  0
 29 22  1  0
 29 30  1  0
 31 29  2  0
M  END
$$$$
