QFH.pdb
     RDKit          3D

 31 32  0  0  1  0  0  0  0  0999 V2000
   29.1873  -23.2533  -16.3797 N   0  0  0  0  0  0  0  0  0  0  0  0
   29.5540  -22.0039  -16.8998 C   0  0  0  0  0  0  0  0  0  0  0  0
   30.0654  -21.9173  -18.0430 O   0  0  0  0  0  0  0  0  0  0  0  0
   29.3450  -20.7644  -16.1105 C   0  0  0  0  0  0  0  0  0  0  0  0
   28.7739  -21.0677  -14.7409 C   0  0  0  0  0  0  0  0  0  0  0  0
   27.5146  -20.2533  -14.5895 C   0  0  2  0  0  0  0  0  0  0  0  0
   27.7987  -18.9504  -14.0872 N   0  0  0  0  0  0  0  0  0  0  0  0
   26.4856  -20.9083  -13.7769 C   0  0  0  0  0  0  0  0  0  0  0  0
   26.1464  -22.0799  -14.0766 O   0  0  0  0  0  0  0  0  0  0  0  0
   25.8443  -20.3009  -12.6677 N   0  0  0  0  0  0  0  0  0  0  0  0
   24.8110  -20.8632  -11.8747 C   0  0  1  0  0  0  0  0  0  0  0  0
   24.8044  -20.4376  -10.4188 C   0  0  0  0  0  0  0  0  0  0  0  0
   26.0289  -20.7568   -9.6885 C   0  0  0  0  0  0  0  0  0  0  0  0
   26.4590  -20.0119   -8.6277 C   0  0  0  0  0  0  0  0  0  0  0  0
   27.6373  -20.3200   -7.9355 C   0  0  0  0  0  0  0  0  0  0  0  0
   28.4033  -21.3968   -8.3111 C   0  0  0  0  0  0  0  0  0  0  0  0
   27.9827  -22.1676   -9.3880 C   0  0  0  0  0  0  0  0  0  0  0  0
   26.8261  -21.8454  -10.0491 C   0  0  0  0  0  0  0  0  0  0  0  0
   23.4550  -20.6525  -12.4191 C   0  0  0  0  0  0  0  0  0  0  0  0
   23.1232  -19.5163  -12.9056 O   0  0  0  0  0  0  0  0  0  0  0  0
   22.4357  -21.6347  -12.4576 N   0  0  0  0  0  0  0  0  0  0  0  0
   21.1494  -21.4277  -13.0914 C   0  0  1  0  0  0  0  0  0  0  0  0
   20.3312  -22.6999  -13.1174 C   0  0  0  0  0  0  0  0  0  0  0  0
   20.7193  -23.5535  -14.2956 C   0  0  0  0  0  0  0  0  0  0  0  0
   21.5967  -23.2258  -15.2914 C   0  0  0  0  0  0  0  0  0  0  0  0
   21.6539  -24.2628  -16.1380 N   0  0  0  0  0  0  0  0  0  0  0  0
   20.8282  -25.2505  -15.7028 C   0  0  0  0  0  0  0  0  0  0  0  0
   20.2668  -24.7947  -14.5740 N   0  0  0  0  0  0  0  0  0  0  0  0
   20.3965  -20.4373  -12.2879 C   0  0  0  0  0  0  0  0  0  0  0  0
   19.4678  -19.5985  -12.8796 O   0  0  0  0  0  0  0  0  0  0  0  0
   20.5844  -20.3367  -11.0499 O   0  0  0  0  0  0  0  0  0  0  0  0
  2  1  1  0
  3  2  2  0
  4  2  1  0
  5  4  1  0
  5  6  1  0
  6  7  1  1
  8  9  2  0
  8  6  1  0
 10  8  1  0
 11 10  1  0
 11 12  1  1
 13 12  1  0
 13 18  1  0
 14 13  2  0
 15 14  1  0
 15 16  2  0
 16 17  1  0
 17 18  2  0
 19 11  1  0
 20 19  2  0
 21 19  1  0
 22 21  1  0
 23 24  1  0
 22 23  1  1
 24 28  1  0
 25 24  2  0
 25 26  1  0
 26 27  1  0
 28 27  2  0
 29 22  1  0
 29 30  1  0
 31 29  2  0
M  END
$$$$
