QFH.pdb
     RDKit          3D

 31 32  0  0  1  0  0  0  0  0999 V2000
   29.2999  -18.6832  -18.4138 N   0  0  0  0  0  0  0  0  0  0  0  0
   28.1204  -19.4401  -18.4576 C   0  0  0  0  0  0  0  0  0  0  0  0
   27.0078  -18.8747  -18.5933 O   0  0  0  0  0  0  0  0  0  0  0  0
   28.1655  -20.9193  -18.3446 C   0  0  0  0  0  0  0  0  0  0  0  0
   27.2492  -21.4209  -17.2479 C   0  0  0  0  0  0  0  0  0  0  0  0
   27.9816  -21.2558  -15.9408 C   0  0  2  0  0  0  0  0  0  0  0  0
   29.1571  -22.0603  -15.9017 N   0  0  0  0  0  0  0  0  0  0  0  0
   27.1451  -21.5040  -14.7632 C   0  0  0  0  0  0  0  0  0  0  0  0
   26.6199  -22.6376  -14.6340 O   0  0  0  0  0  0  0  0  0  0  0  0
   26.8889  -20.5412  -13.7543 N   0  0  0  0  0  0  0  0  0  0  0  0
   26.0320  -20.6957  -12.6343 C   0  0  1  0  0  0  0  0  0  0  0  0
   26.4414  -19.9278  -11.3919 C   0  0  0  0  0  0  0  0  0  0  0  0
   27.5084  -20.5551  -10.6157 C   0  0  0  0  0  0  0  0  0  0  0  0
   27.4303  -20.7074   -9.2608 C   0  0  0  0  0  0  0  0  0  0  0  0
   28.4597  -21.3045   -8.5219 C   0  0  0  0  0  0  0  0  0  0  0  0
   29.5931  -21.7602   -9.1505 C   0  0  0  0  0  0  0  0  0  0  0  0
   29.6920  -21.6148  -10.5289 C   0  0  0  0  0  0  0  0  0  0  0  0
   28.6711  -21.0270  -11.2294 C   0  0  0  0  0  0  0  0  0  0  0  0
   24.6156  -20.3890  -12.9158 C   0  0  0  0  0  0  0  0  0  0  0  0
   24.3043  -19.3807  -13.6397 O   0  0  0  0  0  0  0  0  0  0  0  0
   23.5138  -21.1399  -12.4392 N   0  0  0  0  0  0  0  0  0  0  0  0
   22.2799  -21.3071  -13.1799 C   0  0  1  0  0  0  0  0  0  0  0  0
   22.1651  -22.6988  -13.7622 C   0  0  0  0  0  0  0  0  0  0  0  0
   20.8541  -22.8627  -14.4843 C   0  0  0  0  0  0  0  0  0  0  0  0
   19.8294  -21.9593  -14.5381 C   0  0  0  0  0  0  0  0  0  0  0  0
   18.8535  -22.4978  -15.2818 N   0  0  0  0  0  0  0  0  0  0  0  0
   19.2342  -23.7312  -15.7064 C   0  0  0  0  0  0  0  0  0  0  0  0
   20.4615  -23.9338  -15.2066 N   0  0  0  0  0  0  0  0  0  0  0  0
   21.1515  -21.1308  -12.2371 C   0  0  0  0  0  0  0  0  0  0  0  0
   21.2504  -21.5504  -10.9217 O   0  0  0  0  0  0  0  0  0  0  0  0
   20.0782  -20.5957  -12.6111 O   0  0  0  0  0  0  0  0  0  0  0  0
  2  1  1  0
  3  2  2  0
  4  2  1  0
  5  4  1  0
  5  6  1  0
  6  7  1  6
  8  9  2  0
  8  6  1  0
 10  8  1  0
 11 10  1  0
 11 12  1  1
 13 12  1  0
 13 18  1  0
 14 13  2  0
 15 14  1  0
 15 16  2  0
 16 17  1  0
 17 18  2  0
 19 11  1  0
 20 19  2  0
 21 19  1  0
 22 21  1  0
 23 24  1  0
 22 23  1  1
 24 28  1  0
 25 24  2  0
 25 26  1  0
 26 27  1  0
 28 27  2  0
 29 22  1  0
 29 30  1  0
 31 29  2  0
M  END
$$$$
