QFH.pdb
     RDKit          3D

 31 32  0  0  1  0  0  0  0  0999 V2000
   27.8772  -18.6421  -18.7059 N   0  0  0  0  0  0  0  0  0  0  0  0
   28.1369  -19.2907  -19.9216 C   0  0  0  0  0  0  0  0  0  0  0  0
   28.8781  -18.7549  -20.7815 O   0  0  0  0  0  0  0  0  0  0  0  0
   27.5419  -20.6188  -20.2131 C   0  0  0  0  0  0  0  0  0  0  0  0
   26.7238  -21.1295  -19.0452 C   0  0  0  0  0  0  0  0  0  0  0  0
   27.6896  -21.6835  -18.0291 C   0  0  2  0  0  0  0  0  0  0  0  0
   28.2845  -22.8943  -18.4877 N   0  0  0  0  0  0  0  0  0  0  0  0
   27.1018  -21.8670  -16.6991 C   0  0  0  0  0  0  0  0  0  0  0  0
   26.3029  -22.8208  -16.5274 O   0  0  0  0  0  0  0  0  0  0  0  0
   27.3785  -21.0321  -15.5869 N   0  0  0  0  0  0  0  0  0  0  0  0
   26.6757  -21.0020  -14.3549 C   0  0  1  0  0  0  0  0  0  0  0  0
   27.4056  -20.3318  -13.2065 C   0  0  0  0  0  0  0  0  0  0  0  0
   26.6953  -20.3731  -11.9304 C   0  0  0  0  0  0  0  0  0  0  0  0
   26.1262  -19.2616  -11.3775 C   0  0  0  0  0  0  0  0  0  0  0  0
   25.4517  -19.3071  -10.1506 C   0  0  0  0  0  0  0  0  0  0  0  0
   25.3427  -20.4897   -9.4602 C   0  0  0  0  0  0  0  0  0  0  0  0
   25.9148  -21.6324  -10.0059 C   0  0  0  0  0  0  0  0  0  0  0  0
   26.5697  -21.5619  -11.2078 C   0  0  0  0  0  0  0  0  0  0  0  0
   25.3269  -20.4091  -14.4480 C   0  0  0  0  0  0  0  0  0  0  0  0
   25.1721  -19.2243  -14.9061 O   0  0  0  0  0  0  0  0  0  0  0  0
   24.1286  -21.0567  -14.0610 N   0  0  0  0  0  0  0  0  0  0  0  0
   22.8474  -20.3852  -13.9790 C   0  0  1  0  0  0  0  0  0  0  0  0
   21.8455  -20.9792  -14.9445 C   0  0  0  0  0  0  0  0  0  0  0  0
   22.0256  -20.3929  -16.3197 C   0  0  0  0  0  0  0  0  0  0  0  0
   23.1596  -20.4253  -17.0823 C   0  0  0  0  0  0  0  0  0  0  0  0
   22.8926  -19.7908  -18.2319 N   0  0  0  0  0  0  0  0  0  0  0  0
   21.6067  -19.3518  -18.2202 C   0  0  0  0  0  0  0  0  0  0  0  0
   21.0953  -19.7313  -17.0407 N   0  0  0  0  0  0  0  0  0  0  0  0
   22.3121  -20.5841  -12.6126 C   0  0  0  0  0  0  0  0  0  0  0  0
   21.1806  -19.9105  -12.1860 O   0  0  0  0  0  0  0  0  0  0  0  0
   22.8742  -21.3698  -11.8094 O   0  0  0  0  0  0  0  0  0  0  0  0
  2  1  1  0
  3  2  2  0
  4  2  1  0
  5  4  1  0
  5  6  1  0
  6  7  1  6
  8  9  2  0
  8  6  1  0
 10  8  1  0
 11 10  1  0
 11 12  1  1
 13 12  1  0
 13 18  1  0
 14 13  2  0
 15 14  1  0
 15 16  2  0
 16 17  1  0
 17 18  2  0
 19 11  1  0
 20 19  2  0
 21 19  1  0
 22 21  1  0
 23 24  1  0
 22 23  1  6
 24 28  1  0
 25 24  2  0
 25 26  1  0
 26 27  1  0
 28 27  2  0
 29 22  1  0
 29 30  1  0
 31 29  2  0
M  END
$$$$
