ERK.pdb
     RDKit          3D

 30 29  0  0  1  0  0  0  0  0999 V2000
   14.6102  -17.1924   18.9741 N   0  0  0  0  0  0  0  0  0  0  0  0
   13.4809  -17.9898   19.4832 C   0  0  1  0  0  0  0  0  0  0  0  0
   14.0088  -19.2847   20.0024 C   0  0  0  0  0  0  0  0  0  0  0  0
   14.1842  -20.3249   18.9487 C   0  0  0  0  0  0  0  0  0  0  0  0
   14.5204  -21.6672   19.4177 C   0  0  0  0  0  0  0  0  0  0  0  0
   15.7012  -21.9917   19.6638 O   0  0  0  0  0  0  0  0  0  0  0  0
   12.7719  -17.2063   20.5375 C   0  0  0  0  0  0  0  0  0  0  0  0
   13.3527  -17.0538   21.6363 O   0  0  0  0  0  0  0  0  0  0  0  0
   13.5669  -22.6680   19.6219 O   0  0  0  0  0  0  0  0  0  0  0  0
    7.8855  -12.2014   18.2689 N   0  0  0  0  0  0  0  0  0  0  0  0
    7.5237  -13.5645   18.4419 C   0  0  0  0  0  0  0  0  0  0  0  0
    7.2490  -14.2742   17.4067 N   0  0  0  0  0  0  0  0  0  0  0  0
    7.4595  -14.1580   19.7304 N   0  0  0  0  0  0  0  0  0  0  0  0
    7.8871  -13.4182   20.9139 C   0  0  0  0  0  0  0  0  0  0  0  0
    8.9134  -14.2581   21.6307 C   0  0  0  0  0  0  0  0  0  0  0  0
    9.7061  -15.0715   20.6228 C   0  0  0  0  0  0  0  0  0  0  0  0
   10.7709  -15.8876   21.3003 C   0  0  2  0  0  0  0  0  0  0  0  0
   11.4864  -16.6448   20.3259 N   0  0  0  0  0  0  0  0  0  0  0  0
   10.2055  -16.7507   22.3788 C   0  0  0  0  0  0  0  0  0  0  0  0
    9.6231  -17.8459   22.1116 O   0  0  0  0  0  0  0  0  0  0  0  0
    7.0650  -15.2866   17.4236 N   0  0  0  0  0  0  0  0  0  0  0  0
   10.2917  -16.3927   23.7275 C   0  0  1  0  0  0  0  0  0  0  0  0
    9.9368  -17.3594   24.8067 C   0  0  0  0  0  0  0  0  0  0  0  0
   10.8549  -18.5074   24.7393 C   0  0  0  0  0  0  0  0  0  0  0  0
   10.9822  -19.5306   25.7445 C   0  0  0  0  0  0  0  0  0  0  0  0
   11.9326  -20.6385   25.7032 C   0  0  0  0  0  0  0  0  0  0  0  0
   11.9944  -21.4575   26.9812 N   0  0  0  0  0  0  0  0  0  0  0  0
   12.8332  -22.6078   26.7132 C   0  0  0  0  0  0  0  0  0  0  0  0
    9.9893  -16.5247   26.0286 O   0  0  0  0  0  0  0  0  0  0  0  0
    9.2574  -16.7671   27.0042 O   0  0  0  0  0  0  0  0  0  0  0  0
  2  1  1  1
  2  3  1  0
  3  4  1  0
  4  5  1  0
  5  9  1  0
  6  5  2  0
  7  2  1  0
  7  8  2  0
 11 10  1  0
 11 12  2  0
 13 11  1  0
 14 13  1  0
 15 16  1  0
 15 14  1  0
 17 16  1  6
 17 18  1  0
 18  7  1  0
 19 21  1  0
 19 17  1  0
 20 19  2  0
 22 21  1  0
 22 28  1  0
 23 24  1  0
 22 23  1  1
 25 24  1  0
 26 25  1  0
 26 27  1  0
 28 30  1  0
 29 28  2  0
M  END
$$$$
