ERK.pdb
     RDKit          3D

 30 29  0  0  1  0  0  0  0  0999 V2000
   12.1677  -19.4759   19.7213 N   0  0  0  0  0  0  0  0  0  0  0  0
   11.6032  -19.3718   21.0781 C   0  0  1  0  0  0  0  0  0  0  0  0
   12.4535  -20.1683   22.0095 C   0  0  0  0  0  0  0  0  0  0  0  0
   13.8886  -20.2248   21.6091 C   0  0  0  0  0  0  0  0  0  0  0  0
   14.7717  -20.9941   22.4828 C   0  0  0  0  0  0  0  0  0  0  0  0
   15.9874  -21.1224   22.2260 O   0  0  0  0  0  0  0  0  0  0  0  0
   11.5380  -17.9318   21.4656 C   0  0  0  0  0  0  0  0  0  0  0  0
   12.0068  -17.0930   20.6628 O   0  0  0  0  0  0  0  0  0  0  0  0
   14.3326  -21.6306   23.6466 O   0  0  0  0  0  0  0  0  0  0  0  0
    7.0864  -13.3006   17.9544 N   0  0  0  0  0  0  0  0  0  0  0  0
    8.1563  -12.8271   18.7605 C   0  0  0  0  0  0  0  0  0  0  0  0
    8.8283  -11.8043   18.3691 N   0  0  0  0  0  0  0  0  0  0  0  0
    8.4981  -13.4576   19.9862 N   0  0  0  0  0  0  0  0  0  0  0  0
    7.8283  -14.6851   20.4050 C   0  0  0  0  0  0  0  0  0  0  0  0
    8.3195  -15.0230   21.7896 C   0  0  0  0  0  0  0  0  0  0  0  0
    9.1203  -16.3125   21.7500 C   0  0  0  0  0  0  0  0  0  0  0  0
   10.1549  -16.3431   22.8399 C   0  0  2  0  0  0  0  0  0  0  0  0
   10.9703  -17.5044   22.6935 N   0  0  0  0  0  0  0  0  0  0  0  0
    9.5352  -16.2585   24.1950 C   0  0  0  0  0  0  0  0  0  0  0  0
    8.5671  -17.0086   24.5269 O   0  0  0  0  0  0  0  0  0  0  0  0
    9.6244  -11.3974   18.8788 N   0  0  0  0  0  0  0  0  0  0  0  0
    9.9918  -15.3522   25.1565 C   0  0  1  0  0  0  0  0  0  0  0  0
    9.4293  -15.3442   26.5380 C   0  0  0  0  0  0  0  0  0  0  0  0
    8.0145  -14.9446   26.4745 C   0  0  0  0  0  0  0  0  0  0  0  0
    7.5265  -13.5934   26.5734 C   0  0  0  0  0  0  0  0  0  0  0  0
    6.1361  -13.2149   26.8096 C   0  0  0  0  0  0  0  0  0  0  0  0
    5.8927  -11.7157   26.8413 N   0  0  0  0  0  0  0  0  0  0  0  0
    4.4858  -11.5156   27.1226 C   0  0  0  0  0  0  0  0  0  0  0  0
    9.7225  -16.7124   27.0224 O   0  0  0  0  0  0  0  0  0  0  0  0
    9.5908  -17.6995   26.2779 O   0  0  0  0  0  0  0  0  0  0  0  0
  2  1  1  6
  2  3  1  0
  3  4  1  0
  4  5  1  0
  5  9  1  0
  6  5  2  0
  7  2  1  0
  7  8  2  0
 11 10  1  0
 11 12  2  0
 13 11  1  0
 14 13  1  0
 15 16  1  0
 15 14  1  0
 17 16  1  6
 17 18  1  0
 18  7  1  0
 19 21  1  0
 19 17  1  0
 20 19  2  0
 22 21  1  0
 22 28  1  0
 23 24  1  0
 22 23  1  1
 25 24  1  0
 26 25  1  0
 26 27  1  0
 28 30  1  0
 29 28  2  0
M  END
$$$$
