ERK.pdb
     RDKit          3D

 30 29  0  0  1  0  0  0  0  0999 V2000
    9.3935  -21.2973   17.5808 N   0  0  0  0  0  0  0  0  0  0  0  0
    8.8743  -21.3042   18.9595 C   0  0  1  0  0  0  0  0  0  0  0  0
    9.1586  -22.6360   19.5682 C   0  0  0  0  0  0  0  0  0  0  0  0
    9.1163  -23.7616   18.5913 C   0  0  0  0  0  0  0  0  0  0  0  0
    9.3627  -25.0956   19.1340 C   0  0  0  0  0  0  0  0  0  0  0  0
   10.5165  -25.5712   19.1880 O   0  0  0  0  0  0  0  0  0  0  0  0
    9.5095  -20.1886   19.7212 C   0  0  0  0  0  0  0  0  0  0  0  0
   10.7399  -20.2632   19.9415 O   0  0  0  0  0  0  0  0  0  0  0  0
    8.3481  -25.9225   19.6232 O   0  0  0  0  0  0  0  0  0  0  0  0
    8.4632  -11.8183   20.2010 N   0  0  0  0  0  0  0  0  0  0  0  0
    8.0867  -12.9429   19.4184 C   0  0  0  0  0  0  0  0  0  0  0  0
    7.9673  -12.8070   18.1463 N   0  0  0  0  0  0  0  0  0  0  0  0
    7.8406  -14.2103   20.0097 N   0  0  0  0  0  0  0  0  0  0  0  0
    8.0573  -14.4212   21.4377 C   0  0  0  0  0  0  0  0  0  0  0  0
    8.9743  -15.6081   21.5894 C   0  0  0  0  0  0  0  0  0  0  0  0
    8.4379  -16.7779   20.7836 C   0  0  0  0  0  0  0  0  0  0  0  0
    9.3302  -17.9806   20.9117 C   0  0  2  0  0  0  0  0  0  0  0  0
    8.7672  -19.0738   20.1888 N   0  0  0  0  0  0  0  0  0  0  0  0
    9.5926  -18.3265   22.3397 C   0  0  0  0  0  0  0  0  0  0  0  0
    8.6430  -18.5596   23.1484 O   0  0  0  0  0  0  0  0  0  0  0  0
    7.6367  -13.5432   17.5079 N   0  0  0  0  0  0  0  0  0  0  0  0
   10.8920  -18.4090   22.8490 C   0  0  2  0  0  0  0  0  0  0  0  0
   11.1389  -18.7242   24.2859 C   0  0  0  0  0  0  0  0  0  0  0  0
   12.5298  -19.1786   24.4421 C   0  0  0  0  0  0  0  0  0  0  0  0
   13.0728  -19.8051   25.6195 C   0  0  0  0  0  0  0  0  0  0  0  0
   14.3989  -20.4087   25.7172 C   0  0  0  0  0  0  0  0  0  0  0  0
   14.6516  -21.1568   27.0150 N   0  0  0  0  0  0  0  0  0  0  0  0
   15.9508  -21.7871   26.9007 C   0  0  0  0  0  0  0  0  0  0  0  0
   10.7593  -17.4671   24.9701 O   0  0  0  0  0  0  0  0  0  0  0  0
   10.9523  -16.3611   24.4357 O   0  0  0  0  0  0  0  0  0  0  0  0
  2  1  1  6
  2  3  1  0
  3  4  1  0
  4  5  1  0
  5  9  1  0
  6  5  2  0
  7  2  1  0
  7  8  2  0
 11 10  1  0
 11 12  2  0
 13 11  1  0
 14 13  1  0
 15 16  1  0
 15 14  1  0
 17 16  1  1
 17 18  1  0
 18  7  1  0
 19 21  1  0
 19 17  1  0
 20 19  2  0
 22 21  1  0
 22 28  1  0
 23 24  1  0
 22 23  1  6
 25 24  1  0
 26 25  1  0
 26 27  1  0
 28 30  1  0
 29 28  2  0
M  END
$$$$
