ERK.pdb
     RDKit          3D

 30 29  0  0  1  0  0  0  0  0999 V2000
   14.2600  -17.2626   15.9359 N   0  0  0  0  0  0  0  0  0  0  0  0
   13.9057  -18.3073   16.9124 C   0  0  1  0  0  0  0  0  0  0  0  0
   15.0732  -19.2211   17.0760 C   0  0  0  0  0  0  0  0  0  0  0  0
   16.3829  -18.5800   16.7647 C   0  0  0  0  0  0  0  0  0  0  0  0
   17.5597  -19.4413   16.8551 C   0  0  0  0  0  0  0  0  0  0  0  0
   18.6674  -19.0754   16.4083 O   0  0  0  0  0  0  0  0  0  0  0  0
   13.5147  -17.6559   18.1973 C   0  0  0  0  0  0  0  0  0  0  0  0
   14.4084  -17.0608   18.8415 O   0  0  0  0  0  0  0  0  0  0  0  0
   17.5357  -20.7121   17.4356 O   0  0  0  0  0  0  0  0  0  0  0  0
    7.9247  -13.8573   17.9889 N   0  0  0  0  0  0  0  0  0  0  0  0
    7.7387  -13.4769   19.3453 C   0  0  0  0  0  0  0  0  0  0  0  0
    7.6676  -12.2284   19.6399 N   0  0  0  0  0  0  0  0  0  0  0  0
    7.6297  -14.4440   20.3794 N   0  0  0  0  0  0  0  0  0  0  0  0
    8.1500  -15.7951   20.1943 C   0  0  0  0  0  0  0  0  0  0  0  0
    9.6541  -15.7026   20.1503 C   0  0  0  0  0  0  0  0  0  0  0  0
   10.2484  -17.0869   19.9601 C   0  0  0  0  0  0  0  0  0  0  0  0
   11.7476  -17.0272   19.8727 C   0  0  2  0  0  0  0  0  0  0  0  0
   12.1854  -17.6959   18.6912 N   0  0  0  0  0  0  0  0  0  0  0  0
   12.3966  -17.5731   21.1009 C   0  0  0  0  0  0  0  0  0  0  0  0
   12.4515  -18.8217   21.3200 O   0  0  0  0  0  0  0  0  0  0  0  0
    7.5905  -11.8565   20.5963 N   0  0  0  0  0  0  0  0  0  0  0  0
   12.9714  -16.7363   22.0621 C   0  0  2  0  0  0  0  0  0  0  0  0
   13.6885  -17.2970   23.2438 C   0  0  0  0  0  0  0  0  0  0  0  0
   15.0704  -16.7913   23.2470 C   0  0  0  0  0  0  0  0  0  0  0  0
   16.1057  -17.2058   24.1581 C   0  0  0  0  0  0  0  0  0  0  0  0
   17.4823  -16.7190   24.1468 C   0  0  0  0  0  0  0  0  0  0  0  0
   18.3722  -17.3346   25.2131 N   0  0  0  0  0  0  0  0  0  0  0  0
   19.0815  -18.4367   24.5960 C   0  0  0  0  0  0  0  0  0  0  0  0
   12.8219  -16.8984   24.3763 O   0  0  0  0  0  0  0  0  0  0  0  0
   12.9991  -17.3637   25.5157 O   0  0  0  0  0  0  0  0  0  0  0  0
  2  1  1  6
  2  3  1  0
  3  4  1  0
  4  5  1  0
  5  9  1  0
  6  5  2  0
  7  2  1  0
  7  8  2  0
 11 10  1  0
 11 12  2  0
 13 11  1  0
 14 13  1  0
 15 16  1  0
 15 14  1  0
 17 16  1  1
 17 18  1  0
 18  7  1  0
 19 21  1  0
 19 17  1  0
 20 19  2  0
 22 21  1  0
 22 28  1  0
 23 24  1  0
 22 23  1  6
 25 24  1  0
 26 25  1  0
 26 27  1  0
 28 30  1  0
 29 28  2  0
M  END
$$$$
