ERK.pdb
     RDKit          3D

 30 29  0  0  1  0  0  0  0  0999 V2000
   11.1468  -19.2614   15.2497 N   0  0  0  0  0  0  0  0  0  0  0  0
   10.0410  -19.6706   16.1330 C   0  0  1  0  0  0  0  0  0  0  0  0
   10.2588  -21.0884   16.5422 C   0  0  0  0  0  0  0  0  0  0  0  0
   11.5989  -21.3375   17.1464 C   0  0  0  0  0  0  0  0  0  0  0  0
   11.8630  -22.7054   17.5870 C   0  0  0  0  0  0  0  0  0  0  0  0
   11.8358  -23.6622   16.7844 O   0  0  0  0  0  0  0  0  0  0  0  0
    9.9905  -18.7468   17.3044 C   0  0  0  0  0  0  0  0  0  0  0  0
   11.0747  -18.2804   17.7228 O   0  0  0  0  0  0  0  0  0  0  0  0
   12.1597  -23.0395   18.9109 O   0  0  0  0  0  0  0  0  0  0  0  0
    7.7462  -11.4706   21.4780 N   0  0  0  0  0  0  0  0  0  0  0  0
    8.1033  -12.5716   20.6538 C   0  0  0  0  0  0  0  0  0  0  0  0
    8.9467  -12.3914   19.7014 N   0  0  0  0  0  0  0  0  0  0  0  0
    7.5502  -13.8633   20.8594 N   0  0  0  0  0  0  0  0  0  0  0  0
    7.7407  -14.9214   19.8721 C   0  0  0  0  0  0  0  0  0  0  0  0
    7.0683  -16.1634   20.3993 C   0  0  0  0  0  0  0  0  0  0  0  0
    7.2261  -17.2961   19.4004 C   0  0  0  0  0  0  0  0  0  0  0  0
    8.6730  -17.5283   19.0664 C   0  0  2  0  0  0  0  0  0  0  0  0
    8.7707  -18.3950   17.9376 N   0  0  0  0  0  0  0  0  0  0  0  0
    9.4367  -18.0452   20.2398 C   0  0  0  0  0  0  0  0  0  0  0  0
    9.5791  -19.2902   20.4393 O   0  0  0  0  0  0  0  0  0  0  0  0
    9.2131  -13.1080   19.0126 N   0  0  0  0  0  0  0  0  0  0  0  0
   10.0278  -17.1839   21.1691 C   0  0  2  0  0  0  0  0  0  0  0  0
   10.8385  -17.7124   22.3042 C   0  0  0  0  0  0  0  0  0  0  0  0
   12.1637  -18.1069   21.8007 C   0  0  0  0  0  0  0  0  0  0  0  0
   12.9016  -19.2693   22.2227 C   0  0  0  0  0  0  0  0  0  0  0  0
   14.2358  -19.6356   21.7557 C   0  0  0  0  0  0  0  0  0  0  0  0
   14.7659  -20.9362   22.3347 N   0  0  0  0  0  0  0  0  0  0  0  0
   16.1105  -21.1154   21.8264 C   0  0  0  0  0  0  0  0  0  0  0  0
   10.7925  -16.6057   23.2869 O   0  0  0  0  0  0  0  0  0  0  0  0
   11.4134  -16.6748   24.3619 O   0  0  0  0  0  0  0  0  0  0  0  0
  2  1  1  6
  2  3  1  0
  3  4  1  0
  4  5  1  0
  5  9  1  0
  6  5  2  0
  7  2  1  0
  7  8  2  0
 11 10  1  0
 11 12  2  0
 13 11  1  0
 14 13  1  0
 15 16  1  0
 15 14  1  0
 17 16  1  1
 17 18  1  0
 18  7  1  0
 19 21  1  0
 19 17  1  0
 20 19  2  0
 22 21  1  0
 22 28  1  0
 23 24  1  0
 22 23  1  6
 25 24  1  0
 26 25  1  0
 26 27  1  0
 28 30  1  0
 29 28  2  0
M  END
$$$$
