ERK.pdb
     RDKit          3D

 30 29  0  0  1  0  0  0  0  0999 V2000
   10.4202  -18.5244   17.4821 N   0  0  0  0  0  0  0  0  0  0  0  0
    9.5786  -18.5135   18.6912 C   0  0  1  0  0  0  0  0  0  0  0  0
    9.5821  -19.8816   19.2856 C   0  0  0  0  0  0  0  0  0  0  0  0
   10.8624  -20.6184   19.0834 C   0  0  0  0  0  0  0  0  0  0  0  0
   11.0809  -21.7791   19.9435 C   0  0  0  0  0  0  0  0  0  0  0  0
   12.0866  -22.5074   19.8075 O   0  0  0  0  0  0  0  0  0  0  0  0
   10.1048  -17.4860   19.6376 C   0  0  0  0  0  0  0  0  0  0  0  0
   11.3477  -17.3703   19.7362 O   0  0  0  0  0  0  0  0  0  0  0  0
   10.2002  -22.1543   20.9615 O   0  0  0  0  0  0  0  0  0  0  0  0
    9.0460  -14.2802   17.9148 N   0  0  0  0  0  0  0  0  0  0  0  0
    7.8344  -13.5416   17.9889 C   0  0  0  0  0  0  0  0  0  0  0  0
    7.6322  -12.5875   17.1525 N   0  0  0  0  0  0  0  0  0  0  0  0
    6.8447  -13.8343   18.9643 N   0  0  0  0  0  0  0  0  0  0  0  0
    7.0501  -13.4777   20.3647 C   0  0  0  0  0  0  0  0  0  0  0  0
    8.5009  -13.7261   20.6906 C   0  0  0  0  0  0  0  0  0  0  0  0
    8.6106  -14.7923   21.7660 C   0  0  0  0  0  0  0  0  0  0  0  0
    9.6939  -15.7822   21.4413 C   0  0  2  0  0  0  0  0  0  0  0  0
    9.2478  -16.6585   20.4080 N   0  0  0  0  0  0  0  0  0  0  0  0
   10.1460  -16.5266   22.6533 C   0  0  0  0  0  0  0  0  0  0  0  0
    9.4341  -17.4401   23.1717 O   0  0  0  0  0  0  0  0  0  0  0  0
    6.8293  -11.9445   17.1814 N   0  0  0  0  0  0  0  0  0  0  0  0
   11.3703  -16.2520   23.2701 C   0  0  1  0  0  0  0  0  0  0  0  0
   11.9602  -17.1921   24.2668 C   0  0  0  0  0  0  0  0  0  0  0  0
   12.1389  -18.5082   23.6333 C   0  0  0  0  0  0  0  0  0  0  0  0
   12.7351  -19.6591   24.2606 C   0  0  0  0  0  0  0  0  0  0  0  0
   12.9487  -20.9528   23.6180 C   0  0  0  0  0  0  0  0  0  0  0  0
   13.6767  -21.9681   24.4823 N   0  0  0  0  0  0  0  0  0  0  0  0
   13.9080  -23.1407   23.6639 C   0  0  0  0  0  0  0  0  0  0  0  0
   13.1839  -16.4833   24.7059 O   0  0  0  0  0  0  0  0  0  0  0  0
   13.6573  -15.5459   24.0401 O   0  0  0  0  0  0  0  0  0  0  0  0
  2  1  1  6
  2  3  1  0
  3  4  1  0
  4  5  1  0
  5  9  1  0
  6  5  2  0
  7  2  1  0
  7  8  2  0
 11 10  1  0
 11 12  2  0
 13 11  1  0
 14 13  1  0
 15 16  1  0
 15 14  1  0
 17 16  1  1
 17 18  1  0
 18  7  1  0
 19 21  1  0
 19 17  1  0
 20 19  2  0
 22 21  1  0
 22 28  1  0
 23 24  1  0
 22 23  1  1
 25 24  1  0
 26 25  1  0
 26 27  1  0
 28 30  1  0
 29 28  2  0
M  END
$$$$
