ERK.pdb
     RDKit          3D

 30 29  0  0  1  0  0  0  0  0999 V2000
   13.6655  -17.7563   19.0702 N   0  0  0  0  0  0  0  0  0  0  0  0
   12.4047  -18.4077   19.4657 C   0  0  1  0  0  0  0  0  0  0  0  0
   12.6572  -19.8677   19.6377 C   0  0  0  0  0  0  0  0  0  0  0  0
   13.7215  -20.1774   20.6349 C   0  0  0  0  0  0  0  0  0  0  0  0
   14.0668  -21.5884   20.7918 C   0  0  0  0  0  0  0  0  0  0  0  0
   14.7423  -22.1908   19.9308 O   0  0  0  0  0  0  0  0  0  0  0  0
   11.9034  -17.7705   20.7190 C   0  0  0  0  0  0  0  0  0  0  0  0
   12.7535  -17.3326   21.5275 O   0  0  0  0  0  0  0  0  0  0  0  0
   13.6761  -22.3544   21.8932 O   0  0  0  0  0  0  0  0  0  0  0  0
    9.0161  -13.3127   19.0669 N   0  0  0  0  0  0  0  0  0  0  0  0
    8.5017  -12.4695   20.0883 C   0  0  0  0  0  0  0  0  0  0  0  0
    8.8815  -11.2431   20.1363 N   0  0  0  0  0  0  0  0  0  0  0  0
    7.5793  -12.9514   21.0545 N   0  0  0  0  0  0  0  0  0  0  0  0
    7.4146  -14.3844   21.2781 C   0  0  0  0  0  0  0  0  0  0  0  0
    8.7629  -14.9456   21.6523 C   0  0  0  0  0  0  0  0  0  0  0  0
    8.6499  -16.4419   21.8845 C   0  0  0  0  0  0  0  0  0  0  0  0
    9.9921  -17.0478   22.1852 C   0  0  2  0  0  0  0  0  0  0  0  0
   10.5190  -17.6535   21.0061 N   0  0  0  0  0  0  0  0  0  0  0  0
    9.9241  -18.0064   23.3272 C   0  0  0  0  0  0  0  0  0  0  0  0
    9.3321  -19.1234   23.2182 O   0  0  0  0  0  0  0  0  0  0  0  0
    8.5786  -10.5643   20.8479 N   0  0  0  0  0  0  0  0  0  0  0  0
   10.5078  -17.7179   24.5645 C   0  0  2  0  0  0  0  0  0  0  0  0
   10.3798  -18.6575   25.7159 C   0  0  0  0  0  0  0  0  0  0  0  0
   11.5556  -18.5062   26.5877 C   0  0  0  0  0  0  0  0  0  0  0  0
   11.7627  -19.1999   27.8326 C   0  0  0  0  0  0  0  0  0  0  0  0
   12.9279  -19.0459   28.6991 C   0  0  0  0  0  0  0  0  0  0  0  0
   12.8985  -19.9121   29.9467 N   0  0  0  0  0  0  0  0  0  0  0  0
   14.0777  -19.5868   30.7226 C   0  0  0  0  0  0  0  0  0  0  0  0
    9.0633  -18.2985   26.2908 O   0  0  0  0  0  0  0  0  0  0  0  0
    8.5145  -17.2176   26.0140 O   0  0  0  0  0  0  0  0  0  0  0  0
  2  1  1  1
  2  3  1  0
  3  4  1  0
  4  5  1  0
  5  9  1  0
  6  5  2  0
  7  2  1  0
  7  8  2  0
 11 10  1  0
 11 12  2  0
 13 11  1  0
 14 13  1  0
 15 16  1  0
 15 14  1  0
 17 16  1  6
 17 18  1  0
 18  7  1  0
 19 21  1  0
 19 17  1  0
 20 19  2  0
 22 21  1  0
 22 28  1  0
 23 24  1  0
 22 23  1  6
 25 24  1  0
 26 25  1  0
 26 27  1  0
 28 30  1  0
 29 28  2  0
M  END
$$$$
