ERK.pdb
     RDKit          3D

 30 29  0  0  1  0  0  0  0  0999 V2000
   12.8520  -17.0162   17.3901 N   0  0  0  0  0  0  0  0  0  0  0  0
   12.3167  -18.0942   18.2397 C   0  0  1  0  0  0  0  0  0  0  0  0
   13.3326  -19.1833   18.3226 C   0  0  0  0  0  0  0  0  0  0  0  0
   12.9435  -20.2960   19.2356 C   0  0  0  0  0  0  0  0  0  0  0  0
   13.9468  -21.3368   19.4473 C   0  0  0  0  0  0  0  0  0  0  0  0
   14.3037  -21.6698   20.5971 O   0  0  0  0  0  0  0  0  0  0  0  0
   11.9820  -17.5317   19.5813 C   0  0  0  0  0  0  0  0  0  0  0  0
   12.8714  -16.8812   20.1760 O   0  0  0  0  0  0  0  0  0  0  0  0
   14.5697  -22.0238   18.4020 O   0  0  0  0  0  0  0  0  0  0  0  0
    9.1316  -12.5941   20.5282 N   0  0  0  0  0  0  0  0  0  0  0  0
    8.3075  -12.9909   19.4409 C   0  0  0  0  0  0  0  0  0  0  0  0
    8.5604  -12.5354   18.2665 N   0  0  0  0  0  0  0  0  0  0  0  0
    7.2136  -13.8780   19.6233 N   0  0  0  0  0  0  0  0  0  0  0  0
    7.3126  -15.0030   20.5481 C   0  0  0  0  0  0  0  0  0  0  0  0
    8.7647  -15.3998   20.6299 C   0  0  0  0  0  0  0  0  0  0  0  0
    8.8969  -16.7119   21.3826 C   0  0  0  0  0  0  0  0  0  0  0  0
   10.3294  -17.1629   21.4408 C   0  0  2  0  0  0  0  0  0  0  0  0
   10.7095  -17.7141   20.1813 N   0  0  0  0  0  0  0  0  0  0  0  0
   10.5654  -18.1153   22.5655 C   0  0  0  0  0  0  0  0  0  0  0  0
   10.5768  -19.3701   22.3775 O   0  0  0  0  0  0  0  0  0  0  0  0
    7.9669  -12.6876   17.4397 N   0  0  0  0  0  0  0  0  0  0  0  0
   10.7839  -17.6694   23.8724 C   0  0  1  0  0  0  0  0  0  0  0  0
   11.1707  -18.6179   24.9568 C   0  0  0  0  0  0  0  0  0  0  0  0
   12.4320  -19.2785   24.5849 C   0  0  0  0  0  0  0  0  0  0  0  0
   13.1563  -20.2117   25.4084 C   0  0  0  0  0  0  0  0  0  0  0  0
   14.4155  -20.8554   25.0446 C   0  0  0  0  0  0  0  0  0  0  0  0
   14.9067  -21.8822   26.0507 N   0  0  0  0  0  0  0  0  0  0  0  0
   16.1666  -22.3985   25.5563 C   0  0  0  0  0  0  0  0  0  0  0  0
   11.1908  -17.7546   26.1596 O   0  0  0  0  0  0  0  0  0  0  0  0
   11.0631  -16.5212   26.0674 O   0  0  0  0  0  0  0  0  0  0  0  0
  2  1  1  6
  2  3  1  0
  3  4  1  0
  4  5  1  0
  5  9  1  0
  6  5  2  0
  7  2  1  0
  7  8  2  0
 11 10  1  0
 11 12  2  0
 13 11  1  0
 14 13  1  0
 15 16  1  0
 15 14  1  0
 17 16  1  6
 17 18  1  0
 18  7  1  0
 19 21  1  0
 19 17  1  0
 20 19  2  0
 22 21  1  0
 22 28  1  0
 23 24  1  0
 22 23  1  6
 25 24  1  0
 26 25  1  0
 26 27  1  0
 28 30  1  0
 29 28  2  0
M  END
$$$$
