ERK.pdb
     RDKit          3D

 30 29  0  0  1  0  0  0  0  0999 V2000
   16.0982  -13.8643   17.2932 N   0  0  0  0  0  0  0  0  0  0  0  0
   15.0908  -14.9374   17.3555 C   0  0  1  0  0  0  0  0  0  0  0  0
   15.7944  -16.2408   17.5321 C   0  0  0  0  0  0  0  0  0  0  0  0
   14.8725  -17.3996   17.7056 C   0  0  0  0  0  0  0  0  0  0  0  0
   15.5044  -18.7052   17.8820 C   0  0  0  0  0  0  0  0  0  0  0  0
   16.7458  -18.8199   17.9604 O   0  0  0  0  0  0  0  0  0  0  0  0
   14.1464  -14.6500   18.4752 C   0  0  0  0  0  0  0  0  0  0  0  0
   14.6386  -14.3742   19.5930 O   0  0  0  0  0  0  0  0  0  0  0  0
   14.7835  -19.8985   17.9743 O   0  0  0  0  0  0  0  0  0  0  0  0
    7.1326  -15.3607   20.4888 N   0  0  0  0  0  0  0  0  0  0  0  0
    6.7439  -14.0603   20.9090 C   0  0  0  0  0  0  0  0  0  0  0  0
    5.9094  -13.9403   21.8786 N   0  0  0  0  0  0  0  0  0  0  0  0
    7.2564  -12.8934   20.2827 N   0  0  0  0  0  0  0  0  0  0  0  0
    8.2673  -12.9930   19.2345 C   0  0  0  0  0  0  0  0  0  0  0  0
    9.4432  -13.7444   19.8048 C   0  0  0  0  0  0  0  0  0  0  0  0
   10.5295  -13.8741   18.7518 C   0  0  0  0  0  0  0  0  0  0  0  0
   11.7970  -14.4236   19.3437 C   0  0  2  0  0  0  0  0  0  0  0  0
   12.7385  -14.6818   18.3036 N   0  0  0  0  0  0  0  0  0  0  0  0
   11.5394  -15.6317   20.1814 C   0  0  0  0  0  0  0  0  0  0  0  0
   11.3705  -16.7751   19.6579 O   0  0  0  0  0  0  0  0  0  0  0  0
    5.5764  -13.0428   22.2561 N   0  0  0  0  0  0  0  0  0  0  0  0
   11.4728  -15.5583   21.5760 C   0  0  2  0  0  0  0  0  0  0  0  0
   11.3286  -16.7883   22.4074 C   0  0  0  0  0  0  0  0  0  0  0  0
   11.3416  -16.4074   23.8287 C   0  0  0  0  0  0  0  0  0  0  0  0
   11.3747  -17.3274   24.9360 C   0  0  0  0  0  0  0  0  0  0  0  0
   11.4503  -16.9484   26.3442 C   0  0  0  0  0  0  0  0  0  0  0  0
   11.4575  -18.1223   27.3084 N   0  0  0  0  0  0  0  0  0  0  0  0
   11.4611  -17.5755   28.6498 C   0  0  0  0  0  0  0  0  0  0  0  0
   10.0845  -17.3973   21.8838 O   0  0  0  0  0  0  0  0  0  0  0  0
    9.0855  -16.7015   21.6312 O   0  0  0  0  0  0  0  0  0  0  0  0
  2  1  1  1
  2  3  1  0
  3  4  1  0
  4  5  1  0
  5  9  1  0
  6  5  2  0
  7  2  1  0
  7  8  2  0
 11 10  1  0
 11 12  2  0
 13 11  1  0
 14 13  1  0
 15 16  1  0
 15 14  1  0
 17 16  1  6
 17 18  1  0
 18  7  1  0
 19 21  1  0
 19 17  1  0
 20 19  2  0
 22 21  1  0
 22 28  1  0
 23 24  1  0
 22 23  1  1
 25 24  1  0
 26 25  1  0
 26 27  1  0
 28 30  1  0
 29 28  2  0
M  END
$$$$
