WMP.pdb
     RDKit          3D

 30 32  0  0  1  0  0  0  0  0999 V2000
   25.2021  -21.4179   -8.2712 N   0  0  0  0  0  0  0  0  0  0  0  0
   26.0281  -20.6076   -9.1616 C   0  0  1  0  0  0  0  0  0  0  0  0
   27.4653  -20.8581   -8.7868 C   0  0  0  0  0  0  0  0  0  0  0  0
   27.7740  -19.8190   -7.7322 C   0  0  0  0  0  0  0  0  0  0  0  0
   27.3731  -18.5102   -7.7102 C   0  0  0  0  0  0  0  0  0  0  0  0
   27.8653  -17.9417   -6.6014 N   0  0  0  0  0  0  0  0  0  0  0  0
   28.5843  -18.8375   -5.8827 C   0  0  0  0  0  0  0  0  0  0  0  0
   29.2790  -18.7251   -4.6791 C   0  0  0  0  0  0  0  0  0  0  0  0
   29.9407  -19.8196   -4.1602 C   0  0  0  0  0  0  0  0  0  0  0  0
   29.8769  -20.9944   -4.8797 C   0  0  0  0  0  0  0  0  0  0  0  0
   29.1918  -21.1120   -6.0701 C   0  0  0  0  0  0  0  0  0  0  0  0
   28.5255  -20.0152   -6.5947 C   0  0  0  0  0  0  0  0  0  0  0  0
   25.7188  -20.9467  -10.5828 C   0  0  0  0  0  0  0  0  0  0  0  0
   25.9412  -22.1010  -11.0496 O   0  0  0  0  0  0  0  0  0  0  0  0
   20.7230  -18.2459  -14.1279 C   0  0  0  0  0  0  0  0  0  0  0  0
   21.5321  -19.4031  -15.1723 S   0  0  0  0  0  0  0  0  0  0  0  0
   23.0999  -20.0802  -14.6637 C   0  0  0  0  0  0  0  0  0  0  0  0
   23.5284  -19.8623  -13.2714 C   0  0  0  0  0  0  0  0  0  0  0  0
   24.8720  -20.3842  -12.8778 C   0  0  2  0  0  0  0  0  0  0  0  0
   25.1624  -20.0127  -11.4888 N   0  0  0  0  0  0  0  0  0  0  0  0
   25.9566  -20.0576  -13.8113 C   0  0  0  0  0  0  0  0  0  0  0  0
   26.2877  -18.8130  -13.8790 O   0  0  0  0  0  0  0  0  0  0  0  0
   26.7093  -20.8968  -14.6663 N   0  0  0  0  0  0  0  0  0  0  0  0
   26.7500  -22.3344  -14.5752 C   0  0  0  0  0  0  0  0  0  0  0  0
   27.7771  -22.8003  -15.6021 C   0  0  0  0  0  0  0  0  0  0  0  0
   27.6348  -21.7267  -16.6418 C   0  0  0  0  0  0  0  0  0  0  0  0
   27.5388  -20.4789  -15.7524 C   0  0  1  0  0  0  0  0  0  0  0  0
   27.0085  -19.3660  -16.5717 C   0  0  0  0  0  0  0  0  0  0  0  0
   27.8664  -18.7055  -17.4234 O   0  0  0  0  0  0  0  0  0  0  0  0
   25.8232  -19.0308  -16.4992 O   0  0  0  0  0  0  0  0  0  0  0  0
  2  1  1  1
  2 13  1  0
  2  3  1  0
  3  4  1  0
  4 12  1  0
  4  5  2  0
  5  6  1  0
  7  6  1  0
  7  8  2  0
  9  8  1  0
 10  9  2  0
 11 12  2  0
 11 10  1  0
 12  7  1  0
 13 14  2  0
 16 15  1  0
 17 16  1  0
 18 17  1  0
 19 18  1  6
 20 19  1  0
 20 13  1  0
 21 19  1  0
 21 23  1  0
 22 21  2  0
 23 24  1  0
 25 24  1  0
 26 27  1  0
 26 25  1  0
 27 23  1  0
 27 28  1  6
 29 28  1  0
 30 28  2  0
M  END
$$$$
