WMP.pdb
     RDKit          3D

 30 32  0  0  1  0  0  0  0  0999 V2000
   25.3411  -19.3712  -12.4761 N   0  0  0  0  0  0  0  0  0  0  0  0
   25.1298  -20.0346  -11.1928 C   0  0  1  0  0  0  0  0  0  0  0  0
   24.6312  -21.4252  -11.4871 C   0  0  0  0  0  0  0  0  0  0  0  0
   23.1887  -21.2367  -11.9005 C   0  0  0  0  0  0  0  0  0  0  0  0
   22.6402  -21.4600  -13.1348 C   0  0  0  0  0  0  0  0  0  0  0  0
   21.3343  -21.1676  -13.0701 N   0  0  0  0  0  0  0  0  0  0  0  0
   20.9971  -20.7552  -11.8242 C   0  0  0  0  0  0  0  0  0  0  0  0
   19.7828  -20.3481  -11.2731 C   0  0  0  0  0  0  0  0  0  0  0  0
   19.7196  -19.9705   -9.9471 C   0  0  0  0  0  0  0  0  0  0  0  0
   20.8915  -20.0175   -9.2215 C   0  0  0  0  0  0  0  0  0  0  0  0
   22.0951  -20.4190   -9.7605 C   0  0  0  0  0  0  0  0  0  0  0  0
   22.1630  -20.7994  -11.0919 C   0  0  0  0  0  0  0  0  0  0  0  0
   26.3958  -20.0145  -10.4010 C   0  0  0  0  0  0  0  0  0  0  0  0
   27.5220  -20.1810  -10.9522 O   0  0  0  0  0  0  0  0  0  0  0  0
   28.5231  -19.1242   -3.0154 C   0  0  0  0  0  0  0  0  0  0  0  0
   28.3957  -18.1541   -4.4739 S   0  0  0  0  0  0  0  0  0  0  0  0
   28.6368  -18.9352   -6.0573 C   0  0  0  0  0  0  0  0  0  0  0  0
   27.4630  -19.1039   -6.9310 C   0  0  0  0  0  0  0  0  0  0  0  0
   27.6877  -19.7335   -8.2673 C   0  0  2  0  0  0  0  0  0  0  0  0
   26.4198  -19.8089   -9.0011 N   0  0  0  0  0  0  0  0  0  0  0  0
   28.4221  -21.0039   -8.2332 C   0  0  0  0  0  0  0  0  0  0  0  0
   27.7972  -22.0035   -7.7103 O   0  0  0  0  0  0  0  0  0  0  0  0
   29.7261  -21.3173   -8.6840 N   0  0  0  0  0  0  0  0  0  0  0  0
   30.5251  -20.4704   -9.5331 C   0  0  0  0  0  0  0  0  0  0  0  0
   31.7878  -21.2607   -9.8611 C   0  0  0  0  0  0  0  0  0  0  0  0
   31.9291  -22.0854   -8.6146 C   0  0  0  0  0  0  0  0  0  0  0  0
   30.4695  -22.4992   -8.3792 C   0  0  1  0  0  0  0  0  0  0  0  0
   30.3465  -22.9921   -6.9888 C   0  0  0  0  0  0  0  0  0  0  0  0
   30.9382  -24.1913   -6.6582 O   0  0  0  0  0  0  0  0  0  0  0  0
   29.7282  -22.3477   -6.1373 O   0  0  0  0  0  0  0  0  0  0  0  0
  2  1  1  6
  2 13  1  0
  2  3  1  0
  3  4  1  0
  4 12  1  0
  4  5  2  0
  5  6  1  0
  7  6  1  0
  7  8  2  0
  9  8  1  0
 10  9  2  0
 11 12  2  0
 11 10  1  0
 12  7  1  0
 13 14  2  0
 16 15  1  0
 17 16  1  0
 18 17  1  0
 19 18  1  1
 20 19  1  0
 20 13  1  0
 21 19  1  0
 21 23  1  0
 22 21  2  0
 23 24  1  0
 25 24  1  0
 26 27  1  0
 26 25  1  0
 27 23  1  0
 27 28  1  1
 29 28  1  0
 30 28  2  0
M  END
$$$$
