WMP.pdb
     RDKit          3D

 30 32  0  0  1  0  0  0  0  0999 V2000
   25.4442  -20.4207   -9.1290 N   0  0  0  0  0  0  0  0  0  0  0  0
   26.8082  -20.4204   -9.6498 C   0  0  1  0  0  0  0  0  0  0  0  0
   27.6653  -21.1576   -8.6543 C   0  0  0  0  0  0  0  0  0  0  0  0
   27.6192  -20.3078   -7.4041 C   0  0  0  0  0  0  0  0  0  0  0  0
   26.8750  -19.1785   -7.1917 C   0  0  0  0  0  0  0  0  0  0  0  0
   27.1308  -18.7372   -5.9529 N   0  0  0  0  0  0  0  0  0  0  0  0
   28.0263  -19.5431   -5.3328 C   0  0  0  0  0  0  0  0  0  0  0  0
   28.5961  -19.4998   -4.0610 C   0  0  0  0  0  0  0  0  0  0  0  0
   29.5019  -20.4682   -3.6781 C   0  0  0  0  0  0  0  0  0  0  0  0
   29.8018  -21.4504   -4.5985 C   0  0  0  0  0  0  0  0  0  0  0  0
   29.2420  -21.4988   -5.8573 C   0  0  0  0  0  0  0  0  0  0  0  0
   28.3314  -20.5283   -6.2460 C   0  0  0  0  0  0  0  0  0  0  0  0
   26.8268  -21.0296  -11.0132 C   0  0  0  0  0  0  0  0  0  0  0  0
   26.9130  -22.2809  -11.1761 O   0  0  0  0  0  0  0  0  0  0  0  0
   25.6526  -24.5392  -13.9121 C   0  0  0  0  0  0  0  0  0  0  0  0
   24.1170  -23.7682  -14.2754 S   0  0  0  0  0  0  0  0  0  0  0  0
   23.9674  -22.0029  -14.0831 C   0  0  0  0  0  0  0  0  0  0  0  0
   24.7492  -21.3548  -13.0162 C   0  0  0  0  0  0  0  0  0  0  0  0
   26.0724  -20.7719  -13.3933 C   0  0  2  0  0  0  0  0  0  0  0  0
   26.7486  -20.2584  -12.1972 N   0  0  0  0  0  0  0  0  0  0  0  0
   26.0277  -19.8095  -14.5005 C   0  0  0  0  0  0  0  0  0  0  0  0
   24.8545  -19.3993  -14.8451 O   0  0  0  0  0  0  0  0  0  0  0  0
   27.0770  -19.2505  -15.2676 N   0  0  0  0  0  0  0  0  0  0  0  0
   28.4670  -19.6076  -15.1376 C   0  0  0  0  0  0  0  0  0  0  0  0
   29.2386  -18.6713  -16.0619 C   0  0  0  0  0  0  0  0  0  0  0  0
   28.2160  -18.4393  -17.1364 C   0  0  0  0  0  0  0  0  0  0  0  0
   26.9480  -18.2599  -16.2896 C   0  0  1  0  0  0  0  0  0  0  0  0
   25.7732  -18.4061  -17.1783 C   0  0  0  0  0  0  0  0  0  0  0  0
   25.5213  -17.4211  -18.1078 O   0  0  0  0  0  0  0  0  0  0  0  0
   25.0300  -19.3875  -17.0946 O   0  0  0  0  0  0  0  0  0  0  0  0
  2  1  1  1
  2 13  1  0
  2  3  1  0
  3  4  1  0
  4 12  1  0
  4  5  2  0
  5  6  1  0
  7  6  1  0
  7  8  2  0
  9  8  1  0
 10  9  2  0
 11 12  2  0
 11 10  1  0
 12  7  1  0
 13 14  2  0
 16 15  1  0
 17 16  1  0
 18 17  1  0
 19 18  1  1
 20 19  1  0
 20 13  1  0
 21 19  1  0
 21 23  1  0
 22 21  2  0
 23 24  1  0
 25 24  1  0
 26 27  1  0
 26 25  1  0
 27 23  1  0
 27 28  1  6
 29 28  1  0
 30 28  2  0
M  END
$$$$
