WMP.pdb
     RDKit          3D

 30 32  0  0  1  0  0  0  0  0999 V2000
   26.0109  -17.7346  -14.7849 N   0  0  0  0  0  0  0  0  0  0  0  0
   25.4374  -18.7613  -13.9197 C   0  0  1  0  0  0  0  0  0  0  0  0
   25.1171  -19.9487  -14.7894 C   0  0  0  0  0  0  0  0  0  0  0  0
   23.6220  -19.8749  -15.0049 C   0  0  0  0  0  0  0  0  0  0  0  0
   22.9621  -19.4226  -16.1159 C   0  0  0  0  0  0  0  0  0  0  0  0
   21.6456  -19.5274  -15.8906 N   0  0  0  0  0  0  0  0  0  0  0  0
   21.4098  -20.0383  -14.6580 C   0  0  0  0  0  0  0  0  0  0  0  0
   20.2271  -20.3285  -13.9791 C   0  0  0  0  0  0  0  0  0  0  0  0
   20.2754  -20.8536  -12.7036 C   0  0  0  0  0  0  0  0  0  0  0  0
   21.5231  -21.0675  -12.1566 C   0  0  0  0  0  0  0  0  0  0  0  0
   22.6961  -20.7827  -12.8225 C   0  0  0  0  0  0  0  0  0  0  0  0
   22.6522  -20.2555  -14.1040 C   0  0  0  0  0  0  0  0  0  0  0  0
   26.3897  -19.0772  -12.8135 C   0  0  0  0  0  0  0  0  0  0  0  0
   27.6366  -19.1456  -13.0150 O   0  0  0  0  0  0  0  0  0  0  0  0
   27.5422  -19.1568   -4.9137 C   0  0  0  0  0  0  0  0  0  0  0  0
   26.4679  -19.2553   -6.2994 S   0  0  0  0  0  0  0  0  0  0  0  0
   27.1526  -19.6308   -7.9011 C   0  0  0  0  0  0  0  0  0  0  0  0
   26.3222  -19.3639   -9.0881 C   0  0  0  0  0  0  0  0  0  0  0  0
   26.9329  -19.6289  -10.4258 C   0  0  2  0  0  0  0  0  0  0  0  0
   25.9668  -19.3158  -11.4843 N   0  0  0  0  0  0  0  0  0  0  0  0
   27.5509  -20.9526  -10.5686 C   0  0  0  0  0  0  0  0  0  0  0  0
   26.7372  -21.9441  -10.7031 O   0  0  0  0  0  0  0  0  0  0  0  0
   28.9153  -21.3270  -10.5799 N   0  0  0  0  0  0  0  0  0  0  0  0
   30.0188  -20.4007  -10.6078 C   0  0  0  0  0  0  0  0  0  0  0  0
   31.2831  -21.2438  -10.7398 C   0  0  0  0  0  0  0  0  0  0  0  0
   30.8592  -22.4918  -10.0211 C   0  0  0  0  0  0  0  0  0  0  0  0
   29.4310  -22.6597  -10.5588 C   0  0  1  0  0  0  0  0  0  0  0  0
   28.7137  -23.6099   -9.6791 C   0  0  0  0  0  0  0  0  0  0  0  0
   27.7486  -23.1210   -8.8263 O   0  0  0  0  0  0  0  0  0  0  0  0
   28.9694  -24.8168   -9.7031 O   0  0  0  0  0  0  0  0  0  0  0  0
  2  1  1  6
  2 13  1  0
  2  3  1  0
  3  4  1  0
  4 12  1  0
  4  5  2  0
  5  6  1  0
  7  6  1  0
  7  8  2  0
  9  8  1  0
 10  9  2  0
 11 12  2  0
 11 10  1  0
 12  7  1  0
 13 14  2  0
 16 15  1  0
 17 16  1  0
 18 17  1  0
 19 18  1  1
 20 19  1  0
 20 13  1  0
 21 19  1  0
 21 23  1  0
 22 21  2  0
 23 24  1  0
 25 24  1  0
 26 27  1  0
 26 25  1  0
 27 23  1  0
 27 28  1  1
 29 28  1  0
 30 28  2  0
M  END
$$$$
