WMP.pdb
     RDKit          3D

 30 32  0  0  1  0  0  0  0  0999 V2000
   25.0184  -19.1175   -8.9792 N   0  0  0  0  0  0  0  0  0  0  0  0
   26.0670  -19.9351   -9.5823 C   0  0  1  0  0  0  0  0  0  0  0  0
   26.5729  -20.8694   -8.5146 C   0  0  0  0  0  0  0  0  0  0  0  0
   27.2272  -19.9667   -7.4927 C   0  0  0  0  0  0  0  0  0  0  0  0
   27.1311  -18.6040   -7.4025 C   0  0  0  0  0  0  0  0  0  0  0  0
   27.8654  -18.2024   -6.3563 N   0  0  0  0  0  0  0  0  0  0  0  0
   28.4489  -19.2620   -5.7459 C   0  0  0  0  0  0  0  0  0  0  0  0
   29.2897  -19.3532   -4.6373 C   0  0  0  0  0  0  0  0  0  0  0  0
   29.7499  -20.5859   -4.2207 C   0  0  0  0  0  0  0  0  0  0  0  0
   29.3427  -21.6880   -4.9427 C   0  0  0  0  0  0  0  0  0  0  0  0
   28.5117  -21.6046   -6.0394 C   0  0  0  0  0  0  0  0  0  0  0  0
   28.0467  -20.3684   -6.4612 C   0  0  0  0  0  0  0  0  0  0  0  0
   25.5268  -20.6428  -10.7813 C   0  0  0  0  0  0  0  0  0  0  0  0
   24.2917  -20.8865  -10.9034 O   0  0  0  0  0  0  0  0  0  0  0  0
   29.4659  -22.6272  -16.0771 C   0  0  0  0  0  0  0  0  0  0  0  0
   28.0575  -21.7938  -16.7144 S   0  0  0  0  0  0  0  0  0  0  0  0
   26.7356  -21.3532  -15.6035 C   0  0  0  0  0  0  0  0  0  0  0  0
   27.0286  -21.3160  -14.1604 C   0  0  0  0  0  0  0  0  0  0  0  0
   25.8984  -20.9879  -13.2396 C   0  0  2  0  0  0  0  0  0  0  0  0
   26.3490  -21.0804  -11.8467 N   0  0  0  0  0  0  0  0  0  0  0  0
   24.6559  -21.7231  -13.5042 C   0  0  0  0  0  0  0  0  0  0  0  0
   24.7147  -23.0029  -13.3561 O   0  0  0  0  0  0  0  0  0  0  0  0
   23.3835  -21.2517  -13.9050 N   0  0  0  0  0  0  0  0  0  0  0  0
   23.0112  -19.8616  -13.9802 C   0  0  0  0  0  0  0  0  0  0  0  0
   21.5267  -19.8335  -14.3294 C   0  0  0  0  0  0  0  0  0  0  0  0
   21.4099  -21.0913  -15.1408 C   0  0  0  0  0  0  0  0  0  0  0  0
   22.2683  -22.0511  -14.3046 C   0  0  1  0  0  0  0  0  0  0  0  0
   22.5919  -23.2297  -15.1395 C   0  0  0  0  0  0  0  0  0  0  0  0
   23.7699  -23.2302  -15.8535 O   0  0  0  0  0  0  0  0  0  0  0  0
   21.8271  -24.1962  -15.2000 O   0  0  0  0  0  0  0  0  0  0  0  0
  2  1  1  1
  2 13  1  0
  2  3  1  0
  3  4  1  0
  4 12  1  0
  4  5  2  0
  5  6  1  0
  7  6  1  0
  7  8  2  0
  9  8  1  0
 10  9  2  0
 11 12  2  0
 11 10  1  0
 12  7  1  0
 13 14  2  0
 16 15  1  0
 17 16  1  0
 18 17  1  0
 19 18  1  6
 20 19  1  0
 20 13  1  0
 21 19  1  0
 21 23  1  0
 22 21  2  0
 23 24  1  0
 25 24  1  0
 26 27  1  0
 26 25  1  0
 27 23  1  0
 27 28  1  6
 29 28  1  0
 30 28  2  0
M  END
$$$$
