WMP.pdb
     RDKit          3D

 30 32  0  0  1  0  0  0  0  0999 V2000
   24.4662  -19.9279   -8.7231 N   0  0  0  0  0  0  0  0  0  0  0  0
   25.8041  -20.1360   -9.2694 C   0  0  1  0  0  0  0  0  0  0  0  0
   26.3724  -21.3606   -8.6014 C   0  0  0  0  0  0  0  0  0  0  0  0
   26.6284  -20.9351   -7.1729 C   0  0  0  0  0  0  0  0  0  0  0  0
   25.7874  -21.0683   -6.1009 C   0  0  0  0  0  0  0  0  0  0  0  0
   26.4015  -20.5613   -5.0235 N   0  0  0  0  0  0  0  0  0  0  0  0
   27.6307  -20.0935   -5.3487 C   0  0  0  0  0  0  0  0  0  0  0  0
   28.6294  -19.4869   -4.5879 C   0  0  0  0  0  0  0  0  0  0  0  0
   29.8114  -19.0989   -5.1854 C   0  0  0  0  0  0  0  0  0  0  0  0
   29.9430  -19.3384   -6.5371 C   0  0  0  0  0  0  0  0  0  0  0  0
   28.9596  -19.9376   -7.2949 C   0  0  0  0  0  0  0  0  0  0  0  0
   27.7709  -20.3293   -6.6987 C   0  0  0  0  0  0  0  0  0  0  0  0
   25.7281  -20.2538  -10.7563 C   0  0  0  0  0  0  0  0  0  0  0  0
   24.6660  -20.6221  -11.3360 O   0  0  0  0  0  0  0  0  0  0  0  0
   30.6658  -17.5559  -14.6366 C   0  0  0  0  0  0  0  0  0  0  0  0
   29.2571  -17.7817  -15.6607 S   0  0  0  0  0  0  0  0  0  0  0  0
   27.8285  -18.6149  -14.9972 C   0  0  0  0  0  0  0  0  0  0  0  0
   27.8373  -18.9705  -13.5678 C   0  0  0  0  0  0  0  0  0  0  0  0
   26.6217  -19.6466  -13.0219 C   0  0  2  0  0  0  0  0  0  0  0  0
   26.8234  -19.9634  -11.6039 N   0  0  0  0  0  0  0  0  0  0  0  0
   26.1426  -20.7851  -13.8148 C   0  0  0  0  0  0  0  0  0  0  0  0
   26.8407  -21.8661  -13.7296 O   0  0  0  0  0  0  0  0  0  0  0  0
   25.0241  -20.8930  -14.6746 N   0  0  0  0  0  0  0  0  0  0  0  0
   23.9926  -19.8953  -14.8062 C   0  0  0  0  0  0  0  0  0  0  0  0
   22.9387  -20.4881  -15.7358 C   0  0  0  0  0  0  0  0  0  0  0  0
   23.7962  -21.3636  -16.6029 C   0  0  0  0  0  0  0  0  0  0  0  0
   24.7280  -21.9822  -15.5511 C   0  0  1  0  0  0  0  0  0  0  0  0
   25.8897  -22.5738  -16.2523 C   0  0  0  0  0  0  0  0  0  0  0  0
   25.7216  -23.7682  -16.9176 O   0  0  0  0  0  0  0  0  0  0  0  0
   26.9895  -22.0145  -16.2458 O   0  0  0  0  0  0  0  0  0  0  0  0
  2  1  1  1
  2 13  1  0
  2  3  1  0
  3  4  1  0
  4 12  1  0
  4  5  2  0
  5  6  1  0
  7  6  1  0
  7  8  2  0
  9  8  1  0
 10  9  2  0
 11 12  2  0
 11 10  1  0
 12  7  1  0
 13 14  2  0
 16 15  1  0
 17 16  1  0
 18 17  1  0
 19 18  1  6
 20 19  1  0
 20 13  1  0
 21 19  1  0
 21 23  1  0
 22 21  2  0
 23 24  1  0
 25 24  1  0
 26 27  1  0
 26 25  1  0
 27 23  1  0
 27 28  1  6
 29 28  1  0
 30 28  2  0
M  END
$$$$
