WMP.pdb
     RDKit          3D

 30 32  0  0  1  0  0  0  0  0999 V2000
   19.8772  -20.4623  -16.7031 N   0  0  0  0  0  0  0  0  0  0  0  0
   20.6030  -19.3996  -16.0135 C   0  0  1  0  0  0  0  0  0  0  0  0
   19.7331  -18.9315  -14.8763 C   0  0  0  0  0  0  0  0  0  0  0  0
   18.7506  -17.9741  -15.5130 C   0  0  0  0  0  0  0  0  0  0  0  0
   18.9770  -16.6780  -15.8914 C   0  0  0  0  0  0  0  0  0  0  0  0
   17.8423  -16.1909  -16.4110 N   0  0  0  0  0  0  0  0  0  0  0  0
   16.8645  -17.1286  -16.3894 C   0  0  0  0  0  0  0  0  0  0  0  0
   15.5354  -17.1002  -16.8098 C   0  0  0  0  0  0  0  0  0  0  0  0
   14.7429  -18.2211  -16.6666 C   0  0  0  0  0  0  0  0  0  0  0  0
   15.3243  -19.3362  -16.1004 C   0  0  0  0  0  0  0  0  0  0  0  0
   16.6376  -19.3707  -15.6828 C   0  0  0  0  0  0  0  0  0  0  0  0
   17.4372  -18.2471  -15.8251 C   0  0  0  0  0  0  0  0  0  0  0  0
   21.9360  -19.9061  -15.5698 C   0  0  0  0  0  0  0  0  0  0  0  0
   22.0558  -21.0144  -14.9722 O   0  0  0  0  0  0  0  0  0  0  0  0
   29.8954  -19.2821  -16.3709 C   0  0  0  0  0  0  0  0  0  0  0  0
   28.2381  -18.8976  -16.8064 S   0  0  0  0  0  0  0  0  0  0  0  0
   26.9095  -19.5293  -15.8008 C   0  0  0  0  0  0  0  0  0  0  0  0
   25.5326  -19.1390  -16.1494 C   0  0  0  0  0  0  0  0  0  0  0  0
   24.4271  -19.7167  -15.3267 C   0  0  2  0  0  0  0  0  0  0  0  0
   23.1375  -19.1906  -15.7871 N   0  0  0  0  0  0  0  0  0  0  0  0
   24.6197  -19.6102  -13.8756 C   0  0  0  0  0  0  0  0  0  0  0  0
   24.5302  -18.4230  -13.3798 O   0  0  0  0  0  0  0  0  0  0  0  0
   24.8954  -20.6117  -12.9149 N   0  0  0  0  0  0  0  0  0  0  0  0
   24.8867  -22.0277  -13.1820 C   0  0  0  0  0  0  0  0  0  0  0  0
   25.1102  -22.7186  -11.8407 C   0  0  0  0  0  0  0  0  0  0  0  0
   25.9562  -21.6950  -11.1403 C   0  0  0  0  0  0  0  0  0  0  0  0
   25.2310  -20.4025  -11.5416 C   0  0  1  0  0  0  0  0  0  0  0  0
   26.1340  -19.2615  -11.2698 C   0  0  0  0  0  0  0  0  0  0  0  0
   26.1636  -18.7306   -9.9990 O   0  0  0  0  0  0  0  0  0  0  0  0
   26.8490  -18.7899  -12.1581 O   0  0  0  0  0  0  0  0  0  0  0  0
  2  1  1  1
  2 13  1  0
  2  3  1  0
  3  4  1  0
  4 12  1  0
  4  5  2  0
  5  6  1  0
  7  6  1  0
  7  8  2  0
  9  8  1  0
 10  9  2  0
 11 12  2  0
 11 10  1  0
 12  7  1  0
 13 14  2  0
 16 15  1  0
 17 16  1  0
 18 17  1  0
 19 18  1  6
 20 19  1  0
 20 13  1  0
 21 19  1  0
 21 23  1  0
 22 21  2  0
 23 24  1  0
 25 24  1  0
 26 27  1  0
 26 25  1  0
 27 23  1  0
 27 28  1  6
 29 28  1  0
 30 28  2  0
M  END
$$$$
