WMP.pdb
     RDKit          3D

 30 32  0  0  1  0  0  0  0  0999 V2000
   22.5629  -19.2528  -12.3588 N   0  0  0  0  0  0  0  0  0  0  0  0
   23.7265  -20.1329  -12.3040 C   0  0  1  0  0  0  0  0  0  0  0  0
   23.2400  -21.4874  -11.8594 C   0  0  0  0  0  0  0  0  0  0  0  0
   23.2065  -21.4070  -10.3495 C   0  0  0  0  0  0  0  0  0  0  0  0
   22.1434  -21.6616   -9.5255 C   0  0  0  0  0  0  0  0  0  0  0  0
   22.5412  -21.4710   -8.2604 N   0  0  0  0  0  0  0  0  0  0  0  0
   23.8425  -21.0959   -8.2190 C   0  0  0  0  0  0  0  0  0  0  0  0
   24.6911  -20.7879   -7.1564 C   0  0  0  0  0  0  0  0  0  0  0  0
   26.0005  -20.4272   -7.4021 C   0  0  0  0  0  0  0  0  0  0  0  0
   26.4078  -20.3899   -8.7192 C   0  0  0  0  0  0  0  0  0  0  0  0
   25.5737  -20.6932   -9.7740 C   0  0  0  0  0  0  0  0  0  0  0  0
   24.2579  -21.0564   -9.5318 C   0  0  0  0  0  0  0  0  0  0  0  0
   24.4046  -20.1545  -13.6345 C   0  0  0  0  0  0  0  0  0  0  0  0
   23.8501  -19.6767  -14.6660 O   0  0  0  0  0  0  0  0  0  0  0  0
   30.8358  -20.1501  -11.2822 C   0  0  0  0  0  0  0  0  0  0  0  0
   30.1073  -20.7653  -12.7571 S   0  0  0  0  0  0  0  0  0  0  0  0
   28.5835  -20.0453  -13.3359 C   0  0  0  0  0  0  0  0  0  0  0  0
   27.9956  -20.5764  -14.5777 C   0  0  0  0  0  0  0  0  0  0  0  0
   26.5820  -20.2005  -14.8825 C   0  0  2  0  0  0  0  0  0  0  0  0
   25.6954  -20.7017  -13.8268 N   0  0  0  0  0  0  0  0  0  0  0  0
   26.1327  -20.5428  -16.2372 C   0  0  0  0  0  0  0  0  0  0  0  0
   25.8868  -21.7904  -16.4521 O   0  0  0  0  0  0  0  0  0  0  0  0
   25.9246  -19.7163  -17.3666 N   0  0  0  0  0  0  0  0  0  0  0  0
   25.9065  -18.2757  -17.3353 C   0  0  0  0  0  0  0  0  0  0  0  0
   25.5258  -17.8209  -18.7405 C   0  0  0  0  0  0  0  0  0  0  0  0
   26.1074  -18.9370  -19.5591 C   0  0  0  0  0  0  0  0  0  0  0  0
   25.7073  -20.1521  -18.7101 C   0  0  1  0  0  0  0  0  0  0  0  0
   26.5197  -21.3098  -19.1470 C   0  0  0  0  0  0  0  0  0  0  0  0
   26.3330  -21.8057  -20.4185 O   0  0  0  0  0  0  0  0  0  0  0  0
   27.3494  -21.8259  -18.3934 O   0  0  0  0  0  0  0  0  0  0  0  0
  2  1  1  6
  2 13  1  0
  2  3  1  0
  3  4  1  0
  4 12  1  0
  4  5  2  0
  5  6  1  0
  7  6  1  0
  7  8  2  0
  9  8  1  0
 10  9  2  0
 11 12  2  0
 11 10  1  0
 12  7  1  0
 13 14  2  0
 16 15  1  0
 17 16  1  0
 18 17  1  0
 19 18  1  1
 20 19  1  0
 20 13  1  0
 21 19  1  0
 21 23  1  0
 22 21  2  0
 23 24  1  0
 25 24  1  0
 26 27  1  0
 26 25  1  0
 27 23  1  0
 27 28  1  6
 29 28  1  0
 30 28  2  0
M  END
$$$$
