WMP.pdb
     RDKit          3D

 30 32  0  0  1  0  0  0  0  0999 V2000
   26.7557  -17.6373  -17.3615 N   0  0  0  0  0  0  0  0  0  0  0  0
   26.1985  -17.4501  -16.0250 C   0  0  1  0  0  0  0  0  0  0  0  0
   24.8770  -16.7458  -16.1880 C   0  0  0  0  0  0  0  0  0  0  0  0
   25.2368  -15.3657  -16.6914 C   0  0  0  0  0  0  0  0  0  0  0  0
   24.5675  -14.6185  -17.6231 C   0  0  0  0  0  0  0  0  0  0  0  0
   25.2229  -13.4603  -17.7779 N   0  0  0  0  0  0  0  0  0  0  0  0
   26.3121  -13.4152  -16.9733 C   0  0  0  0  0  0  0  0  0  0  0  0
   27.2895  -12.4397  -16.7803 C   0  0  0  0  0  0  0  0  0  0  0  0
   28.3120  -12.6572  -15.8792 C   0  0  0  0  0  0  0  0  0  0  0  0
   28.3110  -13.8586  -15.2022 C   0  0  0  0  0  0  0  0  0  0  0  0
   27.3478  -14.8270  -15.3884 C   0  0  0  0  0  0  0  0  0  0  0  0
   26.3186  -14.6125  -16.2922 C   0  0  0  0  0  0  0  0  0  0  0  0
   26.0849  -18.7708  -15.3373 C   0  0  0  0  0  0  0  0  0  0  0  0
   25.9628  -19.8471  -15.9905 O   0  0  0  0  0  0  0  0  0  0  0  0
   25.6344  -20.1916   -8.2434 C   0  0  0  0  0  0  0  0  0  0  0  0
   26.5087  -21.2786   -9.3103 S   0  0  0  0  0  0  0  0  0  0  0  0
   26.0614  -21.3457  -11.0340 C   0  0  0  0  0  0  0  0  0  0  0  0
   26.2916  -20.1449  -11.8554 C   0  0  0  0  0  0  0  0  0  0  0  0
   25.8640  -20.2006  -13.2860 C   0  0  2  0  0  0  0  0  0  0  0  0
   26.1078  -18.9047  -13.9286 N   0  0  0  0  0  0  0  0  0  0  0  0
   24.5074  -20.7169  -13.5031 C   0  0  0  0  0  0  0  0  0  0  0  0
   23.5433  -19.9123  -13.2093 O   0  0  0  0  0  0  0  0  0  0  0  0
   24.0753  -21.9745  -13.9865 N   0  0  0  0  0  0  0  0  0  0  0  0
   24.9507  -23.0072  -14.4802 C   0  0  0  0  0  0  0  0  0  0  0  0
   24.0485  -24.1187  -15.0066 C   0  0  0  0  0  0  0  0  0  0  0  0
   22.8633  -23.9661  -14.0979 C   0  0  0  0  0  0  0  0  0  0  0  0
   22.7254  -22.4374  -14.0630 C   0  0  1  0  0  0  0  0  0  0  0  0
   21.8590  -22.0767  -12.9183 C   0  0  0  0  0  0  0  0  0  0  0  0
   22.4521  -21.7336  -11.7232 O   0  0  0  0  0  0  0  0  0  0  0  0
   20.6297  -22.0806  -13.0243 O   0  0  0  0  0  0  0  0  0  0  0  0
  2  1  1  6
  2 13  1  0
  2  3  1  0
  3  4  1  0
  4 12  1  0
  4  5  2  0
  5  6  1  0
  7  6  1  0
  7  8  2  0
  9  8  1  0
 10  9  2  0
 11 12  2  0
 11 10  1  0
 12  7  1  0
 13 14  2  0
 16 15  1  0
 17 16  1  0
 18 17  1  0
 19 18  1  1
 20 19  1  0
 20 13  1  0
 21 19  1  0
 21 23  1  0
 22 21  2  0
 23 24  1  0
 25 24  1  0
 26 27  1  0
 26 25  1  0
 27 23  1  0
 27 28  1  1
 29 28  1  0
 30 28  2  0
M  END
$$$$
