WMP.pdb
     RDKit          3D

 30 32  0  0  1  0  0  0  0  0999 V2000
   23.0440  -19.5563  -13.3265 N   0  0  0  0  0  0  0  0  0  0  0  0
   24.0290  -20.6065  -13.0844 C   0  0  1  0  0  0  0  0  0  0  0  0
   24.6335  -20.9659  -14.4164 C   0  0  0  0  0  0  0  0  0  0  0  0
   23.6831  -21.9829  -15.0078 C   0  0  0  0  0  0  0  0  0  0  0  0
   22.6339  -21.7480  -15.8552 C   0  0  0  0  0  0  0  0  0  0  0  0
   22.0531  -22.9223  -16.1355 N   0  0  0  0  0  0  0  0  0  0  0  0
   22.6878  -23.9349  -15.4971 C   0  0  0  0  0  0  0  0  0  0  0  0
   22.4608  -25.3104  -15.4733 C   0  0  0  0  0  0  0  0  0  0  0  0
   23.2769  -26.1309  -14.7213 C   0  0  0  0  0  0  0  0  0  0  0  0
   24.2981  -25.5296  -14.0161 C   0  0  0  0  0  0  0  0  0  0  0  0
   24.5278  -24.1704  -14.0354 C   0  0  0  0  0  0  0  0  0  0  0  0
   23.7108  -23.3426  -14.7898 C   0  0  0  0  0  0  0  0  0  0  0  0
   25.0341  -20.1337  -12.0860 C   0  0  0  0  0  0  0  0  0  0  0  0
   25.8528  -19.2094  -12.3602 O   0  0  0  0  0  0  0  0  0  0  0  0
   27.8509  -18.5553   -5.0155 C   0  0  0  0  0  0  0  0  0  0  0  0
   26.6086  -18.8193   -6.2285 S   0  0  0  0  0  0  0  0  0  0  0  0
   26.8666  -20.0663   -7.4751 C   0  0  0  0  0  0  0  0  0  0  0  0
   25.8273  -20.2406   -8.5043 C   0  0  0  0  0  0  0  0  0  0  0  0
   26.2815  -20.3757   -9.9213 C   0  0  2  0  0  0  0  0  0  0  0  0
   25.1348  -20.6795  -10.7842 N   0  0  0  0  0  0  0  0  0  0  0  0
   27.4202  -21.2804  -10.1189 C   0  0  0  0  0  0  0  0  0  0  0  0
   27.1975  -22.5284   -9.8819 O   0  0  0  0  0  0  0  0  0  0  0  0
   28.7456  -21.0042  -10.5301 N   0  0  0  0  0  0  0  0  0  0  0  0
   29.1871  -19.7485  -11.0823 C   0  0  0  0  0  0  0  0  0  0  0  0
   30.6419  -19.9491  -11.4944 C   0  0  0  0  0  0  0  0  0  0  0  0
   31.0787  -20.9657  -10.4797 C   0  0  0  0  0  0  0  0  0  0  0  0
   29.8589  -21.8979  -10.4662 C   0  0  1  0  0  0  0  0  0  0  0  0
   29.9340  -22.7412   -9.2519 C   0  0  0  0  0  0  0  0  0  0  0  0
   30.6837  -23.8961   -9.2950 O   0  0  0  0  0  0  0  0  0  0  0  0
   29.3402  -22.4230   -8.2182 O   0  0  0  0  0  0  0  0  0  0  0  0
  2  1  1  6
  2 13  1  0
  2  3  1  0
  3  4  1  0
  4 12  1  0
  4  5  2  0
  5  6  1  0
  7  6  1  0
  7  8  2  0
  9  8  1  0
 10  9  2  0
 11 12  2  0
 11 10  1  0
 12  7  1  0
 13 14  2  0
 16 15  1  0
 17 16  1  0
 18 17  1  0
 19 18  1  1
 20 19  1  0
 20 13  1  0
 21 19  1  0
 21 23  1  0
 22 21  2  0
 23 24  1  0
 25 24  1  0
 26 27  1  0
 26 25  1  0
 27 23  1  0
 27 28  1  1
 29 28  1  0
 30 28  2  0
M  END
$$$$
