WMP.pdb
     RDKit          3D

 30 32  0  0  1  0  0  0  0  0999 V2000
   26.3758  -22.9100  -11.9620 N   0  0  0  0  0  0  0  0  0  0  0  0
   25.9083  -21.6636  -11.3622 C   0  0  1  0  0  0  0  0  0  0  0  0
   26.8602  -20.5781  -11.7916 C   0  0  0  0  0  0  0  0  0  0  0  0
   27.9802  -20.6256  -10.7764 C   0  0  0  0  0  0  0  0  0  0  0  0
   29.2235  -21.1769  -10.9333 C   0  0  0  0  0  0  0  0  0  0  0  0
   29.9036  -21.0036   -9.7921 N   0  0  0  0  0  0  0  0  0  0  0  0
   29.1463  -20.3508   -8.8777 C   0  0  0  0  0  0  0  0  0  0  0  0
   29.4059  -19.9473   -7.5685 C   0  0  0  0  0  0  0  0  0  0  0  0
   28.4344  -19.2849   -6.8458 C   0  0  0  0  0  0  0  0  0  0  0  0
   27.2290  -19.0531   -7.4744 C   0  0  0  0  0  0  0  0  0  0  0  0
   26.9661  -19.4494   -8.7683 C   0  0  0  0  0  0  0  0  0  0  0  0
   27.9392  -20.1146   -9.4980 C   0  0  0  0  0  0  0  0  0  0  0  0
   24.4948  -21.4075  -11.7706 C   0  0  0  0  0  0  0  0  0  0  0  0
   24.0345  -21.8428  -12.8653 O   0  0  0  0  0  0  0  0  0  0  0  0
   17.9088  -22.9652   -8.8588 C   0  0  0  0  0  0  0  0  0  0  0  0
   19.6096  -22.5292   -8.8947 S   0  0  0  0  0  0  0  0  0  0  0  0
   20.0841  -20.9468   -9.5627 C   0  0  0  0  0  0  0  0  0  0  0  0
   21.5217  -20.6594   -9.7053 C   0  0  0  0  0  0  0  0  0  0  0  0
   22.1439  -20.9192  -11.0388 C   0  0  2  0  0  0  0  0  0  0  0  0
   23.5882  -20.6724  -10.9702 N   0  0  0  0  0  0  0  0  0  0  0  0
   21.4868  -20.2467  -12.1658 C   0  0  0  0  0  0  0  0  0  0  0  0
   21.5128  -18.9574  -12.1470 O   0  0  0  0  0  0  0  0  0  0  0  0
   20.8151  -20.7886  -13.2870 N   0  0  0  0  0  0  0  0  0  0  0  0
   20.8857  -22.1685  -13.6962 C   0  0  0  0  0  0  0  0  0  0  0  0
   20.1181  -22.2660  -15.0106 C   0  0  0  0  0  0  0  0  0  0  0  0
   19.0945  -21.1855  -14.8134 C   0  0  0  0  0  0  0  0  0  0  0  0
   19.9607  -20.0823  -14.1890 C   0  0  1  0  0  0  0  0  0  0  0  0
   19.0617  -19.0829  -13.5692 C   0  0  0  0  0  0  0  0  0  0  0  0
   18.4819  -18.1269  -14.3740 O   0  0  0  0  0  0  0  0  0  0  0  0
   18.8313  -19.0990  -12.3572 O   0  0  0  0  0  0  0  0  0  0  0  0
  2  1  1  6
  2 13  1  0
  2  3  1  0
  3  4  1  0
  4 12  1  0
  4  5  2  0
  5  6  1  0
  7  6  1  0
  7  8  2  0
  9  8  1  0
 10  9  2  0
 11 12  2  0
 11 10  1  0
 12  7  1  0
 13 14  2  0
 16 15  1  0
 17 16  1  0
 18 17  1  0
 19 18  1  1
 20 19  1  0
 20 13  1  0
 21 19  1  0
 21 23  1  0
 22 21  2  0
 23 24  1  0
 25 24  1  0
 26 27  1  0
 26 25  1  0
 27 23  1  0
 27 28  1  1
 29 28  1  0
 30 28  2  0
M  END
$$$$
