WMP.pdb
     RDKit          3D

 30 32  0  0  1  0  0  0  0  0999 V2000
   26.5395  -21.1620  -11.9343 N   0  0  0  0  0  0  0  0  0  0  0  0
   25.8246  -20.6457  -10.7707 C   0  0  1  0  0  0  0  0  0  0  0  0
   24.6545  -21.5616  -10.5243 C   0  0  0  0  0  0  0  0  0  0  0  0
   23.5943  -21.1015  -11.4998 C   0  0  0  0  0  0  0  0  0  0  0  0
   23.4340  -21.4938  -12.8016 C   0  0  0  0  0  0  0  0  0  0  0  0
   22.3759  -20.8447  -13.3056 N   0  0  0  0  0  0  0  0  0  0  0  0
   21.8257  -20.0295  -12.3736 C   0  0  0  0  0  0  0  0  0  0  0  0
   20.7314  -19.1667  -12.4181 C   0  0  0  0  0  0  0  0  0  0  0  0
   20.3824  -18.4375  -11.2994 C   0  0  0  0  0  0  0  0  0  0  0  0
   21.1555  -18.6066  -10.1701 C   0  0  0  0  0  0  0  0  0  0  0  0
   22.2386  -19.4579  -10.1196 C   0  0  0  0  0  0  0  0  0  0  0  0
   22.5924  -20.1925  -11.2408 C   0  0  0  0  0  0  0  0  0  0  0  0
   26.7572  -20.5502   -9.6082 C   0  0  0  0  0  0  0  0  0  0  0  0
   27.5265  -21.5053   -9.2987 O   0  0  0  0  0  0  0  0  0  0  0  0
   31.3209  -18.6618   -6.0663 C   0  0  0  0  0  0  0  0  0  0  0  0
   30.1661  -17.4403   -5.5577 S   0  0  0  0  0  0  0  0  0  0  0  0
   28.4270  -17.7329   -5.8130 C   0  0  0  0  0  0  0  0  0  0  0  0
   27.9590  -17.9601   -7.1911 C   0  0  0  0  0  0  0  0  0  0  0  0
   27.7124  -19.3739   -7.6071 C   0  0  2  0  0  0  0  0  0  0  0  0
   26.8425  -19.4002   -8.7879 N   0  0  0  0  0  0  0  0  0  0  0  0
   27.2647  -20.2634   -6.5289 C   0  0  0  0  0  0  0  0  0  0  0  0
   25.9936  -20.2935   -6.3129 O   0  0  0  0  0  0  0  0  0  0  0  0
   28.0106  -21.1051   -5.6703 N   0  0  0  0  0  0  0  0  0  0  0  0
   29.3653  -21.5310   -5.9148 C   0  0  0  0  0  0  0  0  0  0  0  0
   29.7116  -22.5179   -4.8045 C   0  0  0  0  0  0  0  0  0  0  0  0
   28.8695  -21.9798   -3.6841 C   0  0  0  0  0  0  0  0  0  0  0  0
   27.5665  -21.6645   -4.4325 C   0  0  1  0  0  0  0  0  0  0  0  0
   26.7491  -20.7699   -3.5822 C   0  0  0  0  0  0  0  0  0  0  0  0
   26.0678  -21.3132   -2.5154 O   0  0  0  0  0  0  0  0  0  0  0  0
   26.6745  -19.5610   -3.8177 O   0  0  0  0  0  0  0  0  0  0  0  0
  2  1  1  6
  2 13  1  0
  2  3  1  0
  3  4  1  0
  4 12  1  0
  4  5  2  0
  5  6  1  0
  7  6  1  0
  7  8  2  0
  9  8  1  0
 10  9  2  0
 11 12  2  0
 11 10  1  0
 12  7  1  0
 13 14  2  0
 16 15  1  0
 17 16  1  0
 18 17  1  0
 19 18  1  1
 20 19  1  0
 20 13  1  0
 21 19  1  0
 21 23  1  0
 22 21  2  0
 23 24  1  0
 25 24  1  0
 26 27  1  0
 26 25  1  0
 27 23  1  0
 27 28  1  1
 29 28  1  0
 30 28  2  0
M  END
$$$$
