WMP.pdb
     RDKit          3D

 30 32  0  0  1  0  0  0  0  0999 V2000
   20.3891  -19.7934  -13.2585 N   0  0  0  0  0  0  0  0  0  0  0  0
   21.4471  -20.6544  -13.7790 C   0  0  1  0  0  0  0  0  0  0  0  0
   21.3093  -20.6725  -15.2789 C   0  0  0  0  0  0  0  0  0  0  0  0
   20.1000  -21.5415  -15.5430 C   0  0  0  0  0  0  0  0  0  0  0  0
   18.8936  -21.1543  -16.0617 C   0  0  0  0  0  0  0  0  0  0  0  0
   18.1027  -22.2336  -16.1289 N   0  0  0  0  0  0  0  0  0  0  0  0
   18.7503  -23.3312  -15.6687 C   0  0  0  0  0  0  0  0  0  0  0  0
   18.3548  -24.6620  -15.5399 C   0  0  0  0  0  0  0  0  0  0  0  0
   19.2331  -25.5958  -15.0284 C   0  0  0  0  0  0  0  0  0  0  0  0
   20.4857  -25.1494  -14.6630 C   0  0  0  0  0  0  0  0  0  0  0  0
   20.8828  -23.8352  -14.7878 C   0  0  0  0  0  0  0  0  0  0  0  0
   20.0039  -22.8941  -15.3015 C   0  0  0  0  0  0  0  0  0  0  0  0
   22.7759  -20.1576  -13.3123 C   0  0  0  0  0  0  0  0  0  0  0  0
   23.1340  -18.9584  -13.4953 O   0  0  0  0  0  0  0  0  0  0  0  0
   26.9904  -19.1599   -8.0106 C   0  0  0  0  0  0  0  0  0  0  0  0
   26.0792  -20.5873   -8.4759 S   0  0  0  0  0  0  0  0  0  0  0  0
   25.0797  -20.5342   -9.9502 C   0  0  0  0  0  0  0  0  0  0  0  0
   25.6461  -21.0924  -11.1901 C   0  0  0  0  0  0  0  0  0  0  0  0
   25.1088  -20.5730  -12.4840 C   0  0  2  0  0  0  0  0  0  0  0  0
   23.7094  -20.9835  -12.6419 N   0  0  0  0  0  0  0  0  0  0  0  0
   25.9413  -20.8641  -13.6572 C   0  0  0  0  0  0  0  0  0  0  0  0
   26.0482  -22.1084  -13.9789 O   0  0  0  0  0  0  0  0  0  0  0  0
   26.6610  -19.9903  -14.5059 N   0  0  0  0  0  0  0  0  0  0  0  0
   26.5178  -18.5564  -14.5168 C   0  0  0  0  0  0  0  0  0  0  0  0
   27.3838  -18.0476  -15.6646 C   0  0  0  0  0  0  0  0  0  0  0  0
   28.4681  -19.0859  -15.6739 C   0  0  0  0  0  0  0  0  0  0  0  0
   27.6410  -20.3642  -15.4766 C   0  0  1  0  0  0  0  0  0  0  0  0
   28.5596  -21.4523  -15.0726 C   0  0  0  0  0  0  0  0  0  0  0  0
   29.3499  -22.0411  -16.0351 O   0  0  0  0  0  0  0  0  0  0  0  0
   28.6221  -21.8300  -13.8996 O   0  0  0  0  0  0  0  0  0  0  0  0
  2  1  1  1
  2 13  1  0
  2  3  1  0
  3  4  1  0
  4 12  1  0
  4  5  2  0
  5  6  1  0
  7  6  1  0
  7  8  2  0
  9  8  1  0
 10  9  2  0
 11 12  2  0
 11 10  1  0
 12  7  1  0
 13 14  2  0
 16 15  1  0
 17 16  1  0
 18 17  1  0
 19 18  1  1
 20 19  1  0
 20 13  1  0
 21 19  1  0
 21 23  1  0
 22 21  2  0
 23 24  1  0
 25 24  1  0
 26 27  1  0
 26 25  1  0
 27 23  1  0
 27 28  1  1
 29 28  1  0
 30 28  2  0
M  END
$$$$
