MCD.pdb
     RDKit          3D

 23 22  0  0  1  0  0  0  0  0999 V2000
    4.5181  -18.2747   22.5235 C   0  0  0  0  0  0  0  0  0  0  0  0
    5.3610  -18.0497   20.9427 S   0  0  0  0  0  0  0  0  0  0  0  0
    6.6046  -16.7400   21.0369 C   0  0  0  0  0  0  0  0  0  0  0  0
    5.9764  -15.3783   21.1456 C   0  0  0  0  0  0  0  0  0  0  0  0
    7.0185  -14.2980   21.3566 C   0  0  2  0  0  0  0  0  0  0  0  0
    7.9231  -14.3511   20.2372 N   0  0  0  0  0  0  0  0  0  0  0  0
    7.7331  -14.4853   22.6494 C   0  0  0  0  0  0  0  0  0  0  0  0
    8.8969  -14.9772   22.7160 O   0  0  0  0  0  0  0  0  0  0  0  0
    7.1458  -14.1200   23.8904 N   0  0  0  0  0  0  0  0  0  0  0  0
    7.8167  -14.3096   25.1492 C   0  0  1  0  0  0  0  0  0  0  0  0
    7.0258  -13.7949   26.3226 C   0  0  0  0  0  0  0  0  0  0  0  0
    6.8920  -11.9862   26.2994 S   0  0  0  0  0  0  0  0  0  0  0  0
    8.1385  -15.7355   25.4077 C   0  0  0  0  0  0  0  0  0  0  0  0
    7.2249  -16.5986   25.4355 O   0  0  0  0  0  0  0  0  0  0  0  0
    9.4728  -16.1868   25.6325 N   0  0  0  0  0  0  0  0  0  0  0  0
    9.7757  -17.5879   25.8900 C   0  0  1  0  0  0  0  0  0  0  0  0
   10.8970  -18.0476   24.9903 C   0  0  0  0  0  0  0  0  0  0  0  0
   12.0819  -17.1720   25.0149 C   0  0  0  0  0  0  0  0  0  0  0  0
   11.9457  -15.9349   24.9502 O   0  0  0  0  0  0  0  0  0  0  0  0
   10.2175  -17.7016   27.3029 C   0  0  0  0  0  0  0  0  0  0  0  0
   10.5024  -18.9437   27.8271 O   0  0  0  0  0  0  0  0  0  0  0  0
   13.3345  -17.7263   25.1093 O   0  0  0  0  0  0  0  0  0  0  0  0
   10.3374  -16.6942   28.0303 O   0  0  0  0  0  0  0  0  0  0  0  0
  2  1  1  0
  3  2  1  0
  4  3  1  0
  5  4  1  0
  5  6  1  6
  7  5  1  0
  7  8  2  0
  9  7  1  0
 10 13  1  0
 10  9  1  0
 10 11  1  1
 12 11  1  0
 13 15  1  0
 14 13  2  0
 15 16  1  0
 16 20  1  0
 17 18  1  0
 16 17  1  6
 18 19  2  0
 20 23  2  0
 20 21  1  0
 22 18  1  0
M  END
$$$$
