MCD.pdb
     RDKit          3D

 23 22  0  0  1  0  0  0  0  0999 V2000
    5.6610  -11.4295   27.0101 C   0  0  0  0  0  0  0  0  0  0  0  0
    6.4754  -12.8222   26.1993 S   0  0  0  0  0  0  0  0  0  0  0  0
    7.1812  -13.9693   27.4063 C   0  0  0  0  0  0  0  0  0  0  0  0
    7.8945  -15.1133   26.7407 C   0  0  0  0  0  0  0  0  0  0  0  0
    7.0428  -15.7495   25.6603 C   0  0  2  0  0  0  0  0  0  0  0  0
    6.3256  -16.8409   26.2677 N   0  0  0  0  0  0  0  0  0  0  0  0
    7.8792  -16.2104   24.5178 C   0  0  0  0  0  0  0  0  0  0  0  0
    8.5511  -17.2817   24.5580 O   0  0  0  0  0  0  0  0  0  0  0  0
    7.9715  -15.4692   23.3093 N   0  0  0  0  0  0  0  0  0  0  0  0
    8.7803  -15.8976   22.1991 C   0  0  1  0  0  0  0  0  0  0  0  0
    8.5073  -15.1233   20.9369 C   0  0  0  0  0  0  0  0  0  0  0  0
    6.7665  -15.2410   20.4413 S   0  0  0  0  0  0  0  0  0  0  0  0
   10.2330  -15.7989   22.4882 C   0  0  0  0  0  0  0  0  0  0  0  0
   10.7102  -14.7535   22.9981 O   0  0  0  0  0  0  0  0  0  0  0  0
   11.1398  -16.8635   22.2076 N   0  0  0  0  0  0  0  0  0  0  0  0
   12.5401  -16.8030   22.6034 C   0  0  1  0  0  0  0  0  0  0  0  0
   13.1039  -18.1981   22.7218 C   0  0  0  0  0  0  0  0  0  0  0  0
   12.6696  -18.9190   23.9313 C   0  0  0  0  0  0  0  0  0  0  0  0
   12.3909  -18.2870   24.9687 O   0  0  0  0  0  0  0  0  0  0  0  0
   13.2785  -16.0761   21.5401 C   0  0  0  0  0  0  0  0  0  0  0  0
   14.5687  -15.6540   21.7769 O   0  0  0  0  0  0  0  0  0  0  0  0
   12.5740  -20.2885   23.9084 O   0  0  0  0  0  0  0  0  0  0  0  0
   12.7558  -15.8372   20.4319 O   0  0  0  0  0  0  0  0  0  0  0  0
  2  1  1  0
  3  2  1  0
  4  3  1  0
  5  4  1  0
  5  6  1  1
  7  5  1  0
  7  8  2  0
  9  7  1  0
 10 13  1  0
 10  9  1  0
 10 11  1  6
 12 11  1  0
 13 15  1  0
 14 13  2  0
 15 16  1  0
 16 20  1  0
 17 18  1  0
 16 17  1  6
 18 19  2  0
 20 23  2  0
 20 21  1  0
 22 18  1  0
M  END
$$$$
