MCD.pdb
     RDKit          3D

 23 22  0  0  1  0  0  0  0  0999 V2000
    6.4087  -10.9686   26.5734 C   0  0  0  0  0  0  0  0  0  0  0  0
    6.3764  -12.2667   27.8281 S   0  0  0  0  0  0  0  0  0  0  0  0
    5.8910  -13.8586   27.1203 C   0  0  0  0  0  0  0  0  0  0  0  0
    6.8672  -14.3288   26.0780 C   0  0  0  0  0  0  0  0  0  0  0  0
    6.3672  -15.5688   25.3638 C   0  0  2  0  0  0  0  0  0  0  0  0
    6.3554  -16.6412   26.3252 N   0  0  0  0  0  0  0  0  0  0  0  0
    7.2220  -15.8942   24.1888 C   0  0  0  0  0  0  0  0  0  0  0  0
    8.0964  -16.8082   24.2186 O   0  0  0  0  0  0  0  0  0  0  0  0
    7.1044  -15.1927   22.9590 N   0  0  0  0  0  0  0  0  0  0  0  0
    8.0082  -15.4028   21.8592 C   0  0  1  0  0  0  0  0  0  0  0  0
    7.7761  -14.4519   20.7150 C   0  0  0  0  0  0  0  0  0  0  0  0
    8.8946  -14.7871   19.3271 S   0  0  0  0  0  0  0  0  0  0  0  0
    9.4305  -15.2848   22.2675 C   0  0  0  0  0  0  0  0  0  0  0  0
    9.7675  -14.4803   23.1729 O   0  0  0  0  0  0  0  0  0  0  0  0
   10.4632  -16.0627   21.6650 N   0  0  0  0  0  0  0  0  0  0  0  0
   11.8026  -16.1314   22.2329 C   0  0  1  0  0  0  0  0  0  0  0  0
   11.7837  -16.9462   23.5032 C   0  0  0  0  0  0  0  0  0  0  0  0
   13.1218  -17.2444   24.0434 C   0  0  0  0  0  0  0  0  0  0  0  0
   13.3542  -18.3557   24.5575 O   0  0  0  0  0  0  0  0  0  0  0  0
   12.6782  -16.8074   21.2426 C   0  0  0  0  0  0  0  0  0  0  0  0
   13.9591  -16.3416   21.0396 O   0  0  0  0  0  0  0  0  0  0  0  0
   14.1089  -16.2925   23.9771 O   0  0  0  0  0  0  0  0  0  0  0  0
   12.2797  -17.7920   20.5868 O   0  0  0  0  0  0  0  0  0  0  0  0
  2  1  1  0
  3  2  1  0
  4  3  1  0
  5  4  1  0
  5  6  1  1
  7  5  1  0
  7  8  2  0
  9  7  1  0
 10 13  1  0
 10  9  1  0
 10 11  1  6
 12 11  1  0
 13 15  1  0
 14 13  2  0
 15 16  1  0
 16 20  1  0
 17 18  1  0
 16 17  1  1
 18 19  2  0
 20 23  2  0
 20 21  1  0
 22 18  1  0
M  END
$$$$
