MCD.pdb
     RDKit          3D

 23 22  0  0  1  0  0  0  0  0999 V2000
    7.8437  -11.4824   19.7191 C   0  0  0  0  0  0  0  0  0  0  0  0
    7.5307  -12.7914   18.5155 S   0  0  0  0  0  0  0  0  0  0  0  0
    7.9381  -14.4198   19.1886 C   0  0  0  0  0  0  0  0  0  0  0  0
    8.6515  -14.3177   20.5080 C   0  0  0  0  0  0  0  0  0  0  0  0
    8.9603  -15.6857   21.0832 C   0  0  2  0  0  0  0  0  0  0  0  0
    7.7830  -16.4976   20.9124 N   0  0  0  0  0  0  0  0  0  0  0  0
    9.3583  -15.5899   22.5147 C   0  0  0  0  0  0  0  0  0  0  0  0
   10.4979  -15.1751   22.8755 O   0  0  0  0  0  0  0  0  0  0  0  0
    8.4761  -15.9610   23.5647 N   0  0  0  0  0  0  0  0  0  0  0  0
    8.8582  -15.9086   24.9509 C   0  0  1  0  0  0  0  0  0  0  0  0
    7.7590  -15.4025   25.8470 C   0  0  0  0  0  0  0  0  0  0  0  0
    7.1942  -13.7524   25.3491 S   0  0  0  0  0  0  0  0  0  0  0  0
    9.2932  -17.2308   25.4666 C   0  0  0  0  0  0  0  0  0  0  0  0
    8.5014  -18.2073   25.4611 O   0  0  0  0  0  0  0  0  0  0  0  0
   10.6040  -17.4536   25.9829 N   0  0  0  0  0  0  0  0  0  0  0  0
   11.0197  -18.7559   26.4852 C   0  0  1  0  0  0  0  0  0  0  0  0
   12.4617  -19.0136   26.1212 C   0  0  0  0  0  0  0  0  0  0  0  0
   12.6917  -19.1945   24.6770 C   0  0  0  0  0  0  0  0  0  0  0  0
   11.7545  -19.5466   23.9347 O   0  0  0  0  0  0  0  0  0  0  0  0
   10.8961  -18.7292   27.9645 C   0  0  0  0  0  0  0  0  0  0  0  0
   10.7225  -17.5239   28.6095 O   0  0  0  0  0  0  0  0  0  0  0  0
   13.9422  -18.9732   24.1552 O   0  0  0  0  0  0  0  0  0  0  0  0
   10.9460  -19.7773   28.6407 O   0  0  0  0  0  0  0  0  0  0  0  0
  2  1  1  0
  3  2  1  0
  4  3  1  0
  5  4  1  0
  5  6  1  1
  7  5  1  0
  7  8  2  0
  9  7  1  0
 10 13  1  0
 10  9  1  0
 10 11  1  1
 12 11  1  0
 13 15  1  0
 14 13  2  0
 15 16  1  0
 16 20  1  0
 17 18  1  0
 16 17  1  1
 18 19  2  0
 20 23  2  0
 20 21  1  0
 22 18  1  0
M  END
$$$$
