MCD.pdb
     RDKit          3D

 23 22  0  0  1  0  0  0  0  0999 V2000
    7.6115  -11.5792   20.1018 C   0  0  0  0  0  0  0  0  0  0  0  0
    7.4925  -12.7538   18.7357 S   0  0  0  0  0  0  0  0  0  0  0  0
    7.9343  -14.4268   19.2617 C   0  0  0  0  0  0  0  0  0  0  0  0
    8.9734  -14.4160   20.3482 C   0  0  0  0  0  0  0  0  0  0  0  0
    9.2392  -15.8101   20.8804 C   0  0  2  0  0  0  0  0  0  0  0  0
    8.0286  -16.5715   20.7100 N   0  0  0  0  0  0  0  0  0  0  0  0
    9.6660  -15.7691   22.3063 C   0  0  0  0  0  0  0  0  0  0  0  0
   10.8426  -15.4597   22.6535 O   0  0  0  0  0  0  0  0  0  0  0  0
    8.7711  -16.0771   23.3659 N   0  0  0  0  0  0  0  0  0  0  0  0
    9.1763  -16.0729   24.7465 C   0  0  1  0  0  0  0  0  0  0  0  0
    8.0514  -15.7401   25.6905 C   0  0  0  0  0  0  0  0  0  0  0  0
    6.6682  -16.9010   25.5210 S   0  0  0  0  0  0  0  0  0  0  0  0
    9.7549  -17.3731   25.1686 C   0  0  0  0  0  0  0  0  0  0  0  0
    9.2111  -18.4529   24.8238 O   0  0  0  0  0  0  0  0  0  0  0  0
   10.9321  -17.4592   25.9694 N   0  0  0  0  0  0  0  0  0  0  0  0
   11.4749  -18.7401   26.4004 C   0  0  1  0  0  0  0  0  0  0  0  0
   12.9822  -18.7131   26.3273 C   0  0  0  0  0  0  0  0  0  0  0  0
   13.5124  -18.5150   24.9668 C   0  0  0  0  0  0  0  0  0  0  0  0
   12.7742  -18.6879   23.9776 O   0  0  0  0  0  0  0  0  0  0  0  0
   11.0671  -18.9507   27.8124 C   0  0  0  0  0  0  0  0  0  0  0  0
   10.4048  -17.9464   28.4846 O   0  0  0  0  0  0  0  0  0  0  0  0
   14.8219  -18.1397   24.7959 O   0  0  0  0  0  0  0  0  0  0  0  0
   11.3110  -20.0205   28.4075 O   0  0  0  0  0  0  0  0  0  0  0  0
  2  1  1  0
  3  2  1  0
  4  3  1  0
  5  4  1  0
  5  6  1  1
  7  5  1  0
  7  8  2  0
  9  7  1  0
 10 13  1  0
 10  9  1  0
 10 11  1  1
 12 11  1  0
 13 15  1  0
 14 13  2  0
 15 16  1  0
 16 20  1  0
 17 18  1  0
 16 17  1  1
 18 19  2  0
 20 23  2  0
 20 21  1  0
 22 18  1  0
M  END
$$$$
