MCD.pdb
     RDKit          3D

 23 22  0  0  1  0  0  0  0  0999 V2000
    6.1891  -11.2126   25.9013 C   0  0  0  0  0  0  0  0  0  0  0  0
    5.5948  -12.8905   26.2045 S   0  0  0  0  0  0  0  0  0  0  0  0
    6.6385  -14.1197   25.3857 C   0  0  0  0  0  0  0  0  0  0  0  0
    7.6688  -13.4777   24.4988 C   0  0  0  0  0  0  0  0  0  0  0  0
    8.4755  -14.5128   23.7402 C   0  0  2  0  0  0  0  0  0  0  0  0
    7.5492  -15.2834   22.9511 N   0  0  0  0  0  0  0  0  0  0  0  0
    9.2541  -15.3757   24.6710 C   0  0  0  0  0  0  0  0  0  0  0  0
    9.7802  -16.4665   24.3047 O   0  0  0  0  0  0  0  0  0  0  0  0
    9.4526  -15.0217   26.0325 N   0  0  0  0  0  0  0  0  0  0  0  0
   10.5022  -15.5918   26.8349 C   0  0  1  0  0  0  0  0  0  0  0  0
   10.6243  -14.9479   28.1905 C   0  0  0  0  0  0  0  0  0  0  0  0
   10.8197  -13.1492   28.0633 S   0  0  0  0  0  0  0  0  0  0  0  0
   10.3268  -17.0516   27.0386 C   0  0  0  0  0  0  0  0  0  0  0  0
    9.1855  -17.5301   27.2597 O   0  0  0  0  0  0  0  0  0  0  0  0
   11.4222  -17.9641   26.9942 N   0  0  0  0  0  0  0  0  0  0  0  0
   11.2300  -19.4010   27.1348 C   0  0  1  0  0  0  0  0  0  0  0  0
   12.2413  -20.1419   26.2944 C   0  0  0  0  0  0  0  0  0  0  0  0
   12.2181  -21.6036   26.4795 C   0  0  0  0  0  0  0  0  0  0  0  0
   11.4287  -22.1172   27.2958 O   0  0  0  0  0  0  0  0  0  0  0  0
   11.4466  -19.7475   28.5622 C   0  0  0  0  0  0  0  0  0  0  0  0
   12.0001  -18.8136   29.4109 O   0  0  0  0  0  0  0  0  0  0  0  0
   13.0696  -22.3946   25.7487 O   0  0  0  0  0  0  0  0  0  0  0  0
   11.1380  -20.8697   29.0134 O   0  0  0  0  0  0  0  0  0  0  0  0
  2  1  1  0
  3  2  1  0
  4  3  1  0
  5  4  1  0
  5  6  1  1
  7  5  1  0
  7  8  2  0
  9  7  1  0
 10 13  1  0
 10  9  1  0
 10 11  1  1
 12 11  1  0
 13 15  1  0
 14 13  2  0
 15 16  1  0
 16 20  1  0
 17 18  1  0
 16 17  1  6
 18 19  2  0
 20 23  2  0
 20 21  1  0
 22 18  1  0
M  END
$$$$
