MCD.pdb
     RDKit          3D

 23 22  0  0  1  0  0  0  0  0999 V2000
    7.0165  -11.3270   27.5283 C   0  0  0  0  0  0  0  0  0  0  0  0
    6.8086  -12.7783   26.4744 S   0  0  0  0  0  0  0  0  0  0  0  0
    6.3345  -14.2331   27.4384 C   0  0  0  0  0  0  0  0  0  0  0  0
    6.0448  -15.4175   26.5588 C   0  0  0  0  0  0  0  0  0  0  0  0
    7.2962  -15.9161   25.8638 C   0  0  2  0  0  0  0  0  0  0  0  0
    8.3742  -15.0389   26.2417 N   0  0  0  0  0  0  0  0  0  0  0  0
    7.1118  -15.9546   24.3867 C   0  0  0  0  0  0  0  0  0  0  0  0
    6.3144  -16.7595   23.8236 O   0  0  0  0  0  0  0  0  0  0  0  0
    7.8251  -15.0846   23.5192 N   0  0  0  0  0  0  0  0  0  0  0  0
    8.4136  -15.5341   22.2855 C   0  0  1  0  0  0  0  0  0  0  0  0
    8.2028  -14.5722   21.1464 C   0  0  0  0  0  0  0  0  0  0  0  0
    8.9872  -15.1586   19.6197 S   0  0  0  0  0  0  0  0  0  0  0  0
    9.8726  -15.7769   22.4120 C   0  0  0  0  0  0  0  0  0  0  0  0
   10.6239  -14.8949   22.8999 O   0  0  0  0  0  0  0  0  0  0  0  0
   10.4808  -16.9978   21.9949 N   0  0  0  0  0  0  0  0  0  0  0  0
   11.9006  -17.2548   22.1937 C   0  0  1  0  0  0  0  0  0  0  0  0
   12.0900  -18.3249   23.2410 C   0  0  0  0  0  0  0  0  0  0  0  0
   13.4872  -18.7643   23.4025 C   0  0  0  0  0  0  0  0  0  0  0  0
   14.3734  -18.3176   22.6486 O   0  0  0  0  0  0  0  0  0  0  0  0
   12.4556  -17.7411   20.9054 C   0  0  0  0  0  0  0  0  0  0  0  0
   11.7420  -18.6550   20.1607 O   0  0  0  0  0  0  0  0  0  0  0  0
   13.8061  -19.6670   24.3866 O   0  0  0  0  0  0  0  0  0  0  0  0
   13.5582  -17.3400   20.4791 O   0  0  0  0  0  0  0  0  0  0  0  0
  2  1  1  0
  3  2  1  0
  4  3  1  0
  5  4  1  0
  5  6  1  6
  7  5  1  0
  7  8  2  0
  9  7  1  0
 10 13  1  0
 10  9  1  0
 10 11  1  6
 12 11  1  0
 13 15  1  0
 14 13  2  0
 15 16  1  0
 16 20  1  0
 17 18  1  0
 16 17  1  1
 18 19  2  0
 20 23  2  0
 20 21  1  0
 22 18  1  0
M  END
$$$$
