MCD.pdb
     RDKit          3D

 23 22  0  0  1  0  0  0  0  0999 V2000
    7.6232  -11.6657   27.5701 C   0  0  0  0  0  0  0  0  0  0  0  0
    7.4082  -13.0304   26.4075 S   0  0  0  0  0  0  0  0  0  0  0  0
    6.1094  -14.1648   26.9522 C   0  0  0  0  0  0  0  0  0  0  0  0
    5.8003  -15.2037   25.9102 C   0  0  0  0  0  0  0  0  0  0  0  0
    6.9283  -16.2063   25.7696 C   0  0  2  0  0  0  0  0  0  0  0  0
    7.9731  -15.8053   26.6762 N   0  0  0  0  0  0  0  0  0  0  0  0
    7.4163  -16.2733   24.3645 C   0  0  0  0  0  0  0  0  0  0  0  0
    6.6772  -16.6438   23.4067 O   0  0  0  0  0  0  0  0  0  0  0  0
    8.7483  -15.9228   24.0159 N   0  0  0  0  0  0  0  0  0  0  0  0
    9.2645  -16.0760   22.6816 C   0  0  1  0  0  0  0  0  0  0  0  0
    9.2830  -14.7864   21.9045 C   0  0  0  0  0  0  0  0  0  0  0  0
    7.6170  -14.0954   21.7122 S   0  0  0  0  0  0  0  0  0  0  0  0
   10.6398  -16.6343   22.6694 C   0  0  0  0  0  0  0  0  0  0  0  0
   11.4204  -16.4228   23.6320 O   0  0  0  0  0  0  0  0  0  0  0  0
   11.1329  -17.4221   21.5874 N   0  0  0  0  0  0  0  0  0  0  0  0
   12.3771  -18.1721   21.6890 C   0  0  1  0  0  0  0  0  0  0  0  0
   12.3540  -19.3424   20.7361 C   0  0  0  0  0  0  0  0  0  0  0  0
   13.6006  -20.1280   20.7219 C   0  0  0  0  0  0  0  0  0  0  0  0
   13.5545  -21.3730   20.7541 O   0  0  0  0  0  0  0  0  0  0  0  0
   13.4851  -17.2620   21.3037 C   0  0  0  0  0  0  0  0  0  0  0  0
   14.7610  -17.5155   21.7585 O   0  0  0  0  0  0  0  0  0  0  0  0
   14.8107  -19.4812   20.6731 O   0  0  0  0  0  0  0  0  0  0  0  0
   13.2873  -16.2684   20.5744 O   0  0  0  0  0  0  0  0  0  0  0  0
  2  1  1  0
  3  2  1  0
  4  3  1  0
  5  4  1  0
  5  6  1  1
  7  5  1  0
  7  8  2  0
  9  7  1  0
 10 13  1  0
 10  9  1  0
 10 11  1  1
 12 11  1  0
 13 15  1  0
 14 13  2  0
 15 16  1  0
 16 20  1  0
 17 18  1  0
 16 17  1  6
 18 19  2  0
 20 23  2  0
 20 21  1  0
 22 18  1  0
M  END
$$$$
