MCD.pdb
     RDKit          3D

 23 22  0  0  1  0  0  0  0  0999 V2000
    7.3187  -11.5524   19.5964 C   0  0  0  0  0  0  0  0  0  0  0  0
    6.8920  -12.8032   18.3661 S   0  0  0  0  0  0  0  0  0  0  0  0
    7.6960  -14.3833   18.7232 C   0  0  0  0  0  0  0  0  0  0  0  0
    8.7794  -14.2395   19.7557 C   0  0  0  0  0  0  0  0  0  0  0  0
    9.4594  -15.5640   20.0398 C   0  0  2  0  0  0  0  0  0  0  0  0
    8.4266  -16.5156   20.3595 N   0  0  0  0  0  0  0  0  0  0  0  0
   10.4482  -15.4347   21.1455 C   0  0  0  0  0  0  0  0  0  0  0  0
   11.4362  -14.6468   21.0831 O   0  0  0  0  0  0  0  0  0  0  0  0
   10.3387  -16.1931   22.3418 N   0  0  0  0  0  0  0  0  0  0  0  0
   11.2610  -16.0484   23.4367 C   0  0  1  0  0  0  0  0  0  0  0  0
   10.7265  -16.5939   24.7344 C   0  0  0  0  0  0  0  0  0  0  0  0
   11.9620  -16.5037   26.0592 S   0  0  0  0  0  0  0  0  0  0  0  0
   12.5635  -16.7079   23.1679 C   0  0  0  0  0  0  0  0  0  0  0  0
   12.6301  -17.9573   23.0445 O   0  0  0  0  0  0  0  0  0  0  0  0
   13.7782  -15.9714   23.0391 N   0  0  0  0  0  0  0  0  0  0  0  0
   15.0550  -16.6322   22.8059 C   0  0  1  0  0  0  0  0  0  0  0  0
   15.9114  -15.7922   21.8899 C   0  0  0  0  0  0  0  0  0  0  0  0
   15.3744  -15.6577   20.5243 C   0  0  0  0  0  0  0  0  0  0  0  0
   14.8796  -16.6457   19.9477 O   0  0  0  0  0  0  0  0  0  0  0  0
   15.7407  -16.7639   24.1162 C   0  0  0  0  0  0  0  0  0  0  0  0
   15.6118  -15.7619   25.0534 O   0  0  0  0  0  0  0  0  0  0  0  0
   15.4223  -14.4398   19.8922 O   0  0  0  0  0  0  0  0  0  0  0  0
   16.4342  -17.7651   24.3900 O   0  0  0  0  0  0  0  0  0  0  0  0
  2  1  1  0
  3  2  1  0
  4  3  1  0
  5  4  1  0
  5  6  1  1
  7  5  1  0
  7  8  2  0
  9  7  1  0
 10 13  1  0
 10  9  1  0
 10 11  1  1
 12 11  1  0
 13 15  1  0
 14 13  2  0
 15 16  1  0
 16 20  1  0
 17 18  1  0
 16 17  1  6
 18 19  2  0
 20 23  2  0
 20 21  1  0
 22 18  1  0
M  END
$$$$
