MCD.pdb
     RDKit          3D

 23 22  0  0  1  0  0  0  0  0999 V2000
    8.8495  -11.5369   19.1376 C   0  0  0  0  0  0  0  0  0  0  0  0
    7.2832  -12.4236   19.2814 S   0  0  0  0  0  0  0  0  0  0  0  0
    7.5229  -14.0835   19.9584 C   0  0  0  0  0  0  0  0  0  0  0  0
    8.7649  -14.7350   19.4169 C   0  0  0  0  0  0  0  0  0  0  0  0
    9.0469  -16.0565   20.1035 C   0  0  2  0  0  0  0  0  0  0  0  0
    7.8495  -16.8515   20.0104 N   0  0  0  0  0  0  0  0  0  0  0  0
    9.4601  -15.8497   21.5190 C   0  0  0  0  0  0  0  0  0  0  0  0
   10.5284  -15.2488   21.8328 O   0  0  0  0  0  0  0  0  0  0  0  0
    8.6738  -16.3182   22.6056 N   0  0  0  0  0  0  0  0  0  0  0  0
    9.0634  -16.1336   23.9784 C   0  0  1  0  0  0  0  0  0  0  0  0
    7.9996  -15.4657   24.8088 C   0  0  0  0  0  0  0  0  0  0  0  0
    8.4956  -15.3260   26.5478 S   0  0  0  0  0  0  0  0  0  0  0  0
    9.4207  -17.4133   24.6403 C   0  0  0  0  0  0  0  0  0  0  0  0
    8.5776  -18.3419   24.7260 O   0  0  0  0  0  0  0  0  0  0  0  0
   10.7117  -17.6471   25.1999 N   0  0  0  0  0  0  0  0  0  0  0  0
   11.4117  -18.9106   25.0129 C   0  0  1  0  0  0  0  0  0  0  0  0
   11.6422  -19.1604   23.5423 C   0  0  0  0  0  0  0  0  0  0  0  0
   12.4194  -20.3792   23.2565 C   0  0  0  0  0  0  0  0  0  0  0  0
   12.7683  -21.1302   24.1880 O   0  0  0  0  0  0  0  0  0  0  0  0
   12.7271  -18.8024   25.6928 C   0  0  0  0  0  0  0  0  0  0  0  0
   13.6074  -17.8121   25.3144 O   0  0  0  0  0  0  0  0  0  0  0  0
   12.7562  -20.6820   21.9604 O   0  0  0  0  0  0  0  0  0  0  0  0
   13.0558  -19.5909   26.6031 O   0  0  0  0  0  0  0  0  0  0  0  0
  2  1  1  0
  3  2  1  0
  4  3  1  0
  5  4  1  0
  5  6  1  1
  7  5  1  0
  7  8  2  0
  9  7  1  0
 10 13  1  0
 10  9  1  0
 10 11  1  1
 12 11  1  0
 13 15  1  0
 14 13  2  0
 15 16  1  0
 16 20  1  0
 17 18  1  0
 16 17  1  6
 18 19  2  0
 20 23  2  0
 20 21  1  0
 22 18  1  0
M  END
$$$$
