MCD.pdb
     RDKit          3D

 23 22  0  0  1  0  0  0  0  0999 V2000
    6.8383  -12.0177   20.1159 C   0  0  0  0  0  0  0  0  0  0  0  0
    6.4676  -13.4042   19.0202 S   0  0  0  0  0  0  0  0  0  0  0  0
    7.1998  -14.9419   19.6286 C   0  0  0  0  0  0  0  0  0  0  0  0
    8.5624  -14.7165   20.2226 C   0  0  0  0  0  0  0  0  0  0  0  0
    9.1588  -16.0038   20.7563 C   0  0  2  0  0  0  0  0  0  0  0  0
    8.0784  -16.7789   21.3099 N   0  0  0  0  0  0  0  0  0  0  0  0
   10.2129  -15.7280   21.7711 C   0  0  0  0  0  0  0  0  0  0  0  0
   11.2531  -15.0592   21.5039 O   0  0  0  0  0  0  0  0  0  0  0  0
   10.1109  -16.2028   23.1062 N   0  0  0  0  0  0  0  0  0  0  0  0
   11.1828  -16.0734   24.0573 C   0  0  1  0  0  0  0  0  0  0  0  0
   10.7416  -16.3036   25.4784 C   0  0  0  0  0  0  0  0  0  0  0  0
    9.4497  -15.1324   25.9774 S   0  0  0  0  0  0  0  0  0  0  0  0
   12.3046  -17.0031   23.7728 C   0  0  0  0  0  0  0  0  0  0  0  0
   12.0843  -18.2263   23.5838 O   0  0  0  0  0  0  0  0  0  0  0  0
   13.6595  -16.5630   23.7015 N   0  0  0  0  0  0  0  0  0  0  0  0
   14.7478  -17.4781   23.3862 C   0  0  1  0  0  0  0  0  0  0  0  0
   15.8434  -16.7440   22.6520 C   0  0  0  0  0  0  0  0  0  0  0  0
   15.4252  -16.1871   21.3535 C   0  0  0  0  0  0  0  0  0  0  0  0
   15.2379  -14.9610   21.2310 O   0  0  0  0  0  0  0  0  0  0  0  0
   15.2911  -17.9919   24.6688 C   0  0  0  0  0  0  0  0  0  0  0  0
   16.1508  -19.0687   24.6589 O   0  0  0  0  0  0  0  0  0  0  0  0
   15.2435  -17.0254   20.2815 O   0  0  0  0  0  0  0  0  0  0  0  0
   14.9860  -17.4693   25.7606 O   0  0  0  0  0  0  0  0  0  0  0  0
  2  1  1  0
  3  2  1  0
  4  3  1  0
  5  4  1  0
  5  6  1  1
  7  5  1  0
  7  8  2  0
  9  7  1  0
 10 13  1  0
 10  9  1  0
 10 11  1  1
 12 11  1  0
 13 15  1  0
 14 13  2  0
 15 16  1  0
 16 20  1  0
 17 18  1  0
 16 17  1  1
 18 19  2  0
 20 23  2  0
 20 21  1  0
 22 18  1  0
M  END
$$$$
