MCD.pdb
     RDKit          3D

 23 22  0  0  1  0  0  0  0  0999 V2000
    6.8306  -11.3082   26.1913 C   0  0  0  0  0  0  0  0  0  0  0  0
    6.6230  -12.6874   27.3380 S   0  0  0  0  0  0  0  0  0  0  0  0
    5.3478  -13.8358   26.7670 C   0  0  0  0  0  0  0  0  0  0  0  0
    5.9277  -15.1665   26.3753 C   0  0  0  0  0  0  0  0  0  0  0  0
    7.4178  -15.0712   26.1143 C   0  0  2  0  0  0  0  0  0  0  0  0
    7.7513  -13.6719   26.0428 N   0  0  0  0  0  0  0  0  0  0  0  0
    7.7919  -15.7894   24.8648 C   0  0  0  0  0  0  0  0  0  0  0  0
    7.6224  -17.0350   24.7218 O   0  0  0  0  0  0  0  0  0  0  0  0
    8.3645  -15.1132   23.7542 N   0  0  0  0  0  0  0  0  0  0  0  0
    9.0562  -15.8059   22.6996 C   0  0  1  0  0  0  0  0  0  0  0  0
    8.9550  -15.1074   21.3696 C   0  0  0  0  0  0  0  0  0  0  0  0
    7.2854  -14.4620   21.0765 S   0  0  0  0  0  0  0  0  0  0  0  0
   10.4962  -16.0010   23.0027 C   0  0  0  0  0  0  0  0  0  0  0  0
   11.1479  -15.1054   23.5974 O   0  0  0  0  0  0  0  0  0  0  0  0
   11.1966  -17.1899   22.6414 N   0  0  0  0  0  0  0  0  0  0  0  0
   12.5060  -17.5072   23.1946 C   0  0  1  0  0  0  0  0  0  0  0  0
   12.5234  -18.9304   23.6966 C   0  0  0  0  0  0  0  0  0  0  0  0
   13.8362  -19.3720   24.1997 C   0  0  0  0  0  0  0  0  0  0  0  0
   14.8016  -18.5838   24.2014 O   0  0  0  0  0  0  0  0  0  0  0  0
   13.5020  -17.3719   22.1019 C   0  0  0  0  0  0  0  0  0  0  0  0
   13.0683  -17.2419   20.8004 O   0  0  0  0  0  0  0  0  0  0  0  0
   13.9889  -20.6545   24.6655 O   0  0  0  0  0  0  0  0  0  0  0  0
   14.7283  -17.3733   22.3354 O   0  0  0  0  0  0  0  0  0  0  0  0
  2  1  1  0
  3  2  1  0
  4  3  1  0
  5  4  1  0
  5  6  1  6
  7  5  1  0
  7  8  2  0
  9  7  1  0
 10 13  1  0
 10  9  1  0
 10 11  1  6
 12 11  1  0
 13 15  1  0
 14 13  2  0
 15 16  1  0
 16 20  1  0
 17 18  1  0
 16 17  1  6
 18 19  2  0
 20 23  2  0
 20 21  1  0
 22 18  1  0
M  END
$$$$
