MCD.pdb
     RDKit          3D

 23 22  0  0  1  0  0  0  0  0999 V2000
    5.3476  -11.6003   28.3587 C   0  0  0  0  0  0  0  0  0  0  0  0
    6.2166  -10.8937   26.9425 S   0  0  0  0  0  0  0  0  0  0  0  0
    7.1485  -12.1551   26.0419 C   0  0  0  0  0  0  0  0  0  0  0  0
    6.4730  -13.4971   26.0984 C   0  0  0  0  0  0  0  0  0  0  0  0
    7.4057  -14.6103   25.6642 C   0  0  2  0  0  0  0  0  0  0  0  0
    8.7466  -14.1960   25.9875 N   0  0  0  0  0  0  0  0  0  0  0  0
    7.2560  -14.9015   24.2117 C   0  0  0  0  0  0  0  0  0  0  0  0
    6.2185  -15.4441   23.7321 O   0  0  0  0  0  0  0  0  0  0  0  0
    8.2759  -14.5849   23.2746 N   0  0  0  0  0  0  0  0  0  0  0  0
    8.4589  -15.3215   22.0522 C   0  0  1  0  0  0  0  0  0  0  0  0
    8.1009  -14.5260   20.8249 C   0  0  0  0  0  0  0  0  0  0  0  0
    8.3968  -15.4696   19.3044 S   0  0  0  0  0  0  0  0  0  0  0  0
    9.8522  -15.8071   21.8894 C   0  0  0  0  0  0  0  0  0  0  0  0
   10.8042  -14.9904   21.8037 O   0  0  0  0  0  0  0  0  0  0  0  0
   10.1724  -17.1955   21.8237 N   0  0  0  0  0  0  0  0  0  0  0  0
   11.5439  -17.6600   21.6670 C   0  0  1  0  0  0  0  0  0  0  0  0
   12.2494  -17.6460   23.0012 C   0  0  0  0  0  0  0  0  0  0  0  0
   11.5194  -18.3471   24.0721 C   0  0  0  0  0  0  0  0  0  0  0  0
   10.3597  -18.7574   23.8723 O   0  0  0  0  0  0  0  0  0  0  0  0
   11.4926  -19.0568   21.1664 C   0  0  0  0  0  0  0  0  0  0  0  0
   12.6554  -19.6762   20.7625 O   0  0  0  0  0  0  0  0  0  0  0  0
   12.1235  -18.5452   25.2891 O   0  0  0  0  0  0  0  0  0  0  0  0
   10.4163  -19.6860   21.1024 O   0  0  0  0  0  0  0  0  0  0  0  0
  2  1  1  0
  3  2  1  0
  4  3  1  0
  5  4  1  0
  5  6  1  6
  7  5  1  0
  7  8  2  0
  9  7  1  0
 10 13  1  0
 10  9  1  0
 10 11  1  6
 12 11  1  0
 13 15  1  0
 14 13  2  0
 15 16  1  0
 16 20  1  0
 17 18  1  0
 16 17  1  1
 18 19  2  0
 20 23  2  0
 20 21  1  0
 22 18  1  0
M  END
$$$$
