MCD.pdb
     RDKit          3D

 23 22  0  0  1  0  0  0  0  0999 V2000
    8.5258  -12.3123   18.2370 C   0  0  0  0  0  0  0  0  0  0  0  0
    7.8892  -11.7995   19.8470 S   0  0  0  0  0  0  0  0  0  0  0  0
    7.6383  -13.2175   20.9411 C   0  0  0  0  0  0  0  0  0  0  0  0
    8.3329  -14.4490   20.4297 C   0  0  0  0  0  0  0  0  0  0  0  0
    8.1209  -15.6331   21.3518 C   0  0  2  0  0  0  0  0  0  0  0  0
    6.6994  -15.8117   21.4995 N   0  0  0  0  0  0  0  0  0  0  0  0
    8.7867  -15.4174   22.6660 C   0  0  0  0  0  0  0  0  0  0  0  0
   10.0434  -15.4639   22.8054 O   0  0  0  0  0  0  0  0  0  0  0  0
    8.0448  -15.1451   23.8466 N   0  0  0  0  0  0  0  0  0  0  0  0
    8.6591  -15.0666   25.1454 C   0  0  1  0  0  0  0  0  0  0  0  0
    7.7906  -14.3837   26.1685 C   0  0  0  0  0  0  0  0  0  0  0  0
    6.2550  -13.7575   25.4338 S   0  0  0  0  0  0  0  0  0  0  0  0
    9.0249  -16.4029   25.6782 C   0  0  0  0  0  0  0  0  0  0  0  0
    8.1981  -17.3494   25.6433 O   0  0  0  0  0  0  0  0  0  0  0  0
   10.3060  -16.6730   26.2440 N   0  0  0  0  0  0  0  0  0  0  0  0
   10.7081  -18.0200   26.6248 C   0  0  1  0  0  0  0  0  0  0  0  0
   12.0025  -18.3856   25.9400 C   0  0  0  0  0  0  0  0  0  0  0  0
   12.2116  -19.8364   25.7896 C   0  0  0  0  0  0  0  0  0  0  0  0
   13.3539  -20.2831   25.5685 O   0  0  0  0  0  0  0  0  0  0  0  0
   10.9239  -18.0281   28.0937 C   0  0  0  0  0  0  0  0  0  0  0  0
   11.0384  -19.2309   28.7563 O   0  0  0  0  0  0  0  0  0  0  0  0
   11.1425  -20.6915   25.8943 O   0  0  0  0  0  0  0  0  0  0  0  0
   11.0044  -16.9664   28.7454 O   0  0  0  0  0  0  0  0  0  0  0  0
  2  1  1  0
  3  2  1  0
  4  3  1  0
  5  4  1  0
  5  6  1  1
  7  5  1  0
  7  8  2  0
  9  7  1  0
 10 13  1  0
 10  9  1  0
 10 11  1  1
 12 11  1  0
 13 15  1  0
 14 13  2  0
 15 16  1  0
 16 20  1  0
 17 18  1  0
 16 17  1  6
 18 19  2  0
 20 23  2  0
 20 21  1  0
 22 18  1  0
M  END
$$$$
