TPD.pdb
     RDKit          3D

 23 23  0  0  1  0  0  0  0  0999 V2000
    7.6715  -17.6466   17.3653 C   0  0  0  0  0  0  0  0  0  0  0  0
    8.5823  -16.9265   16.4252 C   0  0  1  0  0  0  0  0  0  0  0  0
    8.2142  -17.0641   15.0787 O   0  0  0  0  0  0  0  0  0  0  0  0
    8.6487  -15.4326   16.7896 C   0  0  2  0  0  0  0  0  0  0  0  0
    9.3425  -14.7986   15.6744 N   0  0  0  0  0  0  0  0  0  0  0  0
    9.4345  -15.2631   18.0454 C   0  0  0  0  0  0  0  0  0  0  0  0
   10.4550  -16.0012   18.1052 O   0  0  0  0  0  0  0  0  0  0  0  0
    9.0674  -14.3648   19.0611 N   0  0  0  0  0  0  0  0  0  0  0  0
    8.5511  -13.0048   18.7637 C   0  0  0  0  0  0  0  0  0  0  0  0
    7.2860  -13.0461   19.5867 C   0  0  0  0  0  0  0  0  0  0  0  0
    7.5616  -14.0359   20.7120 C   0  0  0  0  0  0  0  0  0  0  0  0
    9.0444  -14.3262   20.4783 C   0  0  1  0  0  0  0  0  0  0  0  0
    9.5313  -15.4380   21.2462 C   0  0  0  0  0  0  0  0  0  0  0  0
    9.1417  -16.6095   21.1212 O   0  0  0  0  0  0  0  0  0  0  0  0
   10.5418  -15.2324   22.2431 N   0  0  0  0  0  0  0  0  0  0  0  0
   11.0460  -16.3631   23.0384 C   0  0  1  0  0  0  0  0  0  0  0  0
   12.3964  -15.9301   23.5584 C   0  0  0  0  0  0  0  0  0  0  0  0
   13.4436  -15.9046   22.5148 C   0  0  0  0  0  0  0  0  0  0  0  0
   13.2832  -16.2795   21.3239 O   0  0  0  0  0  0  0  0  0  0  0  0
   10.1603  -16.6710   24.1614 C   0  0  0  0  0  0  0  0  0  0  0  0
   10.2127  -17.9450   24.7078 O   0  0  0  0  0  0  0  0  0  0  0  0
   14.7379  -15.4373   22.8119 O   0  0  0  0  0  0  0  0  0  0  0  0
    9.3474  -15.8399   24.6623 O   0  0  0  0  0  0  0  0  0  0  0  0
  2  1  1  1
  3  2  1  0
  4  6  1  0
  4  2  1  0
  4  5  1  6
  6  7  2  0
  8 12  1  0
  8  6  1  0
  9  8  1  0
 10  9  1  0
 10 11  1  0
 11 12  1  0
 13 14  2  0
 12 13  1  1
 15 13  1  0
 16 15  1  0
 16 20  1  0
 16 17  1  1
 18 17  1  0
 18 22  1  0
 19 18  2  0
 20 21  1  0
 23 20  2  0
M  END
$$$$
