TPD.pdb
     RDKit          3D

 23 23  0  0  1  0  0  0  0  0999 V2000
    7.5698  -16.7311   14.5762 C   0  0  0  0  0  0  0  0  0  0  0  0
    8.2471  -16.5208   15.8911 C   0  0  1  0  0  0  0  0  0  0  0  0
    9.4241  -17.2697   16.0370 O   0  0  0  0  0  0  0  0  0  0  0  0
    8.5597  -15.0276   16.0948 C   0  0  2  0  0  0  0  0  0  0  0  0
    9.3476  -14.6406   14.9301 N   0  0  0  0  0  0  0  0  0  0  0  0
    9.3641  -14.8547   17.3384 C   0  0  0  0  0  0  0  0  0  0  0  0
   10.4591  -15.4795   17.3216 O   0  0  0  0  0  0  0  0  0  0  0  0
    8.9369  -14.0689   18.4217 N   0  0  0  0  0  0  0  0  0  0  0  0
    8.2659  -12.7584   18.2303 C   0  0  0  0  0  0  0  0  0  0  0  0
    7.0419  -12.9917   19.0830 C   0  0  0  0  0  0  0  0  0  0  0  0
    7.4623  -14.0144   20.1315 C   0  0  0  0  0  0  0  0  0  0  0  0
    8.9589  -14.1232   19.8384 C   0  0  1  0  0  0  0  0  0  0  0  0
    9.5900  -15.2209   20.5164 C   0  0  0  0  0  0  0  0  0  0  0  0
    9.3610  -16.4191   20.2895 O   0  0  0  0  0  0  0  0  0  0  0  0
   10.5634  -14.9670   21.5389 N   0  0  0  0  0  0  0  0  0  0  0  0
   11.1975  -16.0827   22.2586 C   0  0  1  0  0  0  0  0  0  0  0  0
   12.6529  -15.7051   22.4021 C   0  0  0  0  0  0  0  0  0  0  0  0
   13.4531  -16.7230   23.1162 C   0  0  0  0  0  0  0  0  0  0  0  0
   13.3466  -17.9668   22.9542 O   0  0  0  0  0  0  0  0  0  0  0  0
   10.6054  -16.2778   23.5822 C   0  0  0  0  0  0  0  0  0  0  0  0
   10.8704  -17.4639   24.2508 O   0  0  0  0  0  0  0  0  0  0  0  0
   14.4230  -16.3368   24.0605 O   0  0  0  0  0  0  0  0  0  0  0  0
    9.8634  -15.4248   24.1515 O   0  0  0  0  0  0  0  0  0  0  0  0
  2  1  1  6
  3  2  1  0
  4  6  1  0
  4  2  1  0
  4  5  1  6
  6  7  2  0
  8 12  1  0
  8  6  1  0
  9  8  1  0
 10  9  1  0
 10 11  1  0
 11 12  1  0
 13 14  2  0
 12 13  1  6
 15 13  1  0
 16 15  1  0
 16 20  1  0
 16 17  1  1
 18 17  1  0
 18 22  1  0
 19 18  2  0
 20 21  1  0
 23 20  2  0
M  END
$$$$
