TPD.pdb
     RDKit          3D

 23 23  0  0  1  0  0  0  0  0999 V2000
    7.2017  -17.4219   17.2944 C   0  0  0  0  0  0  0  0  0  0  0  0
    8.1912  -16.7924   16.3689 C   0  0  1  0  0  0  0  0  0  0  0  0
    7.8191  -16.8717   15.0188 O   0  0  0  0  0  0  0  0  0  0  0  0
    8.4164  -15.3194   16.7540 C   0  0  2  0  0  0  0  0  0  0  0  0
    9.1557  -14.7420   15.6373 N   0  0  0  0  0  0  0  0  0  0  0  0
    9.2334  -15.2520   17.9995 C   0  0  0  0  0  0  0  0  0  0  0  0
   10.2404  -16.0107   17.9837 O   0  0  0  0  0  0  0  0  0  0  0  0
    8.9070  -14.4201   19.0834 N   0  0  0  0  0  0  0  0  0  0  0  0
    8.4707  -13.0134   18.8957 C   0  0  0  0  0  0  0  0  0  0  0  0
    7.1971  -13.0499   19.7056 C   0  0  0  0  0  0  0  0  0  0  0  0
    7.4055  -14.1422   20.7475 C   0  0  0  0  0  0  0  0  0  0  0  0
    8.8720  -14.4960   20.4988 C   0  0  1  0  0  0  0  0  0  0  0  0
    9.2880  -15.6925   21.1756 C   0  0  0  0  0  0  0  0  0  0  0  0
    9.0570  -16.8460   20.7808 O   0  0  0  0  0  0  0  0  0  0  0  0
   10.0274  -15.6020   22.4014 N   0  0  0  0  0  0  0  0  0  0  0  0
   10.7453  -16.7736   22.9277 C   0  0  1  0  0  0  0  0  0  0  0  0
   11.7925  -17.1127   21.8934 C   0  0  0  0  0  0  0  0  0  0  0  0
   12.6161  -18.2853   22.2583 C   0  0  0  0  0  0  0  0  0  0  0  0
   12.4956  -18.9473   23.3221 O   0  0  0  0  0  0  0  0  0  0  0  0
   11.3918  -16.4812   24.2071 C   0  0  0  0  0  0  0  0  0  0  0  0
   12.2341  -15.3815   24.2801 O   0  0  0  0  0  0  0  0  0  0  0  0
   13.6273  -18.7456   21.3939 O   0  0  0  0  0  0  0  0  0  0  0  0
   11.2264  -17.1766   25.2519 O   0  0  0  0  0  0  0  0  0  0  0  0
  2  1  1  1
  3  2  1  0
  4  6  1  0
  4  2  1  0
  4  5  1  6
  6  7  2  0
  8 12  1  0
  8  6  1  0
  9  8  1  0
 10  9  1  0
 10 11  1  0
 11 12  1  0
 13 14  2  0
 12 13  1  6
 15 13  1  0
 16 15  1  0
 16 20  1  0
 16 17  1  6
 18 17  1  0
 18 22  1  0
 19 18  2  0
 20 21  1  0
 23 20  2  0
M  END
$$$$
