TPD.pdb
     RDKit          3D

 23 23  0  0  1  0  0  0  0  0999 V2000
    7.7155  -17.5885   17.1010 C   0  0  0  0  0  0  0  0  0  0  0  0
    8.6702  -16.8510   16.2197 C   0  0  1  0  0  0  0  0  0  0  0  0
    8.3635  -16.9572   14.8551 O   0  0  0  0  0  0  0  0  0  0  0  0
    8.7237  -15.3658   16.6201 C   0  0  2  0  0  0  0  0  0  0  0  0
    9.4239  -14.7011   15.5270 N   0  0  0  0  0  0  0  0  0  0  0  0
    9.4965  -15.2215   17.8871 C   0  0  0  0  0  0  0  0  0  0  0  0
   10.5382  -15.9309   17.9259 O   0  0  0  0  0  0  0  0  0  0  0  0
    9.0967  -14.3741   18.9338 N   0  0  0  0  0  0  0  0  0  0  0  0
    8.5623  -13.0113   18.6859 C   0  0  0  0  0  0  0  0  0  0  0  0
    7.2842  -13.1089   19.4837 C   0  0  0  0  0  0  0  0  0  0  0  0
    7.5576  -14.1417   20.5702 C   0  0  0  0  0  0  0  0  0  0  0  0
    9.0490  -14.3971   20.3507 C   0  0  1  0  0  0  0  0  0  0  0  0
    9.5418  -15.5330   21.0786 C   0  0  0  0  0  0  0  0  0  0  0  0
    9.1096  -16.6902   20.9623 O   0  0  0  0  0  0  0  0  0  0  0  0
   10.6108  -15.3709   22.0212 N   0  0  0  0  0  0  0  0  0  0  0  0
   11.0228  -16.4912   22.8816 C   0  0  1  0  0  0  0  0  0  0  0  0
   12.4740  -16.2401   23.2166 C   0  0  0  0  0  0  0  0  0  0  0  0
   13.3619  -16.2801   22.0349 C   0  0  0  0  0  0  0  0  0  0  0  0
   13.2198  -17.0548   21.0529 O   0  0  0  0  0  0  0  0  0  0  0  0
   10.2342  -16.5451   24.1128 C   0  0  0  0  0  0  0  0  0  0  0  0
   10.3651  -17.6603   24.9271 O   0  0  0  0  0  0  0  0  0  0  0  0
   14.4663  -15.4124   21.9406 O   0  0  0  0  0  0  0  0  0  0  0  0
    9.4378  -15.6308   24.4764 O   0  0  0  0  0  0  0  0  0  0  0  0
  2  1  1  1
  3  2  1  0
  4  6  1  0
  4  2  1  0
  4  5  1  6
  6  7  2  0
  8 12  1  0
  8  6  1  0
  9  8  1  0
 10  9  1  0
 10 11  1  0
 11 12  1  0
 13 14  2  0
 12 13  1  6
 15 13  1  0
 16 15  1  0
 16 20  1  0
 16 17  1  1
 18 17  1  0
 18 22  1  0
 19 18  2  0
 20 21  1  0
 23 20  2  0
M  END
$$$$
