TPD.pdb
     RDKit          3D

 23 23  0  0  1  0  0  0  0  0999 V2000
    7.4340  -16.3786   18.0726 C   0  0  0  0  0  0  0  0  0  0  0  0
    8.3083  -15.2838   17.5540 C   0  0  1  0  0  0  0  0  0  0  0  0
    7.9394  -14.8343   16.2775 O   0  0  0  0  0  0  0  0  0  0  0  0
    8.3126  -14.0977   18.5349 C   0  0  2  0  0  0  0  0  0  0  0  0
    8.9683  -13.0110   17.8164 N   0  0  0  0  0  0  0  0  0  0  0  0
    9.1013  -14.4601   19.7474 C   0  0  0  0  0  0  0  0  0  0  0  0
   10.1385  -15.1303   19.4926 O   0  0  0  0  0  0  0  0  0  0  0  0
    8.7197  -14.0869   21.0469 N   0  0  0  0  0  0  0  0  0  0  0  0
    8.1953  -12.7331   21.3577 C   0  0  0  0  0  0  0  0  0  0  0  0
    6.9244  -13.1287   22.0701 C   0  0  0  0  0  0  0  0  0  0  0  0
    7.1990  -14.5051   22.6635 C   0  0  0  0  0  0  0  0  0  0  0  0
    8.6857  -14.6614   22.3427 C   0  0  1  0  0  0  0  0  0  0  0  0
    9.1752  -15.9936   22.5630 C   0  0  0  0  0  0  0  0  0  0  0  0
    8.6236  -17.0271   22.1541 O   0  0  0  0  0  0  0  0  0  0  0  0
   10.3861  -16.1984   23.3040 N   0  0  0  0  0  0  0  0  0  0  0  0
   10.8007  -17.5549   23.6953 C   0  0  1  0  0  0  0  0  0  0  0  0
   12.0507  -17.8482   22.8998 C   0  0  0  0  0  0  0  0  0  0  0  0
   13.1372  -16.8739   23.1382 C   0  0  0  0  0  0  0  0  0  0  0  0
   13.0663  -15.8942   23.9254 O   0  0  0  0  0  0  0  0  0  0  0  0
   11.0953  -17.6382   25.1259 C   0  0  0  0  0  0  0  0  0  0  0  0
   10.9818  -16.4842   25.8871 O   0  0  0  0  0  0  0  0  0  0  0  0
   14.3675  -16.9960   22.4651 O   0  0  0  0  0  0  0  0  0  0  0  0
   11.4491  -18.7049   25.7084 O   0  0  0  0  0  0  0  0  0  0  0  0
  2  1  1  1
  3  2  1  0
  4  6  1  0
  4  2  1  0
  4  5  1  6
  6  7  2  0
  8 12  1  0
  8  6  1  0
  9  8  1  0
 10  9  1  0
 10 11  1  0
 11 12  1  0
 13 14  2  0
 12 13  1  6
 15 13  1  0
 16 15  1  0
 16 20  1  0
 16 17  1  6
 18 17  1  0
 18 22  1  0
 19 18  2  0
 20 21  1  0
 23 20  2  0
M  END
$$$$
