TPD.pdb
     RDKit          3D

 23 23  0  0  1  0  0  0  0  0999 V2000
    5.4633  -18.4024   22.1423 C   0  0  0  0  0  0  0  0  0  0  0  0
    5.9747  -18.7309   20.7775 C   0  0  1  0  0  0  0  0  0  0  0  0
    4.9988  -19.2847   19.9358 O   0  0  0  0  0  0  0  0  0  0  0  0
    6.5700  -17.4747   20.1168 C   0  0  2  0  0  0  0  0  0  0  0  0
    6.8278  -17.8573   18.7333 N   0  0  0  0  0  0  0  0  0  0  0  0
    7.8478  -17.1156   20.7961 C   0  0  0  0  0  0  0  0  0  0  0  0
    8.6928  -18.0513   20.8081 O   0  0  0  0  0  0  0  0  0  0  0  0
    8.0816  -15.8531   21.3663 N   0  0  0  0  0  0  0  0  0  0  0  0
    7.6304  -14.5972   20.7156 C   0  0  0  0  0  0  0  0  0  0  0  0
    6.8857  -13.9828   21.8764 C   0  0  0  0  0  0  0  0  0  0  0  0
    7.5416  -14.5494   23.1297 C   0  0  0  0  0  0  0  0  0  0  0  0
    8.7140  -15.3149   22.5155 C   0  0  1  0  0  0  0  0  0  0  0  0
    9.3802  -16.1762   23.4521 C   0  0  0  0  0  0  0  0  0  0  0  0
    8.8082  -16.9742   24.2107 O   0  0  0  0  0  0  0  0  0  0  0  0
   10.8105  -16.1502   23.5570 N   0  0  0  0  0  0  0  0  0  0  0  0
   11.4952  -16.9176   24.6094 C   0  0  1  0  0  0  0  0  0  0  0  0
   12.9205  -16.4179   24.6211 C   0  0  0  0  0  0  0  0  0  0  0  0
   13.6209  -16.6192   23.3345 C   0  0  0  0  0  0  0  0  0  0  0  0
   13.1229  -17.1790   22.3230 O   0  0  0  0  0  0  0  0  0  0  0  0
   10.8849  -16.6993   25.9209 C   0  0  0  0  0  0  0  0  0  0  0  0
   10.8834  -17.7499   26.8267 O   0  0  0  0  0  0  0  0  0  0  0  0
   14.9455  -16.1742   23.1642 O   0  0  0  0  0  0  0  0  0  0  0  0
   10.3568  -15.6049   26.2756 O   0  0  0  0  0  0  0  0  0  0  0  0
  2  1  1  1
  3  2  1  0
  4  6  1  0
  4  2  1  0
  4  5  1  6
  6  7  2  0
  8 12  1  0
  8  6  1  0
  9  8  1  0
 10  9  1  0
 10 11  1  0
 11 12  1  0
 13 14  2  0
 12 13  1  1
 15 13  1  0
 16 15  1  0
 16 20  1  0
 16 17  1  1
 18 17  1  0
 18 22  1  0
 19 18  2  0
 20 21  1  0
 23 20  2  0
M  END
$$$$
