TPD.pdb
     RDKit          3D

 23 23  0  0  1  0  0  0  0  0999 V2000
    7.5203  -17.4291   17.1119 C   0  0  0  0  0  0  0  0  0  0  0  0
    8.3405  -16.7950   16.0361 C   0  0  1  0  0  0  0  0  0  0  0  0
    7.8320  -17.0127   14.7471 O   0  0  0  0  0  0  0  0  0  0  0  0
    8.4700  -15.2823   16.2887 C   0  0  2  0  0  0  0  0  0  0  0  0
    9.0734  -14.7434   15.0752 N   0  0  0  0  0  0  0  0  0  0  0  0
    9.3691  -15.0497   17.4553 C   0  0  0  0  0  0  0  0  0  0  0  0
   10.4440  -15.7066   17.4024 O   0  0  0  0  0  0  0  0  0  0  0  0
    9.0435  -14.1801   18.5095 N   0  0  0  0  0  0  0  0  0  0  0  0
    8.3962  -12.8644   18.2764 C   0  0  0  0  0  0  0  0  0  0  0  0
    7.2318  -13.0009   19.2277 C   0  0  0  0  0  0  0  0  0  0  0  0
    7.6994  -13.9644   20.3117 C   0  0  0  0  0  0  0  0  0  0  0  0
    9.1672  -14.1405   19.9214 C   0  0  1  0  0  0  0  0  0  0  0  0
    9.8159  -15.2101   20.6270 C   0  0  0  0  0  0  0  0  0  0  0  0
    9.4562  -16.3973   20.5990 O   0  0  0  0  0  0  0  0  0  0  0  0
   10.9681  -14.9388   21.4371 N   0  0  0  0  0  0  0  0  0  0  0  0
   11.5956  -16.0118   22.2246 C   0  0  1  0  0  0  0  0  0  0  0  0
   12.9597  -15.4925   22.6131 C   0  0  0  0  0  0  0  0  0  0  0  0
   13.7308  -16.4410   23.4452 C   0  0  0  0  0  0  0  0  0  0  0  0
   13.4712  -17.6664   23.5690 O   0  0  0  0  0  0  0  0  0  0  0  0
   10.8237  -16.3205   23.4284 C   0  0  0  0  0  0  0  0  0  0  0  0
   10.0803  -15.3037   24.0095 O   0  0  0  0  0  0  0  0  0  0  0  0
   14.8499  -16.0028   24.1782 O   0  0  0  0  0  0  0  0  0  0  0  0
   10.7968  -17.4641   23.9706 O   0  0  0  0  0  0  0  0  0  0  0  0
  2  1  1  1
  3  2  1  0
  4  6  1  0
  4  2  1  0
  4  5  1  6
  6  7  2  0
  8 12  1  0
  8  6  1  0
  9  8  1  0
 10  9  1  0
 10 11  1  0
 11 12  1  0
 13 14  2  0
 12 13  1  1
 15 13  1  0
 16 15  1  0
 16 20  1  0
 16 17  1  1
 18 17  1  0
 18 22  1  0
 19 18  2  0
 20 21  1  0
 23 20  2  0
M  END
$$$$
