TPD.pdb
     RDKit          3D

 23 23  0  0  1  0  0  0  0  0999 V2000
    9.0567  -13.1512   26.4503 C   0  0  0  0  0  0  0  0  0  0  0  0
    7.6797  -13.3014   27.0100 C   0  0  1  0  0  0  0  0  0  0  0  0
    7.3529  -12.3182   27.9555 O   0  0  0  0  0  0  0  0  0  0  0  0
    6.6405  -13.2879   25.8747 C   0  0  2  0  0  0  0  0  0  0  0  0
    5.3454  -13.3475   26.5426 N   0  0  0  0  0  0  0  0  0  0  0  0
    6.8300  -14.4914   25.0150 C   0  0  0  0  0  0  0  0  0  0  0  0
    6.8152  -15.5768   25.6565 O   0  0  0  0  0  0  0  0  0  0  0  0
    7.0073  -14.4161   23.6234 N   0  0  0  0  0  0  0  0  0  0  0  0
    6.4534  -13.2999   22.8162 C   0  0  0  0  0  0  0  0  0  0  0  0
    7.7109  -12.8847   22.0910 C   0  0  0  0  0  0  0  0  0  0  0  0
    8.5772  -14.1365   22.0240 C   0  0  0  0  0  0  0  0  0  0  0  0
    7.6149  -15.1789   22.5942 C   0  0  1  0  0  0  0  0  0  0  0  0
    8.2502  -16.4318   22.8931 C   0  0  0  0  0  0  0  0  0  0  0  0
    8.1271  -17.4665   22.2194 O   0  0  0  0  0  0  0  0  0  0  0  0
    9.0991  -16.5481   24.0435 N   0  0  0  0  0  0  0  0  0  0  0  0
   10.1956  -17.5291   24.0652 C   0  0  1  0  0  0  0  0  0  0  0  0
   11.0460  -17.2217   22.8553 C   0  0  0  0  0  0  0  0  0  0  0  0
   12.4371  -16.8547   23.1967 C   0  0  0  0  0  0  0  0  0  0  0  0
   12.8940  -16.7727   24.3668 O   0  0  0  0  0  0  0  0  0  0  0  0
   11.0032  -17.4098   25.2792 C   0  0  0  0  0  0  0  0  0  0  0  0
   10.7057  -16.3862   26.1669 O   0  0  0  0  0  0  0  0  0  0  0  0
   13.3691  -16.5634   22.1828 O   0  0  0  0  0  0  0  0  0  0  0  0
   11.9597  -18.1882   25.5650 O   0  0  0  0  0  0  0  0  0  0  0  0
  2  1  1  6
  3  2  1  0
  4  6  1  0
  4  2  1  0
  4  5  1  1
  6  7  2  0
  8 12  1  0
  8  6  1  0
  9  8  1  0
 10  9  1  0
 10 11  1  0
 11 12  1  0
 13 14  2  0
 12 13  1  1
 15 13  1  0
 16 15  1  0
 16 20  1  0
 16 17  1  6
 18 17  1  0
 18 22  1  0
 19 18  2  0
 20 21  1  0
 23 20  2  0
M  END
$$$$
