TPD.pdb
     RDKit          3D

 23 23  0  0  1  0  0  0  0  0999 V2000
    8.0282  -11.9196   25.6335 C   0  0  0  0  0  0  0  0  0  0  0  0
    7.1266  -12.7762   26.4614 C   0  0  1  0  0  0  0  0  0  0  0  0
    6.2361  -12.0405   27.2571 O   0  0  0  0  0  0  0  0  0  0  0  0
    6.3342  -13.7398   25.5600 C   0  0  2  0  0  0  0  0  0  0  0  0
    5.3854  -14.4003   26.4491 N   0  0  0  0  0  0  0  0  0  0  0  0
    7.2651  -14.7426   24.9674 C   0  0  0  0  0  0  0  0  0  0  0  0
    7.8983  -15.4130   25.8274 O   0  0  0  0  0  0  0  0  0  0  0  0
    7.4173  -14.9188   23.5820 N   0  0  0  0  0  0  0  0  0  0  0  0
    6.2762  -14.7949   22.6402 C   0  0  0  0  0  0  0  0  0  0  0  0
    6.8764  -13.8073   21.6688 C   0  0  0  0  0  0  0  0  0  0  0  0
    8.3836  -14.0165   21.7508 C   0  0  0  0  0  0  0  0  0  0  0  0
    8.4513  -15.2392   22.6662 C   0  0  1  0  0  0  0  0  0  0  0  0
    9.7790  -15.5222   23.1351 C   0  0  0  0  0  0  0  0  0  0  0  0
   10.3892  -14.8505   23.9813 O   0  0  0  0  0  0  0  0  0  0  0  0
   10.4953  -16.6526   22.6188 N   0  0  0  0  0  0  0  0  0  0  0  0
   11.8030  -17.0268   23.1800 C   0  0  1  0  0  0  0  0  0  0  0  0
   11.5399  -17.4051   24.6184 C   0  0  0  0  0  0  0  0  0  0  0  0
   12.7622  -17.7961   25.3529 C   0  0  0  0  0  0  0  0  0  0  0  0
   13.9201  -17.8265   24.8600 O   0  0  0  0  0  0  0  0  0  0  0  0
   12.3903  -18.1633   22.4703 C   0  0  0  0  0  0  0  0  0  0  0  0
   13.7062  -18.0609   22.0433 O   0  0  0  0  0  0  0  0  0  0  0  0
   12.6927  -18.1731   26.7074 O   0  0  0  0  0  0  0  0  0  0  0  0
   11.7644  -19.2353   22.2228 O   0  0  0  0  0  0  0  0  0  0  0  0
  2  1  1  6
  3  2  1  0
  4  6  1  0
  4  2  1  0
  4  5  1  1
  6  7  2  0
  8 12  1  0
  8  6  1  0
  9  8  1  0
 10  9  1  0
 10 11  1  0
 11 12  1  0
 13 14  2  0
 12 13  1  1
 15 13  1  0
 16 15  1  0
 16 20  1  0
 16 17  1  1
 18 17  1  0
 18 22  1  0
 19 18  2  0
 20 21  1  0
 23 20  2  0
M  END
$$$$
