TPD.pdb
     RDKit          3D

 23 23  0  0  1  0  0  0  0  0999 V2000
    7.2587  -17.3546   17.3949 C   0  0  0  0  0  0  0  0  0  0  0  0
    8.3962  -16.9558   16.5122 C   0  0  1  0  0  0  0  0  0  0  0  0
    8.1565  -17.1985   15.1516 O   0  0  0  0  0  0  0  0  0  0  0  0
    8.7312  -15.4676   16.7174 C   0  0  2  0  0  0  0  0  0  0  0  0
    9.6166  -15.1202   15.6118 N   0  0  0  0  0  0  0  0  0  0  0  0
    9.4413  -15.2940   18.0170 C   0  0  0  0  0  0  0  0  0  0  0  0
   10.4535  -16.0355   18.1416 O   0  0  0  0  0  0  0  0  0  0  0  0
    9.0178  -14.3886   19.0041 N   0  0  0  0  0  0  0  0  0  0  0  0
    8.6332  -12.9914   18.6813 C   0  0  0  0  0  0  0  0  0  0  0  0
    7.2796  -12.9575   19.3491 C   0  0  0  0  0  0  0  0  0  0  0  0
    7.3525  -13.9820   20.4747 C   0  0  0  0  0  0  0  0  0  0  0  0
    8.8296  -14.3713   20.4094 C   0  0  1  0  0  0  0  0  0  0  0  0
    9.1460  -15.5266   21.2019 C   0  0  0  0  0  0  0  0  0  0  0  0
    8.5817  -16.6274   21.1054 O   0  0  0  0  0  0  0  0  0  0  0  0
   10.1820  -15.4547   22.1913 N   0  0  0  0  0  0  0  0  0  0  0  0
   10.6791  -16.6778   22.8409 C   0  0  1  0  0  0  0  0  0  0  0  0
   11.9219  -17.0721   22.0784 C   0  0  0  0  0  0  0  0  0  0  0  0
   12.5984  -18.2617   22.6386 C   0  0  0  0  0  0  0  0  0  0  0  0
   12.0110  -19.2479   23.1553 O   0  0  0  0  0  0  0  0  0  0  0  0
   11.0149  -16.4451   24.2457 C   0  0  0  0  0  0  0  0  0  0  0  0
   11.0486  -17.5363   25.1014 O   0  0  0  0  0  0  0  0  0  0  0  0
   14.0026  -18.3591   22.6232 O   0  0  0  0  0  0  0  0  0  0  0  0
   11.2758  -15.3028   24.7248 O   0  0  0  0  0  0  0  0  0  0  0  0
  2  1  1  1
  3  2  1  0
  4  6  1  0
  4  2  1  0
  4  5  1  6
  6  7  2  0
  8 12  1  0
  8  6  1  0
  9  8  1  0
 10  9  1  0
 10 11  1  0
 11 12  1  0
 13 14  2  0
 12 13  1  6
 15 13  1  0
 16 15  1  0
 16 20  1  0
 16 17  1  6
 18 17  1  0
 18 22  1  0
 19 18  2  0
 20 21  1  0
 23 20  2  0
M  END
$$$$
