TPD.pdb
     RDKit          3D

 23 23  0  0  1  0  0  0  0  0999 V2000
    7.3509  -17.5196   17.1026 C   0  0  0  0  0  0  0  0  0  0  0  0
    8.2257  -16.9933   16.0118 C   0  0  1  0  0  0  0  0  0  0  0  0
    7.7312  -17.2565   14.7259 O   0  0  0  0  0  0  0  0  0  0  0  0
    8.4335  -15.4778   16.1821 C   0  0  2  0  0  0  0  0  0  0  0  0
    9.0990  -15.0444   14.9589 N   0  0  0  0  0  0  0  0  0  0  0  0
    9.3122  -15.2272   17.3604 C   0  0  0  0  0  0  0  0  0  0  0  0
   10.3509  -15.9419   17.3759 O   0  0  0  0  0  0  0  0  0  0  0  0
    9.0063  -14.2832   18.3548 N   0  0  0  0  0  0  0  0  0  0  0  0
    8.4487  -12.9462   18.0294 C   0  0  0  0  0  0  0  0  0  0  0  0
    7.2478  -12.9609   18.9443 C   0  0  0  0  0  0  0  0  0  0  0  0
    7.6200  -13.8895   20.0937 C   0  0  0  0  0  0  0  0  0  0  0  0
    9.0862  -14.1735   19.7661 C   0  0  1  0  0  0  0  0  0  0  0  0
    9.6449  -15.2395   20.5500 C   0  0  0  0  0  0  0  0  0  0  0  0
    9.1776  -16.3868   20.6202 O   0  0  0  0  0  0  0  0  0  0  0  0
   10.8293  -15.0127   21.3267 N   0  0  0  0  0  0  0  0  0  0  0  0
   11.3494  -16.0620   22.2175 C   0  0  1  0  0  0  0  0  0  0  0  0
   12.7627  -15.6505   22.5560 C   0  0  0  0  0  0  0  0  0  0  0  0
   13.4464  -16.5987   23.4615 C   0  0  0  0  0  0  0  0  0  0  0  0
   13.0058  -17.7333   23.7825 O   0  0  0  0  0  0  0  0  0  0  0  0
   10.5595  -16.1696   23.4442 C   0  0  0  0  0  0  0  0  0  0  0  0
   10.4230  -17.4202   24.0287 O   0  0  0  0  0  0  0  0  0  0  0  0
   14.6859  -16.2669   24.0406 O   0  0  0  0  0  0  0  0  0  0  0  0
    9.9921  -15.1850   24.0020 O   0  0  0  0  0  0  0  0  0  0  0  0
  2  1  1  1
  3  2  1  0
  4  6  1  0
  4  2  1  0
  4  5  1  6
  6  7  2  0
  8 12  1  0
  8  6  1  0
  9  8  1  0
 10  9  1  0
 10 11  1  0
 11 12  1  0
 13 14  2  0
 12 13  1  1
 15 13  1  0
 16 15  1  0
 16 20  1  0
 16 17  1  1
 18 17  1  0
 18 22  1  0
 19 18  2  0
 20 21  1  0
 23 20  2  0
M  END
$$$$
