TPD.pdb
     RDKit          3D

 23 23  0  0  1  0  0  0  0  0999 V2000
    6.1311  -17.8688   19.4997 C   0  0  0  0  0  0  0  0  0  0  0  0
    7.1952  -18.1079   18.4787 C   0  0  1  0  0  0  0  0  0  0  0  0
    6.7300  -18.7737   17.3352 O   0  0  0  0  0  0  0  0  0  0  0  0
    7.8462  -16.7751   18.0680 C   0  0  2  0  0  0  0  0  0  0  0  0
    8.6323  -17.0850   16.8792 N   0  0  0  0  0  0  0  0  0  0  0  0
    8.7393  -16.3010   19.1639 C   0  0  0  0  0  0  0  0  0  0  0  0
    9.5814  -17.1624   19.5364 O   0  0  0  0  0  0  0  0  0  0  0  0
    8.6460  -15.0159   19.7236 N   0  0  0  0  0  0  0  0  0  0  0  0
    8.4477  -13.8039   18.8894 C   0  0  0  0  0  0  0  0  0  0  0  0
    7.2527  -13.2180   19.6022 C   0  0  0  0  0  0  0  0  0  0  0  0
    7.3471  -13.7180   21.0386 C   0  0  0  0  0  0  0  0  0  0  0  0
    8.7066  -14.4170   21.0074 C   0  0  1  0  0  0  0  0  0  0  0  0
    8.9589  -15.2161   22.1738 C   0  0  0  0  0  0  0  0  0  0  0  0
    8.0861  -15.8021   22.8329 O   0  0  0  0  0  0  0  0  0  0  0  0
   10.3009  -15.3803   22.6531 N   0  0  0  0  0  0  0  0  0  0  0  0
   10.5886  -16.3008   23.7644 C   0  0  1  0  0  0  0  0  0  0  0  0
   10.2250  -17.6780   23.2619 C   0  0  0  0  0  0  0  0  0  0  0  0
   10.5071  -18.7503   24.2402 C   0  0  0  0  0  0  0  0  0  0  0  0
   10.0445  -18.7982   25.4099 O   0  0  0  0  0  0  0  0  0  0  0  0
   12.0023  -16.2696   24.1395 C   0  0  0  0  0  0  0  0  0  0  0  0
   12.8798  -15.5615   23.3314 O   0  0  0  0  0  0  0  0  0  0  0  0
   11.3482  -19.8263   23.8990 O   0  0  0  0  0  0  0  0  0  0  0  0
   12.4704  -16.8538   25.1603 O   0  0  0  0  0  0  0  0  0  0  0  0
  2  1  1  1
  3  2  1  0
  4  6  1  0
  4  2  1  0
  4  5  1  6
  6  7  2  0
  8 12  1  0
  8  6  1  0
  9  8  1  0
 10  9  1  0
 10 11  1  0
 11 12  1  0
 13 14  2  0
 12 13  1  1
 15 13  1  0
 16 15  1  0
 16 20  1  0
 16 17  1  6
 18 17  1  0
 18 22  1  0
 19 18  2  0
 20 21  1  0
 23 20  2  0
M  END
$$$$
