PAM.pdb
     RDKit          3D

 21 21  0  0  1  0  0  0  0  0999 V2000
    5.9709  -18.7716   21.4585 N   0  0  0  0  0  0  0  0  0  0  0  0
    4.8277  -19.1658   20.6688 C   0  0  0  0  0  0  0  0  0  0  0  0
    5.1952  -18.6800   19.2667 C   0  0  0  0  0  0  0  0  0  0  0  0
    6.6634  -19.0500   19.2169 C   0  0  0  0  0  0  0  0  0  0  0  0
    7.1102  -18.7603   20.6321 C   0  0  1  0  0  0  0  0  0  0  0  0
    7.8870  -17.5175   20.6162 C   0  0  0  0  0  0  0  0  0  0  0  0
    9.0881  -17.5916   20.2169 O   0  0  0  0  0  0  0  0  0  0  0  0
    7.4686  -13.8653   20.4172 C   0  0  0  0  0  0  0  0  0  0  0  0
    8.2283  -15.0429   20.9585 C   0  0  2  0  0  0  0  0  0  0  0  0
    7.4253  -16.2440   21.0036 N   0  0  0  0  0  0  0  0  0  0  0  0
    8.8233  -14.7088   22.2628 C   0  0  0  0  0  0  0  0  0  0  0  0
    9.6412  -13.7790   22.4464 O   0  0  0  0  0  0  0  0  0  0  0  0
    6.1534  -11.1805   27.1361 C   0  0  0  0  0  0  0  0  0  0  0  0
    6.1686  -12.9515   26.7491 S   0  0  0  0  0  0  0  0  0  0  0  0
    7.7126  -13.2969   25.8302 C   0  0  0  0  0  0  0  0  0  0  0  0
    7.7343  -14.7667   25.5265 C   0  0  0  0  0  0  0  0  0  0  0  0
    8.9544  -15.1843   24.7466 C   0  0  2  0  0  0  0  0  0  0  0  0
    8.4555  -15.4812   23.3942 N   0  0  0  0  0  0  0  0  0  0  0  0
    9.4939  -16.4434   25.2939 C   0  0  0  0  0  0  0  0  0  0  0  0
   10.3265  -16.5258   26.4008 O   0  0  0  0  0  0  0  0  0  0  0  0
    9.1943  -17.5278   24.7365 O   0  0  0  0  0  0  0  0  0  0  0  0
  2  1  1  0
  3  4  1  0
  3  2  1  0
  4  5  1  0
  5  1  1  0
  5  6  1  6
  7  6  2  0
  9 10  1  0
  9  8  1  1
 10  6  1  0
 11 18  1  0
 11  9  1  0
 12 11  2  0
 14 13  1  0
 15 16  1  0
 15 14  1  0
 17 18  1  0
 17 16  1  1
 19 17  1  0
 20 19  1  0
 21 19  2  0
M  END
$$$$
