PAM.pdb
     RDKit          3D

 21 21  0  0  1  0  0  0  0  0999 V2000
    9.2689  -14.4473   18.3595 N   0  0  0  0  0  0  0  0  0  0  0  0
    8.4568  -13.9808   17.2600 C   0  0  0  0  0  0  0  0  0  0  0  0
    7.2223  -13.4143   17.9615 C   0  0  0  0  0  0  0  0  0  0  0  0
    7.8657  -12.7149   19.1413 C   0  0  0  0  0  0  0  0  0  0  0  0
    8.9920  -13.6604   19.4931 C   0  0  1  0  0  0  0  0  0  0  0  0
    8.6114  -14.3859   20.7084 C   0  0  0  0  0  0  0  0  0  0  0  0
    8.2554  -13.6922   21.7082 O   0  0  0  0  0  0  0  0  0  0  0  0
    8.5170  -17.9355   22.0443 C   0  0  0  0  0  0  0  0  0  0  0  0
    8.2813  -16.4533   22.1134 C   0  0  2  0  0  0  0  0  0  0  0  0
    8.6031  -15.7852   20.8726 N   0  0  0  0  0  0  0  0  0  0  0  0
    8.9906  -15.8785   23.2680 C   0  0  0  0  0  0  0  0  0  0  0  0
   10.1641  -15.4446   23.2289 O   0  0  0  0  0  0  0  0  0  0  0  0
    6.6672  -11.3442   27.5022 C   0  0  0  0  0  0  0  0  0  0  0  0
    5.8723  -12.6041   26.4691 S   0  0  0  0  0  0  0  0  0  0  0  0
    7.1888  -13.4282   25.5021 C   0  0  0  0  0  0  0  0  0  0  0  0
    7.8175  -14.4618   26.3906 C   0  0  0  0  0  0  0  0  0  0  0  0
    8.9313  -15.2167   25.7115 C   0  0  2  0  0  0  0  0  0  0  0  0
    8.3134  -15.8046   24.5122 N   0  0  0  0  0  0  0  0  0  0  0  0
    9.3714  -16.3371   26.5639 C   0  0  0  0  0  0  0  0  0  0  0  0
   10.2639  -16.2176   27.6196 O   0  0  0  0  0  0  0  0  0  0  0  0
    8.9225  -17.4876   26.3377 O   0  0  0  0  0  0  0  0  0  0  0  0
  2  1  1  0
  3  4  1  0
  3  2  1  0
  4  5  1  0
  5  1  1  0
  5  6  1  1
  7  6  2  0
  9 10  1  0
  9  8  1  6
 10  6  1  0
 11 18  1  0
 11  9  1  0
 12 11  2  0
 14 13  1  0
 15 16  1  0
 15 14  1  0
 17 18  1  0
 17 16  1  1
 19 17  1  0
 20 19  1  0
 21 19  2  0
M  END
$$$$
