PAM.pdb
     RDKit          3D

 21 21  0  0  1  0  0  0  0  0999 V2000
    8.1742  -14.8680   18.2098 N   0  0  0  0  0  0  0  0  0  0  0  0
    7.5466  -13.7429   17.5572 C   0  0  0  0  0  0  0  0  0  0  0  0
    7.3574  -12.7451   18.6999 C   0  0  0  0  0  0  0  0  0  0  0  0
    8.6694  -12.9119   19.4387 C   0  0  0  0  0  0  0  0  0  0  0  0
    8.9191  -14.3974   19.3075 C   0  0  1  0  0  0  0  0  0  0  0  0
    8.6302  -15.0213   20.6019 C   0  0  0  0  0  0  0  0  0  0  0  0
    7.7880  -14.4385   21.3493 O   0  0  0  0  0  0  0  0  0  0  0  0
    9.4915  -18.1314   22.5903 C   0  0  0  0  0  0  0  0  0  0  0  0
    8.9499  -16.7407   22.4182 C   0  0  2  0  0  0  0  0  0  0  0  0
    9.2008  -16.2106   21.0970 N   0  0  0  0  0  0  0  0  0  0  0  0
    9.4533  -15.8626   23.4870 C   0  0  0  0  0  0  0  0  0  0  0  0
   10.4689  -15.1382   23.3834 O   0  0  0  0  0  0  0  0  0  0  0  0
    5.5777  -12.4290   26.0968 C   0  0  0  0  0  0  0  0  0  0  0  0
    6.9465  -11.7661   27.0834 S   0  0  0  0  0  0  0  0  0  0  0  0
    8.2276  -13.0684   27.1853 C   0  0  0  0  0  0  0  0  0  0  0  0
    8.0341  -13.9806   26.0091 C   0  0  0  0  0  0  0  0  0  0  0  0
    9.1679  -14.9581   25.8349 C   0  0  2  0  0  0  0  0  0  0  0  0
    8.7528  -15.8241   24.7198 N   0  0  0  0  0  0  0  0  0  0  0  0
    9.2796  -15.8161   27.0295 C   0  0  0  0  0  0  0  0  0  0  0  0
    8.8979  -17.1493   27.0776 O   0  0  0  0  0  0  0  0  0  0  0  0
    9.7479  -15.3291   28.0877 O   0  0  0  0  0  0  0  0  0  0  0  0
  2  1  1  0
  3  4  1  0
  3  2  1  0
  4  5  1  0
  5  1  1  0
  5  6  1  1
  7  6  2  0
  9 10  1  0
  9  8  1  6
 10  6  1  0
 11 18  1  0
 11  9  1  0
 12 11  2  0
 14 13  1  0
 15 16  1  0
 15 14  1  0
 17 18  1  0
 17 16  1  1
 19 17  1  0
 20 19  1  0
 21 19  2  0
M  END
$$$$
