PAM.pdb
     RDKit          3D

 21 21  0  0  1  0  0  0  0  0999 V2000
    6.5881  -18.8416   21.4886 N   0  0  0  0  0  0  0  0  0  0  0  0
    5.5561  -19.4488   20.6811 C   0  0  0  0  0  0  0  0  0  0  0  0
    5.8885  -18.9568   19.2724 C   0  0  0  0  0  0  0  0  0  0  0  0
    7.3987  -19.0768   19.2820 C   0  0  0  0  0  0  0  0  0  0  0  0
    7.7390  -18.6678   20.6973 C   0  0  1  0  0  0  0  0  0  0  0  0
    8.2982  -17.3136   20.6553 C   0  0  0  0  0  0  0  0  0  0  0  0
    9.4938  -17.1942   20.2506 O   0  0  0  0  0  0  0  0  0  0  0  0
    7.3510  -13.7724   20.4087 C   0  0  0  0  0  0  0  0  0  0  0  0
    8.2442  -14.8183   21.0130 C   0  0  2  0  0  0  0  0  0  0  0  0
    7.6321  -16.1277   21.0228 N   0  0  0  0  0  0  0  0  0  0  0  0
    8.6954  -14.3928   22.3479 C   0  0  0  0  0  0  0  0  0  0  0  0
    9.3775  -13.3662   22.5667 O   0  0  0  0  0  0  0  0  0  0  0  0
    6.2728  -11.7429   26.3273 C   0  0  0  0  0  0  0  0  0  0  0  0
    7.7593  -12.3161   27.1923 S   0  0  0  0  0  0  0  0  0  0  0  0
    7.8261  -14.1361   27.0167 C   0  0  0  0  0  0  0  0  0  0  0  0
    7.5610  -14.4574   25.5746 C   0  0  0  0  0  0  0  0  0  0  0  0
    8.8032  -14.8763   24.8313 C   0  0  2  0  0  0  0  0  0  0  0  0
    8.3420  -15.1871   23.4687 N   0  0  0  0  0  0  0  0  0  0  0  0
    9.3332  -16.1282   25.4038 C   0  0  0  0  0  0  0  0  0  0  0  0
   10.0587  -16.2070   26.5839 O   0  0  0  0  0  0  0  0  0  0  0  0
    9.1277  -17.2094   24.7995 O   0  0  0  0  0  0  0  0  0  0  0  0
  2  1  1  0
  3  4  1  0
  3  2  1  0
  4  5  1  0
  5  1  1  0
  5  6  1  6
  7  6  2  0
  9 10  1  0
  9  8  1  1
 10  6  1  0
 11 18  1  0
 11  9  1  0
 12 11  2  0
 14 13  1  0
 15 16  1  0
 15 14  1  0
 17 18  1  0
 17 16  1  1
 19 17  1  0
 20 19  1  0
 21 19  2  0
M  END
$$$$
