PAM.pdb
     RDKit          3D

 21 21  0  0  1  0  0  0  0  0999 V2000
    9.5439  -13.7924   18.6999 N   0  0  0  0  0  0  0  0  0  0  0  0
    9.5530  -13.9116   17.2606 C   0  0  0  0  0  0  0  0  0  0  0  0
    8.2034  -14.5647   16.9618 C   0  0  0  0  0  0  0  0  0  0  0  0
    7.3097  -13.8196   17.9321 C   0  0  0  0  0  0  0  0  0  0  0  0
    8.2117  -13.6626   19.1354 C   0  0  1  0  0  0  0  0  0  0  0  0
    7.7694  -14.6127   20.1600 C   0  0  0  0  0  0  0  0  0  0  0  0
    6.7722  -15.3435   19.8787 O   0  0  0  0  0  0  0  0  0  0  0  0
    8.4534  -17.2377   21.5482 C   0  0  0  0  0  0  0  0  0  0  0  0
    8.1332  -15.9556   22.2628 C   0  0  2  0  0  0  0  0  0  0  0  0
    8.3482  -14.7925   21.4319 N   0  0  0  0  0  0  0  0  0  0  0  0
    8.8668  -15.8862   23.5370 C   0  0  0  0  0  0  0  0  0  0  0  0
   10.0461  -16.2760   23.6928 O   0  0  0  0  0  0  0  0  0  0  0  0
    6.0519  -10.4728   26.3570 C   0  0  0  0  0  0  0  0  0  0  0  0
    6.3894  -12.0820   27.1206 S   0  0  0  0  0  0  0  0  0  0  0  0
    7.6665  -12.9112   26.1062 C   0  0  0  0  0  0  0  0  0  0  0  0
    7.9508  -14.2407   26.7423 C   0  0  0  0  0  0  0  0  0  0  0  0
    8.9089  -15.0807   25.9374 C   0  0  2  0  0  0  0  0  0  0  0  0
    8.2079  -15.3450   24.6706 N   0  0  0  0  0  0  0  0  0  0  0  0
    9.1122  -16.3836   26.5983 C   0  0  0  0  0  0  0  0  0  0  0  0
   10.0055  -16.6070   27.6364 O   0  0  0  0  0  0  0  0  0  0  0  0
    8.4437  -17.3736   26.2120 O   0  0  0  0  0  0  0  0  0  0  0  0
  2  1  1  0
  3  4  1  0
  3  2  1  0
  4  5  1  0
  5  1  1  0
  5  6  1  1
  7  6  2  0
  9 10  1  0
  9  8  1  6
 10  6  1  0
 11 18  1  0
 11  9  1  0
 12 11  2  0
 14 13  1  0
 15 16  1  0
 15 14  1  0
 17 18  1  0
 17 16  1  1
 19 17  1  0
 20 19  1  0
 21 19  2  0
M  END
$$$$
