PAM.pdb
     RDKit          3D

 21 21  0  0  1  0  0  0  0  0999 V2000
    6.1650  -18.3814   21.1829 N   0  0  0  0  0  0  0  0  0  0  0  0
    5.0076  -18.8091   20.4324 C   0  0  0  0  0  0  0  0  0  0  0  0
    5.2618  -18.2202   19.0446 C   0  0  0  0  0  0  0  0  0  0  0  0
    6.7462  -18.4835   18.8953 C   0  0  0  0  0  0  0  0  0  0  0  0
    7.2523  -18.2439   20.2998 C   0  0  1  0  0  0  0  0  0  0  0  0
    7.9424  -16.9510   20.3180 C   0  0  0  0  0  0  0  0  0  0  0  0
    9.1136  -16.9140   19.8337 O   0  0  0  0  0  0  0  0  0  0  0  0
    7.3536  -13.3521   20.2846 C   0  0  0  0  0  0  0  0  0  0  0  0
    8.1573  -14.4936   20.8397 C   0  0  2  0  0  0  0  0  0  0  0  0
    7.4274  -15.7411   20.8240 N   0  0  0  0  0  0  0  0  0  0  0  0
    8.6695  -14.1525   22.1769 C   0  0  0  0  0  0  0  0  0  0  0  0
    9.4173  -13.1778   22.4171 O   0  0  0  0  0  0  0  0  0  0  0  0
    6.8448  -11.2152   26.7683 C   0  0  0  0  0  0  0  0  0  0  0  0
    5.9637  -12.7923   26.6170 S   0  0  0  0  0  0  0  0  0  0  0  0
    6.5431  -13.5966   25.0792 C   0  0  0  0  0  0  0  0  0  0  0  0
    7.4918  -14.6903   25.4753 C   0  0  0  0  0  0  0  0  0  0  0  0
    8.7516  -14.6990   24.6481 C   0  0  2  0  0  0  0  0  0  0  0  0
    8.3001  -14.9719   23.2743 N   0  0  0  0  0  0  0  0  0  0  0  0
    9.6104  -15.8280   25.0527 C   0  0  0  0  0  0  0  0  0  0  0  0
   10.4962  -15.7980   26.1203 O   0  0  0  0  0  0  0  0  0  0  0  0
    9.5549  -16.8997   24.4011 O   0  0  0  0  0  0  0  0  0  0  0  0
  2  1  1  0
  3  4  1  0
  3  2  1  0
  4  5  1  0
  5  1  1  0
  5  6  1  6
  7  6  2  0
  9 10  1  0
  9  8  1  1
 10  6  1  0
 11 18  1  0
 11  9  1  0
 12 11  2  0
 14 13  1  0
 15 16  1  0
 15 14  1  0
 17 18  1  0
 17 16  1  1
 19 17  1  0
 20 19  1  0
 21 19  2  0
M  END
$$$$
