PAM.pdb
     RDKit          3D

 21 21  0  0  1  0  0  0  0  0999 V2000
    7.8930  -14.7006   18.4254 N   0  0  0  0  0  0  0  0  0  0  0  0
    7.3252  -13.4891   17.8814 C   0  0  0  0  0  0  0  0  0  0  0  0
    7.3419  -12.5357   19.0764 C   0  0  0  0  0  0  0  0  0  0  0  0
    8.6920  -12.8648   19.6797 C   0  0  0  0  0  0  0  0  0  0  0  0
    8.7779  -14.3591   19.4653 C   0  0  1  0  0  0  0  0  0  0  0  0
    8.5463  -15.0157   20.7550 C   0  0  0  0  0  0  0  0  0  0  0  0
    7.4898  -14.7021   21.3819 O   0  0  0  0  0  0  0  0  0  0  0  0
    9.6683  -18.0125   22.6840 C   0  0  0  0  0  0  0  0  0  0  0  0
    9.0880  -16.6284   22.6159 C   0  0  2  0  0  0  0  0  0  0  0  0
    9.3883  -15.9652   21.3672 N   0  0  0  0  0  0  0  0  0  0  0  0
    9.5043  -15.8438   23.7897 C   0  0  0  0  0  0  0  0  0  0  0  0
   10.5559  -15.1673   23.8476 O   0  0  0  0  0  0  0  0  0  0  0  0
    6.4057  -11.1984   27.2887 C   0  0  0  0  0  0  0  0  0  0  0  0
    5.8538  -12.6289   26.3216 S   0  0  0  0  0  0  0  0  0  0  0  0
    7.3465  -13.4312   25.6320 C   0  0  0  0  0  0  0  0  0  0  0  0
    7.8153  -14.4441   26.6357 C   0  0  0  0  0  0  0  0  0  0  0  0
    9.0547  -15.1772   26.1909 C   0  0  2  0  0  0  0  0  0  0  0  0
    8.6700  -15.8444   24.9369 N   0  0  0  0  0  0  0  0  0  0  0  0
    9.3860  -16.2382   27.1605 C   0  0  0  0  0  0  0  0  0  0  0  0
    9.1242  -17.5873   26.9688 O   0  0  0  0  0  0  0  0  0  0  0  0
    9.9424  -15.9239   28.2413 O   0  0  0  0  0  0  0  0  0  0  0  0
  2  1  1  0
  3  4  1  0
  3  2  1  0
  4  5  1  0
  5  1  1  0
  5  6  1  1
  7  6  2  0
  9 10  1  0
  9  8  1  6
 10  6  1  0
 11 18  1  0
 11  9  1  0
 12 11  2  0
 14 13  1  0
 15 16  1  0
 15 14  1  0
 17 18  1  0
 17 16  1  1
 19 17  1  0
 20 19  1  0
 21 19  2  0
M  END
$$$$
