PAM.pdb
     RDKit          3D

 21 21  0  0  1  0  0  0  0  0999 V2000
    9.4489  -14.5249   18.0010 N   0  0  0  0  0  0  0  0  0  0  0  0
    8.7275  -14.1030   16.8231 C   0  0  0  0  0  0  0  0  0  0  0  0
    7.3956  -13.6149   17.3930 C   0  0  0  0  0  0  0  0  0  0  0  0
    7.8710  -12.8835   18.6316 C   0  0  0  0  0  0  0  0  0  0  0  0
    9.0101  -13.7612   19.0989 C   0  0  1  0  0  0  0  0  0  0  0  0
    8.5510  -14.5138   20.2697 C   0  0  0  0  0  0  0  0  0  0  0  0
    7.8581  -13.8854   21.1256 O   0  0  0  0  0  0  0  0  0  0  0  0
    8.7768  -18.0066   21.7416 C   0  0  0  0  0  0  0  0  0  0  0  0
    8.3180  -16.5766   21.7008 C   0  0  2  0  0  0  0  0  0  0  0  0
    8.8068  -15.8734   20.5363 N   0  0  0  0  0  0  0  0  0  0  0  0
    8.6610  -15.8960   22.9601 C   0  0  0  0  0  0  0  0  0  0  0  0
    9.7752  -15.3783   23.2001 O   0  0  0  0  0  0  0  0  0  0  0  0
    6.8649  -10.9619   27.7016 C   0  0  0  0  0  0  0  0  0  0  0  0
    6.8992  -12.0444   26.2478 S   0  0  0  0  0  0  0  0  0  0  0  0
    6.4129  -13.7190   26.8017 C   0  0  0  0  0  0  0  0  0  0  0  0
    6.4450  -14.6161   25.5987 C   0  0  0  0  0  0  0  0  0  0  0  0
    7.8460  -14.9724   25.1727 C   0  0  2  0  0  0  0  0  0  0  0  0
    7.6754  -15.8132   23.9769 N   0  0  0  0  0  0  0  0  0  0  0  0
    8.4862  -15.8118   26.2029 C   0  0  0  0  0  0  0  0  0  0  0  0
    9.3196  -15.3300   27.2023 O   0  0  0  0  0  0  0  0  0  0  0  0
    8.2790  -17.0501   26.1951 O   0  0  0  0  0  0  0  0  0  0  0  0
  2  1  1  0
  3  4  1  0
  3  2  1  0
  4  5  1  0
  5  1  1  0
  5  6  1  1
  7  6  2  0
  9 10  1  0
  9  8  1  1
 10  6  1  0
 11 18  1  0
 11  9  1  0
 12 11  2  0
 14 13  1  0
 15 16  1  0
 15 14  1  0
 17 18  1  0
 17 16  1  1
 19 17  1  0
 20 19  1  0
 21 19  2  0
M  END
$$$$
