HYA.pdb
     RDKit          3D

 28 29  0  0  1  0  0  0  0  0999 V2000
   20.1929  -13.3240  -18.8296 N   0  0  0  0  0  0  0  0  0  0  0  0
   20.2459  -12.3334  -17.7928 C   0  0  1  0  0  0  0  0  0  0  0  0
   21.0270  -12.8667  -16.6096 C   0  0  0  0  0  0  0  0  0  0  0  0
   20.3093  -14.0361  -16.0141 C   0  0  0  0  0  0  0  0  0  0  0  0
   20.7165  -15.3491  -16.1071 C   0  0  0  0  0  0  0  0  0  0  0  0
   19.8283  -16.1176  -15.4542 N   0  0  0  0  0  0  0  0  0  0  0  0
   18.8969  -15.3074  -14.9696 C   0  0  0  0  0  0  0  0  0  0  0  0
   19.1757  -14.0390  -15.3018 N   0  0  0  0  0  0  0  0  0  0  0  0
   20.8265  -11.0704  -18.3057 C   0  0  0  0  0  0  0  0  0  0  0  0
   21.8148  -11.1137  -19.1044 O   0  0  0  0  0  0  0  0  0  0  0  0
   22.2144   -3.8524  -22.5206 O   0  0  0  0  0  0  0  0  0  0  0  0
   21.7806   -5.0058  -21.8902 C   0  0  0  0  0  0  0  0  0  0  0  0
   20.4618   -5.2558  -21.5802 C   0  0  0  0  0  0  0  0  0  0  0  0
   20.0962   -6.4265  -20.9508 C   0  0  0  0  0  0  0  0  0  0  0  0
   21.0434   -7.3736  -20.6176 C   0  0  0  0  0  0  0  0  0  0  0  0
   20.6242   -8.6274  -19.9398 C   0  0  0  0  0  0  0  0  0  0  0  0
   20.7407   -8.5578  -18.4599 C   0  0  2  0  0  0  0  0  0  0  0  0
   20.2782   -9.8147  -17.9045 N   0  0  0  0  0  0  0  0  0  0  0  0
   20.0849   -7.4334  -17.8158 C   0  0  0  0  0  0  0  0  0  0  0  0
   18.8299   -7.3821  -17.8171 O   0  0  0  0  0  0  0  0  0  0  0  0
   22.3494   -7.1315  -20.9219 C   0  0  0  0  0  0  0  0  0  0  0  0
   22.7134   -5.9595  -21.5517 C   0  0  0  0  0  0  0  0  0  0  0  0
   19.7907   -4.1661  -17.3934 C   0  0  0  0  0  0  0  0  0  0  0  0
   20.2289   -5.2929  -16.4847 C   0  0  2  0  0  0  0  0  0  0  0  0
   20.7984   -6.3937  -17.1873 N   0  0  0  0  0  0  0  0  0  0  0  0
   19.0309   -5.7491  -15.7421 C   0  0  0  0  0  0  0  0  0  0  0  0
   18.0506   -6.2248  -16.3637 O   0  0  0  0  0  0  0  0  0  0  0  0
   18.9430   -5.6719  -14.3606 O   0  0  0  0  0  0  0  0  0  0  0  0
  2  1  1  6
  3  2  1  0
  4  3  1  0
  5  4  2  0
  6  5  1  0
  7  6  1  0
  7  8  2  0
  8  4  1  0
  9 18  1  0
  9  2  1  0
 10  9  2  0
 12 11  1  0
 13 12  2  0
 14 13  1  0
 15 21  1  0
 15 14  2  0
 17 16  1  6
 16 15  1  0
 17 18  1  0
 19 25  1  0
 19 17  1  0
 20 19  2  0
 21 22  2  0
 22 12  1  0
 24 23  1  6
 24 26  1  0
 24 25  1  0
 26 28  1  0
 27 26  2  0
M  END
$$$$
