HYA.pdb
     RDKit          3D

 28 29  0  0  1  0  0  0  0  0999 V2000
   19.0339  -11.9619  -18.5362 N   0  0  0  0  0  0  0  0  0  0  0  0
   19.6057  -11.2758  -17.4133 C   0  0  1  0  0  0  0  0  0  0  0  0
   20.4334  -12.2389  -16.5875 C   0  0  0  0  0  0  0  0  0  0  0  0
   19.5742  -13.3676  -16.1131 C   0  0  0  0  0  0  0  0  0  0  0  0
   18.4317  -13.2317  -15.3550 C   0  0  0  0  0  0  0  0  0  0  0  0
   17.9281  -14.4553  -15.1207 N   0  0  0  0  0  0  0  0  0  0  0  0
   18.7328  -15.3261  -15.7150 C   0  0  0  0  0  0  0  0  0  0  0  0
   19.7380  -14.6798  -16.3223 N   0  0  0  0  0  0  0  0  0  0  0  0
   20.4076  -10.1140  -17.8634 C   0  0  0  0  0  0  0  0  0  0  0  0
   20.9271  -10.1228  -19.0239 O   0  0  0  0  0  0  0  0  0  0  0  0
   15.4135   -5.3726  -17.8173 O   0  0  0  0  0  0  0  0  0  0  0  0
   16.7162   -5.7995  -18.0092 C   0  0  0  0  0  0  0  0  0  0  0  0
   17.8203   -5.0114  -17.7693 C   0  0  0  0  0  0  0  0  0  0  0  0
   19.0924   -5.4985  -17.9812 C   0  0  0  0  0  0  0  0  0  0  0  0
   19.2874   -6.7862  -18.4383 C   0  0  0  0  0  0  0  0  0  0  0  0
   20.6683   -7.2880  -18.6589 C   0  0  0  0  0  0  0  0  0  0  0  0
   21.3068   -7.8035  -17.4200 C   0  0  2  0  0  0  0  0  0  0  0  0
   20.5941   -8.9936  -16.9984 N   0  0  0  0  0  0  0  0  0  0  0  0
   21.4359   -6.8603  -16.3233 C   0  0  0  0  0  0  0  0  0  0  0  0
   20.4535   -6.6781  -15.5621 O   0  0  0  0  0  0  0  0  0  0  0  0
   18.1987   -7.5702  -18.6773 C   0  0  0  0  0  0  0  0  0  0  0  0
   16.9266   -7.0811  -18.4646 C   0  0  0  0  0  0  0  0  0  0  0  0
   22.2892   -3.8421  -15.2754 C   0  0  0  0  0  0  0  0  0  0  0  0
   22.8352   -5.2258  -15.0023 C   0  0  2  0  0  0  0  0  0  0  0  0
   22.6199   -6.1380  -16.0754 N   0  0  0  0  0  0  0  0  0  0  0  0
   22.1612   -5.7310  -13.7835 C   0  0  0  0  0  0  0  0  0  0  0  0
   21.3864   -6.7149  -13.8569 O   0  0  0  0  0  0  0  0  0  0  0  0
   22.3529   -5.1522  -12.5384 O   0  0  0  0  0  0  0  0  0  0  0  0
  2  1  1  6
  3  2  1  0
  4  3  1  0
  5  4  2  0
  6  5  1  0
  7  6  1  0
  7  8  2  0
  8  4  1  0
  9 18  1  0
  9  2  1  0
 10  9  2  0
 12 11  1  0
 13 12  2  0
 14 13  1  0
 15 21  1  0
 15 14  2  0
 17 16  1  6
 16 15  1  0
 17 18  1  0
 19 25  1  0
 19 17  1  0
 20 19  2  0
 21 22  2  0
 22 12  1  0
 24 23  1  6
 24 26  1  0
 24 25  1  0
 26 28  1  0
 27 26  2  0
M  END
$$$$
