HYA.pdb
     RDKit          3D

 28 29  0  0  1  0  0  0  0  0999 V2000
   19.8975  -10.6722  -16.2115 N   0  0  0  0  0  0  0  0  0  0  0  0
   19.4267   -9.4714  -15.5827 C   0  0  1  0  0  0  0  0  0  0  0  0
   18.5635   -9.8195  -14.3877 C   0  0  0  0  0  0  0  0  0  0  0  0
   17.3224  -10.5178  -14.8452 C   0  0  0  0  0  0  0  0  0  0  0  0
   16.9673  -11.8065  -14.5111 C   0  0  0  0  0  0  0  0  0  0  0  0
   15.7952  -12.0922  -15.1029 N   0  0  0  0  0  0  0  0  0  0  0  0
   15.4320  -11.0140  -15.7845 C   0  0  0  0  0  0  0  0  0  0  0  0
   16.3504  -10.0487  -15.6374 N   0  0  0  0  0  0  0  0  0  0  0  0
   20.5634   -8.6014  -15.2002 C   0  0  0  0  0  0  0  0  0  0  0  0
   21.6446   -9.1280  -14.7873 O   0  0  0  0  0  0  0  0  0  0  0  0
   21.3099   -5.8329  -21.3551 O   0  0  0  0  0  0  0  0  0  0  0  0
   21.6262   -6.0637  -20.0274 C   0  0  0  0  0  0  0  0  0  0  0  0
   21.4197   -7.2686  -19.3924 C   0  0  0  0  0  0  0  0  0  0  0  0
   21.7576   -7.4324  -18.0659 C   0  0  0  0  0  0  0  0  0  0  0  0
   22.3101   -6.3927  -17.3454 C   0  0  0  0  0  0  0  0  0  0  0  0
   22.6658   -6.5942  -15.9170 C   0  0  0  0  0  0  0  0  0  0  0  0
   21.5457   -6.2918  -14.9884 C   0  0  2  0  0  0  0  0  0  0  0  0
   20.4432   -7.1819  -15.2954 N   0  0  0  0  0  0  0  0  0  0  0  0
   21.1008   -4.9100  -14.9467 C   0  0  0  0  0  0  0  0  0  0  0  0
   20.1450   -4.5588  -15.6822 O   0  0  0  0  0  0  0  0  0  0  0  0
   22.5166   -5.1986  -17.9686 C   0  0  0  0  0  0  0  0  0  0  0  0
   22.1778   -5.0366  -19.2959 C   0  0  0  0  0  0  0  0  0  0  0  0
   22.1095   -1.8084  -12.9756 C   0  0  0  0  0  0  0  0  0  0  0  0
   21.2670   -2.5936  -13.9560 C   0  0  2  0  0  0  0  0  0  0  0  0
   21.6971   -3.9427  -14.1138 N   0  0  0  0  0  0  0  0  0  0  0  0
   21.3462   -1.8955  -15.2603 C   0  0  0  0  0  0  0  0  0  0  0  0
   20.7307   -0.8161  -15.4330 O   0  0  0  0  0  0  0  0  0  0  0  0
   22.0866   -2.3929  -16.3218 O   0  0  0  0  0  0  0  0  0  0  0  0
  2  1  1  1
  3  2  1  0
  4  3  1  0
  5  4  2  0
  6  5  1  0
  7  6  1  0
  7  8  2  0
  8  4  1  0
  9 18  1  0
  9  2  1  0
 10  9  2  0
 12 11  1  0
 13 12  2  0
 14 13  1  0
 15 21  1  0
 15 14  2  0
 17 16  1  6
 16 15  1  0
 17 18  1  0
 19 25  1  0
 19 17  1  0
 20 19  2  0
 21 22  2  0
 22 12  1  0
 24 23  1  1
 24 26  1  0
 24 25  1  0
 26 28  1  0
 27 26  2  0
M  END
$$$$
