HYA.pdb
     RDKit          3D

 28 29  0  0  1  0  0  0  0  0999 V2000
   15.6724  -18.8082    4.9813 N   0  0  0  0  0  0  0  0  0  0  0  0
   16.0582  -18.3528    6.2861 C   0  0  1  0  0  0  0  0  0  0  0  0
   16.3642  -19.5392    7.1767 C   0  0  0  0  0  0  0  0  0  0  0  0
   15.1172  -20.3309    7.4123 C   0  0  0  0  0  0  0  0  0  0  0  0
   14.1512  -20.0312    8.3480 C   0  0  0  0  0  0  0  0  0  0  0  0
   13.1826  -20.9597    8.2724 N   0  0  0  0  0  0  0  0  0  0  0  0
   13.5352  -21.8111    7.3186 C   0  0  0  0  0  0  0  0  0  0  0  0
   14.7090  -21.4419    6.7866 N   0  0  0  0  0  0  0  0  0  0  0  0
   17.2106  -17.4258    6.1967 C   0  0  0  0  0  0  0  0  0  0  0  0
   18.1469  -17.6675    5.3711 O   0  0  0  0  0  0  0  0  0  0  0  0
   21.9784  -10.0784    6.7554 O   0  0  0  0  0  0  0  0  0  0  0  0
   20.9743  -11.0264    6.8516 C   0  0  0  0  0  0  0  0  0  0  0  0
   20.4204  -11.4324    8.0458 C   0  0  0  0  0  0  0  0  0  0  0  0
   19.4218  -12.3824    8.0719 C   0  0  0  0  0  0  0  0  0  0  0  0
   18.9554  -12.9474    6.9021 C   0  0  0  0  0  0  0  0  0  0  0  0
   17.8782  -13.9693    6.9564 C   0  0  0  0  0  0  0  0  0  0  0  0
   18.3965  -15.3608    7.0174 C   0  0  2  0  0  0  0  0  0  0  0  0
   17.2671  -16.2698    7.0327 N   0  0  0  0  0  0  0  0  0  0  0  0
   19.3159  -15.6572    8.1017 C   0  0  0  0  0  0  0  0  0  0  0  0
   18.8486  -15.9162    9.2385 O   0  0  0  0  0  0  0  0  0  0  0  0
   19.4997  -12.5495    5.7179 C   0  0  0  0  0  0  0  0  0  0  0  0
   20.4988  -11.5988    5.6938 C   0  0  0  0  0  0  0  0  0  0  0  0
   23.0291  -16.3862    8.3156 C   0  0  0  0  0  0  0  0  0  0  0  0
   21.6727  -16.0721    8.9065 C   0  0  2  0  0  0  0  0  0  0  0  0
   20.7147  -15.6668    7.9330 N   0  0  0  0  0  0  0  0  0  0  0  0
   21.8650  -14.9827    9.8919 C   0  0  0  0  0  0  0  0  0  0  0  0
   21.5336  -13.8081    9.6016 O   0  0  0  0  0  0  0  0  0  0  0  0
   22.4065  -15.2084   11.1480 O   0  0  0  0  0  0  0  0  0  0  0  0
  2  1  1  6
  3  2  1  0
  4  3  1  0
  5  4  2  0
  6  5  1  0
  7  6  1  0
  7  8  2  0
  8  4  1  0
  9 18  1  0
  9  2  1  0
 10  9  2  0
 12 11  1  0
 13 12  2  0
 14 13  1  0
 15 21  1  0
 15 14  2  0
 17 16  1  1
 16 15  1  0
 17 18  1  0
 19 25  1  0
 19 17  1  0
 20 19  2  0
 21 22  2  0
 22 12  1  0
 24 23  1  6
 24 26  1  0
 24 25  1  0
 26 28  1  0
 27 26  2  0
M  END
$$$$
