HYA.pdb
     RDKit          3D

 28 29  0  0  1  0  0  0  0  0999 V2000
   21.9717   -7.4883  -18.4898 N   0  0  0  0  0  0  0  0  0  0  0  0
   22.3988   -6.1186  -18.4704 C   0  0  1  0  0  0  0  0  0  0  0  0
   22.1941   -5.4953  -19.8357 C   0  0  0  0  0  0  0  0  0  0  0  0
   23.0723   -6.1730  -20.8390 C   0  0  0  0  0  0  0  0  0  0  0  0
   22.6458   -6.7078  -22.0351 C   0  0  0  0  0  0  0  0  0  0  0  0
   23.7080   -7.2308  -22.6706 N   0  0  0  0  0  0  0  0  0  0  0  0
   24.7634   -7.0277  -21.8935 C   0  0  0  0  0  0  0  0  0  0  0  0
   24.3927   -6.3858  -20.7767 N   0  0  0  0  0  0  0  0  0  0  0  0
   21.6861   -5.3637  -17.4133 C   0  0  0  0  0  0  0  0  0  0  0  0
   20.4166   -5.4076  -17.3592 O   0  0  0  0  0  0  0  0  0  0  0  0
   19.2165   -9.1915  -12.9914 O   0  0  0  0  0  0  0  0  0  0  0  0
   19.8955   -8.0129  -13.2474 C   0  0  0  0  0  0  0  0  0  0  0  0
   19.3706   -6.7622  -13.0059 C   0  0  0  0  0  0  0  0  0  0  0  0
   20.1009   -5.6266  -13.2839 C   0  0  0  0  0  0  0  0  0  0  0  0
   21.3737   -5.7178  -13.8100 C   0  0  0  0  0  0  0  0  0  0  0  0
   22.1406   -4.4790  -14.1010 C   0  0  0  0  0  0  0  0  0  0  0  0
   21.7713   -3.8550  -15.3982 C   0  0  2  0  0  0  0  0  0  0  0  0
   22.4220   -4.5929  -16.4631 N   0  0  0  0  0  0  0  0  0  0  0  0
   22.0273   -2.4309  -15.5221 C   0  0  0  0  0  0  0  0  0  0  0  0
   23.2147   -2.0231  -15.4829 O   0  0  0  0  0  0  0  0  0  0  0  0
   21.8979   -6.9523  -14.0509 C   0  0  0  0  0  0  0  0  0  0  0  0
   21.1657   -8.0877  -13.7721 C   0  0  0  0  0  0  0  0  0  0  0  0
   19.8721    0.6630  -16.0689 C   0  0  0  0  0  0  0  0  0  0  0  0
   21.1688   -0.0757  -15.8233 C   0  0  2  0  0  0  0  0  0  0  0  0
   20.9974   -1.4833  -15.6851 N   0  0  0  0  0  0  0  0  0  0  0  0
   21.7579    0.4733  -14.5798 C   0  0  0  0  0  0  0  0  0  0  0  0
   21.5201   -0.0755  -13.4771 O   0  0  0  0  0  0  0  0  0  0  0  0
   22.5782    1.5910  -14.5805 O   0  0  0  0  0  0  0  0  0  0  0  0
  2  1  1  6
  3  2  1  0
  4  3  1  0
  5  4  2  0
  6  5  1  0
  7  6  1  0
  7  8  2  0
  8  4  1  0
  9 18  1  0
  9  2  1  0
 10  9  2  0
 12 11  1  0
 13 12  2  0
 14 13  1  0
 15 21  1  0
 15 14  2  0
 17 16  1  1
 16 15  1  0
 17 18  1  0
 19 25  1  0
 19 17  1  0
 20 19  2  0
 21 22  2  0
 22 12  1  0
 24 23  1  1
 24 26  1  0
 24 25  1  0
 26 28  1  0
 27 26  2  0
M  END
$$$$
